data_PCOD9494484
_publ_section_title
;
Structure prediction by ZEFSAII (Michael W. Deem and Ramdas Pophale) SiO2 
 PCOD9494484
Probable space group: C M M M
;
_chemical_formula_sum "Si O2"
_cell_formula_units_Z 96
_cell_length_a 21.904072
_cell_length_b 31.960564
_cell_length_c 7.442140
_cell_angle_alpha 90.000000
_cell_angle_beta 90.000000
_cell_angle_gamma 90.000000
_cell_volume 5209.992865
_symmetry_space_group_name_H-M "C M M M"
_symmetry_group_IT_number 65
_symmetry_cell_setting 'orthorhombic'
loop_
_space_group_symop_operation_xyz
x,y,z
-x,-y,z
x,-y,-z
-x,y,-z
-x,-y,-z
x,y,-z
-x,y,z
x,-y,z
1/2+x,1/2+y,z
1/2-x,1/2-y,z
1/2+x,1/2-y,-z
1/2-x,1/2+y,-z
1/2-x,1/2-y,-z
1/2+x,1/2+y,-z
1/2-x,1/2+y,z
1/2+x,1/2-y,z
loop_
_atom_site_type_symbol
_atom_site_label
_atom_site_fract_x
_atom_site_fract_y
_atom_site_fract_z
Si Si1 0.433583 0.252123 0.280807
Si Si2 0.264860 0.637065 0.286656
Si Si3 0.098221 0.845125 0.282046
Si Si4 0.934874 0.937227 0.208225
Si Si5 0.196544 0.717171 0.280336
Si Si6 0.298784 0.454642 0.784198
O O1 0.432733 0.251055 0.500000
O O2 0.500000 0.235423 0.223870
O O3 0.428751 0.300844 0.228074
O O4 0.371107 0.230207 0.220308
O O5 0.266326 0.642691 0.500000
O O6 0.331552 0.651327 0.220711
O O7 0.215600 0.670525 0.220731
O O8 0.261240 0.587313 0.257532
O O9 0.096500 0.846736 0.500000
O O10 0.066548 0.886912 0.215107
O O11 0.868881 0.950063 0.285072
O O12 0.000000 0.951007 0.287132
O O13 0.934634 0.950468 0.000000
O O14 0.195435 0.718578 0.500000
O O15 0.250000 0.750000 0.227323
O O16 0.274783 0.500000 0.724856
O O17 0.302729 0.455129 0.000000
#
# Coordination Sequence:
#
# PCOD9494484 Si02
#       6
#    16  16  16  16  16  16
#     4   9  15  21  33  56  83 108 137 171 199 228
#     4   9  16  26  43  62  79 104 136 169 202 237
#     4   9  15  24  38  56  77 103 136 170 200 229
#     4   9  17  27  38  53  74 101 133 167 203 242
#     4   9  14  23  38  57  82 111 140 166 197 240
#     4   9  18  31  44  57  76 102 131 168 211 248
#
# _framework density 18.426129
#
# number of rings (size 3 to 8) (size 9 to 14) (size 15 to 20)
#    0.000    3.000    1.667    0.500    0.000    1.667 
#    0.000    1.667    0.000    1.500    0.000    4.667 
#    0.000    0.667    0.000    8.333    0.000    1.333 
#
# Total GULP energy -267532.768758 kJ/mol
# GULP energy per Si atom -5573.599349 kJ/mol
# Density = 1.838419 g / cm^3
# Si number density = 18.426129 Si / 1000 Ang^3
#
#
#
# Elastic Constant Matrix: (Units=GPa)
#
#
# Indices 1 2 3 4 5 6 
#
# 1 117.8376 78.9354 4.3851 0.0000 0.0000 0.0000
# 2 78.9354 143.6925 0.1524 0.0000 0.0000 0.0000
# 3 4.3851 0.1524 54.2033 0.0000 0.0000 0.0000
# 4 0.0000 0.0000 0.0000 8.8752 0.0000 0.0000
# 5 0.0000 0.0000 0.0000 0.0000 3.0108 0.0000
# 6 0.0000 0.0000 0.0000 0.0000 0.0000 -7.8128
#
#
#
# Elastic Compliance Matrix: (Units=1/GPa)
#
#
# Indices 1 2 3 4 5 6 
#
# 1 0.013489 -0.007409 -0.001070 0.000000 0.000000 0.000000
# 2 -0.007409 0.011029 0.000568 0.000000 0.000000 0.000000
# 3 -0.001070 0.000568 0.018534 0.000000 0.000000 0.000000
# 4 0.000000 0.000000 0.000000 0.112674 0.000000 0.000000
# 5 0.000000 0.000000 0.000000 0.000000 0.332136 0.000000
# 6 0.000000 0.000000 0.000000 0.000000 0.000000 -0.127995
#
#
# Mechanical properties :
#
#
# Convention : Reuss Voigt Hill
#
# Bulk Modulus (GPa) = 36.72439 53.63104 45.17771
# Shear Modulus (GPa) = 12.99492 16.29867 14.64679
#
# Velocity S-wave (km/s) = 2.65852 2.97735 2.82244
# Velocity P-wave (km/s) = 5.42195 6.40224 5.93238
#
# Compressibility (1/GPa) = 0.02722986
#
# Stress axis : x y z
#
# Youngs Moduli (GPa) = 74.13426 90.67282 53.95474
#
# Poissons Ratio (x) = 0.67178 0.05776
# Poissons Ratio (y) = 0.54925 -0.03067
# Poissons Ratio (z) = 0.07936 -0.05154
#
# Static dielectric constant tensor:
#      x y z
#    x 1.644380 0.000000 0.000000 
#    y 0.000000 1.657740 0.000000 
#    z 0.000000 0.000000 1.706660 
# 
# From -- ./inp_files/29211.got.cif
#   From: 2010.05.17/outbox.cif.g08.bks.cpg/sg65_15_cif.got.tgz:29211.got - 2010.06.03 17:01:31.
