data_PCOD9494509
_publ_section_title
;
Structure prediction by ZEFSAII (Michael W. Deem and Ramdas Pophale) SiO2 
 PCOD9494509
Probable space group: C M M M
;
_chemical_formula_sum "Si O2"
_cell_formula_units_Z 72
_cell_length_a 29.359080
_cell_length_b 7.755390
_cell_length_c 14.030854
_cell_angle_alpha 90.000000
_cell_angle_beta 90.000000
_cell_angle_gamma 90.000000
_cell_volume 3194.700798
_symmetry_space_group_name_H-M "C M M M"
_symmetry_group_IT_number 65
_symmetry_cell_setting 'orthorhombic'
loop_
_space_group_symop_operation_xyz
x,y,z
-x,-y,z
x,-y,-z
-x,y,-z
-x,-y,-z
x,y,-z
-x,y,z
x,-y,z
1/2+x,1/2+y,z
1/2-x,1/2-y,z
1/2+x,1/2-y,-z
1/2-x,1/2+y,-z
1/2-x,1/2-y,-z
1/2+x,1/2+y,-z
1/2-x,1/2+y,z
1/2+x,1/2-y,z
loop_
_atom_site_type_symbol
_atom_site_label
_atom_site_fract_x
_atom_site_fract_y
_atom_site_fract_z
Si Si1 0.898660 0.303356 0.605982
Si Si2 0.447697 0.210466 0.000000
Si Si3 0.395422 0.211975 0.808808
Si Si4 0.700983 0.308745 0.614044
Si Si5 0.198883 0.706802 0.891173
O O1 0.906274 0.224737 0.500000
O O2 0.915294 0.500000 0.600833
O O3 0.914703 0.226138 0.706728
O O4 0.843833 0.306263 0.622750
O O5 0.422879 0.265114 0.902823
O O6 0.500000 0.263827 0.000000
O O7 0.446023 0.000000 0.000000
O O8 0.343097 0.267098 0.827381
O O9 0.396359 0.000000 0.805242
O O10 0.706873 0.320431 0.500000
O O11 0.690531 0.500000 0.649435
O O12 0.750000 0.250000 0.651666
O O13 0.195572 0.500000 0.893966
O O14 0.250000 0.750000 0.861340
O O15 0.193047 0.770897 0.000000
#
# Coordination Sequence:
#
# PCOD9494509 Si02
#       5
#    16   8  16  16  16
#     4   9  17  28  42  61  88 123 156 185 227 281
#     4   9  16  28  49  74  95 117 151 193 236 283
#     4   9  16  28  45  66  93 123 154 192 234 273
#     4   9  16  26  40  58  84 120 163 205 236 265
#     4   9  16  27  43  62  88 119 150 186 225 265
#
# _framework density 22.537320999999999
#
# number of rings (size 3 to 8) (size 9 to 14) (size 15 to 20)
#    0.000    3.000    1.111    0.667    0.000    3.556 
#    0.000    3.333    0.000    0.667    0.000    4.667 
#    0.000    7.111    0.000    5.556    0.000    5.778 
#
# Total GULP energy -200617.180517 kJ/mol
# GULP energy per Si atom -5572.699459 kJ/mol
# Density = 2.248603 g / cm^3
# Si number density = 22.537321 Si / 1000 Ang^3
#
#
#
# Elastic Constant Matrix: (Units=GPa)
#
#
# Indices 1 2 3 4 5 6 
#
# 1 56.6004 -3.7809 54.6613 0.0000 0.0000 0.0000
# 2 -3.7809 41.7133 3.5017 0.0000 0.0000 0.0000
# 3 54.6613 3.5017 248.7672 0.0000 0.0000 0.0000
# 4 0.0000 0.0000 0.0000 3.9698 0.0000 0.0000
# 5 0.0000 0.0000 0.0000 0.0000 -5.9323 0.0000
# 6 0.0000 0.0000 0.0000 0.0000 0.0000 6.5446
#
#
#
# Elastic Compliance Matrix: (Units=1/GPa)
#
#
# Indices 1 2 3 4 5 6 
#
# 1 0.022679 0.002477 -0.005018 0.000000 0.000000 0.000000
# 2 0.002477 0.024272 -0.000886 0.000000 0.000000 0.000000
# 3 -0.005018 -0.000886 0.005135 0.000000 0.000000 0.000000
# 4 0.000000 0.000000 0.000000 0.251901 0.000000 0.000000
# 5 0.000000 0.000000 0.000000 0.000000 -0.168569 0.000000
# 6 0.000000 0.000000 0.000000 0.000000 0.000000 0.152798
#
#
# Mechanical properties :
#
#
# Convention : Reuss Voigt Hill
#
# Bulk Modulus (GPa) = 22.10820 50.64943 36.37882
# Shear Modulus (GPa) = 16.12136 20.42968 18.27552
#
# Velocity S-wave (km/s) = 2.67745 3.01405 2.85072
# Velocity P-wave (km/s) = 4.40331 5.88515 5.19732
#
# Compressibility (1/GPa) = 0.04523209
#
# Stress axis : x y z
#
# Youngs Moduli (GPa) = 44.09274 41.19968 194.74446
#
# Poissons Ratio (x) = -0.10205 0.97727
# Poissons Ratio (y) = -0.10921 0.17253
# Poissons Ratio (z) = 0.22127 0.03650
#
# Static dielectric constant tensor:
#      x y z
#    x 1.803860 0.000000 0.000000 
#    y 0.000000 1.835640 0.000000 
#    z 0.000000 0.000000 1.929700 
# 
# From -- ./inp_files/36946.got.cif
#   From: 2010.05.17/outbox.cif.g08.bks.cpg/sg65_19_cif.got.tgz:36946.got - 2010.06.03 17:01:31.
