data_PCOD9494366
_publ_section_title
;
Structure prediction by ZEFSAII (Michael W. Deem and Ramdas Pophale) SiO2 
 PCOD9494366
Probable space group: C M M M
;
_chemical_formula_sum "Si O2"
_cell_formula_units_Z 104
_cell_length_a 25.046914
_cell_length_b 29.638221
_cell_length_c 7.494050
_cell_angle_alpha 90.000000
_cell_angle_beta 90.000000
_cell_angle_gamma 90.000000
_cell_volume 5563.177835
_symmetry_space_group_name_H-M "C M M M"
_symmetry_group_IT_number 65
_symmetry_cell_setting 'orthorhombic'
loop_
_space_group_symop_operation_xyz
x,y,z
-x,-y,z
x,-y,-z
-x,y,-z
-x,-y,-z
x,y,-z
-x,y,z
x,-y,z
1/2+x,1/2+y,z
1/2-x,1/2-y,z
1/2+x,1/2-y,-z
1/2-x,1/2+y,-z
1/2-x,1/2-y,-z
1/2+x,1/2+y,-z
1/2-x,1/2+y,z
1/2+x,1/2-y,z
loop_
_atom_site_type_symbol
_atom_site_label
_atom_site_fract_x
_atom_site_fract_y
_atom_site_fract_z
Si Si1 0.439128 0.125540 0.288112
Si Si2 0.437634 0.323172 0.782180
Si Si3 0.263277 0.551697 0.785645
Si Si4 0.873888 0.910796 0.781702
Si Si5 0.061663 0.724492 0.214272
Si Si6 0.642547 0.948752 0.712838
Si Si7 0.938577 0.000000 0.217666
O O1 0.443279 0.118606 0.500000
O O2 0.500000 0.124112 0.215439
O O3 0.415507 0.175893 0.264380
O O4 0.400481 0.086732 0.215714
O O5 0.500000 0.328265 0.730221
O O6 0.402085 0.364947 0.721115
O O7 0.417513 0.273374 0.725839
O O8 0.437396 0.323826 0.000000
O O9 0.269576 0.500000 0.720159
O O10 0.312867 0.581658 0.723564
O O11 0.203497 0.566674 0.741323
O O12 0.266817 0.549944 0.000000
O O13 0.907717 0.954810 0.727295
O O14 0.874468 0.910042 0.000000
O O15 0.000000 0.723166 0.276667
O O16 0.061307 0.725609 0.000000
O O17 0.634872 0.951441 0.500000
O O18 0.637460 0.000000 0.784001
O O19 0.000000 0.000000 0.275479
O O20 0.938499 0.000000 0.000000
#
# Coordination Sequence:
#
# PCOD9494366 Si02
#       7
#    16  16  16  16  16  16   8
#     4   9  17  29  46  67  87 106 129 162 207 252
#     4   8  13  21  35  57  84 113 143 174 209 247
#     4   9  16  27  42  60  84 113 145 177 207 239
#     4   9  14  21  34  55  84 115 144 175 210 247
#     4   8  14  25  41  61  85 112 140 168 200 244
#     4   9  18  31  46  64  85 108 135 166 200 247
#     4   9  14  18  28  52  87 119 140 167 214 260
#
# _framework density 18.694351000000001
#
# number of rings (size 3 to 8) (size 9 to 14) (size 15 to 20)
#    0.000    3.308    0.769    1.385    0.000    2.769 
#    0.000    1.538    0.000    1.846    0.000   10.769 
#    0.000    2.462    0.000    0.000    0.000    0.308 
#
# Total GULP energy -289658.850356 kJ/mol
# GULP energy per Si atom -5570.362507 kJ/mol
# Density = 1.865180 g / cm^3
# Si number density = 18.694351 Si / 1000 Ang^3
#
#
#
# Elastic Constant Matrix: (Units=GPa)
#
#
# Indices 1 2 3 4 5 6 
#
# 1 117.6381 105.2947 3.3799 0.0000 0.0000 0.0000
# 2 105.2947 169.7253 5.0350 0.0000 0.0000 0.0000
# 3 3.3799 5.0350 49.1144 0.0000 0.0000 0.0000
# 4 0.0000 0.0000 0.0000 19.2449 0.0000 0.0000
# 5 0.0000 0.0000 0.0000 0.0000 21.3973 0.0000
# 6 0.0000 0.0000 0.0000 0.0000 0.0000 10.5244
#
#
#
# Elastic Compliance Matrix: (Units=1/GPa)
#
#
# Indices 1 2 3 4 5 6 
#
# 1 0.019115 -0.011856 -0.000100 0.000000 0.000000 0.000000
# 2 -0.011856 0.013263 -0.000544 0.000000 0.000000 0.000000
# 3 -0.000100 -0.000544 0.020423 0.000000 0.000000 0.000000
# 4 0.000000 0.000000 0.000000 0.051962 0.000000 0.000000
# 5 0.000000 0.000000 0.000000 0.000000 0.046735 0.000000
# 6 0.000000 0.000000 0.000000 0.000000 0.000000 0.095017
#
#
# Mechanical properties :
#
#
# Convention : Reuss Voigt Hill
#
# Bulk Modulus (GPa) = 35.96813 62.65519 49.31166
# Shear Modulus (GPa) = 17.80734 25.08452 21.44593
#
# Velocity S-wave (km/s) = 3.08969 3.66706 3.39069
# Velocity P-wave (km/s) = 5.65775 7.17761 6.46252
#
# Compressibility (1/GPa) = 0.02780239
#
# Stress axis : x y z
#
# Youngs Moduli (GPa) = 52.31369 75.39642 48.96377
#
# Poissons Ratio (x) = 0.89390 0.00490
# Poissons Ratio (y) = 0.62023 0.02663
# Poissons Ratio (z) = 0.00523 0.04100
#
# Static dielectric constant tensor:
#      x y z
#    x 1.625740 0.000000 0.000000 
#    y 0.000000 1.664710 0.000000 
#    z 0.000000 0.000000 1.728690 
# 
# From -- ./inp_files/16992.got.cif
#   From: 2010.05.17/outbox.cif.g08.bks.cpg/sg65_9_cif.got.tgz:16992.got - 2010.06.03 17:01:31.
