data_PCOD9494474
_publ_section_title
;
Structure prediction by ZEFSAII (Michael W. Deem and Ramdas Pophale) SiO2 
 PCOD9494474
Probable space group: C M M M
;
_chemical_formula_sum "Si O2"
_cell_formula_units_Z 64
_cell_length_a 39.486511
_cell_length_b 10.634103
_cell_length_c 7.377950
_cell_angle_alpha 90.000000
_cell_angle_beta 90.000000
_cell_angle_gamma 90.000000
_cell_volume 3098.027951
_symmetry_space_group_name_H-M "C M M M"
_symmetry_group_IT_number 65
_symmetry_cell_setting 'orthorhombic'
loop_
_space_group_symop_operation_xyz
x,y,z
-x,-y,z
x,-y,-z
-x,y,-z
-x,-y,-z
x,y,-z
-x,y,z
x,-y,z
1/2+x,1/2+y,z
1/2-x,1/2-y,z
1/2+x,1/2-y,-z
1/2-x,1/2+y,-z
1/2-x,1/2-y,-z
1/2+x,1/2+y,-z
1/2-x,1/2+y,z
1/2+x,1/2-y,z
loop_
_atom_site_type_symbol
_atom_site_label
_atom_site_fract_x
_atom_site_fract_y
_atom_site_fract_z
Si Si1 0.774473 0.857577 0.713621
Si Si2 0.460776 0.000000 0.778461
Si Si3 0.961116 0.000000 0.779012
Si Si4 0.921522 0.749490 0.221223
Si Si5 0.851940 0.144197 0.781806
O O1 0.766938 0.866841 0.500000
O O2 0.750000 0.750000 0.789832
O O3 0.813855 0.820193 0.730807
O O4 0.770871 0.000000 0.788565
O O5 0.440730 0.124375 0.719811
O O6 0.500000 0.000000 0.721489
O O7 0.461085 0.000000 0.000000
O O8 0.941818 0.874124 0.722705
O O9 0.000000 0.000000 0.720998
O O10 0.960885 0.000000 0.000000
O O11 0.882614 0.767591 0.279455
O O12 0.921653 0.747424 0.000000
O O13 0.857783 0.000000 0.719831
O O14 0.853127 0.141694 0.000000
#
# Coordination Sequence:
#
# PCOD9494474 Si02
#       5
#    16   8   8  16  16
#     4   9  18  33  51  69  90 116 146 181 219 260
#     4   9  16  24  34  52  84 121 148 176 219 263
#     4   9  14  20  34  54  76 107 146 180 209 251
#     4   9  15  24  36  54  82 114 146 178 215 256
#     4   9  16  28  46  66  91 120 147 180 221 263
#
# _framework density 20.658303
#
# number of rings (size 3 to 8) (size 9 to 14) (size 15 to 20)
#    0.000    3.000    1.250    0.750    0.000    3.500 
#    2.250    0.000    0.000    0.000    0.000    0.000 
#    0.000    6.000    0.000    0.000    0.000    0.000 
#
# Total GULP energy -178574.546632 kJ/mol
# GULP energy per Si atom -5580.454582 kJ/mol
# Density = 2.061128 g / cm^3
# Si number density = 20.658303 Si / 1000 Ang^3
#
#
#
# Elastic Constant Matrix: (Units=GPa)
#
#
# Indices 1 2 3 4 5 6 
#
# 1 201.5917 137.2664 -0.5754 0.0000 0.0000 0.0000
# 2 137.2664 184.7334 5.8011 0.0000 0.0000 0.0000
# 3 -0.5754 5.8011 71.4597 0.0000 0.0000 0.0000
# 4 0.0000 0.0000 0.0000********** 0.0000 0.0000
# 5 0.0000 0.0000 0.0000 0.0000 32.7030 0.0000
# 6 0.0000 0.0000 0.0000 0.0000 0.0000 42.1884
#
#
#
# Elastic Compliance Matrix: (Units=1/GPa)
#
#
# Indices 1 2 3 4 5 6 
#
# 1 0.010074 -0.007508 0.000691 0.000000 0.000000 0.000000
# 2 -0.007508 0.011022 -0.000955 0.000000 0.000000 0.000000
# 3 0.000691 -0.000955 0.014077 0.000000 0.000000 0.000000
# 4 0.000000 0.000000 0.000000 -0.000019 0.000000 0.000000
# 5 0.000000 0.000000 0.000000 0.000000 0.030578 0.000000
# 6 0.000000 0.000000 0.000000 0.000000 0.000000 0.023703
#
#
# Mechanical properties :
#
#
# Convention : Reuss Voigt Hill
#
# Bulk Modulus (GPa) = 50.94532 82.52987 66.73760
# Shear Modulus (GPa) = 44.83383 -10532.78382 -5243.97500
#
# Velocity S-wave (km/s) = 4.66366 -71.48175 -50.43754
# Velocity P-wave (km/s) = 7.32899 82.29712 57.96164
#
# Compressibility (1/GPa) = 0.01962889
#
# Stress axis : x y z
#
# Youngs Moduli (GPa) = 99.26077 90.73019 71.03780
#
# Poissons Ratio (x) = 0.68116 -0.04906
# Poissons Ratio (y) = 0.74520 0.06785
# Poissons Ratio (z) = -0.06855 0.08666
#
# Static dielectric constant tensor:
#      x y z
#    x 1.706800 0.000000 0.000000 
#    y 0.000000 1.720130 0.000000 
#    z 0.000000 0.000000 1.794120 
# 
# From -- ./inp_files/33239.got.cif
#   From: 2010.05.17/outbox.cif.g08.bks.cpg/sg65_17_cif.got.tgz:33239.got - 2010.06.03 17:01:31.
