data_PCOD9494535
_publ_section_title
;
Structure prediction by ZEFSAII (Michael W. Deem and Ramdas Pophale) SiO2 
 PCOD9494535
Probable space group: C M M M
;
_chemical_formula_sum "Si O2"
_cell_formula_units_Z 72
_cell_length_a 23.141094
_cell_length_b 17.035163
_cell_length_c 8.483000
_cell_angle_alpha 90.000000
_cell_angle_beta 90.000000
_cell_angle_gamma 90.000000
_cell_volume 3344.103011
_symmetry_space_group_name_H-M "C M M M"
_symmetry_group_IT_number 65
_symmetry_cell_setting 'orthorhombic'
loop_
_space_group_symop_operation_xyz
x,y,z
-x,-y,z
x,-y,-z
-x,y,-z
-x,-y,-z
x,y,-z
-x,y,z
x,-y,z
1/2+x,1/2+y,z
1/2-x,1/2-y,z
1/2+x,1/2-y,-z
1/2-x,1/2+y,-z
1/2-x,1/2-y,-z
1/2+x,1/2+y,-z
1/2-x,1/2+y,z
1/2+x,1/2-y,z
loop_
_atom_site_type_symbol
_atom_site_label
_atom_site_fract_x
_atom_site_fract_y
_atom_site_fract_z
Si Si1 0.772410 0.000000 0.311299
Si Si2 0.906766 0.000000 0.314474
Si Si3 0.433823 0.162455 0.822547
Si Si4 0.725244 0.334180 0.809536
Si Si5 0.431081 0.093112 0.500000
Si Si6 0.908015 0.840510 0.813930
O O1 0.839865 0.000000 0.253253
O O2 0.748180 0.916305 0.251678
O O3 0.771063 0.000000 0.500000
O O4 0.933820 0.918283 0.261375
O O5 0.903758 0.000000 0.500000
O O6 0.500000 0.132967 0.832439
O O7 0.406529 0.124662 0.666284
O O8 0.435455 0.255654 0.791120
O O9 0.407816 0.151287 0.000000
O O10 0.750000 0.250000 0.757894
O O11 0.658244 0.333230 0.758260
O O12 0.727907 0.336081 0.000000
O O13 0.500000 0.114997 0.500000
O O14 0.426817 0.000000 0.500000
O O15 0.907584 0.854775 0.000000
#
# Coordination Sequence:
#
# PCOD9494535 Si02
#       6
#     8   8  16  16   8  16
#     4   9  17  29  45  68  96 121 155 198 236 283
#     4   9  17  27  44  70  93 124 161 193 229 275
#     4   9  18  32  51  74  99 128 161 199 243 288
#     4   9  17  30  50  71  91 122 162 198 237 284
#     4   9  18  32  52  75  96 123 163 206 244 288
#     4   9  17  30  48  69  95 124 158 197 236 280
#
# _framework density 21.530438
#
# number of rings (size 3 to 8) (size 9 to 14) (size 15 to 20)
#    0.000    3.000    0.000    0.667    1.556    3.556 
#    0.000    2.778    2.444    3.333    0.000    0.000 
#    0.000    0.000    0.000    0.000    0.000    0.000 
#
# Total GULP energy -200529.586967 kJ/mol
# GULP energy per Si atom -5570.266305 kJ/mol
# Density = 2.148143 g / cm^3
# Si number density = 21.530438 Si / 1000 Ang^3
#
#
#
# Elastic Constant Matrix: (Units=GPa)
#
#
# Indices 1 2 3 4 5 6 
#
# 1 33.7959 27.9677 6.9730 0.0000 0.0000 0.0000
# 2 27.9677 124.5656 69.4197 0.0000 0.0000 0.0000
# 3 6.9730 69.4197 95.3085 0.0000 0.0000 0.0000
# 4 0.0000 0.0000 0.0000 41.0014 0.0000 0.0000
# 5 0.0000 0.0000 0.0000 0.0000 -2.0614 0.0000
# 6 0.0000 0.0000 0.0000 0.0000 0.0000 0.8549
#
#
#
# Elastic Compliance Matrix: (Units=1/GPa)
#
#
# Indices 1 2 3 4 5 6 
#
# 1 0.038159 -0.011802 0.005805 0.000000 0.000000 0.000000
# 2 -0.011802 0.017164 -0.011638 0.000000 0.000000 0.000000
# 3 0.005805 -0.011638 0.018544 0.000000 0.000000 0.000000
# 4 0.000000 0.000000 0.000000 0.024389 0.000000 0.000000
# 5 0.000000 0.000000 0.000000 0.000000 -0.485101 0.000000
# 6 0.000000 0.000000 0.000000 0.000000 0.000000 1.169713
#
#
# Mechanical properties :
#
#
# Convention : Reuss Voigt Hill
#
# Bulk Modulus (GPa) = 25.90981 51.37674 38.64328
# Shear Modulus (GPa) = 6.01682 17.91295 11.96489
#
# Velocity S-wave (km/s) = 1.67351 2.88754 2.35993
# Velocity P-wave (km/s) = 3.97421 5.91873 5.04112
#
# Compressibility (1/GPa) = 0.03859543
#
# Stress axis : x y z
#
# Youngs Moduli (GPa) = 26.20627 58.26315 53.92519
#
# Poissons Ratio (x) = 0.68765 -0.31302
# Poissons Ratio (y) = 0.30930 0.62757
# Poissons Ratio (z) = -0.15212 0.67806
#
# Static dielectric constant tensor:
#      x y z
#    x 1.853920 0.000000 0.000000 
#    y 0.000000 1.788960 0.000000 
#    z 0.000000 0.000000 1.773470 
# 
# From -- ./inp_files/7776.got.cif
#   From: 2010.05.17/outbox.cif.g08.bks.cpg/sg65_4_cif.got.tgz:7776.got - 2010.06.03 17:01:31.
