data_PCOD9494499
_publ_section_title
;
Structure prediction by ZEFSAII (Michael W. Deem and Ramdas Pophale) SiO2 
 PCOD9494499
Probable space group: C M M M
;
_chemical_formula_sum "Si O2"
_cell_formula_units_Z 104
_cell_length_a 29.955918
_cell_length_b 7.500684
_cell_length_c 24.253182
_cell_angle_alpha 90.000000
_cell_angle_beta 90.000000
_cell_angle_gamma 90.000000
_cell_volume 5449.444428
_symmetry_space_group_name_H-M "C M M M"
_symmetry_group_IT_number 65
_symmetry_cell_setting 'orthorhombic'
loop_
_space_group_symop_operation_xyz
x,y,z
-x,-y,z
x,-y,-z
-x,y,-z
-x,-y,-z
x,y,-z
-x,y,z
x,-y,z
1/2+x,1/2+y,z
1/2-x,1/2-y,z
1/2+x,1/2-y,-z
1/2-x,1/2+y,-z
1/2-x,1/2-y,-z
1/2+x,1/2+y,-z
1/2-x,1/2+y,z
1/2+x,1/2-y,z
loop_
_atom_site_type_symbol
_atom_site_label
_atom_site_fract_x
_atom_site_fract_y
_atom_site_fract_z
Si Si1 0.393386 0.781973 0.560866
Si Si2 0.107102 0.718271 0.224570
Si Si3 0.050714 0.788278 0.000000
Si Si4 0.051261 0.282430 0.332515
Si Si5 0.200616 0.286824 0.394101
Si Si6 0.948960 0.711405 0.879237
Si Si7 0.700537 0.786810 0.732323
O O1 0.407850 0.724996 0.500000
O O2 0.424268 0.724471 0.611544
O O3 0.342442 0.723991 0.572636
O O4 0.393919 0.000000 0.561206
O O5 0.107328 0.500000 0.223282
O O6 0.079038 0.771138 0.278635
O O7 0.082296 0.781188 0.169458
O O8 0.158116 0.777699 0.233220
O O9 0.070115 0.736286 0.059150
O O10 0.000000 0.712834 0.000000
O O11 0.048214 0.000000 0.000000
O O12 0.051372 0.500000 0.332745
O O13 0.000000 0.224691 0.329785
O O14 0.196557 0.500000 0.391300
O O15 0.250000 0.250000 0.416693
O O16 0.198576 0.217858 0.330908
O O17 0.952652 0.500000 0.870390
O O18 0.000000 0.783930 0.877417
O O19 0.750000 0.750000 0.754412
O O20 0.696174 0.000000 0.728660
#
# Coordination Sequence:
#
# PCOD9494499 Si02
#       7
#    16  16   8  16  16  16  16
#     4   9  16  25  36  53  80 112 143 176 218 264
#     4   9  15  25  41  62  86 111 141 180 221 255
#     4   9  17  29  43  61  92 129 154 173 206 249
#     4   9  15  23  36  55  81 112 144 177 215 260
#     4   9  16  27  42  59  81 109 139 174 217 263
#     4   9  16  26  43  67  91 116 149 183 210 244
#     4   9  16  27  43  61  84 112 141 174 216 262
#
# _framework density 19.084515
#
# number of rings (size 3 to 8) (size 9 to 14) (size 15 to 20)
#    0.000    3.000    1.538    0.692    0.000    3.385 
#    0.000    2.308    0.000    0.000    0.000    0.538 
#    0.000    1.846    0.000    1.385    0.000    1.538 
#
# Total GULP energy -289955.179783 kJ/mol
# GULP energy per Si atom -5576.061150 kJ/mol
# Density = 1.904108 g / cm^3
# Si number density = 19.084515 Si / 1000 Ang^3
#
#
#
# Elastic Constant Matrix: (Units=GPa)
#
#
# Indices 1 2 3 4 5 6 
#
# 1 139.9235 0.8787 86.9025 0.0000 0.0000 0.0000
# 2 0.8787 49.6969 0.7260 0.0000 0.0000 0.0000
# 3 86.9025 0.7260 160.4364 0.0000 0.0000 0.0000
# 4 0.0000 0.0000 0.0000 -19.6289 0.0000 0.0000
# 5 0.0000 0.0000 0.0000 0.0000 22.4639 0.0000
# 6 0.0000 0.0000 0.0000 0.0000 0.0000 11.1136
#
#
#
# Elastic Compliance Matrix: (Units=1/GPa)
#
#
# Indices 1 2 3 4 5 6 
#
# 1 0.010770 -0.000105 -0.005833 0.000000 0.000000 0.000000
# 2 -0.000105 0.020124 -0.000034 0.000000 0.000000 0.000000
# 3 -0.005833 -0.000034 0.009393 0.000000 0.000000 0.000000
# 4 0.000000 0.000000 0.000000 -0.050945 0.000000 0.000000
# 5 0.000000 0.000000 0.000000 0.000000 0.044516 0.000000
# 6 0.000000 0.000000 0.000000 0.000000 0.000000 0.089980
#
#
# Mechanical properties :
#
#
# Convention : Reuss Voigt Hill
#
# Bulk Modulus (GPa) = 35.28308 58.56345 46.92327
# Shear Modulus (GPa) = 34.42786 20.22635 27.32711
#
# Velocity S-wave (km/s) = 4.25192 3.25904 3.78815
# Velocity P-wave (km/s) = 6.52940 6.70185 6.61619
#
# Compressibility (1/GPa) = 0.02834219
#
# Stress axis : x y z
#
# Youngs Moduli (GPa) = 92.84691 49.69105 106.46313
#
# Poissons Ratio (x) = 0.00523 0.62105
# Poissons Ratio (y) = 0.00977 0.00363
# Poissons Ratio (z) = 0.54162 0.00169
#
# Static dielectric constant tensor:
#      x y z
#    x 1.661770 0.000000 0.000000 
#    y 0.000000 1.750920 0.000000 
#    z 0.000000 0.000000 1.660030 
# 
# From -- ./inp_files/72187.got.cif
#   From: 2010.05.17/outbox.cif.g08.bks.cpg/sg65_37_cif.got.tgz:72187.got - 2010.06.03 17:01:31.
