data_PCOD9494260
_publ_section_title
;
Structure prediction by ZEFSAII (Michael W. Deem and Ramdas Pophale) SiO2 
 PCOD9494260
Probable space group: C M M M
;
_chemical_formula_sum "Si O2"
_cell_formula_units_Z 88
_cell_length_a 14.566440
_cell_length_b 7.343816
_cell_length_c 31.590007
_cell_angle_alpha 90.000000
_cell_angle_beta 90.000000
_cell_angle_gamma 90.000000
_cell_volume 3379.285879
_symmetry_space_group_name_H-M "C M M M"
_symmetry_group_IT_number 65
_symmetry_cell_setting 'orthorhombic'
loop_
_space_group_symop_operation_xyz
x,y,z
-x,-y,z
x,-y,-z
-x,y,-z
-x,-y,-z
x,y,-z
-x,y,z
x,-y,z
1/2+x,1/2+y,z
1/2-x,1/2-y,z
1/2+x,1/2-y,-z
1/2-x,1/2+y,-z
1/2-x,1/2-y,-z
1/2+x,1/2+y,-z
1/2-x,1/2+y,z
1/2+x,1/2-y,z
loop_
_atom_site_type_symbol
_atom_site_label
_atom_site_fract_x
_atom_site_fract_y
_atom_site_fract_z
Si Si1 0.391375 0.278183 0.227914
Si Si2 0.141737 0.782993 0.045379
Si Si3 0.388275 0.283409 0.318537
Si Si4 0.390948 0.706220 0.861937
Si Si5 0.894934 0.783914 0.408424
Si Si6 0.103982 0.285631 0.500000
O O1 0.500000 0.234634 0.229685
O O2 0.384737 0.500000 0.226639
O O3 0.354393 0.211046 0.273187
O O4 0.355493 0.211779 0.182302
O O5 0.250000 0.750000 0.043258
O O6 0.117478 0.708158 0.091655
O O7 0.120565 0.000000 0.046245
O O8 0.104587 0.714707 0.000000
O O9 0.500000 0.262483 0.319726
O O10 0.370583 0.500000 0.316898
O O11 0.355046 0.210952 0.364099
O O12 0.500000 0.691095 0.855516
O O13 0.352074 0.500000 0.865422
O O14 0.852512 0.759619 0.454723
O O15 0.000000 0.712865 0.411938
O O16 0.900556 0.000000 0.402511
O O17 0.096138 0.500000 0.500000
O O18 0.000000 0.203956 0.500000
#
# Coordination Sequence:
#
# PCOD9494260 Si02
#       6
#    16  16  16  16  16   8
#     4   7   9  14  25  43  66  84  98 127 174 218
#     4   9  17  28  41  57  78 104 131 157 186 222
#     4   7   9  13  22  36  52  69  89 116 155 202
#     4   8  13  21  35  56  78  97 120 155 196 229
#     4   8  12  17  24  32  42  59  85 116 150 189
#     4   9  15  19  21  27  41  61  87 121 158 189
#
# _framework density 26.041004000000001
#
# number of rings (size 3 to 8) (size 9 to 14) (size 15 to 20)
#    0.000    4.091    0.000    3.545    0.000    1.455 
#    0.000    1.818    0.000    0.545    0.000    3.818 
#    0.000    4.364    0.000    0.000    0.000    0.000 
#
# Total GULP energy -244977.164920 kJ/mol
# GULP energy per Si atom -5567.662839 kJ/mol
# Density = 2.598173 g / cm^3
# Si number density = 26.041004 Si / 1000 Ang^3
#
#
#
# Elastic Constant Matrix: (Units=GPa)
#
#
# Indices 1 2 3 4 5 6 
#
# 1 82.4078 -8.6445 14.3875 0.0000 0.0000 0.0000
# 2 -8.6445 106.7980 18.8463 0.0000 0.0000 0.0000
# 3 14.3875 18.8463 419.4812 0.0000 0.0000 0.0000
# 4 0.0000 0.0000 0.0000 144.7852 0.0000 0.0000
# 5 0.0000 0.0000 0.0000 0.0000 50.7958 0.0000
# 6 0.0000 0.0000 0.0000 0.0000 0.0000 -7.3583
#
#
#
# Elastic Compliance Matrix: (Units=1/GPa)
#
#
# Indices 1 2 3 4 5 6 
#
# 1 0.012331 0.001081 -0.000471 0.000000 0.000000 0.000000
# 2 0.001081 0.009533 -0.000465 0.000000 0.000000 0.000000
# 3 -0.000471 -0.000465 0.002421 0.000000 0.000000 0.000000
# 4 0.000000 0.000000 0.000000 0.006907 0.000000 0.000000
# 5 0.000000 0.000000 0.000000 0.000000 0.019687 0.000000
# 6 0.000000 0.000000 0.000000 0.000000 0.000000 -0.135900
#
#
# Mechanical properties :
#
#
# Convention : Reuss Voigt Hill
#
# Bulk Modulus (GPa) = 40.69445 73.09618 56.89531
# Shear Modulus (GPa) = -64.83406 76.58438 5.87516
#
# Velocity S-wave (km/s) = -4.99509 5.42890 1.50367
# Velocity P-wave (km/s) = 4.19606 8.21145 4.99104
#
# Compressibility (1/GPa) = 0.02457338
#
# Stress axis : x y z
#
# Youngs Moduli (GPa) = 81.09959 104.89746 413.05638
#
# Poissons Ratio (x) = -0.11342 0.19475
# Poissons Ratio (y) = -0.08769 0.19223
# Poissons Ratio (z) = 0.03824 0.04882
#
# Static dielectric constant tensor:
#      x y z
#    x 2.149470 0.000000 0.000000 
#    y 0.000000 1.897700 0.000000 
#    z 0.000000 0.000000 2.204980 
# 
# From -- ./inp_files/78097.got.cif
#   From: 2010.05.17/outbox.cif.g08.bks.cpg/sg65_40_cif.got.tgz:78097.got - 2010.06.03 17:01:31.
