data_PCOD9494911
_publ_section_title
;
Structure prediction by ZEFSAII (Michael W. Deem and Ramdas Pophale) SiO2 
 PCOD9494911
Probable space group: C C C M
;
_chemical_formula_sum "Si O2"
_cell_formula_units_Z 128
_cell_length_a 25.404342
_cell_length_b 11.979594
_cell_length_c 24.780956
_cell_angle_alpha 90.000000
_cell_angle_beta 90.000000
_cell_angle_gamma 90.000000
_cell_volume 7541.680103
_symmetry_space_group_name_H-M "C C C M"
_symmetry_group_IT_number 66
_symmetry_cell_setting 'orthorhombic'
loop_
_space_group_symop_operation_xyz
x,y,z
-x,-y,z
x,-y,1/2-z
-x,y,1/2-z
-x,-y,-z
x,y,-z
-x,y,1/2+z
x,-y,1/2+z
1/2+x,1/2+y,z
1/2-x,1/2-y,z
1/2+x,1/2-y,1/2-z
1/2-x,1/2+y,1/2-z
1/2-x,1/2-y,-z
1/2+x,1/2+y,-z
1/2-x,1/2+y,1/2+z
1/2+x,1/2-y,1/2+z
loop_
_atom_site_type_symbol
_atom_site_label
_atom_site_fract_x
_atom_site_fract_y
_atom_site_fract_z
Si Si1 0.307604 0.256445 0.615990
Si Si2 0.162358 0.109846 0.720607
Si Si3 0.960987 0.417680 0.092168
Si Si4 0.868955 0.328348 0.724076
Si Si5 0.638255 0.045381 0.835798
Si Si6 0.545757 0.409033 0.828412
Si Si7 0.514541 0.816265 0.194458
Si Si8 0.915439 0.182706 0.060369
O O1 0.250000 0.250000 0.591263
O O2 0.309133 0.341280 0.667347
O O3 0.321428 0.132529 0.638012
O O4 0.354904 0.295004 0.577432
O O5 0.160921 0.214768 0.761617
O O6 0.102199 0.080053 0.701375
O O7 0.184307 0.000000 0.750000
O O8 0.908626 0.466956 0.120762
O O9 0.942981 0.304422 0.063269
O O10 0.000000 0.500000 0.060877
O O11 0.997534 0.380709 0.141997
O O12 0.880762 0.386988 0.782193
O O13 0.843760 0.425367 0.686919
O O14 0.923650 0.295351 0.696296
O O15 0.500000 0.500000 0.820368
O O16 0.520188 0.295123 0.807154
O O17 0.559204 0.391145 0.891821
O O18 0.500000 0.876087 0.250000
O O19 0.919871 0.137172 0.000000
#
# Coordination Sequence:
#
# PCOD9494911 Si02
#       8
#    16  16  16  16  16  16  16  16
#     4   9  19  37  53  69  92 119 163 217 259 296
#     4  10  19  31  44  68 104 135 165 199 230 285
#     4  10  17  25  41  66  98 127 153 191 242 287
#     4  10  16  24  39  63  96 134 166 188 218 271
#     4   9  17  26  41  66  94 124 160 199 232 283
#     4  10  20  29  44  69  97 138 168 195 236 277
#     4  11  16  22  37  65  97 135 166 186 211 269
#     4   9  20  36  50  69  92 119 165 214 258 300
#
# _framework density 16.972345000000001
#
# number of rings (size 3 to 8) (size 9 to 14) (size 15 to 20)
#    0.000    2.250    3.750    2.250    0.000    1.000 
#    4.500    0.000    0.000    0.000    0.000    0.000 
#    0.000    0.000    0.000    8.375    0.000    0.125 
#
# Total GULP energy -356393.537513 kJ/mol
# GULP energy per Si atom -5568.649024 kJ/mol
# Density = 1.693372 g / cm^3
# Si number density = 16.972345 Si / 1000 Ang^3
#
#
#
# Elastic Constant Matrix: (Units=GPa)
#
#
# Indices 1 2 3 4 5 6 
#
# 1 46.0423 2.0265 -3.4287 0.0000 0.0000 0.0000
# 2 2.0265 70.6254 11.9003 0.0000 0.0000 0.0000
# 3 -3.4287 11.9003 64.8020 0.0000 0.0000 0.0000
# 4 0.0000 0.0000 0.0000 -40.8415 0.0000 0.0000
# 5 0.0000 0.0000 0.0000 0.0000 1.6406 0.0000
# 6 0.0000 0.0000 0.0000 0.0000 0.0000 11.1631
#
#
#
# Elastic Compliance Matrix: (Units=1/GPa)
#
#
# Indices 1 2 3 4 5 6 
#
# 1 0.021854 -0.000848 0.001312 0.000000 0.000000 0.000000
# 2 -0.000848 0.014644 -0.002734 0.000000 0.000000 0.000000
# 3 0.001312 -0.002734 0.016003 0.000000 0.000000 0.000000
# 4 0.000000 0.000000 0.000000 -0.024485 0.000000 0.000000
# 5 0.000000 0.000000 0.000000 0.000000 0.609531 0.000000
# 6 0.000000 0.000000 0.000000 0.000000 0.000000 0.089580
#
#
# Mechanical properties :
#
#
# Convention : Reuss Voigt Hill
#
# Bulk Modulus (GPa) = 20.85025 22.49623 21.67324
# Shear Modulus (GPa) = 6.68757 5.79057 6.23907
#
# Velocity S-wave (km/s) = 1.98717 1.84910 1.91937
# Velocity P-wave (km/s) = 4.19245 4.22402 4.20826
#
# Compressibility (1/GPa) = 0.04796106
#
# Stress axis : x y z
#
# Youngs Moduli (GPa) = 45.75783 68.28619 62.48773
#
# Poissons Ratio (x) = 0.05792 -0.08199
# Poissons Ratio (y) = 0.03881 0.17085
# Poissons Ratio (z) = -0.06004 0.18671
#
# Static dielectric constant tensor:
#      x y z
#    x 1.592380 0.000000 0.000000 
#    y 0.000000 1.616770 0.000000 
#    z 0.000000 0.000000 1.572510 
# 
# From -- ./inp_files/59949.got.cif
#   From: 2010.05.17/outbox.cif.g08.bks.cpg/sg66_30_cif.got.tgz:59949.got - 2010.06.03 17:51:23.
