data_PCOD9494291
_publ_section_title
;
Structure prediction by ZEFSAII (Michael W. Deem and Ramdas Pophale) SiO2 
 PCOD9494291
Probable space group: C M M M
;
_chemical_formula_sum "Si O2"
_cell_formula_units_Z 104
_cell_length_a 7.365952
_cell_length_b 28.126148
_cell_length_c 28.298360
_cell_angle_alpha 90.000000
_cell_angle_beta 90.000000
_cell_angle_gamma 90.000000
_cell_volume 5862.736960
_symmetry_space_group_name_H-M "C M M M"
_symmetry_group_IT_number 65
_symmetry_cell_setting 'orthorhombic'
loop_
_space_group_symop_operation_xyz
x,y,z
-x,-y,z
x,-y,-z
-x,y,-z
-x,-y,-z
x,y,-z
-x,y,z
x,-y,z
1/2+x,1/2+y,z
1/2-x,1/2-y,z
1/2+x,1/2-y,-z
1/2-x,1/2+y,-z
1/2-x,1/2-y,-z
1/2+x,1/2+y,-z
1/2-x,1/2+y,z
1/2+x,1/2-y,z
loop_
_atom_site_type_symbol
_atom_site_label
_atom_site_fract_x
_atom_site_fract_y
_atom_site_fract_z
Si Si1 0.784092 0.304151 0.398184
Si Si2 0.778972 0.552884 0.649114
Si Si3 0.778209 0.649211 0.301917
Si Si4 0.716888 0.806820 0.101833
Si Si5 0.782804 0.693522 0.795342
Si Si6 0.782799 0.693054 0.000000
Si Si7 0.721480 0.100790 0.552460
O O1 0.750000 0.250000 0.411745
O O2 0.718866 0.316618 0.345126
O O3 0.719911 0.345714 0.433152
O O4 0.000000 0.309812 0.396590
O O5 0.718247 0.500000 0.661605
O O6 0.723465 0.595978 0.683223
O O7 0.723714 0.567213 0.595835
O O8 0.000000 0.552874 0.649462
O O9 0.713850 0.666900 0.251098
O O10 0.000000 0.650261 0.301100
O O11 0.500000 0.814258 0.101633
O O12 0.750000 0.750000 0.101837
O O13 0.786739 0.823063 0.153090
O O14 0.786770 0.824902 0.050942
O O15 0.750000 0.750000 0.790556
O O16 0.000000 0.687163 0.796323
O O17 0.750000 0.750000 0.000000
O O18 0.000000 0.686113 0.000000
O O19 0.782626 0.087879 0.500000
O O20 0.500000 0.100050 0.551815
#
# Coordination Sequence:
#
# PCOD9494291 Si02
#       7
#    16  16  16  16  16   8  16
#     4   9  16  25  36  49  67  91 113 131 154 183
#     4   8  13  21  33  48  65  85 106 127 158 199
#     4   8  14  23  33  46  65  86 106 131 162 191
#     4   8  13  19  27  39  55  78 106 133 158 182
#     4   9  15  22  32  46  65  88 111 133 158 187
#     4   8  12  18  26  36  52  74 103 135 159 179
#     4   8  14  23  33  47  67  87 106 130 159 188
#
# _framework density 17.739155
#
# number of rings (size 3 to 8) (size 9 to 14) (size 15 to 20)
#    0.000    3.692    0.000    2.308    0.000    0.615 
#    0.000    1.538    0.000    0.000    0.000    0.000 
#    0.000   15.385    0.000    6.231    0.000   28.385 
#
# Total GULP energy -289471.190624 kJ/mol
# GULP energy per Si atom -5566.753666 kJ/mol
# Density = 1.769878 g / cm^3
# Si number density = 17.739155 Si / 1000 Ang^3
#
#
#
# Elastic Constant Matrix: (Units=GPa)
#
#
# Indices 1 2 3 4 5 6 
#
# 1 64.6479 -3.9830 5.0276 0.0000 0.0000 0.0000
# 2 -3.9830 59.8173 23.6959 0.0000 0.0000 0.0000
# 3 5.0276 23.6959 148.8347 0.0000 0.0000 0.0000
# 4 0.0000 0.0000 0.0000 10.6345 0.0000 0.0000
# 5 0.0000 0.0000 0.0000 0.0000 -7.9827 0.0000
# 6 0.0000 0.0000 0.0000 0.0000 0.0000 4.4482
#
#
#
# Elastic Compliance Matrix: (Units=1/GPa)
#
#
# Indices 1 2 3 4 5 6 
#
# 1 0.015608 0.001332 -0.000739 0.000000 0.000000 0.000000
# 2 0.001332 0.017957 -0.002904 0.000000 0.000000 0.000000
# 3 -0.000739 -0.002904 0.007206 0.000000 0.000000 0.000000
# 4 0.000000 0.000000 0.000000 0.094033 0.000000 0.000000
# 5 0.000000 0.000000 0.000000 0.000000 -0.125271 0.000000
# 6 0.000000 0.000000 0.000000 0.000000 0.000000 0.224809
#
#
# Mechanical properties :
#
#
# Convention : Reuss Voigt Hill
#
# Bulk Modulus (GPa) = 27.66354 35.86454 31.76404
# Shear Modulus (GPa) = 19.91925 17.99065 18.95495
#
# Velocity S-wave (km/s) = 3.35460 3.18807 3.27240
# Velocity P-wave (km/s) = 5.53470 5.81492 5.67654
#
# Compressibility (1/GPa) = 0.03614867
#
# Stress axis : x y z
#
# Youngs Moduli (GPa) = 64.06982 55.68985 138.77019
#
# Poissons Ratio (x) = -0.07419 0.10260
# Poissons Ratio (y) = -0.08535 0.40297
# Poissons Ratio (z) = 0.04737 0.16172
#
# Static dielectric constant tensor:
#      x y z
#    x 1.694640 0.000000 0.000000 
#    y 0.000000 1.574830 0.000000 
#    z 0.000000 0.000000 1.661090 
# 
# From -- ./inp_files/75907.got.cif
#   From: 2010.05.17/outbox.cif.g08.bks.cpg/sg65_38_cif.got.tgz:75907.got - 2010.06.03 17:01:31.
