data_PCOD9494666
_publ_section_title
;
Structure prediction by ZEFSAII (Michael W. Deem and Ramdas Pophale) SiO2 
 PCOD9494666
Probable space group: C M M M
;
_chemical_formula_sum "Si O2"
_cell_formula_units_Z 44
_cell_length_a 30.000000
_cell_length_b 9.000000
_cell_length_c 18.000000
_cell_angle_alpha 90.000000
_cell_angle_beta 90.000000
_cell_angle_gamma 90.000000
_cell_volume 4860.000000
_symmetry_space_group_name_H-M "C M M M"
_symmetry_group_IT_number 65
_symmetry_cell_setting 'orthorhombic'
loop_
_space_group_symop_operation_xyz
x,y,z
-x,-y,z
x,-y,-z
-x,y,-z
-x,-y,-z
x,y,-z
-x,y,z
x,-y,z
1/2+x,1/2+y,z
1/2-x,1/2-y,z
1/2+x,1/2-y,-z
1/2-x,1/2+y,-z
1/2-x,1/2-y,-z
1/2+x,1/2+y,-z
1/2-x,1/2+y,z
1/2+x,1/2-y,z
loop_
_atom_site_type_symbol
_atom_site_label
_atom_site_fract_x
_atom_site_fract_y
_atom_site_fract_z
Si Si1 0.450236 0.321688 0.142689
Si Si2 0.201616 0.177890 0.500000
Si Si3 0.146122 0.819794 0.353877
Si Si4 0.548614 0.320501 0.318908
Si Si5 0.201162 0.678897 0.780406
Si Si6 0.360983 0.821592 0.083030
O O1 0.500000 0.276619 0.117211
O O2 0.447094 0.500000 0.134752
O O3 0.447336 0.288243 0.230895
O O4 0.408940 0.246483 0.102668
O O5 0.250000 0.250000 0.500000
O O6 0.173342 0.218220 0.572502
O O7 0.207024 0.000000 0.500000
O O8 0.094326 0.771912 0.357186
O O9 0.170622 0.742831 0.285318
O O10 0.147104 0.000000 0.344196
O O11 0.500000 0.264414 0.344684
O O12 0.547334 0.500000 0.325535
O O13 0.204262 0.500000 0.775379
O O14 0.250000 0.750000 0.776351
O O15 0.175836 0.721053 0.856416
O O16 0.365017 0.000000 0.085880
O O17 0.347901 0.776965 0.000000
#
# Coordination Sequence:
#
# PCOD9494666 Si02
#       6
#    16   8  16  16  16  16
#     4   9  17  31  53  80 107 138 178 219 261 312
#     4  10  22  36  53  81 111 143 178 220 267 316
#     4  10  19  35  58  82 111 142 177 216 261 314
#     4   8  14  27  51  80 108 138 171 211 258 306
#     4  11  23  38  57  79 102 134 179 223 269 321
#     4  10  22  38  53  74 107 141 175 220 271 321
#
# _framework density 9.0534979999999994
#
# number of rings (size 3 to 8) (size 9 to 14) (size 15 to 20)
#    0.000    2.364    1.818    2.182    0.000    4.364 
#    0.000    2.273    0.000    3.273    0.000    0.000 
#    0.000    2.182    0.000    0.000    0.000    0.000 
#
# Total GULP energy -245389.393474 kJ/mol
# GULP energy per Si atom -5577.031670 kJ/mol
# Density = 0.903289 g / cm^3
# Si number density = 9.053498 Si / 1000 Ang^3
#
#
#
# Elastic Constant Matrix: (Units=GPa)
#
#
# Indices 1 2 3 4 5 6 
#
# 1 190.1753 31.8276 90.9517 0.0000 0.0000 0.0000
# 2 31.8276 12.9828 28.6116 0.0000 0.0000 0.0000
# 3 90.9517 28.6116 105.3731 0.0000 0.0000 0.0000
# 4 0.0000 0.0000 0.0000 18.3104 0.0000 0.0000
# 5 0.0000 0.0000 0.0000 0.0000 -46.0133 0.0000
# 6 0.0000 0.0000 0.0000 0.0000 0.0000 25.0018
#
#
#
# Elastic Compliance Matrix: (Units=1/GPa)
#
#
# Indices 1 2 3 4 5 6 
#
# 1 0.009812 -0.013421 -0.004825 0.000000 0.000000 0.000000
# 2 -0.013421 0.210150 -0.045477 0.000000 0.000000 0.000000
# 3 -0.004825 -0.045477 0.026003 0.000000 0.000000 0.000000
# 4 0.000000 0.000000 0.000000 0.054614 0.000000 0.000000
# 5 0.000000 0.000000 0.000000 0.000000 -0.021733 0.000000
# 6 0.000000 0.000000 0.000000 0.000000 0.000000 0.039997
#
#
# Mechanical properties :
#
#
# Convention : Reuss Voigt Hill
#
# Bulk Modulus (GPa) = 8.43747 67.92366 38.18056
# Shear Modulus (GPa) = 10.29240 9.93579 10.11410
#
# Velocity S-wave (km/s) = 2.38674 2.34503 2.36598
# Velocity P-wave (km/s) = 3.50218 6.70269 5.34749
#
# Compressibility (1/GPa) = 0.11851898
#
# Stress axis : x y z
#
# Youngs Moduli (GPa) = 101.91610 4.75850 38.45735
#
# Poissons Ratio (x) = 0.06386 0.18555
# Poissons Ratio (y) = 1.36784 1.74892
# Poissons Ratio (z) = 0.49174 0.21640
#
# Static dielectric constant tensor:
#      x y z
#    x 1.614220 0.000000 0.000000 
#    y 0.000000 1.608150 0.000000 
#    z 0.000000 0.000000 1.624040 
# 
# From -- ./inp_files/50293.got.cif
#   From: 2010.05.17/outbox.ucp.g08.bks.cvg/sg65_26_cif.got.tgz:50293.got - 2010.06.11 16:39:57.
