data_PCOD9494206
_publ_section_title
;
Structure prediction by ZEFSAII (Michael W. Deem and Ramdas Pophale) SiO2 
 PCOD9494206
Probable space group: C M M M
;
_chemical_formula_sum "Si O2"
_cell_formula_units_Z 72
_cell_length_a 7.591532
_cell_length_b 14.424122
_cell_length_c 28.679713
_cell_angle_alpha 90.000000
_cell_angle_beta 90.000000
_cell_angle_gamma 90.000000
_cell_volume 3140.462523
_symmetry_space_group_name_H-M "C M M M"
_symmetry_group_IT_number 65
_symmetry_cell_setting 'orthorhombic'
loop_
_space_group_symop_operation_xyz
x,y,z
-x,-y,z
x,-y,-z
-x,y,-z
-x,-y,-z
x,y,-z
-x,y,z
x,-y,z
1/2+x,1/2+y,z
1/2-x,1/2-y,z
1/2+x,1/2-y,-z
1/2-x,1/2+y,-z
1/2-x,1/2-y,-z
1/2+x,1/2+y,-z
1/2-x,1/2+y,z
1/2+x,1/2-y,z
loop_
_atom_site_type_symbol
_atom_site_label
_atom_site_fract_x
_atom_site_fract_y
_atom_site_fract_z
Si Si1 0.500000 0.885719 0.279287
Si Si2 0.197212 0.891789 0.653495
Si Si3 0.289244 0.358928 0.449968
Si Si4 0.285433 0.392431 0.000000
Si Si5 0.797328 0.113551 0.101399
Si Si6 0.000000 0.613312 0.172624
O O1 0.669726 0.853873 0.308438
O O2 0.500000 0.854902 0.225870
O O3 0.500000 0.000000 0.279376
O O4 0.273543 0.889157 0.600852
O O5 0.000000 0.850218 0.653244
O O6 0.178552 0.000000 0.664555
O O7 0.222069 0.395570 0.500000
O O8 0.500000 0.376347 0.449744
O O9 0.250000 0.250000 0.450901
O O10 0.230140 0.354835 0.949713
O O11 0.230664 0.500000 0.000000
O O12 0.500000 0.390646 0.000000
O O13 0.670241 0.141979 0.142914
O O14 0.000000 0.141851 0.107858
O O15 0.797141 0.000000 0.099973
O O16 0.000000 0.500000 0.173643
#
# Coordination Sequence:
#
# PCOD9494206 Si02
#       6
#     8  16  16   8  16   8
#     4   9  18  30  42  58  80 108 145 185 219 253
#     4   9  18  32  48  65  87 117 149 179 216 260
#     4   9  18  31  48  71  95 117 141 174 218 263
#     4   7  10  17  27  39  58  85 117 156 205 254
#     4   8  13  20  29  42  62  88 120 163 211 253
#     4   9  16  23  32  48  66  89 128 172 213 251
#
# _framework density 22.926558
#
# number of rings (size 3 to 8) (size 9 to 14) (size 15 to 20)
#    0.000    3.444    0.000    1.333    1.556    1.778 
#    0.000    8.889    0.000    2.000    0.000    0.000 
#    0.000    0.000    0.000    0.000    0.000    0.000 
#
# Total GULP energy -200793.744049 kJ/mol
# GULP energy per Si atom -5577.604001 kJ/mol
# Density = 2.287438 g / cm^3
# Si number density = 22.926558 Si / 1000 Ang^3
#
#
#
# Elastic Constant Matrix: (Units=GPa)
#
#
# Indices 1 2 3 4 5 6 
#
# 1 109.5350 2.0785 114.3639 0.0000 0.0000 0.0000
# 2 2.0785 64.4847 1.9597 0.0000 0.0000 0.0000
# 3 114.3639 1.9597 276.1836 0.0000 0.0000 0.0000
# 4 0.0000 0.0000 0.0000 48.8737 0.0000 0.0000
# 5 0.0000 0.0000 0.0000 0.0000 43.5379 0.0000
# 6 0.0000 0.0000 0.0000 0.0000 0.0000 5.1440
#
#
#
# Elastic Compliance Matrix: (Units=1/GPa)
#
#
# Indices 1 2 3 4 5 6 
#
# 1 0.016089 -0.000316 -0.006660 0.000000 0.000000 0.000000
# 2 -0.000316 0.015517 0.000021 0.000000 0.000000 0.000000
# 3 -0.006660 0.000021 0.006378 0.000000 0.000000 0.000000
# 4 0.000000 0.000000 0.000000 0.020461 0.000000 0.000000
# 5 0.000000 0.000000 0.000000 0.000000 0.022968 0.000000
# 6 0.000000 0.000000 0.000000 0.000000 0.000000 0.194401
#
#
# Mechanical properties :
#
#
# Convention : Reuss Voigt Hill
#
# Bulk Modulus (GPa) = 41.53875 76.33415 58.93645
# Shear Modulus (GPa) = 16.79256 41.63120 29.21188
#
# Velocity S-wave (km/s) = 2.70932 4.26590 3.57340
# Velocity P-wave (km/s) = 5.28628 7.59153 6.54125
#
# Compressibility (1/GPa) = 0.02407391
#
# Stress axis : x y z
#
# Youngs Moduli (GPa) = 62.15357 64.44500 156.77725
#
# Poissons Ratio (x) = 0.02038 1.04415
# Poissons Ratio (y) = 0.01965 -0.00327
# Poissons Ratio (z) = 0.41395 -0.00134
#
# Static dielectric constant tensor:
#      x y z
#    x 1.877060 0.000000 0.000000 
#    y 0.000000 1.892380 0.000000 
#    z 0.000000 0.000000 1.840940 
# 
# From -- ./inp_files/67266.got.cif
#   From: 2010.05.17/outbox.cif.g08.bks.cpg/sg65_34_cif.got.tgz:67266.got - 2010.06.03 17:01:31.
