data_PCOD9494759
_publ_section_title
;
Structure prediction by ZEFSAII (Michael W. Deem and Ramdas Pophale) SiO2 
 PCOD9494759
Probable space group: C M M M
;
_chemical_formula_sum "Si O2"
_cell_formula_units_Z 40
_cell_length_a 18.000000
_cell_length_b 9.000000
_cell_length_c 27.000000
_cell_angle_alpha 90.000000
_cell_angle_beta 90.000000
_cell_angle_gamma 90.000000
_cell_volume 4374.000000
_symmetry_space_group_name_H-M "C M M M"
_symmetry_group_IT_number 65
_symmetry_cell_setting 'orthorhombic'
loop_
_space_group_symop_operation_xyz
x,y,z
-x,-y,z
x,-y,-z
-x,y,-z
-x,-y,-z
x,y,-z
-x,y,z
x,-y,z
1/2+x,1/2+y,z
1/2-x,1/2-y,z
1/2+x,1/2-y,-z
1/2-x,1/2+y,-z
1/2-x,1/2-y,-z
1/2+x,1/2+y,-z
1/2-x,1/2+y,z
1/2+x,1/2-y,z
loop_
_atom_site_type_symbol
_atom_site_label
_atom_site_fract_x
_atom_site_fract_y
_atom_site_fract_z
Si Si1 0.911055 0.825263 0.195675
Si Si2 0.167943 0.821234 0.593038
Si Si3 0.088768 0.326715 0.500000
Si Si4 0.589599 0.825858 0.093296
Si Si5 0.831250 0.177573 0.000000
Si Si6 0.331040 0.678740 0.703748
O O1 0.886513 0.734914 0.147188
O O2 0.877200 0.774582 0.248005
O O3 0.000000 0.813056 0.198927
O O4 0.892940 0.000000 0.188560
O O5 0.250000 0.750000 0.589711
O O6 0.120101 0.753105 0.548885
O O7 0.138557 0.785436 0.648666
O O8 0.172396 0.000000 0.588213
O O9 0.111891 0.500000 0.500000
O O10 0.000000 0.319689 0.500000
O O11 0.500000 0.810611 0.090349
O O12 0.607841 0.000000 0.088353
O O13 0.626096 0.734876 0.048823
O O14 0.750000 0.250000 0.000000
O O15 0.826783 0.000000 0.000000
O O16 0.324974 0.500000 0.705420
O O17 0.250000 0.750000 0.707040
#
# Coordination Sequence:
#
# PCOD9494759 Si02
#       6
#    16  16   8  16   8  16
#     4   9  18  34  55  79 108 143 183 223 264 313
#     4  10  20  36  58  81 107 142 183 223 267 322
#     4  11  24  39  54  77 109 141 176 223 276 325
#     4  10  21  38  59  83 112 146 184 224 267 320
#     4  12  25  40  59  83 111 143 181 226 277 326
#     4   9  19  34  54  80 108 140 177 220 267 316
#
# _framework density 9.1449470000000002
#
# number of rings (size 3 to 8) (size 9 to 14) (size 15 to 20)
#    0.000    2.100    0.000    3.000    0.000    6.400 
#    0.000    4.000    0.000    2.400    0.000    0.000 
#    0.000    0.000    0.000    0.000    0.000    0.000 
#
# Total GULP energy -223265.197915 kJ/mol
# GULP energy per Si atom -5581.629948 kJ/mol
# Density = 0.912413 g / cm^3
# Si number density = 9.144947 Si / 1000 Ang^3
#
#
#
# Elastic Constant Matrix: (Units=GPa)
#
#
# Indices 1 2 3 4 5 6 
#
# 1 34.7179 42.9575 59.4250 0.0000 0.0000 0.0000
# 2 42.9575 110.2595 90.5469 0.0000 0.0000 0.0000
# 3 59.4250 90.5469 204.6638 0.0000 0.0000 0.0000
# 4 0.0000 0.0000 0.0000 10.6512 0.0000 0.0000
# 5 0.0000 0.0000 0.0000 0.0000 37.4737 0.0000
# 6 0.0000 0.0000 0.0000 0.0000 0.0000 26.1866
#
#
#
# Elastic Compliance Matrix: (Units=1/GPa)
#
#
# Indices 1 2 3 4 5 6 
#
# 1 0.074038 -0.017578 -0.013720 0.000000 0.000000 0.000000
# 2 -0.017578 0.018418 -0.003045 0.000000 0.000000 0.000000
# 3 -0.013720 -0.003045 0.010217 0.000000 0.000000 0.000000
# 4 0.000000 0.000000 0.000000 0.093886 0.000000 0.000000
# 5 0.000000 0.000000 0.000000 0.000000 0.026685 0.000000
# 6 0.000000 0.000000 0.000000 0.000000 0.000000 0.038188
#
#
# Mechanical properties :
#
#
# Convention : Reuss Voigt Hill
#
# Bulk Modulus (GPa) = 29.42306 81.72223 55.57264
# Shear Modulus (GPa) = 14.64351 25.30976 19.97663
#
# Velocity S-wave (km/s) = 2.83262 3.72400 3.30846
# Velocity P-wave (km/s) = 5.17883 7.95421 6.71155
#
# Compressibility (1/GPa) = 0.03398695
#
# Stress axis : x y z
#
# Youngs Moduli (GPa) = 13.50652 54.29351 97.87699
#
# Poissons Ratio (x) = 0.95438 1.34292
# Poissons Ratio (y) = 0.23742 0.29801
# Poissons Ratio (z) = 0.18532 0.16531
#
# Static dielectric constant tensor:
#      x y z
#    x 1.605830 0.000000 0.000000 
#    y 0.000000 1.613500 0.000000 
#    z 0.000000 0.000000 1.628930 
# 
# From -- ./inp_files/75046.got.cif
#   From: 2010.05.17/outbox.ucp.g08.bks.cvg/sg65_38_cif.got.tgz:75046.got - 2010.06.11 16:39:57.
