data_PCOD9494611
_publ_section_title
;
Structure prediction by ZEFSAII (Michael W. Deem and Ramdas Pophale) SiO2 
 PCOD9494611
Probable space group: C M M M
;
_chemical_formula_sum "Si O2"
_cell_formula_units_Z 52
_cell_length_a 9.000000
_cell_length_b 27.000000
_cell_length_c 24.000000
_cell_angle_alpha 90.000000
_cell_angle_beta 90.000000
_cell_angle_gamma 90.000000
_cell_volume 5832.000000
_symmetry_space_group_name_H-M "C M M M"
_symmetry_group_IT_number 65
_symmetry_cell_setting 'orthorhombic'
loop_
_space_group_symop_operation_xyz
x,y,z
-x,-y,z
x,-y,-z
-x,y,-z
-x,-y,-z
x,y,-z
-x,y,z
x,-y,z
1/2+x,1/2+y,z
1/2-x,1/2-y,z
1/2+x,1/2-y,-z
1/2-x,1/2+y,-z
1/2-x,1/2-y,-z
1/2+x,1/2+y,-z
1/2-x,1/2+y,z
1/2+x,1/2-y,z
loop_
_atom_site_type_symbol
_atom_site_label
_atom_site_fract_x
_atom_site_fract_y
_atom_site_fract_z
Si Si1 0.178178 0.651459 0.268147
Si Si2 0.678875 0.104653 0.065727
Si Si3 0.678885 0.601261 0.562483
Si Si4 0.177655 0.697779 0.387524
Si Si5 0.820997 0.055756 0.319375
Si Si6 0.172598 0.000000 0.067640
Si Si7 0.320086 0.195750 0.147770
O O1 0.213779 0.684424 0.322775
O O2 0.251059 0.598287 0.280977
O O3 0.223428 0.676575 0.209853
O O4 0.000000 0.645397 0.266442
O O5 0.500000 0.099573 0.069266
O O6 0.750392 0.052074 0.084445
O O7 0.721241 0.152275 0.103476
O O8 0.716606 0.112529 0.000000
O O9 0.718419 0.583652 0.500000
O O10 0.500000 0.607067 0.563914
O O11 0.755207 0.653745 0.575422
O O12 0.718497 0.567232 0.615725
O O13 0.250000 0.750000 0.401950
O O14 0.000000 0.699409 0.393170
O O15 0.000000 0.058712 0.315351
O O16 0.774500 0.000000 0.304845
O O17 0.000000 0.000000 0.084531
O O18 0.179523 0.000000 0.000000
O O19 0.500000 0.200447 0.146300
O O20 0.250000 0.250000 0.136945
#
# Coordination Sequence:
#
# PCOD9494611 Si02
#       7
#    16  16  16  16  16   8  16
#     4   9  19  35  52  72  98 130 168 207 250 303
#     4   9  18  34  55  78 107 144 181 216 261 317
#     4   9  18  32  49  70  97 128 161 197 240 294
#     4  10  19  31  49  70  93 124 162 203 248 294
#     4   9  18  33  53  76 101 128 161 204 252 300
#     4   9  17  31  53  79 105 135 175 221 262 301
#     4  10  21  36  54  78 107 139 177 218 262 313
#
# _framework density 8.9163239999999995
#
# number of rings (size 3 to 8) (size 9 to 14) (size 15 to 20)
#    0.000    2.692    0.000    1.154    0.000    4.308 
#    1.385    1.538    0.000    0.000    0.000    4.308 
#    0.000    0.000    0.000    0.000    0.000    0.000 
#
# Total GULP energy -289961.048407 kJ/mol
# GULP energy per Si atom -5576.174008 kJ/mol
# Density = 0.889603 g / cm^3
# Si number density = 8.916324 Si / 1000 Ang^3
#
#
#
# Elastic Constant Matrix: (Units=GPa)
#
#
# Indices 1 2 3 4 5 6 
#
# 1 19.9578 29.5682 15.6600 0.0000 0.0000 0.0000
# 2 29.5682 133.2717 31.6111 0.0000 0.0000 0.0000
# 3 15.6600 31.6111 69.1465 0.0000 0.0000 0.0000
# 4 0.0000 0.0000 0.0000 16.7861 0.0000 0.0000
# 5 0.0000 0.0000 0.0000 0.0000 19.9230 0.0000
# 6 0.0000 0.0000 0.0000 0.0000 0.0000 34.0391
#
#
#
# Elastic Compliance Matrix: (Units=1/GPa)
#
#
# Indices 1 2 3 4 5 6 
#
# 1 0.082069 -0.015478 -0.011511 0.000000 0.000000 0.000000
# 2 -0.015478 0.011335 -0.001677 0.000000 0.000000 0.000000
# 3 -0.011511 -0.001677 0.017835 0.000000 0.000000 0.000000
# 4 0.000000 0.000000 0.000000 0.059573 0.000000 0.000000
# 5 0.000000 0.000000 0.000000 0.000000 0.050193 0.000000
# 6 0.000000 0.000000 0.000000 0.000000 0.000000 0.029378
#
#
# Mechanical properties :
#
#
# Convention : Reuss Voigt Hill
#
# Bulk Modulus (GPa) = 18.54978 41.78385 30.16681
# Shear Modulus (GPa) = 15.35229 23.85206 19.60218
#
# Velocity S-wave (km/s) = 2.93731 3.66122 3.31906
# Velocity P-wave (km/s) = 4.68278 6.43076 5.62508
#
# Compressibility (1/GPa) = 0.05390900
#
# Stress axis : x y z
#
# Youngs Moduli (GPa) = 12.18487 88.22125 56.06814
#
# Poissons Ratio (x) = 1.36548 0.64539
# Poissons Ratio (y) = 0.18860 0.09400
# Poissons Ratio (z) = 0.14026 0.14791
#
# Static dielectric constant tensor:
#      x y z
#    x 1.596680 0.000000 0.000000 
#    y 0.000000 1.588120 0.000000 
#    z 0.000000 0.000000 1.621400 
# 
# From -- ./inp_files/65865.got.cif
#   From: 2010.05.17/outbox.ucp.g08.bks.cvg/sg65_33_cif.got.tgz:65865.got - 2010.06.11 16:39:57.
