data_PCOD9494971
_publ_section_title
;
Structure prediction by ZEFSAII (Michael W. Deem and Ramdas Pophale) SiO2 
 PCOD9494971
Probable space group: C C C M
;
_chemical_formula_sum "Si O2"
_cell_formula_units_Z 88
_cell_length_a 29.548706
_cell_length_b 5.131010
_cell_length_c 24.758709
_cell_angle_alpha 90.000000
_cell_angle_beta 90.000000
_cell_angle_gamma 90.000000
_cell_volume 3753.784385
_symmetry_space_group_name_H-M "C C C M"
_symmetry_group_IT_number 66
_symmetry_cell_setting 'orthorhombic'
loop_
_space_group_symop_operation_xyz
x,y,z
-x,-y,z
x,-y,1/2-z
-x,y,1/2-z
-x,-y,-z
x,y,-z
-x,y,1/2+z
x,-y,1/2+z
1/2+x,1/2+y,z
1/2-x,1/2-y,z
1/2+x,1/2-y,1/2-z
1/2-x,1/2+y,1/2-z
1/2-x,1/2-y,-z
1/2+x,1/2+y,-z
1/2-x,1/2+y,1/2+z
1/2+x,1/2-y,1/2+z
loop_
_atom_site_type_symbol
_atom_site_label
_atom_site_fract_x
_atom_site_fract_y
_atom_site_fract_z
Si Si1 0.281502 0.998015 0.000000
Si Si2 0.347868 0.901088 0.401907
Si Si3 0.527408 0.737947 0.890595
Si Si4 0.303730 0.753998 0.287614
Si Si5 0.602140 0.392539 0.939110
Si Si6 0.447656 0.757189 0.274161
O O1 0.250000 0.750000 0.000000
O O2 0.250000 0.250000 0.000000
O O3 0.310906 0.996424 0.944946
O O4 0.330266 0.814292 0.343235
O O5 0.363935 0.628063 0.427902
O O6 0.385526 0.137129 0.403695
O O7 0.500000 0.500000 0.863431
O O8 0.555484 0.559093 0.931820
O O9 0.555165 0.807485 0.837470
O O10 0.500000 0.000000 0.907977
O O11 0.313439 0.500000 0.250000
O O12 0.250000 0.750000 0.301836
O O13 0.311090 0.000000 0.250000
O O14 0.603415 0.294442 0.000000
O O15 0.426941 0.500000 0.250000
O O16 0.500000 0.758616 0.250000
O O17 0.422678 0.000000 0.250000
#
# Coordination Sequence:
#
# PCOD9494971 Si02
#       6
#     8  16  16  16  16  16
#     4  12  24  40  74 114 138 182 248 304 358 426
#     4  12  24  47  70 100 151 187 234 301 364 455
#     4  12  23  39  66  96 124 175 246 299 352 445
#     4  10  22  42  72 106 144 189 236 293 358 437
#     4  12  26  46  66  94 141 198 225 301 395 418
#     4  10  16  32  58  86 121 150 192 289 365 382
#
# _framework density 23.443007000000001
#
# number of rings (size 3 to 8) (size 9 to 14) (size 15 to 20)
#    0.000    0.727    5.455    3.818    0.000    2.909 
#    0.000    3.636    0.000    0.000    0.000    0.000 
#    0.000    0.000    0.000    0.000    0.000    0.000 
#
# Total GULP energy -245258.201468 kJ/mol
# GULP energy per Si atom -5574.050033 kJ/mol
# Density = 2.338965 g / cm^3
# Si number density = 23.443007 Si / 1000 Ang^3
#
#
#
# Elastic Constant Matrix: (Units=GPa)
#
#
# Indices 1 2 3 4 5 6 
#
# 1 72.5944 51.5597 40.9953 0.0000 0.0000 0.0000
# 2 51.5597 224.6364 66.4353 0.0000 0.0000 0.0000
# 3 40.9953 66.4353 128.4119 0.0000 0.0000 0.0000
# 4 0.0000 0.0000 0.0000 38.6482 0.0000 0.0000
# 5 0.0000 0.0000 0.0000 0.0000 -32.2411 0.0000
# 6 0.0000 0.0000 0.0000 0.0000 0.0000 -0.6619
#
#
#
# Elastic Compliance Matrix: (Units=1/GPa)
#
#
# Indices 1 2 3 4 5 6 
#
# 1 0.018293 -0.002918 -0.004330 0.000000 0.000000 0.000000
# 2 -0.002918 0.005721 -0.002028 0.000000 0.000000 0.000000
# 3 -0.004330 -0.002028 0.010219 0.000000 0.000000 0.000000
# 4 0.000000 0.000000 0.000000 0.025874 0.000000 0.000000
# 5 0.000000 0.000000 0.000000 0.000000 -0.031016 0.000000
# 6 0.000000 0.000000 0.000000 0.000000 0.000000 -1.510870
#
#
# Mechanical properties :
#
#
# Convention : Reuss Voigt Hill
#
# Bulk Modulus (GPa) = 63.77506 82.62482 73.19994
# Shear Modulus (GPa) = -3.42936 18.92588 7.74826
#
# Velocity S-wave (km/s) = -1.21080 2.84441 1.81998
# Velocity P-wave (km/s) = 5.03077 6.79036 5.97569
#
# Compressibility (1/GPa) = 0.01568011
#
# Stress axis : x y z
#
# Youngs Moduli (GPa) = 54.66539 174.78578 97.85384
#
# Poissons Ratio (x) = 0.51003 0.42374
# Poissons Ratio (y) = 0.15952 0.19849
# Poissons Ratio (z) = 0.23672 0.35453
#
# Static dielectric constant tensor:
#      x y z
#    x 2.035540 0.000000 0.000000 
#    y 0.000000 2.207050 0.000000 
#    z 0.000000 0.000000 1.979580 
# 
# From -- ./inp_files/60408.got.cif
#   From: 2010.05.17/outbox.cif.g08.bks.cpg/sg66_31_cif.got.tgz:60408.got - 2010.06.03 17:51:23.
