data_PCOD9494111
_publ_section_title
;
Structure prediction by ZEFSAII (Michael W. Deem and Ramdas Pophale) SiO2 
 PCOD9494111
Probable space group: C M M M
;
_chemical_formula_sum "Si O2"
_cell_formula_units_Z 56
_cell_length_a 15.545121
_cell_length_b 8.736724
_cell_length_c 20.618655
_cell_angle_alpha 90.000000
_cell_angle_beta 90.000000
_cell_angle_gamma 90.000000
_cell_volume 2800.290293
_symmetry_space_group_name_H-M "C M M M"
_symmetry_group_IT_number 65
_symmetry_cell_setting 'orthorhombic'
loop_
_space_group_symop_operation_xyz
x,y,z
-x,-y,z
x,-y,-z
-x,y,-z
-x,-y,-z
x,y,-z
-x,y,z
x,-y,z
1/2+x,1/2+y,z
1/2-x,1/2-y,z
1/2+x,1/2-y,-z
1/2-x,1/2+y,-z
1/2-x,1/2-y,-z
1/2+x,1/2+y,-z
1/2-x,1/2+y,z
1/2+x,1/2-y,z
loop_
_atom_site_type_symbol
_atom_site_label
_atom_site_fract_x
_atom_site_fract_y
_atom_site_fract_z
Si Si1 0.340646 0.181354 0.654264
Si Si2 0.000000 0.183090 0.424096
Si Si3 0.604254 0.318212 0.210896
Si Si4 0.896780 0.184611 0.069459
O O1 0.250000 0.250000 0.632922
O O2 0.416996 0.250654 0.611755
O O3 0.356653 0.229981 0.728825
O O4 0.340301 0.000000 0.649024
O O5 0.000000 0.222527 0.500000
O O6 0.000000 0.000000 0.417445
O O7 0.500000 0.303884 0.213373
O O8 0.623175 0.500000 0.216933
O O9 0.634455 0.261096 0.139775
O O10 0.000000 0.211186 0.069080
O O11 0.886148 0.000000 0.069787
O O12 0.862663 0.243554 0.000000
#
# Coordination Sequence:
#
# PCOD9494111 Si02
#       4
#    16   8  16  16
#     4  12  25  41  64  93 127 166 207 251 298 356
#     4  11  25  47  73  99 128 159 194 241 297 360
#     4   9  16  29  53  82 117 158 201 252 305 359
#     4   7  10  18  37  70 108 147 194 245 298 356
#
# _framework density 19.997928000000002
#
# number of rings (size 3 to 8) (size 9 to 14) (size 15 to 20)
#    0.000    2.429    1.429    5.571    0.000    1.714 
#    0.000    0.000    0.000    1.714    0.000    4.000 
#    0.000    0.000    0.000    0.000    0.000    0.000 
#
# Total GULP energy -156253.668735 kJ/mol
# GULP energy per Si atom -5580.488169 kJ/mol
# Density = 1.995241 g / cm^3
# Si number density = 19.997928 Si / 1000 Ang^3
#
#
#
# Elastic Constant Matrix: (Units=GPa)
#
#
# Indices 1 2 3 4 5 6 
#
# 1 106.1641 38.4654 77.6449 0.0000 0.0000 0.0000
# 2 38.4654 56.7241 66.8238 0.0000 0.0000 0.0000
# 3 77.6449 66.8238 177.3615 0.0000 0.0000 0.0000
# 4 0.0000 0.0000 0.0000 0.9161 0.0000 0.0000
# 5 0.0000 0.0000 0.0000 0.0000 -19.6784 0.0000
# 6 0.0000 0.0000 0.0000 0.0000 0.0000 22.6288
#
#
#
# Elastic Compliance Matrix: (Units=1/GPa)
#
#
# Indices 1 2 3 4 5 6 
#
# 1 0.014392 -0.004202 -0.004717 0.000000 0.000000 0.000000
# 2 -0.004202 0.032926 -0.010566 0.000000 0.000000 0.000000
# 3 -0.004717 -0.010566 0.011684 0.000000 0.000000 0.000000
# 4 0.000000 0.000000 0.000000 1.091633 0.000000 0.000000
# 5 0.000000 0.000000 0.000000 0.000000 -0.050817 0.000000
# 6 0.000000 0.000000 0.000000 0.000000 0.000000 0.044192
#
#
# Mechanical properties :
#
#
# Convention : Reuss Voigt Hill
#
# Bulk Modulus (GPa) = 49.92147 78.45756 64.18952
# Shear Modulus (GPa) = 4.20289 11.26099 7.73194
#
# Velocity S-wave (km/s) = 1.45128 2.37556 1.96844
# Velocity P-wave (km/s) = 5.27502 6.84415 6.11017
#
# Compressibility (1/GPa) = 0.02003146
#
# Stress axis : x y z
#
# Youngs Moduli (GPa) = 69.48321 30.37145 85.58678
#
# Poissons Ratio (x) = 0.12763 0.40373
# Poissons Ratio (y) = 0.29199 0.90428
# Poissons Ratio (z) = 0.32777 0.32089
#
# Static dielectric constant tensor:
#      x y z
#    x 1.715570 0.000000 0.000000 
#    y 0.000000 1.655740 0.000000 
#    z 0.000000 0.000000 1.744720 
# 
# From -- ./inp_files/58572.got.cif
#   From: 2010.05.17/outbox.cif.g08.bks.cpg/sg65_30_cif.got.tgz:58572.got - 2010.06.03 17:01:31.
