data_PCOD9494582
_publ_section_title
;
Structure prediction by ZEFSAII (Michael W. Deem and Ramdas Pophale) SiO2 
 PCOD9494582
Probable space group: C M M M
;
_chemical_formula_sum "Si O2"
_cell_formula_units_Z 48
_cell_length_a 9.000000
_cell_length_b 27.000000
_cell_length_c 24.000000
_cell_angle_alpha 90.000000
_cell_angle_beta 90.000000
_cell_angle_gamma 90.000000
_cell_volume 5832.000000
_symmetry_space_group_name_H-M "C M M M"
_symmetry_group_IT_number 65
_symmetry_cell_setting 'orthorhombic'
loop_
_space_group_symop_operation_xyz
x,y,z
-x,-y,z
x,-y,-z
-x,y,-z
-x,-y,-z
x,y,-z
-x,y,z
x,-y,z
1/2+x,1/2+y,z
1/2-x,1/2-y,z
1/2+x,1/2-y,-z
1/2-x,1/2+y,-z
1/2-x,1/2-y,-z
1/2+x,1/2+y,-z
1/2-x,1/2+y,z
1/2+x,1/2-y,z
loop_
_atom_site_type_symbol
_atom_site_label
_atom_site_fract_x
_atom_site_fract_y
_atom_site_fract_z
Si Si1 0.321767 0.099788 0.432815
Si Si2 0.319214 0.000000 0.254560
Si Si3 0.820093 0.597349 0.818613
Si Si4 0.318329 0.303783 0.372541
Si Si5 0.180651 0.441739 0.937336
Si Si6 0.319235 0.500000 0.378249
Si Si7 0.318548 0.802714 0.248528
O O1 0.305872 0.099136 0.500000
O O2 0.500000 0.100276 0.419930
O O3 0.243977 0.149431 0.407886
O O4 0.247013 0.049909 0.407291
O O5 0.279486 0.950371 0.219453
O O6 0.500000 0.000000 0.262243
O O7 0.238577 0.000000 0.314244
O O8 0.768018 0.588049 0.882441
O O9 0.779815 0.649861 0.790212
O O10 0.000000 0.596988 0.820376
O O11 0.500000 0.302222 0.373080
O O12 0.250000 0.250000 0.390972
O O13 0.254589 0.310687 0.309603
O O14 0.218562 0.500000 0.930210
O O15 0.000000 0.439328 0.937622
O O16 0.229737 0.426317 0.000000
O O17 0.500000 0.500000 0.380888
O O18 0.500000 0.799396 0.253047
O O19 0.250000 0.750000 0.228546
#
# Coordination Sequence:
#
# PCOD9494582 Si02
#       7
#    16   8  16  16  16   8  16
#     4  11  24  42  62  82 106 140 180 218 261 315
#     4  10  18  31  52  76 104 133 163 206 263 322
#     4   9  16  26  44  71 100 131 168 208 258 314
#     4  11  22  38  60  84 111 139 173 219 269 320
#     4   8  12  20  37  64 100 133 161 202 258 313
#     4  12  25  39  56  80 111 143 179 220 265 318
#     4  10  19  32  50  72 101 137 176 214 254 307
#
# _framework density 8.2304530000000007
#
# number of rings (size 3 to 8) (size 9 to 14) (size 15 to 20)
#    0.000    2.000    0.833    6.000    0.000    4.000 
#    0.000    0.833    0.000    0.500    0.000    0.000 
#    0.000    6.000    0.000    0.000    0.000    0.667 
#
# Total GULP energy -267697.968328 kJ/mol
# GULP energy per Si atom -5577.041007 kJ/mol
# Density = 0.821172 g / cm^3
# Si number density = 8.230453 Si / 1000 Ang^3
#
#
#
# Elastic Constant Matrix: (Units=GPa)
#
#
# Indices 1 2 3 4 5 6 
#
# 1 102.5605 52.3967 43.0393 0.0000 0.0000 0.0000
# 2 52.3967 171.1921 88.1077 0.0000 0.0000 0.0000
# 3 43.0393 88.1077 135.9886 0.0000 0.0000 0.0000
# 4 0.0000 0.0000 0.0000 30.9340 0.0000 0.0000
# 5 0.0000 0.0000 0.0000 0.0000 16.8030 0.0000
# 6 0.0000 0.0000 0.0000 0.0000 0.0000 30.5949
#
#
#
# Elastic Compliance Matrix: (Units=1/GPa)
#
#
# Indices 1 2 3 4 5 6 
#
# 1 0.011951 -0.002567 -0.002119 0.000000 0.000000 0.000000
# 2 -0.002567 0.009315 -0.005223 0.000000 0.000000 0.000000
# 3 -0.002119 -0.005223 0.011408 0.000000 0.000000 0.000000
# 4 0.000000 0.000000 0.000000 0.032327 0.000000 0.000000
# 5 0.000000 0.000000 0.000000 0.000000 0.059513 0.000000
# 6 0.000000 0.000000 0.000000 0.000000 0.000000 0.032685
#
#
# Mechanical properties :
#
#
# Convention : Reuss Voigt Hill
#
# Bulk Modulus (GPa) = 77.78403 86.31428 82.04916
# Shear Modulus (GPa) = 27.57802 30.74620 29.16211
#
# Velocity S-wave (km/s) = 4.09756 4.32653 4.21360
# Velocity P-wave (km/s) = 8.35123 8.80388 8.58054
#
# Compressibility (1/GPa) = 0.01285611
#
# Stress axis : x y z
#
# Youngs Moduli (GPa) = 83.67358 107.35137 87.65655
#
# Poissons Ratio (x) = 0.27560 0.18575
# Poissons Ratio (y) = 0.21481 0.45782
# Poissons Ratio (z) = 0.17731 0.56068
#
# Static dielectric constant tensor:
#      x y z
#    x 1.552800 0.000000 0.000000 
#    y 0.000000 1.551940 0.000000 
#    z 0.000000 0.000000 1.568140 
# 
# From -- ./inp_files/68093.got.cif
#   From: 2010.05.17/outbox.ucp.g08.bks.cvg/sg65_35_cif.got.tgz:68093.got - 2010.06.11 16:39:57.
