data_PCOD9494320
_publ_section_title
;
Structure prediction by ZEFSAII (Michael W. Deem and Ramdas Pophale) SiO2 
 PCOD9494320
Probable space group: C M M M
;
_chemical_formula_sum "Si O2"
_cell_formula_units_Z 96
_cell_length_a 14.370291
_cell_length_b 9.628469
_cell_length_c 32.530484
_cell_angle_alpha 90.000000
_cell_angle_beta 90.000000
_cell_angle_gamma 90.000000
_cell_volume 4501.044681
_symmetry_space_group_name_H-M "C M M M"
_symmetry_group_IT_number 65
_symmetry_cell_setting 'orthorhombic'
loop_
_space_group_symop_operation_xyz
x,y,z
-x,-y,z
x,-y,-z
-x,y,-z
-x,-y,-z
x,y,-z
-x,y,z
x,-y,z
1/2+x,1/2+y,z
1/2-x,1/2-y,z
1/2+x,1/2-y,-z
1/2-x,1/2+y,-z
1/2-x,1/2-y,-z
1/2+x,1/2+y,-z
1/2-x,1/2+y,z
1/2+x,1/2-y,z
loop_
_atom_site_type_symbol
_atom_site_label
_atom_site_fract_x
_atom_site_fract_y
_atom_site_fract_z
Si Si1 0.113830 0.157214 0.298717
Si Si2 0.613466 0.658772 0.453415
Si Si3 0.347306 0.166602 0.044402
Si Si4 0.391660 0.844849 0.225075
Si Si5 0.154580 0.333815 0.866874
Si Si6 0.386353 0.842039 0.623238
O O1 0.144833 0.231112 0.256632
O O2 0.140572 0.251309 0.337400
O O3 0.000000 0.150677 0.298840
O O4 0.147972 0.000000 0.302152
O O5 0.641584 0.694529 0.500000
O O6 0.500000 0.658003 0.453035
O O7 0.642526 0.500000 0.444384
O O8 0.642847 0.765923 0.418595
O O9 0.250000 0.250000 0.044384
O O10 0.392488 0.197841 0.088869
O O11 0.330840 0.000000 0.044374
O O12 0.392639 0.198630 0.000000
O O13 0.500000 0.858751 0.235979
O O14 0.389229 0.801792 0.177267
O O15 0.349583 0.000000 0.229277
O O16 0.169224 0.500000 0.866534
O O17 0.250000 0.250000 0.867200
O O18 0.500000 0.845690 0.623115
O O19 0.353238 0.000000 0.625820
#
# Coordination Sequence:
#
# PCOD9494320 Si02
#       6
#    16  16  16  16  16  16
#     4   9  16  25  37  52  69  91 123 162 200 237
#     4   8  13  20  28  38  55  81 113 150 192 235
#     4   8  13  22  37  57  80 104 131 163 197 234
#     4   9  17  29  43  58  79 107 137 168 204 246
#     4   9  17  28  43  63  85 109 136 168 205 243
#     4   9  15  21  30  44  62  85 115 153 195 237
#
# _framework density 21.328381
#
# number of rings (size 3 to 8) (size 9 to 14) (size 15 to 20)
#    0.000    3.333    0.000    1.500    0.000    5.000 
#    0.000    1.667    0.000    0.500    0.000    3.500 
#    0.000    0.000    0.000   31.167    0.000   17.833 
#
# Total GULP energy -267453.004581 kJ/mol
# GULP energy per Si atom -5571.937595 kJ/mol
# Density = 2.127984 g / cm^3
# Si number density = 21.328381 Si / 1000 Ang^3
#
#
#
# Elastic Constant Matrix: (Units=GPa)
#
#
# Indices 1 2 3 4 5 6 
#
# 1 55.5865 16.4357 2.4977 0.0000 0.0000 0.0000
# 2 16.4357 124.4661 129.8103 0.0000 0.0000 0.0000
# 3 2.4977 129.8103 218.9329 0.0000 0.0000 0.0000
# 4 0.0000 0.0000 0.0000 43.7046 0.0000 0.0000
# 5 0.0000 0.0000 0.0000 0.0000 18.5963 0.0000
# 6 0.0000 0.0000 0.0000 0.0000 0.0000 -0.4193
#
#
#
# Elastic Compliance Matrix: (Units=1/GPa)
#
#
# Indices 1 2 3 4 5 6 
#
# 1 0.019666 -0.006192 0.003447 0.000000 0.000000 0.000000
# 2 -0.006192 0.023003 -0.013568 0.000000 0.000000 0.000000
# 3 0.003447 -0.013568 0.012573 0.000000 0.000000 0.000000
# 4 0.000000 0.000000 0.000000 0.022881 0.000000 0.000000
# 5 0.000000 0.000000 0.000000 0.000000 0.053774 0.000000
# 6 0.000000 0.000000 0.000000 0.000000 0.000000 -2.384799
#
#
# Mechanical properties :
#
#
# Convention : Reuss Voigt Hill
#
# Bulk Modulus (GPa) = 44.21724 77.38588 60.80156
# Shear Modulus (GPa) = -2.25964 29.05911 13.39973
#
# Velocity S-wave (km/s) = -1.03041 3.69516 2.50923
# Velocity P-wave (km/s) = 4.40011 7.38698 6.07982
#
# Compressibility (1/GPa) = 0.02261561
#
# Stress axis : x y z
#
# Youngs Moduli (GPa) = 50.84960 43.47318 79.53445
#
# Poissons Ratio (x) = 0.26917 -0.27414
# Poissons Ratio (y) = 0.31485 1.07914
# Poissons Ratio (z) = -0.17527 0.58985
#
# Static dielectric constant tensor:
#      x y z
#    x 1.818020 0.000000 0.000000 
#    y 0.000000 1.730860 0.000000 
#    z 0.000000 0.000000 1.802900 
# 
# From -- ./inp_files/75684.got.cif
#   From: 2010.05.17/outbox.cif.g08.bks.cpg/sg65_38_cif.got.tgz:75684.got - 2010.06.03 17:01:31.
