data_PCOD9494273
_publ_section_title
;
Structure prediction by ZEFSAII (Michael W. Deem and Ramdas Pophale) SiO2 
 PCOD9494273
Probable space group: C M M M
;
_chemical_formula_sum "Si O2"
_cell_formula_units_Z 72
_cell_length_a 7.233122
_cell_length_b 14.748890
_cell_length_c 25.989111
_cell_angle_alpha 90.000000
_cell_angle_beta 90.000000
_cell_angle_gamma 90.000000
_cell_volume 2772.531895
_symmetry_space_group_name_H-M "C M M M"
_symmetry_group_IT_number 65
_symmetry_cell_setting 'orthorhombic'
loop_
_space_group_symop_operation_xyz
x,y,z
-x,-y,z
x,-y,-z
-x,y,-z
-x,-y,-z
x,y,-z
-x,y,z
x,-y,z
1/2+x,1/2+y,z
1/2-x,1/2-y,z
1/2+x,1/2-y,-z
1/2-x,1/2+y,-z
1/2-x,1/2-y,-z
1/2+x,1/2+y,-z
1/2-x,1/2+y,z
1/2+x,1/2-y,z
loop_
_atom_site_type_symbol
_atom_site_label
_atom_site_fract_x
_atom_site_fract_y
_atom_site_fract_z
Si Si1 0.279648 0.359118 0.389086
Si Si2 0.280852 0.356653 0.832139
Si Si3 0.720551 0.359222 0.278203
Si Si4 0.712058 0.608320 0.055042
Si Si5 0.720351 0.359117 0.500000
O O1 0.500000 0.375309 0.388981
O O2 0.250000 0.250000 0.389211
O O3 0.209200 0.392441 0.333648
O O4 0.209031 0.392169 0.444544
O O5 0.500000 0.379406 0.834371
O O6 0.250000 0.250000 0.827177
O O7 0.210509 0.393838 0.777271
O O8 0.203784 0.376288 0.888816
O O9 0.500000 0.374681 0.277714
O O10 0.750000 0.250000 0.278998
O O11 0.500000 0.643515 0.056885
O O12 0.703975 0.500000 0.051676
O O13 0.791551 0.640361 0.000000
O O14 0.500000 0.375310 0.500000
O O15 0.750000 0.250000 0.500000
#
# Coordination Sequence:
#
# PCOD9494273 Si02
#       5
#    16  16  16  16   8
#     4   8  12  17  24  34  50  73 100 128 156 187
#     4   9  16  25  38  56  75  94 117 145 176 209
#     4   8  13  20  29  42  61  83 105 131 164 199
#     4   8  14  25  40  56  73  94 120 147 174 206
#     4   8  12  16  22  32  46  68  99 129 153 181
#
# _framework density 25.969045000000001
#
# number of rings (size 3 to 8) (size 9 to 14) (size 15 to 20)
#    0.000    3.778    0.000    0.667    0.000    0.444 
#    0.000    0.000    0.000    0.667    0.000    1.556 
#    0.000    0.000    0.000    1.000    0.000   33.111 
#
# Total GULP energy -200457.028739 kJ/mol
# GULP energy per Si atom -5568.250798 kJ/mol
# Density = 2.590994 g / cm^3
# Si number density = 25.969045 Si / 1000 Ang^3
#
#
#
# Elastic Constant Matrix: (Units=GPa)
#
#
# Indices 1 2 3 4 5 6 
#
# 1 133.3371 -10.9963 26.7141 0.0000 0.0000 0.0000
# 2 -10.9963 70.8867 22.7587 0.0000 0.0000 0.0000
# 3 26.7141 22.7587 449.4006 0.0000 0.0000 0.0000
# 4 0.0000 0.0000 0.0000 20.3351 0.0000 0.0000
# 5 0.0000 0.0000 0.0000 0.0000 14.4291 0.0000
# 6 0.0000 0.0000 0.0000 0.0000 0.0000 -14.2797
#
#
#
# Elastic Compliance Matrix: (Units=1/GPa)
#
#
# Indices 1 2 3 4 5 6 
#
# 1 0.007718 0.001367 -0.000528 0.000000 0.000000 0.000000
# 2 0.001367 0.014582 -0.000820 0.000000 0.000000 0.000000
# 3 -0.000528 -0.000820 0.002298 0.000000 0.000000 0.000000
# 4 0.000000 0.000000 0.000000 0.049176 0.000000 0.000000
# 5 0.000000 0.000000 0.000000 0.000000 0.069305 0.000000
# 6 0.000000 0.000000 0.000000 0.000000 0.000000 -0.070029
#
#
# Mechanical properties :
#
#
# Convention : Reuss Voigt Hill
#
# Bulk Modulus (GPa) = 40.58974 81.17526 60.88250
# Shear Modulus (GPa) = 61.55823 45.10676 53.33250
#
# Velocity S-wave (km/s) = 4.87401 4.17219 4.53669
# Velocity P-wave (km/s) = 6.88030 7.38484 7.13703
#
# Compressibility (1/GPa) = 0.02463677
#
# Stress axis : x y z
#
# Youngs Moduli (GPa) = 129.56222 68.57665 435.14459
#
# Poissons Ratio (x) = -0.09373 0.22977
# Poissons Ratio (y) = -0.17709 0.35670
# Poissons Ratio (z) = 0.06841 0.05621
#
# Static dielectric constant tensor:
#      x y z
#    x 1.963390 0.000000 0.000000 
#    y 0.000000 1.987550 0.000000 
#    z 0.000000 0.000000 2.167280 
# 
# From -- ./inp_files/61312.got.cif
#   From: 2010.05.17/outbox.cif.g08.bks.cpg/sg65_31_cif.got.tgz:61312.got - 2010.06.03 17:01:31.
