data_PCOD9494871
_publ_section_title
;
Structure prediction by ZEFSAII (Michael W. Deem and Ramdas Pophale) SiO2 
 PCOD9494871
Probable space group: C M M M
;
_chemical_formula_sum "Si O2"
_cell_formula_units_Z 48
_cell_length_a 21.000000
_cell_length_b 15.000000
_cell_length_c 15.000000
_cell_angle_alpha 90.000000
_cell_angle_beta 90.000000
_cell_angle_gamma 90.000000
_cell_volume 4725.000000
_symmetry_space_group_name_H-M "C M M M"
_symmetry_group_IT_number 65
_symmetry_cell_setting 'orthorhombic'
loop_
_space_group_symop_operation_xyz
x,y,z
-x,-y,z
x,-y,-z
-x,y,-z
-x,-y,-z
x,y,-z
-x,y,z
x,-y,z
1/2+x,1/2+y,z
1/2-x,1/2-y,z
1/2+x,1/2-y,-z
1/2-x,1/2+y,-z
1/2-x,1/2-y,-z
1/2+x,1/2+y,-z
1/2-x,1/2+y,z
1/2+x,1/2-y,z
loop_
_atom_site_type_symbol
_atom_site_label
_atom_site_fract_x
_atom_site_fract_y
_atom_site_fract_z
Si Si1 0.074166 0.895423 0.145221
Si Si2 0.181572 0.603741 0.735585
Si Si3 0.429423 0.891634 0.601185
Si Si4 0.826637 0.736032 0.099083
Si Si5 0.715040 0.654220 0.401460
Si Si6 0.072296 0.104863 0.360475
O O1 0.128234 0.823891 0.114699
O O2 0.073488 0.891257 0.252909
O O3 0.000000 0.875991 0.116582
O O4 0.087726 0.000000 0.120600
O O5 0.172282 0.500000 0.758862
O O6 0.128468 0.632813 0.663695
O O7 0.168578 0.666175 0.820105
O O8 0.249815 0.610746 0.684375
O O9 0.420205 0.860107 0.500000
O O10 0.500000 0.863326 0.632181
O O11 0.429919 0.000000 0.598475
O O12 0.750000 0.750000 0.097380
O O13 0.844205 0.701931 0.000000
O O14 0.729115 0.613417 0.500000
O O15 0.750000 0.750000 0.402616
O O16 0.637995 0.652221 0.391531
O O17 0.000000 0.134745 0.388282
O O18 0.077690 0.000000 0.386066
#
# Coordination Sequence:
#
# PCOD9494871 Si02
#       6
#    16  16  16  16  16  16
#     4   9  19  39  68  97 123 157 204 258 317 378
#     4  11  22  37  60  86 117 162 210 254 304 365
#     4   8  15  30  53  82 115 150 192 240 285 335
#     4  11  25  42  60  87 122 159 203 256 316 381
#     4  11  23  37  55  84 123 164 207 257 313 371
#     4   9  18  34  58  87 119 157 199 243 295 360
#
# _framework density 10.15873
#
# number of rings (size 3 to 8) (size 9 to 14) (size 15 to 20)
#    0.000    2.167    0.000    5.000    0.000    6.000 
#    0.000    4.167    0.000    1.000    0.000    3.500 
#    0.000    0.000    0.000    0.000    0.000    0.500 
#
# Total GULP energy -267805.219852 kJ/mol
# GULP energy per Si atom -5579.275414 kJ/mol
# Density = 1.013561 g / cm^3
# Si number density = 10.158730 Si / 1000 Ang^3
#
#
#
# Elastic Constant Matrix: (Units=GPa)
#
#
# Indices 1 2 3 4 5 6 
#
# 1 181.5817 56.7317 51.9579 0.0000 0.0000 0.0000
# 2 56.7317 100.5693 39.1830 0.0000 0.0000 0.0000
# 3 51.9579 39.1830 115.5669 0.0000 0.0000 0.0000
# 4 0.0000 0.0000 0.0000 8.4926 0.0000 0.0000
# 5 0.0000 0.0000 0.0000 0.0000 8.7888 0.0000
# 6 0.0000 0.0000 0.0000 0.0000 0.0000 33.3138
#
#
#
# Elastic Compliance Matrix: (Units=1/GPa)
#
#
# Indices 1 2 3 4 5 6 
#
# 1 0.007108 -0.003185 -0.002116 0.000000 0.000000 0.000000
# 2 -0.003185 0.012884 -0.002936 0.000000 0.000000 0.000000
# 3 -0.002116 -0.002936 0.010600 0.000000 0.000000 0.000000
# 4 0.000000 0.000000 0.000000 0.117750 0.000000 0.000000
# 5 0.000000 0.000000 0.000000 0.000000 0.113781 0.000000
# 6 0.000000 0.000000 0.000000 0.000000 0.000000 0.030018
#
#
# Mechanical properties :
#
#
# Convention : Reuss Voigt Hill
#
# Bulk Modulus (GPa) = 70.83516 77.05146 73.94331
# Shear Modulus (GPa) = 15.95814 26.77540 21.36677
#
# Velocity S-wave (km/s) = 2.80561 3.63416 3.24643
# Velocity P-wave (km/s) = 6.74056 7.45759 7.10812
#
# Compressibility (1/GPa) = 0.01411728
#
# Stress axis : x y z
#
# Youngs Moduli (GPa) = 140.69289 77.61427 94.34207
#
# Poissons Ratio (x) = 0.24722 0.19959
# Poissons Ratio (y) = 0.44814 0.27702
# Poissons Ratio (z) = 0.29765 0.22790
#
# Static dielectric constant tensor:
#      x y z
#    x 1.734050 0.000000 0.000000 
#    y 0.000000 1.746780 0.000000 
#    z 0.000000 0.000000 1.735840 
# 
# From -- ./inp_files/44125.got.cif
#   From: 2010.05.17/outbox.ucp.g08.bks.cvg/sg65_23_cif.got.tgz:44125.got - 2010.06.11 16:39:57.
