data_PCOD9494877
_publ_section_title
;
Structure prediction by ZEFSAII (Michael W. Deem and Ramdas Pophale) SiO2 
 PCOD9494877
Probable space group: C M M M
;
_chemical_formula_sum "Si O2"
_cell_formula_units_Z 52
_cell_length_a 21.000000
_cell_length_b 27.000000
_cell_length_c 9.000000
_cell_angle_alpha 90.000000
_cell_angle_beta 90.000000
_cell_angle_gamma 90.000000
_cell_volume 5103.000000
_symmetry_space_group_name_H-M "C M M M"
_symmetry_group_IT_number 65
_symmetry_cell_setting 'orthorhombic'
loop_
_space_group_symop_operation_xyz
x,y,z
-x,-y,z
x,-y,-z
-x,y,-z
-x,-y,-z
x,y,-z
-x,y,z
x,-y,z
1/2+x,1/2+y,z
1/2-x,1/2-y,z
1/2+x,1/2-y,-z
1/2-x,1/2+y,-z
1/2-x,1/2-y,-z
1/2+x,1/2+y,-z
1/2-x,1/2+y,z
1/2+x,1/2-y,z
loop_
_atom_site_type_symbol
_atom_site_label
_atom_site_fract_x
_atom_site_fract_y
_atom_site_fract_z
Si Si1 0.219618 0.397979 0.838603
Si Si2 0.205159 0.796370 0.837175
Si Si3 0.000000 0.326989 0.821408
Si Si4 0.925176 0.500000 0.835360
Si Si5 0.649481 0.555432 0.825390
Si Si6 0.394055 0.345625 0.332011
Si Si7 0.599687 0.102151 0.329014
Si Si8 0.500000 0.285474 0.173583
O O1 0.255289 0.346310 0.852957
O O2 0.273963 0.438839 0.816220
O O3 0.173812 0.391357 0.700918
O O4 0.187161 0.406581 0.000000
O O5 0.250000 0.750000 0.818945
O O6 0.164885 0.808652 0.692314
O O7 0.171218 0.789740 0.000000
O O8 0.060532 0.356759 0.760098
O O9 0.000000 0.270498 0.765282
O O10 0.000000 0.328700 0.000000
O O11 0.911000 0.548709 0.742712
O O12 0.000000 0.500000 0.854676
O O13 0.895630 0.500000 0.000000
O O14 0.629970 0.500000 0.782682
O O15 0.621381 0.599710 0.728254
O O16 0.633503 0.563323 0.000000
O O17 0.415663 0.347787 0.500000
O O18 0.442506 0.318612 0.226052
O O19 0.581565 0.103367 0.500000
O O20 0.500000 0.279453 0.000000
#
# Coordination Sequence:
#
# PCOD9494877 Si02
#       8
#    16  16   8   8  16  16  16   8
#     4   9  19  35  57  86 119 156 201 243 285 349
#     4   9  19  37  61  86 115 159 207 245 284 347
#     4  11  25  44  64  84 110 157 210 253 299 356
#     4  11  23  41  63  79 104 154 206 247 290 351
#     4   9  19  39  66  93 121 161 207 247 291 356
#     4  11  23  39  61  93 129 159 194 250 317 368
#     4  12  25  39  58  87 121 152 192 250 312 361
#     4  11  25  45  69  89 117 163 213 254 293 358
#
# _framework density 10.190084000000001
#
# number of rings (size 3 to 8) (size 9 to 14) (size 15 to 20)
#    0.000    1.769    0.769    4.385    3.231    4.615 
#    0.000    0.385    0.000    2.308    0.000    0.000 
#    0.000    0.000    0.000    0.000    0.000    0.000 
#
# Total GULP energy -289506.734113 kJ/mol
# GULP energy per Si atom -5567.437194 kJ/mol
# Density = 1.016689 g / cm^3
# Si number density = 10.190084 Si / 1000 Ang^3
#
#
#
# Elastic Constant Matrix: (Units=GPa)
#
#
# Indices 1 2 3 4 5 6 
#
# 1 30.8829 19.4970 20.2077 0.0000 0.0000 0.0000
# 2 19.4970 35.0223 11.6557 0.0000 0.0000 0.0000
# 3 20.2077 11.6557 77.4849 0.0000 0.0000 0.0000
# 4 0.0000 0.0000 0.0000 -27.3173 0.0000 0.0000
# 5 0.0000 0.0000 0.0000 0.0000 26.1583 0.0000
# 6 0.0000 0.0000 0.0000 0.0000 0.0000 -126.3742
#
#
#
# Elastic Compliance Matrix: (Units=1/GPa)
#
#
# Indices 1 2 3 4 5 6 
#
# 1 0.057235 -0.028313 -0.010668 0.000000 0.000000 0.000000
# 2 -0.028313 0.044064 0.000756 0.000000 0.000000 0.000000
# 3 -0.010668 0.000756 0.015574 0.000000 0.000000 0.000000
# 4 0.000000 0.000000 0.000000 -0.036607 0.000000 0.000000
# 5 0.000000 0.000000 0.000000 0.000000 0.038229 0.000000
# 6 0.000000 0.000000 0.000000 0.000000 0.000000 -0.007913
#
#
# Mechanical properties :
#
#
# Convention : Reuss Voigt Hill
#
# Bulk Modulus (GPa) = 24.73831 27.34567 26.04199
# Shear Modulus (GPa) = 24.93696 -19.37134 2.78281
#
# Velocity S-wave (km/s) = 3.50178 -3.08636 1.16979
# Velocity P-wave (km/s) = 5.33992 0.86375 3.82497
#
# Compressibility (1/GPa) = 0.04042313
#
# Stress axis : x y z
#
# Youngs Moduli (GPa) = 17.47184 22.69450 64.20884
#
# Poissons Ratio (x) = 0.64254 0.68496
# Poissons Ratio (y) = 0.49467 -0.04851
# Poissons Ratio (z) = 0.18638 -0.01715
#
# Static dielectric constant tensor:
#      x y z
#    x 2.030300 0.000000 0.000000 
#    y 0.000000 0.735760 0.000000 
#    z 0.000000 0.000000 1.741440 
# 
# From -- ./inp_files/12459.got.cif
#   From: 2010.05.17/outbox.ucp.g08.bks.cvg/sg65_7_cif.got.tgz:12459.got - 2010.06.11 16:39:57.
