data_PCOD9494896
_publ_section_title
;
Structure prediction by ZEFSAII (Michael W. Deem and Ramdas Pophale) SiO2 
 PCOD9494896
Probable space group: C C C M
;
_chemical_formula_sum "Si O2"
_cell_formula_units_Z 128
_cell_length_a 20.500929
_cell_length_b 24.502960
_cell_length_c 17.802100
_cell_angle_alpha 90.000000
_cell_angle_beta 90.000000
_cell_angle_gamma 90.000000
_cell_volume 8942.590190
_symmetry_space_group_name_H-M "C C C M"
_symmetry_group_IT_number 66
_symmetry_cell_setting 'orthorhombic'
loop_
_space_group_symop_operation_xyz
x,y,z
-x,-y,z
x,-y,1/2-z
-x,y,1/2-z
-x,-y,-z
x,y,-z
-x,y,1/2+z
x,-y,1/2+z
1/2+x,1/2+y,z
1/2-x,1/2-y,z
1/2+x,1/2-y,1/2-z
1/2-x,1/2+y,1/2-z
1/2-x,1/2-y,-z
1/2+x,1/2+y,-z
1/2-x,1/2+y,1/2+z
1/2+x,1/2-y,1/2+z
loop_
_atom_site_type_symbol
_atom_site_label
_atom_site_fract_x
_atom_site_fract_y
_atom_site_fract_z
Si Si1 0.834118 0.942968 0.774453
Si Si2 0.573282 0.585065 0.912615
Si Si3 0.357045 0.238688 0.774673
Si Si4 0.069603 0.216705 0.915183
Si Si5 0.243215 0.161464 0.742666
Si Si6 0.928412 0.786034 0.641913
Si Si7 0.786570 0.808162 0.582623
Si Si8 0.546147 0.409590 0.818929
O O1 0.878058 0.941274 0.850874
O O2 0.782927 0.893798 0.778525
O O3 0.884152 0.932262 0.704691
O O4 0.803107 0.000000 0.750000
O O5 0.579511 0.651236 0.903217
O O6 0.497262 0.573345 0.890479
O O7 0.585756 0.571661 0.000000
O O8 0.391091 0.249615 0.853551
O O9 0.312712 0.185056 0.768008
O O10 0.308648 0.290298 0.760933
O O11 0.409239 0.244044 0.707424
O O12 0.992782 0.228346 0.903877
O O13 0.089610 0.229088 0.000000
O O14 0.239113 0.156823 0.652266
O O15 0.863404 0.796394 0.593591
O O16 0.944723 0.844418 0.679455
O O17 0.774892 0.831345 0.500000
O O18 0.750000 0.750000 0.588310
O O19 0.500000 0.424878 0.750000
#
# Coordination Sequence:
#
# PCOD9494896 Si02
#       8
#    16  16  16  16  16  16  16  16
#     4  11  20  33  48  61  82 117 158 195 226 263
#     4   9  18  31  45  64  90 117 149 193 225 251
#     4  10  16  29  48  62  85 120 150 179 217 275
#     4  10  18  27  43  71  98 116 144 184 224 264
#     4  10  18  32  45  63  83 116 156 186 220 270
#     4  10  15  26  44  65  90 120 143 174 215 266
#     4  10  17  26  42  65  89 116 147 180 217 259
#     4   9  16  27  42  60  84 115 150 180 215 255
#
# _framework density 14.313527000000001
#
# number of rings (size 3 to 8) (size 9 to 14) (size 15 to 20)
#    0.000    2.125    6.250    2.250    0.000    2.750 
#    0.000    3.750    0.000    0.000    0.000    0.000 
#    0.000    2.000    0.000    1.125    0.000    0.000 
#
# Total GULP energy -356298.244422 kJ/mol
# GULP energy per Si atom -5567.160069 kJ/mol
# Density = 1.428095 g / cm^3
# Si number density = 14.313527 Si / 1000 Ang^3
#
#
#
# Elastic Constant Matrix: (Units=GPa)
#
#
# Indices 1 2 3 4 5 6 
#
# 1 32.8882 17.7519 20.0938 0.0000 0.0000 0.0000
# 2 17.7519 44.8411 12.8234 0.0000 0.0000 0.0000
# 3 20.0938 12.8234 81.7505 0.0000 0.0000 0.0000
# 4 0.0000 0.0000 0.0000 11.7657 0.0000 0.0000
# 5 0.0000 0.0000 0.0000 0.0000 13.3716 0.0000
# 6 0.0000 0.0000 0.0000 0.0000 0.0000 10.1845
#
#
#
# Elastic Compliance Matrix: (Units=1/GPa)
#
#
# Indices 1 2 3 4 5 6 
#
# 1 0.043531 -0.014839 -0.008372 0.000000 0.000000 0.000000
# 2 -0.014839 0.028407 -0.000809 0.000000 0.000000 0.000000
# 3 -0.008372 -0.000809 0.014417 0.000000 0.000000 0.000000
# 4 0.000000 0.000000 0.000000 0.084993 0.000000 0.000000
# 5 0.000000 0.000000 0.000000 0.000000 0.074786 0.000000
# 6 0.000000 0.000000 0.000000 0.000000 0.000000 0.098188
#
#
# Mechanical properties :
#
#
# Convention : Reuss Voigt Hill
#
# Bulk Modulus (GPa) = 26.09917 28.97977 27.53947
# Shear Modulus (GPa) = 12.34168 14.31841 13.33004
#
# Velocity S-wave (km/s) = 2.93958 3.16625 3.05502
# Velocity P-wave (km/s) = 5.45848 5.80148 5.63259
#
# Compressibility (1/GPa) = 0.03831539
#
# Stress axis : x y z
#
# Youngs Moduli (GPa) = 22.97239 35.20301 69.36280
#
# Poissons Ratio (x) = 0.52237 0.58070
# Poissons Ratio (y) = 0.34088 0.05608
# Poissons Ratio (z) = 0.19232 0.02846
#
# Static dielectric constant tensor:
#      x y z
#    x 1.484080 0.000000 0.000000 
#    y 0.000000 1.474990 0.000000 
#    z 0.000000 0.000000 1.508730 
# 
# From -- ./inp_files/43213.got.cif
#   From: 2010.05.17/outbox.cif.g08.bks.cpg/sg66_22_cif.got.tgz:43213.got - 2010.06.03 17:51:23.
