data_PCOD9494633
_publ_section_title
;
Structure prediction by ZEFSAII (Michael W. Deem and Ramdas Pophale) SiO2 
 PCOD9494633
Probable space group: C M M M
;
_chemical_formula_sum "Si O2"
_cell_formula_units_Z 60
_cell_length_a 18.000000
_cell_length_b 18.000000
_cell_length_c 21.000000
_cell_angle_alpha 90.000000
_cell_angle_beta 90.000000
_cell_angle_gamma 90.000000
_cell_volume 6804.000000
_symmetry_space_group_name_H-M "C M M M"
_symmetry_group_IT_number 65
_symmetry_cell_setting 'orthorhombic'
loop_
_space_group_symop_operation_xyz
x,y,z
-x,-y,z
x,-y,-z
-x,y,-z
-x,-y,-z
x,y,-z
-x,y,z
x,-y,z
1/2+x,1/2+y,z
1/2-x,1/2-y,z
1/2+x,1/2-y,-z
1/2-x,1/2+y,-z
1/2-x,1/2-y,-z
1/2+x,1/2+y,-z
1/2-x,1/2+y,z
1/2+x,1/2-y,z
loop_
_atom_site_type_symbol
_atom_site_label
_atom_site_fract_x
_atom_site_fract_y
_atom_site_fract_z
Si Si1 0.689800 0.137427 0.577206
Si Si2 0.086479 0.698883 0.924823
Si Si3 0.411593 0.584797 0.244154
Si Si4 0.788255 0.585765 0.924707
Si Si5 0.647416 0.585073 0.388301
Si Si6 0.083747 0.500000 0.576716
Si Si7 0.581959 0.736014 0.574046
Si Si8 0.186910 0.806932 0.840471
O O1 0.702475 0.139729 0.500000
O O2 0.767738 0.113736 0.607574
O O3 0.630298 0.073216 0.592700
O O4 0.650735 0.214282 0.598742
O O5 0.130250 0.621525 0.915949
O O6 0.130914 0.758680 0.883486
O O7 0.000000 0.694787 0.907903
O O8 0.092088 0.717754 0.000000
O O9 0.500000 0.600953 0.240918
O O10 0.400825 0.500000 0.219170
O O11 0.384304 0.584112 0.316971
O O12 0.361813 0.645236 0.208229
O O13 0.785725 0.500000 0.905719
O O14 0.731588 0.635751 0.885103
O O15 0.770853 0.591124 0.000000
O O16 0.643664 0.500000 0.413181
O O17 0.600234 0.649040 0.422649
O O18 0.078769 0.500000 0.500000
O O19 0.000000 0.500000 0.602294
O O20 0.577441 0.757955 0.500000
O O21 0.500000 0.750756 0.602700
O O22 0.250000 0.750000 0.813712
#
# Coordination Sequence:
#
# PCOD9494633 Si02
#       8
#    16  16  16  16  16   8  16  16
#     4  10  19  33  53  78 106 133 164 202 246 300
#     4   9  17  29  47  73 105 138 168 202 246 295
#     4  10  22  39  56  72  95 129 170 216 258 299
#     4   9  17  29  47  73 105 137 168 203 244 293
#     4  11  22  36  53  74 100 130 170 212 257 302
#     4   9  16  28  50  78 107 135 161 193 237 292
#     4  10  21  35  52  76 106 137 166 201 247 300
#     4  10  19  32  52  76 101 128 167 211 256 302
#
# _framework density 8.8183419999999995
#
# number of rings (size 3 to 8) (size 9 to 14) (size 15 to 20)
#    0.000    2.200    0.667    2.800    0.000    7.200 
#    0.000    2.000    0.000    0.000    0.000    6.533 
#    0.000    0.000    0.000    0.000    0.000    0.000 
#
# Total GULP energy -334455.023433 kJ/mol
# GULP energy per Si atom -5574.250391 kJ/mol
# Density = 0.879827 g / cm^3
# Si number density = 8.818342 Si / 1000 Ang^3
#
#
#
# Elastic Constant Matrix: (Units=GPa)
#
#
# Indices 1 2 3 4 5 6 
#
# 1 120.6397 44.7206 27.2166 0.0000 0.0000 0.0000
# 2 44.7206 115.1509 25.9564 0.0000 0.0000 0.0000
# 3 27.2166 25.9564 26.2738 0.0000 0.0000 0.0000
# 4 0.0000 0.0000 0.0000 24.0094 0.0000 0.0000
# 5 0.0000 0.0000 0.0000 0.0000 39.6931 0.0000
# 6 0.0000 0.0000 0.0000 0.0000 0.0000 23.9455
#
#
#
# Elastic Compliance Matrix: (Units=1/GPa)
#
#
# Indices 1 2 3 4 5 6 
#
# 1 0.011249 -0.002241 -0.009439 0.000000 0.000000 0.000000
# 2 -0.002241 0.011619 -0.009157 0.000000 0.000000 0.000000
# 3 -0.009439 -0.009157 0.056884 0.000000 0.000000 0.000000
# 4 0.000000 0.000000 0.000000 0.041650 0.000000 0.000000
# 5 0.000000 0.000000 0.000000 0.000000 0.025193 0.000000
# 6 0.000000 0.000000 0.000000 0.000000 0.000000 0.041762
#
#
# Mechanical properties :
#
#
# Convention : Reuss Voigt Hill
#
# Bulk Modulus (GPa) = 26.26132 50.87239 38.56685
# Shear Modulus (GPa) = 20.59951 28.47432 24.53691
#
# Velocity S-wave (km/s) = 3.42130 4.02244 3.73398
# Velocity P-wave (km/s) = 5.52535 7.10497 6.36436
#
# Compressibility (1/GPa) = 0.03807882
#
# Stress axis : x y z
#
# Youngs Moduli (GPa) = 88.89353 86.06824 17.57953
#
# Poissons Ratio (x) = 0.19290 0.16593
# Poissons Ratio (y) = 0.19923 0.16097
# Poissons Ratio (z) = 0.83906 0.78810
#
# Static dielectric constant tensor:
#      x y z
#    x 1.607370 0.000000 0.000000 
#    y 0.000000 1.617050 0.000000 
#    z 0.000000 0.000000 1.588450 
# 
# From -- ./inp_files/64008.got.cif
#   From: 2010.05.17/outbox.ucp.g08.bks.cvg/sg65_33_cif.got.tgz:64008.got - 2010.06.11 16:39:57.
