data_PCOD9494923
_publ_section_title
;
Structure prediction by ZEFSAII (Michael W. Deem and Ramdas Pophale) SiO2 
 PCOD9494923
Probable space group: C C C M
;
_chemical_formula_sum "Si O2"
_cell_formula_units_Z 48
_cell_length_a 25.569782
_cell_length_b 11.894762
_cell_length_c 5.615747
_cell_angle_alpha 90.000000
_cell_angle_beta 90.000000
_cell_angle_gamma 90.000000
_cell_volume 1708.009634
_symmetry_space_group_name_H-M "C C C M"
_symmetry_group_IT_number 66
_symmetry_cell_setting 'orthorhombic'
loop_
_space_group_symop_operation_xyz
x,y,z
-x,-y,z
x,-y,1/2-z
-x,y,1/2-z
-x,-y,-z
x,y,-z
-x,y,1/2+z
x,-y,1/2+z
1/2+x,1/2+y,z
1/2-x,1/2-y,z
1/2+x,1/2-y,1/2-z
1/2-x,1/2+y,1/2-z
1/2-x,1/2-y,-z
1/2+x,1/2+y,-z
1/2-x,1/2+y,1/2+z
1/2+x,1/2-y,1/2+z
loop_
_atom_site_type_symbol
_atom_site_label
_atom_site_fract_x
_atom_site_fract_y
_atom_site_fract_z
Si Si1 0.078856 0.306703 0.500000
Si Si2 0.084000 0.634080 0.500000
Si Si3 0.807927 0.199807 0.000000
Si Si4 0.828680 0.807143 0.000000
Si Si5 0.940669 0.956036 0.500000
Si Si6 0.195556 0.447766 0.000000
O O1 0.059809 0.366156 0.740006
O O2 0.143573 0.292143 0.500000
O O3 0.059761 0.178348 0.500000
O O4 0.112241 0.758984 0.500000
O O5 0.132169 0.547295 0.500000
O O6 0.750000 0.250000 0.000000
O O7 0.816252 0.138024 0.750655
O O8 0.702773 0.813210 0.000000
O O9 0.917324 0.000000 0.750000
O O10 0.000000 0.000000 0.500000
O O11 0.213552 0.500000 0.750000
#
# Coordination Sequence:
#
# PCOD9494923 Si02
#       6
#     8   8   8   8   8   8
#     4  10  17  33  50  71 100 133 170 228 257 321
#     4   8  17  27  45  71  96 128 179 196 263 311
#     4  10  17  29  47  68  91 129 180 224 249 311
#     4   8  17  27  39  64  92 118 179 204 265 302
#     4  10  21  36  56  81 105 138 174 217 287 349
#     4  10  16  26  44  65  98 132 161 207 254 308
#
# _framework density 28.102885000000001
#
# number of rings (size 3 to 8) (size 9 to 14) (size 15 to 20)
#    1.000    1.667    0.000    3.500    0.000    0.000 
#    0.000    0.000    0.000    6.000    0.000    0.000 
#    0.000    0.000    0.000  210.000    0.000    0.000 
#
# Total GULP energy -134195.730139 kJ/mol
# GULP energy per Si atom -5591.488756 kJ/mol
# Density = 2.803892 g / cm^3
# Si number density = 28.102885 Si / 1000 Ang^3
#
#
#
# Elastic Constant Matrix: (Units=GPa)
#
#
# Indices 1 2 3 4 5 6 
#
# 1 142.6276 28.6531 22.0371 0.0000 0.0000 0.0000
# 2 28.6531 130.6299 47.4427 0.0000 0.0000 0.0000
# 3 22.0371 47.4427 379.1792 0.0000 0.0000 0.0000
# 4 0.0000 0.0000 0.0000 9.9619 0.0000 0.0000
# 5 0.0000 0.0000 0.0000 0.0000 -55.1448 0.0000
# 6 0.0000 0.0000 0.0000 0.0000 0.0000 21.8665
#
#
#
# Elastic Compliance Matrix: (Units=1/GPa)
#
#
# Indices 1 2 3 4 5 6 
#
# 1 0.007355 -0.001527 -0.000236 0.000000 0.000000 0.000000
# 2 -0.001527 0.008337 -0.000954 0.000000 0.000000 0.000000
# 3 -0.000236 -0.000954 0.002770 0.000000 0.000000 0.000000
# 4 0.000000 0.000000 0.000000 0.100382 0.000000 0.000000
# 5 0.000000 0.000000 0.000000 0.000000 -0.018134 0.000000
# 6 0.000000 0.000000 0.000000 0.000000 0.000000 0.045732
#
#
# Mechanical properties :
#
#
# Convention : Reuss Voigt Hill
#
# Bulk Modulus (GPa) = 76.77073 94.30029 85.53551
# Shear Modulus (GPa) = 32.00606 32.29029 32.14818
#
# Velocity S-wave (km/s) = 3.37840 3.39337 3.38590
# Velocity P-wave (km/s) = 6.52650 6.99868 6.76671
#
# Compressibility (1/GPa) = 0.01302580
#
# Stress axis : x y z
#
# Youngs Moduli (GPa) = 135.96891 119.94959 360.95654
#
# Poissons Ratio (x) = 0.18321 0.08531
# Poissons Ratio (y) = 0.20768 0.34447
# Poissons Ratio (z) = 0.03213 0.11447
#
# Static dielectric constant tensor:
#      x y z
#    x 2.258770 0.000000 0.000000 
#    y 0.000000 2.140870 0.000000 
#    z 0.000000 0.000000 2.260620 
# 
# From -- ./inp_files/1545.got.cif
#   From: 2010.05.17/outbox.cif.g08.bks.cpg/sg66_1_cif.got.tgz:1545.got - 2010.06.03 17:51:23.
