data_PCOD9494668
_publ_section_title
;
Structure prediction by ZEFSAII (Michael W. Deem and Ramdas Pophale) SiO2 
 PCOD9494668
Probable space group: C M M M
;
_chemical_formula_sum "Si O2"
_cell_formula_units_Z 36
_cell_length_a 24.000000
_cell_length_b 18.000000
_cell_length_c 9.000000
_cell_angle_alpha 90.000000
_cell_angle_beta 90.000000
_cell_angle_gamma 90.000000
_cell_volume 3888.000000
_symmetry_space_group_name_H-M "C M M M"
_symmetry_group_IT_number 65
_symmetry_cell_setting 'orthorhombic'
loop_
_space_group_symop_operation_xyz
x,y,z
-x,-y,z
x,-y,-z
-x,y,-z
-x,-y,-z
x,y,-z
-x,y,z
x,-y,z
1/2+x,1/2+y,z
1/2-x,1/2-y,z
1/2+x,1/2-y,-z
1/2-x,1/2+y,-z
1/2-x,1/2-y,-z
1/2+x,1/2+y,-z
1/2-x,1/2+y,z
1/2+x,1/2-y,z
loop_
_atom_site_type_symbol
_atom_site_label
_atom_site_fract_x
_atom_site_fract_y
_atom_site_fract_z
Si Si1 0.376041 0.859429 0.823103
Si Si2 0.741110 0.161761 0.676447
Si Si3 0.066658 0.500000 0.673449
Si Si4 0.143495 0.916091 0.319421
Si Si5 0.934400 0.782475 0.321243
O O1 0.312566 0.862830 0.767163
O O2 0.403156 0.784258 0.759695
O O3 0.409329 0.927763 0.753075
O O4 0.378857 0.860923 0.000000
O O5 0.731699 0.148686 0.500000
O O6 0.750000 0.250000 0.695479
O O7 0.797005 0.118876 0.722594
O O8 0.082974 0.500000 0.500000
O O9 0.000000 0.500000 0.681400
O O10 0.143260 0.918252 0.500000
O O11 0.094672 0.859634 0.276591
O O12 0.136791 0.000000 0.264983
O O13 0.927047 0.773283 0.500000
O O14 0.000000 0.781797 0.289960
#
# Coordination Sequence:
#
# PCOD9494668 Si02
#       5
#    16  16   8  16  16
#     4  12  25  39  59  89 124 157 194 246 306 365
#     4  10  19  36  61  85 116 158 204 248 292 352
#     4  11  25  45  67  89 117 157 204 249 296 357
#     4   9  18  33  56  89 121 152 196 251 301 343
#     4  10  20  37  61  86 115 155 203 249 296 357
#
# _framework density 9.2592590000000001
#
# number of rings (size 3 to 8) (size 9 to 14) (size 15 to 20)
#    0.000    1.667    2.222    3.000    1.556    4.889 
#    0.000    2.222    0.000    2.000    0.000    1.556 
#    0.000    0.000    0.000    0.000    0.000    0.000 
#
# Total GULP energy -201142.005777 kJ/mol
# GULP energy per Si atom -5587.277938 kJ/mol
# Density = 0.923818 g / cm^3
# Si number density = 9.259259 Si / 1000 Ang^3
#
#
#
# Elastic Constant Matrix: (Units=GPa)
#
#
# Indices 1 2 3 4 5 6 
#
# 1 50.7738 -13.5626 14.1284 0.0000 0.0000 0.0000
# 2 -13.5626 63.7635 -2.2288 0.0000 0.0000 0.0000
# 3 14.1284 -2.2288 34.5053 0.0000 0.0000 0.0000
# 4 0.0000 0.0000 0.0000 -7.7718 0.0000 0.0000
# 5 0.0000 0.0000 0.0000 0.0000 -19.3041 0.0000
# 6 0.0000 0.0000 0.0000 0.0000 0.0000 -8.9088
#
#
#
# Elastic Compliance Matrix: (Units=1/GPa)
#
#
# Indices 1 2 3 4 5 6 
#
# 1 0.023544 0.004681 -0.009338 0.000000 0.000000 0.000000
# 2 0.004681 0.016649 -0.000841 0.000000 0.000000 0.000000
# 3 -0.009338 -0.000841 0.032750 0.000000 0.000000 0.000000
# 4 0.000000 0.000000 0.000000 -0.128670 0.000000 0.000000
# 5 0.000000 0.000000 0.000000 0.000000 -0.051803 0.000000
# 6 0.000000 0.000000 0.000000 0.000000 0.000000 -0.112248
#
#
# Mechanical properties :
#
#
# Convention : Reuss Voigt Hill
#
# Bulk Modulus (GPa) = 16.14261 16.19073 16.16667
# Shear Modulus (GPa) = -26.57706 2.85010 -11.86348
#
# Velocity S-wave (km/s) = -3.79246 1.24193 -2.53381
# Velocity P-wave (km/s) = 3.23127 3.28915 0.43440
#
# Compressibility (1/GPa) = 0.06194785
#
# Stress axis : x y z
#
# Youngs Moduli (GPa) = 42.47361 60.06255 30.53427
#
# Poissons Ratio (x) = -0.28118 0.28512
# Poissons Ratio (y) = -0.19884 0.02569
# Poissons Ratio (z) = 0.39661 0.05054
#
# Static dielectric constant tensor:
#      x y z
#    x 1.618500 0.000000 0.000000 
#    y 0.000000 1.629390 0.000000 
#    z 0.000000 0.000000 1.612100 
# 
# From -- ./inp_files/9219.got.cif
#   From: 2010.05.17/outbox.ucp.g08.bks.cvg/sg65_5_cif.got.tgz:9219.got - 2010.06.11 16:39:57.
