data_PCOD9495569
_publ_section_title
;
Structure prediction by ZEFSAII (Michael W. Deem and Ramdas Pophale) SiO2 
 PCOD9495569
Probable space group: C C C M
;
_chemical_formula_sum "Si O2"
_cell_formula_units_Z 112
_cell_length_a 27.939524
_cell_length_b 11.915581
_cell_length_c 14.831665
_cell_angle_alpha 90.000000
_cell_angle_beta 90.000000
_cell_angle_gamma 90.000000
_cell_volume 4937.693562
_symmetry_space_group_name_H-M "C C C M"
_symmetry_group_IT_number 66
_symmetry_cell_setting 'orthorhombic'
loop_
_space_group_symop_operation_xyz
x,y,z
-x,-y,z
x,-y,1/2-z
-x,y,1/2-z
-x,-y,-z
x,y,-z
-x,y,1/2+z
x,-y,1/2+z
1/2+x,1/2+y,z
1/2-x,1/2-y,z
1/2+x,1/2-y,1/2-z
1/2-x,1/2+y,1/2-z
1/2-x,1/2-y,-z
1/2+x,1/2+y,-z
1/2-x,1/2+y,1/2+z
1/2+x,1/2-y,1/2+z
loop_
_atom_site_type_symbol
_atom_site_label
_atom_site_fract_x
_atom_site_fract_y
_atom_site_fract_z
Si Si1 0.573865 0.946995 0.608999
Si Si2 0.230805 0.136448 0.397594
Si Si3 0.044423 0.925205 0.389706
Si Si4 0.678805 0.999585 0.852762
Si Si5 0.351400 0.478271 0.889309
Si Si6 0.520794 0.174372 0.610290
Si Si7 0.695822 0.750211 0.892848
O O1 0.574248 0.946837 0.500000
O O2 0.533837 0.856327 0.637310
O O3 0.628787 0.934955 0.637744
O O4 0.553628 0.068970 0.638680
O O5 0.216114 0.167320 0.500000
O O6 0.250000 0.250000 0.352979
O O7 0.275998 0.052979 0.402591
O O8 0.185452 0.072773 0.356879
O O9 0.044534 0.921413 0.500000
O O10 0.093663 0.984276 0.362485
O O11 0.038653 0.796016 0.359729
O O12 0.000000 0.000000 0.361156
O O13 0.671702 0.870560 0.879852
O O14 0.693831 0.000000 0.750000
O O15 0.332825 0.356566 0.858851
O O16 0.349677 0.481028 0.000000
O O17 0.521611 0.174185 0.500000
O O18 0.750000 0.750000 0.857442
O O19 0.699217 0.733572 0.000000
#
# Coordination Sequence:
#
# PCOD9495569 Si02
#       7
#    16  16  16  16  16  16  16
#     4   9  17  32  55  77 102 139 183 227 277 328
#     4  10  21  38  57  78 109 148 189 233 282 340
#     4   9  16  25  42  74 113 138 161 210 275 333
#     4  12  24  35  51  80 118 147 182 227 281 344
#     4   9  17  31  54  84 109 136 178 229 279 324
#     4   8  15  29  50  77 104 134 177 232 279 319
#     4  10  18  33  60  82 101 135 188 240 275 314
#
# _framework density 22.682656000000001
#
# number of rings (size 3 to 8) (size 9 to 14) (size 15 to 20)
#    0.000    2.429    1.429    3.000    0.000    4.000 
#    0.000    5.714    0.000    0.000    0.000    0.000 
#    0.000    0.000    0.000    0.000    0.000    0.000 
#
# Total GULP energy -312792.693400 kJ/mol
# GULP energy per Si atom -5585.583811 kJ/mol
# Density = 2.263103 g / cm^3
# Si number density = 22.682656 Si / 1000 Ang^3
#
#
#
# Elastic Constant Matrix: (Units=GPa)
#
#
# Indices 1 2 3 4 5 6 
#
# 1 175.4151 65.3521 0.1772 0.0000 0.0000 0.0000
# 2 65.3521 120.5551 -1.1796 0.0000 0.0000 0.0000
# 3 0.1772 -1.1796 49.7410 0.0000 0.0000 0.0000
# 4 0.0000 0.0000 0.0000 13.4970 0.0000 0.0000
# 5 0.0000 0.0000 0.0000 0.0000 -32.8232 0.0000
# 6 0.0000 0.0000 0.0000 0.0000 0.0000 47.7094
#
#
#
# Elastic Compliance Matrix: (Units=1/GPa)
#
#
# Indices 1 2 3 4 5 6 
#
# 1 0.007144 -0.003874 -0.000117 0.000000 0.000000 0.000000
# 2 -0.003874 0.010398 0.000260 0.000000 0.000000 0.000000
# 3 -0.000117 0.000260 0.020111 0.000000 0.000000 0.000000
# 4 0.000000 0.000000 0.000000 0.074090 0.000000 0.000000
# 5 0.000000 0.000000 0.000000 0.000000 -0.030466 0.000000
# 6 0.000000 0.000000 0.000000 0.000000 0.000000 0.020960
#
#
# Mechanical properties :
#
#
# Convention : Reuss Voigt Hill
#
# Bulk Modulus (GPa) = 33.12284 52.71231 42.91757
# Shear Modulus (GPa) = 41.74943 24.43407 33.09175
#
# Velocity S-wave (km/s) = 4.29486 3.28565 3.82370
# Velocity P-wave (km/s) = 6.26330 6.13869 6.20131
#
# Compressibility (1/GPa) = 0.03019064
#
# Stress axis : x y z
#
# Youngs Moduli (GPa) = 139.97477 96.17651 49.72472
#
# Poissons Ratio (x) = 0.37258 0.00583
# Poissons Ratio (y) = 0.54225 -0.01295
# Poissons Ratio (z) = 0.01642 -0.02504
#
# Static dielectric constant tensor:
#      x y z
#    x 1.837500 0.000000 0.000000 
#    y 0.000000 1.890090 0.000000 
#    z 0.000000 0.000000 1.857710 
# 
# From -- ./inp_files/33841.got.cif
#   From: 2010.05.17/outbox.cif.g08.bks.cpg/sg66_17_cif.got.tgz:33841.got - 2010.06.03 17:51:23.
