data_PCOD9495764
_publ_section_title
;
Structure prediction by ZEFSAII (Michael W. Deem and Ramdas Pophale) SiO2 
 PCOD9495764
Probable space group: C C C M
;
_chemical_formula_sum "Si O2"
_cell_formula_units_Z 116
_cell_length_a 23.132062
_cell_length_b 27.015995
_cell_length_c 8.954525
_cell_angle_alpha 90.000000
_cell_angle_beta 90.000000
_cell_angle_gamma 90.000000
_cell_volume 5596.002092
_symmetry_space_group_name_H-M "C C C M"
_symmetry_group_IT_number 66
_symmetry_cell_setting 'orthorhombic'
loop_
_space_group_symop_operation_xyz
x,y,z
-x,-y,z
x,-y,1/2-z
-x,y,1/2-z
-x,-y,-z
x,y,-z
-x,y,1/2+z
x,-y,1/2+z
1/2+x,1/2+y,z
1/2-x,1/2-y,z
1/2+x,1/2-y,1/2-z
1/2-x,1/2+y,1/2-z
1/2-x,1/2-y,-z
1/2+x,1/2+y,-z
1/2-x,1/2+y,1/2+z
1/2+x,1/2-y,1/2+z
loop_
_atom_site_type_symbol
_atom_site_label
_atom_site_fract_x
_atom_site_fract_y
_atom_site_fract_z
Si Si1 0.179324 0.569117 0.168651
Si Si2 0.174457 0.845881 0.182941
Si Si3 0.799830 0.948645 0.820583
Si Si4 0.080660 0.690747 0.340106
Si Si5 0.250000 0.750000 0.000000
Si Si6 0.940297 0.425861 0.675203
Si Si7 0.797433 0.681318 0.736330
Si Si8 0.941601 0.211856 0.825053
O O1 0.231466 0.554175 0.277893
O O2 0.116878 0.557220 0.236670
O O3 0.185313 0.628907 0.161399
O O4 0.187105 0.549652 0.000000
O O5 0.171581 0.903193 0.229256
O O6 0.230282 0.827120 0.275416
O O7 0.116399 0.817167 0.221433
O O8 0.187844 0.838511 0.000000
O O9 0.821210 0.000000 0.750000
O O10 0.807201 0.945473 0.000000
O O11 0.057290 0.707965 0.500000
O O12 0.061381 0.634430 0.315560
O O13 0.150300 0.689848 0.346174
O O14 0.064137 0.730401 0.217005
O O15 0.206554 0.727348 0.873081
O O16 0.937359 0.438967 0.500000
O O17 0.000000 0.442371 0.750000
O O18 0.000000 0.192610 0.750000
O O19 0.945897 0.205502 0.000000
#
# Coordination Sequence:
#
# PCOD9495764 Si02
#       8
#    16  16  16  16   4  16  16  16
#     4  10  19  35  53  80 113 148 184 232 280 337
#     4  10  21  39  58  84 113 149 186 230 283 343
#     4  11  22  38  63  92 117 144 174 225 286 354
#     4  10  22  35  50  76 112 149 198 247 287 329
#     4  12  16  28  46  76 108 148 190 216 276 330
#     4  10  20  33  50  75 108 152 201 247 286 327
#     4  10  19  29  53  77 110 145 191 228 278 336
#     4  11  24  39  58  77 108 152 195 237 283 334
#
# _framework density 20.729084
#
# number of rings (size 3 to 8) (size 9 to 14) (size 15 to 20)
#    0.000    1.655    1.379    4.552    2.897    6.621 
#    0.000    2.414    0.000    0.828    0.000    5.793 
#    0.000    0.000    0.000    0.000    0.000    0.000 
#
# Total GULP energy -323249.296270 kJ/mol
# GULP energy per Si atom -5573.263729 kJ/mol
# Density = 2.068190 g / cm^3
# Si number density = 20.729084 Si / 1000 Ang^3
#
#
#
# Elastic Constant Matrix: (Units=GPa)
#
#
# Indices 1 2 3 4 5 6 
#
# 1 120.2185 18.4186 33.1009 0.0000 0.0000 0.0000
# 2 18.4186 58.1225 7.1920 0.0000 0.0000 0.0000
# 3 33.1009 7.1920 72.9985 0.0000 0.0000 0.0000
# 4 0.0000 0.0000 0.0000 11.1355 0.0000 0.0000
# 5 0.0000 0.0000 0.0000 0.0000 19.9306 0.0000
# 6 0.0000 0.0000 0.0000 0.0000 0.0000 1.9344
#
#
#
# Elastic Compliance Matrix: (Units=1/GPa)
#
#
# Indices 1 2 3 4 5 6 
#
# 1 0.009881 -0.002609 -0.004223 0.000000 0.000000 0.000000
# 2 -0.002609 0.018106 -0.000601 0.000000 0.000000 0.000000
# 3 -0.004223 -0.000601 0.015673 0.000000 0.000000 0.000000
# 4 0.000000 0.000000 0.000000 0.089803 0.000000 0.000000
# 5 0.000000 0.000000 0.000000 0.000000 0.050174 0.000000
# 6 0.000000 0.000000 0.000000 0.000000 0.000000 0.516951
#
#
# Mechanical properties :
#
#
# Convention : Reuss Voigt Hill
#
# Bulk Modulus (GPa) = 34.72934 40.97360 37.85147
# Shear Modulus (GPa) = 6.89606 19.44197 13.16901
#
# Velocity S-wave (km/s) = 1.82592 3.06585 2.52323
# Velocity P-wave (km/s) = 4.60821 5.68698 5.17578
#
# Compressibility (1/GPa) = 0.02879410
#
# Stress axis : x y z
#
# Youngs Moduli (GPa) = 101.20740 55.23021 63.80315
#
# Poissons Ratio (x) = 0.14407 0.26946
# Poissons Ratio (y) = 0.26400 0.03835
# Poissons Ratio (z) = 0.42744 0.03319
#
# Static dielectric constant tensor:
#      x y z
#    x 1.758350 0.000000 0.000000 
#    y 0.000000 1.846610 0.000000 
#    z 0.000000 0.000000 1.748270 
# 
# From -- ./inp_files/9404.got.cif
#   From: 2010.05.17/outbox.cif.g08.bks.cpg/sg66_5_cif.got.tgz:9404.got - 2010.06.03 17:51:23.
