data_PCOD9495442
_publ_section_title
;
Structure prediction by ZEFSAII (Michael W. Deem and Ramdas Pophale) SiO2 
 PCOD9495442
Probable space group: C C C M
;
_chemical_formula_sum "Si O2"
_cell_formula_units_Z 84
_cell_length_a 10.096240
_cell_length_b 23.142561
_cell_length_c 18.394036
_cell_angle_alpha 90.000000
_cell_angle_beta 90.000000
_cell_angle_gamma 90.000000
_cell_volume 4297.818936
_symmetry_space_group_name_H-M "C C C M"
_symmetry_group_IT_number 66
_symmetry_cell_setting 'orthorhombic'
loop_
_space_group_symop_operation_xyz
x,y,z
-x,-y,z
x,-y,1/2-z
-x,y,1/2-z
-x,-y,-z
x,y,-z
-x,y,1/2+z
x,-y,1/2+z
1/2+x,1/2+y,z
1/2-x,1/2-y,z
1/2+x,1/2-y,1/2-z
1/2-x,1/2+y,1/2-z
1/2-x,1/2-y,-z
1/2+x,1/2+y,-z
1/2-x,1/2+y,1/2+z
1/2+x,1/2-y,1/2+z
loop_
_atom_site_type_symbol
_atom_site_label
_atom_site_fract_x
_atom_site_fract_y
_atom_site_fract_z
Si Si1 0.219292 0.432168 0.086450
Si Si2 0.500000 0.500000 0.250000
Si Si3 0.939337 0.612689 0.588068
Si Si4 0.547671 0.356488 0.584268
Si Si5 0.326544 0.443290 0.629549
Si Si6 0.401959 0.755222 0.911989
O O1 0.321407 0.385024 0.117848
O O2 0.282700 0.494853 0.097663
O O3 0.069073 0.422845 0.111624
O O4 0.211379 0.423164 0.000000
O O5 0.595912 0.540181 0.297581
O O6 0.916574 0.604446 0.500000
O O7 0.809035 0.592346 0.630151
O O8 0.957873 0.680928 0.600858
O O9 0.578980 0.344020 0.500000
O O10 0.432473 0.404861 0.585938
O O11 0.490225 0.297532 0.616960
O O12 0.250000 0.750000 0.886317
O O13 0.396191 0.748381 0.000000
#
# Coordination Sequence:
#
# PCOD9495442 Si02
#       6
#    16   4  16  16  16  16
#     4  10  20  33  54  88 121 146 175 220 287 351
#     4  12  28  40  56  80 100 148 210 250 270 316
#     4  10  20  34  57  90 124 146 172 220 287 359
#     4  10  18  31  57  86 115 148 181 222 279 347
#     4  12  21  38  55  77 107 148 190 239 280 320
#     4   9  16  28  50  87 121 148 177 207 264 347
#
# _framework density 19.544798
#
# number of rings (size 3 to 8) (size 9 to 14) (size 15 to 20)
#    0.000    1.714    3.810    2.286    0.000    3.810 
#    0.000    5.714    0.000    0.000    9.905    0.000 
#    0.000    0.000    0.000    0.000    0.000    0.000 
#
# Total GULP energy -234118.784209 kJ/mol
# GULP energy per Si atom -5574.256767 kJ/mol
# Density = 1.950031 g / cm^3
# Si number density = 19.544798 Si / 1000 Ang^3
#
#
#
# Elastic Constant Matrix: (Units=GPa)
#
#
# Indices 1 2 3 4 5 6 
#
# 1 102.1404 26.6920 21.3301 0.0000 0.0000 0.0000
# 2 26.6920 88.0284 14.2557 0.0000 0.0000 0.0000
# 3 21.3301 14.2557 19.0105 0.0000 0.0000 0.0000
# 4 0.0000 0.0000 0.0000 12.4599 0.0000 0.0000
# 5 0.0000 0.0000 0.0000 0.0000 24.4781 0.0000
# 6 0.0000 0.0000 0.0000 0.0000 0.0000 -7.5626
#
#
#
# Elastic Compliance Matrix: (Units=1/GPa)
#
#
# Indices 1 2 3 4 5 6 
#
# 1 0.013033 -0.001803 -0.013271 0.000000 0.000000 0.000000
# 2 -0.001803 0.013180 -0.007861 0.000000 0.000000 0.000000
# 3 -0.013271 -0.007861 0.073388 0.000000 0.000000 0.000000
# 4 0.000000 0.000000 0.000000 0.080257 0.000000 0.000000
# 5 0.000000 0.000000 0.000000 0.000000 0.040853 0.000000
# 6 0.000000 0.000000 0.000000 0.000000 0.000000 -0.132230
#
#
# Mechanical properties :
#
#
# Convention : Reuss Voigt Hill
#
# Bulk Modulus (GPa) = 18.61126 37.08169 27.84647
# Shear Modulus (GPa) = 32.83856 15.66852 24.25354
#
# Velocity S-wave (km/s) = 4.10343 2.83445 3.52649
# Velocity P-wave (km/s) = 5.65632 5.45216 5.55517
#
# Compressibility (1/GPa) = 0.05373090
#
# Stress axis : x y z
#
# Youngs Moduli (GPa) = 76.72825 75.87521 13.62628
#
# Poissons Ratio (x) = 0.13678 0.18084
# Poissons Ratio (y) = 0.13831 0.10711
# Poissons Ratio (z) = 1.01829 0.59642
#
# Static dielectric constant tensor:
#      x y z
#    x 1.736880 0.000000 0.000000 
#    y 0.000000 1.706480 0.000000 
#    z 0.000000 0.000000 1.686740 
# 
# From -- ./inp_files/47079.got.cif
#   From: 2010.05.17/outbox.cif.g08.bks.cpg/sg66_24_cif.got.tgz:47079.got - 2010.06.03 17:51:23.
