data_PCOD9495065
_publ_section_title
;
Structure prediction by ZEFSAII (Michael W. Deem and Ramdas Pophale) SiO2 
 PCOD9495065
Probable space group: C C C M
;
_chemical_formula_sum "Si O2"
_cell_formula_units_Z 112
_cell_length_a 20.475148
_cell_length_b 20.476870
_cell_length_c 17.644957
_cell_angle_alpha 90.000000
_cell_angle_beta 90.000000
_cell_angle_gamma 90.000000
_cell_volume 7397.947195
_symmetry_space_group_name_H-M "C C C M"
_symmetry_group_IT_number 66
_symmetry_cell_setting 'orthorhombic'
loop_
_space_group_symop_operation_xyz
x,y,z
-x,-y,z
x,-y,1/2-z
-x,y,1/2-z
-x,-y,-z
x,y,-z
-x,y,1/2+z
x,-y,1/2+z
1/2+x,1/2+y,z
1/2-x,1/2-y,z
1/2+x,1/2-y,1/2-z
1/2-x,1/2+y,1/2-z
1/2-x,1/2-y,-z
1/2+x,1/2+y,-z
1/2-x,1/2+y,1/2+z
1/2+x,1/2-y,1/2+z
loop_
_atom_site_type_symbol
_atom_site_label
_atom_site_fract_x
_atom_site_fract_y
_atom_site_fract_z
Si Si1 0.704703 0.150163 0.916370
Si Si2 0.346874 0.287518 0.621087
Si Si3 0.641199 0.516110 0.410246
Si Si4 0.391896 0.636267 0.411230
Si Si5 0.036356 0.116781 0.587898
Si Si6 0.754222 0.563943 0.294947
Si Si7 0.198186 0.808510 0.285963
O O1 0.659960 0.213778 0.906917
O O2 0.779574 0.176871 0.905875
O O3 0.694127 0.098125 0.850527
O O4 0.698125 0.122491 0.000000
O O5 0.409989 0.326176 0.593782
O O6 0.343835 0.289452 0.711940
O O7 0.653491 0.533418 0.500000
O O8 0.632387 0.438713 0.406908
O O9 0.574654 0.552569 0.384882
O O10 0.696386 0.540674 0.352322
O O11 0.390547 0.656072 0.500000
O O12 0.466187 0.635501 0.379712
O O13 0.345538 0.679738 0.359245
O O14 0.021544 0.102873 0.500000
O O15 0.775574 0.500000 0.250000
O O16 0.730387 0.621941 0.238949
O O17 0.250000 0.750000 0.295617
#
# Coordination Sequence:
#
# PCOD9495065 Si02
#       7
#    16  16  16  16  16  16  16
#     4  10  17  28  47  70  93 122 157 197 248 295
#     4  10  17  28  47  71  92 120 154 203 254 291
#     4  10  18  30  47  67  96 131 165 197 231 276
#     4  10  22  34  46  65  94 137 175 199 226 276
#     4  10  18  30  47  70 100 129 163 200 236 283
#     4  11  19  30  46  69  95 127 160 199 244 283
#     4  11  20  35  49  64  93 127 166 208 247 281
#
# _framework density 15.139335000000001
#
# number of rings (size 3 to 8) (size 9 to 14) (size 15 to 20)
#    0.000    1.714    7.143    2.571    0.000    2.571 
#    0.000    0.000    0.000    0.000    0.000    0.000 
#    0.000    2.286    0.000    4.571    0.000    0.000 
#
# Total GULP energy -311976.636953 kJ/mol
# GULP energy per Si atom -5571.011374 kJ/mol
# Density = 1.510488 g / cm^3
# Si number density = 15.139335 Si / 1000 Ang^3
#
#
#
# Elastic Constant Matrix: (Units=GPa)
#
#
# Indices 1 2 3 4 5 6 
#
# 1 15.5361 11.0961 8.3122 0.0000 0.0000 0.0000
# 2 11.0961 62.0605 22.8862 0.0000 0.0000 0.0000
# 3 8.3122 22.8862 65.0168 0.0000 0.0000 0.0000
# 4 0.0000 0.0000 0.0000 26.2061 0.0000 0.0000
# 5 0.0000 0.0000 0.0000 0.0000 1.5669 0.0000
# 6 0.0000 0.0000 0.0000 0.0000 0.0000 10.8006
#
#
#
# Elastic Compliance Matrix: (Units=1/GPa)
#
#
# Indices 1 2 3 4 5 6 
#
# 1 0.075544 -0.011429 -0.005635 0.000000 0.000000 0.000000
# 2 -0.011429 0.020246 -0.005666 0.000000 0.000000 0.000000
# 3 -0.005635 -0.005666 0.018095 0.000000 0.000000 0.000000
# 4 0.000000 0.000000 0.000000 0.038159 0.000000 0.000000
# 5 0.000000 0.000000 0.000000 0.000000 0.638184 0.000000
# 6 0.000000 0.000000 0.000000 0.000000 0.000000 0.092587
#
#
# Mechanical properties :
#
#
# Convention : Reuss Voigt Hill
#
# Bulk Modulus (GPa) = 14.61422 25.24471 19.92947
# Shear Modulus (GPa) = 5.25716 14.40266 9.82991
#
# Velocity S-wave (km/s) = 1.86549 3.08773 2.55089
# Velocity P-wave (km/s) = 3.78341 5.42431 4.67640
#
# Compressibility (1/GPa) = 0.06842651
#
# Stress axis : x y z
#
# Youngs Moduli (GPa) = 13.23734 49.39247 55.26279
#
# Poissons Ratio (x) = 0.56449 0.31141
# Poissons Ratio (y) = 0.15129 0.31309
# Poissons Ratio (z) = 0.07459 0.27984
#
# Static dielectric constant tensor:
#      x y z
#    x 1.499700 0.000000 0.000000 
#    y 0.000000 1.515970 0.000000 
#    z 0.000000 0.000000 1.534710 
# 
# From -- ./inp_files/42002.got.cif
#   From: 2010.05.17/outbox.cif.g08.bks.cpg/sg66_22_cif.got.tgz:42002.got - 2010.06.03 17:51:23.
