data_PCOD9495209
_publ_section_title
;
Structure prediction by ZEFSAII (Michael W. Deem and Ramdas Pophale) SiO2 
 PCOD9495209
Probable space group: C C C M
;
_chemical_formula_sum "Si O2"
_cell_formula_units_Z 84
_cell_length_a 11.568696
_cell_length_b 19.305704
_cell_length_c 19.845147
_cell_angle_alpha 90.000000
_cell_angle_beta 90.000000
_cell_angle_gamma 90.000000
_cell_volume 4432.251262
_symmetry_space_group_name_H-M "C C C M"
_symmetry_group_IT_number 66
_symmetry_cell_setting 'orthorhombic'
loop_
_space_group_symop_operation_xyz
x,y,z
-x,-y,z
x,-y,1/2-z
-x,y,1/2-z
-x,-y,-z
x,y,-z
-x,y,1/2+z
x,-y,1/2+z
1/2+x,1/2+y,z
1/2-x,1/2-y,z
1/2+x,1/2-y,1/2-z
1/2-x,1/2+y,1/2-z
1/2-x,1/2-y,-z
1/2+x,1/2+y,-z
1/2-x,1/2+y,1/2+z
1/2+x,1/2-y,1/2+z
loop_
_atom_site_type_symbol
_atom_site_label
_atom_site_fract_x
_atom_site_fract_y
_atom_site_fract_z
Si Si1 0.371208 0.411809 0.862930
Si Si2 0.711902 0.483273 0.500000
Si Si3 0.332374 0.812797 0.372766
Si Si4 0.988364 0.210241 0.824515
Si Si5 0.000000 0.000000 0.250000
Si Si6 0.933802 0.610826 0.000000
Si Si7 0.750000 0.250000 0.889089
Si Si8 0.298066 0.133391 0.500000
O O1 0.347303 0.453351 0.932045
O O2 0.252506 0.371390 0.843696
O O3 0.463175 0.349472 0.873742
O O4 0.418130 0.458079 0.802014
O O5 0.844207 0.453375 0.500000
O O6 0.716250 0.566256 0.500000
O O7 0.250000 0.750000 0.396495
O O8 0.425699 0.775950 0.325770
O O9 0.399744 0.845206 0.434731
O O10 0.861116 0.232000 0.844739
O O11 0.000000 0.180372 0.750000
O O12 0.071228 0.603830 0.000000
O O13 0.721695 0.183967 0.936372
#
# Coordination Sequence:
#
# PCOD9495209 Si02
#       8
#    16   8  16  16   4   8   8   8
#     4  10  24  41  65  94 122 172 213 262 317 377
#     4  10  24  41  66  91 126 176 212 261 317 396
#     4   9  19  37  62  90 119 158 208 254 308 379
#     4  11  23  40  63  91 128 168 212 264 319 383
#     4  12  24  42  60  96 134 162 216 274 310 382
#     4  10  17  39  61  91 123 161 206 253 317 372
#     4  11  26  40  62  98 128 165 208 274 330 375
#     4  11  23  41  62  94 131 162 207 270 334 378
#
# _framework density 18.951993999999999
#
# number of rings (size 3 to 8) (size 9 to 14) (size 15 to 20)
#    0.000    1.714    2.857    0.571    6.667    4.190 
#    0.000    0.000    0.000    0.000    0.000    0.000 
#    0.000    0.000    0.000    0.000    0.000    0.000 
#
# Total GULP energy -234247.877013 kJ/mol
# GULP energy per Si atom -5577.330405 kJ/mol
# Density = 1.890886 g / cm^3
# Si number density = 18.951994 Si / 1000 Ang^3
#
#
#
# Elastic Constant Matrix: (Units=GPa)
#
#
# Indices 1 2 3 4 5 6 
#
# 1 128.2565 59.8145 59.9738 0.0000 0.0000 0.0000
# 2 59.8145 117.0834 64.6489 0.0000 0.0000 0.0000
# 3 59.9738 64.6489 96.3675 0.0000 0.0000 0.0000
# 4 0.0000 0.0000 0.0000 10.8952 0.0000 0.0000
# 5 0.0000 0.0000 0.0000 0.0000 24.9875 0.0000
# 6 0.0000 0.0000 0.0000 0.0000 0.0000 10.9709
#
#
#
# Elastic Compliance Matrix: (Units=1/GPa)
#
#
# Indices 1 2 3 4 5 6 
#
# 1 0.011664 -0.003098 -0.005181 0.000000 0.000000 0.000000
# 2 -0.003098 0.014389 -0.007725 0.000000 0.000000 0.000000
# 3 -0.005181 -0.007725 0.018783 0.000000 0.000000 0.000000
# 4 0.000000 0.000000 0.000000 0.091784 0.000000 0.000000
# 5 0.000000 0.000000 0.000000 0.000000 0.040020 0.000000
# 6 0.000000 0.000000 0.000000 0.000000 0.000000 0.091150
#
#
# Mechanical properties :
#
#
# Convention : Reuss Voigt Hill
#
# Bulk Modulus (GPa) = 77.94772 78.95356 78.45064
# Shear Modulus (GPa) = 16.44332 19.85539 18.14935
#
# Velocity S-wave (km/s) = 2.94875 3.24028 3.09795
# Velocity P-wave (km/s) = 7.26717 7.46655 7.36754
#
# Compressibility (1/GPa) = 0.01282911
#
# Stress axis : x y z
#
# Youngs Moduli (GPa) = 85.73092 69.49679 53.23870
#
# Poissons Ratio (x) = 0.21533 0.27581
# Poissons Ratio (y) = 0.26563 0.41126
# Poissons Ratio (z) = 0.44414 0.53685
#
# Static dielectric constant tensor:
#      x y z
#    x 1.666970 0.000000 0.000000 
#    y 0.000000 1.667390 0.000000 
#    z 0.000000 0.000000 1.629350 
# 
# From -- ./inp_files/38614.got.cif
#   From: 2010.05.17/outbox.cif.g08.bks.cpg/sg66_20_cif.got.tgz:38614.got - 2010.06.03 17:51:23.
