data_PCOD9495167
_publ_section_title
;
Structure prediction by ZEFSAII (Michael W. Deem and Ramdas Pophale) SiO2 
 PCOD9495167
Probable space group: C C C M
;
_chemical_formula_sum "Si O2"
_cell_formula_units_Z 92
_cell_length_a 21.471105
_cell_length_b 24.916389
_cell_length_c 8.830397
_cell_angle_alpha 90.000000
_cell_angle_beta 90.000000
_cell_angle_gamma 90.000000
_cell_volume 4724.107019
_symmetry_space_group_name_H-M "C C C M"
_symmetry_group_IT_number 66
_symmetry_cell_setting 'orthorhombic'
loop_
_space_group_symop_operation_xyz
x,y,z
-x,-y,z
x,-y,1/2-z
-x,y,1/2-z
-x,-y,-z
x,y,-z
-x,y,1/2+z
x,-y,1/2+z
1/2+x,1/2+y,z
1/2-x,1/2-y,z
1/2+x,1/2-y,1/2-z
1/2-x,1/2+y,1/2-z
1/2-x,1/2-y,-z
1/2+x,1/2+y,-z
1/2-x,1/2+y,1/2+z
1/2+x,1/2-y,1/2+z
loop_
_atom_site_type_symbol
_atom_site_label
_atom_site_fract_x
_atom_site_fract_y
_atom_site_fract_z
Si Si1 0.678918 0.356970 0.831855
Si Si2 0.563661 0.693051 0.179848
Si Si3 0.750000 0.250000 0.225028
Si Si4 0.875270 0.704252 0.682628
Si Si5 0.234548 0.444205 0.822152
Si Si6 0.108446 0.419313 0.670490
Si Si7 0.000000 0.500000 0.750000
O O1 0.620449 0.345788 0.724510
O O2 0.713450 0.299730 0.845327
O O3 0.727713 0.397461 0.760040
O O4 0.659491 0.373923 0.000000
O O5 0.500000 0.671731 0.250000
O O6 0.577917 0.749666 0.263706
O O7 0.560028 0.700448 0.000000
O O8 0.812010 0.283224 0.280141
O O9 0.861689 0.709254 0.500000
O O10 0.901319 0.644077 0.702898
O O11 0.255311 0.500000 0.750000
O O12 0.161200 0.438150 0.786222
O O13 0.245049 0.442791 0.000000
O O14 0.135383 0.422678 0.500000
O O15 0.048286 0.457706 0.674195
#
# Coordination Sequence:
#
# PCOD9495167 Si02
#       7
#    16  16   8  16  16  16   4
#     4  11  21  39  65  94 127 166 206 261 324 386
#     4  11  23  40  60  91 127 166 209 253 311 385
#     4  10  17  32  61  92 123 158 199 248 325 398
#     4  10  20  36  58  86 121 164 205 259 326 387
#     4  12  25  42  65  94 125 163 211 267 322 380
#     4  11  24  42  61  84 119 164 217 275 328 380
#     4  12  26  40  64  90 118 172 236 280 328 380
#
# _framework density 19.474581000000001
#
# number of rings (size 3 to 8) (size 9 to 14) (size 15 to 20)
#    0.000    1.043    2.609    6.522    1.217    1.391 
#    0.000    2.174    0.000    0.522    0.000    3.652 
#    0.000    0.000    0.000    0.000    0.000    0.000 
#
# Total GULP energy -256271.013565 kJ/mol
# GULP energy per Si atom -5571.108991 kJ/mol
# Density = 1.943026 g / cm^3
# Si number density = 19.474581 Si / 1000 Ang^3
#
#
#
# Elastic Constant Matrix: (Units=GPa)
#
#
# Indices 1 2 3 4 5 6 
#
# 1 97.6799 34.0930 15.1576 0.0000 0.0000 0.0000
# 2 34.0930 120.3420 34.9574 0.0000 0.0000 0.0000
# 3 15.1576 34.9574 87.7640 0.0000 0.0000 0.0000
# 4 0.0000 0.0000 0.0000 22.1130 0.0000 0.0000
# 5 0.0000 0.0000 0.0000 0.0000 13.0555 0.0000
# 6 0.0000 0.0000 0.0000 0.0000 0.0000 34.1862
#
#
#
# Elastic Compliance Matrix: (Units=1/GPa)
#
#
# Indices 1 2 3 4 5 6 
#
# 1 0.011407 -0.003007 -0.000772 0.000000 0.000000 0.000000
# 2 -0.003007 0.010190 -0.003539 0.000000 0.000000 0.000000
# 3 -0.000772 -0.003539 0.012937 0.000000 0.000000 0.000000
# 4 0.000000 0.000000 0.000000 0.045222 0.000000 0.000000
# 5 0.000000 0.000000 0.000000 0.000000 0.076596 0.000000
# 6 0.000000 0.000000 0.000000 0.000000 0.000000 0.029252
#
#
# Mechanical properties :
#
#
# Convention : Reuss Voigt Hill
#
# Bulk Modulus (GPa) = 50.26049 52.68912 51.47481
# Shear Modulus (GPa) = 24.16935 28.64280 26.40608
#
# Velocity S-wave (km/s) = 3.52671 3.83923 3.68628
# Velocity P-wave (km/s) = 6.51520 6.83864 6.67888
#
# Compressibility (1/GPa) = 0.01989634
#
# Stress axis : x y z
#
# Youngs Moduli (GPa) = 87.66563 98.13811 77.29583
#
# Poissons Ratio (x) = 0.29513 0.05969
# Poissons Ratio (y) = 0.26363 0.27357
# Poissons Ratio (z) = 0.06770 0.34734
#
# Static dielectric constant tensor:
#      x y z
#    x 1.707240 0.000000 0.000000 
#    y 0.000000 1.842110 0.000000 
#    z 0.000000 0.000000 1.685930 
# 
# From -- ./inp_files/8102.got.cif
#   From: 2010.05.17/outbox.cif.g08.bks.cpg/sg66_5_cif.got.tgz:8102.got - 2010.06.03 17:51:23.
