data_PCOD9495294
_publ_section_title
;
Structure prediction by ZEFSAII (Michael W. Deem and Ramdas Pophale) SiO2 
 PCOD9495294
Probable space group: C C C M
;
_chemical_formula_sum "Si O2"
_cell_formula_units_Z 76
_cell_length_a 14.004837
_cell_length_b 14.844826
_cell_length_c 15.170435
_cell_angle_alpha 90.000000
_cell_angle_beta 90.000000
_cell_angle_gamma 90.000000
_cell_volume 3153.923855
_symmetry_space_group_name_H-M "C C C M"
_symmetry_group_IT_number 66
_symmetry_cell_setting 'orthorhombic'
loop_
_space_group_symop_operation_xyz
x,y,z
-x,-y,z
x,-y,1/2-z
-x,y,1/2-z
-x,-y,-z
x,y,-z
-x,y,1/2+z
x,-y,1/2+z
1/2+x,1/2+y,z
1/2-x,1/2-y,z
1/2+x,1/2-y,1/2-z
1/2-x,1/2+y,1/2-z
1/2-x,1/2-y,-z
1/2+x,1/2+y,-z
1/2-x,1/2+y,1/2+z
1/2+x,1/2-y,1/2+z
loop_
_atom_site_type_symbol
_atom_site_label
_atom_site_fract_x
_atom_site_fract_y
_atom_site_fract_z
Si Si1 0.775569 0.857026 0.596214
Si Si2 0.500000 0.500000 0.750000
Si Si3 0.500000 0.847431 0.750000
Si Si4 0.708658 0.855830 0.213091
Si Si5 0.874440 0.906349 0.100009
Si Si6 0.466259 0.274302 0.406244
O O1 0.745743 0.893792 0.500000
O O2 0.750000 0.750000 0.593992
O O3 0.738574 0.891900 0.689410
O O4 0.891284 0.856358 0.599083
O O5 0.568462 0.552019 0.817843
O O6 0.596394 0.882812 0.796038
O O7 0.550488 0.787076 0.676152
O O8 0.750000 0.750000 0.213625
O O9 0.766995 0.898538 0.132583
O O10 0.926406 0.809269 0.095585
O O11 0.885142 0.943252 0.000000
O O12 0.448536 0.228752 0.500000
#
# Coordination Sequence:
#
# PCOD9495294 Si02
#       6
#    16   4   8  16  16  16
#     4   9  15  25  42  68 103 149 194 232 268 332
#     4  12  24  44  72  84 116 162 222 270 296 360
#     4  12  19  30  48  82 120 167 194 228 294 382
#     4  11  20  32  55  82 128 163 201 242 313 376
#     4  11  24  40  60  90 122 160 208 263 319 368
#     4  10  18  29  49  78 115 151 189 234 292 360
#
# _framework density 24.096966999999999
#
# number of rings (size 3 to 8) (size 9 to 14) (size 15 to 20)
#    0.000    1.474    6.316    2.211    0.000    1.263 
#    0.000    1.053    0.000    0.632    0.000    1.474 
#    0.000    0.000    0.000    0.000    0.000    0.000 
#
# Total GULP energy -211713.760487 kJ/mol
# GULP energy per Si atom -5571.414750 kJ/mol
# Density = 2.404212 g / cm^3
# Si number density = 24.096967 Si / 1000 Ang^3
#
#
#
# Elastic Constant Matrix: (Units=GPa)
#
#
# Indices 1 2 3 4 5 6 
#
# 1 177.2709 -7.6234 25.1129 0.0000 0.0000 0.0000
# 2 -7.6234 21.4121 7.1994 0.0000 0.0000 0.0000
# 3 25.1129 7.1994 177.0877 0.0000 0.0000 0.0000
# 4 0.0000 0.0000 0.0000 24.3916 0.0000 0.0000
# 5 0.0000 0.0000 0.0000 0.0000 27.5893 0.0000
# 6 0.0000 0.0000 0.0000 0.0000 0.0000 17.4837
#
#
#
# Elastic Compliance Matrix: (Units=1/GPa)
#
#
# Indices 1 2 3 4 5 6 
#
# 1 0.005876 0.002405 -0.000931 0.000000 0.000000 0.000000
# 2 0.002405 0.048334 -0.002306 0.000000 0.000000 0.000000
# 3 -0.000931 -0.002306 0.005873 0.000000 0.000000 0.000000
# 4 0.000000 0.000000 0.000000 0.040998 0.000000 0.000000
# 5 0.000000 0.000000 0.000000 0.000000 0.036246 0.000000
# 6 0.000000 0.000000 0.000000 0.000000 0.000000 0.057196
#
#
# Mechanical properties :
#
#
# Convention : Reuss Voigt Hill
#
# Bulk Modulus (GPa) = 17.11754 47.23871 32.17812
# Shear Modulus (GPa) = 23.18462 37.29839 30.24151
#
# Velocity S-wave (km/s) = 3.10520 3.93854 3.54643
# Velocity P-wave (km/s) = 4.46938 6.35050 5.49110
#
# Compressibility (1/GPa) = 0.05841962
#
# Stress axis : x y z
#
# Youngs Moduli (GPa) = 170.17141 20.68921 170.27901
#
# Poissons Ratio (x) = -0.04976 0.15855
# Poissons Ratio (y) = -0.40931 0.39268
# Poissons Ratio (z) = 0.15845 0.04771
#
# Static dielectric constant tensor:
#      x y z
#    x 2.054280 0.000000 0.000000 
#    y 0.000000 2.033880 0.000000 
#    z 0.000000 0.000000 1.879490 
# 
# From -- ./inp_files/28150.got.cif
#   From: 2010.05.17/outbox.cif.g08.bks.cpg/sg66_15_cif.got.tgz:28150.got - 2010.06.03 17:51:23.
