data_PCOD9495144
_publ_section_title
;
Structure prediction by ZEFSAII (Michael W. Deem and Ramdas Pophale) SiO2 
 PCOD9495144
Probable space group: C C C M
;
_chemical_formula_sum "Si O2"
_cell_formula_units_Z 64
_cell_length_a 10.958430
_cell_length_b 10.318501
_cell_length_c 22.782947
_cell_angle_alpha 90.000000
_cell_angle_beta 90.000000
_cell_angle_gamma 90.000000
_cell_volume 2576.171956
_symmetry_space_group_name_H-M "C C C M"
_symmetry_group_IT_number 66
_symmetry_cell_setting 'orthorhombic'
loop_
_space_group_symop_operation_xyz
x,y,z
-x,-y,z
x,-y,1/2-z
-x,y,1/2-z
-x,-y,-z
x,y,-z
-x,y,1/2+z
x,-y,1/2+z
1/2+x,1/2+y,z
1/2-x,1/2-y,z
1/2+x,1/2-y,1/2-z
1/2-x,1/2+y,1/2-z
1/2-x,1/2-y,-z
1/2+x,1/2+y,-z
1/2-x,1/2+y,1/2+z
1/2+x,1/2-y,1/2+z
loop_
_atom_site_type_symbol
_atom_site_label
_atom_site_fract_x
_atom_site_fract_y
_atom_site_fract_z
Si Si1 0.672673 0.115167 0.130108
Si Si2 0.344455 0.000000 0.250000
Si Si3 0.395420 0.587207 0.375801
Si Si4 0.839865 0.126850 0.500000
Si Si5 0.750000 0.250000 0.695312
Si Si6 0.834895 0.623069 0.500000
O O1 0.750000 0.250000 0.137814
O O2 0.603263 0.070148 0.190036
O O3 0.774437 0.001453 0.123725
O O4 0.605993 0.122226 0.065974
O O5 0.263805 0.879593 0.269483
O O6 0.500000 0.500000 0.348549
O O7 0.422571 0.622275 0.442650
O O8 0.367483 0.721558 0.344168
O O9 0.750000 0.250000 0.500000
O O10 0.752389 0.002204 0.500000
O O11 0.750000 0.750000 0.500000
#
# Coordination Sequence:
#
# PCOD9495144 Si02
#       6
#    16   8  16   8   8   8
#     4   9  17  32  54  80 107 151 201 246 305 379
#     4  10  18  32  57  81 112 154 204 246 312 385
#     4  10  20  34  57  88 120 156 205 257 318 381
#     4  10  17  31  54  90 121 153 199 257 311 378
#     4  10  20  35  56  87 112 162 208 258 314 394
#     4   8  16  29  50  81 103 147 202 241 301 371
#
# _framework density 24.843060000000001
#
# number of rings (size 3 to 8) (size 9 to 14) (size 15 to 20)
#    0.000    2.500    2.500    0.375    0.000    0.000 
#    0.000   10.000    0.000    7.500    0.000    7.000 
#    0.000    0.000    0.000    0.000    0.000    0.000 
#
# Total GULP energy -178141.516060 kJ/mol
# GULP energy per Si atom -5566.922377 kJ/mol
# Density = 2.478652 g / cm^3
# Si number density = 24.843060 Si / 1000 Ang^3
#
#
#
# Elastic Constant Matrix: (Units=GPa)
#
#
# Indices 1 2 3 4 5 6 
#
# 1 30.9776 18.3946 12.2430 0.0000 0.0000 0.0000
# 2 18.3946 162.0313 43.2769 0.0000 0.0000 0.0000
# 3 12.2430 43.2769 199.2730 0.0000 0.0000 0.0000
# 4 0.0000 0.0000 0.0000 72.6147 0.0000 0.0000
# 5 0.0000 0.0000 0.0000 0.0000 -77.6633 0.0000
# 6 0.0000 0.0000 0.0000 0.0000 0.0000 37.6596
#
#
#
# Elastic Compliance Matrix: (Units=1/GPa)
#
#
# Indices 1 2 3 4 5 6 
#
# 1 0.034961 -0.003604 -0.001365 0.000000 0.000000 0.000000
# 2 -0.003604 0.006923 -0.001282 0.000000 0.000000 0.000000
# 3 -0.001365 -0.001282 0.005381 0.000000 0.000000 0.000000
# 4 0.000000 0.000000 0.000000 0.013771 0.000000 0.000000
# 5 0.000000 0.000000 0.000000 0.000000 -0.012876 0.000000
# 6 0.000000 0.000000 0.000000 0.000000 0.000000 0.026554
#
#
# Mechanical properties :
#
#
# Convention : Reuss Voigt Hill
#
# Bulk Modulus (GPa) = 28.76727 60.01231 44.38979
# Shear Modulus (GPa) = 50.60504 27.74669 39.17587
#
# Velocity S-wave (km/s) = 4.51820 3.34560 3.97537
# Velocity P-wave (km/s) = 6.23086 6.25564 6.24326
#
# Compressibility (1/GPa) = 0.03476173
#
# Stress axis : x y z
#
# Youngs Moduli (GPa) = 28.60317 144.44047 185.85441
#
# Poissons Ratio (x) = 0.52061 0.25373
# Poissons Ratio (y) = 0.10310 0.23829
# Poissons Ratio (z) = 0.03905 0.18519
#
# Static dielectric constant tensor:
#      x y z
#    x 2.094800 0.000000 0.000000 
#    y 0.000000 1.904620 0.000000 
#    z 0.000000 0.000000 2.186710 
# 
# From -- ./inp_files/56393.got.cif
#   From: 2010.05.17/outbox.cif.g08.bks.cpg/sg66_29_cif.got.tgz:56393.got - 2010.06.03 17:51:23.
