data_PCOD9495919
_publ_section_title
;
Structure prediction by ZEFSAII (Michael W. Deem and Ramdas Pophale) SiO2 
 PCOD9495919
Probable space group: C C C M
;
_chemical_formula_sum "Si O2"
_cell_formula_units_Z 116
_cell_length_a 20.650236
_cell_length_b 14.448939
_cell_length_c 24.006265
_cell_angle_alpha 90.000000
_cell_angle_beta 90.000000
_cell_angle_gamma 90.000000
_cell_volume 7162.845320
_symmetry_space_group_name_H-M "C C C M"
_symmetry_group_IT_number 66
_symmetry_cell_setting 'orthorhombic'
loop_
_space_group_symop_operation_xyz
x,y,z
-x,-y,z
x,-y,1/2-z
-x,y,1/2-z
-x,-y,-z
x,y,-z
-x,y,1/2+z
x,-y,1/2+z
1/2+x,1/2+y,z
1/2-x,1/2-y,z
1/2+x,1/2-y,1/2-z
1/2-x,1/2+y,1/2-z
1/2-x,1/2-y,-z
1/2+x,1/2+y,-z
1/2-x,1/2+y,1/2+z
1/2+x,1/2-y,1/2+z
loop_
_atom_site_type_symbol
_atom_site_label
_atom_site_fract_x
_atom_site_fract_y
_atom_site_fract_z
Si Si1 0.282879 0.647994 0.436552
Si Si2 0.385583 0.287329 0.149202
Si Si3 0.823657 0.582412 0.856585
Si Si4 0.526072 0.732420 0.685649
Si Si5 0.870471 0.103582 0.764443
Si Si6 0.104962 0.402127 0.326922
Si Si7 0.500000 0.000000 0.250000
Si Si8 0.732492 0.856865 0.258009
O O1 0.295342 0.619832 0.500000
O O2 0.250000 0.750000 0.437289
O O3 0.346929 0.659903 0.399208
O O4 0.229377 0.586619 0.405115
O O5 0.364182 0.179057 0.145834
O O6 0.462865 0.291617 0.150430
O O7 0.366821 0.335263 0.207812
O O8 0.868436 0.491503 0.860008
O O9 0.784945 0.587212 0.798010
O O10 0.500000 0.756030 0.750000
O O11 0.576404 0.650354 0.696777
O O12 0.566390 0.811750 0.653355
O O13 0.797041 0.104018 0.786810
O O14 0.889984 0.000000 0.750000
O O15 0.167989 0.363979 0.294644
O O16 0.049749 0.442605 0.286791
O O17 0.750000 0.750000 0.245302
#
# Coordination Sequence:
#
# PCOD9495919 Si02
#       8
#    16  16  16  16  16  16   4  16
#     4   9  18  33  53  74  95 124 168 216 262 297
#     4  10  19  32  49  69 100 129 164 204 244 298
#     4  11  18  31  49  70  98 132 164 207 248 288
#     4  10  20  32  44  68 102 138 169 194 234 301
#     4  11  21  31  46  68 103 140 168 199 241 286
#     4  12  21  29  46  70 104 136 168 193 233 298
#     4  12  20  28  44  68 100 140 166 188 224 292
#     4  12  18  30  45  68 103 138 164 203 232 280
#
# _framework density 16.194680999999999
#
# number of rings (size 3 to 8) (size 9 to 14) (size 15 to 20)
#    0.000    1.241    6.207    2.897    0.000    2.483 
#    0.000    0.000    0.000    0.828    0.000    6.276 
#    0.000    1.931    0.000    0.000    0.000    0.000 
#
# Total GULP energy -323005.749814 kJ/mol
# GULP energy per Si atom -5569.064652 kJ/mol
# Density = 1.615782 g / cm^3
# Si number density = 16.194681 Si / 1000 Ang^3
#
#
#
# Elastic Constant Matrix: (Units=GPa)
#
#
# Indices 1 2 3 4 5 6 
#
# 1 142.7720 33.9058 37.9017 0.0000 0.0000 0.0000
# 2 33.9058 74.3164 2.1823 0.0000 0.0000 0.0000
# 3 37.9017 2.1823 45.0116 0.0000 0.0000 0.0000
# 4 0.0000 0.0000 0.0000 12.7105 0.0000 0.0000
# 5 0.0000 0.0000 0.0000 0.0000 15.2864 0.0000
# 6 0.0000 0.0000 0.0000 0.0000 0.0000 44.0974
#
#
#
# Elastic Compliance Matrix: (Units=1/GPa)
#
#
# Indices 1 2 3 4 5 6 
#
# 1 0.010309 -0.004455 -0.008465 0.000000 0.000000 0.000000
# 2 -0.004455 0.015400 0.003005 0.000000 0.000000 0.000000
# 3 -0.008465 0.003005 0.029199 0.000000 0.000000 0.000000
# 4 0.000000 0.000000 0.000000 0.078675 0.000000 0.000000
# 5 0.000000 0.000000 0.000000 0.000000 0.065417 0.000000
# 6 0.000000 0.000000 0.000000 0.000000 0.000000 0.022677
#
#
# Mechanical properties :
#
#
# Convention : Reuss Voigt Hill
#
# Bulk Modulus (GPa) = 28.50815 45.56441 37.03628
# Shear Modulus (GPa) = 19.74715 26.95953 23.35334
#
# Velocity S-wave (km/s) = 3.49572 4.08452 3.80154
# Velocity P-wave (km/s) = 5.82538 7.10217 6.49523
#
# Compressibility (1/GPa) = 0.03507768
#
# Stress axis : x y z
#
# Youngs Moduli (GPa) = 96.99974 64.93409 34.24823
#
# Poissons Ratio (x) = 0.28927 0.28991
# Poissons Ratio (y) = 0.43212 -0.10290
# Poissons Ratio (z) = 0.82109 -0.19510
#
# Static dielectric constant tensor:
#      x y z
#    x 1.564850 0.000000 0.000000 
#    y 0.000000 1.598280 0.000000 
#    z 0.000000 0.000000 1.519570 
# 
# From -- ./inp_files/65395.got.cif
#   From: 2010.05.17/outbox.cif.g08.bks.cpg/sg66_33_cif.got.tgz:65395.got - 2010.06.03 17:51:23.
