data_PCOD9495782
_publ_section_title
;
Structure prediction by ZEFSAII (Michael W. Deem and Ramdas Pophale) SiO2 
 PCOD9495782
Probable space group: C C C M
;
_chemical_formula_sum "Si O2"
_cell_formula_units_Z 96
_cell_length_a 17.462134
_cell_length_b 19.419707
_cell_length_c 16.694479
_cell_angle_alpha 90.000000
_cell_angle_beta 90.000000
_cell_angle_gamma 90.000000
_cell_volume 5661.256858
_symmetry_space_group_name_H-M "C C C M"
_symmetry_group_IT_number 66
_symmetry_cell_setting 'orthorhombic'
loop_
_space_group_symop_operation_xyz
x,y,z
-x,-y,z
x,-y,1/2-z
-x,y,1/2-z
-x,-y,-z
x,y,-z
-x,y,1/2+z
x,-y,1/2+z
1/2+x,1/2+y,z
1/2-x,1/2-y,z
1/2+x,1/2-y,1/2-z
1/2-x,1/2+y,1/2-z
1/2-x,1/2-y,-z
1/2+x,1/2+y,-z
1/2-x,1/2+y,1/2+z
1/2+x,1/2-y,1/2+z
loop_
_atom_site_type_symbol
_atom_site_label
_atom_site_fract_x
_atom_site_fract_y
_atom_site_fract_z
Si Si1 0.701287 0.910795 0.088956
Si Si2 0.101302 0.271941 0.910850
Si Si3 0.869442 0.536872 0.330531
Si Si4 0.836920 0.222002 0.245966
Si Si5 0.208120 0.075334 0.250334
Si Si6 0.953873 0.674483 0.333138
O O1 0.651095 0.841916 0.094500
O O2 0.762475 0.909916 0.160215
O O3 0.647391 0.976673 0.106700
O O4 0.734230 0.915493 0.000000
O O5 0.129290 0.227214 0.835922
O O6 0.013779 0.293664 0.895055
O O7 0.112194 0.242667 0.000000
O O8 0.901250 0.500000 0.250000
O O9 0.786384 0.566027 0.301769
O O10 0.919628 0.600936 0.357691
O O11 0.750000 0.250000 0.246896
O O12 0.836613 0.142185 0.220833
O O13 0.887393 0.271680 0.190182
O O14 0.169805 0.000000 0.250000
O O15 0.000000 0.663183 0.250000
#
# Coordination Sequence:
#
# PCOD9495782 Si02
#       6
#    16  16  16  16  16  16
#     4   9  17  28  43  68 101 132 157 183 227 289
#     4  10  21  32  45  72 105 132 156 190 242 293
#     4   9  16  27  43  65  95 129 163 195 227 273
#     4  11  17  31  54  76  91 124 166 203 241 277
#     4   9  17  30  48  73  98 118 153 204 246 279
#     4  10  19  30  46  67  96 130 165 202 236 279
#
# _framework density 16.957363999999998
#
# number of rings (size 3 to 8) (size 9 to 14) (size 15 to 20)
#    0.000    2.667    3.333    3.000    0.000    4.000 
#    0.000    1.667    0.000    9.000    0.000    1.167 
#    0.000    0.000    0.000    0.000    0.000    0.000 
#
# Total GULP energy -267507.930808 kJ/mol
# GULP energy per Si atom -5573.081892 kJ/mol
# Density = 1.691877 g / cm^3
# Si number density = 16.957364 Si / 1000 Ang^3
#
#
#
# Elastic Constant Matrix: (Units=GPa)
#
#
# Indices 1 2 3 4 5 6 
#
# 1 19.6214 14.4891 -6.7147 0.0000 0.0000 0.0000
# 2 14.4891 82.4470 -17.0313 0.0000 0.0000 0.0000
# 3 -6.7147 -17.0313 32.0676 0.0000 0.0000 0.0000
# 4 0.0000 0.0000 0.0000 8.7444 0.0000 0.0000
# 5 0.0000 0.0000 0.0000 0.0000 6.8731 0.0000
# 6 0.0000 0.0000 0.0000 0.0000 0.0000 17.0112
#
#
#
# Elastic Compliance Matrix: (Units=1/GPa)
#
#
# Indices 1 2 3 4 5 6 
#
# 1 0.060277 -0.008970 0.007858 0.000000 0.000000 0.000000
# 2 -0.008970 0.014959 0.006066 0.000000 0.000000 0.000000
# 3 0.007858 0.006066 0.036051 0.000000 0.000000 0.000000
# 4 0.000000 0.000000 0.000000 0.114359 0.000000 0.000000
# 5 0.000000 0.000000 0.000000 0.000000 0.145496 0.000000
# 6 0.000000 0.000000 0.000000 0.000000 0.000000 0.058785
#
#
# Mechanical properties :
#
#
# Convention : Reuss Voigt Hill
#
# Bulk Modulus (GPa) = 8.25115 12.84692 10.54904
# Shear Modulus (GPa) = 10.85972 16.08526 13.47249
#
# Velocity S-wave (km/s) = 2.53338 3.08323 2.82173
# Velocity P-wave (km/s) = 3.66521 4.50195 4.10495
#
# Compressibility (1/GPa) = 0.12119522
#
# Stress axis : x y z
#
# Youngs Moduli (GPa) = 16.58994 66.85159 27.73827
#
# Poissons Ratio (x) = 0.59965 -0.21796
# Poissons Ratio (y) = 0.14881 -0.16827
# Poissons Ratio (z) = -0.13036 -0.40554
#
# Static dielectric constant tensor:
#      x y z
#    x 1.578180 0.000000 0.000000 
#    y 0.000000 1.593120 0.000000 
#    z 0.000000 0.000000 1.588200 
# 
# From -- ./inp_files/41714.got.cif
#   From: 2010.05.17/outbox.cif.g08.bks.cpg/sg66_21_cif.got.tgz:41714.got - 2010.06.03 17:51:23.
