data_PCOD9495331
_publ_section_title
;
Structure prediction by ZEFSAII (Michael W. Deem and Ramdas Pophale) SiO2 
 PCOD9495331
Probable space group: C C C M
;
_chemical_formula_sum "Si O2"
_cell_formula_units_Z 80
_cell_length_a 19.722671
_cell_length_b 14.098333
_cell_length_c 17.196398
_cell_angle_alpha 90.000000
_cell_angle_beta 90.000000
_cell_angle_gamma 90.000000
_cell_volume 4781.575114
_symmetry_space_group_name_H-M "C C C M"
_symmetry_group_IT_number 66
_symmetry_cell_setting 'orthorhombic'
loop_
_space_group_symop_operation_xyz
x,y,z
-x,-y,z
x,-y,1/2-z
-x,y,1/2-z
-x,-y,-z
x,y,-z
-x,y,1/2+z
x,-y,1/2+z
1/2+x,1/2+y,z
1/2-x,1/2-y,z
1/2+x,1/2-y,1/2-z
1/2-x,1/2+y,1/2-z
1/2-x,1/2-y,-z
1/2+x,1/2+y,-z
1/2-x,1/2+y,1/2+z
1/2+x,1/2-y,1/2+z
loop_
_atom_site_type_symbol
_atom_site_label
_atom_site_fract_x
_atom_site_fract_y
_atom_site_fract_z
Si Si1 0.647746 0.982336 0.910270
Si Si2 0.396997 0.194832 0.410089
Si Si3 0.466144 0.859003 0.329870
Si Si4 0.142932 0.237566 0.752328
Si Si5 0.752874 0.596702 0.202725
O O1 0.585892 0.935976 0.862761
O O2 0.716808 0.933862 0.880399
O O3 0.644508 0.095919 0.901111
O O4 0.636680 0.960886 0.000000
O O5 0.390109 0.226558 0.500000
O O6 0.474860 0.167205 0.390192
O O7 0.373891 0.263958 0.339856
O O8 0.500000 0.893287 0.250000
O O9 0.422719 0.767790 0.301800
O O10 0.194589 0.325620 0.764132
O O11 0.180378 0.146202 0.787013
O O12 0.755924 0.500000 0.250000
#
# Coordination Sequence:
#
# PCOD9495331 Si02
#       5
#    16  16  16  16  16
#     4  10  19  30  47  77 105 132 166 209 264 307
#     4  10  18  30  48  75 105 129 162 214 263 302
#     4   9  18  29  47  71 103 138 170 203 251 308
#     4   9  19  32  49  75  96 135 177 201 250 307
#     4  10  18  34  52  68  99 136 171 211 246 299
#
# _framework density 16.730889000000001
#
# number of rings (size 3 to 8) (size 9 to 14) (size 15 to 20)
#    0.000    2.400    2.000    1.200    0.000    4.000 
#    0.000   12.000    0.000    5.400    0.000    1.400 
#    0.000    0.000    0.000    0.000    0.000    0.000 
#
# Total GULP energy -222775.764535 kJ/mol
# GULP energy per Si atom -5569.394113 kJ/mol
# Density = 1.669281 g / cm^3
# Si number density = 16.730889 Si / 1000 Ang^3
#
#
#
# Elastic Constant Matrix: (Units=GPa)
#
#
# Indices 1 2 3 4 5 6 
#
# 1 49.3622 17.2083 24.6631 0.0000 0.0000 0.0000
# 2 17.2083 39.5722 10.7629 0.0000 0.0000 0.0000
# 3 24.6631 10.7629 91.6935 0.0000 0.0000 0.0000
# 4 0.0000 0.0000 0.0000 13.8955 0.0000 0.0000
# 5 0.0000 0.0000 0.0000 0.0000 18.7988 0.0000
# 6 0.0000 0.0000 0.0000 0.0000 0.0000 12.1027
#
#
#
# Elastic Compliance Matrix: (Units=1/GPa)
#
#
# Indices 1 2 3 4 5 6 
#
# 1 0.026752 -0.009995 -0.006022 0.000000 0.000000 0.000000
# 2 -0.009995 0.029838 -0.000814 0.000000 0.000000 0.000000
# 3 -0.006022 -0.000814 0.012621 0.000000 0.000000 0.000000
# 4 0.000000 0.000000 0.000000 0.071966 0.000000 0.000000
# 5 0.000000 0.000000 0.000000 0.000000 0.053195 0.000000
# 6 0.000000 0.000000 0.000000 0.000000 0.000000 0.082626
#
#
# Mechanical properties :
#
#
# Convention : Reuss Voigt Hill
#
# Bulk Modulus (GPa) = 28.13077 31.76629 29.94853
# Shear Modulus (GPa) = 15.50336 17.49230 16.49783
#
# Velocity S-wave (km/s) = 3.04736 3.23694 3.14358
# Velocity P-wave (km/s) = 5.40667 5.74441 5.57810
#
# Compressibility (1/GPa) = 0.03554827
#
# Stress axis : x y z
#
# Youngs Moduli (GPa) = 37.38055 33.51407 79.23135
#
# Poissons Ratio (x) = 0.33498 0.47715
# Poissons Ratio (y) = 0.37363 0.06449
# Poissons Ratio (z) = 0.22512 0.02728
#
# Static dielectric constant tensor:
#      x y z
#    x 1.601790 0.000000 0.000000 
#    y 0.000000 1.554090 0.000000 
#    z 0.000000 0.000000 1.574460 
# 
# From -- ./inp_files/28122.got.cif
#   From: 2010.05.17/outbox.cif.g08.bks.cpg/sg66_15_cif.got.tgz:28122.got - 2010.06.03 17:51:23.
