data_PCOD9495709
_publ_section_title
;
Structure prediction by ZEFSAII (Michael W. Deem and Ramdas Pophale) SiO2 
 PCOD9495709
Probable space group: C C C M
;
_chemical_formula_sum "Si O2"
_cell_formula_units_Z 104
_cell_length_a 19.617886
_cell_length_b 7.610451
_cell_length_c 33.739787
_cell_angle_alpha 90.000000
_cell_angle_beta 90.000000
_cell_angle_gamma 90.000000
_cell_volume 5037.382594
_symmetry_space_group_name_H-M "C C C M"
_symmetry_group_IT_number 66
_symmetry_cell_setting 'orthorhombic'
loop_
_space_group_symop_operation_xyz
x,y,z
-x,-y,z
x,-y,1/2-z
-x,y,1/2-z
-x,-y,-z
x,y,-z
-x,y,1/2+z
x,-y,1/2+z
1/2+x,1/2+y,z
1/2-x,1/2-y,z
1/2+x,1/2-y,1/2-z
1/2-x,1/2+y,1/2-z
1/2-x,1/2-y,-z
1/2+x,1/2+y,-z
1/2-x,1/2+y,1/2+z
1/2+x,1/2-y,1/2+z
loop_
_atom_site_type_symbol
_atom_site_label
_atom_site_fract_x
_atom_site_fract_y
_atom_site_fract_z
Si Si1 0.000000 0.000000 0.677181
Si Si2 0.000000 0.500000 0.429445
Si Si3 0.687322 0.000000 0.250000
Si Si4 0.755322 0.535284 0.334095
Si Si5 0.881746 0.036724 0.374882
Si Si6 0.936347 0.299106 0.221262
Si Si7 0.395890 0.113872 0.364087
Si Si8 0.439385 0.641210 0.455997
O O1 0.948401 0.108327 0.648974
O O2 0.949134 0.894920 0.705238
O O3 0.061472 0.457756 0.399922
O O4 0.024487 0.669672 0.453178
O O5 0.730836 0.976572 0.210683
O O6 0.634315 0.160861 0.242992
O O7 0.750000 0.750000 0.332109
O O8 0.690208 0.441346 0.353048
O O9 0.823708 0.516943 0.359900
O O10 0.889774 0.823396 0.372826
O O11 0.888460 0.107477 0.419360
O O12 0.929941 0.404073 0.179605
O O13 0.000000 0.331185 0.250000
O O14 0.500000 0.500000 0.450826
O O15 0.409306 0.618436 0.500000
#
# Coordination Sequence:
#
# PCOD9495709 Si02
#       8
#     8   8   8  16  16  16  16  16
#     4  10  19  36  59  86 112 166 208 258 321 371
#     4  12  21  38  65  94 134 160 210 258 323 392
#     4  10  21  38  54  85 120 164 212 268 310 367
#     4   9  20  39  61  83 124 171 218 262 318 377
#     4  10  18  42  62  88 122 162 214 255 317 388
#     4  10  20  34  55  84 121 154 207 268 312 352
#     4   9  20  35  61  89 120 173 209 258 314 377
#     4  11  22  39  66 100 130 157 199 264 327 392
#
# _framework density 20.645641999999999
#
# number of rings (size 3 to 8) (size 9 to 14) (size 15 to 20)
#    0.000    2.000    2.308    2.538    4.308    0.000 
#   11.077    0.769    0.000    6.923    0.000    0.000 
#    0.000    0.000    0.000    0.000    0.000    0.000 
#
# Total GULP energy -290253.649700 kJ/mol
# GULP energy per Si atom -5581.800956 kJ/mol
# Density = 2.059865 g / cm^3
# Si number density = 20.645642 Si / 1000 Ang^3
#
#
#
# Elastic Constant Matrix: (Units=GPa)
#
#
# Indices 1 2 3 4 5 6 
#
# 1 121.6256 14.6598 73.6384 0.0000 0.0000 0.0000
# 2 14.6598 56.5699 28.1982 0.0000 0.0000 0.0000
# 3 73.6384 28.1982 157.4644 0.0000 0.0000 0.0000
# 4 0.0000 0.0000 0.0000 -62.1386 0.0000 0.0000
# 5 0.0000 0.0000 0.0000 0.0000 37.4951 0.0000
# 6 0.0000 0.0000 0.0000 0.0000 0.0000 152.3997
#
#
#
# Elastic Compliance Matrix: (Units=1/GPa)
#
#
# Indices 1 2 3 4 5 6 
#
# 1 0.011475 -0.000328 -0.005308 0.000000 0.000000 0.000000
# 2 -0.000328 0.019419 -0.003324 0.000000 0.000000 0.000000
# 3 -0.005308 -0.003324 0.009428 0.000000 0.000000 0.000000
# 4 0.000000 0.000000 0.000000 -0.016093 0.000000 0.000000
# 5 0.000000 0.000000 0.000000 0.000000 0.026670 0.000000
# 6 0.000000 0.000000 0.000000 0.000000 0.000000 0.006562
#
#
# Mechanical properties :
#
#
# Convention : Reuss Voigt Hill
#
# Bulk Modulus (GPa) = 44.63736 63.18365 53.91050
# Shear Modulus (GPa) = 60.35155 40.16214 50.25684
#
# Velocity S-wave (km/s) = 5.41254 4.41535 4.93917
# Velocity P-wave (km/s) = 7.79284 7.52755 7.66135
#
# Compressibility (1/GPa) = 0.02240276
#
# Stress axis : x y z
#
# Youngs Moduli (GPa) = 87.14639 51.49540 106.06725
#
# Poissons Ratio (x) = 0.01689 0.56295
# Poissons Ratio (y) = 0.02859 0.35258
# Poissons Ratio (z) = 0.46253 0.17118
#
# Static dielectric constant tensor:
#      x y z
#    x 1.786170 0.000000 0.000000 
#    y 0.000000 1.863900 0.000000 
#    z 0.000000 0.000000 1.554190 
# 
# From -- ./inp_files/70230.got.cif
#   From: 2010.05.17/outbox.cif.g08.bks.cpg/sg66_36_cif.got.tgz:70230.got - 2010.06.03 17:51:23.
