data_PCOD9495365
_publ_section_title
;
Structure prediction by ZEFSAII (Michael W. Deem and Ramdas Pophale) SiO2 
 PCOD9495365
Probable space group: C C C M
;
_chemical_formula_sum "Si O2"
_cell_formula_units_Z 84
_cell_length_a 22.386900
_cell_length_b 11.096437
_cell_length_c 18.384965
_cell_angle_alpha 90.000000
_cell_angle_beta 90.000000
_cell_angle_gamma 90.000000
_cell_volume 4567.097872
_symmetry_space_group_name_H-M "C C C M"
_symmetry_group_IT_number 66
_symmetry_cell_setting 'orthorhombic'
loop_
_space_group_symop_operation_xyz
x,y,z
-x,-y,z
x,-y,1/2-z
-x,y,1/2-z
-x,-y,-z
x,y,-z
-x,y,1/2+z
x,-y,1/2+z
1/2+x,1/2+y,z
1/2-x,1/2-y,z
1/2+x,1/2-y,1/2-z
1/2-x,1/2+y,1/2-z
1/2-x,1/2-y,-z
1/2+x,1/2+y,-z
1/2-x,1/2+y,1/2+z
1/2+x,1/2-y,1/2+z
loop_
_atom_site_type_symbol
_atom_site_label
_atom_site_fract_x
_atom_site_fract_y
_atom_site_fract_z
Si Si1 0.485131 0.357249 0.082543
Si Si2 0.578718 0.809675 0.662943
Si Si3 0.288303 0.133062 0.341730
Si Si4 0.000000 0.500000 0.750000
Si Si5 0.104138 0.878956 0.288666
Si Si6 0.256854 0.380459 0.824068
O O1 0.500000 0.500000 0.084550
O O2 0.539600 0.272365 0.108710
O O3 0.432034 0.343776 0.139969
O O4 0.468765 0.326439 0.000000
O O5 0.643129 0.853056 0.635234
O O6 0.595452 0.724232 0.730201
O O7 0.540266 0.917225 0.697461
O O8 0.250000 0.250000 0.365819
O O9 0.279369 0.130446 0.252965
O O10 0.264441 0.001301 0.363971
O O11 0.173569 0.897370 0.305782
O O12 0.080310 0.000000 0.250000
O O13 0.250000 0.250000 0.861042
#
# Coordination Sequence:
#
# PCOD9495365 Si02
#       6
#    16  16  16   4  16  16
#     4  11  25  40  58  85 121 163 203 249 309 369
#     4  12  22  36  59  87 125 152 202 252 301 359
#     4  10  18  31  50  85 119 145 182 245 306 358
#     4  12  24  32  56  96 112 160 198 256 284 356
#     4  12  19  35  63  89 114 149 194 262 309 351
#     4  10  18  30  52  90 120 143 184 249 315 350
#
# _framework density 18.392423000000001
#
# number of rings (size 3 to 8) (size 9 to 14) (size 15 to 20)
#    0.000    0.952    9.524    1.143    0.000    0.000 
#    0.000    0.476    0.000    2.286    0.000    0.000 
#    0.000    0.000    0.000    0.000    0.000    0.000 
#
# Total GULP energy -234270.346146 kJ/mol
# GULP energy per Si atom -5577.865384 kJ/mol
# Density = 1.835056 g / cm^3
# Si number density = 18.392423 Si / 1000 Ang^3
#
#
#
# Elastic Constant Matrix: (Units=GPa)
#
#
# Indices 1 2 3 4 5 6 
#
# 1 112.0694 48.9150 25.7839 0.0000 0.0000 0.0000
# 2 48.9150 159.1388 10.4627 0.0000 0.0000 0.0000
# 3 25.7839 10.4627 54.1343 0.0000 0.0000 0.0000
# 4 0.0000 0.0000 0.0000 -25.5402 0.0000 0.0000
# 5 0.0000 0.0000 0.0000 0.0000 -8.7668 0.0000
# 6 0.0000 0.0000 0.0000 0.0000 0.0000 32.6239
#
#
#
# Elastic Compliance Matrix: (Units=1/GPa)
#
#
# Indices 1 2 3 4 5 6 
#
# 1 0.011428 -0.003195 -0.004825 0.000000 0.000000 0.000000
# 2 -0.003195 0.007258 0.000119 0.000000 0.000000 0.000000
# 3 -0.004825 0.000119 0.020748 0.000000 0.000000 0.000000
# 4 0.000000 0.000000 0.000000 -0.039154 0.000000 0.000000
# 5 0.000000 0.000000 0.000000 0.000000 -0.114067 0.000000
# 6 0.000000 0.000000 0.000000 0.000000 0.000000 0.030652
#
#
# Mechanical properties :
#
#
# Convention : Reuss Voigt Hill
#
# Bulk Modulus (GPa) = 42.31812 55.07397 48.69605
# Shear Modulus (GPa) = -84.09839 15.67544 -34.21148
#
# Velocity S-wave (km/s) = -6.76932 2.92255 -4.31755
# Velocity P-wave (km/s) = 6.16765 6.43407 1.29562
#
# Compressibility (1/GPa) = 0.02363054
#
# Stress axis : x y z
#
# Youngs Moduli (GPa) = 87.50484 137.77586 48.19759
#
# Poissons Ratio (x) = 0.44025 0.23258
# Poissons Ratio (y) = 0.27961 -0.00574
# Poissons Ratio (z) = 0.42225 -0.01641
#
# Static dielectric constant tensor:
#      x y z
#    x 1.743950 0.000000 0.000000 
#    y 0.000000 1.704310 0.000000 
#    z 0.000000 0.000000 1.589690 
# 
# From -- ./inp_files/51798.got.cif
#   From: 2010.05.17/outbox.cif.g08.bks.cpg/sg66_26_cif.got.tgz:51798.got - 2010.06.03 17:51:23.
