data_PCOD9495591
_publ_section_title
;
Structure prediction by ZEFSAII (Michael W. Deem and Ramdas Pophale) SiO2 
 PCOD9495591
Probable space group: C C C M
;
_chemical_formula_sum "Si O2"
_cell_formula_units_Z 96
_cell_length_a 8.738735
_cell_length_b 18.490734
_cell_length_c 32.070075
_cell_angle_alpha 90.000000
_cell_angle_beta 90.000000
_cell_angle_gamma 90.000000
_cell_volume 5182.063093
_symmetry_space_group_name_H-M "C C C M"
_symmetry_group_IT_number 66
_symmetry_cell_setting 'orthorhombic'
loop_
_space_group_symop_operation_xyz
x,y,z
-x,-y,z
x,-y,1/2-z
-x,y,1/2-z
-x,-y,-z
x,y,-z
-x,y,1/2+z
x,-y,1/2+z
1/2+x,1/2+y,z
1/2-x,1/2-y,z
1/2+x,1/2-y,1/2-z
1/2-x,1/2+y,1/2-z
1/2-x,1/2-y,-z
1/2+x,1/2+y,-z
1/2-x,1/2+y,1/2+z
1/2+x,1/2-y,1/2+z
loop_
_atom_site_type_symbol
_atom_site_label
_atom_site_fract_x
_atom_site_fract_y
_atom_site_fract_z
Si Si1 0.224415 0.936146 0.380040
Si Si2 0.194583 0.677882 0.176727
Si Si3 0.333880 0.461158 0.545986
Si Si4 0.569539 0.660143 0.600500
Si Si5 0.181870 0.516655 0.796156
Si Si6 0.100069 0.293304 0.872945
O O1 0.343323 0.871020 0.388354
O O2 0.058157 0.897521 0.383327
O O3 0.244278 0.996583 0.415751
O O4 0.246729 0.972230 0.334807
O O5 0.250000 0.750000 0.200003
O O6 0.300755 0.671370 0.135311
O O7 0.206727 0.601663 0.198331
O O8 0.020934 0.691400 0.163075
O O9 0.500000 0.500000 0.543386
O O10 0.263110 0.466788 0.500000
O O11 0.360226 0.378554 0.560224
O O12 0.483951 0.737126 0.595716
O O13 0.240708 0.500000 0.750000
O O14 0.000000 0.500000 0.797648
O O15 0.250000 0.250000 0.858078
#
# Coordination Sequence:
#
# PCOD9495591 Si02
#       6
#    16  16  16  16  16  16
#     4  10  18  34  55  80 111 145 188 230 284 334
#     4  10  19  35  57  81 111 148 186 228 286 338
#     4   9  17  30  53  83 113 145 185 231 285 345
#     4   9  18  32  55  81 110 146 183 226 284 342
#     4  11  22  36  58  83 112 152 190 236 285 342
#     4   9  18  32  54  80 106 149 186 227 279 341
#
# _framework density 18.52544
#
# number of rings (size 3 to 8) (size 9 to 14) (size 15 to 20)
#    0.000    2.333    3.333    0.000    0.000    0.000 
#    0.000    5.000    0.000   14.000    0.000    0.000 
#    0.000    0.000    0.000    0.000    0.000    0.000 
#
# Total GULP energy -267327.560225 kJ/mol
# GULP energy per Si atom -5569.324171 kJ/mol
# Density = 1.848327 g / cm^3
# Si number density = 18.525440 Si / 1000 Ang^3
#
#
#
# Elastic Constant Matrix: (Units=GPa)
#
#
# Indices 1 2 3 4 5 6 
#
# 1 51.7278 25.2456 19.2426 0.0000 0.0000 0.0000
# 2 25.2456 146.7533 61.3309 0.0000 0.0000 0.0000
# 3 19.2426 61.3309 117.8233 0.0000 0.0000 0.0000
# 4 0.0000 0.0000 0.0000 15.6662 0.0000 0.0000
# 5 0.0000 0.0000 0.0000 0.0000 10.2969 0.0000
# 6 0.0000 0.0000 0.0000 0.0000 0.0000 18.4143
#
#
#
# Elastic Compliance Matrix: (Units=1/GPa)
#
#
# Indices 1 2 3 4 5 6 
#
# 1 0.021475 -0.002848 -0.002025 0.000000 0.000000 0.000000
# 2 -0.002848 0.009086 -0.004265 0.000000 0.000000 0.000000
# 3 -0.002025 -0.004265 0.011038 0.000000 0.000000 0.000000
# 4 0.000000 0.000000 0.000000 0.063832 0.000000 0.000000
# 5 0.000000 0.000000 0.000000 0.000000 0.097117 0.000000
# 6 0.000000 0.000000 0.000000 0.000000 0.000000 0.054306
#
#
# Mechanical properties :
#
#
# Convention : Reuss Voigt Hill
#
# Bulk Modulus (GPa) = 42.87345 58.66026 50.76686
# Shear Modulus (GPa) = 17.67389 22.90783 20.29086
#
# Velocity S-wave (km/s) = 3.09209 3.52029 3.31312
# Velocity P-wave (km/s) = 5.99511 6.94671 6.48838
#
# Compressibility (1/GPa) = 0.02332446
#
# Stress axis : x y z
#
# Youngs Moduli (GPa) = 46.56534 110.05495 90.59760
#
# Poissons Ratio (x) = 0.31345 0.18343
# Poissons Ratio (y) = 0.13263 0.38636
# Poissons Ratio (z) = 0.09428 0.46934
#
# Static dielectric constant tensor:
#      x y z
#    x 1.671990 0.000000 0.000000 
#    y 0.000000 1.683680 0.000000 
#    z 0.000000 0.000000 1.626090 
# 
# From -- ./inp_files/62564.got.cif
#   From: 2010.05.17/outbox.cif.g08.bks.cpg/sg66_32_cif.got.tgz:62564.got - 2010.06.03 17:51:23.
