data_PCOD9495021
_publ_section_title
;
Structure prediction by ZEFSAII (Michael W. Deem and Ramdas Pophale) SiO2 
 PCOD9495021
Probable space group: C C C M
;
_chemical_formula_sum "Si O2"
_cell_formula_units_Z 80
_cell_length_a 13.729684
_cell_length_b 30.113420
_cell_length_c 8.545776
_cell_angle_alpha 90.000000
_cell_angle_beta 90.000000
_cell_angle_gamma 90.000000
_cell_volume 3533.231780
_symmetry_space_group_name_H-M "C C C M"
_symmetry_group_IT_number 66
_symmetry_cell_setting 'orthorhombic'
loop_
_space_group_symop_operation_xyz
x,y,z
-x,-y,z
x,-y,1/2-z
-x,y,1/2-z
-x,-y,-z
x,y,-z
-x,y,1/2+z
x,-y,1/2+z
1/2+x,1/2+y,z
1/2-x,1/2-y,z
1/2+x,1/2-y,1/2-z
1/2-x,1/2+y,1/2-z
1/2-x,1/2-y,-z
1/2+x,1/2+y,-z
1/2-x,1/2+y,1/2+z
1/2+x,1/2-y,1/2+z
loop_
_atom_site_type_symbol
_atom_site_label
_atom_site_fract_x
_atom_site_fract_y
_atom_site_fract_z
Si Si1 0.897632 0.173067 0.319735
Si Si2 0.185949 0.550285 0.813269
Si Si3 0.900177 0.950241 0.187155
Si Si4 0.363424 0.236032 0.324057
Si Si5 0.680615 0.143145 0.310822
O O1 0.898758 0.161217 0.500000
O O2 0.897858 0.225976 0.293416
O O3 0.794466 0.153342 0.259501
O O4 0.000000 0.158570 0.250000
O O5 0.161352 0.500000 0.750000
O O6 0.296053 0.561461 0.757985
O O7 0.137850 0.595921 0.749134
O O8 0.179038 0.548244 0.000000
O O9 0.000000 0.929571 0.250000
O O10 0.905900 0.000000 0.250000
O O11 0.896495 0.948153 0.000000
O O12 0.404649 0.239848 0.500000
O O13 0.250000 0.250000 0.337229
O O14 0.373093 0.186473 0.258136
O O15 0.678775 0.143402 0.500000
#
# Coordination Sequence:
#
# PCOD9495021 Si02
#       5
#    16  16  16  16  16
#     4  10  20  33  51  74 101 130 161 201 245 292
#     4  11  21  33  47  64  88 120 160 204 246 285
#     4  10  17  27  40  54  73 101 139 183 230 275
#     4   9  17  31  51  73  97 126 160 197 242 296
#     4  10  20  34  50  70  97 130 167 204 247 295
#
# _framework density 22.642161999999999
#
# number of rings (size 3 to 8) (size 9 to 14) (size 15 to 20)
#    0.000    2.000    0.000    7.200    0.000    5.600 
#    0.000    2.000    0.000    0.000    0.000    0.000 
#    0.000    0.800    0.000    8.000    0.000    4.800 
#
# Total GULP energy -222852.657444 kJ/mol
# GULP energy per Si atom -5571.316436 kJ/mol
# Density = 2.259063 g / cm^3
# Si number density = 22.642162 Si / 1000 Ang^3
#
#
#
# Elastic Constant Matrix: (Units=GPa)
#
#
# Indices 1 2 3 4 5 6 
#
# 1 14.8267 -2.5512 -2.5020 0.0000 0.0000 0.0000
# 2 -2.5512 226.1265 41.0856 0.0000 0.0000 0.0000
# 3 -2.5020 41.0856 116.8977 0.0000 0.0000 0.0000
# 4 0.0000 0.0000 0.0000 -1.7290 0.0000 0.0000
# 5 0.0000 0.0000 0.0000 0.0000 16.4602 0.0000
# 6 0.0000 0.0000 0.0000 0.0000 0.0000 -2.2270
#
#
#
# Elastic Compliance Matrix: (Units=1/GPa)
#
#
# Indices 1 2 3 4 5 6 
#
# 1 0.067751 0.000535 0.001262 0.000000 0.000000 0.000000
# 2 0.000535 0.004728 -0.001650 0.000000 0.000000 0.000000
# 3 0.001262 -0.001650 0.009162 0.000000 0.000000 0.000000
# 4 0.000000 0.000000 0.000000 -0.578360 0.000000 0.000000
# 5 0.000000 0.000000 0.000000 0.000000 0.060753 0.000000
# 6 0.000000 0.000000 0.000000 0.000000 0.000000 -0.449025
#
#
# Mechanical properties :
#
#
# Convention : Reuss Voigt Hill
#
# Bulk Modulus (GPa) = 12.20492 47.76842 29.98667
# Shear Modulus (GPa) = -5.82768 23.95539 9.06385
#
# Velocity S-wave (km/s) = -1.60605 3.25622 2.00294
# Velocity P-wave (km/s) = 1.40102 5.93971 4.31527
#
# Compressibility (1/GPa) = 0.08193416
#
# Stress axis : x y z
#
# Youngs Moduli (GPa) = 14.75996 211.49712 109.15187
#
# Poissons Ratio (x) = -0.11316 -0.13776
# Poissons Ratio (y) = -0.00790 0.18014
# Poissons Ratio (z) = -0.01863 0.34904
#
# Static dielectric constant tensor:
#      x y z
#    x 1.936660 0.000000 0.000000 
#    y 0.000000 1.851100 0.000000 
#    z 0.000000 0.000000 1.771600 
# 
# From -- ./inp_files/6919.got.cif
#   From: 2010.05.17/outbox.cif.g08.bks.cpg/sg66_4_cif.got.tgz:6919.got - 2010.06.03 17:51:23.
