data_PCOD9495494
_publ_section_title
;
Structure prediction by ZEFSAII (Michael W. Deem and Ramdas Pophale) SiO2 
 PCOD9495494
Probable space group: C C C M
;
_chemical_formula_sum "Si O2"
_cell_formula_units_Z 96
_cell_length_a 16.860956
_cell_length_b 13.152034
_cell_length_c 21.935898
_cell_angle_alpha 90.000000
_cell_angle_beta 90.000000
_cell_angle_gamma 90.000000
_cell_volume 4864.414070
_symmetry_space_group_name_H-M "C C C M"
_symmetry_group_IT_number 66
_symmetry_cell_setting 'orthorhombic'
loop_
_space_group_symop_operation_xyz
x,y,z
-x,-y,z
x,-y,1/2-z
-x,y,1/2-z
-x,-y,-z
x,y,-z
-x,y,1/2+z
x,-y,1/2+z
1/2+x,1/2+y,z
1/2-x,1/2-y,z
1/2+x,1/2-y,1/2-z
1/2-x,1/2+y,1/2-z
1/2-x,1/2-y,-z
1/2+x,1/2+y,-z
1/2-x,1/2+y,1/2+z
1/2+x,1/2-y,1/2+z
loop_
_atom_site_type_symbol
_atom_site_label
_atom_site_fract_x
_atom_site_fract_y
_atom_site_fract_z
Si Si1 0.874603 0.556656 0.932049
Si Si2 0.388643 0.936729 0.189437
Si Si3 0.654570 0.736743 0.875625
Si Si4 0.316867 0.476082 0.069231
Si Si5 0.283289 0.639397 0.161905
Si Si6 0.414555 0.724994 0.756430
O O1 0.907499 0.492280 0.874548
O O2 0.881870 0.676826 0.919015
O O3 0.778927 0.540097 0.932137
O O4 0.903469 0.529447 0.000000
O O5 0.293373 0.920006 0.186741
O O6 0.424085 0.824735 0.200624
O O7 0.408261 0.000000 0.250000
O O8 0.750000 0.750000 0.872269
O O9 0.644011 0.622112 0.899264
O O10 0.618250 0.755974 0.809404
O O11 0.325063 0.577514 0.108422
O O12 0.344346 0.485482 0.000000
O O13 0.250000 0.750000 0.142134
O O14 0.346835 0.656788 0.214330
O O15 0.500000 0.675083 0.750000
#
# Coordination Sequence:
#
# PCOD9495494 Si02
#       6
#    16  16  16  16  16  16
#     4   9  17  30  53  87 116 139 176 230 283 331
#     4  10  18  34  59  86 109 142 180 228 281 331
#     4  10  18  32  56  81 111 143 182 231 281 330
#     4   9  18  31  54  83 108 141 182 233 282 331
#     4   9  20  34  55  81 109 140 186 229 282 330
#     4  11  23  36  52  80 112 148 188 228 280 329
#
# _framework density 19.735161999999999
#
# number of rings (size 3 to 8) (size 9 to 14) (size 15 to 20)
#    0.000    2.333    1.667    2.000    4.667    2.667 
#    0.000    4.167    0.000    6.000    0.000    0.000 
#    0.000    0.000    0.000    0.000    0.000    0.000 
#
# Total GULP energy -267751.793180 kJ/mol
# GULP energy per Si atom -5578.162358 kJ/mol
# Density = 1.969024 g / cm^3
# Si number density = 19.735162 Si / 1000 Ang^3
#
#
#
# Elastic Constant Matrix: (Units=GPa)
#
#
# Indices 1 2 3 4 5 6 
#
# 1 53.6905 21.9115 17.1579 0.0000 0.0000 0.0000
# 2 21.9115 31.5421 46.7487 0.0000 0.0000 0.0000
# 3 17.1579 46.7487 144.6039 0.0000 0.0000 0.0000
# 4 0.0000 0.0000 0.0000 30.6916 0.0000 0.0000
# 5 0.0000 0.0000 0.0000 0.0000 -14.6498 0.0000
# 6 0.0000 0.0000 0.0000 0.0000 0.0000 2.3658
#
#
#
# Elastic Compliance Matrix: (Units=1/GPa)
#
#
# Indices 1 2 3 4 5 6 
#
# 1 0.028285 -0.028175 0.005752 0.000000 0.000000 0.000000
# 2 -0.028175 0.088933 -0.025408 0.000000 0.000000 0.000000
# 3 0.005752 -0.025408 0.014447 0.000000 0.000000 0.000000
# 4 0.000000 0.000000 0.000000 0.032582 0.000000 0.000000
# 5 0.000000 0.000000 0.000000 0.000000 -0.068260 0.000000
# 6 0.000000 0.000000 0.000000 0.000000 0.000000 0.422692
#
#
# Mechanical properties :
#
#
# Convention : Reuss Voigt Hill
#
# Bulk Modulus (GPa) = 27.77404 44.60810 36.19107
# Shear Modulus (GPa) = 7.98287 13.28276 10.63281
#
# Velocity S-wave (km/s) = 2.01340 2.59714 2.32367
# Velocity P-wave (km/s) = 4.41690 5.62547 5.05741
#
# Compressibility (1/GPa) = 0.03600484
#
# Stress axis : x y z
#
# Youngs Moduli (GPa) = 35.35413 11.24442 69.21860
#
# Poissons Ratio (x) = 0.31681 -0.39817
# Poissons Ratio (y) = 0.99609 1.75870
# Poissons Ratio (z) = -0.20337 0.28570
#
# Static dielectric constant tensor:
#      x y z
#    x 1.681440 0.000000 0.000000 
#    y 0.000000 1.715680 0.000000 
#    z 0.000000 0.000000 1.685390 
# 
# From -- ./inp_files/58786.got.cif
#   From: 2010.05.17/outbox.cif.g08.bks.cpg/sg66_30_cif.got.tgz:58786.got - 2010.06.03 17:51:23.
