data_PCOD9495600
_publ_section_title
;
Structure prediction by ZEFSAII (Michael W. Deem and Ramdas Pophale) SiO2 
 PCOD9495600
Probable space group: C C C M
;
_chemical_formula_sum "Si O2"
_cell_formula_units_Z 80
_cell_length_a 16.084209
_cell_length_b 13.902688
_cell_length_c 14.277210
_cell_angle_alpha 90.000000
_cell_angle_beta 90.000000
_cell_angle_gamma 90.000000
_cell_volume 3192.580317
_symmetry_space_group_name_H-M "C C C M"
_symmetry_group_IT_number 66
_symmetry_cell_setting 'orthorhombic'
loop_
_space_group_symop_operation_xyz
x,y,z
-x,-y,z
x,-y,1/2-z
-x,y,1/2-z
-x,-y,-z
x,y,-z
-x,y,1/2+z
x,-y,1/2+z
1/2+x,1/2+y,z
1/2-x,1/2-y,z
1/2+x,1/2-y,1/2-z
1/2-x,1/2+y,1/2-z
1/2-x,1/2-y,-z
1/2+x,1/2+y,-z
1/2-x,1/2+y,1/2+z
1/2+x,1/2-y,1/2+z
loop_
_atom_site_type_symbol
_atom_site_label
_atom_site_fract_x
_atom_site_fract_y
_atom_site_fract_z
Si Si1 0.239487 0.865887 0.895075
Si Si2 0.785317 0.141220 0.395316
Si Si3 0.595892 0.864377 0.697785
Si Si4 0.396176 0.944488 0.603564
Si Si5 0.090334 0.141297 0.278951
O O1 0.250000 0.750000 0.903025
O O2 0.304338 0.880719 0.811111
O O3 0.148990 0.900140 0.861163
O O4 0.259198 0.900821 0.000000
O O5 0.821737 0.129575 0.500000
O O6 0.750000 0.250000 0.389355
O O7 0.704019 0.072775 0.390130
O O8 0.852758 0.134513 0.313684
O O9 0.571372 0.890460 0.803821
O O10 0.578426 0.752384 0.686481
O O11 0.575746 0.945049 0.619798
O O12 0.418675 0.909605 0.500000
O O13 0.000000 0.105068 0.250000
#
# Coordination Sequence:
#
# PCOD9495600 Si02
#       5
#    16  16  16  16  16
#     4   9  17  32  53  76 105 142 187 234 272 318
#     4  10  18  34  58  79 102 139 193 239 269 314
#     4  10  19  34  55  81 108 142 188 233 274 326
#     4  10  19  32  57  83 104 136 185 240 278 313
#     4  11  21  34  52  81 119 151 180 219 280 344
#
# _framework density 25.058102000000002
#
# number of rings (size 3 to 8) (size 9 to 14) (size 15 to 20)
#    0.000    2.000    4.000    1.200    0.000    1.600 
#    0.000    2.000    0.000    3.600    0.000    4.200 
#    0.000    0.000    0.000    0.000    0.000    0.000 
#
# Total GULP energy -223285.057676 kJ/mol
# GULP energy per Si atom -5582.126442 kJ/mol
# Density = 2.500107 g / cm^3
# Si number density = 25.058102 Si / 1000 Ang^3
#
#
#
# Elastic Constant Matrix: (Units=GPa)
#
#
# Indices 1 2 3 4 5 6 
#
# 1 123.1645 -1.9208 29.1468 0.0000 0.0000 0.0000
# 2 -1.9208 102.8256 9.9901 0.0000 0.0000 0.0000
# 3 29.1468 9.9901 165.9982 0.0000 0.0000 0.0000
# 4 0.0000 0.0000 0.0000 22.2391 0.0000 0.0000
# 5 0.0000 0.0000 0.0000 0.0000 33.0621 0.0000
# 6 0.0000 0.0000 0.0000 0.0000 0.0000 24.1783
#
#
#
# Elastic Compliance Matrix: (Units=1/GPa)
#
#
# Indices 1 2 3 4 5 6 
#
# 1 0.008481 0.000305 -0.001507 0.000000 0.000000 0.000000
# 2 0.000305 0.009793 -0.000643 0.000000 0.000000 0.000000
# 3 -0.001507 -0.000643 0.006328 0.000000 0.000000 0.000000
# 4 0.000000 0.000000 0.000000 0.044966 0.000000 0.000000
# 5 0.000000 0.000000 0.000000 0.000000 0.030246 0.000000
# 6 0.000000 0.000000 0.000000 0.000000 0.000000 0.041359
#
#
# Mechanical properties :
#
#
# Convention : Reuss Voigt Hill
#
# Bulk Modulus (GPa) = 47.82247 51.82450 49.82349
# Shear Modulus (GPa) = 32.93065 39.54737 36.23901
#
# Velocity S-wave (km/s) = 3.62908 3.97700 3.80702
# Velocity P-wave (km/s) = 6.05693 6.46648 6.26505
#
# Compressibility (1/GPa) = 0.02091067
#
# Stress axis : x y z
#
# Youngs Moduli (GPa) = 117.91460 102.10993 158.03940
#
# Poissons Ratio (x) = -0.03113 0.23823
# Poissons Ratio (y) = -0.03595 0.10161
# Poissons Ratio (z) = 0.17775 0.06565
#
# Static dielectric constant tensor:
#      x y z
#    x 2.229100 0.000000 0.000000 
#    y 0.000000 2.152390 0.000000 
#    z 0.000000 0.000000 1.877610 
# 
# From -- ./inp_files/29963.got.cif
#   From: 2010.05.17/outbox.cif.g08.bks.cpg/sg66_15_cif.got.tgz:29963.got - 2010.06.03 17:51:23.
