data_PCOD9495532
_publ_section_title
;
Structure prediction by ZEFSAII (Michael W. Deem and Ramdas Pophale) SiO2 
 PCOD9495532
Probable space group: C C C M
;
_chemical_formula_sum "Si O2"
_cell_formula_units_Z 120
_cell_length_a 31.140321
_cell_length_b 15.272366
_cell_length_c 14.437413
_cell_angle_alpha 90.000000
_cell_angle_beta 90.000000
_cell_angle_gamma 90.000000
_cell_volume 6866.236980
_symmetry_space_group_name_H-M "C C C M"
_symmetry_group_IT_number 66
_symmetry_cell_setting 'orthorhombic'
loop_
_space_group_symop_operation_xyz
x,y,z
-x,-y,z
x,-y,1/2-z
-x,y,1/2-z
-x,-y,-z
x,y,-z
-x,y,1/2+z
x,-y,1/2+z
1/2+x,1/2+y,z
1/2-x,1/2-y,z
1/2+x,1/2-y,1/2-z
1/2-x,1/2+y,1/2-z
1/2-x,1/2-y,-z
1/2+x,1/2+y,-z
1/2-x,1/2+y,1/2+z
1/2+x,1/2-y,1/2+z
loop_
_atom_site_type_symbol
_atom_site_label
_atom_site_fract_x
_atom_site_fract_y
_atom_site_fract_z
Si Si1 0.000000 0.361913 0.250000
Si Si2 0.697617 0.408742 0.278398
Si Si3 0.564168 0.828387 0.893785
Si Si4 0.437056 0.960704 0.105792
Si Si5 0.728522 0.847383 0.895143
Si Si6 0.747628 0.855830 0.601208
Si Si7 0.148511 0.351399 0.605191
Si Si8 0.149662 0.267545 0.797257
O O1 0.027814 0.304430 0.179701
O O2 0.031773 0.418466 0.317138
O O3 0.676642 0.500000 0.250000
O O4 0.735683 0.412494 0.354829
O O5 0.723070 0.381339 0.186102
O O6 0.666244 0.331213 0.308415
O O7 0.608764 0.789498 0.858794
O O8 0.564993 0.934685 0.886958
O O9 0.555563 0.805274 0.000000
O O10 0.388874 0.923229 0.116051
O O11 0.451912 0.939338 0.000000
O O12 0.750000 0.750000 0.895614
O O13 0.687401 0.833697 0.830327
O O14 0.716165 0.869741 0.000000
O O15 0.762326 0.887050 0.500000
O O16 0.750000 0.750000 0.600028
O O17 0.697813 0.883185 0.613241
O O18 0.144827 0.315605 0.500000
O O19 0.141484 0.284427 0.688854
#
# Coordination Sequence:
#
# PCOD9495532 Si02
#       8
#     8  16  16  16  16  16  16  16
#     4  12  21  34  56  82 113 142 167 212 262 312
#     4  11  22  34  51  77 105 136 179 228 272 310
#     4  11  23  36  54  78 109 146 176 206 254 318
#     4  10  21  35  51  79 111 140 175 212 254 309
#     4   9  18  34  53  72 100 140 179 216 260 312
#     4  10  18  33  53  72  97 132 175 222 269 309
#     4  10  19  32  53  75 101 136 176 220 264 306
#     4  11  20  36  54  73 104 144 181 217 263 315
#
# _framework density 17.476821000000001
#
# number of rings (size 3 to 8) (size 9 to 14) (size 15 to 20)
#    0.000    1.600    4.000    2.400    0.000    3.200 
#    0.000    1.333    0.000    0.000    0.000    0.467 
#    0.000    1.067    0.000    0.000    0.000    0.000 
#
# Total GULP energy -334776.569106 kJ/mol
# GULP energy per Si atom -5579.609485 kJ/mol
# Density = 1.743704 g / cm^3
# Si number density = 17.476821 Si / 1000 Ang^3
#
#
#
# Elastic Constant Matrix: (Units=GPa)
#
#
# Indices 1 2 3 4 5 6 
#
# 1 87.2677 12.1575 41.6156 0.0000 0.0000 0.0000
# 2 12.1575 25.5031 15.2552 0.0000 0.0000 0.0000
# 3 41.6156 15.2552 128.5763 0.0000 0.0000 0.0000
# 4 0.0000 0.0000 0.0000 8.7477 0.0000 0.0000
# 5 0.0000 0.0000 0.0000 0.0000 26.3648 0.0000
# 6 0.0000 0.0000 0.0000 0.0000 0.0000 20.3856
#
#
#
# Elastic Compliance Matrix: (Units=1/GPa)
#
#
# Indices 1 2 3 4 5 6 
#
# 1 0.013967 -0.004256 -0.004016 0.000000 0.000000 0.000000
# 2 -0.004256 0.043503 -0.003784 0.000000 0.000000 0.000000
# 3 -0.004016 -0.003784 0.009526 0.000000 0.000000 0.000000
# 4 0.000000 0.000000 0.000000 0.114316 0.000000 0.000000
# 5 0.000000 0.000000 0.000000 0.000000 0.037929 0.000000
# 6 0.000000 0.000000 0.000000 0.000000 0.000000 0.049054
#
#
# Mechanical properties :
#
#
# Convention : Reuss Voigt Hill
#
# Bulk Modulus (GPa) = 23.31823 42.15597 32.73710
# Shear Modulus (GPa) = 16.30246 22.58754 19.44500
#
# Velocity S-wave (km/s) = 3.05750 3.59894 3.33921
# Velocity P-wave (km/s) = 5.08289 6.43764 5.79996
#
# Compressibility (1/GPa) = 0.04288490
#
# Stress axis : x y z
#
# Youngs Moduli (GPa) = 71.59815 22.98682 104.97425
#
# Poissons Ratio (x) = 0.09783 0.42153
# Poissons Ratio (y) = 0.30473 0.39722
# Poissons Ratio (z) = 0.28751 0.08698
#
# Static dielectric constant tensor:
#      x y z
#    x 1.609860 0.000000 0.000000 
#    y 0.000000 1.600250 0.000000 
#    z 0.000000 0.000000 1.641110 
# 
# From -- ./inp_files/34003.got.cif
#   From: 2010.05.17/outbox.cif.g08.bks.cpg/sg66_18_cif.got.tgz:34003.got - 2010.06.03 17:51:23.
