data_PCOD9495504
_publ_section_title
;
Structure prediction by ZEFSAII (Michael W. Deem and Ramdas Pophale) SiO2 
 PCOD9495504
Probable space group: C C C M
;
_chemical_formula_sum "Si O2"
_cell_formula_units_Z 112
_cell_length_a 11.562811
_cell_length_b 27.795389
_cell_length_c 15.710802
_cell_angle_alpha 90.000000
_cell_angle_beta 90.000000
_cell_angle_gamma 90.000000
_cell_volume 5049.339111
_symmetry_space_group_name_H-M "C C C M"
_symmetry_group_IT_number 66
_symmetry_cell_setting 'orthorhombic'
loop_
_space_group_symop_operation_xyz
x,y,z
-x,-y,z
x,-y,1/2-z
-x,y,1/2-z
-x,-y,-z
x,y,-z
-x,y,1/2+z
x,-y,1/2+z
1/2+x,1/2+y,z
1/2-x,1/2-y,z
1/2+x,1/2-y,1/2-z
1/2-x,1/2+y,1/2-z
1/2-x,1/2-y,-z
1/2+x,1/2+y,-z
1/2-x,1/2+y,1/2+z
1/2+x,1/2-y,1/2+z
loop_
_atom_site_type_symbol
_atom_site_label
_atom_site_fract_x
_atom_site_fract_y
_atom_site_fract_z
Si Si1 0.467276 0.341742 0.896570
Si Si2 0.109412 0.348019 0.902725
Si Si3 0.281169 0.693913 0.101280
Si Si4 0.876993 0.390617 0.103722
Si Si5 0.381349 0.250980 0.804018
Si Si6 0.313851 0.577038 0.598114
Si Si7 0.136695 0.496068 0.395692
O O1 0.594964 0.324898 0.867311
O O2 0.388333 0.298226 0.862949
O O3 0.427003 0.394995 0.866503
O O4 0.464220 0.342211 0.000000
O O5 0.110279 0.298745 0.853866
O O6 0.225566 0.378162 0.903330
O O7 0.009678 0.383888 0.871111
O O8 0.079742 0.335498 0.000000
O O9 0.250000 0.750000 0.106869
O O10 0.186963 0.656878 0.136659
O O11 0.284498 0.685390 0.000000
O O12 0.828116 0.441976 0.130030
O O13 0.872993 0.391827 0.000000
O O14 0.500000 0.252040 0.750000
O O15 0.250000 0.250000 0.767729
O O16 0.341609 0.562942 0.500000
O O17 0.234383 0.533913 0.634688
O O18 0.134975 0.501012 0.500000
O O19 0.000000 0.500000 0.370819
#
# Coordination Sequence:
#
# PCOD9495504 Si02
#       7
#    16  16  16  16  16  16  16
#     4  10  20  36  58  80 107 147 193 238 279 331
#     4  10  18  32  57  84 107 141 190 237 280 335
#     4   9  17  29  45  70 105 145 186 227 271 327
#     4   9  16  26  46  78 115 150 181 219 279 343
#     4  12  26  40  55  80 116 151 190 236 291 347
#     4   9  16  27  49  80 108 135 176 228 277 326
#     4   9  14  23  41  74 116 147 172 216 281 340
#
# _framework density 22.18112
#
# number of rings (size 3 to 8) (size 9 to 14) (size 15 to 20)
#    0.000    2.286    2.857    1.286    0.000    4.571 
#    0.000    0.714    0.000    4.714    0.000    2.000 
#    0.000    1.143    0.000    0.000    0.000    0.000 
#
# Total GULP energy -311981.519074 kJ/mol
# GULP energy per Si atom -5571.098555 kJ/mol
# Density = 2.213064 g / cm^3
# Si number density = 22.181120 Si / 1000 Ang^3
#
#
#
# Elastic Constant Matrix: (Units=GPa)
#
#
# Indices 1 2 3 4 5 6 
#
# 1 119.5519 40.1796 4.6060 0.0000 0.0000 0.0000
# 2 40.1796 137.7089 2.7672 0.0000 0.0000 0.0000
# 3 4.6060 2.7672 15.1702 0.0000 0.0000 0.0000
# 4 0.0000 0.0000 0.0000 -21.4919 0.0000 0.0000
# 5 0.0000 0.0000 0.0000 0.0000 4.4031 0.0000
# 6 0.0000 0.0000 0.0000 0.0000 0.0000 48.5833
#
#
#
# Elastic Compliance Matrix: (Units=1/GPa)
#
#
# Indices 1 2 3 4 5 6 
#
# 1 0.009357 -0.002683 -0.002352 0.000000 0.000000 0.000000
# 2 -0.002683 0.008058 -0.000655 0.000000 0.000000 0.000000
# 3 -0.002352 -0.000655 0.066752 0.000000 0.000000 0.000000
# 4 0.000000 0.000000 0.000000 -0.046529 0.000000 0.000000
# 5 0.000000 0.000000 0.000000 0.000000 0.227112 0.000000
# 6 0.000000 0.000000 0.000000 0.000000 0.000000 0.020583
#
#
# Mechanical properties :
#
#
# Convention : Reuss Voigt Hill
#
# Bulk Modulus (GPa) = 13.73864 40.83738 27.28801
# Shear Modulus (GPa) = 15.57757 21.29078 18.43418
#
# Velocity S-wave (km/s) = 2.65295 3.10152 2.88596
# Velocity P-wave (km/s) = 3.94861 5.59256 4.84088
#
# Compressibility (1/GPa) = 0.07278739
#
# Stress axis : x y z
#
# Youngs Moduli (GPa) = 106.87392 124.10598 14.98079
#
# Poissons Ratio (x) = 0.33295 0.03523
# Poissons Ratio (y) = 0.28672 0.00982
# Poissons Ratio (z) = 0.25132 0.08132
#
# Static dielectric constant tensor:
#      x y z
#    x 1.878860 0.000000 0.000000 
#    y 0.000000 1.845940 0.000000 
#    z 0.000000 0.000000 1.852640 
# 
# From -- ./inp_files/49159.got.cif
#   From: 2010.05.17/outbox.cif.g08.bks.cpg/sg66_25_cif.got.tgz:49159.got - 2010.06.03 17:51:23.
