data_PCOD9495611
_publ_section_title
;
Structure prediction by ZEFSAII (Michael W. Deem and Ramdas Pophale) SiO2 
 PCOD9495611
Probable space group: C C C M
;
_chemical_formula_sum "Si O2"
_cell_formula_units_Z 112
_cell_length_a 14.389696
_cell_length_b 22.865313
_cell_length_c 16.836683
_cell_angle_alpha 90.000000
_cell_angle_beta 90.000000
_cell_angle_gamma 90.000000
_cell_volume 5539.687991
_symmetry_space_group_name_H-M "C C C M"
_symmetry_group_IT_number 66
_symmetry_cell_setting 'orthorhombic'
loop_
_space_group_symop_operation_xyz
x,y,z
-x,-y,z
x,-y,1/2-z
-x,y,1/2-z
-x,-y,-z
x,y,-z
-x,y,1/2+z
x,-y,1/2+z
1/2+x,1/2+y,z
1/2-x,1/2-y,z
1/2+x,1/2-y,1/2-z
1/2-x,1/2+y,1/2-z
1/2-x,1/2-y,-z
1/2+x,1/2+y,-z
1/2-x,1/2+y,1/2+z
1/2+x,1/2-y,1/2+z
loop_
_atom_site_type_symbol
_atom_site_label
_atom_site_fract_x
_atom_site_fract_y
_atom_site_fract_z
Si Si1 0.887913 0.147698 0.406407
Si Si2 0.012371 0.251934 0.158337
Si Si3 0.414399 0.936752 0.407656
Si Si4 0.100791 0.018361 0.157825
Si Si5 0.410969 0.860177 0.903783
Si Si6 0.314166 0.818583 0.408360
Si Si7 0.787655 0.539345 0.595740
O O1 0.883724 0.133449 0.500000
O O2 0.972688 0.191459 0.388385
O O3 0.889766 0.087747 0.357361
O O4 0.793734 0.184505 0.387658
O O5 0.107035 0.288902 0.143948
O O6 0.000000 0.238385 0.250000
O O7 0.931770 0.296042 0.129448
O O8 0.436735 0.949094 0.500000
O O9 0.505124 0.903439 0.375995
O O10 0.335134 0.887659 0.406873
O O11 0.367523 0.994550 0.373017
O O12 0.101470 0.000000 0.250000
O O13 0.187686 0.984013 0.120566
O O14 0.000000 0.000000 0.124285
O O15 0.317609 0.894915 0.881182
O O16 0.417115 0.856107 0.000000
O O17 0.329391 0.798952 0.500000
O O18 0.792187 0.536764 0.500000
#
# Coordination Sequence:
#
# PCOD9495611 Si02
#       7
#    16  16  16  16  16  16  16
#     4  11  22  41  70  93 117 160 221 274 310 358
#     4  11  23  35  57  90 132 168 199 250 318 384
#     4   8  13  26  52  86 119 154 196 244 299 359
#     4  11  26  43  63  89 123 159 200 268 331 381
#     4   9  18  33  55  85 126 166 201 243 296 376
#     4   9  17  34  61  93 123 156 214 271 307 361
#     4  10  18  34  60  88 119 160 207 250 304 375
#
# _framework density 20.217745000000001
#
# number of rings (size 3 to 8) (size 9 to 14) (size 15 to 20)
#    0.000    2.143    1.429    3.429    2.000    5.143 
#    0.000    0.000    0.000    0.000    0.000    3.000 
#    0.000    0.000    0.000    0.000    0.000    0.000 
#
# Total GULP energy -312201.729086 kJ/mol
# GULP energy per Si atom -5575.030877 kJ/mol
# Density = 2.017173 g / cm^3
# Si number density = 20.217745 Si / 1000 Ang^3
#
#
#
# Elastic Constant Matrix: (Units=GPa)
#
#
# Indices 1 2 3 4 5 6 
#
# 1 50.5323 37.8667 3.8441 0.0000 0.0000 0.0000
# 2 37.8667 99.5918 27.2982 0.0000 0.0000 0.0000
# 3 3.8441 27.2982 36.2073 0.0000 0.0000 0.0000
# 4 0.0000 0.0000 0.0000 20.4365 0.0000 0.0000
# 5 0.0000 0.0000 0.0000 0.0000 10.4935 0.0000
# 6 0.0000 0.0000 0.0000 0.0000 0.0000 39.9057
#
#
#
# Elastic Compliance Matrix: (Units=1/GPa)
#
#
# Indices 1 2 3 4 5 6 
#
# 1 0.028862 -0.012774 0.006566 0.000000 0.000000 0.000000
# 2 -0.012774 0.018310 -0.012448 0.000000 0.000000 0.000000
# 3 0.006566 -0.012448 0.036307 0.000000 0.000000 0.000000
# 4 0.000000 0.000000 0.000000 0.048932 0.000000 0.000000
# 5 0.000000 0.000000 0.000000 0.000000 0.095297 0.000000
# 6 0.000000 0.000000 0.000000 0.000000 0.000000 0.025059
#
#
# Mechanical properties :
#
#
# Convention : Reuss Voigt Hill
#
# Bulk Modulus (GPa) = 21.66034 36.03880 28.84957
# Shear Modulus (GPa) = 16.36833 21.98863 19.17848
#
# Velocity S-wave (km/s) = 2.84844 3.30144 3.08327
# Velocity P-wave (km/s) = 4.64273 5.69181 5.19382
#
# Compressibility (1/GPa) = 0.04616733
#
# Stress axis : x y z
#
# Youngs Moduli (GPa) = 34.64784 54.61519 27.54286
#
# Poissons Ratio (x) = 0.69764 -0.18086
# Poissons Ratio (y) = 0.44258 0.34287
# Poissons Ratio (z) = -0.22751 0.67988
#
# Static dielectric constant tensor:
#      x y z
#    x 1.751270 0.000000 0.000000 
#    y 0.000000 1.771100 0.000000 
#    z 0.000000 0.000000 1.708810 
# 
# From -- ./inp_files/28661.got.cif
#   From: 2010.05.17/outbox.cif.g08.bks.cpg/sg66_15_cif.got.tgz:28661.got - 2010.06.03 17:51:23.
