data_PCOD9495629
_publ_section_title
;
Structure prediction by ZEFSAII (Michael W. Deem and Ramdas Pophale) SiO2 
 PCOD9495629
Probable space group: C C C M
;
_chemical_formula_sum "Si O2"
_cell_formula_units_Z 72
_cell_length_a 9.620605
_cell_length_b 14.487335
_cell_length_c 24.605950
_cell_angle_alpha 90.000000
_cell_angle_beta 90.000000
_cell_angle_gamma 90.000000
_cell_volume 3429.501710
_symmetry_space_group_name_H-M "C C C M"
_symmetry_group_IT_number 66
_symmetry_cell_setting 'orthorhombic'
loop_
_space_group_symop_operation_xyz
x,y,z
-x,-y,z
x,-y,1/2-z
-x,y,1/2-z
-x,-y,-z
x,y,-z
-x,y,1/2+z
x,-y,1/2+z
1/2+x,1/2+y,z
1/2-x,1/2-y,z
1/2+x,1/2-y,1/2-z
1/2-x,1/2+y,1/2-z
1/2-x,1/2-y,-z
1/2+x,1/2+y,-z
1/2-x,1/2+y,1/2+z
1/2+x,1/2-y,1/2+z
loop_
_atom_site_type_symbol
_atom_site_label
_atom_site_fract_x
_atom_site_fract_y
_atom_site_fract_z
Si Si1 0.854838 0.448527 0.145721
Si Si2 0.653850 0.622899 0.733565
Si Si3 0.053549 0.241218 0.366213
Si Si4 0.365204 0.564745 0.062936
Si Si5 0.250000 0.250000 0.826288
O O1 0.754205 0.442066 0.198242
O O2 0.889170 0.343647 0.127369
O O3 0.757795 0.483925 0.096972
O O4 0.000000 0.500000 0.154881
O O5 0.500000 0.589640 0.750000
O O6 0.610405 0.704891 0.691847
O O7 0.734100 0.663190 0.785414
O O8 0.097399 0.163173 0.409221
O O9 0.888376 0.250199 0.361291
O O10 0.500000 0.500000 0.067185
O O11 0.328740 0.577129 0.000000
#
# Coordination Sequence:
#
# PCOD9495629 Si02
#       5
#    16  16  16  16   8
#     4  11  23  39  66 100 133 162 220 279 317 376
#     4   9  17  36  63  86 126 178 217 246 319 379
#     4  10  21  37  66  93 125 173 212 262 320 381
#     4  10  23  45  69  92 125 170 216 268 337 402
#     4  10  18  34  67  88 127 178 208 258 312 380
#
# _framework density 20.994302999999999
#
# number of rings (size 3 to 8) (size 9 to 14) (size 15 to 20)
#    0.000    2.000    2.222    2.000    3.111    2.222 
#    0.000    2.778    9.778    0.000    0.000    0.000 
#    0.000    0.000    0.000    0.000    0.000    0.000 
#
# Total GULP energy -201127.433671 kJ/mol
# GULP energy per Si atom -5586.873158 kJ/mol
# Density = 2.094652 g / cm^3
# Si number density = 20.994303 Si / 1000 Ang^3
#
#
#
# Elastic Constant Matrix: (Units=GPa)
#
#
# Indices 1 2 3 4 5 6 
#
# 1 204.4709 27.0220 68.8411 0.0000 0.0000 0.0000
# 2 27.0220 73.2771 10.9683 0.0000 0.0000 0.0000
# 3 68.8411 10.9683 86.2455 0.0000 0.0000 0.0000
# 4 0.0000 0.0000 0.0000 -12.4440 0.0000 0.0000
# 5 0.0000 0.0000 0.0000 0.0000 25.4263 0.0000
# 6 0.0000 0.0000 0.0000 0.0000 0.0000 18.2934
#
#
#
# Elastic Compliance Matrix: (Units=1/GPa)
#
#
# Indices 1 2 3 4 5 6 
#
# 1 0.006902 -0.001754 -0.005286 0.000000 0.000000 0.000000
# 2 -0.001754 0.014357 -0.000426 0.000000 0.000000 0.000000
# 3 -0.005286 -0.000426 0.015868 0.000000 0.000000 0.000000
# 4 0.000000 0.000000 0.000000 -0.080360 0.000000 0.000000
# 5 0.000000 0.000000 0.000000 0.000000 0.039329 0.000000
# 6 0.000000 0.000000 0.000000 0.000000 0.000000 0.054665
#
#
# Mechanical properties :
#
#
# Convention : Reuss Voigt Hill
#
# Bulk Modulus (GPa) = 45.05359 64.18402 54.61880
# Shear Modulus (GPa) = 68.40575 23.39927 45.90251
#
# Velocity S-wave (km/s) = 5.71434 3.34211 4.68100
# Velocity P-wave (km/s) = 8.06504 6.74770 7.43560
#
# Compressibility (1/GPa) = 0.02219579
#
# Stress axis : x y z
#
# Youngs Moduli (GPa) = 144.87990 69.65048 63.01798
#
# Poissons Ratio (x) = 0.12217 0.33313
# Poissons Ratio (y) = 0.25413 0.02683
# Poissons Ratio (z) = 0.76588 0.02966
#
# Static dielectric constant tensor:
#      x y z
#    x 5.419740 0.000000 0.000000 
#    y 0.000000 1.834290 0.000000 
#    z 0.000000 0.000000 1.727390 
# 
# From -- ./inp_files/62164.got.cif
#   From: 2010.05.17/outbox.cif.g08.bks.cpg/sg66_32_cif.got.tgz:62164.got - 2010.06.03 17:51:23.
