data_PCOD9495405
_publ_section_title
;
Structure prediction by ZEFSAII (Michael W. Deem and Ramdas Pophale) SiO2 
 PCOD9495405
Probable space group: C C C M
;
_chemical_formula_sum "Si O2"
_cell_formula_units_Z 64
_cell_length_a 9.487937
_cell_length_b 43.001993
_cell_length_c 8.600624
_cell_angle_alpha 90.000000
_cell_angle_beta 90.000000
_cell_angle_gamma 90.000000
_cell_volume 3509.056316
_symmetry_space_group_name_H-M "C C C M"
_symmetry_group_IT_number 66
_symmetry_cell_setting 'orthorhombic'
loop_
_space_group_symop_operation_xyz
x,y,z
-x,-y,z
x,-y,1/2-z
-x,y,1/2-z
-x,-y,-z
x,y,-z
-x,y,1/2+z
x,-y,1/2+z
1/2+x,1/2+y,z
1/2-x,1/2-y,z
1/2+x,1/2-y,1/2-z
1/2-x,1/2+y,1/2-z
1/2-x,1/2-y,-z
1/2+x,1/2+y,-z
1/2-x,1/2+y,1/2+z
1/2+x,1/2-y,1/2+z
loop_
_atom_site_type_symbol
_atom_site_label
_atom_site_fract_x
_atom_site_fract_y
_atom_site_fract_z
Si Si1 0.660431 0.844881 0.185646
Si Si2 0.658655 0.219784 0.813739
Si Si3 0.840318 0.409779 0.186035
Si Si4 0.841174 0.033308 0.313660
O O1 0.500000 0.844205 0.250000
O O2 0.721555 0.812080 0.243003
O O3 0.721483 0.876778 0.254395
O O4 0.658664 0.846305 0.000000
O O5 0.500000 0.223611 0.750000
O O6 0.750000 0.250000 0.774155
O O7 0.652419 0.216511 0.000000
O O8 0.752339 0.438533 0.251240
O O9 0.000000 0.411992 0.250000
O O10 0.843053 0.409956 0.000000
O O11 0.842813 0.032826 0.500000
O O12 0.000000 0.036987 0.250000
O O13 0.788809 0.000000 0.250000
#
# Coordination Sequence:
#
# PCOD9495405 Si02
#       4
#    16  16  16  16
#     4  10  18  31  52  77 105 139 176 216 265 319
#     4  10  20  34  53  77 105 138 176 217 263 315
#     4  11  21  36  57  83 111 141 179 225 270 316
#     4  11  22  39  59  82 110 145 182 218 265 320
#
# _framework density 18.238522
#
# number of rings (size 3 to 8) (size 9 to 14) (size 15 to 20)
#    0.000    1.500    0.000   11.250    0.000    2.500 
#    0.000    3.750    0.000    3.000    0.000    0.000 
#    0.000    0.000    0.000    0.000    0.000    0.000 
#
# Total GULP energy -178702.131205 kJ/mol
# GULP energy per Si atom -5584.441600 kJ/mol
# Density = 1.819701 g / cm^3
# Si number density = 18.238522 Si / 1000 Ang^3
#
#
#
# Elastic Constant Matrix: (Units=GPa)
#
#
# Indices 1 2 3 4 5 6 
#
# 1 39.2826 66.1124 34.7901 0.0000 0.0000 0.0000
# 2 66.1124 227.4481 100.6931 0.0000 0.0000 0.0000
# 3 34.7901 100.6931 193.3179 0.0000 0.0000 0.0000
# 4 0.0000 0.0000 0.0000 38.0990 0.0000 0.0000
# 5 0.0000 0.0000 0.0000 0.0000 15.5650 0.0000
# 6 0.0000 0.0000 0.0000 0.0000 0.0000 29.2939
#
#
#
# Elastic Compliance Matrix: (Units=1/GPa)
#
#
# Indices 1 2 3 4 5 6 
#
# 1 0.050351 -0.013808 -0.001869 0.000000 0.000000 0.000000
# 2 -0.013808 0.009501 -0.002464 0.000000 0.000000 0.000000
# 3 -0.001869 -0.002464 0.006793 0.000000 0.000000 0.000000
# 4 0.000000 0.000000 0.000000 0.026247 0.000000 0.000000
# 5 0.000000 0.000000 0.000000 0.000000 0.064247 0.000000
# 6 0.000000 0.000000 0.000000 0.000000 0.000000 0.034137
#
#
# Mechanical properties :
#
#
# Convention : Reuss Voigt Hill
#
# Bulk Modulus (GPa) = 32.93565 95.91555 64.42560
# Shear Modulus (GPa) = 21.03693 33.82178 27.42936
#
# Velocity S-wave (km/s) = 3.39991 4.31096 3.88225
# Velocity P-wave (km/s) = 5.78878 8.80244 7.44959
#
# Compressibility (1/GPa) = 0.03036224
#
# Stress axis : x y z
#
# Youngs Moduli (GPa) = 19.86077 105.25326 147.22081
#
# Poissons Ratio (x) = 1.45333 0.27518
# Poissons Ratio (y) = 0.27424 0.36272
# Poissons Ratio (z) = 0.03712 0.25932
#
# Static dielectric constant tensor:
#      x y z
#    x 1.625200 0.000000 0.000000 
#    y 0.000000 1.669890 0.000000 
#    z 0.000000 0.000000 1.605570 
# 
# From -- ./inp_files/3969.got.cif
#   From: 2010.05.17/outbox.cif.g08.bks.cpg/sg66_2_cif.got.tgz:3969.got - 2010.06.03 17:51:23.
