data_PCOD9495539
_publ_section_title
;
Structure prediction by ZEFSAII (Michael W. Deem and Ramdas Pophale) SiO2 
 PCOD9495539
Probable space group: C C C M
;
_chemical_formula_sum "Si O2"
_cell_formula_units_Z 96
_cell_length_a 15.687388
_cell_length_b 19.674341
_cell_length_c 17.719552
_cell_angle_alpha 90.000000
_cell_angle_beta 90.000000
_cell_angle_gamma 90.000000
_cell_volume 5468.945180
_symmetry_space_group_name_H-M "C C C M"
_symmetry_group_IT_number 66
_symmetry_cell_setting 'orthorhombic'
loop_
_space_group_symop_operation_xyz
x,y,z
-x,-y,z
x,-y,1/2-z
-x,y,1/2-z
-x,-y,-z
x,y,-z
-x,y,1/2+z
x,-y,1/2+z
1/2+x,1/2+y,z
1/2-x,1/2-y,z
1/2+x,1/2-y,1/2-z
1/2-x,1/2+y,1/2-z
1/2-x,1/2-y,-z
1/2+x,1/2+y,-z
1/2-x,1/2+y,1/2+z
1/2+x,1/2-y,1/2+z
loop_
_atom_site_type_symbol
_atom_site_label
_atom_site_fract_x
_atom_site_fract_y
_atom_site_fract_z
Si Si1 0.088772 0.331860 0.705290
Si Si2 0.244216 0.173942 0.192133
Si Si3 0.594686 0.021472 0.161201
Si Si4 0.920094 0.951132 0.409481
Si Si5 0.416985 0.678763 0.196577
Si Si6 0.740989 0.455479 0.410571
O O1 0.166741 0.335257 0.764089
O O2 0.100542 0.397325 0.653562
O O3 0.087001 0.257117 0.668324
O O4 0.000000 0.340729 0.750000
O O5 0.250000 0.250000 0.159234
O O6 0.167516 0.170096 0.252528
O O7 0.229624 0.115768 0.131503
O O8 0.500000 0.000000 0.138086
O O9 0.604237 0.000000 0.250000
O O10 0.668995 0.985763 0.115349
O O11 0.921602 0.940233 0.500000
O O12 0.922544 0.879927 0.365598
O O13 0.834308 0.992229 0.389152
O O14 0.000000 0.000000 0.390224
O O15 0.500000 0.673886 0.250000
O O16 0.737574 0.446406 0.500000
#
# Coordination Sequence:
#
# PCOD9495539 Si02
#       6
#    16  16  16  16  16  16
#     4  10  18  33  54  83 109 134 182 224 269 321
#     4  10  20  34  54  79 108 142 180 226 277 325
#     4  11  19  34  60  82 105 146 178 221 272 325
#     4  10  22  39  56  79 113 149 186 230 281 327
#     4  10  21  34  56  84 107 138 186 233 264 327
#     4  11  23  36  54  81 111 144 184 228 273 331
#
# _framework density 17.553659
#
# number of rings (size 3 to 8) (size 9 to 14) (size 15 to 20)
#    0.000    1.667    3.333    2.000    0.000    2.333 
#    0.000    0.833    0.000   18.500    0.000    0.000 
#    0.000    0.000    0.000    0.000    0.000    0.000 
#
# Total GULP energy -267889.255399 kJ/mol
# GULP energy per Si atom -5581.026154 kJ/mol
# Density = 1.751371 g / cm^3
# Si number density = 17.553659 Si / 1000 Ang^3
#
#
#
# Elastic Constant Matrix: (Units=GPa)
#
#
# Indices 1 2 3 4 5 6 
#
# 1 97.0069 19.3081 15.1767 0.0000 0.0000 0.0000
# 2 19.3081 172.2000 52.2287 0.0000 0.0000 0.0000
# 3 15.1767 52.2287 30.8261 0.0000 0.0000 0.0000
# 4 0.0000 0.0000 0.0000 14.2815 0.0000 0.0000
# 5 0.0000 0.0000 0.0000 0.0000 19.7753 0.0000
# 6 0.0000 0.0000 0.0000 0.0000 0.0000 35.0117
#
#
#
# Elastic Compliance Matrix: (Units=1/GPa)
#
#
# Indices 1 2 3 4 5 6 
#
# 1 0.011230 0.000859 -0.006985 0.000000 0.000000 0.000000
# 2 0.000859 0.012012 -0.020775 0.000000 0.000000 0.000000
# 3 -0.006985 -0.020775 0.071078 0.000000 0.000000 0.000000
# 4 0.000000 0.000000 0.000000 0.070021 0.000000 0.000000
# 5 0.000000 0.000000 0.000000 0.000000 0.050568 0.000000
# 6 0.000000 0.000000 0.000000 0.000000 0.000000 0.028562
#
#
# Mechanical properties :
#
#
# Convention : Reuss Voigt Hill
#
# Bulk Modulus (GPa) = 24.67984 52.60666 38.64325
# Shear Modulus (GPa) = 16.08865 28.03501 22.06183
#
# Velocity S-wave (km/s) = 3.03073 4.00071 3.54901
# Velocity P-wave (km/s) = 5.13198 7.16764 6.23347
#
# Compressibility (1/GPa) = 0.04051890
#
# Stress axis : x y z
#
# Youngs Moduli (GPa) = 89.04479 83.25079 14.06909
#
# Poissons Ratio (x) = -0.07154 0.09827
# Poissons Ratio (y) = -0.07652 0.29228
# Poissons Ratio (z) = 0.62199 1.72952
#
# Static dielectric constant tensor:
#      x y z
#    x 1.590570 0.000000 0.000000 
#    y 0.000000 1.618450 0.000000 
#    z 0.000000 0.000000 1.556240 
# 
# From -- ./inp_files/28408.got.cif
#   From: 2010.05.17/outbox.cif.g08.bks.cpg/sg66_15_cif.got.tgz:28408.got - 2010.06.03 17:51:23.
