data_PCOD9495700
_publ_section_title
;
Structure prediction by ZEFSAII (Michael W. Deem and Ramdas Pophale) SiO2 
 PCOD9495700
Probable space group: C C C M
;
_chemical_formula_sum "Si O2"
_cell_formula_units_Z 80
_cell_length_a 15.279114
_cell_length_b 11.369302
_cell_length_c 21.401780
_cell_angle_alpha 90.000000
_cell_angle_beta 90.000000
_cell_angle_gamma 90.000000
_cell_volume 3717.764442
_symmetry_space_group_name_H-M "C C C M"
_symmetry_group_IT_number 66
_symmetry_cell_setting 'orthorhombic'
loop_
_space_group_symop_operation_xyz
x,y,z
-x,-y,z
x,-y,1/2-z
-x,y,1/2-z
-x,-y,-z
x,y,-z
-x,y,1/2+z
x,-y,1/2+z
1/2+x,1/2+y,z
1/2-x,1/2-y,z
1/2+x,1/2-y,1/2-z
1/2-x,1/2+y,1/2-z
1/2-x,1/2-y,-z
1/2+x,1/2+y,-z
1/2-x,1/2+y,1/2+z
1/2+x,1/2-y,1/2+z
loop_
_atom_site_type_symbol
_atom_site_label
_atom_site_fract_x
_atom_site_fract_y
_atom_site_fract_z
Si Si1 0.500000 0.500000 0.844736
Si Si2 0.959362 0.649143 0.073381
Si Si3 0.944740 0.746256 0.692867
Si Si4 0.642210 0.610163 0.928881
Si Si5 0.250000 0.750000 0.157633
Si Si6 0.190438 0.529018 0.926648
O O1 0.477934 0.620265 0.811120
O O2 0.583828 0.528370 0.886129
O O3 0.889632 0.756815 0.078237
O O4 0.904738 0.529606 0.085323
O O5 0.028625 0.685786 0.126816
O O6 0.989177 0.649705 0.000000
O O7 0.839562 0.754428 0.697958
O O8 0.000000 0.689972 0.750000
O O9 0.742203 0.578989 0.917282
O O10 0.623360 0.576526 0.000000
O O11 0.228983 0.636322 0.114016
O O12 0.192262 0.562337 0.000000
#
# Coordination Sequence:
#
# PCOD9495700 Si02
#       6
#     8  16  16  16   8  16
#     4  10  18  38  64  90 127 164 219 276 329 376
#     4   9  20  39  67  97 134 174 219 269 328 389
#     4  11  25  46  66  95 133 175 226 272 331 399
#     4   9  16  30  59  97 131 167 212 267 323 383
#     4  12  25  44  64  94 131 174 220 272 336 394
#     4  10  20  37  63 100 136 172 214 269 328 396
#
# _framework density 21.518308999999999
#
# number of rings (size 3 to 8) (size 9 to 14) (size 15 to 20)
#    0.000    2.000    2.000    1.500    0.000    5.600 
#    7.200    4.000    0.000    0.000    0.000    0.000 
#    0.000    0.000    0.000    0.000    0.000    0.000 
#
# Total GULP energy -223072.979279 kJ/mol
# GULP energy per Si atom -5576.824482 kJ/mol
# Density = 2.146933 g / cm^3
# Si number density = 21.518309 Si / 1000 Ang^3
#
#
#
# Elastic Constant Matrix: (Units=GPa)
#
#
# Indices 1 2 3 4 5 6 
#
# 1 151.9617 7.4659 68.5536 0.0000 0.0000 0.0000
# 2 7.4659 76.6684 47.4452 0.0000 0.0000 0.0000
# 3 68.5536 47.4452 85.1814 0.0000 0.0000 0.0000
# 4 0.0000 0.0000 0.0000 0.4187 0.0000 0.0000
# 5 0.0000 0.0000 0.0000 0.0000 19.7746 0.0000
# 6 0.0000 0.0000 0.0000 0.0000 0.0000 31.3733
#
#
#
# Elastic Compliance Matrix: (Units=1/GPa)
#
#
# Indices 1 2 3 4 5 6 
#
# 1 0.012819 0.007837 -0.014682 0.000000 0.000000 0.000000
# 2 0.007837 0.024696 -0.020063 0.000000 0.000000 0.000000
# 3 -0.014682 -0.020063 0.034730 0.000000 0.000000 0.000000
# 4 0.000000 0.000000 0.000000 2.388270 0.000000 0.000000
# 5 0.000000 0.000000 0.000000 0.000000 0.050570 0.000000
# 6 0.000000 0.000000 0.000000 0.000000 0.000000 0.031874
#
#
# Mechanical properties :
#
#
# Convention : Reuss Voigt Hill
#
# Bulk Modulus (GPa) = 54.25835 62.30454 58.28144
# Shear Modulus (GPa) = 1.92092 23.00311 12.46202
#
# Velocity S-wave (km/s) = 0.94585 3.27311 2.40913
# Velocity P-wave (km/s) = 5.14418 6.58038 5.90609
#
# Compressibility (1/GPa) = 0.01843034
#
# Stress axis : x y z
#
# Youngs Moduli (GPa) = 78.00945 40.49320 28.79324
#
# Poissons Ratio (x) = -0.31736 0.42274
# Poissons Ratio (y) = -0.61140 0.57767
# Poissons Ratio (z) = 1.14534 0.81240
#
# Static dielectric constant tensor:
#      x y z
#    x 1.811950 0.000000 0.000000 
#    y 0.000000 1.778930 0.000000 
#    z 0.000000 0.000000 1.773210 
# 
# From -- ./inp_files/57943.got.cif
#   From: 2010.05.17/outbox.cif.g08.bks.cpg/sg66_29_cif.got.tgz:57943.got - 2010.06.03 17:51:23.
