data_PCOD9495308
_publ_section_title
;
Structure prediction by ZEFSAII (Michael W. Deem and Ramdas Pophale) SiO2 
 PCOD9495308
Probable space group: C C C M
;
_chemical_formula_sum "Si O2"
_cell_formula_units_Z 80
_cell_length_a 28.784807
_cell_length_b 8.849404
_cell_length_c 17.087423
_cell_angle_alpha 90.000000
_cell_angle_beta 90.000000
_cell_angle_gamma 90.000000
_cell_volume 4352.651685
_symmetry_space_group_name_H-M "C C C M"
_symmetry_group_IT_number 66
_symmetry_cell_setting 'orthorhombic'
loop_
_space_group_symop_operation_xyz
x,y,z
-x,-y,z
x,-y,1/2-z
-x,y,1/2-z
-x,-y,-z
x,y,-z
-x,y,1/2+z
x,-y,1/2+z
1/2+x,1/2+y,z
1/2-x,1/2-y,z
1/2+x,1/2-y,1/2-z
1/2-x,1/2+y,1/2-z
1/2-x,1/2-y,-z
1/2+x,1/2+y,-z
1/2-x,1/2+y,1/2+z
1/2+x,1/2-y,1/2+z
loop_
_atom_site_type_symbol
_atom_site_label
_atom_site_fract_x
_atom_site_fract_y
_atom_site_fract_z
Si Si1 0.104517 0.803791 0.090437
Si Si2 0.445321 0.828541 0.765826
Si Si3 0.879432 0.100634 0.324843
Si Si4 0.299094 0.179699 0.160568
Si Si5 0.201325 0.669452 0.149326
O O1 0.069322 0.714568 0.146509
O O2 0.156807 0.751255 0.112748
O O3 0.101468 0.979308 0.114427
O O4 0.095722 0.778488 0.000000
O O5 0.500000 0.818540 0.750000
O O6 0.418129 0.710869 0.711023
O O7 0.429555 0.000000 0.750000
O O8 0.839953 0.205886 0.361482
O O9 0.861504 0.000000 0.250000
O O10 0.250000 0.250000 0.138230
O O11 0.301693 0.176639 0.255871
O O12 0.301386 0.008614 0.130257
O O13 0.250000 0.750000 0.127116
#
# Coordination Sequence:
#
# PCOD9495308 Si02
#       5
#    16  16  16  16  16
#     4  11  23  38  58  88 124 155 190 238 295 347
#     4  10  21  41  66  88 110 148 194 240 291 349
#     4  10  19  34  55  81 113 151 192 236 283 344
#     4  10  18  29  55  86 112 150 207 247 274 328
#     4  10  19  32  55  84 119 156 196 241 287 336
#
# _framework density 18.379601999999998
#
# number of rings (size 3 to 8) (size 9 to 14) (size 15 to 20)
#    0.000    1.800    4.000    2.400    2.800    4.000 
#    0.000    8.000    0.000    2.400    0.000    0.000 
#    0.000    0.000    0.000    0.000    0.000    0.000 
#
# Total GULP energy -223293.396319 kJ/mol
# GULP energy per Si atom -5582.334908 kJ/mol
# Density = 1.833777 g / cm^3
# Si number density = 18.379602 Si / 1000 Ang^3
#
#
#
# Elastic Constant Matrix: (Units=GPa)
#
#
# Indices 1 2 3 4 5 6 
#
# 1 79.5495 53.3180 48.5294 0.0000 0.0000 0.0000
# 2 53.3180 161.5300 45.1819 0.0000 0.0000 0.0000
# 3 48.5294 45.1819 86.8258 0.0000 0.0000 0.0000
# 4 0.0000 0.0000 0.0000 5.6399 0.0000 0.0000
# 5 0.0000 0.0000 0.0000 0.0000 8.4760 0.0000
# 6 0.0000 0.0000 0.0000 0.0000 0.0000 31.4596
#
#
#
# Elastic Compliance Matrix: (Units=1/GPa)
#
#
# Indices 1 2 3 4 5 6 
#
# 1 0.021405 -0.004352 -0.009699 0.000000 0.000000 0.000000
# 2 -0.004352 0.008130 -0.001798 0.000000 0.000000 0.000000
# 3 -0.009699 -0.001798 0.017874 0.000000 0.000000 0.000000
# 4 0.000000 0.000000 0.000000 0.177310 0.000000 0.000000
# 5 0.000000 0.000000 0.000000 0.000000 0.117980 0.000000
# 6 0.000000 0.000000 0.000000 0.000000 0.000000 0.031787
#
#
# Mechanical properties :
#
#
# Convention : Reuss Voigt Hill
#
# Bulk Modulus (GPa) = 63.65243 69.10710 66.37977
# Shear Modulus (GPa) = 12.15299 21.17348 16.66323
#
# Velocity S-wave (km/s) = 2.57421 3.39781 3.01427
# Velocity P-wave (km/s) = 6.59869 7.28526 6.95046
#
# Compressibility (1/GPa) = 0.01571032
#
# Stress axis : x y z
#
# Youngs Moduli (GPa) = 46.71842 122.99472 55.94714
#
# Poissons Ratio (x) = 0.53533 0.54262
# Poissons Ratio (y) = 0.20334 0.10060
# Poissons Ratio (z) = 0.45312 0.22117
#
# Static dielectric constant tensor:
#      x y z
#    x 1.620480 0.000000 0.000000 
#    y 0.000000 1.647430 0.000000 
#    z 0.000000 0.000000 1.621400 
# 
# From -- ./inp_files/37138.got.cif
#   From: 2010.05.17/outbox.cif.g08.bks.cpg/sg66_19_cif.got.tgz:37138.got - 2010.06.03 17:51:23.
