data_PCOD9495414
_publ_section_title
;
Structure prediction by ZEFSAII (Michael W. Deem and Ramdas Pophale) SiO2 
 PCOD9495414
Probable space group: C C C M
;
_chemical_formula_sum "Si O2"
_cell_formula_units_Z 128
_cell_length_a 21.644636
_cell_length_b 20.083606
_cell_length_c 17.742746
_cell_angle_alpha 90.000000
_cell_angle_beta 90.000000
_cell_angle_gamma 90.000000
_cell_volume 7712.813230
_symmetry_space_group_name_H-M "C C C M"
_symmetry_group_IT_number 66
_symmetry_cell_setting 'orthorhombic'
loop_
_space_group_symop_operation_xyz
x,y,z
-x,-y,z
x,-y,1/2-z
-x,y,1/2-z
-x,-y,-z
x,y,-z
-x,y,1/2+z
x,-y,1/2+z
1/2+x,1/2+y,z
1/2-x,1/2-y,z
1/2+x,1/2-y,1/2-z
1/2-x,1/2+y,1/2-z
1/2-x,1/2-y,-z
1/2+x,1/2+y,-z
1/2-x,1/2+y,1/2+z
1/2+x,1/2-y,1/2+z
loop_
_atom_site_type_symbol
_atom_site_label
_atom_site_fract_x
_atom_site_fract_y
_atom_site_fract_z
Si Si1 0.394203 0.228859 0.164788
Si Si2 0.267162 0.856047 0.909126
Si Si3 0.523505 0.230502 0.089725
Si Si4 0.668947 0.973673 0.326498
Si Si5 0.936559 0.631724 0.293444
Si Si6 0.821636 0.607938 0.089523
Si Si7 0.846254 0.773390 0.409030
Si Si8 0.703848 0.686872 0.087113
O O1 0.460517 0.248338 0.131258
O O2 0.405972 0.193336 0.245659
O O3 0.365042 0.167718 0.117440
O O4 0.347728 0.290178 0.147495
O O5 0.288083 0.923901 0.872440
O O6 0.199973 0.830783 0.883216
O O7 0.315072 0.797108 0.887056
O O8 0.268176 0.861297 0.000000
O O9 0.544368 0.159827 0.124869
O O10 0.581811 0.277521 0.108867
O O11 0.515495 0.227697 0.000000
O O12 0.609539 0.929873 0.301987
O O13 0.699154 0.000000 0.250000
O O14 0.656032 0.039116 0.375105
O O15 0.000000 0.614409 0.250000
O O16 0.750279 0.627071 0.109498
O O17 0.823937 0.605031 0.000000
O O18 0.842663 0.773277 0.500000
O O19 0.750000 0.750000 0.082920
O O20 0.680486 0.677218 0.000000
#
# Coordination Sequence:
#
# PCOD9495414 Si02
#       8
#    16  16  16  16  16  16  16  16
#     4  10  18  34  51  74 103 133 161 208 263 304
#     4   9  17  32  52  71  96 127 161 208 258 294
#     4  10  18  31  53  77  99 129 171 207 246 309
#     4  12  22  35  46  68  98 140 172 206 240 291
#     4  10  22  36  48  67 104 140 169 207 254 290
#     4  10  20  34  52  74  98 131 176 213 249 301
#     4   8  15  29  50  76  96 118 158 207 257 299
#     4   8  15  30  52  74  97 124 163 216 261 295
#
# _framework density 16.595759999999999
#
# number of rings (size 3 to 8) (size 9 to 14) (size 15 to 20)
#    0.000    2.375    2.500    3.000    0.000    0.750 
#    2.250    0.000    0.000    2.250    0.000    0.875 
#    0.000    6.000    0.000    0.000    0.000    0.000 
#
# Total GULP energy -356333.976221 kJ/mol
# GULP energy per Si atom -5567.718378 kJ/mol
# Density = 1.655799 g / cm^3
# Si number density = 16.595760 Si / 1000 Ang^3
#
#
#
# Elastic Constant Matrix: (Units=GPa)
#
#
# Indices 1 2 3 4 5 6 
#
# 1 94.6337 20.2019 22.9081 0.0000 0.0000 0.0000
# 2 20.2019 22.6036 9.4571 0.0000 0.0000 0.0000
# 3 22.9081 9.4571 51.4250 0.0000 0.0000 0.0000
# 4 0.0000 0.0000 0.0000 22.5144 0.0000 0.0000
# 5 0.0000 0.0000 0.0000 0.0000 -6.8927 0.0000
# 6 0.0000 0.0000 0.0000 0.0000 0.0000 16.9264
#
#
#
# Elastic Compliance Matrix: (Units=1/GPa)
#
#
# Indices 1 2 3 4 5 6 
#
# 1 0.013855 -0.010618 -0.004219 0.000000 0.000000 0.000000
# 2 -0.010618 0.056065 -0.005581 0.000000 0.000000 0.000000
# 3 -0.004219 -0.005581 0.022352 0.000000 0.000000 0.000000
# 4 0.000000 0.000000 0.000000 0.044416 0.000000 0.000000
# 5 0.000000 0.000000 0.000000 0.000000 -0.145082 0.000000
# 6 0.000000 0.000000 0.000000 0.000000 0.000000 0.059079
#
#
# Mechanical properties :
#
#
# Convention : Reuss Voigt Hill
#
# Bulk Modulus (GPa) = 19.44143 30.42183 24.93163
# Shear Modulus (GPa) = 46.01270 14.24931 30.13100
#
# Velocity S-wave (km/s) = 5.27122 2.93339 4.26559
# Velocity P-wave (km/s) = 6.98483 5.46296 6.27024
#
# Compressibility (1/GPa) = 0.05143656
#
# Stress axis : x y z
#
# Youngs Moduli (GPa) = 72.17594 17.83646 44.73939
#
# Poissons Ratio (x) = 0.18938 0.18877
# Poissons Ratio (y) = 0.76633 0.24967
# Poissons Ratio (z) = 0.30454 0.09954
#
# Static dielectric constant tensor:
#      x y z
#    x 1.596390 0.000000 0.000000 
#    y 0.000000 1.547260 0.000000 
#    z 0.000000 0.000000 1.600170 
# 
# From -- ./inp_files/52050.got.cif
#   From: 2010.05.17/outbox.cif.g08.bks.cpg/sg66_27_cif.got.tgz:52050.got - 2010.06.03 17:51:23.
