data_PCOD9495559
_publ_section_title
;
Structure prediction by ZEFSAII (Michael W. Deem and Ramdas Pophale) SiO2 
 PCOD9495559
Probable space group: C C C M
;
_chemical_formula_sum "Si O2"
_cell_formula_units_Z 88
_cell_length_a 11.681536
_cell_length_b 20.857100
_cell_length_c 19.886241
_cell_angle_alpha 90.000000
_cell_angle_beta 90.000000
_cell_angle_gamma 90.000000
_cell_volume 4845.142710
_symmetry_space_group_name_H-M "C C C M"
_symmetry_group_IT_number 66
_symmetry_cell_setting 'orthorhombic'
loop_
_space_group_symop_operation_xyz
x,y,z
-x,-y,z
x,-y,1/2-z
-x,y,1/2-z
-x,-y,-z
x,y,-z
-x,y,1/2+z
x,-y,1/2+z
1/2+x,1/2+y,z
1/2-x,1/2-y,z
1/2+x,1/2-y,1/2-z
1/2-x,1/2+y,1/2-z
1/2-x,1/2-y,-z
1/2+x,1/2+y,-z
1/2-x,1/2+y,1/2+z
1/2+x,1/2-y,1/2+z
loop_
_atom_site_type_symbol
_atom_site_label
_atom_site_fract_x
_atom_site_fract_y
_atom_site_fract_z
Si Si1 0.038125 0.930130 0.896177
Si Si2 0.213558 0.464847 0.575669
Si Si3 0.293396 0.613482 0.424961
Si Si4 0.764910 0.824811 0.212983
Si Si5 0.000000 0.111955 0.750000
Si Si6 0.125788 0.564527 0.782348
O O1 0.168945 0.923134 0.918807
O O2 0.932788 0.885962 0.919731
O O3 0.036249 0.928054 0.815229
O O4 0.000000 0.000000 0.920310
O O5 0.166707 0.458294 0.500000
O O6 0.252070 0.539464 0.585021
O O7 0.132544 0.445184 0.637440
O O8 0.259837 0.633185 0.500000
O O9 0.243582 0.655381 0.364593
O O10 0.750000 0.750000 0.224400
O O11 0.894230 0.844711 0.228755
O O12 0.689530 0.871455 0.259391
O O13 0.182012 0.500000 0.750000
O O14 0.000000 0.567459 0.750000
#
# Coordination Sequence:
#
# PCOD9495559 Si02
#       6
#    16  16  16  16   8  16
#     4   9  16  26  51  86 118 143 175 231 294 349
#     4  10  18  33  58  87 116 147 192 245 300 350
#     4   9  18  32  52  84 120 150 186 234 297 355
#     4  11  23  37  58  85 115 154 199 243 295 351
#     4  10  19  32  54  84 109 148 190 238 292 342
#     4  11  23  41  60  84 115 159 201 248 292 348
#
# _framework density 18.162519
#
# number of rings (size 3 to 8) (size 9 to 14) (size 15 to 20)
#    0.000    2.000    3.636    0.818    1.273    2.545 
#    0.000    2.727    0.000    0.545    0.000    0.000 
#    0.000    0.000    0.000    0.000    0.000    0.000 
#
# Total GULP energy -245244.615143 kJ/mol
# GULP energy per Si atom -5573.741253 kJ/mol
# Density = 1.812118 g / cm^3
# Si number density = 18.162519 Si / 1000 Ang^3
#
#
#
# Elastic Constant Matrix: (Units=GPa)
#
#
# Indices 1 2 3 4 5 6 
#
# 1 57.8309 20.8444 34.8950 0.0000 0.0000 0.0000
# 2 20.8444 95.7282 39.1455 0.0000 0.0000 0.0000
# 3 34.8950 39.1455 165.2230 0.0000 0.0000 0.0000
# 4 0.0000 0.0000 0.0000 14.8981 0.0000 0.0000
# 5 0.0000 0.0000 0.0000 0.0000 15.2816 0.0000
# 6 0.0000 0.0000 0.0000 0.0000 0.0000 4.2906
#
#
#
# Elastic Compliance Matrix: (Units=1/GPa)
#
#
# Indices 1 2 3 4 5 6 
#
# 1 0.020563 -0.002991 -0.003634 0.000000 0.000000 0.000000
# 2 -0.002991 0.012002 -0.002212 0.000000 0.000000 0.000000
# 3 -0.003634 -0.002212 0.007344 0.000000 0.000000 0.000000
# 4 0.000000 0.000000 0.000000 0.067122 0.000000 0.000000
# 5 0.000000 0.000000 0.000000 0.000000 0.065438 0.000000
# 6 0.000000 0.000000 0.000000 0.000000 0.000000 0.233067
#
#
# Mechanical properties :
#
#
# Convention : Reuss Voigt Hill
#
# Bulk Modulus (GPa) = 44.97572 56.50577 50.74074
# Shear Modulus (GPa) = 11.61110 21.82055 16.71582
#
# Velocity S-wave (km/s) = 2.53116 3.46989 3.03701
# Velocity P-wave (km/s) = 5.77573 6.87257 6.34789
#
# Compressibility (1/GPa) = 0.02223422
#
# Stress axis : x y z
#
# Youngs Moduli (GPa) = 48.63148 83.31896 136.16582
#
# Poissons Ratio (x) = 0.24924 0.49484
# Poissons Ratio (y) = 0.14548 0.30117
# Poissons Ratio (z) = 0.17673 0.18429
#
# Static dielectric constant tensor:
#      x y z
#    x 1.690620 0.000000 0.000000 
#    y 0.000000 1.602850 0.000000 
#    z 0.000000 0.000000 1.662370 
# 
# From -- ./inp_files/38651.got.cif
#   From: 2010.05.17/outbox.cif.g08.bks.cpg/sg66_20_cif.got.tgz:38651.got - 2010.06.03 17:51:23.
