data_PCOD9495185
_publ_section_title
;
Structure prediction by ZEFSAII (Michael W. Deem and Ramdas Pophale) SiO2 
 PCOD9495185
Probable space group: C C C M
;
_chemical_formula_sum "Si O2"
_cell_formula_units_Z 76
_cell_length_a 5.058318
_cell_length_b 33.113429
_cell_length_c 25.012369
_cell_angle_alpha 90.000000
_cell_angle_beta 90.000000
_cell_angle_gamma 90.000000
_cell_volume 4189.528135
_symmetry_space_group_name_H-M "C C C M"
_symmetry_group_IT_number 66
_symmetry_cell_setting 'orthorhombic'
loop_
_space_group_symop_operation_xyz
x,y,z
-x,-y,z
x,-y,1/2-z
-x,y,1/2-z
-x,-y,-z
x,y,-z
-x,y,1/2+z
x,-y,1/2+z
1/2+x,1/2+y,z
1/2-x,1/2-y,z
1/2+x,1/2-y,1/2-z
1/2-x,1/2+y,1/2-z
1/2-x,1/2-y,-z
1/2+x,1/2+y,-z
1/2-x,1/2+y,1/2+z
1/2+x,1/2-y,1/2+z
loop_
_atom_site_type_symbol
_atom_site_label
_atom_site_fract_x
_atom_site_fract_y
_atom_site_fract_z
Si Si1 0.497715 0.778974 0.000000
Si Si2 0.619721 0.122337 0.807090
Si Si3 0.513433 0.594784 0.939875
Si Si4 0.984706 0.349925 0.916359
Si Si5 0.000000 0.000000 0.750000
Si Si6 0.872090 0.931071 0.829213
O O1 0.250000 0.750000 0.000000
O O2 0.484955 0.808936 0.050630
O O3 0.750000 0.750000 0.000000
O O4 0.500000 0.134943 0.750000
O O5 0.587306 0.155197 0.853809
O O6 0.417942 0.087679 0.826653
O O7 0.909116 0.101637 0.807736
O O8 0.235390 0.618199 0.936676
O O9 0.542932 0.563309 0.891007
O O10 0.734062 0.628729 0.926549
O O11 0.553584 0.579301 0.000000
O O12 0.859154 0.030471 0.709128
#
# Coordination Sequence:
#
# PCOD9495185 Si02
#       6
#     8  16  16  16   4  16
#     4  12  22  34  52  82 114 135 162 203 270 324
#     4  10  18  36  52  78  98 131 189 212 249 290
#     4  10  17  34  53  73 101 132 188 209 254 289
#     4  10  20  32  54  78 102 139 165 219 250 296
#     4  12  20  38  46  78 120 130 176 208 296 294
#     4  10  22  29  52  75 103 141 166 222 257 320
#
# _framework density 18.140467000000001
#
# number of rings (size 3 to 8) (size 9 to 14) (size 15 to 20)
#    0.000    1.684    4.211    1.263    0.000    1.684 
#    0.000    0.526    0.000    1.263    0.000    8.842 
#    0.000    0.000    0.000    0.000    0.000    0.000 
#
# Total GULP energy -211705.165804 kJ/mol
# GULP energy per Si atom -5571.188574 kJ/mol
# Density = 1.809918 g / cm^3
# Si number density = 18.140467 Si / 1000 Ang^3
#
#
#
# Elastic Constant Matrix: (Units=GPa)
#
#
# Indices 1 2 3 4 5 6 
#
# 1 75.9118 2.0069 -16.0960 0.0000 0.0000 0.0000
# 2 2.0069 61.6041 31.0641 0.0000 0.0000 0.0000
# 3 -16.0960 31.0641 173.7818 0.0000 0.0000 0.0000
# 4 0.0000 0.0000 0.0000 22.6029 0.0000 0.0000
# 5 0.0000 0.0000 0.0000 0.0000 20.7834 0.0000
# 6 0.0000 0.0000 0.0000 0.0000 0.0000 2.5811
#
#
#
# Elastic Compliance Matrix: (Units=1/GPa)
#
#
# Indices 1 2 3 4 5 6 
#
# 1 0.013514 -0.001178 0.001462 0.000000 0.000000 0.000000
# 2 -0.001178 0.017943 -0.003317 0.000000 0.000000 0.000000
# 3 0.001462 -0.003317 0.006483 0.000000 0.000000 0.000000
# 4 0.000000 0.000000 0.000000 0.044242 0.000000 0.000000
# 5 0.000000 0.000000 0.000000 0.000000 0.048115 0.000000
# 6 0.000000 0.000000 0.000000 0.000000 0.000000 0.387431
#
#
# Mechanical properties :
#
#
# Convention : Reuss Voigt Hill
#
# Bulk Modulus (GPa) = 31.37095 38.36084 34.86590
# Shear Modulus (GPa) = 9.35597 28.81500 19.08549
#
# Velocity S-wave (km/s) = 2.27348 3.98984 3.24712
# Velocity P-wave (km/s) = 4.92164 6.51288 5.77235
#
# Compressibility (1/GPa) = 0.03187662
#
# Stress axis : x y z
#
# Youngs Moduli (GPa) = 73.99536 55.73072 154.25866
#
# Poissons Ratio (x) = 0.06563 -0.22556
# Poissons Ratio (y) = 0.08714 0.51160
# Poissons Ratio (z) = -0.10820 0.18483
#
# Static dielectric constant tensor:
#      x y z
#    x 1.618790 0.000000 0.000000 
#    y 0.000000 1.583450 0.000000 
#    z 0.000000 0.000000 1.727830 
# 
# From -- ./inp_files/54388.got.cif
#   From: 2010.05.17/outbox.cif.g08.bks.cpg/sg66_28_cif.got.tgz:54388.got - 2010.06.03 17:51:23.
