data_PCOD9495824
_publ_section_title
;
Structure prediction by ZEFSAII (Michael W. Deem and Ramdas Pophale) SiO2 
 PCOD9495824
Probable space group: C C C M
;
_chemical_formula_sum "Si O2"
_cell_formula_units_Z 72
_cell_length_a 13.409542
_cell_length_b 26.191822
_cell_length_c 7.908375
_cell_angle_alpha 90.000000
_cell_angle_beta 90.000000
_cell_angle_gamma 90.000000
_cell_volume 2777.582134
_symmetry_space_group_name_H-M "C C C M"
_symmetry_group_IT_number 66
_symmetry_cell_setting 'orthorhombic'
loop_
_space_group_symop_operation_xyz
x,y,z
-x,-y,z
x,-y,1/2-z
-x,y,1/2-z
-x,-y,-z
x,y,-z
-x,y,1/2+z
x,-y,1/2+z
1/2+x,1/2+y,z
1/2-x,1/2-y,z
1/2+x,1/2-y,1/2-z
1/2-x,1/2+y,1/2-z
1/2-x,1/2-y,-z
1/2+x,1/2+y,-z
1/2-x,1/2+y,1/2+z
1/2+x,1/2-y,1/2+z
loop_
_atom_site_type_symbol
_atom_site_label
_atom_site_fract_x
_atom_site_fract_y
_atom_site_fract_z
Si Si1 0.428396 0.233437 0.000000
Si Si2 0.891630 0.928731 0.692805
Si Si3 0.634261 0.833768 0.312024
Si Si4 0.826483 0.555704 0.808467
Si Si5 0.633311 0.308017 0.189842
O O1 0.417094 0.189677 0.849879
O O2 0.408398 0.277105 0.847675
O O3 0.872456 0.944555 0.500000
O O4 0.794739 0.944127 0.798190
O O5 0.895814 0.867180 0.696988
O O6 0.000000 0.946419 0.750000
O O7 0.599007 0.818912 0.500000
O O8 0.640005 0.895092 0.298291
O O9 0.746778 0.810944 0.301143
O O10 0.861026 0.500000 0.750000
O O11 0.857759 0.564448 0.000000
O O12 0.605413 0.288044 0.000000
#
# Coordination Sequence:
#
# PCOD9495824 Si02
#       5
#     8  16  16  16  16
#     4  12  19  28  50  70  92 124 150 193 248 285
#     4  10  21  35  50  69  92 125 167 213 251 290
#     4  10  19  31  45  69  95 118 153 196 239 291
#     4  11  21  35  51  68  92 126 166 212 253 290
#     4   9  19  30  44  68  95 118 152 196 239 289
#
# _framework density 25.921824000000001
#
# number of rings (size 3 to 8) (size 9 to 14) (size 15 to 20)
#    0.000    1.778    1.111    6.667    6.222    2.222 
#    0.000    2.222    0.000    0.000    0.000    0.000 
#    0.000    0.000    0.000    0.000    0.000    3.333 
#
# Total GULP energy -200802.176777 kJ/mol
# GULP energy per Si atom -5577.838244 kJ/mol
# Density = 2.586283 g / cm^3
# Si number density = 25.921824 Si / 1000 Ang^3
#
#
#
# Elastic Constant Matrix: (Units=GPa)
#
#
# Indices 1 2 3 4 5 6 
#
# 1 75.7613 -10.9258 50.6257 0.0000 0.0000 0.0000
# 2 -10.9258 216.9728 65.5429 0.0000 0.0000 0.0000
# 3 50.6257 65.5429 251.8056 0.0000 0.0000 0.0000
# 4 0.0000 0.0000 0.0000 37.5969 0.0000 0.0000
# 5 0.0000 0.0000 0.0000 0.0000 50.5170 0.0000
# 6 0.0000 0.0000 0.0000 0.0000 0.0000 -74.4722
#
#
#
# Elastic Compliance Matrix: (Units=1/GPa)
#
#
# Indices 1 2 3 4 5 6 
#
# 1 0.015955 0.001924 -0.003708 0.000000 0.000000 0.000000
# 2 0.001924 0.005234 -0.001749 0.000000 0.000000 0.000000
# 3 -0.003708 -0.001749 0.005172 0.000000 0.000000 0.000000
# 4 0.000000 0.000000 0.000000 0.026598 0.000000 0.000000
# 5 0.000000 0.000000 0.000000 0.000000 0.019795 0.000000
# 6 0.000000 0.000000 0.000000 0.000000 0.000000 -0.013428
#
#
# Mechanical properties :
#
#
# Convention : Reuss Voigt Hill
#
# Bulk Modulus (GPa) = 51.83150 83.89170 67.86160
# Shear Modulus (GPa) = 68.65721 32.01480 50.33601
#
# Velocity S-wave (km/s) = 5.15206 3.51814 4.41141
# Velocity P-wave (km/s) = 7.44516 6.99548 7.22382
#
# Compressibility (1/GPa) = 0.01929329
#
# Stress axis : x y z
#
# Youngs Moduli (GPa) = 62.67688 191.05407 193.34163
#
# Poissons Ratio (x) = -0.36752 0.71700
# Poissons Ratio (y) = -0.12057 0.33818
# Poissons Ratio (z) = 0.23243 0.33418
#
# Static dielectric constant tensor:
#      x y z
#    x 2.208100 0.000000 0.000000 
#    y 0.000000 2.041530 0.000000 
#    z 0.000000 0.000000 1.930190 
# 
# From -- ./inp_files/9043.got.cif
#   From: 2010.05.17/outbox.cif.g08.bks.cpg/sg66_5_cif.got.tgz:9043.got - 2010.06.03 17:51:23.
