data_PCOD9495358
_publ_section_title
;
Structure prediction by ZEFSAII (Michael W. Deem and Ramdas Pophale) SiO2 
 PCOD9495358
Probable space group: C C C M
;
_chemical_formula_sum "Si O2"
_cell_formula_units_Z 72
_cell_length_a 7.919260
_cell_length_b 22.707185
_cell_length_c 19.575318
_cell_angle_alpha 90.000000
_cell_angle_beta 90.000000
_cell_angle_gamma 90.000000
_cell_volume 3520.113978
_symmetry_space_group_name_H-M "C C C M"
_symmetry_group_IT_number 66
_symmetry_cell_setting 'orthorhombic'
loop_
_space_group_symop_operation_xyz
x,y,z
-x,-y,z
x,-y,1/2-z
-x,y,1/2-z
-x,-y,-z
x,y,-z
-x,y,1/2+z
x,-y,1/2+z
1/2+x,1/2+y,z
1/2-x,1/2-y,z
1/2+x,1/2-y,1/2-z
1/2-x,1/2+y,1/2-z
1/2-x,1/2-y,-z
1/2+x,1/2+y,-z
1/2-x,1/2+y,1/2+z
1/2+x,1/2-y,1/2+z
loop_
_atom_site_type_symbol
_atom_site_label
_atom_site_fract_x
_atom_site_fract_y
_atom_site_fract_z
Si Si1 0.388599 0.368910 0.424944
Si Si2 0.500000 0.500000 0.892153
Si Si3 0.331358 0.962276 0.580711
Si Si4 0.507269 0.161876 0.422064
Si Si5 0.551851 0.266762 0.828113
O O1 0.428102 0.344050 0.500000
O O2 0.448539 0.436304 0.423804
O O3 0.185394 0.363251 0.416220
O O4 0.470481 0.328297 0.367346
O O5 0.686133 0.517978 0.866901
O O6 0.279381 0.972288 0.500000
O O7 0.372819 0.893891 0.587731
O O8 0.500000 0.000000 0.590274
O O9 0.523887 0.183525 0.500000
O O10 0.537165 0.213863 0.368949
O O11 0.500000 0.270078 0.750000
O O12 0.750000 0.250000 0.832332
#
# Coordination Sequence:
#
# PCOD9495358 Si02
#       5
#    16   8  16  16  16
#     4  10  19  34  58  87 116 148 194 244 291 346
#     4  12  21  32  55  90 123 152 189 240 297 350
#     4  10  18  30  51  83 122 153 183 230 287 347
#     4   9  18  35  59  85 114 151 196 243 290 344
#     4  10  22  39  59  81 113 156 197 242 294 348
#
# _framework density 20.453883000000001
#
# number of rings (size 3 to 8) (size 9 to 14) (size 15 to 20)
#    0.000    2.000    2.222    2.667    0.000    4.444 
#    0.000    0.556    0.000    6.000    0.000    0.000 
#    0.000    0.000    0.000    0.000    0.000    0.000 
#
# Total GULP energy -200570.240350 kJ/mol
# GULP energy per Si atom -5571.395565 kJ/mol
# Density = 2.040733 g / cm^3
# Si number density = 20.453883 Si / 1000 Ang^3
#
#
#
# Elastic Constant Matrix: (Units=GPa)
#
#
# Indices 1 2 3 4 5 6 
#
# 1 65.1989 34.0922 21.8646 0.0000 0.0000 0.0000
# 2 34.0922 143.3773 73.2096 0.0000 0.0000 0.0000
# 3 21.8646 73.2096 93.0577 0.0000 0.0000 0.0000
# 4 0.0000 0.0000 0.0000 135.8421 0.0000 0.0000
# 5 0.0000 0.0000 0.0000 0.0000 143.2012 0.0000
# 6 0.0000 0.0000 0.0000 0.0000 0.0000 27.5298
#
#
#
# Elastic Compliance Matrix: (Units=1/GPa)
#
#
# Indices 1 2 3 4 5 6 
#
# 1 0.017626 -0.003471 -0.001411 0.000000 0.000000 0.000000
# 2 -0.003471 0.012341 -0.008893 0.000000 0.000000 0.000000
# 3 -0.001411 -0.008893 0.018074 0.000000 0.000000 0.000000
# 4 0.000000 0.000000 0.000000 0.007361 0.000000 0.000000
# 5 0.000000 0.000000 0.000000 0.000000 0.006983 0.000000
# 6 0.000000 0.000000 0.000000 0.000000 0.000000 0.036324
#
#
# Mechanical properties :
#
#
# Convention : Reuss Voigt Hill
#
# Bulk Modulus (GPa) = 48.80219 62.21853 55.51036
# Shear Modulus (GPa) = 37.56886 72.81245 55.19066
#
# Velocity S-wave (km/s) = 4.29039 5.97291 5.20015
# Velocity P-wave (km/s) = 6.96094 8.83473 7.95321
#
# Compressibility (1/GPa) = 0.02049088
#
# Stress axis : x y z
#
# Youngs Moduli (GPa) = 56.73571 81.03220 55.32834
#
# Poissons Ratio (x) = 0.28123 0.07806
# Poissons Ratio (y) = 0.19691 0.49205
# Poissons Ratio (z) = 0.08005 0.72064
#
# Static dielectric constant tensor:
#      x y z
#    x 1.806940 0.000000 0.000000 
#    y 0.000000 1.696870 0.000000 
#    z 0.000000 0.000000 1.700030 
# 
# From -- ./inp_files/36727.got.cif
#   From: 2010.05.17/outbox.cif.g08.bks.cpg/sg66_19_cif.got.tgz:36727.got - 2010.06.03 17:51:23.
