data_PCOD9495852
_publ_section_title
;
Structure prediction by ZEFSAII (Michael W. Deem and Ramdas Pophale) SiO2 
 PCOD9495852
Probable space group: C C C M
;
_chemical_formula_sum "Si O2"
_cell_formula_units_Z 116
_cell_length_a 28.379570
_cell_length_b 27.578261
_cell_length_c 8.147600
_cell_angle_alpha 90.000000
_cell_angle_beta 90.000000
_cell_angle_gamma 90.000000
_cell_volume 6376.794004
_symmetry_space_group_name_H-M "C C C M"
_symmetry_group_IT_number 66
_symmetry_cell_setting 'orthorhombic'
loop_
_space_group_symop_operation_xyz
x,y,z
-x,-y,z
x,-y,1/2-z
-x,y,1/2-z
-x,-y,-z
x,y,-z
-x,y,1/2+z
x,-y,1/2+z
1/2+x,1/2+y,z
1/2-x,1/2-y,z
1/2+x,1/2-y,1/2-z
1/2-x,1/2+y,1/2-z
1/2-x,1/2-y,-z
1/2+x,1/2+y,-z
1/2-x,1/2+y,1/2+z
1/2+x,1/2-y,1/2+z
loop_
_atom_site_type_symbol
_atom_site_label
_atom_site_fract_x
_atom_site_fract_y
_atom_site_fract_z
Si Si1 0.184355 0.426358 0.190749
Si Si2 0.446491 0.814644 0.697840
Si Si3 0.711596 0.447929 0.696412
Si Si4 0.361254 0.747775 0.694050
Si Si5 0.210710 0.324667 0.693454
Si Si6 0.917107 0.421985 0.698614
Si Si7 0.000000 0.500000 0.250000
Si Si8 0.817085 0.844407 0.305108
O O1 0.234219 0.443638 0.263658
O O2 0.186322 0.367987 0.206330
O O3 0.133736 0.439761 0.264362
O O4 0.184788 0.440963 0.000000
O O5 0.500000 0.805679 0.750000
O O6 0.445624 0.816045 0.500000
O O7 0.409222 0.773759 0.751849
O O8 0.429650 0.867789 0.758010
O O9 0.692634 0.500000 0.750000
O O10 0.713594 0.445301 0.500000
O O11 0.683582 0.400822 0.756894
O O12 0.357198 0.755889 0.500000
O O13 0.317791 0.775787 0.778128
O O14 0.355784 0.690966 0.729099
O O15 0.209505 0.336924 0.500000
O O16 0.265212 0.324571 0.746133
O O17 0.912978 0.419534 0.500000
O O18 0.959059 0.458207 0.736320
O O19 0.820374 0.840478 0.500000
#
# Coordination Sequence:
#
# PCOD9495852 Si02
#       8
#    16  16  16  16  16  16   4  16
#     4   9  18  34  51  67  95 132 172 216 264 319
#     4  10  21  38  56  74  99 132 172 220 271 329
#     4  10  20  34  54  76 104 141 176 212 258 308
#     4  11  21  34  53  75 102 137 172 210 266 325
#     4  10  19  31  49  75 103 131 167 212 261 313
#     4  10  20  36  50  66  93 126 170 224 278 324
#     4  12  22  32  52  70  92 124 178 236 288 316
#     4  10  21  35  51  76 109 136 172 217 256 310
#
# _framework density 18.19096
#
# number of rings (size 3 to 8) (size 9 to 14) (size 15 to 20)
#    0.000    1.931    2.069    2.276    0.966    4.966 
#    0.000    1.379    0.000    0.000    0.000    0.000 
#    0.000    0.552    0.000    5.793    0.000    3.172 
#
# Total GULP energy -323218.081788 kJ/mol
# GULP energy per Si atom -5572.725548 kJ/mol
# Density = 1.814956 g / cm^3
# Si number density = 18.190960 Si / 1000 Ang^3
#
#
#
# Elastic Constant Matrix: (Units=GPa)
#
#
# Indices 1 2 3 4 5 6 
#
# 1 67.0168 57.7294 8.6171 0.0000 0.0000 0.0000
# 2 57.7294 126.3788 0.3004 0.0000 0.0000 0.0000
# 3 8.6171 0.3004 23.0331 0.0000 0.0000 0.0000
# 4 0.0000 0.0000 0.0000 27.8414 0.0000 0.0000
# 5 0.0000 0.0000 0.0000 0.0000 13.0437 0.0000
# 6 0.0000 0.0000 0.0000 0.0000 0.0000 -32.0082
#
#
#
# Elastic Compliance Matrix: (Units=1/GPa)
#
#
# Indices 1 2 3 4 5 6 
#
# 1 0.026649 -0.012150 -0.009812 0.000000 0.000000 0.000000
# 2 -0.012150 0.013452 0.004370 0.000000 0.000000 0.000000
# 3 -0.009812 0.004370 0.047029 0.000000 0.000000 0.000000
# 4 0.000000 0.000000 0.000000 0.035918 0.000000 0.000000
# 5 0.000000 0.000000 0.000000 0.000000 0.076665 0.000000
# 6 0.000000 0.000000 0.000000 0.000000 0.000000 -0.031242
#
#
# Mechanical properties :
#
#
# Convention : Reuss Voigt Hill
#
# Bulk Modulus (GPa) = 19.24994 38.85808 29.05401
# Shear Modulus (GPa) = 22.62736 11.76085 17.19410
#
# Velocity S-wave (km/s) = 3.53069 2.54544 3.07775
# Velocity P-wave (km/s) = 5.21787 5.48148 5.35130
#
# Compressibility (1/GPa) = 0.05194821
#
# Stress axis : x y z
#
# Youngs Moduli (GPa) = 37.52417 74.33596 21.26329
#
# Poissons Ratio (x) = 0.90319 0.20863
# Poissons Ratio (y) = 0.45592 -0.09292
# Poissons Ratio (z) = 0.36817 -0.32486
#
# Static dielectric constant tensor:
#      x y z
#    x 1.632990 0.000000 0.000000 
#    y 0.000000 1.643430 0.000000 
#    z 0.000000 0.000000 1.654750 
# 
# From -- ./inp_files/9617.got.cif
#   From: 2010.05.17/outbox.cif.g08.bks.cpg/sg66_5_cif.got.tgz:9617.got - 2010.06.03 17:51:23.
