data_PCOD9495740
_publ_section_title
;
Structure prediction by ZEFSAII (Michael W. Deem and Ramdas Pophale) SiO2 
 PCOD9495740
Probable space group: C C C M
;
_chemical_formula_sum "Si O2"
_cell_formula_units_Z 112
_cell_length_a 22.750314
_cell_length_b 17.266502
_cell_length_c 11.270745
_cell_angle_alpha 90.000000
_cell_angle_beta 90.000000
_cell_angle_gamma 90.000000
_cell_volume 4427.355366
_symmetry_space_group_name_H-M "C C C M"
_symmetry_group_IT_number 66
_symmetry_cell_setting 'orthorhombic'
loop_
_space_group_symop_operation_xyz
x,y,z
-x,-y,z
x,-y,1/2-z
-x,y,1/2-z
-x,-y,-z
x,y,-z
-x,y,1/2+z
x,-y,1/2+z
1/2+x,1/2+y,z
1/2-x,1/2-y,z
1/2+x,1/2-y,1/2-z
1/2-x,1/2+y,1/2-z
1/2-x,1/2-y,-z
1/2+x,1/2+y,-z
1/2-x,1/2+y,1/2+z
1/2+x,1/2-y,1/2+z
loop_
_atom_site_type_symbol
_atom_site_label
_atom_site_fract_x
_atom_site_fract_y
_atom_site_fract_z
Si Si1 0.509968 0.256480 0.873282
Si Si2 0.531286 0.908865 0.127267
Si Si3 0.157206 0.417418 0.869689
Si Si4 0.138358 0.324060 0.371146
Si Si5 0.215973 0.076534 0.871258
Si Si6 0.185538 0.842976 0.868830
Si Si7 0.401786 0.528454 0.129282
O O1 0.500000 0.300616 0.750000
O O2 0.462812 0.185264 0.872229
O O3 0.572237 0.211222 0.870549
O O4 0.504471 0.297841 0.000000
O O5 0.500000 0.924068 0.250000
O O6 0.592762 0.954275 0.126626
O O7 0.501106 0.922213 0.000000
O O8 0.152119 0.370914 0.747006
O O9 0.219185 0.461514 0.868985
O O10 0.158708 0.375211 0.000000
O O11 0.145794 0.363756 0.500000
O O12 0.179296 0.248531 0.368746
O O13 0.213479 0.128374 0.753627
O O14 0.161053 0.018381 0.870086
O O15 0.211207 0.117733 0.000000
O O16 0.120340 0.882882 0.864474
O O17 0.209504 0.866219 0.000000
O O18 0.431590 0.500000 0.250000
O O19 0.428891 0.514139 0.000000
#
# Coordination Sequence:
#
# PCOD9495740 Si02
#       7
#    16  16  16  16  16  16  16
#     4   9  15  25  41  59  81 115 152 182 215 256
#     4   9  15  25  41  59  81 115 152 182 215 256
#     4  10  19  29  42  63  91 122 155 186 219 265
#     4  10  19  29  42  63  91 122 155 186 219 265
#     4   9  18  31  46  64  87 116 151 189 228 265
#     4   9  18  31  46  64  87 116 151 189 228 265
#     4   8  14  28  48  64  80 106 142 186 228 262
#
# _framework density 25.297269
#
# number of rings (size 3 to 8) (size 9 to 14) (size 15 to 20)
#    0.000    2.857    2.857    0.000    0.000    1.714 
#    0.000    2.857    0.000    0.000    0.000    0.000 
#    0.000   10.286    0.000  117.143    0.000    6.857 
#
# Total GULP energy -311934.905030 kJ/mol
# GULP energy per Si atom -5570.266161 kJ/mol
# Density = 2.523969 g / cm^3
# Si number density = 25.297269 Si / 1000 Ang^3
#
#
#
# Elastic Constant Matrix: (Units=GPa)
#
#
# Indices 1 2 3 4 5 6 
#
# 1 92.7007 -0.5544 22.9411 0.0000 0.0000 0.0000
# 2 -0.5544 34.3365 40.8756 0.0000 0.0000 0.0000
# 3 22.9411 40.8756 350.6946 0.0000 0.0000 0.0000
# 4 0.0000 0.0000 0.0000 31.8179 0.0000 0.0000
# 5 0.0000 0.0000 0.0000 0.0000 -13.9204 0.0000
# 6 0.0000 0.0000 0.0000 0.0000 0.0000 3.1703
#
#
#
# Elastic Compliance Matrix: (Units=1/GPa)
#
#
# Indices 1 2 3 4 5 6 
#
# 1 0.011007 0.001202 -0.000860 0.000000 0.000000 0.000000
# 2 0.001202 0.033947 -0.004035 0.000000 0.000000 0.000000
# 3 -0.000860 -0.004035 0.003378 0.000000 0.000000 0.000000
# 4 0.000000 0.000000 0.000000 0.031429 0.000000 0.000000
# 5 0.000000 0.000000 0.000000 0.000000 -0.071837 0.000000
# 6 0.000000 0.000000 0.000000 0.000000 0.000000 0.315427
#
#
# Mechanical properties :
#
#
# Convention : Reuss Voigt Hill
#
# Bulk Modulus (GPa) = 24.42316 67.13959 45.78138
# Shear Modulus (GPa) = 14.51855 31.84487 23.18171
#
# Velocity S-wave (km/s) = 2.39826 3.55184 3.03045
# Velocity P-wave (km/s) = 4.16465 6.58928 5.51194
#
# Compressibility (1/GPa) = 0.04094474
#
# Stress axis : x y z
#
# Youngs Moduli (GPa) = 90.84756 29.45790 296.02526
#
# Poissons Ratio (x) = -0.03540 0.25462
# Poissons Ratio (y) = -0.10917 1.19455
# Poissons Ratio (z) = 0.07814 0.11887
#
# Static dielectric constant tensor:
#      x y z
#    x 2.070930 0.000000 0.000000 
#    y 0.000000 2.012560 0.000000 
#    z 0.000000 0.000000 2.054040 
# 
# From -- ./inp_files/19941.got.cif
#   From: 2010.05.17/outbox.cif.g08.bks.cpg/sg66_10_cif.got.tgz:19941.got - 2010.06.03 17:51:23.
