data_PCOD9495987
_publ_section_title
;
Structure prediction by ZEFSAII (Michael W. Deem and Ramdas Pophale) SiO2 
 PCOD9495987
Probable space group: C C C M
;
_chemical_formula_sum "Si O2"
_cell_formula_units_Z 64
_cell_length_a 5.069239
_cell_length_b 18.553290
_cell_length_c 33.812211
_cell_angle_alpha 90.000000
_cell_angle_beta 90.000000
_cell_angle_gamma 90.000000
_cell_volume 3180.074328
_symmetry_space_group_name_H-M "C C C M"
_symmetry_group_IT_number 66
_symmetry_cell_setting 'orthorhombic'
loop_
_space_group_symop_operation_xyz
x,y,z
-x,-y,z
x,-y,1/2-z
-x,y,1/2-z
-x,-y,-z
x,y,-z
-x,y,1/2+z
x,-y,1/2+z
1/2+x,1/2+y,z
1/2-x,1/2-y,z
1/2+x,1/2-y,1/2-z
1/2-x,1/2+y,1/2-z
1/2-x,1/2-y,-z
1/2+x,1/2+y,-z
1/2-x,1/2+y,1/2+z
1/2+x,1/2-y,1/2+z
loop_
_atom_site_type_symbol
_atom_site_label
_atom_site_fract_x
_atom_site_fract_y
_atom_site_fract_z
Si Si1 0.750000 0.250000 0.410158
Si Si2 0.369740 0.168494 0.545117
Si Si3 0.250000 0.750000 0.724143
Si Si4 0.893118 0.151562 0.347101
Si Si5 0.630314 0.078164 0.120037
O O1 0.663909 0.186618 0.439568
O O2 0.955590 0.215203 0.378999
O O3 0.350576 0.144835 0.500000
O O4 0.250000 0.250000 0.547528
O O5 0.283921 0.109613 0.577163
O O6 0.500000 0.774792 0.750000
O O7 0.136875 0.812444 0.695458
O O8 0.606077 0.124689 0.360850
O O9 0.113774 0.090669 0.352541
O O10 0.500000 0.000000 0.116288
#
# Coordination Sequence:
#
# PCOD9495987 Si02
#       5
#     8  16   8  16  16
#     4   9  17  32  55  78 112 152 198 250 303 352
#     4  10  19  32  53  80 116 156 206 263 313 348
#     4  11  22  38  67 102 127 144 185 254 313 364
#     4  10  21  37  61  86 120 153 197 240 298 366
#     4  11  22  38  58  84 120 166 207 246 293 360
#
# _framework density 20.125313999999999
#
# number of rings (size 3 to 8) (size 9 to 14) (size 15 to 20)
#    0.000    1.750    2.500    2.625    0.000    0.500 
#    0.000    0.000    0.000   15.750    0.000    0.000 
#    0.000    0.000    0.000    0.000    0.000    0.000 
#
# Total GULP energy -178152.664963 kJ/mol
# GULP energy per Si atom -5567.270780 kJ/mol
# Density = 2.007951 g / cm^3
# Si number density = 20.125314 Si / 1000 Ang^3
#
#
#
# Elastic Constant Matrix: (Units=GPa)
#
#
# Indices 1 2 3 4 5 6 
#
# 1 91.3321 18.5279 43.3761 0.0000 0.0000 0.0000
# 2 18.5279 86.9735 43.3013 0.0000 0.0000 0.0000
# 3 43.3761 43.3013 137.7104 0.0000 0.0000 0.0000
# 4 0.0000 0.0000 0.0000 12.8862 0.0000 0.0000
# 5 0.0000 0.0000 0.0000 0.0000 22.5134 0.0000
# 6 0.0000 0.0000 0.0000 0.0000 0.0000 38.6350
#
#
#
# Elastic Compliance Matrix: (Units=1/GPa)
#
#
# Indices 1 2 3 4 5 6 
#
# 1 0.012929 -0.000862 -0.003802 0.000000 0.000000 0.000000
# 2 -0.000862 0.013689 -0.004033 0.000000 0.000000 0.000000
# 3 -0.003802 -0.004033 0.009727 0.000000 0.000000 0.000000
# 4 0.000000 0.000000 0.000000 0.077602 0.000000 0.000000
# 5 0.000000 0.000000 0.000000 0.000000 0.044418 0.000000
# 6 0.000000 0.000000 0.000000 0.000000 0.000000 0.025883
#
#
# Mechanical properties :
#
#
# Convention : Reuss Voigt Hill
#
# Bulk Modulus (GPa) = 52.76129 58.49184 55.62656
# Shear Modulus (GPa) = 24.04314 28.86097 26.45206
#
# Velocity S-wave (km/s) = 3.46015 3.79101 3.62935
# Velocity P-wave (km/s) = 6.49899 6.94905 6.72778
#
# Compressibility (1/GPa) = 0.01895329
#
# Stress axis : x y z
#
# Youngs Moduli (GPa) = 77.34365 73.05019 102.80501
#
# Poissons Ratio (x) = 0.06294 0.39082
# Poissons Ratio (y) = 0.06664 0.41461
# Poissons Ratio (z) = 0.29403 0.29461
#
# Static dielectric constant tensor:
#      x y z
#    x 1.845970 0.000000 0.000000 
#    y 0.000000 1.779570 0.000000 
#    z 0.000000 0.000000 1.705530 
# 
# From -- ./inp_files/66985.got.cif
#   From: 2010.05.17/outbox.cif.g08.bks.cpg/sg66_34_cif.got.tgz:66985.got - 2010.06.03 17:51:23.
