data_PCOD9495141
_publ_section_title
;
Structure prediction by ZEFSAII (Michael W. Deem and Ramdas Pophale) SiO2 
 PCOD9495141
Probable space group: C C C M
;
_chemical_formula_sum "Si O2"
_cell_formula_units_Z 96
_cell_length_a 21.046340
_cell_length_b 27.375570
_cell_length_c 8.393729
_cell_angle_alpha 90.000000
_cell_angle_beta 90.000000
_cell_angle_gamma 90.000000
_cell_volume 4836.093581
_symmetry_space_group_name_H-M "C C C M"
_symmetry_group_IT_number 66
_symmetry_cell_setting 'orthorhombic'
loop_
_space_group_symop_operation_xyz
x,y,z
-x,-y,z
x,-y,1/2-z
-x,y,1/2-z
-x,-y,-z
x,y,-z
-x,y,1/2+z
x,-y,1/2+z
1/2+x,1/2+y,z
1/2-x,1/2-y,z
1/2+x,1/2-y,1/2-z
1/2-x,1/2+y,1/2-z
1/2-x,1/2-y,-z
1/2+x,1/2+y,-z
1/2-x,1/2+y,1/2+z
1/2+x,1/2-y,1/2+z
loop_
_atom_site_type_symbol
_atom_site_label
_atom_site_fract_x
_atom_site_fract_y
_atom_site_fract_z
Si Si1 0.187609 0.445568 0.807979
Si Si2 0.306085 0.611905 0.686543
Si Si3 0.912540 0.276808 0.820822
Si Si4 0.569524 0.667431 0.809446
Si Si5 0.566065 0.115847 0.191845
Si Si6 0.290036 0.201501 0.826767
O O1 0.173746 0.500000 0.750000
O O2 0.258454 0.429682 0.747674
O O3 0.130391 0.410315 0.750641
O O4 0.188831 0.443157 0.000000
O O5 0.318155 0.599863 0.500000
O O6 0.373088 0.632484 0.752741
O O7 0.258546 0.657855 0.692895
O O8 0.921748 0.224578 0.738172
O O9 0.936080 0.327865 0.747431
O O10 0.838107 0.289269 0.814695
O O11 0.937338 0.271571 0.000000
O O12 0.500000 0.652067 0.750000
O O13 0.571897 0.665739 0.000000
O O14 0.500000 0.092007 0.250000
O O15 0.567534 0.116901 0.000000
O O16 0.250000 0.250000 0.838804
O O17 0.323367 0.194787 0.000000
#
# Coordination Sequence:
#
# PCOD9495141 Si02
#       6
#    16  16  16  16  16  16
#     4  11  23  42  66  89 112 143 186 240 297 350
#     4   9  19  36  60  83 111 152 192 232 287 349
#     4  11  22  34  52  84 121 158 196 237 276 323
#     4  11  22  38  57  84 119 158 199 235 280 342
#     4  11  24  40  58  84 118 157 197 237 280 333
#     4  10  17  31  54  80 109 151 194 231 278 335
#
# _framework density 19.850733999999999
#
# number of rings (size 3 to 8) (size 9 to 14) (size 15 to 20)
#    0.000    1.500    3.333    2.500    0.000    4.000 
#    0.000    5.000    0.000    0.500    0.000    3.500 
#    0.000    0.000    0.000    0.000    0.000    0.000 
#
# Total GULP energy -267401.916288 kJ/mol
# GULP energy per Si atom -5570.873256 kJ/mol
# Density = 1.980555 g / cm^3
# Si number density = 19.850734 Si / 1000 Ang^3
#
#
#
# Elastic Constant Matrix: (Units=GPa)
#
#
# Indices 1 2 3 4 5 6 
#
# 1 148.7770 48.3920 27.1670 0.0000 0.0000 0.0000
# 2 48.3920 66.3154 11.3856 0.0000 0.0000 0.0000
# 3 27.1670 11.3856 42.6911 0.0000 0.0000 0.0000
# 4 0.0000 0.0000 0.0000 5.5907 0.0000 0.0000
# 5 0.0000 0.0000 0.0000 0.0000 27.4795 0.0000
# 6 0.0000 0.0000 0.0000 0.0000 0.0000 2.6494
#
#
#
# Elastic Compliance Matrix: (Units=1/GPa)
#
#
# Indices 1 2 3 4 5 6 
#
# 1 0.009548 -0.006209 -0.004420 0.000000 0.000000 0.000000
# 2 -0.006209 0.019840 -0.001340 0.000000 0.000000 0.000000
# 3 -0.004420 -0.001340 0.026594 0.000000 0.000000 0.000000
# 4 0.000000 0.000000 0.000000 0.178870 0.000000 0.000000
# 5 0.000000 0.000000 0.000000 0.000000 0.036391 0.000000
# 6 0.000000 0.000000 0.000000 0.000000 0.000000 0.377451
#
#
# Mechanical properties :
#
#
# Convention : Reuss Voigt Hill
#
# Bulk Modulus (GPa) = 31.20685 47.96364 39.58525
# Shear Modulus (GPa) = 7.31728 18.53317 12.92523
#
# Velocity S-wave (km/s) = 1.92202 3.05884 2.55448
# Velocity P-wave (km/s) = 4.54757 6.05723 5.35586
#
# Compressibility (1/GPa) = 0.03204424
#
# Stress axis : x y z
#
# Youngs Moduli (GPa) = 104.73370 50.40301 37.60182
#
# Poissons Ratio (x) = 0.31293 0.16621
# Poissons Ratio (y) = 0.65024 0.05040
# Poissons Ratio (z) = 0.46295 0.06756
#
# Static dielectric constant tensor:
#      x y z
#    x 1.760960 0.000000 0.000000 
#    y 0.000000 1.717980 0.000000 
#    z 0.000000 0.000000 1.789360 
# 
# From -- ./inp_files/8054.got.cif
#   From: 2010.05.17/outbox.cif.g08.bks.cpg/sg66_5_cif.got.tgz:8054.got - 2010.06.03 17:51:23.
