data_PCOD9495293
_publ_section_title
;
Structure prediction by ZEFSAII (Michael W. Deem and Ramdas Pophale) SiO2 
 PCOD9495293
Probable space group: C C C M
;
_chemical_formula_sum "Si O2"
_cell_formula_units_Z 72
_cell_length_a 19.042918
_cell_length_b 7.094445
_cell_length_c 23.626688
_cell_angle_alpha 90.000000
_cell_angle_beta 90.000000
_cell_angle_gamma 90.000000
_cell_volume 3191.940372
_symmetry_space_group_name_H-M "C C C M"
_symmetry_group_IT_number 66
_symmetry_cell_setting 'orthorhombic'
loop_
_space_group_symop_operation_xyz
x,y,z
-x,-y,z
x,-y,1/2-z
-x,y,1/2-z
-x,-y,-z
x,y,-z
-x,y,1/2+z
x,-y,1/2+z
1/2+x,1/2+y,z
1/2-x,1/2-y,z
1/2+x,1/2-y,1/2-z
1/2-x,1/2+y,1/2-z
1/2-x,1/2-y,-z
1/2+x,1/2+y,-z
1/2-x,1/2+y,1/2+z
1/2+x,1/2-y,1/2+z
loop_
_atom_site_type_symbol
_atom_site_label
_atom_site_fract_x
_atom_site_fract_y
_atom_site_fract_z
Si Si1 0.342911 0.601960 0.146856
Si Si2 0.136304 0.658510 0.658239
Si Si3 0.767230 0.476828 0.436066
Si Si4 0.750000 0.750000 0.252386
Si Si5 0.010596 0.777169 0.182463
O O1 0.361798 0.381690 0.145169
O O2 0.296328 0.602069 0.089717
O O3 0.294869 0.628846 0.202382
O O4 0.409809 0.735331 0.159231
O O5 0.171165 0.529935 0.610309
O O6 0.189849 0.656886 0.711936
O O7 0.052542 0.640888 0.663125
O O8 0.785109 0.530592 0.500000
O O9 0.750000 0.250000 0.437750
O O10 0.000000 0.764143 0.250000
O O11 0.000000 0.000000 0.169122
#
# Coordination Sequence:
#
# PCOD9495293 Si02
#       5
#    16  16  16   8  16
#     4  10  19  30  47  76 103 130 164 212 260 314
#     4  10  18  29  49  76 101 131 165 210 262 316
#     4   9  18  33  51  71  99 139 180 213 247 303
#     4  12  18  26  48  78 102 126 162 210 268 320
#     4   9  16  26  44  71 107 126 150 204 275 312
#
# _framework density 22.556809999999999
#
# number of rings (size 3 to 8) (size 9 to 14) (size 15 to 20)
#    0.000    2.222    5.556    0.667    0.000    0.000 
#    0.000    1.667    0.000    8.000    5.778    1.556 
#    0.000    0.000    0.000    0.000    0.000    0.000 
#
# Total GULP energy -200404.430712 kJ/mol
# GULP energy per Si atom -5566.789742 kJ/mol
# Density = 2.250547 g / cm^3
# Si number density = 22.556810 Si / 1000 Ang^3
#
#
#
# Elastic Constant Matrix: (Units=GPa)
#
#
# Indices 1 2 3 4 5 6 
#
# 1 192.8826 61.9721 93.5252 0.0000 0.0000 0.0000
# 2 61.9721 68.7559 37.0678 0.0000 0.0000 0.0000
# 3 93.5252 37.0678 161.8029 0.0000 0.0000 0.0000
# 4 0.0000 0.0000 0.0000 20.7082 0.0000 0.0000
# 5 0.0000 0.0000 0.0000 0.0000 15.1591 0.0000
# 6 0.0000 0.0000 0.0000 0.0000 0.0000 60.9711
#
#
#
# Elastic Compliance Matrix: (Units=1/GPa)
#
#
# Indices 1 2 3 4 5 6 
#
# 1 0.008965 -0.006032 -0.003800 0.000000 0.000000 0.000000
# 2 -0.006032 0.020652 -0.001245 0.000000 0.000000 0.000000
# 3 -0.003800 -0.001245 0.008662 0.000000 0.000000 0.000000
# 4 0.000000 0.000000 0.000000 0.048290 0.000000 0.000000
# 5 0.000000 0.000000 0.000000 0.000000 0.065967 0.000000
# 6 0.000000 0.000000 0.000000 0.000000 0.000000 0.016401
#
#
# Mechanical properties :
#
#
# Convention : Reuss Voigt Hill
#
# Bulk Modulus (GPa) = 62.01252 89.84127 75.92689
# Shear Modulus (GPa) = 25.44971 34.75944 30.10458
#
# Velocity S-wave (km/s) = 3.36259 3.92978 3.65720
# Velocity P-wave (km/s) = 6.52896 7.77858 7.18100
#
# Compressibility (1/GPa) = 0.01612578
#
# Stress axis : x y z
#
# Youngs Moduli (GPa) = 111.54338 48.42162 115.44575
#
# Poissons Ratio (x) = 0.29207 0.43871
# Poissons Ratio (y) = 0.67281 0.14369
# Poissons Ratio (z) = 0.42388 0.06027
#
# Static dielectric constant tensor:
#      x y z
#    x 1.958570 0.000000 0.000000 
#    y 0.000000 2.035240 0.000000 
#    z 0.000000 0.000000 1.788750 
# 
# From -- ./inp_files/58630.got.cif
#   From: 2010.05.17/outbox.cif.g08.bks.cpg/sg66_30_cif.got.tgz:58630.got - 2010.06.03 17:51:23.
