data_PCOD9495612
_publ_section_title
;
Structure prediction by ZEFSAII (Michael W. Deem and Ramdas Pophale) SiO2 
 PCOD9495612
Probable space group: C C C M
;
_chemical_formula_sum "Si O2"
_cell_formula_units_Z 64
_cell_length_a 13.691973
_cell_length_b 11.197780
_cell_length_c 19.388013
_cell_angle_alpha 90.000000
_cell_angle_beta 90.000000
_cell_angle_gamma 90.000000
_cell_volume 2972.564364
_symmetry_space_group_name_H-M "C C C M"
_symmetry_group_IT_number 66
_symmetry_cell_setting 'orthorhombic'
loop_
_space_group_symop_operation_xyz
x,y,z
-x,-y,z
x,-y,1/2-z
-x,y,1/2-z
-x,-y,-z
x,y,-z
-x,y,1/2+z
x,-y,1/2+z
1/2+x,1/2+y,z
1/2-x,1/2-y,z
1/2+x,1/2-y,1/2-z
1/2-x,1/2+y,1/2-z
1/2-x,1/2-y,-z
1/2+x,1/2+y,-z
1/2-x,1/2+y,1/2+z
1/2+x,1/2-y,1/2+z
loop_
_atom_site_type_symbol
_atom_site_label
_atom_site_fract_x
_atom_site_fract_y
_atom_site_fract_z
Si Si1 0.608646 0.619795 0.282898
Si Si2 0.607441 0.938397 0.922234
Si Si3 0.792236 0.116439 0.076746
Si Si4 0.387572 0.131187 0.773145
O O1 0.652019 0.500000 0.250000
O O2 0.500000 0.623184 0.250000
O O3 0.626807 0.604111 0.364126
O O4 0.650414 0.748944 0.262324
O O5 0.617753 0.855222 0.855682
O O6 0.500000 0.000000 0.916244
O O7 0.697014 0.031732 0.915176
O O8 0.612511 0.886992 0.000000
O O9 0.750000 0.250000 0.079501
O O10 0.832560 0.095149 0.000000
O O11 0.500000 0.126756 0.750000
O O12 0.350956 0.000000 0.750000
#
# Coordination Sequence:
#
# PCOD9495612 Si02
#       4
#    16  16  16  16
#     4  10  23  42  60  88 130 176 220 266 337 406
#     4  10  20  36  60  95 134 169 216 281 341 392
#     4  10  22  39  63  95 130 173 223 274 334 409
#     4  10  18  34  60  90 121 164 219 270 324 378
#
# _framework density 21.530231000000001
#
# number of rings (size 3 to 8) (size 9 to 14) (size 15 to 20)
#    0.000    2.000    2.500    1.500    3.500    3.000 
#    0.000    3.750    0.000    3.000    0.000    0.000 
#    0.000    0.000    0.000    0.000    0.000    0.000 
#
# Total GULP energy -178327.898135 kJ/mol
# GULP energy per Si atom -5572.746817 kJ/mol
# Density = 2.148123 g / cm^3
# Si number density = 21.530231 Si / 1000 Ang^3
#
#
#
# Elastic Constant Matrix: (Units=GPa)
#
#
# Indices 1 2 3 4 5 6 
#
# 1 139.5673 14.7948 53.9823 0.0000 0.0000 0.0000
# 2 14.7948 127.7165 44.6321 0.0000 0.0000 0.0000
# 3 53.9823 44.6321 237.5222 0.0000 0.0000 0.0000
# 4 0.0000 0.0000 0.0000 8.3204 0.0000 0.0000
# 5 0.0000 0.0000 0.0000 0.0000 58.8670 0.0000
# 6 0.0000 0.0000 0.0000 0.0000 0.0000 -35.0576
#
#
#
# Elastic Compliance Matrix: (Units=1/GPa)
#
#
# Indices 1 2 3 4 5 6 
#
# 1 0.007867 -0.000307 -0.001730 0.000000 0.000000 0.000000
# 2 -0.000307 0.008392 -0.001507 0.000000 0.000000 0.000000
# 3 -0.001730 -0.001507 0.004887 0.000000 0.000000 0.000000
# 4 0.000000 0.000000 0.000000 0.120187 0.000000 0.000000
# 5 0.000000 0.000000 0.000000 0.000000 0.016987 0.000000
# 6 0.000000 0.000000 0.000000 0.000000 0.000000 -0.028524
#
#
# Mechanical properties :
#
#
# Convention : Reuss Voigt Hill
#
# Bulk Modulus (GPa) = 71.13826 81.29161 76.21493
# Shear Modulus (GPa) = 35.31837 32.51908 33.91872
#
# Velocity S-wave (km/s) = 4.05459 3.89059 3.97344
# Velocity P-wave (km/s) = 7.41838 7.61716 7.51843
#
# Compressibility (1/GPa) = 0.01405713
#
# Stress axis : x y z
#
# Youngs Moduli (GPa) = 127.11728 119.15989 204.64121
#
# Poissons Ratio (x) = 0.03654 0.35409
# Poissons Ratio (y) = 0.03898 0.30844
# Poissons Ratio (z) = 0.21995 0.17960
#
# Static dielectric constant tensor:
#      x y z
#    x 1.780170 0.000000 0.000000 
#    y 0.000000 1.777150 0.000000 
#    z 0.000000 0.000000 1.803540 
# 
# From -- ./inp_files/39806.got.cif
#   From: 2010.05.17/outbox.cif.g08.bks.cpg/sg66_20_cif.got.tgz:39806.got - 2010.06.03 17:51:23.
