data_PCOD9495290
_publ_section_title
;
Structure prediction by ZEFSAII (Michael W. Deem and Ramdas Pophale) SiO2 
 PCOD9495290
Probable space group: C C C M
;
_chemical_formula_sum "Si O2"
_cell_formula_units_Z 96
_cell_length_a 24.142775
_cell_length_b 14.279621
_cell_length_c 16.670945
_cell_angle_alpha 90.000000
_cell_angle_beta 90.000000
_cell_angle_gamma 90.000000
_cell_volume 5747.302902
_symmetry_space_group_name_H-M "C C C M"
_symmetry_group_IT_number 66
_symmetry_cell_setting 'orthorhombic'
loop_
_space_group_symop_operation_xyz
x,y,z
-x,-y,z
x,-y,1/2-z
-x,y,1/2-z
-x,-y,-z
x,y,-z
-x,y,1/2+z
x,-y,1/2+z
1/2+x,1/2+y,z
1/2-x,1/2-y,z
1/2+x,1/2-y,1/2-z
1/2-x,1/2+y,1/2-z
1/2-x,1/2-y,-z
1/2+x,1/2+y,-z
1/2-x,1/2+y,1/2+z
1/2+x,1/2-y,1/2+z
loop_
_atom_site_type_symbol
_atom_site_label
_atom_site_fract_x
_atom_site_fract_y
_atom_site_fract_z
Si Si1 0.015809 0.895853 0.404495
Si Si2 0.876868 0.805624 0.826131
Si Si3 0.448779 0.754918 0.812859
Si Si4 0.941245 0.449455 0.096245
Si Si5 0.851554 0.604646 0.903546
Si Si6 0.269369 0.358638 0.908102
O O1 0.020139 0.895249 0.500000
O O2 0.073462 0.862086 0.367259
O O3 0.970204 0.821900 0.375412
O O4 0.000000 0.000000 0.376982
O O5 0.896368 0.784970 0.735901
O O6 0.871144 0.702532 0.865867
O O7 0.820155 0.859579 0.846658
O O8 0.500000 0.767390 0.750000
O O9 0.437806 0.852980 0.855903
O O10 0.892392 0.521013 0.119364
O O11 0.000000 0.500000 0.112011
O O12 0.938195 0.432666 0.000000
O O13 0.786809 0.587800 0.884340
O O14 0.854426 0.615604 0.000000
O O15 0.250000 0.250000 0.911327
O O16 0.286058 0.383714 0.000000
#
# Coordination Sequence:
#
# PCOD9495290 Si02
#       6
#    16  16  16  16  16  16
#     4  10  20  34  52  71  91 122 165 208 247 290
#     4  10  18  29  49  73 100 128 155 201 259 297
#     4  10  21  31  45  70 101 132 160 199 251 305
#     4  10  19  31  48  71 104 144 176 200 238 300
#     4   9  17  29  49  76 102 130 166 205 239 282
#     4   8  14  27  48  72  95 121 160 205 242 279
#
# _framework density 16.703486999999999
#
# number of rings (size 3 to 8) (size 9 to 14) (size 15 to 20)
#    0.000    2.500    0.000    5.000    0.000    6.667 
#    0.000    0.000    0.000   12.000    0.000    0.000 
#    0.000   18.667    0.000    0.667    0.000    0.000 
#
# Total GULP energy -267584.397077 kJ/mol
# GULP energy per Si atom -5574.674939 kJ/mol
# Density = 1.666547 g / cm^3
# Si number density = 16.703487 Si / 1000 Ang^3
#
#
#
# Elastic Constant Matrix: (Units=GPa)
#
#
# Indices 1 2 3 4 5 6 
#
# 1 120.5060 45.7496 33.0873 0.0000 0.0000 0.0000
# 2 45.7496 84.5264 22.1191 0.0000 0.0000 0.0000
# 3 33.0873 22.1191 28.5182 0.0000 0.0000 0.0000
# 4 0.0000 0.0000 0.0000 8.2409 0.0000 0.0000
# 5 0.0000 0.0000 0.0000 0.0000 23.7119 0.0000
# 6 0.0000 0.0000 0.0000 0.0000 0.0000 27.6209
#
#
#
# Elastic Compliance Matrix: (Units=1/GPa)
#
#
# Indices 1 2 3 4 5 6 
#
# 1 0.013136 -0.003916 -0.012203 0.000000 0.000000 0.000000
# 2 -0.003916 0.016011 -0.007874 0.000000 0.000000 0.000000
# 3 -0.012203 -0.007874 0.055331 0.000000 0.000000 0.000000
# 4 0.000000 0.000000 0.000000 0.121346 0.000000 0.000000
# 5 0.000000 0.000000 0.000000 0.000000 0.042173 0.000000
# 6 0.000000 0.000000 0.000000 0.000000 0.000000 0.036204
#
#
# Mechanical properties :
#
#
# Convention : Reuss Voigt Hill
#
# Bulk Modulus (GPa) = 27.40459 48.38477 37.89468
# Shear Modulus (GPa) = 14.52009 20.75440 17.63724
#
# Velocity S-wave (km/s) = 2.95156 3.52876 3.25299
# Velocity P-wave (km/s) = 5.29696 6.75519 6.07002
#
# Compressibility (1/GPa) = 0.03649024
#
# Stress axis : x y z
#
# Youngs Moduli (GPa) = 76.12866 62.45712 18.07320
#
# Poissons Ratio (x) = 0.24461 0.22054
# Poissons Ratio (y) = 0.29815 0.14232
# Poissons Ratio (z) = 0.92897 0.49182
#
# Static dielectric constant tensor:
#      x y z
#    x 1.585660 0.000000 0.000000 
#    y 0.000000 1.542420 0.000000 
#    z 0.000000 0.000000 1.566890 
# 
# From -- ./inp_files/43557.got.cif
#   From: 2010.05.17/outbox.cif.g08.bks.cpg/sg66_22_cif.got.tgz:43557.got - 2010.06.03 17:51:23.
