data_PCOD9495398
_publ_section_title
;
Structure prediction by ZEFSAII (Michael W. Deem and Ramdas Pophale) SiO2 
 PCOD9495398
Probable space group: C C C M
;
_chemical_formula_sum "Si O2"
_cell_formula_units_Z 72
_cell_length_a 16.383149
_cell_length_b 17.183127
_cell_length_c 14.194769
_cell_angle_alpha 90.000000
_cell_angle_beta 90.000000
_cell_angle_gamma 90.000000
_cell_volume 3996.022367
_symmetry_space_group_name_H-M "C C C M"
_symmetry_group_IT_number 66
_symmetry_cell_setting 'orthorhombic'
loop_
_space_group_symop_operation_xyz
x,y,z
-x,-y,z
x,-y,1/2-z
-x,y,1/2-z
-x,-y,-z
x,y,-z
-x,y,1/2+z
x,-y,1/2+z
1/2+x,1/2+y,z
1/2-x,1/2-y,z
1/2+x,1/2-y,1/2-z
1/2-x,1/2+y,1/2-z
1/2-x,1/2-y,-z
1/2+x,1/2+y,-z
1/2-x,1/2+y,1/2+z
1/2+x,1/2-y,1/2+z
loop_
_atom_site_type_symbol
_atom_site_label
_atom_site_fract_x
_atom_site_fract_y
_atom_site_fract_z
Si Si1 0.254650 0.341378 0.190769
Si Si2 0.918319 0.550310 0.000000
Si Si3 0.086033 0.589887 0.286967
Si Si4 0.087707 0.089978 0.712217
Si Si5 0.258990 0.558522 0.500000
Si Si6 0.083179 0.049574 0.500000
O O1 0.250000 0.250000 0.173375
O O2 0.170421 0.369009 0.240143
O O3 0.334772 0.364042 0.249131
O O4 0.260435 0.388423 0.092820
O O5 0.919650 0.594015 0.099537
O O6 0.827560 0.512246 0.000000
O O7 0.000000 0.500000 0.000000
O O8 0.090819 0.500000 0.250000
O O9 0.000000 0.621956 0.250000
O O10 0.085311 0.093260 0.599311
O O11 0.000000 0.117872 0.750000
O O12 0.095889 0.000000 0.750000
O O13 0.337532 0.504966 0.500000
O O14 0.000000 0.000000 0.500000
#
# Coordination Sequence:
#
# PCOD9495398 Si02
#       6
#    16   8  16  16   8   8
#     4  11  23  38  55  83 120 154 188 228 285 351
#     4  10  18  31  51  85 107 132 172 236 277 312
#     4  10  20  34  57  81 107 140 187 228 274 321
#     4  11  21  37  62  88 115 147 194 242 292 334
#     4  10  21  34  60  81 112 149 191 238 280 329
#     4  12  20  35  60  94 113 139 193 254 289 334
#
# _framework density 18.017917000000001
#
# number of rings (size 3 to 8) (size 9 to 14) (size 15 to 20)
#    0.000    1.333    6.667    1.000    3.111    0.889 
#    0.000    0.556    0.000    2.667    0.000    0.000 
#    0.000    0.000    0.000    0.000    0.000    0.000 
#
# Total GULP energy -200684.238513 kJ/mol
# GULP energy per Si atom -5574.562181 kJ/mol
# Density = 1.797691 g / cm^3
# Si number density = 18.017917 Si / 1000 Ang^3
#
#
#
# Elastic Constant Matrix: (Units=GPa)
#
#
# Indices 1 2 3 4 5 6 
#
# 1 220.0044 43.9368 58.3649 0.0000 0.0000 0.0000
# 2 43.9368 31.7114 10.7688 0.0000 0.0000 0.0000
# 3 58.3649 10.7688 135.7628 0.0000 0.0000 0.0000
# 4 0.0000 0.0000 0.0000 -4.8074 0.0000 0.0000
# 5 0.0000 0.0000 0.0000 0.0000 33.1962 0.0000
# 6 0.0000 0.0000 0.0000 0.0000 0.0000 6.3925
#
#
#
# Elastic Compliance Matrix: (Units=1/GPa)
#
#
# Indices 1 2 3 4 5 6 
#
# 1 0.006904 -0.008795 -0.002270 0.000000 0.000000 0.000000
# 2 -0.008795 0.043610 0.000322 0.000000 0.000000 0.000000
# 3 -0.002270 0.000322 0.008316 0.000000 0.000000 0.000000
# 4 0.000000 0.000000 0.000000 -0.208011 0.000000 0.000000
# 5 0.000000 0.000000 0.000000 0.000000 0.030124 0.000000
# 6 0.000000 0.000000 0.000000 0.000000 0.000000 0.156434
#
#
# Mechanical properties :
#
#
# Convention : Reuss Voigt Hill
#
# Bulk Modulus (GPa) = 26.77816 68.17995 47.47906
# Shear Modulus (GPa) = 70.11357 25.25012 47.68184
#
# Velocity S-wave (km/s) = 6.24482 3.74757 5.14986
# Velocity P-wave (km/s) = 8.17870 7.52649 7.85936
#
# Compressibility (1/GPa) = 0.03734386
#
# Stress axis : x y z
#
# Youngs Moduli (GPa) = 144.84174 22.93026 120.24490
#
# Poissons Ratio (x) = 0.20167 0.27301
# Poissons Ratio (y) = 1.27385 -0.03868
# Poissons Ratio (z) = 0.32886 -0.00738
#
# Static dielectric constant tensor:
#      x y z
#    x 1.626130 0.000000 0.000000 
#    y 0.000000 1.571400 0.000000 
#    z 0.000000 0.000000 1.659340 
# 
# From -- ./inp_files/27988.got.cif
#   From: 2010.05.17/outbox.cif.g08.bks.cpg/sg66_14_cif.got.tgz:27988.got - 2010.06.03 17:51:23.
