data_PCOD9495036
_publ_section_title
;
Structure prediction by ZEFSAII (Michael W. Deem and Ramdas Pophale) SiO2 
 PCOD9495036
Probable space group: C C C M
;
_chemical_formula_sum "Si O2"
_cell_formula_units_Z 112
_cell_length_a 22.356839
_cell_length_b 17.684483
_cell_length_c 17.959678
_cell_angle_alpha 90.000000
_cell_angle_beta 90.000000
_cell_angle_gamma 90.000000
_cell_volume 7100.702432
_symmetry_space_group_name_H-M "C C C M"
_symmetry_group_IT_number 66
_symmetry_cell_setting 'orthorhombic'
loop_
_space_group_symop_operation_xyz
x,y,z
-x,-y,z
x,-y,1/2-z
-x,y,1/2-z
-x,-y,-z
x,y,-z
-x,y,1/2+z
x,-y,1/2+z
1/2+x,1/2+y,z
1/2-x,1/2-y,z
1/2+x,1/2-y,1/2-z
1/2-x,1/2+y,1/2-z
1/2-x,1/2-y,-z
1/2+x,1/2+y,-z
1/2-x,1/2+y,1/2+z
1/2+x,1/2-y,1/2+z
loop_
_atom_site_type_symbol
_atom_site_label
_atom_site_fract_x
_atom_site_fract_y
_atom_site_fract_z
Si Si1 0.624139 0.831868 0.364990
Si Si2 0.128375 0.628966 0.413924
Si Si3 0.710350 0.436363 0.799843
Si Si4 0.204324 0.319807 0.778703
Si Si5 0.690784 0.696774 0.585479
Si Si6 0.994598 0.410869 0.089599
Si Si7 0.303310 0.024201 0.583265
O O1 0.652177 0.817328 0.283635
O O2 0.635022 0.753645 0.407670
O O3 0.558475 0.867151 0.368917
O O4 0.665719 0.895289 0.403700
O O5 0.137002 0.651721 0.500000
O O6 0.171036 0.672290 0.357181
O O7 0.147995 0.541140 0.407468
O O8 0.058077 0.629394 0.396549
O O9 0.676606 0.500000 0.750000
O O10 0.755025 0.390894 0.745266
O O11 0.684186 0.370067 0.853716
O O12 0.751180 0.482216 0.857743
O O13 0.250000 0.250000 0.777231
O O14 0.697019 0.669908 0.500000
O O15 0.750000 0.750000 0.601179
O O16 0.000000 0.500000 0.109794
O O17 0.982523 0.408808 0.000000
O O18 0.279830 0.018727 0.500000
#
# Coordination Sequence:
#
# PCOD9495036 Si02
#       7
#    16  16  16  16  16  16  16
#     4  11  19  30  50  73 105 138 170 220 271 313
#     4  10  21  34  49  69  98 145 189 216 248 306
#     4  11  19  30  46  70  96 133 168 219 276 321
#     4  11  21  36  49  68 100 133 179 227 271 317
#     4  11  19  29  48  75 101 134 178 226 278 332
#     4  10  19  32  49  75 110 146 181 213 248 307
#     4  10  17  27  45  68  96 134 174 212 254 304
#
# _framework density 15.773088
#
# number of rings (size 3 to 8) (size 9 to 14) (size 15 to 20)
#    0.000    1.429    7.143    1.714    0.000    0.857 
#    0.000    0.714    0.000    0.000    0.000    0.000 
#    0.000    2.286    0.000    4.571    0.000    0.143 
#
# Total GULP energy -311901.806667 kJ/mol
# GULP energy per Si atom -5569.675119 kJ/mol
# Density = 1.573719 g / cm^3
# Si number density = 15.773088 Si / 1000 Ang^3
#
#
#
# Elastic Constant Matrix: (Units=GPa)
#
#
# Indices 1 2 3 4 5 6 
#
# 1 71.1522 42.1831 43.4783 0.0000 0.0000 0.0000
# 2 42.1831 73.8458 54.3003 0.0000 0.0000 0.0000
# 3 43.4783 54.3003 83.8045 0.0000 0.0000 0.0000
# 4 0.0000 0.0000 0.0000 27.2031 0.0000 0.0000
# 5 0.0000 0.0000 0.0000 0.0000 17.7336 0.0000
# 6 0.0000 0.0000 0.0000 0.0000 0.0000 27.9336
#
#
#
# Elastic Compliance Matrix: (Units=1/GPa)
#
#
# Indices 1 2 3 4 5 6 
#
# 1 0.022979 -0.008328 -0.006526 0.000000 0.000000 0.000000
# 2 -0.008328 0.028883 -0.014394 0.000000 0.000000 0.000000
# 3 -0.006526 -0.014394 0.024645 0.000000 0.000000 0.000000
# 4 0.000000 0.000000 0.000000 0.036760 0.000000 0.000000
# 5 0.000000 0.000000 0.000000 0.000000 0.056390 0.000000
# 6 0.000000 0.000000 0.000000 0.000000 0.000000 0.035799
#
#
# Mechanical properties :
#
#
# Convention : Reuss Voigt Hill
#
# Bulk Modulus (GPa) = 55.51975 56.52509 56.02242
# Shear Modulus (GPa) = 18.52153 20.49678 19.50915
#
# Velocity S-wave (km/s) = 3.43045 3.60874 3.52072
# Velocity P-wave (km/s) = 7.13905 7.29919 7.21957
#
# Compressibility (1/GPa) = 0.01801161
#
# Stress axis : x y z
#
# Youngs Moduli (GPa) = 43.51731 34.62230 40.57693
#
# Poissons Ratio (x) = 0.28834 0.26480
# Poissons Ratio (y) = 0.36241 0.58406
# Poissons Ratio (z) = 0.28398 0.49835
#
# Static dielectric constant tensor:
#      x y z
#    x 1.523530 0.000000 0.000000 
#    y 0.000000 1.558590 0.000000 
#    z 0.000000 0.000000 1.570530 
# 
# From -- ./inp_files/41965.got.cif
#   From: 2010.05.17/outbox.cif.g08.bks.cpg/sg66_21_cif.got.tgz:41965.got - 2010.06.03 17:51:23.
