data_PCOD9495985
_publ_section_title
;
Structure prediction by ZEFSAII (Michael W. Deem and Ramdas Pophale) SiO2 
 PCOD9495985
Probable space group: C C C M
;
_chemical_formula_sum "Si O2"
_cell_formula_units_Z 80
_cell_length_a 11.265712
_cell_length_b 15.719185
_cell_length_c 23.059606
_cell_angle_alpha 90.000000
_cell_angle_beta 90.000000
_cell_angle_gamma 90.000000
_cell_volume 4083.575151
_symmetry_space_group_name_H-M "C C C M"
_symmetry_group_IT_number 66
_symmetry_cell_setting 'orthorhombic'
loop_
_space_group_symop_operation_xyz
x,y,z
-x,-y,z
x,-y,1/2-z
-x,y,1/2-z
-x,-y,-z
x,y,-z
-x,y,1/2+z
x,-y,1/2+z
1/2+x,1/2+y,z
1/2-x,1/2-y,z
1/2+x,1/2-y,1/2-z
1/2-x,1/2+y,1/2-z
1/2-x,1/2-y,-z
1/2+x,1/2+y,-z
1/2-x,1/2+y,1/2+z
1/2+x,1/2-y,1/2+z
loop_
_atom_site_type_symbol
_atom_site_label
_atom_site_fract_x
_atom_site_fract_y
_atom_site_fract_z
Si Si1 0.500000 0.500000 0.401396
Si Si2 0.800123 0.576948 0.500000
Si Si3 0.663440 0.829225 0.876478
Si Si4 0.447317 0.175727 0.000000
Si Si5 0.528207 0.631157 0.500000
Si Si6 0.255384 0.015279 0.629808
Si Si7 0.961758 0.594098 0.316647
O O1 0.478769 0.579382 0.444766
O O2 0.384864 0.476050 0.366105
O O3 0.672948 0.627427 0.500000
O O4 0.791793 0.528643 0.561869
O O5 0.928366 0.623425 0.500000
O O6 0.750000 0.750000 0.866253
O O7 0.532841 0.830198 0.847112
O O8 0.718166 0.917621 0.853673
O O9 0.632966 0.839153 0.943917
O O10 0.484758 0.273843 0.000000
O O11 0.323877 0.085588 0.668032
O O12 0.000000 0.500000 0.340856
O O13 0.000000 0.595254 0.250000
#
# Coordination Sequence:
#
# PCOD9495985 Si02
#       7
#     8   8  16   8   8  16  16
#     4   9  18  34  54  75 116 156 185 215 276 342
#     4  10  19  32  53  80 114 152 185 226 271 348
#     4  11  22  33  56  83 116 141 179 241 287 338
#     4  12  20  31  51  85 116 141 187 227 291 337
#     4   9  19  31  47  76 123 160 170 217 276 349
#     4  10  19  35  57  85 110 150 188 227 279 341
#     4   9  19  37  61  79 102 145 196 235 279 334
#
# _framework density 19.590676999999999
#
# number of rings (size 3 to 8) (size 9 to 14) (size 15 to 20)
#    0.000    2.000    2.000    3.000    0.000    0.800 
#    0.000    0.000   13.200    8.400    0.000    0.000 
#    0.000    0.000    0.000    0.000    0.000    0.000 
#
# Total GULP energy -222837.214114 kJ/mol
# GULP energy per Si atom -5570.930353 kJ/mol
# Density = 1.954609 g / cm^3
# Si number density = 19.590677 Si / 1000 Ang^3
#
#
#
# Elastic Constant Matrix: (Units=GPa)
#
#
# Indices 1 2 3 4 5 6 
#
# 1 133.4271 39.0381 46.4042 0.0000 0.0000 0.0000
# 2 39.0381 64.6732 18.5221 0.0000 0.0000 0.0000
# 3 46.4042 18.5221 61.8443 0.0000 0.0000 0.0000
# 4 0.0000 0.0000 0.0000 3.6163 0.0000 0.0000
# 5 0.0000 0.0000 0.0000 0.0000 11.8799 0.0000
# 6 0.0000 0.0000 0.0000 0.0000 0.0000 37.2489
#
#
#
# Elastic Compliance Matrix: (Units=1/GPa)
#
#
# Indices 1 2 3 4 5 6 
#
# 1 0.011374 -0.004836 -0.007086 0.000000 0.000000 0.000000
# 2 -0.004836 0.018969 -0.002052 0.000000 0.000000 0.000000
# 3 -0.007086 -0.002052 0.022101 0.000000 0.000000 0.000000
# 4 0.000000 0.000000 0.000000 0.276524 0.000000 0.000000
# 5 0.000000 0.000000 0.000000 0.000000 0.084176 0.000000
# 6 0.000000 0.000000 0.000000 0.000000 0.000000 0.026846
#
#
# Mechanical properties :
#
#
# Convention : Reuss Voigt Hill
#
# Bulk Modulus (GPa) = 40.82400 51.98594 46.40497
# Shear Modulus (GPa) = 10.50186 20.94769 15.72477
#
# Velocity S-wave (km/s) = 2.31782 3.27351 2.83621
# Velocity P-wave (km/s) = 5.29592 6.39387 5.87062
#
# Compressibility (1/GPa) = 0.02449539
#
# Stress axis : x y z
#
# Youngs Moduli (GPa) = 87.91859 52.71642 45.24625
#
# Poissons Ratio (x) = 0.25495 0.32062
# Poissons Ratio (y) = 0.42520 0.09286
# Poissons Ratio (z) = 0.62299 0.10820
#
# Static dielectric constant tensor:
#      x y z
#    x 1.808370 0.000000 0.000000 
#    y 0.000000 1.673330 0.000000 
#    z 0.000000 0.000000 1.694160 
# 
# From -- ./inp_files/56695.got.cif
#   From: 2010.05.17/outbox.cif.g08.bks.cpg/sg66_29_cif.got.tgz:56695.got - 2010.06.03 17:51:23.
