data_PCOD9495311
_publ_section_title
;
Structure prediction by ZEFSAII (Michael W. Deem and Ramdas Pophale) SiO2 
 PCOD9495311
Probable space group: C C C M
;
_chemical_formula_sum "Si O2"
_cell_formula_units_Z 88
_cell_length_a 5.538017
_cell_length_b 36.744000
_cell_length_c 18.968624
_cell_angle_alpha 90.000000
_cell_angle_beta 90.000000
_cell_angle_gamma 90.000000
_cell_volume 3859.904369
_symmetry_space_group_name_H-M "C C C M"
_symmetry_group_IT_number 66
_symmetry_cell_setting 'orthorhombic'
loop_
_space_group_symop_operation_xyz
x,y,z
-x,-y,z
x,-y,1/2-z
-x,y,1/2-z
-x,-y,-z
x,y,-z
-x,y,1/2+z
x,-y,1/2+z
1/2+x,1/2+y,z
1/2-x,1/2-y,z
1/2+x,1/2-y,1/2-z
1/2-x,1/2+y,1/2-z
1/2-x,1/2-y,-z
1/2+x,1/2+y,-z
1/2-x,1/2+y,1/2+z
1/2+x,1/2-y,1/2+z
loop_
_atom_site_type_symbol
_atom_site_label
_atom_site_fract_x
_atom_site_fract_y
_atom_site_fract_z
Si Si1 0.313745 0.844902 0.103524
Si Si2 0.475913 0.926554 0.080700
Si Si3 0.250000 0.750000 0.290730
Si Si4 0.804810 0.821329 0.879202
Si Si5 0.250388 0.879037 0.254178
Si Si6 0.984973 0.043329 0.584247
O O1 0.408562 0.884079 0.077838
O O2 0.539137 0.819070 0.086254
O O3 0.270924 0.850997 0.188011
O O4 0.049042 0.831831 0.079633
O O5 0.737295 0.937860 0.110821
O O6 0.236360 0.942656 0.115917
O O7 0.486219 0.940893 0.000000
O O8 0.500000 0.760793 0.250000
O O9 0.164084 0.784201 0.336912
O O10 0.766928 0.854495 0.823733
O O11 0.500000 0.900342 0.250000
O O12 0.000000 0.899751 0.250000
O O13 0.991270 0.052548 0.500000
O O14 0.000000 0.000000 0.590549
#
# Coordination Sequence:
#
# PCOD9495311 Si02
#       6
#    16  16   8  16  16  16
#     4  10  18  30  44  64  95 124 153 191 229 275
#     4  10  19  30  47  71  95 125 161 191 229 281
#     4  12  20  30  48  72  99 128 153 188 250 308
#     4  10  19  30  45  67  94 122 151 190 237 290
#     4   8  14  25  39  57  84 112 138 176 222 270
#     4   9  17  30  47  68  96 124 150 188 238 287
#
# _framework density 22.798493000000001
#
# number of rings (size 3 to 8) (size 9 to 14) (size 15 to 20)
#    0.000    2.364    0.000    6.000    0.000    2.182 
#    0.000    0.000    0.000    0.000    0.000    3.818 
#    0.000   98.182    0.000    0.000    0.000    0.000 
#
# Total GULP energy -245067.837125 kJ/mol
# GULP energy per Si atom -5569.723571 kJ/mol
# Density = 2.274660 g / cm^3
# Si number density = 22.798493 Si / 1000 Ang^3
#
#
#
# Elastic Constant Matrix: (Units=GPa)
#
#
# Indices 1 2 3 4 5 6 
#
# 1 281.0798 48.5990 25.8105 0.0000 0.0000 0.0000
# 2 48.5990 50.2948 0.9965 0.0000 0.0000 0.0000
# 3 25.8105 0.9965 59.4903 0.0000 0.0000 0.0000
# 4 0.0000 0.0000 0.0000 26.5299 0.0000 0.0000
# 5 0.0000 0.0000 0.0000 0.0000 -13.0262 0.0000
# 6 0.0000 0.0000 0.0000 0.0000 0.0000 36.4108
#
#
#
# Elastic Compliance Matrix: (Units=1/GPa)
#
#
# Indices 1 2 3 4 5 6 
#
# 1 0.004470 -0.004282 -0.001867 0.000000 0.000000 0.000000
# 2 -0.004282 0.023991 0.001456 0.000000 0.000000 0.000000
# 3 -0.001867 0.001456 0.017595 0.000000 0.000000 0.000000
# 4 0.000000 0.000000 0.000000 0.037693 0.000000 0.000000
# 5 0.000000 0.000000 0.000000 0.000000 -0.076768 0.000000
# 6 0.000000 0.000000 0.000000 0.000000 0.000000 0.027464
#
#
# Mechanical properties :
#
#
# Convention : Reuss Voigt Hill
#
# Bulk Modulus (GPa) = 27.27073 60.18633 43.72853
# Shear Modulus (GPa) = 89.19762 31.01350 60.10556
#
# Velocity S-wave (km/s) = 6.26173 3.69227 5.14014
# Velocity P-wave (km/s) = 8.01665 6.68085 7.37904
#
# Compressibility (1/GPa) = 0.03666936
#
# Stress axis : x y z
#
# Youngs Moduli (GPa) = 223.73778 41.68167 56.83342
#
# Poissons Ratio (x) = 0.17847 0.10613
# Poissons Ratio (y) = 0.95800 -0.08274
# Poissons Ratio (z) = 0.41781 -0.06068
#
# Static dielectric constant tensor:
#      x y z
#    x 1.996000 0.000000 0.000000 
#    y 0.000000 1.821210 0.000000 
#    z 0.000000 0.000000 1.930290 
# 
# From -- ./inp_files/61660.got.cif
#   From: 2010.05.17/outbox.cif.g08.bks.cpg/sg66_31_cif.got.tgz:61660.got - 2010.06.03 17:51:23.
