data_PCOD9495551
_publ_section_title
;
Structure prediction by ZEFSAII (Michael W. Deem and Ramdas Pophale) SiO2 
 PCOD9495551
Probable space group: C C C M
;
_chemical_formula_sum "Si O2"
_cell_formula_units_Z 80
_cell_length_a 26.903978
_cell_length_b 7.438089
_cell_length_c 18.164880
_cell_angle_alpha 90.000000
_cell_angle_beta 90.000000
_cell_angle_gamma 90.000000
_cell_volume 3635.050117
_symmetry_space_group_name_H-M "C C C M"
_symmetry_group_IT_number 66
_symmetry_cell_setting 'orthorhombic'
loop_
_space_group_symop_operation_xyz
x,y,z
-x,-y,z
x,-y,1/2-z
-x,y,1/2-z
-x,-y,-z
x,y,-z
-x,y,1/2+z
x,-y,1/2+z
1/2+x,1/2+y,z
1/2-x,1/2-y,z
1/2+x,1/2-y,1/2-z
1/2-x,1/2+y,1/2-z
1/2-x,1/2-y,-z
1/2+x,1/2+y,-z
1/2-x,1/2+y,1/2+z
1/2+x,1/2-y,1/2+z
loop_
_atom_site_type_symbol
_atom_site_label
_atom_site_fract_x
_atom_site_fract_y
_atom_site_fract_z
Si Si1 0.401779 0.884158 0.584680
Si Si2 0.870167 0.742480 0.649350
Si Si3 0.678778 0.402678 0.412350
Si Si4 0.220703 0.564345 0.085716
Si Si5 0.553049 0.788993 0.228447
O O1 0.413217 0.850965 0.500000
O O2 0.348490 0.786507 0.601834
O O3 0.438127 0.787372 0.641716
O O4 0.402071 0.098512 0.600995
O O5 0.819424 0.625722 0.646872
O O6 0.899920 0.777179 0.724345
O O7 0.855413 0.933802 0.615837
O O8 0.681833 0.421614 0.500000
O O9 0.735580 0.432119 0.387891
O O10 0.250000 0.750000 0.074840
O O11 0.202442 0.521982 0.000000
O O12 0.500000 0.709661 0.250000
O O13 0.551994 0.000000 0.250000
#
# Coordination Sequence:
#
# PCOD9495551 Si02
#       5
#    16  16  16  16  16
#     4  10  20  35  57  81 107 143 186 229 277 331
#     4  10  18  33  57  77 108 148 185 220 281 329
#     4   9  18  32  53  84 116 144 182 227 268 328
#     4   8  14  27  50  79 110 144 178 217 266 323
#     4   9  20  39  59  80 111 146 185 238 287 328
#
# _framework density 22.007950999999998
#
# number of rings (size 3 to 8) (size 9 to 14) (size 15 to 20)
#    0.000    2.800    0.000    3.000    0.000    1.600 
#    0.000   15.000   39.600    2.400    0.000    0.000 
#    0.000    0.000    0.000    0.000    0.000    0.000 
#
# Total GULP energy -222671.697372 kJ/mol
# GULP energy per Si atom -5566.792434 kJ/mol
# Density = 2.195786 g / cm^3
# Si number density = 22.007951 Si / 1000 Ang^3
#
#
#
# Elastic Constant Matrix: (Units=GPa)
#
#
# Indices 1 2 3 4 5 6 
#
# 1 80.5215 4.5560 58.6428 0.0000 0.0000 0.0000
# 2 4.5560 119.8536 10.5435 0.0000 0.0000 0.0000
# 3 58.6428 10.5435 98.8409 0.0000 0.0000 0.0000
# 4 0.0000 0.0000 0.0000 12.1015 0.0000 0.0000
# 5 0.0000 0.0000 0.0000 0.0000 25.9430 0.0000
# 6 0.0000 0.0000 0.0000 0.0000 0.0000 2.9001
#
#
#
# Elastic Compliance Matrix: (Units=1/GPa)
#
#
# Indices 1 2 3 4 5 6 
#
# 1 0.021880 0.000313 -0.013015 0.000000 0.000000 0.000000
# 2 0.000313 0.008427 -0.001085 0.000000 0.000000 0.000000
# 3 -0.013015 -0.001085 0.017955 0.000000 0.000000 0.000000
# 4 0.000000 0.000000 0.000000 0.082634 0.000000 0.000000
# 5 0.000000 0.000000 0.000000 0.000000 0.038546 0.000000
# 6 0.000000 0.000000 0.000000 0.000000 0.000000 0.344811
#
#
# Mechanical properties :
#
#
# Convention : Reuss Voigt Hill
#
# Bulk Modulus (GPa) = 48.33518 49.63340 48.98429
# Shear Modulus (GPa) = 9.11209 23.22051 16.16630
#
# Velocity S-wave (km/s) = 2.03700 3.25175 2.71323
# Velocity P-wave (km/s) = 5.24812 6.05805 5.66757
#
# Compressibility (1/GPa) = 0.02068886
#
# Stress axis : x y z
#
# Youngs Moduli (GPa) = 45.70401 118.66575 55.69544
#
# Poissons Ratio (x) = -0.03717 0.72487
# Poissons Ratio (y) = -0.01431 0.06042
# Poissons Ratio (z) = 0.59483 0.12872
#
# Static dielectric constant tensor:
#      x y z
#    x 1.956760 0.000000 0.000000 
#    y 0.000000 1.903140 0.000000 
#    z 0.000000 0.000000 1.789090 
# 
# From -- ./inp_files/44113.got.cif
#   From: 2010.05.17/outbox.cif.g08.bks.cpg/sg66_23_cif.got.tgz:44113.got - 2010.06.03 17:51:23.
