data_PCOD9495850
_publ_section_title
;
Structure prediction by ZEFSAII (Michael W. Deem and Ramdas Pophale) SiO2 
 PCOD9495850
Probable space group: C C C M
;
_chemical_formula_sum "Si O2"
_cell_formula_units_Z 112
_cell_length_a 24.987399
_cell_length_b 13.930091
_cell_length_c 17.245791
_cell_angle_alpha 90.000000
_cell_angle_beta 90.000000
_cell_angle_gamma 90.000000
_cell_volume 6002.858743
_symmetry_space_group_name_H-M "C C C M"
_symmetry_group_IT_number 66
_symmetry_cell_setting 'orthorhombic'
loop_
_space_group_symop_operation_xyz
x,y,z
-x,-y,z
x,-y,1/2-z
-x,y,1/2-z
-x,-y,-z
x,y,-z
-x,y,1/2+z
x,-y,1/2+z
1/2+x,1/2+y,z
1/2-x,1/2-y,z
1/2+x,1/2-y,1/2-z
1/2-x,1/2+y,1/2-z
1/2-x,1/2-y,-z
1/2+x,1/2+y,-z
1/2-x,1/2+y,1/2+z
1/2+x,1/2-y,1/2+z
loop_
_atom_site_type_symbol
_atom_site_label
_atom_site_fract_x
_atom_site_fract_y
_atom_site_fract_z
Si Si1 0.941381 0.272052 0.589151
Si Si2 0.167381 0.944956 0.328873
Si Si3 0.943026 0.958054 0.909813
Si Si4 0.146093 0.577136 0.181521
Si Si5 0.776249 0.439975 0.590666
Si Si6 0.963912 0.408090 0.092192
Si Si7 0.337688 0.215567 0.187324
O O1 0.927868 0.301078 0.500000
O O2 0.945517 0.157531 0.591133
O O3 0.895079 0.306419 0.646791
O O4 0.998275 0.317645 0.608491
O O5 0.109831 0.980799 0.360227
O O6 0.214357 0.959686 0.390882
O O7 0.166606 0.830137 0.314618
O O8 0.181108 0.000000 0.250000
O O9 0.936087 0.988523 0.000000
O O10 0.000000 0.000000 0.882241
O O11 0.137373 0.500000 0.250000
O O12 0.188986 0.527424 0.125295
O O13 0.091118 0.593930 0.137273
O O14 0.164730 0.672338 0.226547
O O15 0.785750 0.427687 0.500000
O O16 0.795036 0.343859 0.636226
O O17 0.000000 0.500000 0.113056
O O18 0.953461 0.412849 0.000000
#
# Coordination Sequence:
#
# PCOD9495850 Si02
#       7
#    16  16  16  16  16  16  16
#     4   9  18  32  52  80 109 141 187 233 270 317
#     4  11  23  38  58  85 114 145 183 229 279 330
#     4   9  19  37  58  80 108 142 184 232 275 316
#     4  10  21  35  52  79 113 146 179 224 280 335
#     4  11  22  38  61  85 109 141 184 230 276 329
#     4  10  19  31  49  74 108 149 186 221 265 321
#     4  10  21  36  57  83 113 146 181 229 282 329
#
# _framework density 18.657776999999999
#
# number of rings (size 3 to 8) (size 9 to 14) (size 15 to 20)
#    0.000    2.000    0.000    4.714    0.000    6.857 
#    0.000    2.857    0.000    3.429    0.000    0.000 
#    0.000    0.000    0.000    0.000    0.000    0.000 
#
# Total GULP energy -312651.781455 kJ/mol
# GULP energy per Si atom -5583.067526 kJ/mol
# Density = 1.861531 g / cm^3
# Si number density = 18.657777 Si / 1000 Ang^3
#
#
#
# Elastic Constant Matrix: (Units=GPa)
#
#
# Indices 1 2 3 4 5 6 
#
# 1 97.9917 25.5669 37.9269 0.0000 0.0000 0.0000
# 2 25.5669 33.5426 27.3460 0.0000 0.0000 0.0000
# 3 37.9269 27.3460 71.6734 0.0000 0.0000 0.0000
# 4 0.0000 0.0000 0.0000 11.4360 0.0000 0.0000
# 5 0.0000 0.0000 0.0000 0.0000 49.8103 0.0000
# 6 0.0000 0.0000 0.0000 0.0000 0.0000 28.1284
#
#
#
# Elastic Compliance Matrix: (Units=1/GPa)
#
#
# Indices 1 2 3 4 5 6 
#
# 1 0.013775 -0.006615 -0.004766 0.000000 0.000000 0.000000
# 2 -0.006615 0.046449 -0.014222 0.000000 0.000000 0.000000
# 3 -0.004766 -0.014222 0.021900 0.000000 0.000000 0.000000
# 4 0.000000 0.000000 0.000000 0.087443 0.000000 0.000000
# 5 0.000000 0.000000 0.000000 0.000000 0.020076 0.000000
# 6 0.000000 0.000000 0.000000 0.000000 0.000000 0.035551
#
#
# Mechanical properties :
#
#
# Convention : Reuss Voigt Hill
#
# Bulk Modulus (GPa) = 32.34111 42.76524 37.55318
# Shear Modulus (GPa) = 17.43946 25.36613 21.40280
#
# Velocity S-wave (km/s) = 3.06061 3.69120 3.39060
# Velocity P-wave (km/s) = 5.46454 6.41383 5.95813
#
# Compressibility (1/GPa) = 0.03092040
#
# Stress axis : x y z
#
# Youngs Moduli (GPa) = 72.59393 21.52894 45.66182
#
# Poissons Ratio (x) = 0.14240 0.21761
# Poissons Ratio (y) = 0.48018 0.64940
# Poissons Ratio (z) = 0.34596 0.30618
#
# Static dielectric constant tensor:
#      x y z
#    x 1.649490 0.000000 0.000000 
#    y 0.000000 1.652510 0.000000 
#    z 0.000000 0.000000 1.637740 
# 
# From -- ./inp_files/32425.got.cif
#   From: 2010.05.17/outbox.cif.g08.bks.cpg/sg66_17_cif.got.tgz:32425.got - 2010.06.03 17:51:23.
