data_PCOD9495216
_publ_section_title
;
Structure prediction by ZEFSAII (Michael W. Deem and Ramdas Pophale) SiO2 
 PCOD9495216
Probable space group: C C C M
;
_chemical_formula_sum "Si O2"
_cell_formula_units_Z 96
_cell_length_a 30.539884
_cell_length_b 33.897638
_cell_length_c 8.141758
_cell_angle_alpha 90.000000
_cell_angle_beta 90.000000
_cell_angle_gamma 90.000000
_cell_volume 8428.591584
_symmetry_space_group_name_H-M "C C C M"
_symmetry_group_IT_number 66
_symmetry_cell_setting 'orthorhombic'
loop_
_space_group_symop_operation_xyz
x,y,z
-x,-y,z
x,-y,1/2-z
-x,y,1/2-z
-x,-y,-z
x,y,-z
-x,y,1/2+z
x,-y,1/2+z
1/2+x,1/2+y,z
1/2-x,1/2-y,z
1/2+x,1/2-y,1/2-z
1/2-x,1/2+y,1/2-z
1/2-x,1/2-y,-z
1/2+x,1/2+y,-z
1/2-x,1/2+y,1/2+z
1/2+x,1/2-y,1/2+z
loop_
_atom_site_type_symbol
_atom_site_label
_atom_site_fract_x
_atom_site_fract_y
_atom_site_fract_z
Si Si1 0.603711 0.618786 0.306029
Si Si2 0.766356 0.185308 0.000000
Si Si3 0.049927 0.955396 0.304644
Si Si4 0.050000 0.196517 0.303298
Si Si5 0.186387 0.839763 0.317727
Si Si6 0.131493 0.757584 0.316277
Si Si7 0.320827 0.231902 0.500000
O O1 0.612214 0.623432 0.500000
O O2 0.582194 0.576897 0.270324
O O3 0.569352 0.653339 0.258302
O O4 0.648962 0.627689 0.213921
O O5 0.780520 0.162572 0.834750
O O6 0.716031 0.198388 0.000000
O O7 0.794552 0.226189 0.000000
O O8 0.051911 0.952989 0.500000
O O9 0.000000 0.947018 0.250000
O O10 0.060123 0.000000 0.250000
O O11 0.053584 0.200470 0.500000
O O12 0.082192 0.228271 0.221055
O O13 0.000000 0.200004 0.250000
O O14 0.205773 0.844143 0.500000
O O15 0.159998 0.798106 0.315006
O O16 0.135228 0.740575 0.500000
O O17 0.150231 0.732246 0.165385
#
# Coordination Sequence:
#
# PCOD9495216 Si02
#       7
#    16   8  16  16  16  16   8
#     4  10  18  29  42  54  70  89 107 137 176 207
#     4   9  16  26  38  54  70  87 108 134 156 199
#     4  11  21  32  42  53  68  87 112 141 171 209
#     4  10  18  26  37  52  69  87 112 142 170 203
#     4   9  16  26  39  54  70  87 107 133 163 198
#     4   9  16  26  37  49  68  89 110 134 162 196
#     4   9  16  26  38  50  70  90 108 130 164 193
#
# _framework density 11.389803000000001
#
# number of rings (size 3 to 8) (size 9 to 14) (size 15 to 20)
#    0.000    2.333    1.667    3.500    0.000    4.000 
#    0.000    3.333    0.000    0.000    0.000    0.000 
#    0.000    0.000    0.000    0.000    0.000    0.000 
#
# Total GULP energy -267471.691025 kJ/mol
# GULP energy per Si atom -5572.326896 kJ/mol
# Density = 1.136388 g / cm^3
# Si number density = 11.389803 Si / 1000 Ang^3
#
#
#
# Elastic Constant Matrix: (Units=GPa)
#
#
# Indices 1 2 3 4 5 6 
#
# 1 50.9099 27.6086 33.3672 0.0000 0.0000 0.0000
# 2 27.6086 26.4303 19.8641 0.0000 0.0000 0.0000
# 3 33.3672 19.8641 87.3691 0.0000 0.0000 0.0000
# 4 0.0000 0.0000 0.0000 3.6302 0.0000 0.0000
# 5 0.0000 0.0000 0.0000 0.0000 12.1222 0.0000
# 6 0.0000 0.0000 0.0000 0.0000 0.0000 12.3052
#
#
#
# Elastic Compliance Matrix: (Units=1/GPa)
#
#
# Indices 1 2 3 4 5 6 
#
# 1 0.050320 -0.045977 -0.008765 0.000000 0.000000 0.000000
# 2 -0.045977 0.087641 -0.002367 0.000000 0.000000 0.000000
# 3 -0.008765 -0.002367 0.015331 0.000000 0.000000 0.000000
# 4 0.000000 0.000000 0.000000 0.275465 0.000000 0.000000
# 5 0.000000 0.000000 0.000000 0.000000 0.082494 0.000000
# 6 0.000000 0.000000 0.000000 0.000000 0.000000 0.081266
#
#
# Mechanical properties :
#
#
# Convention : Reuss Voigt Hill
#
# Bulk Modulus (GPa) = 25.59128 36.26547 30.92837
# Shear Modulus (GPa) = 6.94677 11.20282 9.07479
#
# Velocity S-wave (km/s) = 2.47232 3.13961 2.82573
# Velocity P-wave (km/s) = 5.53779 6.71210 6.15303
#
# Compressibility (1/GPa) = 0.03907581
#
# Stress axis : x y z
#
# Youngs Moduli (GPa) = 19.87270 11.41022 65.22668
#
# Poissons Ratio (x) = 0.52460 0.57169
# Poissons Ratio (y) = 0.91368 0.15439
# Poissons Ratio (z) = 0.17418 0.02701
#
# Static dielectric constant tensor:
#      x y z
#    x 1.364480 0.000000 0.000000 
#    y 0.000000 1.349490 0.000000 
#    z 0.000000 0.000000 1.403500 
# 
# From -- ./inp_files/11846.got.cif
#   From: 2010.05.17/outbox.cif.g08.bks.cpg/sg66_6_cif.got.tgz:11846.got - 2010.06.03 17:51:23.
