data_PCOD9495281
_publ_section_title
;
Structure prediction by ZEFSAII (Michael W. Deem and Ramdas Pophale) SiO2 
 PCOD9495281
Probable space group: C C C M
;
_chemical_formula_sum "Si O2"
_cell_formula_units_Z 72
_cell_length_a 7.766846
_cell_length_b 24.256642
_cell_length_c 15.343331
_cell_angle_alpha 90.000000
_cell_angle_beta 90.000000
_cell_angle_gamma 90.000000
_cell_volume 2890.646781
_symmetry_space_group_name_H-M "C C C M"
_symmetry_group_IT_number 66
_symmetry_cell_setting 'orthorhombic'
loop_
_space_group_symop_operation_xyz
x,y,z
-x,-y,z
x,-y,1/2-z
-x,y,1/2-z
-x,-y,-z
x,y,-z
-x,y,1/2+z
x,-y,1/2+z
1/2+x,1/2+y,z
1/2-x,1/2-y,z
1/2+x,1/2-y,1/2-z
1/2-x,1/2+y,1/2-z
1/2-x,1/2-y,-z
1/2+x,1/2+y,-z
1/2-x,1/2+y,1/2+z
1/2+x,1/2-y,1/2+z
loop_
_atom_site_type_symbol
_atom_site_label
_atom_site_fract_x
_atom_site_fract_y
_atom_site_fract_z
Si Si1 0.175495 0.126889 0.303460
Si Si2 0.638603 0.836584 0.139745
Si Si3 0.296148 0.511071 0.146831
Si Si4 0.876565 0.567699 0.000000
Si Si5 0.996929 0.223117 0.100490
O O1 0.317841 0.137213 0.231913
O O2 0.222159 0.076628 0.365579
O O3 0.000000 0.111022 0.250000
O O4 0.133935 0.183500 0.351064
O O5 0.821522 0.809966 0.107240
O O6 0.518874 0.783127 0.141258
O O7 0.588647 0.884685 0.074826
O O8 0.500000 0.500000 0.133326
O O9 0.256174 0.500000 0.250000
O O10 0.188115 0.476320 0.077461
O O11 0.953844 0.229765 0.000000
#
# Coordination Sequence:
#
# PCOD9495281 Si02
#       5
#    16  16  16   8  16
#     4  10  19  30  43  68 103 140 172 212 268 315
#     4  10  18  31  45  68  98 140 179 221 259 310
#     4  11  19  27  39  65 101 141 175 196 254 329
#     4  12  19  27  44  66 104 143 174 205 256 322
#     4  10  18  29  48  70  92 135 186 222 258 311
#
# _framework density 24.907921999999999
#
# number of rings (size 3 to 8) (size 9 to 14) (size 15 to 20)
#    0.000    1.556    6.667    2.333    1.556    0.000 
#    0.000    0.000    0.000    0.000    2.889    4.667 
#    0.000    0.000    7.556  132.000    0.000    0.000 
#
# Total GULP energy -200758.616987 kJ/mol
# GULP energy per Si atom -5576.628250 kJ/mol
# Density = 2.485123 g / cm^3
# Si number density = 24.907922 Si / 1000 Ang^3
#
#
#
# Elastic Constant Matrix: (Units=GPa)
#
#
# Indices 1 2 3 4 5 6 
#
# 1 93.5131 42.9141 16.6031 0.0000 0.0000 0.0000
# 2 42.9141 241.1595 74.5881 0.0000 0.0000 0.0000
# 3 16.6031 74.5881 78.0066 0.0000 0.0000 0.0000
# 4 0.0000 0.0000 0.0000 93.6410 0.0000 0.0000
# 5 0.0000 0.0000 0.0000 0.0000 -16.2391 0.0000
# 6 0.0000 0.0000 0.0000 0.0000 0.0000 117.3211
#
#
#
# Elastic Compliance Matrix: (Units=1/GPa)
#
#
# Indices 1 2 3 4 5 6 
#
# 1 0.011672 -0.001858 -0.000708 0.000000 0.000000 0.000000
# 2 -0.001858 0.006184 -0.005517 0.000000 0.000000 0.000000
# 3 -0.000708 -0.005517 0.018245 0.000000 0.000000 0.000000
# 4 0.000000 0.000000 0.000000 0.010679 0.000000 0.000000
# 5 0.000000 0.000000 0.000000 0.000000 -0.061580 0.000000
# 6 0.000000 0.000000 0.000000 0.000000 0.000000 0.008524
#
#
# Mechanical properties :
#
#
# Convention : Reuss Voigt Hill
#
# Bulk Modulus (GPa) = 50.16225 75.65443 62.90834
# Shear Modulus (GPa) = 302.38326 57.51620 179.94973
#
# Velocity S-wave (km/s) = 11.03014 4.81058 8.50898
# Velocity P-wave (km/s) = 13.50561 7.82912 11.03849
#
# Compressibility (1/GPa) = 0.01993531
#
# Stress axis : x y z
#
# Youngs Moduli (GPa) = 85.67467 161.71511 54.80814
#
# Poissons Ratio (x) = 0.30050 0.03878
# Poissons Ratio (y) = 0.15920 0.30239
# Poissons Ratio (z) = 0.06062 0.89222
#
# Static dielectric constant tensor:
#      x y z
#    x 2.064840 0.000000 0.000000 
#    y 0.000000 1.935910 0.000000 
#    z 0.000000 0.000000 1.904020 
# 
# From -- ./inp_files/26276.got.cif
#   From: 2010.05.17/outbox.cif.g08.bks.cpg/sg66_14_cif.got.tgz:26276.got - 2010.06.03 17:51:23.
