data_PCOD9495925
_publ_section_title
;
Structure prediction by ZEFSAII (Michael W. Deem and Ramdas Pophale) SiO2 
 PCOD9495925
Probable space group: C C C M
;
_chemical_formula_sum "Si O2"
_cell_formula_units_Z 96
_cell_length_a 28.443377
_cell_length_b 21.375206
_cell_length_c 7.711609
_cell_angle_alpha 90.000000
_cell_angle_beta 90.000000
_cell_angle_gamma 90.000000
_cell_volume 4688.527504
_symmetry_space_group_name_H-M "C C C M"
_symmetry_group_IT_number 66
_symmetry_cell_setting 'orthorhombic'
loop_
_space_group_symop_operation_xyz
x,y,z
-x,-y,z
x,-y,1/2-z
-x,y,1/2-z
-x,-y,-z
x,y,-z
-x,y,1/2+z
x,-y,1/2+z
1/2+x,1/2+y,z
1/2-x,1/2-y,z
1/2+x,1/2-y,1/2-z
1/2-x,1/2+y,1/2-z
1/2-x,1/2-y,-z
1/2+x,1/2+y,-z
1/2-x,1/2+y,1/2+z
1/2+x,1/2-y,1/2+z
loop_
_atom_site_type_symbol
_atom_site_label
_atom_site_fract_x
_atom_site_fract_y
_atom_site_fract_z
Si Si1 0.278622 0.688513 0.212216
Si Si2 0.388840 0.929958 0.791525
Si Si3 0.386934 0.311133 0.713075
Si Si4 0.945207 0.690060 0.291527
Si Si5 0.554804 0.570759 0.295259
Si Si6 0.218770 0.570141 0.208296
O O1 0.250000 0.750000 0.266184
O O2 0.332742 0.691128 0.267317
O O3 0.252165 0.625654 0.271148
O O4 0.278601 0.688086 0.000000
O O5 0.421781 0.874254 0.726146
O O6 0.335014 0.923382 0.726497
O O7 0.405433 0.000000 0.750000
O O8 0.386983 0.925150 0.000000
O O9 0.387096 0.311127 0.500000
O O10 0.416058 0.250313 0.770108
O O11 0.412854 0.373948 0.776283
O O12 0.941125 0.689611 0.500000
O O13 0.000000 0.694654 0.250000
O O14 0.568809 0.500000 0.250000
O O15 0.500000 0.579422 0.250000
O O16 0.557916 0.575421 0.500000
O O17 0.235257 0.500000 0.250000
O O18 0.216885 0.575360 0.000000
#
# Coordination Sequence:
#
# PCOD9495925 Si02
#       6
#    16  16  16  16  16  16
#     4   9  16  28  49  74  97 123 159 199 235 276
#     4   9  18  32  50  72  98 127 158 194 235 281
#     4   9  18  31  48  71  97 125 158 198 239 280
#     4  10  20  34  51  71  96 125 160 200 240 281
#     4  10  19  32  50  71  97 127 160 196 236 282
#     4   9  17  30  50  74  98 126 158 192 234 282
#
# _framework density 20.475511999999998
#
# number of rings (size 3 to 8) (size 9 to 14) (size 15 to 20)
#    0.000    2.667    0.000    2.500    0.000    5.667 
#    0.000    2.500    0.000    2.500    0.000    0.000 
#    0.000    0.000    0.000    0.000    0.000    0.000 
#
# Total GULP energy -267951.610567 kJ/mol
# GULP energy per Si atom -5582.325220 kJ/mol
# Density = 2.042891 g / cm^3
# Si number density = 20.475512 Si / 1000 Ang^3
#
#
#
# Elastic Constant Matrix: (Units=GPa)
#
#
# Indices 1 2 3 4 5 6 
#
# 1 152.0829 137.9824 4.5598 0.0000 0.0000 0.0000
# 2 137.9824 217.7102 8.1034 0.0000 0.0000 0.0000
# 3 4.5598 8.1034 32.1323 0.0000 0.0000 0.0000
# 4 0.0000 0.0000 0.0000 -365.7544 0.0000 0.0000
# 5 0.0000 0.0000 0.0000 0.0000 12.0669 0.0000
# 6 0.0000 0.0000 0.0000 0.0000 0.0000 44.0573
#
#
#
# Elastic Compliance Matrix: (Units=1/GPa)
#
#
# Indices 1 2 3 4 5 6 
#
# 1 0.015475 -0.009818 0.000280 0.000000 0.000000 0.000000
# 2 -0.009818 0.010866 -0.001347 0.000000 0.000000 0.000000
# 3 0.000280 -0.001347 0.031421 0.000000 0.000000 0.000000
# 4 0.000000 0.000000 0.000000 -0.002734 0.000000 0.000000
# 5 0.000000 0.000000 0.000000 0.000000 0.082871 0.000000
# 6 0.000000 0.000000 0.000000 0.000000 0.000000 0.022698
#
#
# Mechanical properties :
#
#
# Convention : Reuss Voigt Hill
#
# Bulk Modulus (GPa) = 27.78408 78.13515 52.95961
# Shear Modulus (GPa) = 25.72482 -45.17405 -9.72461
#
# Velocity S-wave (km/s) = 3.54838 -4.70217 -2.18167
# Velocity P-wave (km/s) = 5.51243 2.96018 4.42433
#
# Compressibility (1/GPa) = 0.03599184
#
# Stress axis : x y z
#
# Youngs Moduli (GPa) = 64.62074 92.02933 31.82558
#
# Poissons Ratio (x) = 0.90357 -0.00891
# Poissons Ratio (y) = 0.63446 0.04287
# Poissons Ratio (z) = -0.01810 0.12397
#
# Static dielectric constant tensor:
#      x y z
#    x 1.749210 0.000000 0.000000 
#    y 0.000000 1.731020 0.000000 
#    z 0.000000 0.000000 1.765080 
# 
# From -- ./inp_files/7998.got.cif
#   From: 2010.05.17/outbox.cif.g08.bks.cpg/sg66_4_cif.got.tgz:7998.got - 2010.06.03 17:51:23.
