data_PCOD9495244
_publ_section_title
;
Structure prediction by ZEFSAII (Michael W. Deem and Ramdas Pophale) SiO2 
 PCOD9495244
Probable space group: C C C M
;
_chemical_formula_sum "Si O2"
_cell_formula_units_Z 84
_cell_length_a 19.840431
_cell_length_b 13.880278
_cell_length_c 13.369532
_cell_angle_alpha 90.000000
_cell_angle_beta 90.000000
_cell_angle_gamma 90.000000
_cell_volume 3681.844748
_symmetry_space_group_name_H-M "C C C M"
_symmetry_group_IT_number 66
_symmetry_cell_setting 'orthorhombic'
loop_
_space_group_symop_operation_xyz
x,y,z
-x,-y,z
x,-y,1/2-z
-x,y,1/2-z
-x,-y,-z
x,y,-z
-x,y,1/2+z
x,-y,1/2+z
1/2+x,1/2+y,z
1/2-x,1/2-y,z
1/2+x,1/2-y,1/2-z
1/2-x,1/2+y,1/2-z
1/2-x,1/2-y,-z
1/2+x,1/2+y,-z
1/2-x,1/2+y,1/2+z
1/2+x,1/2-y,1/2+z
loop_
_atom_site_type_symbol
_atom_site_label
_atom_site_fract_x
_atom_site_fract_y
_atom_site_fract_z
Si Si1 0.694582 0.635730 0.000000
Si Si2 0.605870 0.370223 0.688197
Si Si3 0.575943 0.142229 0.707054
Si Si4 0.169021 0.365008 0.610453
Si Si5 0.500000 0.500000 0.750000
Si Si6 0.349635 0.865622 0.500000
Si Si7 0.675315 0.369538 0.890692
O O1 0.659901 0.606830 0.896517
O O2 0.673344 0.751098 0.000000
O O3 0.771834 0.598780 0.000000
O O4 0.586760 0.257741 0.695515
O O5 0.538933 0.429477 0.675627
O O6 0.633419 0.400741 0.796296
O O7 0.500000 0.124215 0.750000
O O8 0.624119 0.106366 0.796163
O O9 0.605891 0.109408 0.598722
O O10 0.144466 0.395366 0.500000
O O11 0.246403 0.395043 0.622438
O O12 0.171041 0.247726 0.609582
O O13 0.652311 0.402096 0.000000
#
# Coordination Sequence:
#
# PCOD9495244 Si02
#       7
#     8  16  16  16   4   8  16
#     4   9  18  35  54  66  86 123 175 224 241 288
#     4  10  20  35  46  63  90 131 177 214 245 272
#     4  10  18  28  43  68 100 132 155 198 245 307
#     4   8  14  24  44  66  87 112 151 194 248 302
#     4  12  24  38  44  68  98 140 184 212 244 276
#     4   9  18  30  50  74  90 123 168 199 256 307
#     4   8  14  28  46  66  81 111 156 206 248 292
#
# _framework density 22.81465
#
# number of rings (size 3 to 8) (size 9 to 14) (size 15 to 20)
#    0.000    2.857    0.952    2.286    1.333    4.952 
#    3.429    0.000    0.000    0.000    0.000    0.000 
#    0.000    0.000    0.000   20.571    0.000    0.000 
#
# Total GULP energy -234324.931472 kJ/mol
# GULP energy per Si atom -5579.165035 kJ/mol
# Density = 2.276272 g / cm^3
# Si number density = 22.814650 Si / 1000 Ang^3
#
#
#
# Elastic Constant Matrix: (Units=GPa)
#
#
# Indices 1 2 3 4 5 6 
#
# 1 112.7539 9.9098 94.0818 0.0000 0.0000 0.0000
# 2 9.9098 67.0807 16.4669 0.0000 0.0000 0.0000
# 3 94.0818 16.4669 187.7185 0.0000 0.0000 0.0000
# 4 0.0000 0.0000 0.0000 22.0556 0.0000 0.0000
# 5 0.0000 0.0000 0.0000 0.0000 28.3379 0.0000
# 6 0.0000 0.0000 0.0000 0.0000 0.0000 12.0206
#
#
#
# Elastic Compliance Matrix: (Units=1/GPa)
#
#
# Indices 1 2 3 4 5 6 
#
# 1 0.015253 -0.000385 -0.007611 0.000000 0.000000 0.000000
# 2 -0.000385 0.015245 -0.001144 0.000000 0.000000 0.000000
# 3 -0.007611 -0.001144 0.009242 0.000000 0.000000 0.000000
# 4 0.000000 0.000000 0.000000 0.045340 0.000000 0.000000
# 5 0.000000 0.000000 0.000000 0.000000 0.035288 0.000000
# 6 0.000000 0.000000 0.000000 0.000000 0.000000 0.083191
#
#
# Mechanical properties :
#
#
# Convention : Reuss Voigt Hill
#
# Bulk Modulus (GPa) = 46.59868 67.60777 57.10322
# Shear Modulus (GPa) = 21.83468 28.95579 25.39523
#
# Velocity S-wave (km/s) = 3.09697 3.56641 3.33995
# Velocity P-wave (km/s) = 5.76694 6.83059 6.32117
#
# Compressibility (1/GPa) = 0.02145984
#
# Stress axis : x y z
#
# Youngs Moduli (GPa) = 65.55966 65.59435 108.20162
#
# Poissons Ratio (x) = 0.02526 0.82352
# Poissons Ratio (y) = 0.02524 0.12382
# Poissons Ratio (z) = 0.49897 0.07506
#
# Static dielectric constant tensor:
#      x y z
#    x 1.879110 0.000000 0.000000 
#    y 0.000000 1.941540 0.000000 
#    z 0.000000 0.000000 2.456200 
# 
# From -- ./inp_files/18917.got.cif
#   From: 2010.05.17/outbox.cif.g08.bks.cpg/sg66_10_cif.got.tgz:18917.got - 2010.06.03 17:51:23.
