data_PCOD9495687
_publ_section_title
;
Structure prediction by ZEFSAII (Michael W. Deem and Ramdas Pophale) SiO2 
 PCOD9495687
Probable space group: C C C M
;
_chemical_formula_sum "Si O2"
_cell_formula_units_Z 60
_cell_length_a 16.570621
_cell_length_b 7.197005
_cell_length_c 19.630007
_cell_angle_alpha 90.000000
_cell_angle_beta 90.000000
_cell_angle_gamma 90.000000
_cell_volume 2341.051907
_symmetry_space_group_name_H-M "C C C M"
_symmetry_group_IT_number 66
_symmetry_cell_setting 'orthorhombic'
loop_
_space_group_symop_operation_xyz
x,y,z
-x,-y,z
x,-y,1/2-z
-x,y,1/2-z
-x,-y,-z
x,y,-z
-x,y,1/2+z
x,-y,1/2+z
1/2+x,1/2+y,z
1/2-x,1/2-y,z
1/2+x,1/2-y,1/2-z
1/2-x,1/2+y,1/2-z
1/2-x,1/2-y,-z
1/2+x,1/2+y,-z
1/2-x,1/2+y,1/2+z
1/2+x,1/2-y,1/2+z
loop_
_atom_site_type_symbol
_atom_site_label
_atom_site_fract_x
_atom_site_fract_y
_atom_site_fract_z
Si Si1 0.403948 0.996525 0.351407
Si Si2 0.403171 0.544175 0.500000
Si Si3 0.500000 0.500000 0.750000
Si Si4 0.135640 0.945916 0.650525
Si Si5 0.596218 0.016597 0.500000
Si Si6 0.218149 0.500000 0.250000
O O1 0.387096 0.774025 0.348106
O O2 0.379202 0.060617 0.427083
O O3 0.348657 0.102520 0.296807
O O4 0.500000 0.000000 0.339791
O O5 0.500000 0.500000 0.500000
O O6 0.366145 0.485970 0.572528
O O7 0.387617 0.764962 0.500000
O O8 0.567183 0.555548 0.692967
O O9 0.219692 0.947763 0.690482
O O10 0.500000 0.000000 0.500000
#
# Coordination Sequence:
#
# PCOD9495687 Si02
#       6
#    16   8   4  16   8   8
#     4  10  21  39  63  89 118 167 207 249 310 379
#     4  10  18  37  63  89 118 168 210 254 310 373
#     4  10  20  34  56  88 126 154 190 254 300 368
#     4  10  22  38  59  90 124 156 208 255 306 365
#     4   8  18  37  59  89 117 153 214 254 297 372
#     4  11  23  37  53  94 124 158 197 255 307 351
#
# _framework density 25.629505999999999
#
# number of rings (size 3 to 8) (size 9 to 14) (size 15 to 20)
#    0.000    2.133    1.333    1.200    3.733    1.067 
#    0.000    4.000    0.000    0.000    0.000   14.933 
#    0.000    0.000    0.000    0.000    0.000    0.000 
#
# Total GULP energy -167034.348075 kJ/mol
# GULP energy per Si atom -5567.811603 kJ/mol
# Density = 2.557117 g / cm^3
# Si number density = 25.629506 Si / 1000 Ang^3
#
#
#
# Elastic Constant Matrix: (Units=GPa)
#
#
# Indices 1 2 3 4 5 6 
#
# 1 182.1154 45.2370 105.1532 0.0000 0.0000 0.0000
# 2 45.2370 105.0843 14.9102 0.0000 0.0000 0.0000
# 3 105.1532 14.9102 308.6066 0.0000 0.0000 0.0000
# 4 0.0000 0.0000 0.0000 -15.4777 0.0000 0.0000
# 5 0.0000 0.0000 0.0000 0.0000 56.5857 0.0000
# 6 0.0000 0.0000 0.0000 0.0000 0.0000 24.2528
#
#
#
# Elastic Compliance Matrix: (Units=1/GPa)
#
#
# Indices 1 2 3 4 5 6 
#
# 1 0.007643 -0.002941 -0.002462 0.000000 0.000000 0.000000
# 2 -0.002941 0.010713 0.000484 0.000000 0.000000 0.000000
# 3 -0.002462 0.000484 0.004056 0.000000 0.000000 0.000000
# 4 0.000000 0.000000 0.000000 -0.064609 0.000000 0.000000
# 5 0.000000 0.000000 0.000000 0.000000 0.017672 0.000000
# 6 0.000000 0.000000 0.000000 0.000000 0.000000 0.041232
#
#
# Mechanical properties :
#
#
# Convention : Reuss Voigt Hill
#
# Bulk Modulus (GPa) = 79.52141 102.93411 91.22776
# Shear Modulus (GPa) = 162.66956 41.77256 102.22106
#
# Velocity S-wave (km/s) = 7.97543 4.04153 6.32224
# Velocity P-wave (km/s) = 10.76590 7.87580 9.43220
#
# Compressibility (1/GPa) = 0.01257523
#
# Stress axis : x y z
#
# Youngs Moduli (GPa) = 130.83478 93.34067 246.55237
#
# Poissons Ratio (x) = 0.27451 0.60707
# Poissons Ratio (y) = 0.38477 -0.11944
# Poissons Ratio (z) = 0.32215 -0.04522
#
# Static dielectric constant tensor:
#      x y z
#    x 1.936000 0.000000 0.000000 
#    y 0.000000 2.485770 0.000000 
#    z 0.000000 0.000000 2.115120 
# 
# From -- ./inp_files/37939.got.cif
#   From: 2010.05.17/outbox.cif.g08.bks.cpg/sg66_19_cif.got.tgz:37939.got - 2010.06.03 17:51:23.
