data_PCOD9495288
_publ_section_title
;
Structure prediction by ZEFSAII (Michael W. Deem and Ramdas Pophale) SiO2 
 PCOD9495288
Probable space group: C C C M
;
_chemical_formula_sum "Si O2"
_cell_formula_units_Z 112
_cell_length_a 12.493419
_cell_length_b 21.391882
_cell_length_c 24.258299
_cell_angle_alpha 90.000000
_cell_angle_beta 90.000000
_cell_angle_gamma 90.000000
_cell_volume 6483.218289
_symmetry_space_group_name_H-M "C C C M"
_symmetry_group_IT_number 66
_symmetry_cell_setting 'orthorhombic'
loop_
_space_group_symop_operation_xyz
x,y,z
-x,-y,z
x,-y,1/2-z
-x,y,1/2-z
-x,-y,-z
x,y,-z
-x,y,1/2+z
x,-y,1/2+z
1/2+x,1/2+y,z
1/2-x,1/2-y,z
1/2+x,1/2-y,1/2-z
1/2-x,1/2+y,1/2-z
1/2-x,1/2-y,-z
1/2+x,1/2+y,-z
1/2-x,1/2+y,1/2+z
1/2+x,1/2-y,1/2+z
loop_
_atom_site_type_symbol
_atom_site_label
_atom_site_fract_x
_atom_site_fract_y
_atom_site_fract_z
Si Si1 0.377972 0.746354 0.169187
Si Si2 0.500969 0.229744 0.560343
Si Si3 0.303303 0.181495 0.119113
Si Si4 0.821665 0.929292 0.743999
Si Si5 0.901756 0.870159 0.062387
Si Si6 0.384952 0.850351 0.740833
Si Si7 0.004061 0.110447 0.669627
O O1 0.250000 0.750000 0.162943
O O2 0.424841 0.775557 0.112962
O O3 0.396873 0.787013 0.223810
O O4 0.441954 0.680133 0.174880
O O5 0.454691 0.216025 0.500000
O O6 0.604389 0.188511 0.573878
O O7 0.546660 0.300586 0.559215
O O8 0.250000 0.250000 0.128526
O O9 0.211510 0.138505 0.093194
O O10 0.355876 0.161279 0.176875
O O11 0.718531 0.886351 0.736161
O O12 0.897977 0.899943 0.792504
O O13 0.903342 0.932514 0.693244
O O14 0.784057 0.000000 0.750000
O O15 0.975631 0.904230 0.106827
O O16 0.893620 0.894029 0.000000
O O17 0.500000 0.883020 0.750000
#
# Coordination Sequence:
#
# PCOD9495288 Si02
#       7
#    16  16  16  16  16  16  16
#     4  11  21  31  51  83 119 144 177 228 282 344
#     4   9  18  30  45  71 111 153 185 214 266 341
#     4  10  18  29  48  76 112 147 179 227 274 332
#     4  11  24  40  58  79 110 154 194 233 280 341
#     4   9  17  30  51  81 113 144 179 223 278 335
#     4  12  23  34  55  84 115 144 186 233 290 332
#     4  10  20  35  58  83 111 144 183 228 283 332
#
# _framework density 17.275371
#
# number of rings (size 3 to 8) (size 9 to 14) (size 15 to 20)
#    0.000    1.714    4.286    1.714    2.000    2.286 
#    0.000    0.000    0.000    1.714    0.000    0.000 
#    0.000    2.286    0.000    0.000    0.000    0.000 
#
# Total GULP energy -311787.769745 kJ/mol
# GULP energy per Si atom -5567.638745 kJ/mol
# Density = 1.723605 g / cm^3
# Si number density = 17.275371 Si / 1000 Ang^3
#
#
#
# Elastic Constant Matrix: (Units=GPa)
#
#
# Indices 1 2 3 4 5 6 
#
# 1 97.1971 1.2319 24.7891 0.0000 0.0000 0.0000
# 2 1.2319 19.8716 -2.0732 0.0000 0.0000 0.0000
# 3 24.7891 -2.0732 118.5705 0.0000 0.0000 0.0000
# 4 0.0000 0.0000 0.0000 2.1587 0.0000 0.0000
# 5 0.0000 0.0000 0.0000 0.0000 20.7916 0.0000
# 6 0.0000 0.0000 0.0000 0.0000 0.0000 -3.6515
#
#
#
# Elastic Compliance Matrix: (Units=1/GPa)
#
#
# Indices 1 2 3 4 5 6 
#
# 1 0.010884 -0.000914 -0.002292 0.000000 0.000000 0.000000
# 2 -0.000914 0.050492 0.001074 0.000000 0.000000 0.000000
# 3 -0.002292 0.001074 0.008932 0.000000 0.000000 0.000000
# 4 0.000000 0.000000 0.000000 0.463238 0.000000 0.000000
# 5 0.000000 0.000000 0.000000 0.000000 0.048096 0.000000
# 6 0.000000 0.000000 0.000000 0.000000 0.000000 -0.273859
#
#
# Mechanical properties :
#
#
# Convention : Reuss Voigt Hill
#
# Bulk Modulus (GPa) = 15.14119 31.50385 23.32252
# Shear Modulus (GPa) = 14.96732 17.97253 16.46992
#
# Velocity S-wave (km/s) = 2.94665 3.22895 3.09103
# Velocity P-wave (km/s) = 4.51228 5.67251 5.12533
#
# Compressibility (1/GPa) = 0.06604501
#
# Stress axis : x y z
#
# Youngs Moduli (GPa) = 91.87468 19.80516 111.96128
#
# Poissons Ratio (x) = 0.01810 0.25656
# Poissons Ratio (y) = 0.08396 -0.12024
# Poissons Ratio (z) = 0.21053 -0.02127
#
# Static dielectric constant tensor:
#      x y z
#    x 1.618610 0.000000 0.000000 
#    y 0.000000 1.587060 0.000000 
#    z 0.000000 0.000000 1.610870 
# 
# From -- ./inp_files/57301.got.cif
#   From: 2010.05.17/outbox.cif.g08.bks.cpg/sg66_29_cif.got.tgz:57301.got - 2010.06.03 17:51:23.
