data_PCOD9495998
_publ_section_title
;
Structure prediction by ZEFSAII (Michael W. Deem and Ramdas Pophale) SiO2 
 PCOD9495998
Probable space group: C C C M
;
_chemical_formula_sum "Si O2"
_cell_formula_units_Z 48
_cell_length_a 9.157950
_cell_length_b 13.114266
_cell_length_c 14.042803
_cell_angle_alpha 90.000000
_cell_angle_beta 90.000000
_cell_angle_gamma 90.000000
_cell_volume 1686.537724
_symmetry_space_group_name_H-M "C C C M"
_symmetry_group_IT_number 66
_symmetry_cell_setting 'orthorhombic'
loop_
_space_group_symop_operation_xyz
x,y,z
-x,-y,z
x,-y,1/2-z
-x,y,1/2-z
-x,-y,-z
x,y,-z
-x,y,1/2+z
x,-y,1/2+z
1/2+x,1/2+y,z
1/2-x,1/2-y,z
1/2+x,1/2-y,1/2-z
1/2-x,1/2+y,1/2-z
1/2-x,1/2-y,-z
1/2+x,1/2+y,-z
1/2-x,1/2+y,1/2+z
1/2+x,1/2-y,1/2+z
loop_
_atom_site_type_symbol
_atom_site_label
_atom_site_fract_x
_atom_site_fract_y
_atom_site_fract_z
Si Si1 0.323191 0.879120 0.675191
Si Si2 0.697111 0.892801 0.390874
Si Si3 0.465072 0.676757 0.604828
O O1 0.360518 0.859708 0.786059
O O2 0.406704 0.793066 0.615158
O O3 0.146201 0.874385 0.676886
O O4 0.339355 0.987757 0.624549
O O5 0.652996 0.864677 0.500000
O O6 0.865965 0.852850 0.387922
O O7 0.420062 0.640063 0.500000
#
# Coordination Sequence:
#
# PCOD9495998 Si02
#       3
#    16  16  16
#     4  10  19  33  55  85 124 163 208 261 317 382
#     4  10  20  34  56  87 123 164 211 264 320 381
#     4  10  19  32  53  84 122 163 210 263 320 382
#
# _framework density 28.460674999999998
#
# number of rings (size 3 to 8) (size 9 to 14) (size 15 to 20)
#    0.000    2.000    0.000    6.000    0.000    5.333 
#    0.000    3.333    0.000   12.000    0.000   84.000 
#    0.000  277.333    0.000    0.000    0.000    0.000 
#
# Total GULP energy -133896.858479 kJ/mol
# GULP energy per Si atom -5579.035770 kJ/mol
# Density = 2.839590 g / cm^3
# Si number density = 28.460675 Si / 1000 Ang^3
#
#
#
# Elastic Constant Matrix: (Units=GPa)
#
#
# Indices 1 2 3 4 5 6 
#
# 1 194.9592 40.8165 76.8770 0.0000 0.0000 0.0000
# 2 40.8165 99.9687 -4.5694 0.0000 0.0000 0.0000
# 3 76.8770 -4.5694 251.6092 0.0000 0.0000 0.0000
# 4 0.0000 0.0000 0.0000 24.9160 0.0000 0.0000
# 5 0.0000 0.0000 0.0000 0.0000 63.3727 0.0000
# 6 0.0000 0.0000 0.0000 0.0000 0.0000 -26.5156
#
#
#
# Elastic Compliance Matrix: (Units=1/GPa)
#
#
# Indices 1 2 3 4 5 6 
#
# 1 0.006509 -0.002751 -0.002039 0.000000 0.000000 0.000000
# 2 -0.002751 0.011174 0.001043 0.000000 0.000000 0.000000
# 3 -0.002039 0.001043 0.004616 0.000000 0.000000 0.000000
# 4 0.000000 0.000000 0.000000 0.040135 0.000000 0.000000
# 5 0.000000 0.000000 0.000000 0.000000 0.015780 0.000000
# 6 0.000000 0.000000 0.000000 0.000000 0.000000 -0.037714
#
#
# Mechanical properties :
#
#
# Convention : Reuss Voigt Hill
#
# Bulk Modulus (GPa) = 67.53540 85.86504 76.70022
# Shear Modulus (GPa) = 94.46740 41.24881 67.85810
#
# Velocity S-wave (km/s) = 5.76752 3.81113 4.88820
# Velocity P-wave (km/s) = 8.25429 7.04283 7.67251
#
# Compressibility (1/GPa) = 0.01480705
#
# Stress axis : x y z
#
# Youngs Moduli (GPa) = 153.63059 89.49376 216.62402
#
# Poissons Ratio (x) = 0.24618 0.44165
# Poissons Ratio (y) = 0.42261 -0.22603
# Poissons Ratio (z) = 0.31322 -0.09338
#
# Static dielectric constant tensor:
#      x y z
#    x 2.318990 0.000000 0.000000 
#    y 0.000000 2.371060 0.000000 
#    z 0.000000 0.000000 2.082560 
# 
# From -- ./inp_files/25261.got.cif
#   From: 2010.05.17/outbox.cif.g08.bks.cpg/sg66_13_cif.got.tgz:25261.got - 2010.06.03 17:51:23.
