data_PCOD9495214
_publ_section_title
;
Structure prediction by ZEFSAII (Michael W. Deem and Ramdas Pophale) SiO2 
 PCOD9495214
Probable space group: C C C M
;
_chemical_formula_sum "Si O2"
_cell_formula_units_Z 96
_cell_length_a 9.482659
_cell_length_b 29.638644
_cell_length_c 14.313341
_cell_angle_alpha 90.000000
_cell_angle_beta 90.000000
_cell_angle_gamma 90.000000
_cell_volume 4022.809636
_symmetry_space_group_name_H-M "C C C M"
_symmetry_group_IT_number 66
_symmetry_cell_setting 'orthorhombic'
loop_
_space_group_symop_operation_xyz
x,y,z
-x,-y,z
x,-y,1/2-z
-x,y,1/2-z
-x,-y,-z
x,y,-z
-x,y,1/2+z
x,-y,1/2+z
1/2+x,1/2+y,z
1/2-x,1/2-y,z
1/2+x,1/2-y,1/2-z
1/2-x,1/2+y,1/2-z
1/2-x,1/2-y,-z
1/2+x,1/2+y,-z
1/2-x,1/2+y,1/2+z
1/2+x,1/2-y,1/2+z
loop_
_atom_site_type_symbol
_atom_site_label
_atom_site_fract_x
_atom_site_fract_y
_atom_site_fract_z
Si Si1 0.779026 0.390122 0.895544
Si Si2 0.001746 0.324113 0.386183
Si Si3 0.310605 0.447324 0.767009
Si Si4 0.590524 0.730167 0.892194
Si Si5 0.687307 0.636424 0.887322
Si Si6 0.941621 0.450263 0.600238
O O1 0.684318 0.420103 0.829112
O O2 0.848557 0.344851 0.854662
O O3 0.924613 0.418359 0.901399
O O4 0.721578 0.383804 0.000000
O O5 0.006018 0.324517 0.500000
O O6 0.994193 0.272543 0.353601
O O7 0.854695 0.351499 0.365340
O O8 0.351758 0.500000 0.750000
O O9 0.366124 0.410473 0.842649
O O10 0.152626 0.448879 0.808328
O O11 0.750000 0.750000 0.894948
O O12 0.600088 0.680017 0.851850
O O13 0.544112 0.724698 0.000000
O O14 0.676781 0.636147 0.000000
O O15 0.863317 0.442653 0.500000
O O16 0.000000 0.500000 0.596757
#
# Coordination Sequence:
#
# PCOD9495214 Si02
#       6
#    16  16  16  16  16  16
#     4  10  19  26  32  44  65  91 119 148 177 208
#     4   8  13  22  35  48  61  78 102 141 188 221
#     4  12  21  24  32  45  68 100 128 145 168 200
#     4   7  11  21  36  50  61  73  98 142 191 225
#     4   9  16  25  36  49  64  85 113 148 185 212
#     4  10  18  26  32  39  57  90 124 147 168 196
#
# _framework density 23.863917000000001
#
# number of rings (size 3 to 8) (size 9 to 14) (size 15 to 20)
#    0.000    2.667    3.333    3.000    0.000    0.667 
#    0.000    0.000    0.000    0.000    0.000    0.000 
#    0.000    8.667    0.000    0.000    0.000    0.000 
#
# Total GULP energy -267300.396756 kJ/mol
# GULP energy per Si atom -5568.758266 kJ/mol
# Density = 2.380960 g / cm^3
# Si number density = 23.863917 Si / 1000 Ang^3
#
#
#
# Elastic Constant Matrix: (Units=GPa)
#
#
# Indices 1 2 3 4 5 6 
#
# 1 32.6527 12.1869 16.1995 0.0000 0.0000 0.0000
# 2 12.1869 196.6567 29.1151 0.0000 0.0000 0.0000
# 3 16.1995 29.1151 119.0855 0.0000 0.0000 0.0000
# 4 0.0000 0.0000 0.0000 -2.5520 0.0000 0.0000
# 5 0.0000 0.0000 0.0000 0.0000 -11.9015 0.0000
# 6 0.0000 0.0000 0.0000 0.0000 0.0000 -21.0356
#
#
#
# Elastic Compliance Matrix: (Units=1/GPa)
#
#
# Indices 1 2 3 4 5 6 
#
# 1 0.033231 -0.001442 -0.004168 0.000000 0.000000 0.000000
# 2 -0.001442 0.005339 -0.001109 0.000000 0.000000 0.000000
# 3 -0.004168 -0.001109 0.009235 0.000000 0.000000 0.000000
# 4 0.000000 0.000000 0.000000 -0.391843 0.000000 0.000000
# 5 0.000000 0.000000 0.000000 0.000000 -0.084023 0.000000
# 6 0.000000 0.000000 0.000000 0.000000 0.000000 -0.047538
#
#
# Mechanical properties :
#
#
# Convention : Reuss Voigt Hill
#
# Bulk Modulus (GPa) = 29.09776 51.48864 40.29320
# Shear Modulus (GPa) = -11.09373 12.29507 0.60067
#
# Velocity S-wave (km/s) = -2.15843 2.27230 0.50225
# Velocity P-wave (km/s) = 2.45110 5.33922 4.15422
#
# Compressibility (1/GPa) = 0.03436691
#
# Stress axis : x y z
#
# Youngs Moduli (GPa) = 30.09206 187.31593 108.27847
#
# Poissons Ratio (x) = 0.27016 0.45130
# Poissons Ratio (y) = 0.04340 0.12008
# Poissons Ratio (z) = 0.12542 0.20774
#
# Static dielectric constant tensor:
#      x y z
#    x 1.886400 0.000000 0.000000 
#    y 0.000000 2.579310 0.000000 
#    z 0.000000 0.000000 1.967390 
# 
# From -- ./inp_files/28963.got.cif
#   From: 2010.05.17/outbox.cif.g08.bks.cpg/sg66_15_cif.got.tgz:28963.got - 2010.06.03 17:51:23.
