data_PCOD9495476
_publ_section_title
;
Structure prediction by ZEFSAII (Michael W. Deem and Ramdas Pophale) SiO2 
 PCOD9495476
Probable space group: C C C M
;
_chemical_formula_sum "Si O2"
_cell_formula_units_Z 96
_cell_length_a 30.416849
_cell_length_b 20.543244
_cell_length_c 7.743448
_cell_angle_alpha 90.000000
_cell_angle_beta 90.000000
_cell_angle_gamma 90.000000
_cell_volume 4838.576730
_symmetry_space_group_name_H-M "C C C M"
_symmetry_group_IT_number 66
_symmetry_cell_setting 'orthorhombic'
loop_
_space_group_symop_operation_xyz
x,y,z
-x,-y,z
x,-y,1/2-z
-x,y,1/2-z
-x,-y,-z
x,y,-z
-x,y,1/2+z
x,-y,1/2+z
1/2+x,1/2+y,z
1/2-x,1/2-y,z
1/2+x,1/2-y,1/2-z
1/2-x,1/2+y,1/2-z
1/2-x,1/2-y,-z
1/2+x,1/2+y,-z
1/2-x,1/2+y,1/2+z
1/2+x,1/2-y,1/2+z
loop_
_atom_site_type_symbol
_atom_site_label
_atom_site_fract_x
_atom_site_fract_y
_atom_site_fract_z
Si Si1 0.305261 0.307817 0.291126
Si Si2 0.448594 0.171936 0.708059
Si Si3 0.051128 0.929481 0.297451
Si Si4 0.371588 0.076067 0.292045
Si Si5 0.213271 0.655202 0.208464
Si Si6 0.598511 0.302255 0.800657
O O1 0.304862 0.317054 0.500000
O O2 0.263623 0.349604 0.226092
O O3 0.297946 0.230921 0.260335
O O4 0.354050 0.319161 0.221874
O O5 0.500000 0.163560 0.750000
O O6 0.447011 0.172314 0.500000
O O7 0.414696 0.115951 0.769042
O O8 0.428753 0.241174 0.772495
O O9 0.055971 0.919149 0.500000
O O10 0.071254 0.867959 0.203633
O O11 0.000000 0.931661 0.250000
O O12 0.070408 0.000000 0.250000
O O13 0.371046 0.082363 0.500000
O O14 0.326258 0.109692 0.226636
O O15 0.373498 0.000000 0.250000
O O16 0.214251 0.646694 0.000000
O O17 0.607456 0.283448 0.000000
#
# Coordination Sequence:
#
# PCOD9495476 Si02
#       6
#    16  16  16  16  16  16
#     4   8  13  24  50  80 103 129 166 212 255 303
#     4  10  21  35  52  75 104 137 178 226 270 317
#     4  11  22  37  55  76 103 139 177 214 257 312
#     4  10  20  35  53  75 104 139 179 223 269 319
#     4   8  13  26  49  77 102 129 170 213 254 305
#     4  10  18  32  54  82 110 137 171 216 264 311
#
# _framework density 19.840544999999999
#
# number of rings (size 3 to 8) (size 9 to 14) (size 15 to 20)
#    0.000    2.500    1.667    3.500    0.000    3.000 
#    0.000    2.500    0.000    3.000    0.000    2.333 
#    0.000    0.000    0.000    0.000    0.000    0.000 
#
# Total GULP energy -267430.608836 kJ/mol
# GULP energy per Si atom -5571.471017 kJ/mol
# Density = 1.979539 g / cm^3
# Si number density = 19.840545 Si / 1000 Ang^3
#
#
#
# Elastic Constant Matrix: (Units=GPa)
#
#
# Indices 1 2 3 4 5 6 
#
# 1 198.3922 100.3059 4.6211 0.0000 0.0000 0.0000
# 2 100.3059 129.0850 -5.2173 0.0000 0.0000 0.0000
# 3 4.6211 -5.2173 37.3007 0.0000 0.0000 0.0000
# 4 0.0000 0.0000 0.0000 -3.3246 0.0000 0.0000
# 5 0.0000 0.0000 0.0000 0.0000 7.4499 0.0000
# 6 0.0000 0.0000 0.0000 0.0000 0.0000 26.0595
#
#
#
# Elastic Compliance Matrix: (Units=1/GPa)
#
#
# Indices 1 2 3 4 5 6 
#
# 1 0.008445 -0.006642 -0.001975 0.000000 0.000000 0.000000
# 2 -0.006642 0.013015 0.002643 0.000000 0.000000 0.000000
# 3 -0.001975 0.002643 0.027424 0.000000 0.000000 0.000000
# 4 0.000000 0.000000 0.000000 -0.300785 0.000000 0.000000
# 5 0.000000 0.000000 0.000000 0.000000 0.134231 0.000000
# 6 0.000000 0.000000 0.000000 0.000000 0.000000 0.038374
#
#
# Mechanical properties :
#
#
# Convention : Reuss Voigt Hill
#
# Bulk Modulus (GPa) = 27.07429 62.68858 44.88144
# Shear Modulus (GPa) = -90.84562 23.70816 -33.56873
#
# Velocity S-wave (km/s) = -6.77401 3.46053 -4.11776
# Velocity P-wave (km/s) = 6.89257 6.90158 0.24939
#
# Compressibility (1/GPa) = 0.03693541
#
# Stress axis : x y z
#
# Youngs Moduli (GPa) = 118.42011 76.83683 36.46498
#
# Poissons Ratio (x) = 0.51032 0.07202
# Poissons Ratio (y) = 0.78651 -0.09638
# Poissons Ratio (z) = 0.23390 -0.20309
#
# Static dielectric constant tensor:
#      x y z
#    x 1.749820 0.000000 0.000000 
#    y 0.000000 1.680900 0.000000 
#    z 0.000000 0.000000 1.770440 
# 
# From -- ./inp_files/10263.got.cif
#   From: 2010.05.17/outbox.cif.g08.bks.cpg/sg66_6_cif.got.tgz:10263.got - 2010.06.03 17:51:23.
