data_PCOD9495590
_publ_section_title
;
Structure prediction by ZEFSAII (Michael W. Deem and Ramdas Pophale) SiO2 
 PCOD9495590
Probable space group: C C C M
;
_chemical_formula_sum "Si O2"
_cell_formula_units_Z 88
_cell_length_a 13.023226
_cell_length_b 17.545379
_cell_length_c 22.796518
_cell_angle_alpha 90.000000
_cell_angle_beta 90.000000
_cell_angle_gamma 90.000000
_cell_volume 5208.945912
_symmetry_space_group_name_H-M "C C C M"
_symmetry_group_IT_number 66
_symmetry_cell_setting 'orthorhombic'
loop_
_space_group_symop_operation_xyz
x,y,z
-x,-y,z
x,-y,1/2-z
-x,y,1/2-z
-x,-y,-z
x,y,-z
-x,y,1/2+z
x,-y,1/2+z
1/2+x,1/2+y,z
1/2-x,1/2-y,z
1/2+x,1/2-y,1/2-z
1/2-x,1/2+y,1/2-z
1/2-x,1/2-y,-z
1/2+x,1/2+y,-z
1/2-x,1/2+y,1/2+z
1/2+x,1/2-y,1/2+z
loop_
_atom_site_type_symbol
_atom_site_label
_atom_site_fract_x
_atom_site_fract_y
_atom_site_fract_z
Si Si1 0.329376 0.820958 0.568937
Si Si2 0.739241 0.426525 0.330416
Si Si3 0.750000 0.250000 0.873008
Si Si4 0.002369 0.914847 0.353049
Si Si5 0.536471 0.268397 0.931032
Si Si6 0.786294 0.096384 0.801323
O O1 0.326329 0.846124 0.500000
O O2 0.250000 0.750000 0.573614
O O3 0.296349 0.883489 0.616952
O O4 0.442649 0.788557 0.582880
O O5 0.618850 0.405150 0.333333
O O6 0.763316 0.403655 0.263267
O O7 0.749666 0.518338 0.333108
O O8 0.647631 0.239886 0.911165
O O9 0.761228 0.174321 0.833944
O O10 0.979903 0.848360 0.398574
O O11 0.911492 0.911500 0.304447
O O12 0.000000 0.000000 0.379243
O O13 0.533477 0.280679 0.000000
#
# Coordination Sequence:
#
# PCOD9495590 Si02
#       6
#    16  16   8  16  16  16
#     4  10  20  34  55  82 109 137 176 223 272 323
#     4  10  18  34  54  80 112 140 171 229 274 317
#     4  10  21  38  54  74 105 146 186 220 260 328
#     4   9  17  30  50  79 110 138 172 217 271 328
#     4  10  20  35  53  76 106 142 181 224 266 320
#     4   9  20  33  53  79 109 143 184 215 264 324
#
# _framework density 16.894013000000001
#
# number of rings (size 3 to 8) (size 9 to 14) (size 15 to 20)
#    0.000    2.364    1.818    0.818    1.273    2.545 
#    0.000   10.000    0.000    4.364    0.000    0.000 
#    0.000    0.000    0.000    0.000    0.000    0.000 
#
# Total GULP energy -244989.300703 kJ/mol
# GULP energy per Si atom -5567.938652 kJ/mol
# Density = 1.685556 g / cm^3
# Si number density = 16.894013 Si / 1000 Ang^3
#
#
#
# Elastic Constant Matrix: (Units=GPa)
#
#
# Indices 1 2 3 4 5 6 
#
# 1 86.8663 38.1399 47.3408 0.0000 0.0000 0.0000
# 2 38.1399 89.6385 70.6794 0.0000 0.0000 0.0000
# 3 47.3408 70.6794 99.3327 0.0000 0.0000 0.0000
# 4 0.0000 0.0000 0.0000 21.7598 0.0000 0.0000
# 5 0.0000 0.0000 0.0000 0.0000 12.3751 0.0000
# 6 0.0000 0.0000 0.0000 0.0000 0.0000 16.8612
#
#
#
# Elastic Compliance Matrix: (Units=1/GPa)
#
#
# Indices 1 2 3 4 5 6 
#
# 1 0.015674 -0.001775 -0.006207 0.000000 0.000000 0.000000
# 2 -0.001775 0.025616 -0.017381 0.000000 0.000000 0.000000
# 3 -0.006207 -0.017381 0.025393 0.000000 0.000000 0.000000
# 4 0.000000 0.000000 0.000000 0.045956 0.000000 0.000000
# 5 0.000000 0.000000 0.000000 0.000000 0.080807 0.000000
# 6 0.000000 0.000000 0.000000 0.000000 0.000000 0.059308
#
#
# Mechanical properties :
#
#
# Convention : Reuss Voigt Hill
#
# Bulk Modulus (GPa) = 62.66925 65.35085 64.01005
# Shear Modulus (GPa) = 16.19177 18.17772 17.18475
#
# Velocity S-wave (km/s) = 3.09922 3.28378 3.19283
# Velocity P-wave (km/s) = 7.06986 7.29002 7.18079
#
# Compressibility (1/GPa) = 0.01595679
#
# Stress axis : x y z
#
# Youngs Moduli (GPa) = 63.79992 39.03848 39.38131
#
# Poissons Ratio (x) = 0.06928 0.24445
# Poissons Ratio (y) = 0.11322 0.68448
# Poissons Ratio (z) = 0.39603 0.67852
#
# Static dielectric constant tensor:
#      x y z
#    x 1.593910 0.000000 0.000000 
#    y 0.000000 1.554670 0.000000 
#    z 0.000000 0.000000 1.567050 
# 
# From -- ./inp_files/48557.got.cif
#   From: 2010.05.17/outbox.cif.g08.bks.cpg/sg66_25_cif.got.tgz:48557.got - 2010.06.03 17:51:23.
