data_PCOD9495498
_publ_section_title
;
Structure prediction by ZEFSAII (Michael W. Deem and Ramdas Pophale) SiO2 
 PCOD9495498
Probable space group: C C C M
;
_chemical_formula_sum "Si O2"
_cell_formula_units_Z 112
_cell_length_a 12.044651
_cell_length_b 17.532417
_cell_length_c 25.528807
_cell_angle_alpha 90.000000
_cell_angle_beta 90.000000
_cell_angle_gamma 90.000000
_cell_volume 5390.965248
_symmetry_space_group_name_H-M "C C C M"
_symmetry_group_IT_number 66
_symmetry_cell_setting 'orthorhombic'
loop_
_space_group_symop_operation_xyz
x,y,z
-x,-y,z
x,-y,1/2-z
-x,y,1/2-z
-x,-y,-z
x,y,-z
-x,y,1/2+z
x,-y,1/2+z
1/2+x,1/2+y,z
1/2-x,1/2-y,z
1/2+x,1/2-y,1/2-z
1/2-x,1/2+y,1/2-z
1/2-x,1/2-y,-z
1/2+x,1/2+y,-z
1/2-x,1/2+y,1/2+z
1/2+x,1/2-y,1/2+z
loop_
_atom_site_type_symbol
_atom_site_label
_atom_site_fract_x
_atom_site_fract_y
_atom_site_fract_z
Si Si1 0.304212 0.572041 0.329939
Si Si2 0.429497 0.250496 0.915984
Si Si3 0.206122 0.897782 0.838972
Si Si4 0.375169 0.907951 0.245424
Si Si5 0.263169 0.126463 0.940956
Si Si6 0.994321 0.806124 0.190134
Si Si7 0.169514 0.820054 0.059528
O O1 0.325640 0.482660 0.319888
O O2 0.212468 0.609446 0.291489
O O3 0.258250 0.575935 0.389467
O O4 0.414890 0.620377 0.319809
O O5 0.381181 0.170351 0.935607
O O6 0.334267 0.310334 0.933158
O O7 0.446810 0.248434 0.853161
O O8 0.545043 0.285967 0.935863
O O9 0.322053 0.883678 0.809873
O O10 0.198947 0.888209 0.901169
O O11 0.117926 0.834462 0.821980
O O12 0.500000 0.880232 0.250000
O O13 0.380656 0.000000 0.250000
O O14 0.253844 0.094580 0.000000
O O15 0.000000 0.782984 0.250000
O O16 0.250000 0.750000 0.073084
O O17 0.188799 0.843187 0.000000
#
# Coordination Sequence:
#
# PCOD9495498 Si02
#       7
#    16  16  16  16  16  16  16
#     4  10  20  32  53  84 110 140 182 222 277 338
#     4   9  19  35  55  78 106 142 185 223 271 324
#     4  10  20  34  54  80 110 142 177 225 279 334
#     4   9  18  33  51  72 104 141 174 211 262 325
#     4  10  19  34  56  79 108 145 183 228 277 325
#     4  10  18  32  56  84 111 142 179 224 277 333
#     4  10  21  37  56  77 104 143 187 228 274 329
#
# _framework density 20.775499
#
# number of rings (size 3 to 8) (size 9 to 14) (size 15 to 20)
#    0.000    2.286    1.429    2.143    0.000    2.286 
#    0.000    3.571    0.000    5.143    0.000    7.000 
#    0.000    0.000    0.000    0.000    0.000    0.000 
#
# Total GULP energy -312231.839359 kJ/mol
# GULP energy per Si atom -5575.568560 kJ/mol
# Density = 2.072821 g / cm^3
# Si number density = 20.775499 Si / 1000 Ang^3
#
#
#
# Elastic Constant Matrix: (Units=GPa)
#
#
# Indices 1 2 3 4 5 6 
#
# 1 108.5641 14.1045 1.9006 0.0000 0.0000 0.0000
# 2 14.1045 29.1898 14.4090 0.0000 0.0000 0.0000
# 3 1.9006 14.4090 81.1898 0.0000 0.0000 0.0000
# 4 0.0000 0.0000 0.0000 15.6129 0.0000 0.0000
# 5 0.0000 0.0000 0.0000 0.0000 27.1916 0.0000
# 6 0.0000 0.0000 0.0000 0.0000 0.0000 8.0941
#
#
#
# Elastic Compliance Matrix: (Units=1/GPa)
#
#
# Indices 1 2 3 4 5 6 
#
# 1 0.009862 -0.005098 0.000674 0.000000 0.000000 0.000000
# 2 -0.005098 0.040183 -0.007012 0.000000 0.000000 0.000000
# 3 0.000674 -0.007012 0.013546 0.000000 0.000000 0.000000
# 4 0.000000 0.000000 0.000000 0.064050 0.000000 0.000000
# 5 0.000000 0.000000 0.000000 0.000000 0.036776 0.000000
# 6 0.000000 0.000000 0.000000 0.000000 0.000000 0.123546
#
#
# Mechanical properties :
#
#
# Convention : Reuss Voigt Hill
#
# Bulk Modulus (GPa) = 24.55900 31.08578 27.82239
# Shear Modulus (GPa) = 15.41272 22.74836 19.08054
#
# Velocity S-wave (km/s) = 2.72668 3.31261 3.03382
# Velocity P-wave (km/s) = 4.66475 5.44301 5.06884
#
# Compressibility (1/GPa) = 0.04071826
#
# Stress axis : x y z
#
# Youngs Moduli (GPa) = 101.40289 24.88605 73.82522
#
# Poissons Ratio (x) = 0.12686 -0.04975
# Poissons Ratio (y) = 0.51693 0.51767
# Poissons Ratio (z) = -0.06833 0.17450
#
# Static dielectric constant tensor:
#      x y z
#    x 1.730360 0.000000 0.000000 
#    y 0.000000 1.749130 0.000000 
#    z 0.000000 0.000000 1.828030 
# 
# From -- ./inp_files/57141.got.cif
#   From: 2010.05.17/outbox.cif.g08.bks.cpg/sg66_29_cif.got.tgz:57141.got - 2010.06.03 17:51:23.
