data_PCOD9495695
_publ_section_title
;
Structure prediction by ZEFSAII (Michael W. Deem and Ramdas Pophale) SiO2 
 PCOD9495695
Probable space group: C C C M
;
_chemical_formula_sum "Si O2"
_cell_formula_units_Z 100
_cell_length_a 20.660741
_cell_length_b 15.203763
_cell_length_c 16.222918
_cell_angle_alpha 90.000000
_cell_angle_beta 90.000000
_cell_angle_gamma 90.000000
_cell_volume 5095.959380
_symmetry_space_group_name_H-M "C C C M"
_symmetry_group_IT_number 66
_symmetry_cell_setting 'orthorhombic'
loop_
_space_group_symop_operation_xyz
x,y,z
-x,-y,z
x,-y,1/2-z
-x,y,1/2-z
-x,-y,-z
x,y,-z
-x,y,1/2+z
x,-y,1/2+z
1/2+x,1/2+y,z
1/2-x,1/2-y,z
1/2+x,1/2-y,1/2-z
1/2-x,1/2+y,1/2-z
1/2-x,1/2-y,-z
1/2+x,1/2+y,-z
1/2-x,1/2+y,1/2+z
1/2+x,1/2-y,1/2+z
loop_
_atom_site_type_symbol
_atom_site_label
_atom_site_fract_x
_atom_site_fract_y
_atom_site_fract_z
Si Si1 0.081082 0.849770 0.663119
Si Si2 0.846273 0.986328 0.406109
Si Si3 0.681305 0.797215 0.828554
Si Si4 0.649038 0.826359 0.634319
Si Si5 0.750000 0.750000 0.500000
Si Si6 0.200640 0.494843 0.151142
Si Si7 0.562799 0.328396 0.140759
O O1 0.125509 0.767195 0.638616
O O2 0.069615 0.840946 0.760878
O O3 0.011173 0.850347 0.619759
O O4 0.119589 0.939612 0.648387
O O5 0.850750 0.016221 0.500000
O O6 0.885032 0.895246 0.397418
O O7 0.771014 0.978455 0.383485
O O8 0.750000 0.750000 0.840514
O O9 0.669927 0.808366 0.729686
O O10 0.683500 0.894142 0.867879
O O11 0.701220 0.787857 0.571925
O O12 0.583707 0.770973 0.620890
O O13 0.649442 0.931452 0.624080
O O14 0.206416 0.500000 0.250000
#
# Coordination Sequence:
#
# PCOD9495695 Si02
#       7
#    16  16  16  16   4  16  16
#     4  10  21  40  60  80 111 156 196 237 283 344
#     4  12  24  34  54  86 119 150 186 235 292 349
#     4  10  18  38  61  82 108 148 203 243 276 333
#     4  10  22  33  55  88 117 150 188 236 294 345
#     4  12  20  32  56  88 126 156 172 240 302 354
#     4  10  21  37  59  84 115 151 191 239 289 340
#     4  10  22  38  58  83 115 152 194 232 289 355
#
# _framework density 19.623390000000001
#
# number of rings (size 3 to 8) (size 9 to 14) (size 15 to 20)
#    0.000    1.600    2.400    2.880    8.960    2.560 
#    0.000    2.400    0.000    4.800    0.000    1.120 
#    0.000    0.000    0.000    0.000    0.000    0.000 
#
# Total GULP energy -278657.094985 kJ/mol
# GULP energy per Si atom -5573.141900 kJ/mol
# Density = 1.957873 g / cm^3
# Si number density = 19.623390 Si / 1000 Ang^3
#
#
#
# Elastic Constant Matrix: (Units=GPa)
#
#
# Indices 1 2 3 4 5 6 
#
# 1 57.3748 44.6093 0.3347 0.0000 0.0000 0.0000
# 2 44.6093 126.7299 -1.6180 0.0000 0.0000 0.0000
# 3 0.3347 -1.6180 23.5365 0.0000 0.0000 0.0000
# 4 0.0000 0.0000 0.0000 -12.8552 0.0000 0.0000
# 5 0.0000 0.0000 0.0000 0.0000 -22.0159 0.0000
# 6 0.0000 0.0000 0.0000 0.0000 0.0000 37.5363
#
#
#
# Elastic Compliance Matrix: (Units=1/GPa)
#
#
# Indices 1 2 3 4 5 6 
#
# 1 0.024017 -0.008466 -0.000923 0.000000 0.000000 0.000000
# 2 -0.008466 0.010882 0.000868 0.000000 0.000000 0.000000
# 3 -0.000923 0.000868 0.042560 0.000000 0.000000 0.000000
# 4 0.000000 0.000000 0.000000 -0.077790 0.000000 0.000000
# 5 0.000000 0.000000 0.000000 0.000000 -0.045422 0.000000
# 6 0.000000 0.000000 0.000000 0.000000 0.000000 0.026641
#
#
# Mechanical properties :
#
#
# Convention : Reuss Voigt Hill
#
# Bulk Modulus (GPa) = 16.55159 32.69923 24.62541
# Shear Modulus (GPa) = 276.71446 11.48739 144.10092
#
# Velocity S-wave (km/s) = 11.88775 2.42211 8.57862
# Velocity P-wave (km/s) = 14.03132 4.95194 10.52140
#
# Compressibility (1/GPa) = 0.06041717
#
# Stress axis : x y z
#
# Youngs Moduli (GPa) = 41.63743 91.89594 23.49620
#
# Poissons Ratio (x) = 0.77797 0.02170
# Poissons Ratio (y) = 0.35249 -0.02041
# Poissons Ratio (z) = 0.03845 -0.07981
#
# Static dielectric constant tensor:
#      x y z
#    x 1.668970 0.000000 0.000000 
#    y 0.000000 1.710460 0.000000 
#    z 0.000000 0.000000 1.686830 
# 
# From -- ./inp_files/42936.got.cif
#   From: 2010.05.17/outbox.cif.g08.bks.cpg/sg66_22_cif.got.tgz:42936.got - 2010.06.03 17:51:23.
