data_PCOD9495412
_publ_section_title
;
Structure prediction by ZEFSAII (Michael W. Deem and Ramdas Pophale) SiO2 
 PCOD9495412
Probable space group: C C C M
;
_chemical_formula_sum "Si O2"
_cell_formula_units_Z 80
_cell_length_a 16.279272
_cell_length_b 14.397895
_cell_length_c 14.430156
_cell_angle_alpha 90.000000
_cell_angle_beta 90.000000
_cell_angle_gamma 90.000000
_cell_volume 3382.244567
_symmetry_space_group_name_H-M "C C C M"
_symmetry_group_IT_number 66
_symmetry_cell_setting 'orthorhombic'
loop_
_space_group_symop_operation_xyz
x,y,z
-x,-y,z
x,-y,1/2-z
-x,y,1/2-z
-x,-y,-z
x,y,-z
-x,y,1/2+z
x,-y,1/2+z
1/2+x,1/2+y,z
1/2-x,1/2-y,z
1/2+x,1/2-y,1/2-z
1/2-x,1/2+y,1/2-z
1/2-x,1/2-y,-z
1/2+x,1/2+y,-z
1/2-x,1/2+y,1/2+z
1/2+x,1/2-y,1/2+z
loop_
_atom_site_type_symbol
_atom_site_label
_atom_site_fract_x
_atom_site_fract_y
_atom_site_fract_z
Si Si1 0.203120 0.994799 0.887967
Si Si2 0.461029 0.591423 0.851363
Si Si3 0.336535 0.706868 0.387356
Si Si4 0.683695 0.832853 0.386823
Si Si5 0.998913 0.709490 0.398308
O O1 0.133941 0.927327 0.848830
O O2 0.284408 0.936760 0.862023
O O3 0.174855 0.098606 0.859841
O O4 0.201103 0.995416 0.000000
O O5 0.500000 0.500000 0.894441
O O6 0.500000 0.602290 0.750000
O O7 0.478939 0.681781 0.907321
O O8 0.344441 0.707472 0.500000
O O9 0.250000 0.750000 0.362163
O O10 0.410577 0.774517 0.353440
O O11 0.680786 0.826101 0.500000
O O12 0.750000 0.750000 0.359961
O O13 0.587757 0.824866 0.356207
O O14 0.009469 0.664661 0.500000
#
# Coordination Sequence:
#
# PCOD9495412 Si02
#       5
#    16  16  16  16  16
#     4  10  18  31  53  77 105 141 174 214 272 325
#     4  11  21  30  46  75 108 131 162 217 268 311
#     4   9  18  31  49  73 102 140 185 221 253 308
#     4   9  16  26  47  81 109 127 165 214 261 321
#     4  10  18  31  53  76 103 136 169 212 265 318
#
# _framework density 23.652930999999999
#
# number of rings (size 3 to 8) (size 9 to 14) (size 15 to 20)
#    0.000    2.200    4.000    0.600    0.000    0.800 
#    0.000    1.000    4.400    6.000    0.000    0.000 
#    0.000    3.200    0.000    0.000    0.000    0.000 
#
# Total GULP energy -222683.486505 kJ/mol
# GULP energy per Si atom -5567.087163 kJ/mol
# Density = 2.359910 g / cm^3
# Si number density = 23.652931 Si / 1000 Ang^3
#
#
#
# Elastic Constant Matrix: (Units=GPa)
#
#
# Indices 1 2 3 4 5 6 
#
# 1 217.6126 28.7313 1.0541 0.0000 0.0000 0.0000
# 2 28.7313 10.4103 6.0791 0.0000 0.0000 0.0000
# 3 1.0541 6.0791 52.3861 0.0000 0.0000 0.0000
# 4 0.0000 0.0000 0.0000 -4.8857 0.0000 0.0000
# 5 0.0000 0.0000 0.0000 0.0000 -2.3676 0.0000
# 6 0.0000 0.0000 0.0000 0.0000 0.0000 49.8987
#
#
#
# Elastic Compliance Matrix: (Units=1/GPa)
#
#
# Indices 1 2 3 4 5 6 
#
# 1 0.007504 -0.022122 0.002416 0.000000 0.000000 0.000000
# 2 -0.022122 0.168255 -0.019080 0.000000 0.000000 0.000000
# 3 0.002416 -0.019080 0.021255 0.000000 0.000000 0.000000
# 4 0.000000 0.000000 0.000000 -0.204677 0.000000 0.000000
# 5 0.000000 0.000000 0.000000 0.000000 -0.422361 0.000000
# 6 0.000000 0.000000 0.000000 0.000000 0.000000 0.020041
#
#
# Mechanical properties :
#
#
# Convention : Reuss Voigt Hill
#
# Bulk Modulus (GPa) = 8.37225 39.12644 23.74934
# Shear Modulus (GPa) = -17.08835 24.83204 3.87184
#
# Velocity S-wave (km/s) = -2.69078 3.24365 1.28082
# Velocity P-wave (km/s) = 2.47112 5.53229 3.49998
#
# Compressibility (1/GPa) = 0.11944222
#
# Stress axis : x y z
#
# Youngs Moduli (GPa) = 133.25487 5.94334 47.04878
#
# Poissons Ratio (x) = 0.13148 -0.11368
# Poissons Ratio (y) = 2.94790 0.89769
# Poissons Ratio (z) = -0.32197 0.11340
#
# Static dielectric constant tensor:
#      x y z
#    x 1.748150 0.000000 0.000000 
#    y 0.000000 1.870190 0.000000 
#    z 0.000000 0.000000 1.922340 
# 
# From -- ./inp_files/49759.got.cif
#   From: 2010.05.17/outbox.cif.g08.bks.cpg/sg66_25_cif.got.tgz:49759.got - 2010.06.03 17:51:23.
