data_PCOD9495491
_publ_section_title
;
Structure prediction by ZEFSAII (Michael W. Deem and Ramdas Pophale) SiO2 
 PCOD9495491
Probable space group: C C C M
;
_chemical_formula_sum "Si O2"
_cell_formula_units_Z 80
_cell_length_a 24.527576
_cell_length_b 17.481807
_cell_length_c 10.224120
_cell_angle_alpha 90.000000
_cell_angle_beta 90.000000
_cell_angle_gamma 90.000000
_cell_volume 4383.963095
_symmetry_space_group_name_H-M "C C C M"
_symmetry_group_IT_number 66
_symmetry_cell_setting 'orthorhombic'
loop_
_space_group_symop_operation_xyz
x,y,z
-x,-y,z
x,-y,1/2-z
-x,y,1/2-z
-x,-y,-z
x,y,-z
-x,y,1/2+z
x,-y,1/2+z
1/2+x,1/2+y,z
1/2-x,1/2-y,z
1/2+x,1/2-y,1/2-z
1/2-x,1/2+y,1/2-z
1/2-x,1/2-y,-z
1/2+x,1/2+y,-z
1/2-x,1/2+y,1/2+z
1/2+x,1/2-y,1/2+z
loop_
_atom_site_type_symbol
_atom_site_label
_atom_site_fract_x
_atom_site_fract_y
_atom_site_fract_z
Si Si1 0.077914 0.259268 0.000000
Si Si2 0.873123 0.910078 0.000000
Si Si3 0.048067 0.769120 0.000000
Si Si4 0.370924 0.214576 0.725610
Si Si5 0.598143 0.574115 0.500000
Si Si6 0.820152 0.877368 0.271194
Si Si7 0.199624 0.431186 0.348329
O O1 0.094483 0.169465 0.000000
O O2 0.103708 0.294446 0.869370
O O3 0.012851 0.261706 0.000000
O O4 0.835563 0.909651 0.871112
O O5 0.912260 0.983840 0.000000
O O6 0.081687 0.740206 0.874191
O O7 0.051019 0.862097 0.000000
O O8 0.328577 0.285722 0.730850
O O9 0.341114 0.139206 0.675943
O O10 0.635672 0.591688 0.374270
O O11 0.760519 0.901863 0.315409
O O12 0.186873 0.500000 0.250000
O O13 0.197458 0.454913 0.500000
#
# Coordination Sequence:
#
# PCOD9495491 Si02
#       7
#     8   8   8  16   8  16  16
#     4  10  22  38  60  85 115 152 199 251 293 335
#     4  10  20  34  51  88 128 157 190 235 283 329
#     4  10  20  38  62  85 107 156 207 241 293 339
#     4  10  22  40  61  86 116 154 196 239 283 345
#     4  10  18  32  55  84 122 157 196 233 275 341
#     4  10  21  35  58  85 120 162 194 221 274 347
#     4  12  25  39  61  89 120 151 187 236 291 349
#
# _framework density 18.248328999999998
#
# number of rings (size 3 to 8) (size 9 to 14) (size 15 to 20)
#    0.000    1.600    2.000    3.000    2.800    1.200 
#    0.000    3.000    0.000   10.800    0.000    0.000 
#    0.000    0.000    0.000    0.000    0.000    0.000 
#
# Total GULP energy -223466.725211 kJ/mol
# GULP energy per Si atom -5586.668130 kJ/mol
# Density = 1.820680 g / cm^3
# Si number density = 18.248329 Si / 1000 Ang^3
#
#
#
# Elastic Constant Matrix: (Units=GPa)
#
#
# Indices 1 2 3 4 5 6 
#
# 1 33.5929 13.6493 14.6207 0.0000 0.0000 0.0000
# 2 13.6493 75.8819 27.9484 0.0000 0.0000 0.0000
# 3 14.6207 27.9484 162.6547 0.0000 0.0000 0.0000
# 4 0.0000 0.0000 0.0000 34.6913 0.0000 0.0000
# 5 0.0000 0.0000 0.0000 0.0000 11.4900 0.0000
# 6 0.0000 0.0000 0.0000 0.0000 0.0000 7.8494
#
#
#
# Elastic Compliance Matrix: (Units=1/GPa)
#
#
# Indices 1 2 3 4 5 6 
#
# 1 0.032751 -0.005132 -0.002062 0.000000 0.000000 0.000000
# 2 -0.005132 0.014873 -0.002094 0.000000 0.000000 0.000000
# 3 -0.002062 -0.002094 0.006693 0.000000 0.000000 0.000000
# 4 0.000000 0.000000 0.000000 0.028826 0.000000 0.000000
# 5 0.000000 0.000000 0.000000 0.000000 0.087033 0.000000
# 6 0.000000 0.000000 0.000000 0.000000 0.000000 0.127398
#
#
# Mechanical properties :
#
#
# Convention : Reuss Voigt Hill
#
# Bulk Modulus (GPa) = 27.97926 42.72961 35.35443
# Shear Modulus (GPa) = 15.24101 25.20021 20.22061
#
# Velocity S-wave (km/s) = 2.89312 3.72016 3.33239
# Velocity P-wave (km/s) = 5.15034 6.47451 5.85001
#
# Compressibility (1/GPa) = 0.03574076
#
# Stress axis : x y z
#
# Youngs Moduli (GPa) = 30.53365 67.23700 149.40517
#
# Poissons Ratio (x) = 0.34503 0.30810
# Poissons Ratio (y) = 0.15668 0.31290
# Poissons Ratio (z) = 0.06297 0.14081
#
# Static dielectric constant tensor:
#      x y z
#    x 1.579970 0.000000 0.000000 
#    y 0.000000 1.636460 0.000000 
#    z 0.000000 0.000000 1.625980 
# 
# From -- ./inp_files/10125.got.cif
#   From: 2010.05.17/outbox.cif.g08.bks.cpg/sg66_6_cif.got.tgz:10125.got - 2010.06.03 17:51:23.
