data_PCOD9495772
_publ_section_title
;
Structure prediction by ZEFSAII (Michael W. Deem and Ramdas Pophale) SiO2 
 PCOD9495772
Probable space group: C C C M
;
_chemical_formula_sum "Si O2"
_cell_formula_units_Z 112
_cell_length_a 22.239902
_cell_length_b 17.581523
_cell_length_c 17.373506
_cell_angle_alpha 90.000000
_cell_angle_beta 90.000000
_cell_angle_gamma 90.000000
_cell_volume 6793.238010
_symmetry_space_group_name_H-M "C C C M"
_symmetry_group_IT_number 66
_symmetry_cell_setting 'orthorhombic'
loop_
_space_group_symop_operation_xyz
x,y,z
-x,-y,z
x,-y,1/2-z
-x,y,1/2-z
-x,-y,-z
x,y,-z
-x,y,1/2+z
x,-y,1/2+z
1/2+x,1/2+y,z
1/2-x,1/2-y,z
1/2+x,1/2-y,1/2-z
1/2-x,1/2+y,1/2-z
1/2-x,1/2-y,-z
1/2+x,1/2+y,-z
1/2-x,1/2+y,1/2+z
1/2+x,1/2-y,1/2+z
loop_
_atom_site_type_symbol
_atom_site_label
_atom_site_fract_x
_atom_site_fract_y
_atom_site_fract_z
Si Si1 0.662477 0.252204 0.911188
Si Si2 0.950732 0.163939 0.859836
Si Si3 0.411621 0.500772 0.913824
Si Si4 0.231768 0.990217 0.413301
Si Si5 0.420870 0.648028 0.679927
Si Si6 0.243437 0.637566 0.833193
Si Si7 0.718064 0.328422 0.658140
O O1 0.594218 0.277090 0.898870
O O2 0.704716 0.323096 0.885848
O O3 0.684001 0.183883 0.856575
O O4 0.673875 0.233632 0.000000
O O5 0.928858 0.153809 0.771461
O O6 0.020601 0.186737 0.857805
O O7 0.941455 0.081910 0.899186
O O8 0.339518 0.508441 0.911221
O O9 0.426056 0.439203 0.848674
O O10 0.427114 0.472816 0.000000
O O11 0.253591 0.004010 0.500000
O O12 0.237045 0.901963 0.391035
O O13 0.260869 0.049395 0.354293
O O14 0.354749 0.676669 0.656546
O O15 0.262493 0.653045 0.745911
O O16 0.750000 0.250000 0.634970
#
# Coordination Sequence:
#
# PCOD9495772 Si02
#       7
#    16  16  16  16  16  16  16
#     4  11  20  30  51  78 105 132 160 209 267 317
#     4  11  19  31  46  66  99 133 166 201 252 306
#     4  10  19  30  44  65  95 130 170 209 243 288
#     4  10  20  32  50  74 103 138 176 216 255 304
#     4  10  21  32  45  66  93 135 174 206 242 301
#     4  11  18  33  52  76 104 133 167 211 263 317
#     4  11  20  36  54  73 102 139 182 217 257 301
#
# _framework density 16.486982999999999
#
# number of rings (size 3 to 8) (size 9 to 14) (size 15 to 20)
#    0.000    1.429    4.286    3.429    0.000    5.429 
#    0.000    0.000    0.000    0.000    0.000    1.000 
#    0.000    6.857    0.000    0.000    0.000    0.000 
#
# Total GULP energy -312502.382551 kJ/mol
# GULP energy per Si atom -5580.399688 kJ/mol
# Density = 1.644946 g / cm^3
# Si number density = 16.486983 Si / 1000 Ang^3
#
#
#
# Elastic Constant Matrix: (Units=GPa)
#
#
# Indices 1 2 3 4 5 6 
#
# 1 72.4044 34.2191 6.6804 0.0000 0.0000 0.0000
# 2 34.2191 77.5544 0.5720 0.0000 0.0000 0.0000
# 3 6.6804 0.5720 29.8846 0.0000 0.0000 0.0000
# 4 0.0000 0.0000 0.0000 9.4312 0.0000 0.0000
# 5 0.0000 0.0000 0.0000 0.0000 15.9391 0.0000
# 6 0.0000 0.0000 0.0000 0.0000 0.0000 19.7231
#
#
#
# Elastic Compliance Matrix: (Units=1/GPa)
#
#
# Indices 1 2 3 4 5 6 
#
# 1 0.017882 -0.007862 -0.003847 0.000000 0.000000 0.000000
# 2 -0.007862 0.016352 0.001444 0.000000 0.000000 0.000000
# 3 -0.003847 0.001444 0.034294 0.000000 0.000000 0.000000
# 4 0.000000 0.000000 0.000000 0.106031 0.000000 0.000000
# 5 0.000000 0.000000 0.000000 0.000000 0.062739 0.000000
# 6 0.000000 0.000000 0.000000 0.000000 0.000000 0.050702
#
#
# Mechanical properties :
#
#
# Convention : Reuss Voigt Hill
#
# Bulk Modulus (GPa) = 20.83318 29.19850 25.01584
# Shear Modulus (GPa) = 15.40699 18.24347 16.82523
#
# Velocity S-wave (km/s) = 3.06027 3.33007 3.19802
# Velocity P-wave (km/s) = 5.01503 5.70389 5.37052
#
# Compressibility (1/GPa) = 0.04800035
#
# Stress axis : x y z
#
# Youngs Moduli (GPa) = 55.92316 61.15368 29.15936
#
# Poissons Ratio (x) = 0.48076 0.11217
# Poissons Ratio (y) = 0.43964 -0.04212
# Poissons Ratio (z) = 0.21512 -0.08833
#
# Static dielectric constant tensor:
#      x y z
#    x 1.578610 0.000000 0.000000 
#    y 0.000000 1.547590 0.000000 
#    z 0.000000 0.000000 1.567030 
# 
# From -- ./inp_files/43797.got.cif
#   From: 2010.05.17/outbox.cif.g08.bks.cpg/sg66_22_cif.got.tgz:43797.got - 2010.06.03 17:51:23.
