data_PCOD9495932
_publ_section_title
;
Structure prediction by ZEFSAII (Michael W. Deem and Ramdas Pophale) SiO2 
 PCOD9495932
Probable space group: C C C M
;
_chemical_formula_sum "Si O2"
_cell_formula_units_Z 80
_cell_length_a 18.380698
_cell_length_b 27.617352
_cell_length_c 8.990438
_cell_angle_alpha 90.000000
_cell_angle_beta 90.000000
_cell_angle_gamma 90.000000
_cell_volume 4563.781938
_symmetry_space_group_name_H-M "C C C M"
_symmetry_group_IT_number 66
_symmetry_cell_setting 'orthorhombic'
loop_
_space_group_symop_operation_xyz
x,y,z
-x,-y,z
x,-y,1/2-z
-x,y,1/2-z
-x,-y,-z
x,y,-z
-x,y,1/2+z
x,-y,1/2+z
1/2+x,1/2+y,z
1/2-x,1/2-y,z
1/2+x,1/2-y,1/2-z
1/2-x,1/2+y,1/2-z
1/2-x,1/2-y,-z
1/2+x,1/2+y,-z
1/2-x,1/2+y,1/2+z
1/2+x,1/2-y,1/2+z
loop_
_atom_site_type_symbol
_atom_site_label
_atom_site_fract_x
_atom_site_fract_y
_atom_site_fract_z
Si Si1 0.423291 0.085354 0.823433
Si Si2 0.788318 0.846990 0.323234
Si Si3 0.276901 0.951566 0.177034
Si Si4 0.643636 0.809944 0.823696
Si Si5 0.922232 0.205948 0.321973
O O1 0.500000 0.072925 0.750000
O O2 0.356163 0.057736 0.748331
O O3 0.405528 0.142451 0.798871
O O4 0.424564 0.076434 0.000000
O O5 0.795826 0.840692 0.500000
O O6 0.769546 0.903216 0.292369
O O7 0.718357 0.817191 0.265091
O O8 0.859828 0.828910 0.240524
O O9 0.245794 0.000000 0.250000
O O10 0.283634 0.956949 0.000000
O O11 0.602603 0.760807 0.783070
O O12 0.660976 0.808133 0.000000
O O13 0.926493 0.202513 0.500000
O O14 0.000000 0.195734 0.250000
#
# Coordination Sequence:
#
# PCOD9495932 Si02
#       5
#    16  16  16  16  16
#     4  10  19  32  50  74 107 142 176 214 255 299
#     4  10  21  36  55  79 106 136 172 214 258 307
#     4  10  21  37  56  77 100 130 171 216 263 313
#     4   9  19  34  52  76 107 144 180 212 249 297
#     4  11  22  35  53  78 109 142 176 213 255 303
#
# _framework density 17.529320999999999
#
# number of rings (size 3 to 8) (size 9 to 14) (size 15 to 20)
#    0.000    2.000    0.000    3.600    0.000    7.600 
#    0.000    2.000    0.000    0.600    0.000    4.200 
#    0.000    0.000    0.000    0.000    0.000    0.000 
#
# Total GULP energy -223487.701969 kJ/mol
# GULP energy per Si atom -5587.192549 kJ/mol
# Density = 1.748942 g / cm^3
# Si number density = 17.529321 Si / 1000 Ang^3
#
#
#
# Elastic Constant Matrix: (Units=GPa)
#
#
# Indices 1 2 3 4 5 6 
#
# 1 66.0041 11.9331 28.6189 0.0000 0.0000 0.0000
# 2 11.9331 54.3517 28.6040 0.0000 0.0000 0.0000
# 3 28.6189 28.6040 49.6408 0.0000 0.0000 0.0000
# 4 0.0000 0.0000 0.0000 53.8514 0.0000 0.0000
# 5 0.0000 0.0000 0.0000 0.0000 34.6821 0.0000
# 6 0.0000 0.0000 0.0000 0.0000 0.0000 3.8236
#
#
#
# Elastic Compliance Matrix: (Units=1/GPa)
#
#
# Indices 1 2 3 4 5 6 
#
# 1 0.020426 0.002458 -0.013193 0.000000 0.000000 0.000000
# 2 0.002458 0.026702 -0.016804 0.000000 0.000000 0.000000
# 3 -0.013193 -0.016804 0.037433 0.000000 0.000000 0.000000
# 4 0.000000 0.000000 0.000000 0.018570 0.000000 0.000000
# 5 0.000000 0.000000 0.000000 0.000000 0.028833 0.000000
# 6 0.000000 0.000000 0.000000 0.000000 0.000000 0.261531
#
#
# Mechanical properties :
#
#
# Convention : Reuss Voigt Hill
#
# Bulk Modulus (GPa) = 33.91469 34.25650 34.08559
# Shear Modulus (GPa) = 10.90749 25.19414 18.05081
#
# Velocity S-wave (km/s) = 2.49718 3.79523 3.21245
# Velocity P-wave (km/s) = 5.26346 6.22815 5.76601
#
# Compressibility (1/GPa) = 0.02948575
#
# Stress axis : x y z
#
# Youngs Moduli (GPa) = 48.95623 37.44988 26.71422
#
# Poissons Ratio (x) = -0.09206 0.35243
# Poissons Ratio (y) = -0.12035 0.44890
# Poissons Ratio (z) = 0.64587 0.62930
#
# Static dielectric constant tensor:
#      x y z
#    x 1.554980 0.000000 0.000000 
#    y 0.000000 1.613430 0.000000 
#    z 0.000000 0.000000 1.579970 
# 
# From -- ./inp_files/6643.got.cif
#   From: 2010.05.17/outbox.cif.g08.bks.cpg/sg66_4_cif.got.tgz:6643.got - 2010.06.03 17:51:23.
