data_PCOD9495053
_publ_section_title
;
Structure prediction by ZEFSAII (Michael W. Deem and Ramdas Pophale) SiO2 
 PCOD9495053
Probable space group: C C C M
;
_chemical_formula_sum "Si O2"
_cell_formula_units_Z 96
_cell_length_a 29.043032
_cell_length_b 26.908523
_cell_length_c 9.089433
_cell_angle_alpha 90.000000
_cell_angle_beta 90.000000
_cell_angle_gamma 90.000000
_cell_volume 7103.438196
_symmetry_space_group_name_H-M "C C C M"
_symmetry_group_IT_number 66
_symmetry_cell_setting 'orthorhombic'
loop_
_space_group_symop_operation_xyz
x,y,z
-x,-y,z
x,-y,1/2-z
-x,y,1/2-z
-x,-y,-z
x,y,-z
-x,y,1/2+z
x,-y,1/2+z
1/2+x,1/2+y,z
1/2-x,1/2-y,z
1/2+x,1/2-y,1/2-z
1/2-x,1/2+y,1/2-z
1/2-x,1/2-y,-z
1/2+x,1/2+y,-z
1/2-x,1/2+y,1/2+z
1/2+x,1/2-y,1/2+z
loop_
_atom_site_type_symbol
_atom_site_label
_atom_site_fract_x
_atom_site_fract_y
_atom_site_fract_z
Si Si1 0.548074 0.287441 0.326430
Si Si2 0.859781 0.243933 0.825181
Si Si3 0.359907 0.551645 0.823181
Si Si4 0.218675 0.699904 0.330330
Si Si5 0.702234 0.646281 0.325585
Si Si6 0.048409 0.906890 0.325422
O O1 0.500000 0.273987 0.250000
O O2 0.546324 0.277645 0.500000
O O3 0.591144 0.260340 0.252515
O O4 0.554007 0.347184 0.307127
O O5 0.826953 0.286624 0.760113
O O6 0.833098 0.191742 0.796420
O O7 0.864760 0.249123 0.000000
O O8 0.345662 0.500000 0.750000
O O9 0.323616 0.595371 0.788806
O O10 0.409027 0.566990 0.754412
O O11 0.363753 0.547658 0.000000
O O12 0.207878 0.689885 0.500000
O O13 0.250000 0.750000 0.324490
O O14 0.251063 0.657774 0.261131
O O15 0.711963 0.647172 0.500000
O O16 0.047824 0.917750 0.500000
O O17 0.000000 0.920785 0.250000
#
# Coordination Sequence:
#
# PCOD9495053 Si02
#       6
#    16  16  16  16  16  16
#     4  10  19  29  43  62  84 109 139 171 209 251
#     4  10  17  28  45  63  84 108 135 166 205 247
#     4  11  22  35  48  63  81 104 137 174 217 261
#     4   9  17  27  42  64  85 104 130 163 202 245
#     4   9  18  31  45  60  81 106 132 167 208 252
#     4  10  20  33  48  62  78 102 134 175 219 260
#
# _framework density 13.514582000000001
#
# number of rings (size 3 to 8) (size 9 to 14) (size 15 to 20)
#    0.000    2.167    1.667    2.500    0.000    5.667 
#    0.000    1.667    0.000    0.000    0.000    0.000 
#    0.000    0.000    0.000    0.000    0.000    0.833 
#
# Total GULP energy -267766.796555 kJ/mol
# GULP energy per Si atom -5578.474928 kJ/mol
# Density = 1.348382 g / cm^3
# Si number density = 13.514582 Si / 1000 Ang^3
#
#
#
# Elastic Constant Matrix: (Units=GPa)
#
#
# Indices 1 2 3 4 5 6 
#
# 1 95.7231 50.5069 68.9953 0.0000 0.0000 0.0000
# 2 50.5069 54.7165 42.1074 0.0000 0.0000 0.0000
# 3 68.9953 42.1074 81.2187 0.0000 0.0000 0.0000
# 4 0.0000 0.0000 0.0000 15.0670 0.0000 0.0000
# 5 0.0000 0.0000 0.0000 0.0000 28.0962 0.0000
# 6 0.0000 0.0000 0.0000 0.0000 0.0000 14.5688
#
#
#
# Elastic Compliance Matrix: (Units=1/GPa)
#
#
# Indices 1 2 3 4 5 6 
#
# 1 0.032778 -0.014688 -0.020230 0.000000 0.000000 0.000000
# 2 -0.014688 0.036990 -0.006700 0.000000 0.000000 0.000000
# 3 -0.020230 -0.006700 0.032971 0.000000 0.000000 0.000000
# 4 0.000000 0.000000 0.000000 0.066370 0.000000 0.000000
# 5 0.000000 0.000000 0.000000 0.000000 0.035592 0.000000
# 6 0.000000 0.000000 0.000000 0.000000 0.000000 0.068640
#
#
# Mechanical properties :
#
#
# Convention : Reuss Voigt Hill
#
# Bulk Modulus (GPa) = 51.27251 61.65304 56.46278
# Shear Modulus (GPa) = 13.77111 16.21630 14.99371
#
# Velocity S-wave (km/s) = 3.19561 3.46773 3.33445
# Velocity P-wave (km/s) = 7.18588 7.85826 7.52958
#
# Compressibility (1/GPa) = 0.01950363
#
# Stress axis : x y z
#
# Youngs Moduli (GPa) = 30.50798 27.03433 30.32947
#
# Poissons Ratio (x) = 0.39709 0.61357
# Poissons Ratio (y) = 0.44811 0.20319
# Poissons Ratio (z) = 0.61718 0.18112
#
# Static dielectric constant tensor:
#      x y z
#    x 1.425610 0.000000 0.000000 
#    y 0.000000 1.424420 0.000000 
#    z 0.000000 0.000000 1.447480 
# 
# From -- ./inp_files/8003.got.cif
#   From: 2010.05.17/outbox.cif.g08.bks.cpg/sg66_5_cif.got.tgz:8003.got - 2010.06.03 17:51:23.
