data_PCOD9495019
_publ_section_title
;
Structure prediction by ZEFSAII (Michael W. Deem and Ramdas Pophale) SiO2 
 PCOD9495019
Probable space group: C C C M
;
_chemical_formula_sum "Si O2"
_cell_formula_units_Z 120
_cell_length_a 14.786616
_cell_length_b 19.535241
_cell_length_c 22.024382
_cell_angle_alpha 90.000000
_cell_angle_beta 90.000000
_cell_angle_gamma 90.000000
_cell_volume 6361.965344
_symmetry_space_group_name_H-M "C C C M"
_symmetry_group_IT_number 66
_symmetry_cell_setting 'orthorhombic'
loop_
_space_group_symop_operation_xyz
x,y,z
-x,-y,z
x,-y,1/2-z
-x,y,1/2-z
-x,-y,-z
x,y,-z
-x,y,1/2+z
x,-y,1/2+z
1/2+x,1/2+y,z
1/2-x,1/2-y,z
1/2+x,1/2-y,1/2-z
1/2-x,1/2+y,1/2-z
1/2-x,1/2-y,-z
1/2+x,1/2+y,-z
1/2-x,1/2+y,1/2+z
1/2+x,1/2-y,1/2+z
loop_
_atom_site_type_symbol
_atom_site_label
_atom_site_fract_x
_atom_site_fract_y
_atom_site_fract_z
Si Si1 0.778002 0.057271 0.840728
Si Si2 0.500000 0.910516 0.250000
Si Si3 0.862420 0.332232 0.340115
Si Si4 0.836893 0.206253 0.874819
Si Si5 0.103799 0.788729 0.739097
Si Si6 0.304054 0.414784 0.799452
Si Si7 0.480809 0.807054 0.927997
Si Si8 0.579586 0.949401 0.372185
O O1 0.819526 0.123853 0.874790
O O2 0.762733 0.077833 0.769328
O O3 0.685603 0.034793 0.874587
O O4 0.831165 0.986398 0.829811
O O5 0.432513 0.869374 0.293921
O O6 0.561001 0.947434 0.299982
O O7 0.848926 0.260054 0.308478
O O8 0.772514 0.377219 0.339564
O O9 0.918428 0.316629 0.400921
O O10 0.750000 0.250000 0.897137
O O11 0.848720 0.220441 0.803411
O O12 0.926054 0.239686 0.905367
O O13 0.112540 0.864858 0.713148
O O14 0.000000 0.770709 0.750000
O O15 0.431168 0.874300 0.900837
O O16 0.480465 0.808566 0.000000
O O17 0.500000 0.000000 0.396607
#
# Coordination Sequence:
#
# PCOD9495019 Si02
#       8
#    16   8  16  16  16  16  16  16
#     4  10  19  34  49  82 117 152 184 227 286 361
#     4  10  17  26  50  84 106 143 182 208 272 357
#     4  11  18  34  55  80 119 149 181 234 288 351
#     4  11  20  37  58  79 112 147 187 240 286 348
#     4  11  19  33  58  88 118 146 184 232 292 353
#     4  10  21  31  53  86 119 150 183 223 295 366
#     4  11  24  38  55  82 110 150 206 248 285 339
#     4  11  20  31  52  80 118 151 183 227 291 362
#
# _framework density 18.862096000000001
#
# number of rings (size 3 to 8) (size 9 to 14) (size 15 to 20)
#    0.000    1.333    4.667    4.600    1.867    0.533 
#    0.000    5.333    0.000    2.400    0.000    0.933 
#    0.000    0.000    0.000    0.000    0.000    0.000 
#
# Total GULP energy -334062.104080 kJ/mol
# GULP energy per Si atom -5567.701735 kJ/mol
# Density = 1.881917 g / cm^3
# Si number density = 18.862096 Si / 1000 Ang^3
#
#
#
# Elastic Constant Matrix: (Units=GPa)
#
#
# Indices 1 2 3 4 5 6 
#
# 1 36.3574 19.8252 1.5423 0.0000 0.0000 0.0000
# 2 19.8252 102.9281 26.5241 0.0000 0.0000 0.0000
# 3 1.5423 26.5241 72.8902 0.0000 0.0000 0.0000
# 4 0.0000 0.0000 0.0000 -1.8664 0.0000 0.0000
# 5 0.0000 0.0000 0.0000 0.0000 4.1567 0.0000
# 6 0.0000 0.0000 0.0000 0.0000 0.0000 23.2647
#
#
#
# Elastic Compliance Matrix: (Units=1/GPa)
#
#
# Indices 1 2 3 4 5 6 
#
# 1 0.030915 -0.006385 0.001669 0.000000 0.000000 0.000000
# 2 -0.006385 0.012039 -0.004246 0.000000 0.000000 0.000000
# 3 0.001669 -0.004246 0.015229 0.000000 0.000000 0.000000
# 4 0.000000 0.000000 0.000000 -0.535794 0.000000 0.000000
# 5 0.000000 0.000000 0.000000 0.000000 0.240574 0.000000
# 6 0.000000 0.000000 0.000000 0.000000 0.000000 0.042984
#
#
# Mechanical properties :
#
#
# Convention : Reuss Voigt Hill
#
# Bulk Modulus (GPa) = 24.83803 34.21765 29.52784
# Shear Modulus (GPa) = -30.72977 16.06329 -7.33324
#
# Velocity S-wave (km/s) = -4.04069 2.92141 -1.97389
# Velocity P-wave (km/s) = 2.92793 5.43690 3.23938
#
# Compressibility (1/GPa) = 0.04026084
#
# Stress axis : x y z
#
# Youngs Moduli (GPa) = 32.34629 83.06008 65.66413
#
# Poissons Ratio (x) = 0.53033 -0.10961
# Poissons Ratio (y) = 0.20653 0.27881
# Poissons Ratio (z) = -0.05399 0.35267
#
# Static dielectric constant tensor:
#      x y z
#    x 1.708710 0.000000 0.000000 
#    y 0.000000 1.776480 0.000000 
#    z 0.000000 0.000000 1.615300 
# 
# From -- ./inp_files/58411.got.cif
#   From: 2010.05.17/outbox.cif.g08.bks.cpg/sg66_30_cif.got.tgz:58411.got - 2010.06.03 17:51:23.
