data_PCOD9495806
_publ_section_title
;
Structure prediction by ZEFSAII (Michael W. Deem and Ramdas Pophale) SiO2 
 PCOD9495806
Probable space group: C C C M
;
_chemical_formula_sum "Si O2"
_cell_formula_units_Z 120
_cell_length_a 19.827680
_cell_length_b 15.652693
_cell_length_c 20.302779
_cell_angle_alpha 90.000000
_cell_angle_beta 90.000000
_cell_angle_gamma 90.000000
_cell_volume 6301.101216
_symmetry_space_group_name_H-M "C C C M"
_symmetry_group_IT_number 66
_symmetry_cell_setting 'orthorhombic'
loop_
_space_group_symop_operation_xyz
x,y,z
-x,-y,z
x,-y,1/2-z
-x,y,1/2-z
-x,-y,-z
x,y,-z
-x,y,1/2+z
x,-y,1/2+z
1/2+x,1/2+y,z
1/2-x,1/2-y,z
1/2+x,1/2-y,1/2-z
1/2-x,1/2+y,1/2-z
1/2-x,1/2-y,-z
1/2+x,1/2+y,-z
1/2-x,1/2+y,1/2+z
1/2+x,1/2-y,1/2+z
loop_
_atom_site_type_symbol
_atom_site_label
_atom_site_fract_x
_atom_site_fract_y
_atom_site_fract_z
Si Si1 0.439851 0.568960 0.071106
Si Si2 0.545834 0.085193 0.576874
Si Si3 0.621258 0.750014 0.292648
Si Si4 0.500000 0.366926 0.250000
Si Si5 0.062615 0.266062 0.425214
Si Si6 0.721723 0.663675 0.805251
Si Si7 0.865029 0.415935 0.292751
Si Si8 0.884545 0.963635 0.180688
O O1 0.500000 0.500000 0.070720
O O2 0.461954 0.667319 0.076146
O O3 0.391972 0.539510 0.129705
O O4 0.405036 0.561424 0.000000
O O5 0.569944 0.089782 0.500000
O O6 0.497448 0.167288 0.588690
O O7 0.601448 0.081779 0.634808
O O8 0.500000 0.000000 0.582086
O O9 0.556101 0.691089 0.282957
O O10 0.620143 0.773663 0.369457
O O11 0.684699 0.699376 0.261254
O O12 0.610148 0.833406 0.247993
O O13 0.457129 0.423676 0.199344
O O14 0.086108 0.283459 0.500000
O O15 0.750000 0.750000 0.838199
O O16 0.784659 0.601152 0.796039
O O17 0.663355 0.612431 0.842368
O O18 0.880025 0.500000 0.250000
O O19 0.857680 0.000000 0.250000
#
# Coordination Sequence:
#
# PCOD9495806 Si02
#       8
#    16  16  16   8  16  16  16  16
#     4  10  20  32  48  76 111 142 173 215 272 332
#     4  10  22  40  61  88 121 154 194 248 306 359
#     4  10  19  34  56  81 112 145 190 240 289 350
#     4  10  19  30  51  80 106 140 183 232 286 342
#     4  10  20  34  54  82 115 148 182 231 295 350
#     4   9  21  37  54  76 107 148 190 235 283 342
#     4  11  22  36  57  83 113 150 194 240 294 354
#     4  11  19  31  53  77 103 136 181 228 276 332
#
# _framework density 19.044291000000001
#
# number of rings (size 3 to 8) (size 9 to 14) (size 15 to 20)
#    0.000    1.867    0.000    5.400    0.000    3.467 
#    0.000    0.667    0.000    8.400    0.000    0.000 
#    0.000    0.000    0.000    0.000    0.000    0.000 
#
# Total GULP energy -334495.170185 kJ/mol
# GULP energy per Si atom -5574.919503 kJ/mol
# Density = 1.900095 g / cm^3
# Si number density = 19.044291 Si / 1000 Ang^3
#
#
#
# Elastic Constant Matrix: (Units=GPa)
#
#
# Indices 1 2 3 4 5 6 
#
# 1 76.7062 45.1565 46.1333 0.0000 0.0000 0.0000
# 2 45.1565 122.5773 50.0392 0.0000 0.0000 0.0000
# 3 46.1333 50.0392 139.6843 0.0000 0.0000 0.0000
# 4 0.0000 0.0000 0.0000 29.6566 0.0000 0.0000
# 5 0.0000 0.0000 0.0000 0.0000 7.3684 0.0000
# 6 0.0000 0.0000 0.0000 0.0000 0.0000 32.0293
#
#
#
# Elastic Compliance Matrix: (Units=1/GPa)
#
#
# Indices 1 2 3 4 5 6 
#
# 1 0.018644 -0.005100 -0.004330 0.000000 0.000000 0.000000
# 2 -0.005100 0.010951 -0.002238 0.000000 0.000000 0.000000
# 3 -0.004330 -0.002238 0.009391 0.000000 0.000000 0.000000
# 4 0.000000 0.000000 0.000000 0.033719 0.000000 0.000000
# 5 0.000000 0.000000 0.000000 0.000000 0.135715 0.000000
# 6 0.000000 0.000000 0.000000 0.000000 0.000000 0.031221
#
#
# Mechanical properties :
#
#
# Convention : Reuss Voigt Hill
#
# Bulk Modulus (GPa) = 63.90884 69.06953 66.48918
# Shear Modulus (GPa) = 18.64311 26.98677 22.81494
#
# Velocity S-wave (km/s) = 3.13219 3.76846 3.46496
# Velocity P-wave (km/s) = 6.83459 7.43516 7.14119
#
# Compressibility (1/GPa) = 0.01564729
#
# Stress axis : x y z
#
# Youngs Moduli (GPa) = 53.63734 91.31697 106.48457
#
# Poissons Ratio (x) = 0.46576 0.46111
# Poissons Ratio (y) = 0.27358 0.23836
# Poissons Ratio (z) = 0.23227 0.20441
#
# Static dielectric constant tensor:
#      x y z
#    x 1.660440 0.000000 0.000000 
#    y 0.000000 1.705840 0.000000 
#    z 0.000000 0.000000 1.732870 
# 
# From -- ./inp_files/52008.got.cif
#   From: 2010.05.17/outbox.cif.g08.bks.cpg/sg66_27_cif.got.tgz:52008.got - 2010.06.03 17:51:23.
