data_PCOD9495062
_publ_section_title
;
Structure prediction by ZEFSAII (Michael W. Deem and Ramdas Pophale) SiO2 
 PCOD9495062
Probable space group: C C C M
;
_chemical_formula_sum "Si O2"
_cell_formula_units_Z 96
_cell_length_a 21.710475
_cell_length_b 21.918907
_cell_length_c 8.940167
_cell_angle_alpha 90.000000
_cell_angle_beta 90.000000
_cell_angle_gamma 90.000000
_cell_volume 4254.356219
_symmetry_space_group_name_H-M "C C C M"
_symmetry_group_IT_number 66
_symmetry_cell_setting 'orthorhombic'
loop_
_space_group_symop_operation_xyz
x,y,z
-x,-y,z
x,-y,1/2-z
-x,y,1/2-z
-x,-y,-z
x,y,-z
-x,y,1/2+z
x,-y,1/2+z
1/2+x,1/2+y,z
1/2-x,1/2-y,z
1/2+x,1/2-y,1/2-z
1/2-x,1/2+y,1/2-z
1/2-x,1/2-y,-z
1/2+x,1/2+y,-z
1/2-x,1/2+y,1/2+z
1/2+x,1/2-y,1/2+z
loop_
_atom_site_type_symbol
_atom_site_label
_atom_site_fract_x
_atom_site_fract_y
_atom_site_fract_z
Si Si1 0.562259 0.258894 0.168380
Si Si2 0.436270 0.408239 0.328938
Si Si3 0.062706 0.569053 0.681087
Si Si4 0.687464 0.067388 0.179247
Si Si5 0.812795 0.098878 0.332891
Si Si6 0.816685 0.243035 0.333337
O O1 0.500000 0.241419 0.250000
O O2 0.563749 0.333534 0.167543
O O3 0.623795 0.235805 0.246537
O O4 0.560502 0.237255 0.000000
O O5 0.500000 0.426291 0.250000
O O6 0.434491 0.429442 0.500000
O O7 0.374735 0.427288 0.240968
O O8 0.063478 0.500000 0.750000
O O9 0.061193 0.567609 0.500000
O O10 0.126864 0.595995 0.742931
O O11 0.000000 0.596637 0.750000
O O12 0.752645 0.094760 0.229789
O O13 0.691100 0.000000 0.250000
O O14 0.680656 0.066323 0.000000
O O15 0.801125 0.073377 0.500000
O O16 0.825181 0.170702 0.349281
O O17 0.813388 0.271170 0.500000
O O18 0.750000 0.250000 0.258883
#
# Coordination Sequence:
#
# PCOD9495062 Si02
#       6
#    16  16  16  16  16  16
#     4   9  16  26  43  67  94 123 158 200 242 283
#     4   9  16  27  44  68  95 124 159 200 242 283
#     4  10  17  28  46  70  97 125 159 199 242 284
#     4  11  21  34  51  73 100 130 164 201 243 289
#     4  10  19  32  50  73 100 130 163 200 243 289
#     4   9  18  32  50  72  99 130 162 198 241 288
#
# _framework density 22.565107000000001
#
# number of rings (size 3 to 8) (size 9 to 14) (size 15 to 20)
#    0.000    2.333    0.000    6.000    0.000    5.000 
#    0.000    0.000    0.000    1.500    0.000    8.167 
#    0.000    0.000    0.000    0.000    0.000    0.000 
#
# Total GULP energy -268046.018418 kJ/mol
# GULP energy per Si atom -5584.292050 kJ/mol
# Density = 2.251375 g / cm^3
# Si number density = 22.565107 Si / 1000 Ang^3
#
#
#
# Elastic Constant Matrix: (Units=GPa)
#
#
# Indices 1 2 3 4 5 6 
#
# 1 244.7153 1.6723 120.0983 0.0000 0.0000 0.0000
# 2 1.6723 53.4368 10.9038 0.0000 0.0000 0.0000
# 3 120.0983 10.9038 211.3563 0.0000 0.0000 0.0000
# 4 0.0000 0.0000 0.0000 8.6976 0.0000 0.0000
# 5 0.0000 0.0000 0.0000 0.0000 29.0147 0.0000
# 6 0.0000 0.0000 0.0000 0.0000 0.0000 9.0591
#
#
#
# Elastic Compliance Matrix: (Units=1/GPa)
#
#
# Indices 1 2 3 4 5 6 
#
# 1 0.005679 0.000486 -0.003252 0.000000 0.000000 0.000000
# 2 0.000486 0.018954 -0.001254 0.000000 0.000000 0.000000
# 3 -0.003252 -0.001254 0.006644 0.000000 0.000000 0.000000
# 4 0.000000 0.000000 0.000000 0.114974 0.000000 0.000000
# 5 0.000000 0.000000 0.000000 0.000000 0.034465 0.000000
# 6 0.000000 0.000000 0.000000 0.000000 0.000000 0.110386
#
#
# Mechanical properties :
#
#
# Convention : Reuss Voigt Hill
#
# Bulk Modulus (GPa) = 43.03463 86.09525 64.56494
# Shear Modulus (GPa) = 16.29255 34.47656 25.38456
#
# Velocity S-wave (km/s) = 2.68997 3.91304 3.35766
# Velocity P-wave (km/s) = 5.36289 7.65851 6.61111
#
# Compressibility (1/GPa) = 0.02323710
#
# Stress axis : x y z
#
# Youngs Moduli (GPa) = 176.08534 52.75835 150.51305
#
# Poissons Ratio (x) = -0.02563 0.48948
# Poissons Ratio (y) = -0.08555 0.18873
# Poissons Ratio (z) = 0.57264 0.06615
#
# Static dielectric constant tensor:
#      x y z
#    x 2.055070 0.000000 0.000000 
#    y 0.000000 1.919760 0.000000 
#    z 0.000000 0.000000 1.807610 
# 
# From -- ./inp_files/8057.got.cif
#   From: 2010.05.17/outbox.cif.g08.bks.cpg/sg66_5_cif.got.tgz:8057.got - 2010.06.03 17:51:23.
