data_PCOD9495826
_publ_section_title
;
Structure prediction by ZEFSAII (Michael W. Deem and Ramdas Pophale) SiO2 
 PCOD9495826
Probable space group: C C C M
;
_chemical_formula_sum "Si O2"
_cell_formula_units_Z 112
_cell_length_a 27.005289
_cell_length_b 27.419403
_cell_length_c 7.353092
_cell_angle_alpha 90.000000
_cell_angle_beta 90.000000
_cell_angle_gamma 90.000000
_cell_volume 5444.735961
_symmetry_space_group_name_H-M "C C C M"
_symmetry_group_IT_number 66
_symmetry_cell_setting 'orthorhombic'
loop_
_space_group_symop_operation_xyz
x,y,z
-x,-y,z
x,-y,1/2-z
-x,y,1/2-z
-x,-y,-z
x,y,-z
-x,y,1/2+z
x,-y,1/2+z
1/2+x,1/2+y,z
1/2-x,1/2-y,z
1/2+x,1/2-y,1/2-z
1/2-x,1/2+y,1/2-z
1/2-x,1/2-y,-z
1/2+x,1/2+y,-z
1/2-x,1/2+y,1/2+z
1/2+x,1/2-y,1/2+z
loop_
_atom_site_type_symbol
_atom_site_label
_atom_site_fract_x
_atom_site_fract_y
_atom_site_fract_z
Si Si1 0.663928 0.658665 0.221952
Si Si2 0.367463 0.240744 0.777318
Si Si3 0.057167 0.657497 0.283247
Si Si4 0.093785 0.447415 0.782628
Si Si5 0.798374 0.429300 0.282957
Si Si6 0.312134 0.553405 0.283092
Si Si7 0.724991 0.181377 0.716318
O O1 0.627894 0.702655 0.277980
O O2 0.659642 0.602207 0.281233
O O3 0.719184 0.674906 0.281694
O O4 0.663138 0.658173 0.000000
O O5 0.407577 0.201070 0.715185
O O6 0.313350 0.221391 0.717413
O O7 0.367799 0.239885 0.000000
O O8 0.065288 0.655962 0.500000
O O9 0.069334 0.602736 0.214286
O O10 0.000000 0.668517 0.250000
O O11 0.069285 0.500000 0.750000
O O12 0.150244 0.449446 0.709001
O O13 0.096761 0.442544 0.000000
O O14 0.797481 0.438843 0.500000
O O15 0.744789 0.445810 0.210948
O O16 0.800338 0.371121 0.258499
O O17 0.333940 0.500000 0.250000
O O18 0.308057 0.558978 0.500000
O O19 0.729985 0.189731 0.500000
#
# Coordination Sequence:
#
# PCOD9495826 Si02
#       7
#    16  16  16  16  16  16  16
#     4   8  14  21  36  64  90 110 138 174 209 246
#     4   9  14  24  42  63  85 108 136 175 220 259
#     4  10  21  35  50  65  84 110 141 180 226 270
#     4  10  19  31  46  63  82 108 143 183 222 259
#     4   8  13  23  38  58  84 111 142 175 209 246
#     4   9  16  25  38  59  90 122 145 169 199 240
#     4   8  11  18  35  60  87 109 131 169 215 252
#
# _framework density 20.570326999999999
#
# number of rings (size 3 to 8) (size 9 to 14) (size 15 to 20)
#    0.000    3.143    1.429    2.571    0.000    2.571 
#    0.000    1.429    0.000    0.857    0.000    0.000 
#    0.000    4.286    0.000    7.143    0.000    0.000 
#
# Total GULP energy -312097.840939 kJ/mol
# GULP energy per Si atom -5573.175731 kJ/mol
# Density = 2.052351 g / cm^3
# Si number density = 20.570327 Si / 1000 Ang^3
#
#
#
# Elastic Constant Matrix: (Units=GPa)
#
#
# Indices 1 2 3 4 5 6 
#
# 1 37.9885 57.4205 -1.9212 0.0000 0.0000 0.0000
# 2 57.4205 206.3635 9.6327 0.0000 0.0000 0.0000
# 3 -1.9212 9.6327 73.3887 0.0000 0.0000 0.0000
# 4 0.0000 0.0000 0.0000 2.2337 0.0000 0.0000
# 5 0.0000 0.0000 0.0000 0.0000 -11.8157 0.0000
# 6 0.0000 0.0000 0.0000 0.0000 0.0000 18.8408
#
#
#
# Elastic Compliance Matrix: (Units=1/GPa)
#
#
# Indices 1 2 3 4 5 6 
#
# 1 0.046038 -0.012946 0.002904 0.000000 0.000000 0.000000
# 2 -0.012946 0.008516 -0.001457 0.000000 0.000000 0.000000
# 3 0.002904 -0.001457 0.013893 0.000000 0.000000 0.000000
# 4 0.000000 0.000000 0.000000 0.447681 0.000000 0.000000
# 5 0.000000 0.000000 0.000000 0.000000 -0.084633 0.000000
# 6 0.000000 0.000000 0.000000 0.000000 0.000000 0.053076
#
#
# Mechanical properties :
#
#
# Convention : Reuss Voigt Hill
#
# Bulk Modulus (GPa) = 22.00137 49.77831 35.88984
# Shear Modulus (GPa) = 9.56538 18.69234 14.12886
#
# Velocity S-wave (km/s) = 2.15875 3.01774 2.62364
# Velocity P-wave (km/s) = 4.11491 6.03274 5.16365
#
# Compressibility (1/GPa) = 0.04545172
#
# Stress axis : x y z
#
# Youngs Moduli (GPa) = 21.72100 117.42661 71.97710
#
# Poissons Ratio (x) = 1.52017 -0.20905
# Poissons Ratio (y) = 0.28119 0.10485
# Poissons Ratio (z) = -0.06309 0.17105
#
# Static dielectric constant tensor:
#      x y z
#    x 1.711140 0.000000 0.000000 
#    y 0.000000 1.774350 0.000000 
#    z 0.000000 0.000000 1.822390 
# 
# From -- ./inp_files/20107.got.cif
#   From: 2010.05.17/outbox.cif.g08.bks.cpg/sg66_11_cif.got.tgz:20107.got - 2010.06.03 17:51:23.
