data_PCOD9495741
_publ_section_title
;
Structure prediction by ZEFSAII (Michael W. Deem and Ramdas Pophale) SiO2 
 PCOD9495741
Probable space group: C C C M
;
_chemical_formula_sum "Si O2"
_cell_formula_units_Z 72
_cell_length_a 17.424213
_cell_length_b 9.800386
_cell_length_c 16.934305
_cell_angle_alpha 90.000000
_cell_angle_beta 90.000000
_cell_angle_gamma 90.000000
_cell_volume 2891.769882
_symmetry_space_group_name_H-M "C C C M"
_symmetry_group_IT_number 66
_symmetry_cell_setting 'orthorhombic'
loop_
_space_group_symop_operation_xyz
x,y,z
-x,-y,z
x,-y,1/2-z
-x,y,1/2-z
-x,-y,-z
x,y,-z
-x,y,1/2+z
x,-y,1/2+z
1/2+x,1/2+y,z
1/2-x,1/2-y,z
1/2+x,1/2-y,1/2-z
1/2-x,1/2+y,1/2-z
1/2-x,1/2-y,-z
1/2+x,1/2+y,-z
1/2-x,1/2+y,1/2+z
1/2+x,1/2-y,1/2+z
loop_
_atom_site_type_symbol
_atom_site_label
_atom_site_fract_x
_atom_site_fract_y
_atom_site_fract_z
Si Si1 0.417966 0.744810 0.500000
Si Si2 0.402391 0.781262 0.162032
Si Si3 0.563277 0.120332 0.000000
Si Si4 0.415454 0.754503 0.330624
Si Si5 0.277735 0.592793 0.500000
Si Si6 0.193746 0.992404 0.164138
O O1 0.509607 0.742630 0.500000
O O2 0.395489 0.813110 0.416935
O O3 0.371581 0.604260 0.500000
O O4 0.395043 0.872292 0.083818
O O5 0.391896 0.834290 0.251819
O O6 0.492577 0.738372 0.166405
O O7 0.346241 0.653311 0.153187
O O8 0.500000 0.000000 0.000000
O O9 0.371757 0.609956 0.327059
O O10 0.250000 0.750000 0.500000
O O11 0.260482 0.525979 0.415843
O O12 0.233832 0.000000 0.250000
#
# Coordination Sequence:
#
# PCOD9495741 Si02
#       6
#     8  16   8  16   8  16
#     4   8  16  30  43  62  91 120 154 190 230 278
#     4   9  15  25  41  66  97 125 155 188 230 283
#     4  10  19  29  42  63  96 135 167 192 220 274
#     4   8  14  24  42  68  96 121 146 186 237 291
#     4  10  19  31  50  71  94 123 155 200 250 294
#     4   9  16  27  47  73  97 121 152 196 249 298
#
# _framework density 24.898247000000001
#
# number of rings (size 3 to 8) (size 9 to 14) (size 15 to 20)
#    0.000    3.111    0.000    1.333    0.000    2.667 
#    0.000   15.556    0.000    8.000    0.000    2.333 
#    0.000    0.000    0.000    0.000    0.000    0.000 
#
# Total GULP energy -200467.175627 kJ/mol
# GULP energy per Si atom -5568.532656 kJ/mol
# Density = 2.484158 g / cm^3
# Si number density = 24.898247 Si / 1000 Ang^3
#
#
#
# Elastic Constant Matrix: (Units=GPa)
#
#
# Indices 1 2 3 4 5 6 
#
# 1 83.0190 23.9935 17.4348 0.0000 0.0000 0.0000
# 2 23.9935 73.1670 63.8783 0.0000 0.0000 0.0000
# 3 17.4348 63.8783 380.8365 0.0000 0.0000 0.0000
# 4 0.0000 0.0000 0.0000 -245.2827 0.0000 0.0000
# 5 0.0000 0.0000 0.0000 0.0000 -78.7164 0.0000
# 6 0.0000 0.0000 0.0000 0.0000 0.0000 39.6589
#
#
#
# Elastic Compliance Matrix: (Units=1/GPa)
#
#
# Indices 1 2 3 4 5 6 
#
# 1 0.013313 -0.004491 0.000144 0.000000 0.000000 0.000000
# 2 -0.004491 0.017527 -0.002734 0.000000 0.000000 0.000000
# 3 0.000144 -0.002734 0.003078 0.000000 0.000000 0.000000
# 4 0.000000 0.000000 0.000000 -0.004077 0.000000 0.000000
# 5 0.000000 0.000000 0.000000 0.000000 -0.012704 0.000000
# 6 0.000000 0.000000 0.000000 0.000000 0.000000 0.025215
#
#
# Mechanical properties :
#
#
# Convention : Reuss Voigt Hill
#
# Bulk Modulus (GPa) = 50.62043 83.07064 66.84554
# Shear Modulus (GPa) = 79.23753 -28.08699 25.57527
#
# Velocity S-wave (km/s) = 5.64744 -3.36232 3.20846
# Velocity P-wave (km/s) = 7.93095 4.28519 6.37428
#
# Compressibility (1/GPa) = 0.01975487
#
# Stress axis : x y z
#
# Youngs Moduli (GPa) = 75.11287 57.05357 324.90340
#
# Poissons Ratio (x) = 0.25625 -0.04674
# Poissons Ratio (y) = 0.33736 0.88838
# Poissons Ratio (z) = -0.01081 0.15600
#
# Static dielectric constant tensor:
#      x y z
#    x 1.999180 0.000000 0.000000 
#    y 0.000000 1.918010 0.000000 
#    z 0.000000 0.000000 2.079650 
# 
# From -- ./inp_files/32062.got.cif
#   From: 2010.05.17/outbox.cif.g08.bks.cpg/sg66_17_cif.got.tgz:32062.got - 2010.06.03 17:51:23.
