data_PCOD9495341
_publ_section_title
;
Structure prediction by ZEFSAII (Michael W. Deem and Ramdas Pophale) SiO2 
 PCOD9495341
Probable space group: C C C M
;
_chemical_formula_sum "Si O2"
_cell_formula_units_Z 116
_cell_length_a 28.500999
_cell_length_b 27.222028
_cell_length_c 8.811950
_cell_angle_alpha 90.000000
_cell_angle_beta 90.000000
_cell_angle_gamma 90.000000
_cell_volume 6836.795404
_symmetry_space_group_name_H-M "C C C M"
_symmetry_group_IT_number 66
_symmetry_cell_setting 'orthorhombic'
loop_
_space_group_symop_operation_xyz
x,y,z
-x,-y,z
x,-y,1/2-z
-x,y,1/2-z
-x,-y,-z
x,y,-z
-x,y,1/2+z
x,-y,1/2+z
1/2+x,1/2+y,z
1/2-x,1/2-y,z
1/2+x,1/2-y,1/2-z
1/2-x,1/2+y,1/2-z
1/2-x,1/2-y,-z
1/2+x,1/2+y,-z
1/2-x,1/2+y,1/2+z
1/2+x,1/2-y,1/2+z
loop_
_atom_site_type_symbol
_atom_site_label
_atom_site_fract_x
_atom_site_fract_y
_atom_site_fract_z
Si Si1 0.185623 0.426744 0.824595
Si Si2 0.284004 0.550046 0.820165
Si Si3 0.000000 0.500000 0.250000
Si Si4 0.418473 0.922083 0.315516
Si Si5 0.192230 0.158775 0.683146
Si Si6 0.631156 0.253631 0.820323
Si Si7 0.551537 0.188029 0.681639
Si Si8 0.290041 0.187844 0.825474
O O1 0.229507 0.445421 0.729287
O O2 0.133615 0.438246 0.766138
O O3 0.189647 0.367515 0.825110
O O4 0.190637 0.443292 0.000000
O O5 0.303433 0.500000 0.750000
O O6 0.307800 0.601487 0.771056
O O7 0.286872 0.546996 0.000000
O O8 0.959021 0.457407 0.257730
O O9 0.418852 0.924032 0.500000
O O10 0.428786 0.865725 0.270642
O O11 0.198732 0.160841 0.500000
O O12 0.146583 0.190909 0.720544
O O13 0.237655 0.183242 0.761026
O O14 0.587144 0.229951 0.736087
O O15 0.676316 0.220998 0.775521
O O16 0.623162 0.251018 0.000000
O O17 0.500000 0.194439 0.750000
O O18 0.549124 0.188055 0.500000
O O19 0.290238 0.205091 0.000000
#
# Coordination Sequence:
#
# PCOD9495341 Si02
#       8
#    16  16   4  16  16  16  16  16
#     4   9  18  34  50  68  96 131 169 215 259 310
#     4  10  20  35  52  74 101 136 171 209 251 301
#     4  12  22  36  52  74  88 128 174 228 280 312
#     4  10  21  37  52  68  95 125 166 220 273 316
#     4   9  20  35  50  73 107 138 172 211 253 310
#     4  11  21  34  53  77 103 137 172 210 261 316
#     4  11  22  40  58  77 102 133 172 218 269 323
#     4  10  18  30  50  75 103 135 169 210 261 312
#
# _framework density 16.967013000000001
#
# number of rings (size 3 to 8) (size 9 to 14) (size 15 to 20)
#    0.000    1.931    2.069    2.276    0.966    3.862 
#    0.000    0.690    0.000    0.000    0.000    0.000 
#    0.000    0.552    0.000    6.345    0.000    1.931 
#
# Total GULP energy -323266.538938 kJ/mol
# GULP energy per Si atom -5573.561016 kJ/mol
# Density = 1.692840 g / cm^3
# Si number density = 16.967013 Si / 1000 Ang^3
#
#
#
# Elastic Constant Matrix: (Units=GPa)
#
#
# Indices 1 2 3 4 5 6 
#
# 1 69.2448 53.4869 19.6155 0.0000 0.0000 0.0000
# 2 53.4869 105.1437 27.8025 0.0000 0.0000 0.0000
# 3 19.6155 27.8025 30.7887 0.0000 0.0000 0.0000
# 4 0.0000 0.0000 0.0000 5.4577 0.0000 0.0000
# 5 0.0000 0.0000 0.0000 0.0000 4.6559 0.0000
# 6 0.0000 0.0000 0.0000 0.0000 0.0000 1.4147
#
#
#
# Elastic Compliance Matrix: (Units=1/GPa)
#
#
# Indices 1 2 3 4 5 6 
#
# 1 0.024535 -0.010966 -0.005729 0.000000 0.000000 0.000000
# 2 -0.010966 0.017396 -0.008722 0.000000 0.000000 0.000000
# 3 -0.005729 -0.008722 0.044005 0.000000 0.000000 0.000000
# 4 0.000000 0.000000 0.000000 0.183227 0.000000 0.000000
# 5 0.000000 0.000000 0.000000 0.000000 0.214780 0.000000
# 6 0.000000 0.000000 0.000000 0.000000 0.000000 0.706872
#
#
# Mechanical properties :
#
#
# Convention : Reuss Voigt Hill
#
# Bulk Modulus (GPa) = 28.48816 45.22078 36.85447
# Shear Modulus (GPa) = 3.98931 9.25716 6.62324
#
# Velocity S-wave (km/s) = 1.53503 2.33834 1.97790
# Velocity P-wave (km/s) = 4.46862 5.83099 5.19466
#
# Compressibility (1/GPa) = 0.03510230
#
# Stress axis : x y z
#
# Youngs Moduli (GPa) = 40.75823 57.48584 22.72466
#
# Poissons Ratio (x) = 0.63040 0.13018
# Poissons Ratio (y) = 0.44696 0.19820
# Poissons Ratio (z) = 0.23349 0.50138
#
# Static dielectric constant tensor:
#      x y z
#    x 1.549570 0.000000 0.000000 
#    y 0.000000 1.613790 0.000000 
#    z 0.000000 0.000000 1.583040 
# 
# From -- ./inp_files/9637.got.cif
#   From: 2010.05.17/outbox.cif.g08.bks.cpg/sg66_5_cif.got.tgz:9637.got - 2010.06.03 17:51:23.
