data_PCOD9495697
_publ_section_title
;
Structure prediction by ZEFSAII (Michael W. Deem and Ramdas Pophale) SiO2 
 PCOD9495697
Probable space group: C C C M
;
_chemical_formula_sum "Si O2"
_cell_formula_units_Z 72
_cell_length_a 20.661350
_cell_length_b 8.298333
_cell_length_c 18.741381
_cell_angle_alpha 90.000000
_cell_angle_beta 90.000000
_cell_angle_gamma 90.000000
_cell_volume 3213.299029
_symmetry_space_group_name_H-M "C C C M"
_symmetry_group_IT_number 66
_symmetry_cell_setting 'orthorhombic'
loop_
_space_group_symop_operation_xyz
x,y,z
-x,-y,z
x,-y,1/2-z
-x,y,1/2-z
-x,-y,-z
x,y,-z
-x,y,1/2+z
x,-y,1/2+z
1/2+x,1/2+y,z
1/2-x,1/2-y,z
1/2+x,1/2-y,1/2-z
1/2-x,1/2+y,1/2-z
1/2-x,1/2-y,-z
1/2+x,1/2+y,-z
1/2-x,1/2+y,1/2+z
1/2+x,1/2-y,1/2+z
loop_
_atom_site_type_symbol
_atom_site_label
_atom_site_fract_x
_atom_site_fract_y
_atom_site_fract_z
Si Si1 0.251494 0.010663 0.500000
Si Si2 0.564525 0.929073 0.628618
Si Si3 0.628983 0.252637 0.000000
Si Si4 0.500000 0.287635 0.250000
Si Si5 0.750000 0.250000 0.375638
Si Si6 0.601447 0.440057 0.500000
Si Si7 0.610982 0.280018 0.652899
O O1 0.262775 0.897645 0.430859
O O2 0.172098 0.050662 0.500000
O O3 0.299882 0.155832 0.500000
O O4 0.606214 0.826449 0.575269
O O5 0.539455 0.821650 0.693898
O O6 0.500000 0.000000 0.591513
O O7 0.599855 0.088946 0.656206
O O8 0.565474 0.394122 0.000000
O O9 0.556559 0.364686 0.298841
O O10 0.686909 0.301136 0.331549
O O11 0.601989 0.339168 0.571219
#
# Coordination Sequence:
#
# PCOD9495697 Si02
#       7
#     8  16   8   8   8   8  16
#     4   9  17  33  55  91 123 155 189 251 310 359
#     4  10  20  37  60  85 113 154 207 258 304 361
#     4  12  20  35  58  90 120 159 202 255 307 364
#     4  10  23  40  63  86 121 164 213 264 317 364
#     4   9  16  30  64  94 116 153 200 256 310 355
#     4  10  23  34  58  91 126 157 203 244 321 369
#     4  10  18  38  61  90 122 158 206 260 306 377
#
# _framework density 22.406877999999999
#
# number of rings (size 3 to 8) (size 9 to 14) (size 15 to 20)
#    0.000    2.000    2.222    5.000    0.000    2.667 
#    0.000   11.111    4.889    0.000    0.000    0.000 
#    0.000    0.000    0.000    0.000    0.000    0.000 
#
# Total GULP energy -200438.853809 kJ/mol
# GULP energy per Si atom -5567.745939 kJ/mol
# Density = 2.235588 g / cm^3
# Si number density = 22.406878 Si / 1000 Ang^3
#
#
#
# Elastic Constant Matrix: (Units=GPa)
#
#
# Indices 1 2 3 4 5 6 
#
# 1 133.6116 13.4795 71.5324 0.0000 0.0000 0.0000
# 2 13.4795 66.4935 34.2006 0.0000 0.0000 0.0000
# 3 71.5324 34.2006 119.2895 0.0000 0.0000 0.0000
# 4 0.0000 0.0000 0.0000 296.0018 0.0000 0.0000
# 5 0.0000 0.0000 0.0000 0.0000 28.9088 0.0000
# 6 0.0000 0.0000 0.0000 0.0000 0.0000 27.3330
#
#
#
# Elastic Compliance Matrix: (Units=1/GPa)
#
#
# Indices 1 2 3 4 5 6 
#
# 1 0.011130 0.001380 -0.007070 0.000000 0.000000 0.000000
# 2 0.001380 0.017811 -0.005934 0.000000 0.000000 0.000000
# 3 -0.007070 -0.005934 0.014324 0.000000 0.000000 0.000000
# 4 0.000000 0.000000 0.000000 0.003378 0.000000 0.000000
# 5 0.000000 0.000000 0.000000 0.000000 0.034592 0.000000
# 6 0.000000 0.000000 0.000000 0.000000 0.000000 0.036586
#
#
# Mechanical properties :
#
#
# Convention : Reuss Voigt Hill
#
# Bulk Modulus (GPa) = 49.95634 61.97994 55.96814
# Shear Modulus (GPa) = 33.84282 83.79420 58.81851
#
# Velocity S-wave (km/s) = 3.89057 6.12191 5.12905
# Velocity P-wave (km/s) = 6.52116 8.81428 7.75297
#
# Compressibility (1/GPa) = 0.02001748
#
# Stress axis : x y z
#
# Youngs Moduli (GPa) = 89.84534 56.14353 69.81369
#
# Poissons Ratio (x) = -0.07748 0.49358
# Poissons Ratio (y) = -0.12399 0.41429
# Poissons Ratio (z) = 0.63520 0.33317
#
# Static dielectric constant tensor:
#      x y z
#    x 2.073920 0.000000 0.000000 
#    y 0.000000 1.874940 0.000000 
#    z 0.000000 0.000000 1.792870 
# 
# From -- ./inp_files/51685.got.cif
#   From: 2010.05.17/outbox.cif.g08.bks.cpg/sg66_26_cif.got.tgz:51685.got - 2010.06.03 17:51:23.
