data_PCOD9495351
_publ_section_title
;
Structure prediction by ZEFSAII (Michael W. Deem and Ramdas Pophale) SiO2 
 PCOD9495351
Probable space group: C C C M
;
_chemical_formula_sum "Si O2"
_cell_formula_units_Z 80
_cell_length_a 24.421489
_cell_length_b 20.426399
_cell_length_c 10.325582
_cell_angle_alpha 90.000000
_cell_angle_beta 90.000000
_cell_angle_gamma 90.000000
_cell_volume 5150.845112
_symmetry_space_group_name_H-M "C C C M"
_symmetry_group_IT_number 66
_symmetry_cell_setting 'orthorhombic'
loop_
_space_group_symop_operation_xyz
x,y,z
-x,-y,z
x,-y,1/2-z
-x,y,1/2-z
-x,-y,-z
x,y,-z
-x,y,1/2+z
x,-y,1/2+z
1/2+x,1/2+y,z
1/2-x,1/2-y,z
1/2+x,1/2-y,1/2-z
1/2-x,1/2+y,1/2-z
1/2-x,1/2-y,-z
1/2+x,1/2+y,-z
1/2-x,1/2+y,1/2+z
1/2+x,1/2-y,1/2+z
loop_
_atom_site_type_symbol
_atom_site_label
_atom_site_fract_x
_atom_site_fract_y
_atom_site_fract_z
Si Si1 0.779772 0.853501 0.268165
Si Si2 0.432792 0.338953 0.000000
Si Si3 0.334158 0.566837 0.000000
Si Si4 0.061687 0.754525 0.241033
Si Si5 0.328458 0.787955 0.156310
Si Si6 0.556212 0.645442 0.500000
Si Si7 0.179933 0.088065 0.000000
O O1 0.806355 0.900646 0.374652
O O2 0.715857 0.840474 0.296452
O O3 0.808256 0.782647 0.290098
O O4 0.791563 0.882239 0.127321
O O5 0.428674 0.293103 0.125893
O O6 0.382734 0.388042 0.000000
O O7 0.492245 0.373764 0.000000
O O8 0.322620 0.490109 0.000000
O O9 0.398080 0.589113 0.000000
O O10 0.110089 0.704349 0.208790
O O11 0.000000 0.727253 0.250000
O O12 0.063810 0.808141 0.125340
O O13 0.327533 0.785113 0.000000
#
# Coordination Sequence:
#
# PCOD9495351 Si02
#       7
#    16   8   8  16  16   8   8
#     4  11  21  34  51  77  95 133 177 210 268 293
#     4  10  20  32  43  72 102 136 170 215 255 286
#     4  12  20  37  52  69 100 142 184 214 236 307
#     4  10  18  30  51  75 101 129 165 211 255 299
#     4  11  18  34  59  71  99 132 175 212 246 332
#     4  10  18  32  51  64  98 138 186 207 233 298
#     4  12  24  33  48  73 110 132 172 224 260 291
#
# _framework density 15.531432000000001
#
# number of rings (size 3 to 8) (size 9 to 14) (size 15 to 20)
#    0.000    1.200    7.000    1.200    0.000    2.800 
#    0.000    0.000    0.000    6.000    0.000    0.000 
#    0.000    4.800    0.000    0.000    0.000    0.000 
#
# Total GULP energy -223167.009756 kJ/mol
# GULP energy per Si atom -5579.175244 kJ/mol
# Density = 1.549608 g / cm^3
# Si number density = 15.531432 Si / 1000 Ang^3
#
#
#
# Elastic Constant Matrix: (Units=GPa)
#
#
# Indices 1 2 3 4 5 6 
#
# 1 150.9316 54.2657 52.7681 0.0000 0.0000 0.0000
# 2 54.2657 48.0659 38.6632 0.0000 0.0000 0.0000
# 3 52.7681 38.6632 147.0827 0.0000 0.0000 0.0000
# 4 0.0000 0.0000 0.0000 -1.4617 0.0000 0.0000
# 5 0.0000 0.0000 0.0000 0.0000 30.6991 0.0000
# 6 0.0000 0.0000 0.0000 0.0000 0.0000 13.3119
#
#
#
# Elastic Compliance Matrix: (Units=1/GPa)
#
#
# Indices 1 2 3 4 5 6 
#
# 1 0.011242 -0.011982 -0.000884 0.000000 0.000000 0.000000
# 2 -0.011982 0.039153 -0.005993 0.000000 0.000000 0.000000
# 3 -0.000884 -0.005993 0.008691 0.000000 0.000000 0.000000
# 4 0.000000 0.000000 0.000000 -0.684124 0.000000 0.000000
# 5 0.000000 0.000000 0.000000 0.000000 0.032574 0.000000
# 6 0.000000 0.000000 0.000000 0.000000 0.000000 0.075121
#
#
# Mechanical properties :
#
#
# Convention : Reuss Voigt Hill
#
# Bulk Modulus (GPa) = 46.79669 70.83046 58.81357
# Shear Modulus (GPa) = -10.58196 21.86873 5.64339
#
# Velocity S-wave (km/s) = -2.61305 3.75644 1.90825
# Velocity P-wave (km/s) = 4.59257 8.03232 6.54254
#
# Compressibility (1/GPa) = 0.02136903
#
# Stress axis : x y z
#
# Youngs Moduli (GPa) = 88.94959 25.54100 115.05573
#
# Poissons Ratio (x) = 0.30602 0.10169
# Poissons Ratio (y) = 1.06575 0.68958
# Poissons Ratio (z) = 0.07861 0.15308
#
# Static dielectric constant tensor:
#      x y z
#    x 1.570900 0.000000 0.000000 
#    y 0.000000 1.469660 0.000000 
#    z 0.000000 0.000000 1.516540 
# 
# From -- ./inp_files/8950.got.cif
#   From: 2010.05.17/outbox.cif.g08.bks.cpg/sg66_5_cif.got.tgz:8950.got - 2010.06.03 17:51:23.
