data_PCOD9495560
_publ_section_title
;
Structure prediction by ZEFSAII (Michael W. Deem and Ramdas Pophale) SiO2 
 PCOD9495560
Probable space group: C C C M
;
_chemical_formula_sum "Si O2"
_cell_formula_units_Z 96
_cell_length_a 14.678053
_cell_length_b 21.465013
_cell_length_c 14.508467
_cell_angle_alpha 90.000000
_cell_angle_beta 90.000000
_cell_angle_gamma 90.000000
_cell_volume 4571.104330
_symmetry_space_group_name_H-M "C C C M"
_symmetry_group_IT_number 66
_symmetry_cell_setting 'orthorhombic'
loop_
_space_group_symop_operation_xyz
x,y,z
-x,-y,z
x,-y,1/2-z
-x,y,1/2-z
-x,-y,-z
x,y,-z
-x,y,1/2+z
x,-y,1/2+z
1/2+x,1/2+y,z
1/2-x,1/2-y,z
1/2+x,1/2-y,1/2-z
1/2-x,1/2+y,1/2-z
1/2-x,1/2-y,-z
1/2+x,1/2+y,-z
1/2-x,1/2+y,1/2+z
1/2+x,1/2-y,1/2+z
loop_
_atom_site_type_symbol
_atom_site_label
_atom_site_fract_x
_atom_site_fract_y
_atom_site_fract_z
Si Si1 0.674057 0.419439 0.144895
Si Si2 0.183653 0.658169 0.397873
Si Si3 0.825134 0.060645 0.634501
Si Si4 0.991360 0.148673 0.361295
Si Si5 0.012616 0.708007 0.102564
Si Si6 0.699868 0.188374 0.809280
O O1 0.666816 0.433230 0.254670
O O2 0.672481 0.488941 0.105306
O O3 0.587477 0.380759 0.109633
O O4 0.760281 0.373112 0.141387
O O5 0.205872 0.685033 0.500000
O O6 0.230131 0.590729 0.395923
O O7 0.075035 0.663978 0.389416
O O8 0.219847 0.685391 0.300818
O O9 0.909096 0.104921 0.605152
O O10 0.000000 0.148757 0.250000
O O11 0.979676 0.220351 0.389061
O O12 0.092771 0.695661 0.174169
O O13 0.051944 0.700153 0.000000
O O14 0.750000 0.250000 0.845525
#
# Coordination Sequence:
#
# PCOD9495560 Si02
#       6
#    16  16  16  16  16  16
#     4   9  18  35  58  89 118 160 206 248 297 358
#     4  10  23  39  60  90 124 160 201 251 306 367
#     4   9  19  34  58  86 123 160 200 246 301 363
#     4  10  18  33  58  87 122 159 200 246 300 363
#     4  11  24  39  58  88 124 160 205 252 303 361
#     4  11  21  39  64  89 121 158 204 254 306 361
#
# _framework density 21.001488999999999
#
# number of rings (size 3 to 8) (size 9 to 14) (size 15 to 20)
#    0.000    2.000    1.667    2.000    4.667    3.333 
#    0.000    2.500    0.000    8.000    0.000    0.000 
#    0.000    0.000    0.000    0.000    0.000    0.000 
#
# Total GULP energy -267664.549615 kJ/mol
# GULP energy per Si atom -5576.344784 kJ/mol
# Density = 2.095369 g / cm^3
# Si number density = 21.001489 Si / 1000 Ang^3
#
#
#
# Elastic Constant Matrix: (Units=GPa)
#
#
# Indices 1 2 3 4 5 6 
#
# 1 112.0976 80.7117 5.1723 0.0000 0.0000 0.0000
# 2 80.7117 87.4838 18.1938 0.0000 0.0000 0.0000
# 3 5.1723 18.1938 89.1691 0.0000 0.0000 0.0000
# 4 0.0000 0.0000 0.0000 -12.0334 0.0000 0.0000
# 5 0.0000 0.0000 0.0000 0.0000 -46.5207 0.0000
# 6 0.0000 0.0000 0.0000 0.0000 0.0000 25.0598
#
#
#
# Elastic Compliance Matrix: (Units=1/GPa)
#
#
# Indices 1 2 3 4 5 6 
#
# 1 0.027736 -0.026373 0.003772 0.000000 0.000000 0.000000
# 2 -0.026373 0.037015 -0.006023 0.000000 0.000000 0.000000
# 3 0.003772 -0.006023 0.012225 0.000000 0.000000 0.000000
# 4 0.000000 0.000000 0.000000 -0.083102 0.000000 0.000000
# 5 0.000000 0.000000 0.000000 0.000000 -0.021496 0.000000
# 6 0.000000 0.000000 0.000000 0.000000 0.000000 0.039904
#
#
# Mechanical properties :
#
#
# Convention : Reuss Voigt Hill
#
# Bulk Modulus (GPa) = 50.68893 55.21180 52.95036
# Shear Modulus (GPa) = 65.69816 5.61266 35.65541
#
# Velocity S-wave (km/s) = 5.59915 1.63655 4.12485
# Velocity P-wave (km/s) = 8.12336 5.46970 6.92483
#
# Compressibility (1/GPa) = 0.01972817
#
# Stress axis : x y z
#
# Youngs Moduli (GPa) = 36.05429 27.01602 81.80182
#
# Poissons Ratio (x) = 0.71251 -0.30858
# Poissons Ratio (y) = 0.95088 0.49266
# Poissons Ratio (z) = -0.13601 0.16271
#
# Static dielectric constant tensor:
#      x y z
#    x 1.714780 0.000000 0.000000 
#    y 0.000000 1.737340 0.000000 
#    z 0.000000 0.000000 1.861670 
# 
# From -- ./inp_files/28347.got.cif
#   From: 2010.05.17/outbox.cif.g08.bks.cpg/sg66_15_cif.got.tgz:28347.got - 2010.06.03 17:51:23.
