data_PCOD9495439
_publ_section_title
;
Structure prediction by ZEFSAII (Michael W. Deem and Ramdas Pophale) SiO2 
 PCOD9495439
Probable space group: C C C M
;
_chemical_formula_sum "Si O2"
_cell_formula_units_Z 56
_cell_length_a 11.985279
_cell_length_b 13.223761
_cell_length_c 18.532900
_cell_angle_alpha 90.000000
_cell_angle_beta 90.000000
_cell_angle_gamma 90.000000
_cell_volume 2937.287939
_symmetry_space_group_name_H-M "C C C M"
_symmetry_group_IT_number 66
_symmetry_cell_setting 'orthorhombic'
loop_
_space_group_symop_operation_xyz
x,y,z
-x,-y,z
x,-y,1/2-z
-x,y,1/2-z
-x,-y,-z
x,y,-z
-x,y,1/2+z
x,-y,1/2+z
1/2+x,1/2+y,z
1/2-x,1/2-y,z
1/2+x,1/2-y,1/2-z
1/2-x,1/2+y,1/2-z
1/2-x,1/2-y,-z
1/2+x,1/2+y,-z
1/2-x,1/2+y,1/2+z
1/2+x,1/2-y,1/2+z
loop_
_atom_site_type_symbol
_atom_site_label
_atom_site_fract_x
_atom_site_fract_y
_atom_site_fract_z
Si Si1 0.194790 0.136884 0.417536
Si Si2 0.250000 0.250000 0.187530
Si Si3 0.006677 0.219403 0.833012
Si Si4 0.145829 0.594155 0.201600
O O1 0.191212 0.102930 0.500000
O O2 0.250000 0.250000 0.415866
O O3 0.073016 0.153380 0.383231
O O4 0.273849 0.070651 0.365943
O O5 0.363871 0.274624 0.145868
O O6 0.218089 0.338775 0.242941
O O7 0.952808 0.332593 0.827187
O O8 0.000000 0.181463 0.750000
O O9 0.113239 0.500000 0.250000
#
# Coordination Sequence:
#
# PCOD9495439 Si02
#       4
#    16   8  16  16
#     4   9  16  31  54  80 107 138 178 221 269 317
#     4  10  18  32  50  78 110 136 184 218 266 312
#     4   9  16  31  51  76 108 136 179 217 261 316
#     4  10  18  31  55  83 104 138 178 224 266 312
#
# _framework density 19.065207000000001
#
# number of rings (size 3 to 8) (size 9 to 14) (size 15 to 20)
#    0.000    2.571    7.143    0.000    0.000    5.143 
#    0.000    3.571    0.000   10.286    0.000   42.000 
#    0.000    0.000    0.000    0.000    0.000    0.000 
#
# Total GULP energy -155977.071260 kJ/mol
# GULP energy per Si atom -5570.609688 kJ/mol
# Density = 1.902181 g / cm^3
# Si number density = 19.065207 Si / 1000 Ang^3
#
#
#
# Elastic Constant Matrix: (Units=GPa)
#
#
# Indices 1 2 3 4 5 6 
#
# 1 175.7202 12.3592 50.0262 0.0000 0.0000 0.0000
# 2 12.3592 40.2089 15.9594 0.0000 0.0000 0.0000
# 3 50.0262 15.9594 103.0159 0.0000 0.0000 0.0000
# 4 0.0000 0.0000 0.0000 11.6281 0.0000 0.0000
# 5 0.0000 0.0000 0.0000 0.0000 26.4500 0.0000
# 6 0.0000 0.0000 0.0000 0.0000 0.0000 8.8153
#
#
#
# Elastic Compliance Matrix: (Units=1/GPa)
#
#
# Indices 1 2 3 4 5 6 
#
# 1 0.006628 -0.000810 -0.003093 0.000000 0.000000 0.000000
# 2 -0.000810 0.026598 -0.003728 0.000000 0.000000 0.000000
# 3 -0.003093 -0.003728 0.011787 0.000000 0.000000 0.000000
# 4 0.000000 0.000000 0.000000 0.085999 0.000000 0.000000
# 5 0.000000 0.000000 0.000000 0.000000 0.037807 0.000000
# 6 0.000000 0.000000 0.000000 0.000000 0.000000 0.113439
#
#
# Mechanical properties :
#
#
# Convention : Reuss Voigt Hill
#
# Bulk Modulus (GPa) = 33.61037 52.84828 43.22932
# Shear Modulus (GPa) = 16.26344 25.41868 20.84106
#
# Velocity S-wave (km/s) = 2.92386 3.65533 3.30986
# Velocity P-wave (km/s) = 5.39129 6.75242 6.10988
#
# Compressibility (1/GPa) = 0.02975273
#
# Stress axis : x y z
#
# Youngs Moduli (GPa) = 150.86376 37.59611 84.83946
#
# Poissons Ratio (x) = 0.03044 0.26245
# Poissons Ratio (y) = 0.12214 0.31624
# Poissons Ratio (z) = 0.46669 0.14014
#
# Static dielectric constant tensor:
#      x y z
#    x 1.748560 0.000000 0.000000 
#    y 0.000000 1.763880 0.000000 
#    z 0.000000 0.000000 1.648840 
# 
# From -- ./inp_files/37861.got.cif
#   From: 2010.05.17/outbox.cif.g08.bks.cpg/sg66_19_cif.got.tgz:37861.got - 2010.06.03 17:51:23.
