data_PCOD9495881
_publ_section_title
;
Structure prediction by ZEFSAII (Michael W. Deem and Ramdas Pophale) SiO2 
 PCOD9495881
Probable space group: C C C M
;
_chemical_formula_sum "Si O2"
_cell_formula_units_Z 56
_cell_length_a 27.574909
_cell_length_b 5.362155
_cell_length_c 15.665246
_cell_angle_alpha 90.000000
_cell_angle_beta 90.000000
_cell_angle_gamma 90.000000
_cell_volume 2316.277939
_symmetry_space_group_name_H-M "C C C M"
_symmetry_group_IT_number 66
_symmetry_cell_setting 'orthorhombic'
loop_
_space_group_symop_operation_xyz
x,y,z
-x,-y,z
x,-y,1/2-z
-x,y,1/2-z
-x,-y,-z
x,y,-z
-x,y,1/2+z
x,-y,1/2+z
1/2+x,1/2+y,z
1/2-x,1/2-y,z
1/2+x,1/2-y,1/2-z
1/2-x,1/2+y,1/2-z
1/2-x,1/2-y,-z
1/2+x,1/2+y,-z
1/2-x,1/2+y,1/2+z
1/2+x,1/2-y,1/2+z
loop_
_atom_site_type_symbol
_atom_site_label
_atom_site_fract_x
_atom_site_fract_y
_atom_site_fract_z
Si Si1 0.806072 0.177594 0.173555
Si Si2 0.556360 0.499353 0.354805
Si Si3 0.718144 0.495439 0.500000
Si Si4 0.894289 0.497741 0.849421
O O1 0.750000 0.250000 0.190380
O O2 0.837431 0.425250 0.155409
O O3 0.824252 0.000000 0.250000
O O4 0.809670 0.014706 0.088237
O O5 0.500000 0.500000 0.378411
O O6 0.558260 0.500000 0.250000
O O7 0.585710 0.255521 0.385017
O O8 0.580662 0.752922 0.387321
O O9 0.750000 0.750000 0.500000
O O10 0.750000 0.250000 0.500000
O O11 0.909502 0.500000 0.750000
#
# Coordination Sequence:
#
# PCOD9495881 Si02
#       4
#    16  16   8  16
#     4  11  22  38  62  89 126 169 209 260 314 371
#     4   9  17  30  49  77 115 153 192 251 309 357
#     4  10  24  42  60  86 119 164 220 262 307 374
#     4  10  19  31  51  82 114 153 202 245 301 370
#
# _framework density 24.176721000000001
#
# number of rings (size 3 to 8) (size 9 to 14) (size 15 to 20)
#    0.000    2.000    0.000    5.143    0.000   10.286 
#    0.000    0.000    0.000    0.000    0.000    6.000 
#    0.000    0.000    0.000   33.571    0.000    0.714 
#
# Total GULP energy -156535.137171 kJ/mol
# GULP energy per Si atom -5590.540613 kJ/mol
# Density = 2.412169 g / cm^3
# Si number density = 24.176721 Si / 1000 Ang^3
#
#
#
# Elastic Constant Matrix: (Units=GPa)
#
#
# Indices 1 2 3 4 5 6 
#
# 1 186.2044 106.3601 -11.2117 0.0000 0.0000 0.0000
# 2 106.3601 230.6978 23.1044 0.0000 0.0000 0.0000
# 3 -11.2117 23.1044 107.4840 0.0000 0.0000 0.0000
# 4 0.0000 0.0000 0.0000 12.3000 0.0000 0.0000
# 5 0.0000 0.0000 0.0000 0.0000 -10.6119 0.0000
# 6 0.0000 0.0000 0.0000 0.0000 0.0000 46.2526
#
#
#
# Elastic Compliance Matrix: (Units=1/GPa)
#
#
# Indices 1 2 3 4 5 6 
#
# 1 0.007540 -0.003633 0.001568 0.000000 0.000000 0.000000
# 2 -0.003633 0.006181 -0.001708 0.000000 0.000000 0.000000
# 3 0.001568 -0.001708 0.009834 0.000000 0.000000 0.000000
# 4 0.000000 0.000000 0.000000 0.081301 0.000000 0.000000
# 5 0.000000 0.000000 0.000000 0.000000 -0.094234 0.000000
# 6 0.000000 0.000000 0.000000 0.000000 0.000000 0.021620
#
#
# Mechanical properties :
#
#
# Convention : Reuss Voigt Hill
#
# Bulk Modulus (GPa) = 62.46682 84.54353 73.50518
# Shear Modulus (GPa) = 110.80235 36.66371 73.73303
#
# Velocity S-wave (km/s) = 6.77714 3.89844 5.52845
# Velocity P-wave (km/s) = 9.33452 7.43698 8.43925
#
# Compressibility (1/GPa) = 0.01600850
#
# Stress axis : x y z
#
# Youngs Moduli (GPa) = 132.62335 161.79238 101.68521
#
# Poissons Ratio (x) = 0.58784 -0.15939
# Poissons Ratio (y) = 0.48186 0.17364
# Poissons Ratio (z) = -0.20789 0.27627
#
# Static dielectric constant tensor:
#      x y z
#    x 1.946810 0.000000 0.000000 
#    y 0.000000 1.915210 0.000000 
#    z 0.000000 0.000000 1.957990 
# 
# From -- ./inp_files/33549.got.cif
#   From: 2010.05.17/outbox.cif.g08.bks.cpg/sg66_17_cif.got.tgz:33549.got - 2010.06.03 17:51:23.
