data_PCOD9495150
_publ_section_title
;
Structure prediction by ZEFSAII (Michael W. Deem and Ramdas Pophale) SiO2 
 PCOD9495150
Probable space group: C C C M
;
_chemical_formula_sum "Si O2"
_cell_formula_units_Z 72
_cell_length_a 5.559514
_cell_length_b 30.025443
_cell_length_c 18.625184
_cell_angle_alpha 90.000000
_cell_angle_beta 90.000000
_cell_angle_gamma 90.000000
_cell_volume 3109.043682
_symmetry_space_group_name_H-M "C C C M"
_symmetry_group_IT_number 66
_symmetry_cell_setting 'orthorhombic'
loop_
_space_group_symop_operation_xyz
x,y,z
-x,-y,z
x,-y,1/2-z
-x,y,1/2-z
-x,-y,-z
x,y,-z
-x,y,1/2+z
x,-y,1/2+z
1/2+x,1/2+y,z
1/2-x,1/2-y,z
1/2+x,1/2-y,1/2-z
1/2-x,1/2+y,1/2-z
1/2-x,1/2-y,-z
1/2+x,1/2+y,-z
1/2-x,1/2+y,1/2+z
1/2+x,1/2-y,1/2+z
loop_
_atom_site_type_symbol
_atom_site_label
_atom_site_fract_x
_atom_site_fract_y
_atom_site_fract_z
Si Si1 0.383814 0.323355 0.000000
Si Si2 0.383317 0.178779 0.500000
Si Si3 0.252406 0.526258 0.914704
Si Si4 0.358415 0.652746 0.656505
Si Si5 0.750000 0.250000 0.292970
Si Si6 0.644109 0.878706 0.646363
O O1 0.630614 0.296478 0.000000
O O2 0.386106 0.354290 0.070479
O O3 0.136145 0.296989 0.000000
O O4 0.383447 0.148401 0.571289
O O5 0.500000 0.500000 0.896196
O O6 0.224671 0.571416 0.870200
O O7 0.000000 0.500000 0.904569
O O8 0.268893 0.536619 0.000000
O O9 0.294889 0.704639 0.664466
O O10 0.628026 0.644261 0.685440
O O11 0.123596 0.624918 0.679094
O O12 0.500000 0.242898 0.250000
#
# Coordination Sequence:
#
# PCOD9495150 Si02
#       6
#     8   8  16  16   8  16
#     4   8  16  29  50  77 106 129 182 219 264 329
#     4   8  14  24  42  68 100 143 170 225 250 298
#     4  10  19  28  44  75 117 163 197 222 264 328
#     4  10  21  35  59  82 108 153 186 238 284 338
#     4  12  26  45  62  83 116 142 186 248 300 344
#     4  10  17  32  50  76 111 148 199 220 274 330
#
# _framework density 23.158245000000001
#
# number of rings (size 3 to 8) (size 9 to 14) (size 15 to 20)
#    0.000    2.222    1.111    2.667    0.000    0.444 
#    0.000    0.000    0.000    9.333    0.000    0.000 
#    0.000   62.222    0.000    0.000    0.000    0.000 
#
# Total GULP energy -200849.474301 kJ/mol
# GULP energy per Si atom -5579.152064 kJ/mol
# Density = 2.310554 g / cm^3
# Si number density = 23.158245 Si / 1000 Ang^3
#
#
#
# Elastic Constant Matrix: (Units=GPa)
#
#
# Indices 1 2 3 4 5 6 
#
# 1 280.3973 48.7893 23.4573 0.0000 0.0000 0.0000
# 2 48.7893 104.6170 -1.1667 0.0000 0.0000 0.0000
# 3 23.4573 -1.1667 47.2471 0.0000 0.0000 0.0000
# 4 0.0000 0.0000 0.0000 7.5338 0.0000 0.0000
# 5 0.0000 0.0000 0.0000 0.0000 36.7912 0.0000
# 6 0.0000 0.0000 0.0000 0.0000 0.0000 42.6564
#
#
#
# Elastic Compliance Matrix: (Units=1/GPa)
#
#
# Indices 1 2 3 4 5 6 
#
# 1 0.004074 -0.001923 -0.002070 0.000000 0.000000 0.000000
# 2 -0.001923 0.010469 0.001213 0.000000 0.000000 0.000000
# 3 -0.002070 0.001213 0.022223 0.000000 0.000000 0.000000
# 4 0.000000 0.000000 0.000000 0.132735 0.000000 0.000000
# 5 0.000000 0.000000 0.000000 0.000000 0.027180 0.000000
# 6 0.000000 0.000000 0.000000 0.000000 0.000000 0.023443
#
#
# Mechanical properties :
#
#
# Convention : Reuss Voigt Hill
#
# Bulk Modulus (GPa) = 32.04484 63.82460 47.93472
# Shear Modulus (GPa) = 21.17858 41.47503 31.32681
#
# Velocity S-wave (km/s) = 3.02738 4.23654 3.68194
# Velocity P-wave (km/s) = 5.10758 7.17991 6.23051
#
# Compressibility (1/GPa) = 0.03120627
#
# Stress axis : x y z
#
# Youngs Moduli (GPa) = 245.44784 95.51937 44.99817
#
# Poissons Ratio (x) = 0.18370 0.09316
# Poissons Ratio (y) = 0.47203 -0.05460
# Poissons Ratio (z) = 0.50814 -0.11590
#
# Static dielectric constant tensor:
#      x y z
#    x 2.002210 0.000000 0.000000 
#    y 0.000000 1.787440 0.000000 
#    z 0.000000 0.000000 1.929330 
# 
# From -- ./inp_files/61536.got.cif
#   From: 2010.05.17/outbox.cif.g08.bks.cpg/sg66_31_cif.got.tgz:61536.got - 2010.06.03 17:51:23.
