data_PCOD9495061
_publ_section_title
;
Structure prediction by ZEFSAII (Michael W. Deem and Ramdas Pophale) SiO2 
 PCOD9495061
Probable space group: C C C M
;
_chemical_formula_sum "Si O2"
_cell_formula_units_Z 64
_cell_length_a 20.568383
_cell_length_b 15.964920
_cell_length_c 8.917053
_cell_angle_alpha 90.000000
_cell_angle_beta 90.000000
_cell_angle_gamma 90.000000
_cell_volume 2928.115781
_symmetry_space_group_name_H-M "C C C M"
_symmetry_group_IT_number 66
_symmetry_cell_setting 'orthorhombic'
loop_
_space_group_symop_operation_xyz
x,y,z
-x,-y,z
x,-y,1/2-z
-x,y,1/2-z
-x,-y,-z
x,y,-z
-x,y,1/2+z
x,-y,1/2+z
1/2+x,1/2+y,z
1/2-x,1/2-y,z
1/2+x,1/2-y,1/2-z
1/2-x,1/2+y,1/2-z
1/2-x,1/2-y,-z
1/2+x,1/2+y,-z
1/2-x,1/2+y,1/2+z
1/2+x,1/2-y,1/2+z
loop_
_atom_site_type_symbol
_atom_site_label
_atom_site_fract_x
_atom_site_fract_y
_atom_site_fract_z
Si Si1 0.704806 0.332533 0.333187
Si Si2 0.935605 0.594717 0.179386
Si Si3 0.931239 0.909105 0.822536
Si Si4 0.811422 0.411211 0.828560
O O1 0.714523 0.373454 0.500000
O O2 0.750000 0.250000 0.343757
O O3 0.627862 0.342548 0.306236
O O4 0.740476 0.375215 0.194216
O O5 0.934514 0.500000 0.250000
O O6 0.868604 0.635110 0.236311
O O7 0.000000 0.634760 0.250000
O O8 0.938690 0.590898 0.000000
O O9 0.000000 0.883046 0.750000
O O10 0.913626 0.000000 0.750000
O O11 0.941086 0.921218 0.000000
O O12 0.806611 0.500000 0.750000
O O13 0.831235 0.416876 0.000000
#
# Coordination Sequence:
#
# PCOD9495061 Si02
#       4
#    16  16  16  16
#     4  10  22  40  59  82 116 156 193 237 300 366
#     4  10  17  28  46  70 101 135 174 220 269 319
#     4  10  20  36  62  92 121 155 198 251 306 361
#     4  11  21  34  54  80 108 143 189 238 289 348
#
# _framework density 21.857060000000001
#
# number of rings (size 3 to 8) (size 9 to 14) (size 15 to 20)
#    0.000    1.750    0.000    9.000    0.000    4.500 
#    0.000    1.250    0.000    3.000    0.000    0.000 
#    0.000    0.000    0.000    0.000    0.000    0.000 
#
# Total GULP energy -178172.649647 kJ/mol
# GULP energy per Si atom -5567.895301 kJ/mol
# Density = 2.180731 g / cm^3
# Si number density = 21.857060 Si / 1000 Ang^3
#
#
#
# Elastic Constant Matrix: (Units=GPa)
#
#
# Indices 1 2 3 4 5 6 
#
# 1 176.5757 41.4521 70.7599 0.0000 0.0000 0.0000
# 2 41.4521 40.2351 24.4850 0.0000 0.0000 0.0000
# 3 70.7599 24.4850 187.5300 0.0000 0.0000 0.0000
# 4 0.0000 0.0000 0.0000 13.2725 0.0000 0.0000
# 5 0.0000 0.0000 0.0000 0.0000 41.0147 0.0000
# 6 0.0000 0.0000 0.0000 0.0000 0.0000 22.8566
#
#
#
# Elastic Compliance Matrix: (Units=1/GPa)
#
#
# Indices 1 2 3 4 5 6 
#
# 1 0.008206 -0.007137 -0.002165 0.000000 0.000000 0.000000
# 2 -0.007137 0.033207 -0.001643 0.000000 0.000000 0.000000
# 3 -0.002165 -0.001643 0.006364 0.000000 0.000000 0.000000
# 4 0.000000 0.000000 0.000000 0.075344 0.000000 0.000000
# 5 0.000000 0.000000 0.000000 0.000000 0.024382 0.000000
# 6 0.000000 0.000000 0.000000 0.000000 0.000000 0.043751
#
#
# Mechanical properties :
#
#
# Convention : Reuss Voigt Hill
#
# Bulk Modulus (GPa) = 38.62823 75.30388 56.96605
# Shear Modulus (GPa) = 22.54579 33.27166 27.90872
#
# Velocity S-wave (km/s) = 3.21520 3.90582 3.57721
# Velocity P-wave (km/s) = 5.61202 7.40731 6.57127
#
# Compressibility (1/GPa) = 0.02588781
#
# Stress axis : x y z
#
# Youngs Moduli (GPa) = 121.85921 30.11452 157.14172
#
# Poissons Ratio (x) = 0.21493 0.34014
# Poissons Ratio (y) = 0.86973 0.25812
# Poissons Ratio (z) = 0.26377 0.04947
#
# Static dielectric constant tensor:
#      x y z
#    x 1.984410 0.000000 0.000000 
#    y 0.000000 1.867330 0.000000 
#    z 0.000000 0.000000 1.758610 
# 
# From -- ./inp_files/8703.got.cif
#   From: 2010.05.17/outbox.cif.g08.bks.cpg/sg66_5_cif.got.tgz:8703.got - 2010.06.03 17:51:23.
