data_PCOD9495579
_publ_section_title
;
Structure prediction by ZEFSAII (Michael W. Deem and Ramdas Pophale) SiO2 
 PCOD9495579
Probable space group: C C C M
;
_chemical_formula_sum "Si O2"
_cell_formula_units_Z 88
_cell_length_a 10.732879
_cell_length_b 11.868399
_cell_length_c 28.184605
_cell_angle_alpha 90.000000
_cell_angle_beta 90.000000
_cell_angle_gamma 90.000000
_cell_volume 3590.213902
_symmetry_space_group_name_H-M "C C C M"
_symmetry_group_IT_number 66
_symmetry_cell_setting 'orthorhombic'
loop_
_space_group_symop_operation_xyz
x,y,z
-x,-y,z
x,-y,1/2-z
-x,y,1/2-z
-x,-y,-z
x,y,-z
-x,y,1/2+z
x,-y,1/2+z
1/2+x,1/2+y,z
1/2-x,1/2-y,z
1/2+x,1/2-y,1/2-z
1/2-x,1/2+y,1/2-z
1/2-x,1/2-y,-z
1/2+x,1/2+y,-z
1/2-x,1/2+y,1/2+z
1/2+x,1/2-y,1/2+z
loop_
_atom_site_type_symbol
_atom_site_label
_atom_site_fract_x
_atom_site_fract_y
_atom_site_fract_z
Si Si1 0.360860 0.951356 0.051423
Si Si2 0.250000 0.250000 0.084651
Si Si3 0.041360 0.623449 0.304224
Si Si4 0.619512 0.318817 0.146606
Si Si5 0.013973 0.218226 0.550488
Si Si6 0.268924 0.542676 0.646786
O O1 0.385929 0.818739 0.050021
O O2 0.500000 0.000000 0.051910
O O3 0.300286 0.981930 0.101696
O O4 0.301389 0.984200 0.000000
O O5 0.123922 0.275247 0.055909
O O6 0.306524 0.347802 0.117246
O O7 0.187084 0.604291 0.312713
O O8 0.000000 0.500000 0.323417
O O9 0.000000 0.630766 0.250000
O O10 0.977840 0.729081 0.330484
O O11 0.750000 0.250000 0.146969
O O12 0.563388 0.349832 0.095187
O O13 0.647911 0.442572 0.168361
O O14 0.014713 0.157818 0.500000
#
# Coordination Sequence:
#
# PCOD9495579 Si02
#       6
#    16   8  16  16  16  16
#     4  10  18  33  63  97 131 177 233 280 330 405
#     4  12  25  42  66  98 150 200 240 286 359 432
#     4  11  23  46  75 106 141 181 237 302 370 443
#     4  12  23  43  76 106 139 180 241 303 355 429
#     4  11  23  40  65 103 145 190 241 292 351 428
#     4  12  24  44  72 102 140 191 236 296 364 424
#
# _framework density 24.511074000000001
#
# number of rings (size 3 to 8) (size 9 to 14) (size 15 to 20)
#    0.000    0.727    7.273    0.818    0.000    2.545 
#    1.636    0.909    0.000    1.091    0.000    0.000 
#    0.000    0.000    0.000    0.000    0.000    0.000 
#
# Total GULP energy -245084.815100 kJ/mol
# GULP energy per Si atom -5570.109434 kJ/mol
# Density = 2.445529 g / cm^3
# Si number density = 24.511074 Si / 1000 Ang^3
#
#
#
# Elastic Constant Matrix: (Units=GPa)
#
#
# Indices 1 2 3 4 5 6 
#
# 1 92.1459 48.7257 40.9690 0.0000 0.0000 0.0000
# 2 48.7257 135.0267 34.8901 0.0000 0.0000 0.0000
# 3 40.9690 34.8901 115.7555 0.0000 0.0000 0.0000
# 4 0.0000 0.0000 0.0000 4.4056 0.0000 0.0000
# 5 0.0000 0.0000 0.0000 0.0000 -4.3898 0.0000
# 6 0.0000 0.0000 0.0000 0.0000 0.0000 52.1802
#
#
#
# Elastic Compliance Matrix: (Units=1/GPa)
#
#
# Indices 1 2 3 4 5 6 
#
# 1 0.014921 -0.004359 -0.003967 0.000000 0.000000 0.000000
# 2 -0.004359 0.009305 -0.001262 0.000000 0.000000 0.000000
# 3 -0.003967 -0.001262 0.010423 0.000000 0.000000 0.000000
# 4 0.000000 0.000000 0.000000 0.226981 0.000000 0.000000
# 5 0.000000 0.000000 0.000000 0.000000 -0.227803 0.000000
# 6 0.000000 0.000000 0.000000 0.000000 0.000000 0.019164
#
#
# Mechanical properties :
#
#
# Convention : Reuss Voigt Hill
#
# Bulk Modulus (GPa) = 64.62792 65.78864 65.20828
# Shear Modulus (GPa) = 64.66101 24.99544 44.82822
#
# Velocity S-wave (km/s) = 5.14175 3.19683 4.28120
# Velocity P-wave (km/s) = 7.85329 6.36592 7.14840
#
# Compressibility (1/GPa) = 0.01547319
#
# Stress axis : x y z
#
# Youngs Moduli (GPa) = 67.01786 107.46765 95.93920
#
# Poissons Ratio (x) = 0.46850 0.38060
# Poissons Ratio (y) = 0.29216 0.12105
# Poissons Ratio (z) = 0.26587 0.13560
#
# Static dielectric constant tensor:
#      x y z
#    x 2.213340 0.000000 0.000000 
#    y 0.000000 2.036050 0.000000 
#    z 0.000000 0.000000 2.001290 
# 
# From -- ./inp_files/68890.got.cif
#   From: 2010.05.17/outbox.cif.g08.bks.cpg/sg66_35_cif.got.tgz:68890.got - 2010.06.03 17:51:23.
