data_PCOD9495875
_publ_section_title
;
Structure prediction by ZEFSAII (Michael W. Deem and Ramdas Pophale) SiO2 
 PCOD9495875
Probable space group: C C C M
;
_chemical_formula_sum "Si O2"
_cell_formula_units_Z 112
_cell_length_a 18.016495
_cell_length_b 36.875020
_cell_length_c 7.496292
_cell_angle_alpha 90.000000
_cell_angle_beta 90.000000
_cell_angle_gamma 90.000000
_cell_volume 4980.226159
_symmetry_space_group_name_H-M "C C C M"
_symmetry_group_IT_number 66
_symmetry_cell_setting 'orthorhombic'
loop_
_space_group_symop_operation_xyz
x,y,z
-x,-y,z
x,-y,1/2-z
-x,y,1/2-z
-x,-y,-z
x,y,-z
-x,y,1/2+z
x,-y,1/2+z
1/2+x,1/2+y,z
1/2-x,1/2-y,z
1/2+x,1/2-y,1/2-z
1/2-x,1/2+y,1/2-z
1/2-x,1/2-y,-z
1/2+x,1/2+y,-z
1/2-x,1/2+y,1/2+z
1/2+x,1/2-y,1/2+z
loop_
_atom_site_type_symbol
_atom_site_label
_atom_site_fract_x
_atom_site_fract_y
_atom_site_fract_z
Si Si1 0.916003 0.743229 0.786782
Si Si2 0.809283 0.320725 0.281651
Si Si3 0.802841 0.959563 0.786432
Si Si4 0.362666 0.679146 0.281888
Si Si5 0.632850 0.959896 0.786441
Si Si6 0.417805 0.883298 0.713207
Si Si7 0.084314 0.898833 0.713598
O O1 0.855456 0.714410 0.721407
O O2 0.901704 0.783975 0.719509
O O3 0.000000 0.731567 0.750000
O O4 0.907043 0.744429 0.000000
O O5 0.809549 0.320742 0.500000
O O6 0.723691 0.320394 0.228625
O O7 0.853834 0.356396 0.221489
O O8 0.718058 0.958041 0.718485
O O9 0.856201 0.928000 0.717478
O O10 0.831900 0.000000 0.750000
O O11 0.798362 0.955383 0.000000
O O12 0.364956 0.679151 0.500000
O O13 0.400113 0.641884 0.219779
O O14 0.590680 0.924416 0.717704
O O15 0.602265 0.000000 0.750000
O O16 0.635417 0.957204 0.000000
O O17 0.500000 0.869054 0.750000
O O18 0.409686 0.884491 0.500000
O O19 0.093592 0.897633 0.500000
O O20 0.000000 0.909685 0.750000
#
# Coordination Sequence:
#
# PCOD9495875 Si02
#       7
#    16  16  16  16  16  16  16
#     4  10  19  31  51  77 103 130 160 198 242 286
#     4   9  17  31  52  75  97 126 167 206 236 276
#     4   9  18  33  52  72  94 124 162 201 241 285
#     4   9  17  31  52  75  97 126 167 206 236 276
#     4   9  18  33  52  72  94 124 162 201 241 285
#     4  10  20  33  50  72  99 129 160 198 243 289
#     4  10  20  33  50  72  99 129 160 198 243 289
#
# _framework density 22.488937
#
# number of rings (size 3 to 8) (size 9 to 14) (size 15 to 20)
#    0.000    2.571    0.000    2.143    0.000    6.857 
#    0.000    2.857    0.000    6.000    0.000    0.000 
#    0.000    0.000    0.000    0.000    0.000    0.000 
#
# Total GULP energy -312876.060205 kJ/mol
# GULP energy per Si atom -5587.072504 kJ/mol
# Density = 2.243775 g / cm^3
# Si number density = 22.488937 Si / 1000 Ang^3
#
#
#
# Elastic Constant Matrix: (Units=GPa)
#
#
# Indices 1 2 3 4 5 6 
#
# 1 60.6655 -1.0732 -9.1205 0.0000 0.0000 0.0000
# 2 -1.0732 83.2265 2.5075 0.0000 0.0000 0.0000
# 3 -9.1205 2.5075 61.5868 0.0000 0.0000 0.0000
# 4 0.0000 0.0000 0.0000 5.7724 0.0000 0.0000
# 5 0.0000 0.0000 0.0000 0.0000 22.4267 0.0000
# 6 0.0000 0.0000 0.0000 0.0000 0.0000 -248.7985
#
#
#
# Elastic Compliance Matrix: (Units=1/GPa)
#
#
# Indices 1 2 3 4 5 6 
#
# 1 0.016861 0.000142 0.002491 0.000000 0.000000 0.000000
# 2 0.000142 0.012031 -0.000469 0.000000 0.000000 0.000000
# 3 0.002491 -0.000469 0.016625 0.000000 0.000000 0.000000
# 4 0.000000 0.000000 0.000000 0.173238 0.000000 0.000000
# 5 0.000000 0.000000 0.000000 0.000000 0.044590 0.000000
# 6 0.000000 0.000000 0.000000 0.000000 0.000000 -0.004019
#
#
# Mechanical properties :
#
#
# Convention : Reuss Voigt Hill
#
# Bulk Modulus (GPa) = 20.06139 21.12294 20.59217
# Shear Modulus (GPa) = 18.40858 -29.90888 -5.75015
#
# Velocity S-wave (km/s) = 2.86416 -3.65079 -1.60076
# Velocity P-wave (km/s) = 4.45845 2.89102 2.39998
#
# Compressibility (1/GPa) = 0.04984699
#
# Stress axis : x y z
#
# Youngs Moduli (GPa) = 59.30892 83.11613 60.14947
#
# Poissons Ratio (x) = -0.01183 -0.14984
# Poissons Ratio (y) = -0.00844 0.02820
# Poissons Ratio (z) = -0.14775 0.03896
#
# Static dielectric constant tensor:
#      x y z
#    x 1.771070 0.000000 0.000000 
#    y 0.000000 1.828270 0.000000 
#    z 0.000000 0.000000 1.869160 
# 
# From -- ./inp_files/16790.got.cif
#   From: 2010.05.17/outbox.cif.g08.bks.cpg/sg66_9_cif.got.tgz:16790.got - 2010.06.03 17:51:23.
