data_PCOD9495181
_publ_section_title
;
Structure prediction by ZEFSAII (Michael W. Deem and Ramdas Pophale) SiO2 
 PCOD9495181
Probable space group: C C C M
;
_chemical_formula_sum "Si O2"
_cell_formula_units_Z 44
_cell_length_a 22.041171
_cell_length_b 6.975629
_cell_length_c 13.442553
_cell_angle_alpha 90.000000
_cell_angle_beta 90.000000
_cell_angle_gamma 90.000000
_cell_volume 2066.806391
_symmetry_space_group_name_H-M "C C C M"
_symmetry_group_IT_number 66
_symmetry_cell_setting 'orthorhombic'
loop_
_space_group_symop_operation_xyz
x,y,z
-x,-y,z
x,-y,1/2-z
-x,y,1/2-z
-x,-y,-z
x,y,-z
-x,y,1/2+z
x,-y,1/2+z
1/2+x,1/2+y,z
1/2-x,1/2-y,z
1/2+x,1/2-y,1/2-z
1/2-x,1/2+y,1/2-z
1/2-x,1/2-y,-z
1/2+x,1/2+y,-z
1/2-x,1/2+y,1/2+z
1/2+x,1/2-y,1/2+z
loop_
_atom_site_type_symbol
_atom_site_label
_atom_site_fract_x
_atom_site_fract_y
_atom_site_fract_z
Si Si1 0.665729 0.000000 0.250000
Si Si2 0.394198 0.325112 0.620669
Si Si3 0.000000 0.000000 0.250000
Si Si4 0.232724 0.979506 0.886748
O O1 0.626202 0.863557 0.319119
O O2 0.715348 0.087593 0.325791
O O3 0.398578 0.298760 0.500000
O O4 0.455411 0.389054 0.674480
O O5 0.338776 0.476887 0.637882
O O6 0.250000 0.750000 0.879869
O O7 0.239033 0.033593 0.000000
#
# Coordination Sequence:
#
# PCOD9495181 Si02
#       4
#     8  16   4  16
#     4  10  17  33  62  91 115 148 188 240 304 354
#     4  10  22  40  61  87 120 157 200 247 292 350
#     4  12  24  42  60  78 114 170 214 246 296 344
#     4   8  15  30  54  84 114 140 174 229 294 352
#
# _framework density 21.288883999999999
#
# number of rings (size 3 to 8) (size 9 to 14) (size 15 to 20)
#    0.000    2.545    0.000    4.909    0.000    0.727 
#    0.000    9.091    0.000   43.636    0.000    0.000 
#    0.000    0.000    0.000    0.000    0.000    0.000 
#
# Total GULP energy -122549.268849 kJ/mol
# GULP energy per Si atom -5570.421311 kJ/mol
# Density = 2.124043 g / cm^3
# Si number density = 21.288884 Si / 1000 Ang^3
#
#
#
# Elastic Constant Matrix: (Units=GPa)
#
#
# Indices 1 2 3 4 5 6 
#
# 1 194.6856 62.3781 101.6811 0.0000 0.0000 0.0000
# 2 62.3781 73.4229 52.9088 0.0000 0.0000 0.0000
# 3 101.6811 52.9088 245.2496 0.0000 0.0000 0.0000
# 4 0.0000 0.0000 0.0000 29.1100 0.0000 0.0000
# 5 0.0000 0.0000 0.0000 0.0000 56.4412 0.0000
# 6 0.0000 0.0000 0.0000 0.0000 0.0000 42.5844
#
#
#
# Elastic Compliance Matrix: (Units=1/GPa)
#
#
# Indices 1 2 3 4 5 6 
#
# 1 0.007927 -0.005170 -0.002171 0.000000 0.000000 0.000000
# 2 -0.005170 0.019499 -0.002063 0.000000 0.000000 0.000000
# 3 -0.002171 -0.002063 0.005423 0.000000 0.000000 0.000000
# 4 0.000000 0.000000 0.000000 0.034352 0.000000 0.000000
# 5 0.000000 0.000000 0.000000 0.000000 0.017718 0.000000
# 6 0.000000 0.000000 0.000000 0.000000 0.000000 0.023483
#
#
# Mechanical properties :
#
#
# Convention : Reuss Voigt Hill
#
# Bulk Modulus (GPa) = 71.22555 105.25492 88.24023
# Shear Modulus (GPa) = 37.91058 45.38648 41.64853
#
# Velocity S-wave (km/s) = 4.22449 4.62230 4.42786
# Velocity P-wave (km/s) = 7.57129 8.83380 8.22680
#
# Compressibility (1/GPa) = 0.01403990
#
# Stress axis : x y z
#
# Youngs Moduli (GPa) = 126.15218 51.28571 184.40877
#
# Poissons Ratio (x) = 0.26514 0.40039
# Poissons Ratio (y) = 0.65220 0.38045
# Poissons Ratio (z) = 0.27390 0.10581
#
# Static dielectric constant tensor:
#      x y z
#    x 1.783120 0.000000 0.000000 
#    y 0.000000 1.892020 0.000000 
#    z 0.000000 0.000000 1.859550 
# 
# From -- ./inp_files/18337.got.cif
#   From: 2010.05.17/outbox.cif.g08.bks.cpg/sg66_10_cif.got.tgz:18337.got - 2010.06.03 17:51:23.
