data_PCOD9495448
_publ_section_title
;
Structure prediction by ZEFSAII (Michael W. Deem and Ramdas Pophale) SiO2 
 PCOD9495448
Probable space group: C C C M
;
_chemical_formula_sum "Si O2"
_cell_formula_units_Z 128
_cell_length_a 21.117834
_cell_length_b 18.791866
_cell_length_c 18.869245
_cell_angle_alpha 90.000000
_cell_angle_beta 90.000000
_cell_angle_gamma 90.000000
_cell_volume 7488.137355
_symmetry_space_group_name_H-M "C C C M"
_symmetry_group_IT_number 66
_symmetry_cell_setting 'orthorhombic'
loop_
_space_group_symop_operation_xyz
x,y,z
-x,-y,z
x,-y,1/2-z
-x,y,1/2-z
-x,-y,-z
x,y,-z
-x,y,1/2+z
x,-y,1/2+z
1/2+x,1/2+y,z
1/2-x,1/2-y,z
1/2+x,1/2-y,1/2-z
1/2-x,1/2+y,1/2-z
1/2-x,1/2-y,-z
1/2+x,1/2+y,-z
1/2-x,1/2+y,1/2+z
1/2+x,1/2-y,1/2+z
loop_
_atom_site_type_symbol
_atom_site_label
_atom_site_fract_x
_atom_site_fract_y
_atom_site_fract_z
Si Si1 0.467028 0.686424 0.175227
Si Si2 0.663975 0.391346 0.802637
Si Si3 0.432670 0.028668 0.413632
Si Si4 0.197724 0.518658 0.580348
Si Si5 0.959686 0.071932 0.415919
Si Si6 0.676608 0.443732 0.651657
Si Si7 0.401282 0.808081 0.083966
Si Si8 0.239571 0.352155 0.419743
O O1 0.500000 0.704924 0.250000
O O2 0.406588 0.636577 0.189390
O O3 0.513096 0.638545 0.127233
O O4 0.439330 0.752907 0.131690
O O5 0.678332 0.392086 0.719288
O O6 0.669179 0.474036 0.824277
O O7 0.710134 0.349222 0.856306
O O8 0.430652 0.023820 0.500000
O O9 0.423015 0.111693 0.397850
O O10 0.500000 0.000000 0.389219
O O11 0.372345 0.983640 0.386567
O O12 0.192446 0.544135 0.500000
O O13 0.254883 0.559947 0.615890
O O14 0.217656 0.435098 0.578399
O O15 0.967717 0.081367 0.500000
O O16 0.885344 0.066929 0.396623
O O17 0.000000 0.000000 0.396595
O O18 0.324749 0.807961 0.092949
O O19 0.412992 0.795806 0.000000
O O20 0.263966 0.336562 0.500000
#
# Coordination Sequence:
#
# PCOD9495448 Si02
#       8
#    16  16  16  16  16  16  16  16
#     4  12  23  36  50  70 107 150 189 219 268 330
#     4  10  20  31  51  71 101 145 181 214 270 328
#     4   8  14  29  56  85 107 129 162 209 274 339
#     4   8  14  26  48  78 107 132 163 213 268 315
#     4  11  22  34  52  76 100 138 193 241 270 307
#     4  10  18  32  48  73 105 141 181 224 267 315
#     4   9  19  36  56  80 108 135 173 227 279 329
#     4   8  16  32  53  77 103 129 168 223 273 323
#
# _framework density 17.093703999999999
#
# number of rings (size 3 to 8) (size 9 to 14) (size 15 to 20)
#    0.000    2.500    2.500    2.250    0.000    2.250 
#    0.000    2.500    0.000    1.875    0.000    0.000 
#    0.000    6.000    0.000    0.000    0.000    0.000 
#
# Total GULP energy -356461.545391 kJ/mol
# GULP energy per Si atom -5569.711647 kJ/mol
# Density = 1.705480 g / cm^3
# Si number density = 17.093704 Si / 1000 Ang^3
#
#
#
# Elastic Constant Matrix: (Units=GPa)
#
#
# Indices 1 2 3 4 5 6 
#
# 1 130.7097 30.5019 56.8420 0.0000 0.0000 0.0000
# 2 30.5019 40.7220 36.0148 0.0000 0.0000 0.0000
# 3 56.8420 36.0148 87.7169 0.0000 0.0000 0.0000
# 4 0.0000 0.0000 0.0000 14.9051 0.0000 0.0000
# 5 0.0000 0.0000 0.0000 0.0000 14.6817 0.0000
# 6 0.0000 0.0000 0.0000 0.0000 0.0000 14.5101
#
#
#
# Elastic Compliance Matrix: (Units=1/GPa)
#
#
# Indices 1 2 3 4 5 6 
#
# 1 0.010882 -0.003006 -0.005818 0.000000 0.000000 0.000000
# 2 -0.003006 0.039388 -0.014224 0.000000 0.000000 0.000000
# 3 -0.005818 -0.014224 0.021010 0.000000 0.000000 0.000000
# 4 0.000000 0.000000 0.000000 0.067091 0.000000 0.000000
# 5 0.000000 0.000000 0.000000 0.000000 0.068112 0.000000
# 6 0.000000 0.000000 0.000000 0.000000 0.000000 0.068918
#
#
# Mechanical properties :
#
#
# Convention : Reuss Voigt Hill
#
# Bulk Modulus (GPa) = 39.70561 56.20734 47.95647
# Shear Modulus (GPa) = 15.15652 17.87203 16.51428
#
# Velocity S-wave (km/s) = 2.98094 3.23698 3.11159
# Velocity P-wave (km/s) = 5.92677 6.85011 6.40510
#
# Compressibility (1/GPa) = 0.02518536
#
# Stress axis : x y z
#
# Youngs Moduli (GPa) = 91.89634 25.38836 47.59559
#
# Poissons Ratio (x) = 0.07631 0.27689
# Poissons Ratio (y) = 0.27622 0.67701
# Poissons Ratio (z) = 0.53461 0.36113
#
# Static dielectric constant tensor:
#      x y z
#    x 1.597650 0.000000 0.000000 
#    y 0.000000 1.576910 0.000000 
#    z 0.000000 0.000000 1.584990 
# 
# From -- ./inp_files/43191.got.cif
#   From: 2010.05.17/outbox.cif.g08.bks.cpg/sg66_22_cif.got.tgz:43191.got - 2010.06.03 17:51:23.
