data_PCOD9495573
_publ_section_title
;
Structure prediction by ZEFSAII (Michael W. Deem and Ramdas Pophale) SiO2 
 PCOD9495573
Probable space group: C C C M
;
_chemical_formula_sum "Si O2"
_cell_formula_units_Z 116
_cell_length_a 28.611594
_cell_length_b 21.125068
_cell_length_c 8.698992
_cell_angle_alpha 90.000000
_cell_angle_beta 90.000000
_cell_angle_gamma 90.000000
_cell_volume 5257.861002
_symmetry_space_group_name_H-M "C C C M"
_symmetry_group_IT_number 66
_symmetry_cell_setting 'orthorhombic'
loop_
_space_group_symop_operation_xyz
x,y,z
-x,-y,z
x,-y,1/2-z
-x,y,1/2-z
-x,-y,-z
x,y,-z
-x,y,1/2+z
x,-y,1/2+z
1/2+x,1/2+y,z
1/2-x,1/2-y,z
1/2+x,1/2-y,1/2-z
1/2-x,1/2+y,1/2-z
1/2-x,1/2-y,-z
1/2+x,1/2+y,-z
1/2-x,1/2+y,1/2+z
1/2+x,1/2-y,1/2+z
loop_
_atom_site_type_symbol
_atom_site_label
_atom_site_fract_x
_atom_site_fract_y
_atom_site_fract_z
Si Si1 0.930013 0.264399 0.676882
Si Si2 0.331699 0.746390 0.176765
Si Si3 0.180630 0.603867 0.825201
Si Si4 0.576168 0.103554 0.176760
Si Si5 0.220733 0.119778 0.685355
Si Si6 0.627643 0.435200 0.319061
Si Si7 0.500000 0.000000 0.750000
Si Si8 0.952999 0.142017 0.177058
O O1 0.942201 0.251126 0.500000
O O2 0.875035 0.250869 0.707460
O O3 0.939406 0.337061 0.720901
O O4 0.953831 0.217315 0.796973
O O5 0.315828 0.819215 0.168635
O O6 0.293975 0.693004 0.222152
O O7 0.346906 0.729765 0.000000
O O8 0.128922 0.585938 0.764779
O O9 0.230821 0.590868 0.749438
O O10 0.180974 0.578694 0.000000
O O11 0.537489 0.048624 0.174977
O O12 0.582998 0.125813 0.000000
O O13 0.224264 0.117537 0.500000
O O14 0.176930 0.079862 0.741610
O O15 0.608678 0.500000 0.250000
O O16 0.632871 0.438939 0.500000
O O17 0.591151 0.381913 0.271398
O O18 0.000000 0.114864 0.250000
O O19 0.948469 0.125666 0.000000
#
# Coordination Sequence:
#
# PCOD9495573 Si02
#       8
#    16  16  16  16  16  16   4  16
#     4  11  22  38  63  97 134 171 217 274 333 395
#     4   9  16  30  57  91 130 172 211 258 327 401
#     4   8  16  33  59  93 128 167 216 267 329 402
#     4  10  23  44  67  92 127 173 222 278 342 407
#     4  10  18  33  61  93 128 171 217 266 330 400
#     4  12  26  45  66  93 130 174 225 272 325 391
#     4  12  26  44  72  98 130 172 242 286 356 408
#     4  12  25  44  69  99 133 171 216 270 330 385
#
# _framework density 22.062203
#
# number of rings (size 3 to 8) (size 9 to 14) (size 15 to 20)
#    0.000    1.655    1.379    5.172    0.966    3.034 
#    1.241    4.138    0.000    4.138    0.000    0.000 
#    0.000    0.000    0.000    0.000    0.000    0.000 
#
# Total GULP energy -323527.294524 kJ/mol
# GULP energy per Si atom -5578.056802 kJ/mol
# Density = 2.201199 g / cm^3
# Si number density = 22.062203 Si / 1000 Ang^3
#
#
#
# Elastic Constant Matrix: (Units=GPa)
#
#
# Indices 1 2 3 4 5 6 
#
# 1 124.5212 17.4381 3.5785 0.0000 0.0000 0.0000
# 2 17.4381 64.3422 0.8126 0.0000 0.0000 0.0000
# 3 3.5785 0.8126 39.5244 0.0000 0.0000 0.0000
# 4 0.0000 0.0000 0.0000 15.6323 0.0000 0.0000
# 5 0.0000 0.0000 0.0000 0.0000 13.3179 0.0000
# 6 0.0000 0.0000 0.0000 0.0000 0.0000 14.7678
#
#
#
# Elastic Compliance Matrix: (Units=1/GPa)
#
#
# Indices 1 2 3 4 5 6 
#
# 1 0.008368 -0.002259 -0.000711 0.000000 0.000000 0.000000
# 2 -0.002259 0.016156 -0.000128 0.000000 0.000000 0.000000
# 3 -0.000711 -0.000128 0.025368 0.000000 0.000000 0.000000
# 4 0.000000 0.000000 0.000000 0.063970 0.000000 0.000000
# 5 0.000000 0.000000 0.000000 0.000000 0.075087 0.000000
# 6 0.000000 0.000000 0.000000 0.000000 0.000000 0.067715
#
#
# Mechanical properties :
#
#
# Convention : Reuss Voigt Hill
#
# Bulk Modulus (GPa) = 22.88545 30.22734 26.55639
# Shear Modulus (GPa) = 18.02300 22.51418 20.26859
#
# Velocity S-wave (km/s) = 2.86128 3.19797 3.03430
# Velocity P-wave (km/s) = 4.61644 5.23132 4.93347
#
# Compressibility (1/GPa) = 0.04369589
#
# Stress axis : x y z
#
# Youngs Moduli (GPa) = 119.50965 61.89769 39.42002
#
# Poissons Ratio (x) = 0.13981 0.02803
# Poissons Ratio (y) = 0.26995 0.00503
# Poissons Ratio (z) = 0.08499 0.00790
#
# Static dielectric constant tensor:
#      x y z
#    x 1.874440 0.000000 0.000000 
#    y 0.000000 1.784300 0.000000 
#    z 0.000000 0.000000 1.761570 
# 
# From -- ./inp_files/11744.got.cif
#   From: 2010.05.17/outbox.cif.g08.bks.cpg/sg66_6_cif.got.tgz:11744.got - 2010.06.03 17:51:23.
