data_PCOD9495418
_publ_section_title
;
Structure prediction by ZEFSAII (Michael W. Deem and Ramdas Pophale) SiO2 
 PCOD9495418
Probable space group: C C C M
;
_chemical_formula_sum "Si O2"
_cell_formula_units_Z 96
_cell_length_a 20.106545
_cell_length_b 13.316588
_cell_length_c 18.332755
_cell_angle_alpha 90.000000
_cell_angle_beta 90.000000
_cell_angle_gamma 90.000000
_cell_volume 4908.605709
_symmetry_space_group_name_H-M "C C C M"
_symmetry_group_IT_number 66
_symmetry_cell_setting 'orthorhombic'
loop_
_space_group_symop_operation_xyz
x,y,z
-x,-y,z
x,-y,1/2-z
-x,y,1/2-z
-x,-y,-z
x,y,-z
-x,y,1/2+z
x,-y,1/2+z
1/2+x,1/2+y,z
1/2-x,1/2-y,z
1/2+x,1/2-y,1/2-z
1/2-x,1/2+y,1/2-z
1/2-x,1/2-y,-z
1/2+x,1/2+y,-z
1/2-x,1/2+y,1/2+z
1/2+x,1/2-y,1/2+z
loop_
_atom_site_type_symbol
_atom_site_label
_atom_site_fract_x
_atom_site_fract_y
_atom_site_fract_z
Si Si1 0.297666 0.104217 0.385711
Si Si2 0.189004 0.322970 0.765304
Si Si3 0.159862 0.390355 0.921725
Si Si4 0.059742 0.227641 0.698994
Si Si5 0.651923 0.330832 0.917930
Si Si6 0.495556 0.881072 0.416312
O O1 0.306824 0.095510 0.298805
O O2 0.326609 0.212967 0.408951
O O3 0.219765 0.107487 0.405305
O O4 0.335079 0.011284 0.420809
O O5 0.250000 0.250000 0.746952
O O6 0.195433 0.355578 0.848387
O O7 0.118259 0.270091 0.750650
O O8 0.083072 0.358341 0.916137
O O9 0.186634 0.354974 0.000000
O O10 0.096564 0.151807 0.643610
O O11 0.000000 0.191045 0.750000
O O12 0.031702 0.315632 0.645379
O O13 0.628143 0.347267 0.000000
O O14 0.520040 0.863497 0.500000
O O15 0.500000 0.000000 0.400908
#
# Coordination Sequence:
#
# PCOD9495418 Si02
#       6
#    16  16  16  16  16  16
#     4  10  18  33  54  80 108 143 189 233 273 320
#     4  11  21  38  54  76 108 147 189 229 273 327
#     4  11  22  34  52  80 113 149 185 218 270 339
#     4  11  20  34  51  74 106 146 183 225 262 330
#     4  10  18  31  53  78 109 144 183 233 279 318
#     4  10  20  32  48  74 111 146 175 211 263 330
#
# _framework density 19.557486999999998
#
# number of rings (size 3 to 8) (size 9 to 14) (size 15 to 20)
#    0.000    1.500    5.000    5.000    0.000    2.000 
#    0.000    0.000    0.000    0.000    0.000    2.333 
#    0.000    2.667    0.000    0.000    0.000    0.000 
#
# Total GULP energy -267785.001350 kJ/mol
# GULP energy per Si atom -5578.854195 kJ/mol
# Density = 1.951297 g / cm^3
# Si number density = 19.557487 Si / 1000 Ang^3
#
#
#
# Elastic Constant Matrix: (Units=GPa)
#
#
# Indices 1 2 3 4 5 6 
#
# 1 100.1224 10.7042 30.6754 0.0000 0.0000 0.0000
# 2 10.7042 5.8667 2.2616 0.0000 0.0000 0.0000
# 3 30.6754 2.2616 151.6541 0.0000 0.0000 0.0000
# 4 0.0000 0.0000 0.0000 -17.8592 0.0000 0.0000
# 5 0.0000 0.0000 0.0000 0.0000 -28.8956 0.0000
# 6 0.0000 0.0000 0.0000 0.0000 0.0000 14.8228
#
#
#
# Elastic Compliance Matrix: (Units=1/GPa)
#
#
# Indices 1 2 3 4 5 6 
#
# 1 0.013172 -0.023140 -0.002319 0.000000 0.000000 0.000000
# 2 -0.023140 0.212088 0.001518 0.000000 0.000000 0.000000
# 3 -0.002319 0.001518 0.007040 0.000000 0.000000 0.000000
# 4 0.000000 0.000000 0.000000 -0.055994 0.000000 0.000000
# 5 0.000000 0.000000 0.000000 0.000000 -0.034607 0.000000
# 6 0.000000 0.000000 0.000000 0.000000 0.000000 0.067464
#
#
# Mechanical properties :
#
#
# Convention : Reuss Voigt Hill
#
# Bulk Modulus (GPa) = 5.42245 38.32509 21.87377
# Shear Modulus (GPa) = 15.69764 7.88039 11.78901
#
# Velocity S-wave (km/s) = 2.83617 2.00950 2.45784
# Velocity P-wave (km/s) = 3.67474 5.00228 4.38899
#
# Compressibility (1/GPa) = 0.18441834
#
# Stress axis : x y z
#
# Youngs Moduli (GPa) = 75.91711 4.71502 142.03635
#
# Poissons Ratio (x) = 0.10910 0.32943
# Poissons Ratio (y) = 1.75670 -0.21556
# Poissons Ratio (z) = 0.17607 -0.00716
#
# Static dielectric constant tensor:
#      x y z
#    x 1.700230 0.000000 0.000000 
#    y 0.000000 1.674820 0.000000 
#    z 0.000000 0.000000 1.732350 
# 
# From -- ./inp_files/41752.got.cif
#   From: 2010.05.17/outbox.cif.g08.bks.cpg/sg66_21_cif.got.tgz:41752.got - 2010.06.03 17:51:23.
