data_PCOD9495515
_publ_section_title
;
Structure prediction by ZEFSAII (Michael W. Deem and Ramdas Pophale) SiO2 
 PCOD9495515
Probable space group: C C C M
;
_chemical_formula_sum "Si O2"
_cell_formula_units_Z 72
_cell_length_a 10.413777
_cell_length_b 12.140391
_cell_length_c 28.044246
_cell_angle_alpha 90.000000
_cell_angle_beta 90.000000
_cell_angle_gamma 90.000000
_cell_volume 3545.558991
_symmetry_space_group_name_H-M "C C C M"
_symmetry_group_IT_number 66
_symmetry_cell_setting 'orthorhombic'
loop_
_space_group_symop_operation_xyz
x,y,z
-x,-y,z
x,-y,1/2-z
-x,y,1/2-z
-x,-y,-z
x,y,-z
-x,y,1/2+z
x,-y,1/2+z
1/2+x,1/2+y,z
1/2-x,1/2-y,z
1/2+x,1/2-y,1/2-z
1/2-x,1/2+y,1/2-z
1/2-x,1/2-y,-z
1/2+x,1/2+y,-z
1/2-x,1/2+y,1/2+z
1/2+x,1/2-y,1/2+z
loop_
_atom_site_type_symbol
_atom_site_label
_atom_site_fract_x
_atom_site_fract_y
_atom_site_fract_z
Si Si1 0.857370 0.054447 0.601794
Si Si2 0.479665 0.870078 0.697015
Si Si3 0.107933 0.306917 0.500000
Si Si4 0.750000 0.750000 0.842089
Si Si5 0.339392 0.857541 0.894343
Si Si6 0.908235 0.893728 0.000000
O O1 0.844613 0.168394 0.629714
O O2 0.829580 0.092190 0.547759
O O3 0.751383 0.963230 0.614716
O O4 0.000000 0.000000 0.605296
O O5 0.500000 0.821191 0.750000
O O6 0.335885 0.834807 0.686409
O O7 0.564930 0.840955 0.650278
O O8 0.500000 0.000000 0.700508
O O9 0.250000 0.250000 0.500000
O O10 0.100496 0.366847 0.551874
O O11 0.998855 0.212770 0.500000
O O12 0.250000 0.750000 0.896125
O O13 0.000000 0.000000 0.000000
#
# Coordination Sequence:
#
# PCOD9495515 Si02
#       6
#    16  16   8   8  16   8
#     4  11  22  39  64  96 133 177 222 277 331 399
#     4  11  25  46  67  94 133 175 219 281 340 398
#     4  10  18  32  59  96 131 177 221 272 341 406
#     4  12  24  45  68  96 132 165 228 272 336 398
#     4  11  21  40  67  96 135 178 226 276 343 409
#     4  10  18  33  56  91 133 172 224 272 324 398
#
# _framework density 20.307095
#
# number of rings (size 3 to 8) (size 9 to 14) (size 15 to 20)
#    0.000    1.111    2.222    8.667    1.556    0.444 
#    0.000    1.667    0.000    0.000    0.000    0.000 
#    0.000    0.000    0.000    0.000    0.000    0.000 
#
# Total GULP energy -200621.844254 kJ/mol
# GULP energy per Si atom -5572.829007 kJ/mol
# Density = 2.026088 g / cm^3
# Si number density = 20.307095 Si / 1000 Ang^3
#
#
#
# Elastic Constant Matrix: (Units=GPa)
#
#
# Indices 1 2 3 4 5 6 
#
# 1 70.4429 23.7490 46.8011 0.0000 0.0000 0.0000
# 2 23.7490 91.3765 10.8695 0.0000 0.0000 0.0000
# 3 46.8011 10.8695 145.2532 0.0000 0.0000 0.0000
# 4 0.0000 0.0000 0.0000 2.9274 0.0000 0.0000
# 5 0.0000 0.0000 0.0000 0.0000 35.3733 0.0000
# 6 0.0000 0.0000 0.0000 0.0000 0.0000 36.4785
#
#
#
# Elastic Compliance Matrix: (Units=1/GPa)
#
#
# Indices 1 2 3 4 5 6 
#
# 1 0.019671 -0.004398 -0.006009 0.000000 0.000000 0.000000
# 2 -0.004398 0.012025 0.000517 0.000000 0.000000 0.000000
# 3 -0.006009 0.000517 0.008782 0.000000 0.000000 0.000000
# 4 0.000000 0.000000 0.000000 0.341604 0.000000 0.000000
# 5 0.000000 0.000000 0.000000 0.000000 0.028270 0.000000
# 6 0.000000 0.000000 0.000000 0.000000 0.000000 0.027413
#
#
# Mechanical properties :
#
#
# Convention : Reuss Voigt Hill
#
# Bulk Modulus (GPa) = 48.31188 52.21244 50.26216
# Shear Modulus (GPa) = 10.76557 29.99935 20.38246
#
# Velocity S-wave (km/s) = 2.30497 3.84771 3.17158
# Velocity P-wave (km/s) = 5.56113 6.74590 6.18196
#
# Compressibility (1/GPa) = 0.02069884
#
# Stress axis : x y z
#
# Youngs Moduli (GPa) = 50.83686 83.15867 113.87022
#
# Poissons Ratio (x) = 0.36571 0.68424
# Poissons Ratio (y) = 0.22357 -0.05888
# Poissons Ratio (z) = 0.30547 -0.04300
#
# Static dielectric constant tensor:
#      x y z
#    x 1.724700 0.000000 0.000000 
#    y 0.000000 1.680360 0.000000 
#    z 0.000000 0.000000 3.116480 
# 
# From -- ./inp_files/63406.got.cif
#   From: 2010.05.17/outbox.cif.g08.bks.cpg/sg66_32_cif.got.tgz:63406.got - 2010.06.03 17:51:23.
