data_PCOD9495908
_publ_section_title
;
Structure prediction by ZEFSAII (Michael W. Deem and Ramdas Pophale) SiO2 
 PCOD9495908
Probable space group: C C C M
;
_chemical_formula_sum "Si O2"
_cell_formula_units_Z 64
_cell_length_a 27.040762
_cell_length_b 18.686448
_cell_length_c 8.708165
_cell_angle_alpha 90.000000
_cell_angle_beta 90.000000
_cell_angle_gamma 90.000000
_cell_volume 4400.199139
_symmetry_space_group_name_H-M "C C C M"
_symmetry_group_IT_number 66
_symmetry_cell_setting 'orthorhombic'
loop_
_space_group_symop_operation_xyz
x,y,z
-x,-y,z
x,-y,1/2-z
-x,y,1/2-z
-x,-y,-z
x,y,-z
-x,y,1/2+z
x,-y,1/2+z
1/2+x,1/2+y,z
1/2-x,1/2-y,z
1/2+x,1/2-y,1/2-z
1/2-x,1/2+y,1/2-z
1/2-x,1/2-y,-z
1/2+x,1/2+y,-z
1/2-x,1/2+y,1/2+z
1/2+x,1/2-y,1/2+z
loop_
_atom_site_type_symbol
_atom_site_label
_atom_site_fract_x
_atom_site_fract_y
_atom_site_fract_z
Si Si1 0.701017 0.199807 0.323152
Si Si2 0.645195 0.336663 0.314768
Si Si3 0.445660 0.578546 0.815938
Si Si4 0.260671 0.421488 0.318162
O O1 0.692405 0.178120 0.500000
O O2 0.750000 0.250000 0.322814
O O3 0.658437 0.254614 0.271675
O O4 0.715419 0.131369 0.224003
O O5 0.643721 0.340260 0.500000
O O6 0.595054 0.365911 0.242537
O O7 0.690234 0.386391 0.256409
O O8 0.432264 0.500000 0.750000
O O9 0.500000 0.595339 0.750000
O O10 0.447115 0.575446 0.000000
O O11 0.253182 0.500000 0.250000
O O12 0.267381 0.424997 0.500000
#
# Coordination Sequence:
#
# PCOD9495908 Si02
#       4
#    16  16  16  16
#     4   8  16  30  45  61  84 112 141 176 216 256
#     4  10  19  32  47  63  86 115 146 179 218 259
#     4  11  21  33  47  64  87 114 147 183 219 255
#     4  11  20  29  43  63  88 116 148 181 214 255
#
# _framework density 14.544796
#
# number of rings (size 3 to 8) (size 9 to 14) (size 15 to 20)
#    0.000    2.000    0.000    8.250    0.000    5.500 
#    0.000    0.000    0.000    0.000    0.000    0.000 
#    0.000    1.000    0.000   10.500    0.000    4.500 
#
# Total GULP energy -178490.230075 kJ/mol
# GULP energy per Si atom -5577.819690 kJ/mol
# Density = 1.451169 g / cm^3
# Si number density = 14.544796 Si / 1000 Ang^3
#
#
#
# Elastic Constant Matrix: (Units=GPa)
#
#
# Indices 1 2 3 4 5 6 
#
# 1 63.0576 35.8379 29.1748 0.0000 0.0000 0.0000
# 2 35.8379 83.7457 44.5813 0.0000 0.0000 0.0000
# 3 29.1748 44.5813 104.4811 0.0000 0.0000 0.0000
# 4 0.0000 0.0000 0.0000 22.7801 0.0000 0.0000
# 5 0.0000 0.0000 0.0000 0.0000 31.0020 0.0000
# 6 0.0000 0.0000 0.0000 0.0000 0.0000 27.7678
#
#
#
# Elastic Compliance Matrix: (Units=1/GPa)
#
#
# Indices 1 2 3 4 5 6 
#
# 1 0.021524 -0.007778 -0.002691 0.000000 0.000000 0.000000
# 2 -0.007778 0.018261 -0.005620 0.000000 0.000000 0.000000
# 3 -0.002691 -0.005620 0.012721 0.000000 0.000000 0.000000
# 4 0.000000 0.000000 0.000000 0.043898 0.000000 0.000000
# 5 0.000000 0.000000 0.000000 0.000000 0.032256 0.000000
# 6 0.000000 0.000000 0.000000 0.000000 0.000000 0.036013
#
#
# Mechanical properties :
#
#
# Convention : Reuss Voigt Hill
#
# Bulk Modulus (GPa) = 49.19586 52.27472 50.73529
# Shear Modulus (GPa) = 24.55450 25.75599 25.15525
#
# Velocity S-wave (km/s) = 4.11323 4.21266 4.16324
# Velocity P-wave (km/s) = 7.51367 7.72532 7.62023
#
# Compressibility (1/GPa) = 0.02032691
#
# Stress axis : x y z
#
# Youngs Moduli (GPa) = 46.45870 54.76049 78.61228
#
# Poissons Ratio (x) = 0.42595 0.21158
# Poissons Ratio (y) = 0.36137 0.44180
# Poissons Ratio (z) = 0.12504 0.30775
#
# Static dielectric constant tensor:
#      x y z
#    x 1.474020 0.000000 0.000000 
#    y 0.000000 1.480650 0.000000 
#    z 0.000000 0.000000 1.483510 
# 
# From -- ./inp_files/5463.got.cif
#   From: 2010.05.17/outbox.cif.g08.bks.cpg/sg66_3_cif.got.tgz:5463.got - 2010.06.03 17:51:23.
