data_PCOD9495820
_publ_section_title
;
Structure prediction by ZEFSAII (Michael W. Deem and Ramdas Pophale) SiO2 
 PCOD9495820
Probable space group: C C C M
;
_chemical_formula_sum "Si O2"
_cell_formula_units_Z 116
_cell_length_a 30.182559
_cell_length_b 27.830723
_cell_length_c 8.702700
_cell_angle_alpha 90.000000
_cell_angle_beta 90.000000
_cell_angle_gamma 90.000000
_cell_volume 7310.289226
_symmetry_space_group_name_H-M "C C C M"
_symmetry_group_IT_number 66
_symmetry_cell_setting 'orthorhombic'
loop_
_space_group_symop_operation_xyz
x,y,z
-x,-y,z
x,-y,1/2-z
-x,y,1/2-z
-x,-y,-z
x,y,-z
-x,y,1/2+z
x,-y,1/2+z
1/2+x,1/2+y,z
1/2-x,1/2-y,z
1/2+x,1/2-y,1/2-z
1/2-x,1/2+y,1/2-z
1/2-x,1/2-y,-z
1/2+x,1/2+y,-z
1/2-x,1/2+y,1/2+z
1/2+x,1/2-y,1/2+z
loop_
_atom_site_type_symbol
_atom_site_label
_atom_site_fract_x
_atom_site_fract_y
_atom_site_fract_z
Si Si1 0.668844 0.450981 0.675213
Si Si2 0.416353 0.560948 0.168958
Si Si3 0.954779 0.746629 0.315893
Si Si4 0.145766 0.743903 0.183175
Si Si5 0.813334 0.846236 0.681629
Si Si6 0.000000 0.000000 0.750000
Si Si7 0.452842 0.647901 0.682722
Si Si8 0.771463 0.696964 0.173481
O O1 0.687450 0.500000 0.750000
O O2 0.681988 0.449267 0.500000
O O3 0.615533 0.456094 0.694881
O O4 0.678352 0.399025 0.749122
O O5 0.464170 0.535052 0.169500
O O6 0.420757 0.617006 0.210872
O O7 0.396150 0.554873 0.000000
O O8 0.960388 0.754993 0.500000
O O9 0.904989 0.727256 0.292976
O O10 0.951070 0.796411 0.222356
O O11 0.000000 0.722872 0.250000
O O12 0.157401 0.799296 0.236777
O O13 0.180068 0.707343 0.260133
O O14 0.153761 0.744594 0.000000
O O15 0.819689 0.849200 0.500000
O O16 0.762594 0.832824 0.723354
O O17 0.500000 0.632279 0.750000
O O18 0.448390 0.638891 0.500000
O O19 0.750000 0.750000 0.167404
O O20 0.772856 0.677578 0.000000
#
# Coordination Sequence:
#
# PCOD9495820 Si02
#       8
#    16  16  16  16  16   4  16  16
#     4  12  25  39  53  69  90 115 149 186 229 280
#     4  12  24  38  52  65  81 102 139 184 233 281
#     4  10  19  31  45  63  89 120 155 188 223 267
#     4   9  18  31  48  69  93 121 152 189 231 278
#     4  10  19  34  54  72  93 120 150 188 236 283
#     4  12  26  36  56  62  78 100 138 184 234 284
#     4  11  21  32  46  61  79 104 139 180 225 270
#     4   9  17  29  48  74  98 117 143 183 230 280
#
# _framework density 15.868045
#
# number of rings (size 3 to 8) (size 9 to 14) (size 15 to 20)
#    0.000    1.517    1.379    6.000    0.000    5.517 
#    0.000    0.000    0.000    0.000    0.000    0.000 
#    0.000    0.000    0.000    0.000    0.000    0.690 
#
# Total GULP energy -322893.206249 kJ/mol
# GULP energy per Si atom -5567.124246 kJ/mol
# Density = 1.583193 g / cm^3
# Si number density = 15.868045 Si / 1000 Ang^3
#
#
#
# Elastic Constant Matrix: (Units=GPa)
#
#
# Indices 1 2 3 4 5 6 
#
# 1 85.7837 19.8544 23.4847 0.0000 0.0000 0.0000
# 2 19.8544 36.9839 11.5748 0.0000 0.0000 0.0000
# 3 23.4847 11.5748 75.0998 0.0000 0.0000 0.0000
# 4 0.0000 0.0000 0.0000 13.4906 0.0000 0.0000
# 5 0.0000 0.0000 0.0000 0.0000 21.8242 0.0000
# 6 0.0000 0.0000 0.0000 0.0000 0.0000 27.5001
#
#
#
# Elastic Compliance Matrix: (Units=1/GPa)
#
#
# Indices 1 2 3 4 5 6 
#
# 1 0.014094 -0.006500 -0.003406 0.000000 0.000000 0.000000
# 2 -0.006500 0.031407 -0.002808 0.000000 0.000000 0.000000
# 3 -0.003406 -0.002808 0.014813 0.000000 0.000000 0.000000
# 4 0.000000 0.000000 0.000000 0.074126 0.000000 0.000000
# 5 0.000000 0.000000 0.000000 0.000000 0.045821 0.000000
# 6 0.000000 0.000000 0.000000 0.000000 0.000000 0.036364
#
#
# Mechanical properties :
#
#
# Convention : Reuss Voigt Hill
#
# Bulk Modulus (GPa) = 28.66399 34.18836 31.42617
# Shear Modulus (GPa) = 19.70979 22.09321 20.90150
#
# Velocity S-wave (km/s) = 3.52818 3.73541 3.63327
# Velocity P-wave (km/s) = 5.89072 6.34008 6.11952
#
# Compressibility (1/GPa) = 0.03488697
#
# Stress axis : x y z
#
# Youngs Moduli (GPa) = 70.95201 31.83981 67.50682
#
# Poissons Ratio (x) = 0.20697 0.22989
# Poissons Ratio (y) = 0.46122 0.18955
# Poissons Ratio (z) = 0.24163 0.08940
#
# Static dielectric constant tensor:
#      x y z
#    x 1.525150 0.000000 0.000000 
#    y 0.000000 1.547200 0.000000 
#    z 0.000000 0.000000 1.552480 
# 
# From -- ./inp_files/11704.got.cif
#   From: 2010.05.17/outbox.cif.g08.bks.cpg/sg66_6_cif.got.tgz:11704.got - 2010.06.03 17:51:23.
