data_PCOD9495961
_publ_section_title
;
Structure prediction by ZEFSAII (Michael W. Deem and Ramdas Pophale) SiO2 
 PCOD9495961
Probable space group: C C C M
;
_chemical_formula_sum "Si O2"
_cell_formula_units_Z 72
_cell_length_a 16.764546
_cell_length_b 24.710248
_cell_length_c 9.439105
_cell_angle_alpha 90.000000
_cell_angle_beta 90.000000
_cell_angle_gamma 90.000000
_cell_volume 3910.206723
_symmetry_space_group_name_H-M "C C C M"
_symmetry_group_IT_number 66
_symmetry_cell_setting 'orthorhombic'
loop_
_space_group_symop_operation_xyz
x,y,z
-x,-y,z
x,-y,1/2-z
-x,y,1/2-z
-x,-y,-z
x,y,-z
-x,y,1/2+z
x,-y,1/2+z
1/2+x,1/2+y,z
1/2-x,1/2-y,z
1/2+x,1/2-y,1/2-z
1/2-x,1/2+y,1/2-z
1/2-x,1/2-y,-z
1/2+x,1/2+y,-z
1/2-x,1/2+y,1/2+z
1/2+x,1/2-y,1/2+z
loop_
_atom_site_type_symbol
_atom_site_label
_atom_site_fract_x
_atom_site_fract_y
_atom_site_fract_z
Si Si1 0.632604 0.782515 0.161075
Si Si2 0.420836 0.334141 0.169563
Si Si3 0.000000 0.636117 0.750000
Si Si4 0.248239 0.374001 0.169952
Si Si5 0.128976 0.447497 0.338431
O O1 0.603760 0.726038 0.225036
O O2 0.559054 0.824495 0.164942
O O3 0.707186 0.817026 0.217689
O O4 0.654234 0.768612 0.000000
O O5 0.500000 0.352003 0.250000
O O6 0.342530 0.370519 0.191346
O O7 0.436106 0.331143 0.000000
O O8 0.058265 0.596684 0.835949
O O9 0.203225 0.420206 0.256645
O O10 0.232664 0.379382 0.000000
O O11 0.104160 0.500000 0.250000
O O12 0.148169 0.461562 0.500000
#
# Coordination Sequence:
#
# PCOD9495961 Si02
#       5
#    16  16   8  16  16
#     4   9  16  29  49  73 106 146 182 211 251 311
#     4  10  19  32  52  78 108 143 181 221 267 316
#     4  10  19  32  52  78 116 146 177 214 258 308
#     4   9  19  35  54  75 104 143 183 224 269 318
#     4  11  23  37  56  80 107 142 183 228 274 320
#
# _framework density 18.413349
#
# number of rings (size 3 to 8) (size 9 to 14) (size 15 to 20)
#    0.000    2.222    1.111    2.333    0.000    7.111 
#    0.000    0.000    0.000    4.667    0.000    4.667 
#    0.000    0.000    0.000    0.000    0.000    0.000 
#
# Total GULP energy -200668.555584 kJ/mol
# GULP energy per Si atom -5574.126544 kJ/mol
# Density = 1.837144 g / cm^3
# Si number density = 18.413349 Si / 1000 Ang^3
#
#
#
# Elastic Constant Matrix: (Units=GPa)
#
#
# Indices 1 2 3 4 5 6 
#
# 1 126.6746 15.3875 38.9005 0.0000 0.0000 0.0000
# 2 15.3875 43.1837 20.5857 0.0000 0.0000 0.0000
# 3 38.9005 20.5857 70.2318 0.0000 0.0000 0.0000
# 4 0.0000 0.0000 0.0000 20.8741 0.0000 0.0000
# 5 0.0000 0.0000 0.0000 0.0000 19.5022 0.0000
# 6 0.0000 0.0000 0.0000 0.0000 0.0000 14.3714
#
#
#
# Elastic Compliance Matrix: (Units=1/GPa)
#
#
# Indices 1 2 3 4 5 6 
#
# 1 0.009551 -0.001025 -0.004990 0.000000 0.000000 0.000000
# 2 -0.001025 0.027028 -0.007355 0.000000 0.000000 0.000000
# 3 -0.004990 -0.007355 0.019158 0.000000 0.000000 0.000000
# 4 0.000000 0.000000 0.000000 0.047906 0.000000 0.000000
# 5 0.000000 0.000000 0.000000 0.000000 0.051276 0.000000
# 6 0.000000 0.000000 0.000000 0.000000 0.000000 0.069583
#
#
# Mechanical properties :
#
#
# Convention : Reuss Voigt Hill
#
# Bulk Modulus (GPa) = 34.48417 43.31529 38.89973
# Shear Modulus (GPa) = 19.16393 21.96397 20.56395
#
# Velocity S-wave (km/s) = 3.22959 3.45748 3.34548
# Velocity P-wave (km/s) = 5.71624 6.28600 6.00788
#
# Compressibility (1/GPa) = 0.02899881
#
# Stress axis : x y z
#
# Youngs Moduli (GPa) = 104.70058 36.99875 52.19717
#
# Poissons Ratio (x) = 0.03791 0.26046
# Poissons Ratio (y) = 0.10728 0.38389
# Poissons Ratio (z) = 0.52244 0.27211
#
# Static dielectric constant tensor:
#      x y z
#    x 1.646260 0.000000 0.000000 
#    y 0.000000 1.651480 0.000000 
#    z 0.000000 0.000000 1.630020 
# 
# From -- ./inp_files/5385.got.cif
#   From: 2010.05.17/outbox.cif.g08.bks.cpg/sg66_3_cif.got.tgz:5385.got - 2010.06.03 17:51:23.
