data_PCOD9495372
_publ_section_title
;
Structure prediction by ZEFSAII (Michael W. Deem and Ramdas Pophale) SiO2 
 PCOD9495372
Probable space group: C C C M
;
_chemical_formula_sum "Si O2"
_cell_formula_units_Z 88
_cell_length_a 10.018399
_cell_length_b 14.665589
_cell_length_c 24.862693
_cell_angle_alpha 90.000000
_cell_angle_beta 90.000000
_cell_angle_gamma 90.000000
_cell_volume 3652.969124
_symmetry_space_group_name_H-M "C C C M"
_symmetry_group_IT_number 66
_symmetry_cell_setting 'orthorhombic'
loop_
_space_group_symop_operation_xyz
x,y,z
-x,-y,z
x,-y,1/2-z
-x,y,1/2-z
-x,-y,-z
x,y,-z
-x,y,1/2+z
x,-y,1/2+z
1/2+x,1/2+y,z
1/2-x,1/2-y,z
1/2+x,1/2-y,1/2-z
1/2-x,1/2+y,1/2-z
1/2-x,1/2-y,-z
1/2+x,1/2+y,-z
1/2-x,1/2+y,1/2+z
1/2+x,1/2-y,1/2+z
loop_
_atom_site_type_symbol
_atom_site_label
_atom_site_fract_x
_atom_site_fract_y
_atom_site_fract_z
Si Si1 0.704185 0.621819 0.500000
Si Si2 0.823357 0.550440 0.119274
Si Si3 0.055308 0.161116 0.112303
Si Si4 0.910455 0.794471 0.000000
Si Si5 0.324347 0.069549 0.000000
Si Si6 0.885853 0.703149 0.206852
Si Si7 0.752989 0.852881 0.615796
O O1 0.547651 0.643663 0.500000
O O2 0.722731 0.514357 0.500000
O O3 0.780898 0.656575 0.552565
O O4 0.671677 0.586667 0.108749
O O5 0.889610 0.563325 0.059534
O O6 0.866538 0.614505 0.168744
O O7 0.824413 0.442980 0.135197
O O8 0.073787 0.232424 0.062665
O O9 0.069698 0.218605 0.165814
O O10 0.908527 0.120137 0.114135
O O11 0.764643 0.840541 0.000000
O O12 0.750000 0.750000 0.230009
O O13 0.000000 0.686204 0.250000
O O14 0.750000 0.750000 0.639157
#
# Coordination Sequence:
#
# PCOD9495372 Si02
#       7
#     8  16  16   8   8  16  16
#     4   8  14  24  42  78 127 173 206 234 283 361
#     4   9  18  34  58  91 126 164 206 257 317 379
#     4   9  18  33  57  87 124 163 205 255 312 379
#     4   8  13  24  47  84 122 159 197 245 310 375
#     4   8  13  24  49  86 127 160 197 249 310 376
#     4  10  22  41  67  94 123 163 215 272 325 380
#     4  10  18  30  54  88 128 169 207 247 298 369
#
# _framework density 24.089993
#
# number of rings (size 3 to 8) (size 9 to 14) (size 15 to 20)
#    0.000    2.909    0.000    1.091    0.000    5.818 
#    0.000    4.545    0.000   19.636    0.000    9.545 
#    0.000    0.000    0.000    0.000    0.000    0.000 
#
# Total GULP energy -245075.962419 kJ/mol
# GULP energy per Si atom -5569.908237 kJ/mol
# Density = 2.403516 g / cm^3
# Si number density = 24.089993 Si / 1000 Ang^3
#
#
#
# Elastic Constant Matrix: (Units=GPa)
#
#
# Indices 1 2 3 4 5 6 
#
# 1 95.8049 23.0381 49.8596 0.0000 0.0000 0.0000
# 2 23.0381 163.9530 47.6703 0.0000 0.0000 0.0000
# 3 49.8596 47.6703 131.9537 0.0000 0.0000 0.0000
# 4 0.0000 0.0000 0.0000 51.2567 0.0000 0.0000
# 5 0.0000 0.0000 0.0000 0.0000 37.8057 0.0000
# 6 0.0000 0.0000 0.0000 0.0000 0.0000 21.5762
#
#
#
# Elastic Compliance Matrix: (Units=1/GPa)
#
#
# Indices 1 2 3 4 5 6 
#
# 1 0.013022 -0.000446 -0.004759 0.000000 0.000000 0.000000
# 2 -0.000446 0.006830 -0.002299 0.000000 0.000000 0.000000
# 3 -0.004759 -0.002299 0.010207 0.000000 0.000000 0.000000
# 4 0.000000 0.000000 0.000000 0.019510 0.000000 0.000000
# 5 0.000000 0.000000 0.000000 0.000000 0.026451 0.000000
# 6 0.000000 0.000000 0.000000 0.000000 0.000000 0.046347
#
#
# Mechanical properties :
#
#
# Convention : Reuss Voigt Hill
#
# Bulk Modulus (GPa) = 66.44086 70.31640 68.37863
# Shear Modulus (GPa) = 35.11393 40.20397 37.65895
#
# Velocity S-wave (km/s) = 3.82201 4.08966 3.95810
# Velocity P-wave (km/s) = 6.86420 7.18003 7.02389
#
# Compressibility (1/GPa) = 0.01505098
#
# Stress axis : x y z
#
# Youngs Moduli (GPa) = 76.79307 146.40323 97.96879
#
# Poissons Ratio (x) = 0.06530 0.46627
# Poissons Ratio (y) = 0.03425 0.22524
# Poissons Ratio (z) = 0.36548 0.33659
#
# Static dielectric constant tensor:
#      x y z
#    x 2.054340 0.000000 0.000000 
#    y 0.000000 2.057650 0.000000 
#    z 0.000000 0.000000 1.951880 
# 
# From -- ./inp_files/56767.got.cif
#   From: 2010.05.17/outbox.cif.g08.bks.cpg/sg66_29_cif.got.tgz:56767.got - 2010.06.03 17:51:23.
