data_PCOD9495463
_publ_section_title
;
Structure prediction by ZEFSAII (Michael W. Deem and Ramdas Pophale) SiO2 
 PCOD9495463
Probable space group: C C C M
;
_chemical_formula_sum "Si O2"
_cell_formula_units_Z 96
_cell_length_a 9.620423
_cell_length_b 22.741555
_cell_length_c 22.825643
_cell_angle_alpha 90.000000
_cell_angle_beta 90.000000
_cell_angle_gamma 90.000000
_cell_volume 4993.871298
_symmetry_space_group_name_H-M "C C C M"
_symmetry_group_IT_number 66
_symmetry_cell_setting 'orthorhombic'
loop_
_space_group_symop_operation_xyz
x,y,z
-x,-y,z
x,-y,1/2-z
-x,y,1/2-z
-x,-y,-z
x,y,-z
-x,y,1/2+z
x,-y,1/2+z
1/2+x,1/2+y,z
1/2-x,1/2-y,z
1/2+x,1/2-y,1/2-z
1/2-x,1/2+y,1/2-z
1/2-x,1/2-y,-z
1/2+x,1/2+y,-z
1/2-x,1/2+y,1/2+z
1/2+x,1/2-y,1/2+z
loop_
_atom_site_type_symbol
_atom_site_label
_atom_site_fract_x
_atom_site_fract_y
_atom_site_fract_z
Si Si1 0.844300 0.902410 0.378754
Si Si2 0.108404 0.767034 0.389123
Si Si3 0.335213 0.999239 0.068360
Si Si4 0.209123 0.835691 0.000000
Si Si5 0.377871 0.598929 0.430779
Si Si6 0.620178 0.706886 0.299119
Si Si7 0.010609 0.720200 0.000000
O O1 0.734498 0.954324 0.386095
O O2 0.825110 0.865284 0.438556
O O3 0.833417 0.856990 0.324711
O O4 0.000969 0.926082 0.388703
O O5 0.250000 0.750000 0.356580
O O6 0.128798 0.832946 0.413145
O O7 0.968747 0.764364 0.351843
O O8 0.085192 0.724067 0.443626
O O9 0.500000 0.000000 0.074341
O O10 0.262965 0.062467 0.077017
O O11 0.302687 0.981985 0.000000
O O12 0.113417 0.777104 0.000000
O O13 0.376234 0.830265 0.000000
O O14 0.414415 0.593762 0.500000
O O15 0.500000 0.699512 0.250000
O O16 0.750000 0.750000 0.285438
#
# Coordination Sequence:
#
# PCOD9495463 Si02
#       7
#    16  16  16   8  16  16   8
#     4  11  19  36  58  82 113 158 197 235 290 361
#     4  11  21  35  55  87 120 157 191 239 296 357
#     4  10  21  34  51  85 125 160 195 239 290 352
#     4  11  18  30  53  83 116 156 193 233 288 366
#     4  10  18  32  52  78 116 157 196 229 275 343
#     4  11  24  42  62  85 113 150 199 251 297 354
#     4  11  19  30  49  84 123 151 185 231 292 356
#
# _framework density 19.223562000000001
#
# number of rings (size 3 to 8) (size 9 to 14) (size 15 to 20)
#    0.000    1.333    5.833    2.250    0.000    4.000 
#    0.000    0.000    0.000    8.000    0.000    4.667 
#    0.000    0.000    0.000    0.000    0.000    0.000 
#
# Total GULP energy -267606.549482 kJ/mol
# GULP energy per Si atom -5575.136448 kJ/mol
# Density = 1.917981 g / cm^3
# Si number density = 19.223562 Si / 1000 Ang^3
#
#
#
# Elastic Constant Matrix: (Units=GPa)
#
#
# Indices 1 2 3 4 5 6 
#
# 1 130.8920 48.5284 26.1637 0.0000 0.0000 0.0000
# 2 48.5284 53.4644 25.6331 0.0000 0.0000 0.0000
# 3 26.1637 25.6331 66.6475 0.0000 0.0000 0.0000
# 4 0.0000 0.0000 0.0000 4.3582 0.0000 0.0000
# 5 0.0000 0.0000 0.0000 0.0000 24.1614 0.0000
# 6 0.0000 0.0000 0.0000 0.0000 0.0000 29.3693
#
#
#
# Elastic Compliance Matrix: (Units=1/GPa)
#
#
# Indices 1 2 3 4 5 6 
#
# 1 0.011535 -0.010176 -0.000615 0.000000 0.000000 0.000000
# 2 -0.010176 0.031909 -0.008278 0.000000 0.000000 0.000000
# 3 -0.000615 -0.008278 0.018429 0.000000 0.000000 0.000000
# 4 0.000000 0.000000 0.000000 0.229454 0.000000 0.000000
# 5 0.000000 0.000000 0.000000 0.000000 0.041388 0.000000
# 6 0.000000 0.000000 0.000000 0.000000 0.000000 0.034049
#
#
# Mechanical properties :
#
#
# Convention : Reuss Voigt Hill
#
# Bulk Modulus (GPa) = 42.12789 50.18382 46.15585
# Shear Modulus (GPa) = 12.11199 21.62302 16.86751
#
# Velocity S-wave (km/s) = 2.51282 3.35747 2.96537
# Velocity P-wave (km/s) = 5.51193 6.41811 5.98220
#
# Compressibility (1/GPa) = 0.02373725
#
# Stress axis : x y z
#
# Youngs Moduli (GPa) = 86.68947 31.33917 54.26128
#
# Poissons Ratio (x) = 0.31890 0.03336
# Poissons Ratio (y) = 0.88212 0.44916
# Poissons Ratio (z) = 0.05330 0.25942
#
# Static dielectric constant tensor:
#      x y z
#    x 1.745740 0.000000 0.000000 
#    y 0.000000 1.700650 0.000000 
#    z 0.000000 0.000000 1.676190 
# 
# From -- ./inp_files/55822.got.cif
#   From: 2010.05.17/outbox.cif.g08.bks.cpg/sg66_28_cif.got.tgz:55822.got - 2010.06.03 17:51:23.
