data_PCOD9495264
_publ_section_title
;
Structure prediction by ZEFSAII (Michael W. Deem and Ramdas Pophale) SiO2 
 PCOD9495264
Probable space group: C C C M
;
_chemical_formula_sum "Si O2"
_cell_formula_units_Z 96
_cell_length_a 15.992558
_cell_length_b 12.183397
_cell_length_c 27.134425
_cell_angle_alpha 90.000000
_cell_angle_beta 90.000000
_cell_angle_gamma 90.000000
_cell_volume 5286.971307
_symmetry_space_group_name_H-M "C C C M"
_symmetry_group_IT_number 66
_symmetry_cell_setting 'orthorhombic'
loop_
_space_group_symop_operation_xyz
x,y,z
-x,-y,z
x,-y,1/2-z
-x,y,1/2-z
-x,-y,-z
x,y,-z
-x,y,1/2+z
x,-y,1/2+z
1/2+x,1/2+y,z
1/2-x,1/2-y,z
1/2+x,1/2-y,1/2-z
1/2-x,1/2+y,1/2-z
1/2-x,1/2-y,-z
1/2+x,1/2+y,-z
1/2-x,1/2+y,1/2+z
1/2+x,1/2-y,1/2+z
loop_
_atom_site_type_symbol
_atom_site_label
_atom_site_fract_x
_atom_site_fract_y
_atom_site_fract_z
Si Si1 0.809364 0.352322 0.359978
Si Si2 0.400369 0.131297 0.244557
Si Si3 0.770012 0.079792 0.888846
Si Si4 0.015130 0.630941 0.398930
Si Si5 0.128983 0.266217 0.654571
Si Si6 0.751046 0.382568 0.000000
Si Si7 0.945868 0.610507 0.500000
O O1 0.750000 0.250000 0.367055
O O2 0.856446 0.344309 0.307342
O O3 0.755435 0.462651 0.367001
O O4 0.886160 0.354382 0.398252
O O5 0.500000 0.153362 0.250000
O O6 0.357203 0.197755 0.289112
O O7 0.390922 0.000000 0.250000
O O8 0.843286 0.143927 0.859828
O O9 0.688072 0.155731 0.879038
O O10 0.786137 0.077782 0.947700
O O11 0.000000 0.500000 0.390006
O O12 0.965363 0.700440 0.358532
O O13 0.973340 0.667579 0.449990
O O14 0.750000 0.250000 0.000000
O O15 0.848530 0.415787 0.000000
O O16 0.000000 0.500000 0.500000
#
# Coordination Sequence:
#
# PCOD9495264 Si02
#       7
#    16  16  16  16  16   8   8
#     4  12  26  40  58  88 129 165 202 251 308 373
#     4  11  21  36  63  91 118 159 204 250 306 365
#     4  11  22  37  58  95 128 153 201 263 310 354
#     4  11  18  37  58  85 115 154 204 251 299 354
#     4  11  20  35  61  87 122 153 198 255 304 354
#     4  12  18  34  62  97 122 153 202 267 317 348
#     4  10  18  28  54  85 112 147 194 249 298 352
#
# _framework density 18.157844000000001
#
# number of rings (size 3 to 8) (size 9 to 14) (size 15 to 20)
#    0.000    0.833    8.333    1.000    2.333    0.000 
#    0.000    2.500    0.000    1.000    0.000    3.500 
#    0.000    0.000    0.000    0.000    0.000    0.000 
#
# Total GULP energy -267739.191481 kJ/mol
# GULP energy per Si atom -5577.899823 kJ/mol
# Density = 1.811652 g / cm^3
# Si number density = 18.157844 Si / 1000 Ang^3
#
#
#
# Elastic Constant Matrix: (Units=GPa)
#
#
# Indices 1 2 3 4 5 6 
#
# 1 81.2938 55.4145 12.1287 0.0000 0.0000 0.0000
# 2 55.4145 97.4070 25.5278 0.0000 0.0000 0.0000
# 3 12.1287 25.5278 117.9028 0.0000 0.0000 0.0000
# 4 0.0000 0.0000 0.0000 -2.9704 0.0000 0.0000
# 5 0.0000 0.0000 0.0000 0.0000 9.3728 0.0000
# 6 0.0000 0.0000 0.0000 0.0000 0.0000 31.7890
#
#
#
# Elastic Compliance Matrix: (Units=1/GPa)
#
#
# Indices 1 2 3 4 5 6 
#
# 1 0.020114 -0.011556 0.000433 0.000000 0.000000 0.000000
# 2 -0.011556 0.017523 -0.002605 0.000000 0.000000 0.000000
# 3 0.000433 -0.002605 0.009001 0.000000 0.000000 0.000000
# 4 0.000000 0.000000 0.000000 -0.336651 0.000000 0.000000
# 5 0.000000 0.000000 0.000000 0.000000 0.106692 0.000000
# 6 0.000000 0.000000 0.000000 0.000000 0.000000 0.031457
#
#
# Mechanical properties :
#
#
# Convention : Reuss Voigt Hill
#
# Bulk Modulus (GPa) = 52.13425 53.63841 52.88633
# Shear Modulus (GPa) = -42.36818 21.20710 -10.58054
#
# Velocity S-wave (km/s) = -4.83569 3.42121 -2.41653
# Velocity P-wave (km/s) = 1.55066 6.72387 4.62633
#
# Compressibility (1/GPa) = 0.01918125
#
# Stress axis : x y z
#
# Youngs Moduli (GPa) = 49.71710 57.06710 111.09743
#
# Poissons Ratio (x) = 0.65948 -0.04810
# Poissons Ratio (y) = 0.57454 0.28944
# Poissons Ratio (z) = -0.02153 0.14868
#
# Static dielectric constant tensor:
#      x y z
#    x 1.630000 0.000000 0.000000 
#    y 0.000000 1.598490 0.000000 
#    z 0.000000 0.000000 1.736400 
# 
# From -- ./inp_files/65237.got.cif
#   From: 2010.05.17/outbox.cif.g08.bks.cpg/sg66_33_cif.got.tgz:65237.got - 2010.06.03 17:51:23.
