data_PCOD9495751
_publ_section_title
;
Structure prediction by ZEFSAII (Michael W. Deem and Ramdas Pophale) SiO2 
 PCOD9495751
Probable space group: C C C M
;
_chemical_formula_sum "Si O2"
_cell_formula_units_Z 112
_cell_length_a 22.390018
_cell_length_b 17.883279
_cell_length_c 17.618542
_cell_angle_alpha 90.000000
_cell_angle_beta 90.000000
_cell_angle_gamma 90.000000
_cell_volume 7054.586467
_symmetry_space_group_name_H-M "C C C M"
_symmetry_group_IT_number 66
_symmetry_cell_setting 'orthorhombic'
loop_
_space_group_symop_operation_xyz
x,y,z
-x,-y,z
x,-y,1/2-z
-x,y,1/2-z
-x,-y,-z
x,y,-z
-x,y,1/2+z
x,-y,1/2+z
1/2+x,1/2+y,z
1/2-x,1/2-y,z
1/2+x,1/2-y,1/2-z
1/2-x,1/2+y,1/2-z
1/2-x,1/2-y,-z
1/2+x,1/2+y,-z
1/2-x,1/2+y,1/2+z
1/2+x,1/2-y,1/2+z
loop_
_atom_site_type_symbol
_atom_site_label
_atom_site_fract_x
_atom_site_fract_y
_atom_site_fract_z
Si Si1 0.625912 0.832642 0.366539
Si Si2 0.123523 0.624134 0.410491
Si Si3 0.709333 0.434858 0.797271
Si Si4 0.205575 0.320237 0.782583
Si Si5 0.691115 0.697060 0.586690
Si Si6 0.999019 0.412129 0.158556
Si Si7 0.304288 0.023616 0.584820
O O1 0.654502 0.820260 0.282771
O O2 0.635846 0.753953 0.407310
O O3 0.560458 0.867817 0.364933
O O4 0.666951 0.894784 0.406925
O O5 0.123829 0.641017 0.500000
O O6 0.170878 0.671271 0.361669
O O7 0.057471 0.626870 0.375898
O O8 0.145929 0.538576 0.399574
O O9 0.675223 0.500000 0.750000
O O10 0.752258 0.389654 0.739814
O O11 0.683423 0.369026 0.851756
O O12 0.751859 0.478833 0.855325
O O13 0.250000 0.250000 0.781321
O O14 0.698056 0.669568 0.500000
O O15 0.750000 0.750000 0.603025
O O16 0.000000 0.500000 0.134708
O O17 0.000000 0.411537 0.250000
O O18 0.282199 0.011142 0.500000
#
# Coordination Sequence:
#
# PCOD9495751 Si02
#       7
#    16  16  16  16  16  16  16
#     4  11  19  32  53  73 104 144 180 227 272 321
#     4  11  23  35  48  72 105 146 191 228 260 312
#     4  11  19  30  50  74  99 138 178 226 279 339
#     4  11  20  35  52  72  99 137 186 227 271 330
#     4  11  20  31  50  78 106 138 182 238 294 333
#     4  11  22  33  52  75 107 149 189 223 257 315
#     4  10  19  29  45  70 103 139 179 225 269 311
#
# _framework density 15.876196
#
# number of rings (size 3 to 8) (size 9 to 14) (size 15 to 20)
#    0.000    1.143    8.571    0.857    0.000    1.714 
#    0.000    0.000    0.000    0.000    0.000    0.000 
#    0.000    5.143    0.000    6.429    0.000    0.143 
#
# Total GULP energy -312001.124738 kJ/mol
# GULP energy per Si atom -5571.448656 kJ/mol
# Density = 1.584006 g / cm^3
# Si number density = 15.876196 Si / 1000 Ang^3
#
#
#
# Elastic Constant Matrix: (Units=GPa)
#
#
# Indices 1 2 3 4 5 6 
#
# 1 66.3668 39.4095 28.9341 0.0000 0.0000 0.0000
# 2 39.4095 76.9919 39.1747 0.0000 0.0000 0.0000
# 3 28.9341 39.1747 72.8241 0.0000 0.0000 0.0000
# 4 0.0000 0.0000 0.0000 25.2543 0.0000 0.0000
# 5 0.0000 0.0000 0.0000 0.0000 15.2869 0.0000
# 6 0.0000 0.0000 0.0000 0.0000 0.0000 27.5296
#
#
#
# Elastic Compliance Matrix: (Units=1/GPa)
#
#
# Indices 1 2 3 4 5 6 
#
# 1 0.022370 -0.009539 -0.003757 0.000000 0.000000 0.000000
# 2 -0.009539 0.021951 -0.008018 0.000000 0.000000 0.000000
# 3 -0.003757 -0.008018 0.019538 0.000000 0.000000 0.000000
# 4 0.000000 0.000000 0.000000 0.039597 0.000000 0.000000
# 5 0.000000 0.000000 0.000000 0.000000 0.065415 0.000000
# 6 0.000000 0.000000 0.000000 0.000000 0.000000 0.036325
#
#
# Mechanical properties :
#
#
# Convention : Reuss Voigt Hill
#
# Bulk Modulus (GPa) = 47.10121 47.91325 47.50723
# Shear Modulus (GPa) = 19.61555 20.85846 20.23701
#
# Velocity S-wave (km/s) = 3.51883 3.62860 3.57413
# Velocity P-wave (km/s) = 6.80013 6.91379 6.85719
#
# Compressibility (1/GPa) = 0.02123087
#
# Stress axis : x y z
#
# Youngs Moduli (GPa) = 44.70293 45.55633 51.18360
#
# Poissons Ratio (x) = 0.43456 0.19227
# Poissons Ratio (y) = 0.42642 0.41040
# Poissons Ratio (z) = 0.16793 0.36528
#
# Static dielectric constant tensor:
#      x y z
#    x 1.520850 0.000000 0.000000 
#    y 0.000000 1.564640 0.000000 
#    z 0.000000 0.000000 1.576820 
# 
# From -- ./inp_files/43049.got.cif
#   From: 2010.05.17/outbox.cif.g08.bks.cpg/sg66_22_cif.got.tgz:43049.got - 2010.06.03 17:51:23.
