data_PCOD9495337
_publ_section_title
;
Structure prediction by ZEFSAII (Michael W. Deem and Ramdas Pophale) SiO2 
 PCOD9495337
Probable space group: C C C M
;
_chemical_formula_sum "Si O2"
_cell_formula_units_Z 96
_cell_length_a 20.412215
_cell_length_b 30.484194
_cell_length_c 9.165453
_cell_angle_alpha 90.000000
_cell_angle_beta 90.000000
_cell_angle_gamma 90.000000
_cell_volume 5703.202415
_symmetry_space_group_name_H-M "C C C M"
_symmetry_group_IT_number 66
_symmetry_cell_setting 'orthorhombic'
loop_
_space_group_symop_operation_xyz
x,y,z
-x,-y,z
x,-y,1/2-z
-x,y,1/2-z
-x,-y,-z
x,y,-z
-x,y,1/2+z
x,-y,1/2+z
1/2+x,1/2+y,z
1/2-x,1/2-y,z
1/2+x,1/2-y,1/2-z
1/2-x,1/2+y,1/2-z
1/2-x,1/2-y,-z
1/2+x,1/2+y,-z
1/2-x,1/2+y,1/2+z
1/2+x,1/2-y,1/2+z
loop_
_atom_site_type_symbol
_atom_site_label
_atom_site_fract_x
_atom_site_fract_y
_atom_site_fract_z
Si Si1 0.603196 0.367485 0.670830
Si Si2 0.066686 0.231242 0.824227
Si Si3 0.596991 0.544104 0.666461
Si Si4 0.243180 0.455966 0.668221
Si Si5 0.261094 0.866765 0.327841
Si Si6 0.813925 0.280858 0.171601
O O1 0.589778 0.375017 0.500000
O O2 0.574966 0.320383 0.714249
O O3 0.579249 0.409816 0.759027
O O4 0.682043 0.363102 0.687597
O O5 0.127480 0.257648 0.758047
O O6 0.000000 0.247122 0.750000
O O7 0.065400 0.234691 0.000000
O O8 0.576465 0.500000 0.750000
O O9 0.574534 0.542776 0.500000
O O10 0.676952 0.543820 0.667717
O O11 0.222087 0.500000 0.750000
O O12 0.222290 0.454991 0.500000
O O13 0.221165 0.413104 0.755507
O O14 0.275810 0.865651 0.500000
O O15 0.295216 0.827038 0.244011
O O16 0.750000 0.250000 0.183022
O O17 0.829721 0.285656 0.000000
#
# Coordination Sequence:
#
# PCOD9495337 Si02
#       6
#    16  16  16  16  16  16
#     4   9  18  31  48  69  96 129 167 209 257 308
#     4  11  23  39  56  76 103 137 174 216 264 316
#     4   9  16  25  41  64  92 124 162 206 254 304
#     4   9  16  26  40  64  98 134 168 205 253 306
#     4  10  18  30  49  73 101 134 172 213 259 309
#     4  11  22  35  54  79 106 136 174 219 263 312
#
# _framework density 16.832647999999999
#
# number of rings (size 3 to 8) (size 9 to 14) (size 15 to 20)
#    0.000    2.167    1.667    2.500    0.000    6.667 
#    0.000    0.000    0.000    0.500    0.000    3.500 
#    0.000    0.667    0.000    6.667    0.000    4.333 
#
# Total GULP energy -267986.126631 kJ/mol
# GULP energy per Si atom -5583.044305 kJ/mol
# Density = 1.679434 g / cm^3
# Si number density = 16.832648 Si / 1000 Ang^3
#
#
#
# Elastic Constant Matrix: (Units=GPa)
#
#
# Indices 1 2 3 4 5 6 
#
# 1 51.4676 40.8588 44.6091 0.0000 0.0000 0.0000
# 2 40.8588 145.8854 84.6626 0.0000 0.0000 0.0000
# 3 44.6091 84.6626 120.4513 0.0000 0.0000 0.0000
# 4 0.0000 0.0000 0.0000 35.5582 0.0000 0.0000
# 5 0.0000 0.0000 0.0000 0.0000 4.7435 0.0000
# 6 0.0000 0.0000 0.0000 0.0000 0.0000 -1.5566
#
#
#
# Elastic Compliance Matrix: (Units=1/GPa)
#
#
# Indices 1 2 3 4 5 6 
#
# 1 0.029498 -0.003246 -0.008643 0.000000 0.000000 0.000000
# 2 -0.003246 0.011934 -0.007186 0.000000 0.000000 0.000000
# 3 -0.008643 -0.007186 0.016554 0.000000 0.000000 0.000000
# 4 0.000000 0.000000 0.000000 0.028123 0.000000 0.000000
# 5 0.000000 0.000000 0.000000 0.000000 0.210815 0.000000
# 6 0.000000 0.000000 0.000000 0.000000 0.000000 -0.642437
#
#
# Mechanical properties :
#
#
# Convention : Reuss Voigt Hill
#
# Bulk Modulus (GPa) = 50.41351 73.11835 61.76593
# Shear Modulus (GPa) = -16.62503 17.59395 0.48446
#
# Velocity S-wave (km/s) = -3.14612 3.23651 0.53706
# Velocity P-wave (km/s) = 4.10090 7.58283 6.09577
#
# Compressibility (1/GPa) = 0.01983595
#
# Stress axis : x y z
#
# Youngs Moduli (GPa) = 33.90091 83.79323 60.40773
#
# Poissons Ratio (x) = 0.27196 0.52212
# Poissons Ratio (y) = 0.11003 0.43410
# Poissons Ratio (z) = 0.29301 0.60216
#
# Static dielectric constant tensor:
#      x y z
#    x 1.561600 0.000000 0.000000 
#    y 0.000000 1.551140 0.000000 
#    z 0.000000 0.000000 1.562990 
# 
# From -- ./inp_files/7951.got.cif
#   From: 2010.05.17/outbox.cif.g08.bks.cpg/sg66_4_cif.got.tgz:7951.got - 2010.06.03 17:51:23.
