data_PCOD9495313
_publ_section_title
;
Structure prediction by ZEFSAII (Michael W. Deem and Ramdas Pophale) SiO2 
 PCOD9495313
Probable space group: C C C M
;
_chemical_formula_sum "Si O2"
_cell_formula_units_Z 88
_cell_length_a 28.085666
_cell_length_b 20.166037
_cell_length_c 10.080707
_cell_angle_alpha 90.000000
_cell_angle_beta 90.000000
_cell_angle_gamma 90.000000
_cell_volume 5709.476352
_symmetry_space_group_name_H-M "C C C M"
_symmetry_group_IT_number 66
_symmetry_cell_setting 'orthorhombic'
loop_
_space_group_symop_operation_xyz
x,y,z
-x,-y,z
x,-y,1/2-z
-x,y,1/2-z
-x,-y,-z
x,y,-z
-x,y,1/2+z
x,-y,1/2+z
1/2+x,1/2+y,z
1/2-x,1/2-y,z
1/2+x,1/2-y,1/2-z
1/2-x,1/2+y,1/2-z
1/2-x,1/2-y,-z
1/2+x,1/2+y,-z
1/2-x,1/2+y,1/2+z
1/2+x,1/2-y,1/2+z
loop_
_atom_site_type_symbol
_atom_site_label
_atom_site_fract_x
_atom_site_fract_y
_atom_site_fract_z
Si Si1 0.326321 0.413373 0.643216
Si Si2 0.700125 0.790054 0.343347
Si Si3 0.957317 0.868342 0.151988
Si Si4 0.144105 0.196812 0.156527
Si Si5 0.217751 0.555424 0.850167
Si Si6 0.406817 0.500000 0.750000
O O1 0.328323 0.377106 0.500000
O O2 0.331273 0.365223 0.768457
O O3 0.275355 0.447890 0.647329
O O4 0.370234 0.463843 0.650562
O O5 0.687638 0.783769 0.500000
O O6 0.750000 0.750000 0.325317
O O7 0.662185 0.758641 0.242557
O O8 0.706944 0.868094 0.315581
O O9 0.912007 0.819726 0.167329
O O10 0.938128 0.942312 0.185214
O O11 0.000000 0.852056 0.250000
O O12 0.973386 0.866567 0.000000
O O13 0.155977 0.200865 0.000000
O O14 0.199528 0.500000 0.750000
O O15 0.200724 0.543296 0.000000
#
# Coordination Sequence:
#
# PCOD9495313 Si02
#       6
#    16  16  16  16  16   8
#     4  10  18  30  46  65  93 130 166 205 247 288
#     4  10  19  34  52  72  98 130 170 208 248 301
#     4  10  22  36  49  69  95 125 167 213 256 302
#     4  10  21  34  49  71  94 121 163 211 252 294
#     4  10  20  32  47  69  99 133 168 205 245 293
#     4  10  19  30  48  70  94 128 174 214 251 292
#
# _framework density 15.412972999999999
#
# number of rings (size 3 to 8) (size 9 to 14) (size 15 to 20)
#    0.000    2.000    2.727    1.364    0.000    7.636 
#    0.000    0.000    0.000    0.000    0.000    0.000 
#    0.000    0.727    0.000    8.000    0.000    5.818 
#
# Total GULP energy -245216.834216 kJ/mol
# GULP energy per Si atom -5573.109869 kJ/mol
# Density = 1.537789 g / cm^3
# Si number density = 15.412973 Si / 1000 Ang^3
#
#
#
# Elastic Constant Matrix: (Units=GPa)
#
#
# Indices 1 2 3 4 5 6 
#
# 1 42.7158 22.8835 50.7219 0.0000 0.0000 0.0000
# 2 22.8835 95.4181 69.0034 0.0000 0.0000 0.0000
# 3 50.7219 69.0034 134.4671 0.0000 0.0000 0.0000
# 4 0.0000 0.0000 0.0000 25.7769 0.0000 0.0000
# 5 0.0000 0.0000 0.0000 0.0000 16.2214 0.0000
# 6 0.0000 0.0000 0.0000 0.0000 0.0000 10.0686
#
#
#
# Elastic Compliance Matrix: (Units=1/GPa)
#
#
# Indices 1 2 3 4 5 6 
#
# 1 0.042702 0.002238 -0.017256 0.000000 0.000000 0.000000
# 2 0.002238 0.016782 -0.009456 0.000000 0.000000 0.000000
# 3 -0.017256 -0.009456 0.018798 0.000000 0.000000 0.000000
# 4 0.000000 0.000000 0.000000 0.038794 0.000000 0.000000
# 5 0.000000 0.000000 0.000000 0.000000 0.061647 0.000000
# 6 0.000000 0.000000 0.000000 0.000000 0.000000 0.099319
#
#
# Mechanical properties :
#
#
# Convention : Reuss Voigt Hill
#
# Bulk Modulus (GPa) = 34.09004 61.97984 48.03494
# Shear Modulus (GPa) = 14.84704 19.07951 16.96328
#
# Velocity S-wave (km/s) = 3.10705 3.52218 3.32110
# Velocity P-wave (km/s) = 5.91924 7.53930 6.77785
#
# Compressibility (1/GPa) = 0.02933408
#
# Stress axis : x y z
#
# Youngs Moduli (GPa) = 23.41834 59.58876 53.19664
#
# Poissons Ratio (x) = -0.13336 0.91795
# Poissons Ratio (y) = -0.05241 0.50302
# Poissons Ratio (z) = 0.40410 0.56347
#
# Static dielectric constant tensor:
#      x y z
#    x 1.500270 0.000000 0.000000 
#    y 0.000000 1.529030 0.000000 
#    z 0.000000 0.000000 1.538260 
# 
# From -- ./inp_files/11490.got.cif
#   From: 2010.05.17/outbox.cif.g08.bks.cpg/sg66_6_cif.got.tgz:11490.got - 2010.06.03 17:51:23.
