data_PCOD9495286
_publ_section_title
;
Structure prediction by ZEFSAII (Michael W. Deem and Ramdas Pophale) SiO2 
 PCOD9495286
Probable space group: C C C M
;
_chemical_formula_sum "Si O2"
_cell_formula_units_Z 116
_cell_length_a 27.163275
_cell_length_b 27.469438
_cell_length_c 9.321248
_cell_angle_alpha 90.000000
_cell_angle_beta 90.000000
_cell_angle_gamma 90.000000
_cell_volume 6955.141461
_symmetry_space_group_name_H-M "C C C M"
_symmetry_group_IT_number 66
_symmetry_cell_setting 'orthorhombic'
loop_
_space_group_symop_operation_xyz
x,y,z
-x,-y,z
x,-y,1/2-z
-x,y,1/2-z
-x,-y,-z
x,y,-z
-x,y,1/2+z
x,-y,1/2+z
1/2+x,1/2+y,z
1/2-x,1/2-y,z
1/2+x,1/2-y,1/2-z
1/2-x,1/2+y,1/2-z
1/2-x,1/2-y,-z
1/2+x,1/2+y,-z
1/2-x,1/2+y,1/2+z
1/2+x,1/2-y,1/2+z
loop_
_atom_site_type_symbol
_atom_site_label
_atom_site_fract_x
_atom_site_fract_y
_atom_site_fract_z
Si Si1 0.156225 0.687099 0.670900
Si Si2 0.577577 0.579908 0.664252
Si Si3 0.000000 0.000000 0.750000
Si Si4 0.429059 0.688590 0.165047
Si Si5 0.175865 0.949510 0.328256
Si Si6 0.047824 0.713174 0.329071
Si Si7 0.816014 0.784585 0.665621
Si Si8 0.748579 0.637821 0.170599
O O1 0.158246 0.696924 0.500000
O O2 0.098452 0.684894 0.707853
O O3 0.177362 0.733582 0.754329
O O4 0.193036 0.642314 0.700357
O O5 0.595906 0.583115 0.500000
O O6 0.537021 0.537290 0.670899
O O7 0.556308 0.633381 0.700673
O O8 0.623126 0.568506 0.768224
O O9 0.445741 0.731474 0.270280
O O10 0.369638 0.690015 0.169898
O O11 0.444065 0.699792 0.000000
O O12 0.172756 0.955305 0.500000
O O13 0.219070 0.911116 0.294020
O O14 0.186182 0.000000 0.250000
O O15 0.041700 0.713482 0.500000
O O16 0.000000 0.692746 0.250000
O O17 0.802863 0.777370 0.500000
O O18 0.777916 0.818870 0.745438
O O19 0.741986 0.645562 0.000000
#
# Coordination Sequence:
#
# PCOD9495286 Si02
#       8
#    16  16   4  16  16  16  16  16
#     4   9  19  34  50  71 102 135 168 202 240 297
#     4  11  23  40  55  71  96 125 165 219 270 309
#     4  12  26  36  56  78  90 124 174 228 272 304
#     4   9  19  34  50  69  96 129 165 209 253 301
#     4  11  23  38  58  77  98 129 167 210 259 312
#     4  10  20  34  52  73  99 134 168 203 244 291
#     4  10  18  29  48  75 103 130 161 202 251 298
#     4  10  20  34  52  74  99 132 168 202 247 305
#
# _framework density 16.678308000000001
#
# number of rings (size 3 to 8) (size 9 to 14) (size 15 to 20)
#    0.000    1.931    2.069    1.862    0.966    4.966 
#    0.000    0.000    0.000    0.000    0.000    0.000 
#    0.000    0.552    0.000    6.897    0.000    0.000 
#
# Total GULP energy -323515.700898 kJ/mol
# GULP energy per Si atom -5577.856912 kJ/mol
# Density = 1.664035 g / cm^3
# Si number density = 16.678308 Si / 1000 Ang^3
#
#
#
# Elastic Constant Matrix: (Units=GPa)
#
#
# Indices 1 2 3 4 5 6 
#
# 1 125.4548 49.1714 50.4469 0.0000 0.0000 0.0000
# 2 49.1714 46.3082 27.4306 0.0000 0.0000 0.0000
# 3 50.4469 27.4306 49.2248 0.0000 0.0000 0.0000
# 4 0.0000 0.0000 0.0000 11.1429 0.0000 0.0000
# 5 0.0000 0.0000 0.0000 0.0000 20.0305 0.0000
# 6 0.0000 0.0000 0.0000 0.0000 0.0000 17.4394
#
#
#
# Elastic Compliance Matrix: (Units=1/GPa)
#
#
# Indices 1 2 3 4 5 6 
#
# 1 0.016818 -0.011417 -0.010874 0.000000 0.000000 0.000000
# 2 -0.011417 0.039985 -0.010581 0.000000 0.000000 0.000000
# 3 -0.010874 -0.010581 0.037355 0.000000 0.000000 0.000000
# 4 0.000000 0.000000 0.000000 0.089743 0.000000 0.000000
# 5 0.000000 0.000000 0.000000 0.000000 0.049924 0.000000
# 6 0.000000 0.000000 0.000000 0.000000 0.000000 0.057341
#
#
# Mechanical properties :
#
#
# Convention : Reuss Voigt Hill
#
# Bulk Modulus (GPa) = 35.19327 52.78728 43.99028
# Shear Modulus (GPa) = 13.64694 15.98517 14.81606
#
# Velocity S-wave (km/s) = 2.86360 3.09923 2.98374
# Velocity P-wave (km/s) = 5.66398 6.67277 6.18897
#
# Compressibility (1/GPa) = 0.02841452
#
# Stress axis : x y z
#
# Youngs Moduli (GPa) = 59.45894 25.00912 26.77029
#
# Poissons Ratio (x) = 0.28554 0.29109
# Poissons Ratio (y) = 0.67886 0.28326
# Poissons Ratio (z) = 0.64653 0.26463
#
# Static dielectric constant tensor:
#      x y z
#    x 1.618460 0.000000 0.000000 
#    y 0.000000 1.550880 0.000000 
#    z 0.000000 0.000000 1.560620 
# 
# From -- ./inp_files/10909.got.cif
#   From: 2010.05.17/outbox.cif.g08.bks.cpg/sg66_6_cif.got.tgz:10909.got - 2010.06.03 17:51:23.
