data_PCOD9495543
_publ_section_title
;
Structure prediction by ZEFSAII (Michael W. Deem and Ramdas Pophale) SiO2 
 PCOD9495543
Probable space group: C C C M
;
_chemical_formula_sum "Si O2"
_cell_formula_units_Z 104
_cell_length_a 17.314331
_cell_length_b 13.006352
_cell_length_c 26.757962
_cell_angle_alpha 90.000000
_cell_angle_beta 90.000000
_cell_angle_gamma 90.000000
_cell_volume 6025.793600
_symmetry_space_group_name_H-M "C C C M"
_symmetry_group_IT_number 66
_symmetry_cell_setting 'orthorhombic'
loop_
_space_group_symop_operation_xyz
x,y,z
-x,-y,z
x,-y,1/2-z
-x,y,1/2-z
-x,-y,-z
x,y,-z
-x,y,1/2+z
x,-y,1/2+z
1/2+x,1/2+y,z
1/2-x,1/2-y,z
1/2+x,1/2-y,1/2-z
1/2-x,1/2+y,1/2-z
1/2-x,1/2-y,-z
1/2+x,1/2+y,-z
1/2-x,1/2+y,1/2+z
1/2+x,1/2-y,1/2+z
loop_
_atom_site_type_symbol
_atom_site_label
_atom_site_fract_x
_atom_site_fract_y
_atom_site_fract_z
Si Si1 0.791512 0.358749 0.819985
Si Si2 0.708299 0.024993 0.396138
Si Si3 0.686502 0.500000 0.250000
Si Si4 0.923700 0.688071 0.890311
Si Si5 0.970254 0.381019 0.803241
Si Si6 0.312472 0.332070 0.824575
Si Si7 0.113845 0.253211 0.000000
Si Si8 0.240691 0.912612 0.500000
O O1 0.750000 0.250000 0.821199
O O2 0.795297 0.412663 0.873681
O O3 0.740773 0.433756 0.785937
O O4 0.878910 0.364498 0.800885
O O5 0.625432 0.082031 0.394826
O O6 0.761843 0.097915 0.361781
O O7 0.745519 0.024919 0.450184
O O8 0.649108 0.589487 0.215320
O O9 0.871125 0.767882 0.858671
O O10 0.930994 0.727490 0.947697
O O11 0.996106 0.668593 0.854052
O O12 0.000000 0.500000 0.804529
O O13 0.000000 0.338038 0.750000
O O14 0.250000 0.250000 0.801737
O O15 0.158436 0.144432 0.000000
O O16 0.188091 0.330331 0.000000
#
# Coordination Sequence:
#
# PCOD9495543 Si02
#       8
#    16  16   8  16  16  16   8   8
#     4  11  23  37  55  82 115 153 196 232 282 355
#     4   9  17  31  52  83 113 143 182 240 283 339
#     4  10  20  32  53  77 106 140 192 230 274 322
#     4  10  18  33  55  84 117 141 190 235 300 339
#     4  11  23  37  56  80 119 157 190 235 293 352
#     4   9  17  27  50  78 108 141 178 231 280 335
#     4   9  16  28  54  88 112 144 181 256 294 337
#     4   9  14  28  52  87 116 137 189 240 301 332
#
# _framework density 17.259138
#
# number of rings (size 3 to 8) (size 9 to 14) (size 15 to 20)
#    0.000    2.154    3.077    1.385    6.462    0.000 
#    0.000    1.538    0.000    4.615    0.000    1.077 
#    0.000    0.000    0.000    0.000    0.000    0.000 
#
# Total GULP energy -289469.354933 kJ/mol
# GULP energy per Si atom -5566.718364 kJ/mol
# Density = 1.721986 g / cm^3
# Si number density = 17.259138 Si / 1000 Ang^3
#
#
#
# Elastic Constant Matrix: (Units=GPa)
#
#
# Indices 1 2 3 4 5 6 
#
# 1 31.2436 19.2782 7.2452 0.0000 0.0000 0.0000
# 2 19.2782 89.2811 38.2272 0.0000 0.0000 0.0000
# 3 7.2452 38.2272 121.6746 0.0000 0.0000 0.0000
# 4 0.0000 0.0000 0.0000 14.2017 0.0000 0.0000
# 5 0.0000 0.0000 0.0000 0.0000 3.3608 0.0000
# 6 0.0000 0.0000 0.0000 0.0000 0.0000 10.7719
#
#
#
# Elastic Compliance Matrix: (Units=1/GPa)
#
#
# Indices 1 2 3 4 5 6 
#
# 1 0.036940 -0.008128 0.000354 0.000000 0.000000 0.000000
# 2 -0.008128 0.014730 -0.004144 0.000000 0.000000 0.000000
# 3 0.000354 -0.004144 0.009499 0.000000 0.000000 0.000000
# 4 0.000000 0.000000 0.000000 0.070414 0.000000 0.000000
# 5 0.000000 0.000000 0.000000 0.000000 0.297552 0.000000
# 6 0.000000 0.000000 0.000000 0.000000 0.000000 0.092834
#
#
# Mechanical properties :
#
#
# Convention : Reuss Voigt Hill
#
# Bulk Modulus (GPa) = 26.78552 41.30005 34.04279
# Shear Modulus (GPa) = 8.95659 17.49680 13.22669
#
# Velocity S-wave (km/s) = 2.28051 3.18743 2.77132
# Velocity P-wave (km/s) = 4.74211 6.12598 5.47792
#
# Compressibility (1/GPa) = 0.03733360
#
# Stress axis : x y z
#
# Youngs Moduli (GPa) = 27.07123 67.88951 105.26941
#
# Poissons Ratio (x) = 0.55179 -0.03726
# Poissons Ratio (y) = 0.22003 0.43621
# Poissons Ratio (z) = -0.00958 0.28132
#
# Static dielectric constant tensor:
#      x y z
#    x 1.585950 0.000000 0.000000 
#    y 0.000000 1.590670 0.000000 
#    z 0.000000 0.000000 1.623080 
# 
# From -- ./inp_files/65322.got.cif
#   From: 2010.05.17/outbox.cif.g08.bks.cpg/sg66_33_cif.got.tgz:65322.got - 2010.06.03 17:51:23.
