data_PCOD9495755
_publ_section_title
;
Structure prediction by ZEFSAII (Michael W. Deem and Ramdas Pophale) SiO2 
 PCOD9495755
Probable space group: C C C M
;
_chemical_formula_sum "Si O2"
_cell_formula_units_Z 96
_cell_length_a 9.277078
_cell_length_b 25.442369
_cell_length_c 23.236714
_cell_angle_alpha 90.000000
_cell_angle_beta 90.000000
_cell_angle_gamma 90.000000
_cell_volume 5484.581164
_symmetry_space_group_name_H-M "C C C M"
_symmetry_group_IT_number 66
_symmetry_cell_setting 'orthorhombic'
loop_
_space_group_symop_operation_xyz
x,y,z
-x,-y,z
x,-y,1/2-z
-x,y,1/2-z
-x,-y,-z
x,y,-z
-x,y,1/2+z
x,-y,1/2+z
1/2+x,1/2+y,z
1/2-x,1/2-y,z
1/2+x,1/2-y,1/2-z
1/2-x,1/2+y,1/2-z
1/2-x,1/2-y,-z
1/2+x,1/2+y,-z
1/2-x,1/2+y,1/2+z
1/2+x,1/2-y,1/2+z
loop_
_atom_site_type_symbol
_atom_site_label
_atom_site_fract_x
_atom_site_fract_y
_atom_site_fract_z
Si Si1 0.040566 0.560480 0.932989
Si Si2 0.535335 0.335790 0.648421
Si Si3 0.534405 0.215149 0.376224
Si Si4 0.295481 0.136707 0.649363
Si Si5 0.229834 0.637293 0.564103
Si Si6 0.724753 0.808938 0.763469
O O1 0.145201 0.586035 0.884841
O O2 0.000000 0.500000 0.923022
O O3 0.892655 0.593444 0.929168
O O4 0.093109 0.565963 0.000000
O O5 0.521424 0.277170 0.622410
O O6 0.376567 0.359067 0.648777
O O7 0.642299 0.368842 0.608769
O O8 0.625540 0.327236 0.707300
O O9 0.383133 0.184878 0.380324
O O10 0.644819 0.191281 0.422234
O O11 0.611965 0.200254 0.315279
O O12 0.326300 0.148729 0.716916
O O13 0.286851 0.636972 0.500000
O O14 0.750000 0.750000 0.737160
#
# Coordination Sequence:
#
# PCOD9495755 Si02
#       6
#    16  16  16  16  16  16
#     4   9  20  40  59  72  90 122 170 224 270 311
#     4  10  19  29  46  78 113 138 162 197 244 297
#     4   9  18  30  47  73 107 145 174 194 228 289
#     4  11  19  29  51  77  99 127 171 215 246 285
#     4   9  18  33  52  71  96 134 171 202 247 303
#     4   9  17  30  48  73 108 145 170 190 233 301
#
# _framework density 17.503616000000001
#
# number of rings (size 3 to 8) (size 9 to 14) (size 15 to 20)
#    0.000    2.500    0.000    4.000    0.000    4.667 
#    0.000    0.833    0.000   28.500    0.000    9.333 
#    0.000    0.000    0.000    0.000    0.000    0.000 
#
# Total GULP energy -267360.083749 kJ/mol
# GULP energy per Si atom -5570.001745 kJ/mol
# Density = 1.746378 g / cm^3
# Si number density = 17.503616 Si / 1000 Ang^3
#
#
#
# Elastic Constant Matrix: (Units=GPa)
#
#
# Indices 1 2 3 4 5 6 
#
# 1 91.3981 17.6447 32.7616 0.0000 0.0000 0.0000
# 2 17.6447 84.2761 45.4540 0.0000 0.0000 0.0000
# 3 32.7616 45.4540 73.6322 0.0000 0.0000 0.0000
# 4 0.0000 0.0000 0.0000 11.9315 0.0000 0.0000
# 5 0.0000 0.0000 0.0000 0.0000 23.0444 0.0000
# 6 0.0000 0.0000 0.0000 0.0000 0.0000 10.3380
#
#
#
# Elastic Compliance Matrix: (Units=1/GPa)
#
#
# Indices 1 2 3 4 5 6 
#
# 1 0.013037 0.000598 -0.006170 0.000000 0.000000 0.000000
# 2 0.000598 0.017816 -0.011264 0.000000 0.000000 0.000000
# 3 -0.006170 -0.011264 0.023280 0.000000 0.000000 0.000000
# 4 0.000000 0.000000 0.000000 0.083812 0.000000 0.000000
# 5 0.000000 0.000000 0.000000 0.000000 0.043395 0.000000
# 6 0.000000 0.000000 0.000000 0.000000 0.000000 0.096731
#
#
# Mechanical properties :
#
#
# Convention : Reuss Voigt Hill
#
# Bulk Modulus (GPa) = 48.87342 49.00299 48.93820
# Shear Modulus (GPa) = 15.69554 19.29251 17.49403
#
# Velocity S-wave (km/s) = 2.99775 3.32354 3.16484
# Velocity P-wave (km/s) = 6.32175 6.54100 6.43231
#
# Compressibility (1/GPa) = 0.02046102
#
# Stress axis : x y z
#
# Youngs Moduli (GPa) = 76.70295 56.13024 42.95593
#
# Poissons Ratio (x) = -0.03358 0.26504
# Poissons Ratio (y) = -0.04588 0.48386
# Poissons Ratio (z) = 0.47326 0.63225
#
# Static dielectric constant tensor:
#      x y z
#    x 1.620930 0.000000 0.000000 
#    y 0.000000 1.577740 0.000000 
#    z 0.000000 0.000000 1.643060 
# 
# From -- ./inp_files/55612.got.cif
#   From: 2010.05.17/outbox.cif.g08.bks.cpg/sg66_28_cif.got.tgz:55612.got - 2010.06.03 17:51:23.
