data_PCOD9495287
_publ_section_title
;
Structure prediction by ZEFSAII (Michael W. Deem and Ramdas Pophale) SiO2 
 PCOD9495287
Probable space group: C C C M
;
_chemical_formula_sum "Si O2"
_cell_formula_units_Z 96
_cell_length_a 23.776221
_cell_length_b 26.513207
_cell_length_c 8.470674
_cell_angle_alpha 90.000000
_cell_angle_beta 90.000000
_cell_angle_gamma 90.000000
_cell_volume 5339.776250
_symmetry_space_group_name_H-M "C C C M"
_symmetry_group_IT_number 66
_symmetry_cell_setting 'orthorhombic'
loop_
_space_group_symop_operation_xyz
x,y,z
-x,-y,z
x,-y,1/2-z
-x,y,1/2-z
-x,-y,-z
x,y,-z
-x,y,1/2+z
x,-y,1/2+z
1/2+x,1/2+y,z
1/2-x,1/2-y,z
1/2+x,1/2-y,1/2-z
1/2-x,1/2+y,1/2-z
1/2-x,1/2-y,-z
1/2+x,1/2+y,-z
1/2-x,1/2+y,1/2+z
1/2+x,1/2-y,1/2+z
loop_
_atom_site_type_symbol
_atom_site_label
_atom_site_fract_x
_atom_site_fract_y
_atom_site_fract_z
Si Si1 0.753211 0.309732 0.825324
Si Si2 0.822176 0.943847 0.690505
Si Si3 0.305091 0.056085 0.190631
Si Si4 0.861304 0.346205 0.681870
Si Si5 0.874703 0.155284 0.184659
Si Si6 0.063235 0.253523 0.188924
O O1 0.750000 0.250000 0.827850
O O2 0.797820 0.325455 0.695594
O O3 0.690221 0.327978 0.803429
O O4 0.773074 0.327249 0.000000
O O5 0.820577 0.942827 0.500000
O O6 0.758450 0.931922 0.749336
O O7 0.868393 0.902393 0.743870
O O8 0.834965 0.000000 0.750000
O O9 0.351011 0.097353 0.247258
O O10 0.318002 0.000000 0.250000
O O11 0.303515 0.056845 0.000000
O O12 0.878545 0.352089 0.500000
O O13 0.900447 0.301777 0.751350
O O14 0.910742 0.199343 0.263522
O O15 0.890928 0.154192 0.000000
O O16 0.000000 0.257235 0.250000
O O17 0.064289 0.255855 0.000000
#
# Coordination Sequence:
#
# PCOD9495287 Si02
#       6
#    16  16  16  16  16  16
#     4  10  18  29  48  76 108 140 171 205 253 314
#     4  10  19  31  49  76 111 146 177 209 251 305
#     4  10  19  31  48  74 109 143 175 210 253 308
#     4  10  21  34  51  76 107 139 172 215 262 312
#     4  10  20  34  53  78 109 142 175 213 258 312
#     4  11  24  40  57  77 102 136 178 223 270 316
#
# _framework density 17.978282
#
# number of rings (size 3 to 8) (size 9 to 14) (size 15 to 20)
#    0.000    1.833    3.333    2.500    0.000    3.667 
#    0.000    0.000    0.000    1.000    0.000    7.000 
#    0.000    0.000    0.000    0.000    0.000    0.000 
#
# Total GULP energy -267320.404196 kJ/mol
# GULP energy per Si atom -5569.175087 kJ/mol
# Density = 1.793736 g / cm^3
# Si number density = 17.978282 Si / 1000 Ang^3
#
#
#
# Elastic Constant Matrix: (Units=GPa)
#
#
# Indices 1 2 3 4 5 6 
#
# 1 54.6148 55.1486 17.9229 0.0000 0.0000 0.0000
# 2 55.1486 149.6587 29.8481 0.0000 0.0000 0.0000
# 3 17.9229 29.8481 39.0521 0.0000 0.0000 0.0000
# 4 0.0000 0.0000 0.0000 2.8480 0.0000 0.0000
# 5 0.0000 0.0000 0.0000 0.0000 6.2572 0.0000
# 6 0.0000 0.0000 0.0000 0.0000 0.0000 9.2209
#
#
#
# Elastic Compliance Matrix: (Units=1/GPa)
#
#
# Indices 1 2 3 4 5 6 
#
# 1 0.030447 -0.009949 -0.006369 0.000000 0.000000 0.000000
# 2 -0.009949 0.011135 -0.003944 0.000000 0.000000 0.000000
# 3 -0.006369 -0.003944 0.031545 0.000000 0.000000 0.000000
# 4 0.000000 0.000000 0.000000 0.351119 0.000000 0.000000
# 5 0.000000 0.000000 0.000000 0.000000 0.159815 0.000000
# 6 0.000000 0.000000 0.000000 0.000000 0.000000 0.108449
#
#
# Mechanical properties :
#
#
# Convention : Reuss Voigt Hill
#
# Bulk Modulus (GPa) = 30.67410 49.90719 40.29065
# Shear Modulus (GPa) = 6.72133 13.02564 9.87348
#
# Velocity S-wave (km/s) = 1.93564 2.69461 2.34602
# Velocity P-wave (km/s) = 4.70047 6.12382 5.45874
#
# Compressibility (1/GPa) = 0.03260080
#
# Stress axis : x y z
#
# Youngs Moduli (GPa) = 32.84437 89.80888 31.70115
#
# Poissons Ratio (x) = 0.89352 0.20191
# Poissons Ratio (y) = 0.32677 0.12504
# Poissons Ratio (z) = 0.20919 0.35423
#
# Static dielectric constant tensor:
#      x y z
#    x 1.580390 0.000000 0.000000 
#    y 0.000000 1.723030 0.000000 
#    z 0.000000 0.000000 1.663330 
# 
# From -- ./inp_files/9299.got.cif
#   From: 2010.05.17/outbox.cif.g08.bks.cpg/sg66_5_cif.got.tgz:9299.got - 2010.06.03 17:51:23.
