data_PCOD9495915
_publ_section_title
;
Structure prediction by ZEFSAII (Michael W. Deem and Ramdas Pophale) SiO2 
 PCOD9495915
Probable space group: C C C M
;
_chemical_formula_sum "Si O2"
_cell_formula_units_Z 116
_cell_length_a 25.819971
_cell_length_b 25.721068
_cell_length_c 7.705099
_cell_angle_alpha 90.000000
_cell_angle_beta 90.000000
_cell_angle_gamma 90.000000
_cell_volume 5117.089004
_symmetry_space_group_name_H-M "C C C M"
_symmetry_group_IT_number 66
_symmetry_cell_setting 'orthorhombic'
loop_
_space_group_symop_operation_xyz
x,y,z
-x,-y,z
x,-y,1/2-z
-x,y,1/2-z
-x,-y,-z
x,y,-z
-x,y,1/2+z
x,-y,1/2+z
1/2+x,1/2+y,z
1/2-x,1/2-y,z
1/2+x,1/2-y,1/2-z
1/2-x,1/2+y,1/2-z
1/2-x,1/2-y,-z
1/2+x,1/2+y,-z
1/2-x,1/2+y,1/2+z
1/2+x,1/2-y,1/2+z
loop_
_atom_site_type_symbol
_atom_site_label
_atom_site_fract_x
_atom_site_fract_y
_atom_site_fract_z
Si Si1 0.865967 0.287454 0.712309
Si Si2 0.723604 0.144222 0.304913
Si Si3 0.059585 0.381841 0.794238
Si Si4 0.850052 0.442054 0.804102
Si Si5 0.941229 0.198893 0.292118
Si Si6 0.000000 0.000000 0.750000
Si Si7 0.920067 0.080476 0.712915
Si Si8 0.301203 0.440718 0.207710
O O1 0.862744 0.286556 0.500000
O O2 0.809038 0.307174 0.772295
O O3 0.907946 0.331327 0.762833
O O4 0.893567 0.234544 0.771706
O O5 0.740168 0.159853 0.500000
O O6 0.679152 0.099766 0.312894
O O7 0.769283 0.109374 0.222278
O O8 0.089149 0.430377 0.711104
O O9 0.000000 0.377451 0.750000
O O10 0.064511 0.386212 0.000000
O O11 0.838377 0.500000 0.750000
O O12 0.832831 0.432791 0.000000
O O13 0.937699 0.199979 0.500000
O O14 0.933359 0.139403 0.238313
O O15 0.000000 0.216675 0.250000
O O16 0.958107 0.957974 0.686934
O O17 0.927173 0.074421 0.500000
O O18 0.861126 0.066277 0.754369
O O19 0.284365 0.500000 0.250000
O O20 0.296589 0.436755 0.000000
#
# Coordination Sequence:
#
# PCOD9495915 Si02
#       8
#    16  16  16  16  16   4  16  16
#     4   8  16  31  52  75 102 136 174 221 273 323
#     4   9  18  34  54  75 102 136 175 223 276 327
#     4  10  19  32  48  70  98 131 172 218 273 331
#     4  11  21  33  49  70  97 131 172 219 272 330
#     4  10  19  34  54  79 110 143 184 227 272 327
#     4  12  18  36  56  78 120 152 182 228 274 324
#     4  10  21  34  53  82 114 148 183 224 274 329
#     4  10  20  35  54  79 110 143 184 228 274 329
#
# _framework density 22.669138
#
# number of rings (size 3 to 8) (size 9 to 14) (size 15 to 20)
#    0.000    2.207    1.379    3.517    0.000    1.931 
#    0.000    5.517    0.000    4.138    0.000    0.000 
#    0.000    6.621    0.000    0.000    0.000    0.000 
#
# Total GULP energy -323295.137202 kJ/mol
# GULP energy per Si atom -5574.054090 kJ/mol
# Density = 2.261754 g / cm^3
# Si number density = 22.669138 Si / 1000 Ang^3
#
#
#
# Elastic Constant Matrix: (Units=GPa)
#
#
# Indices 1 2 3 4 5 6 
#
# 1 149.5292 53.0802 7.2069 0.0000 0.0000 0.0000
# 2 53.0802 123.9985 8.6215 0.0000 0.0000 0.0000
# 3 7.2069 8.6215 63.1934 0.0000 0.0000 0.0000
# 4 0.0000 0.0000 0.0000 24.4490 0.0000 0.0000
# 5 0.0000 0.0000 0.0000 0.0000 11.4505 0.0000
# 6 0.0000 0.0000 0.0000 0.0000 0.0000 40.5542
#
#
#
# Elastic Compliance Matrix: (Units=1/GPa)
#
#
# Indices 1 2 3 4 5 6 
#
# 1 0.007898 -0.003350 -0.000444 0.000000 0.000000 0.000000
# 2 -0.003350 0.009563 -0.000923 0.000000 0.000000 0.000000
# 3 -0.000444 -0.000923 0.016001 0.000000 0.000000 0.000000
# 4 0.000000 0.000000 0.000000 0.040902 0.000000 0.000000
# 5 0.000000 0.000000 0.000000 0.000000 0.087332 0.000000
# 6 0.000000 0.000000 0.000000 0.000000 0.000000 0.024658
#
#
# Mechanical properties :
#
#
# Convention : Reuss Voigt Hill
#
# Bulk Modulus (GPa) = 41.61614 52.72647 47.17130
# Shear Modulus (GPa) = 24.53421 33.14490 28.83955
#
# Velocity S-wave (km/s) = 3.29336 3.82791 3.57065
# Velocity P-wave (km/s) = 5.73233 6.54575 6.15249
#
# Compressibility (1/GPa) = 0.02402914
#
# Stress axis : x y z
#
# Youngs Moduli (GPa) = 126.60953 104.57102 62.49642
#
# Poissons Ratio (x) = 0.35033 0.02773
# Poissons Ratio (y) = 0.42417 0.05766
# Poissons Ratio (z) = 0.05618 0.09648
#
# Static dielectric constant tensor:
#      x y z
#    x 1.867740 0.000000 0.000000 
#    y 0.000000 1.840890 0.000000 
#    z 0.000000 0.000000 1.858950 
# 
# From -- ./inp_files/10629.got.cif
#   From: 2010.05.17/outbox.cif.g08.bks.cpg/sg66_6_cif.got.tgz:10629.got - 2010.06.03 17:51:23.
