data_PCOD9495375
_publ_section_title
;
Structure prediction by ZEFSAII (Michael W. Deem and Ramdas Pophale) SiO2 
 PCOD9495375
Probable space group: C C C M
;
_chemical_formula_sum "Si O2"
_cell_formula_units_Z 64
_cell_length_a 15.314403
_cell_length_b 8.066839
_cell_length_c 24.129815
_cell_angle_alpha 90.000000
_cell_angle_beta 90.000000
_cell_angle_gamma 90.000000
_cell_volume 2980.968954
_symmetry_space_group_name_H-M "C C C M"
_symmetry_group_IT_number 66
_symmetry_cell_setting 'orthorhombic'
loop_
_space_group_symop_operation_xyz
x,y,z
-x,-y,z
x,-y,1/2-z
-x,y,1/2-z
-x,-y,-z
x,y,-z
-x,y,1/2+z
x,-y,1/2+z
1/2+x,1/2+y,z
1/2-x,1/2-y,z
1/2+x,1/2-y,1/2-z
1/2-x,1/2+y,1/2-z
1/2-x,1/2-y,-z
1/2+x,1/2+y,-z
1/2-x,1/2+y,1/2+z
1/2+x,1/2-y,1/2+z
loop_
_atom_site_type_symbol
_atom_site_label
_atom_site_fract_x
_atom_site_fract_y
_atom_site_fract_z
Si Si1 0.847538 0.694088 0.000000
Si Si2 0.099511 0.811023 0.882338
Si Si3 0.607209 0.997172 0.814534
Si Si4 0.581686 0.137333 0.000000
Si Si5 0.603719 0.320687 0.380565
O O1 0.750000 0.750000 0.000000
O O2 0.842325 0.496516 0.000000
O O3 0.891502 0.763256 0.055558
O O4 0.138475 0.661511 0.846512
O O5 0.998227 0.829144 0.864400
O O6 0.140703 0.993277 0.876327
O O7 0.090926 0.748153 0.945610
O O8 0.640566 0.829858 0.844116
O O9 0.500000 0.000000 0.819308
O O10 0.629059 0.000000 0.750000
O O11 0.500000 0.000000 0.000000
#
# Coordination Sequence:
#
# PCOD9495375 Si02
#       5
#     8  16  16   8  16
#     4  12  23  35  53  82 113 144 178 234 278 326
#     4  10  18  30  56  80 105 141 180 221 272 335
#     4   9  17  30  50  80 111 137 172 224 276 321
#     4  12  17  33  57  76 108 147 182 217 278 344
#     4  10  19  33  51  80 110 140 178 223 275 330
#
# _framework density 21.469529000000001
#
# number of rings (size 3 to 8) (size 9 to 14) (size 15 to 20)
#    0.000    1.750    5.000    1.500    0.000    3.000 
#    0.000    7.500    0.000    0.000    6.500    0.000 
#    0.000    0.000    0.000    0.000    0.000    0.000 
#
# Total GULP energy -178460.131646 kJ/mol
# GULP energy per Si atom -5576.879114 kJ/mol
# Density = 2.142066 g / cm^3
# Si number density = 21.469529 Si / 1000 Ang^3
#
#
#
# Elastic Constant Matrix: (Units=GPa)
#
#
# Indices 1 2 3 4 5 6 
#
# 1 21.9702 7.5435 -9.5951 0.0000 0.0000 0.0000
# 2 7.5435 263.8366 118.4223 0.0000 0.0000 0.0000
# 3 -9.5951 118.4223 159.9046 0.0000 0.0000 0.0000
# 4 0.0000 0.0000 0.0000 1.2574 0.0000 0.0000
# 5 0.0000 0.0000 0.0000 0.0000 -13.9688 0.0000
# 6 0.0000 0.0000 0.0000 0.0000 0.0000 14.1047
#
#
#
# Elastic Compliance Matrix: (Units=1/GPa)
#
#
# Indices 1 2 3 4 5 6 
#
# 1 0.049564 -0.004122 0.006027 0.000000 0.000000 0.000000
# 2 -0.004122 0.006020 -0.004706 0.000000 0.000000 0.000000
# 3 0.006027 -0.004706 0.010100 0.000000 0.000000 0.000000
# 4 0.000000 0.000000 0.000000 0.795309 0.000000 0.000000
# 5 0.000000 0.000000 0.000000 0.000000 -0.071588 0.000000
# 6 0.000000 0.000000 0.000000 0.000000 0.000000 0.070898
#
#
# Mechanical properties :
#
#
# Convention : Reuss Voigt Hill
#
# Bulk Modulus (GPa) = 16.64385 75.38364 46.01374
# Shear Modulus (GPa) = 5.64376 22.23471 13.93923
#
# Velocity S-wave (km/s) = 1.62310 3.22163 2.55082
# Velocity P-wave (km/s) = 3.35883 7.00190 5.49128
#
# Compressibility (1/GPa) = 0.06008225
#
# Stress axis : x y z
#
# Youngs Moduli (GPa) = 20.17599 166.10430 99.00525
#
# Poissons Ratio (x) = 0.68473 -0.59670
# Poissons Ratio (y) = 0.08317 0.46591
# Poissons Ratio (z) = -0.12160 0.78167
#
# Static dielectric constant tensor:
#      x y z
#    x 1.835040 0.000000 0.000000 
#    y 0.000000 1.827780 0.000000 
#    z 0.000000 0.000000 1.726400 
# 
# From -- ./inp_files/59245.got.cif
#   From: 2010.05.17/outbox.cif.g08.bks.cpg/sg66_30_cif.got.tgz:59245.got - 2010.06.03 17:51:23.
