data_PCOD9495587
_publ_section_title
;
Structure prediction by ZEFSAII (Michael W. Deem and Ramdas Pophale) SiO2 
 PCOD9495587
Probable space group: C C C M
;
_chemical_formula_sum "Si O2"
_cell_formula_units_Z 80
_cell_length_a 16.995056
_cell_length_b 24.977213
_cell_length_c 9.947921
_cell_angle_alpha 90.000000
_cell_angle_beta 90.000000
_cell_angle_gamma 90.000000
_cell_volume 4222.784367
_symmetry_space_group_name_H-M "C C C M"
_symmetry_group_IT_number 66
_symmetry_cell_setting 'orthorhombic'
loop_
_space_group_symop_operation_xyz
x,y,z
-x,-y,z
x,-y,1/2-z
-x,y,1/2-z
-x,-y,-z
x,y,-z
-x,y,1/2+z
x,-y,1/2+z
1/2+x,1/2+y,z
1/2-x,1/2-y,z
1/2+x,1/2-y,1/2-z
1/2-x,1/2+y,1/2-z
1/2-x,1/2-y,-z
1/2+x,1/2+y,-z
1/2-x,1/2+y,1/2+z
1/2+x,1/2-y,1/2+z
loop_
_atom_site_type_symbol
_atom_site_label
_atom_site_fract_x
_atom_site_fract_y
_atom_site_fract_z
Si Si1 0.259864 0.087563 0.227997
Si Si2 0.113732 0.816356 0.000000
Si Si3 0.814819 0.063039 0.000000
Si Si4 0.309839 0.703449 0.726254
Si Si5 0.431991 0.945422 0.339008
Si Si6 0.570614 0.664971 0.000000
Si Si7 0.859273 0.051488 0.500000
O O1 0.241887 0.061063 0.371134
O O2 0.241793 0.150047 0.239170
O O3 0.346917 0.080523 0.173447
O O4 0.195748 0.063291 0.127455
O O5 0.141621 0.879266 0.000000
O O6 0.149722 0.787795 0.869913
O O7 0.019511 0.817592 0.000000
O O8 0.874222 0.012277 0.000000
O O9 0.250000 0.750000 0.684453
O O10 0.380119 0.688335 0.625044
O O11 0.500000 0.916538 0.250000
O O12 0.450114 0.951315 0.500000
O O13 0.422869 0.000000 0.250000
O O14 0.576951 0.599538 0.000000
#
# Coordination Sequence:
#
# PCOD9495587 Si02
#       7
#    16   8   8  16  16   8   8
#     4  10  21  34  55  79 108 145 190 235 269 337
#     4  10  21  38  58  90 117 145 185 236 282 340
#     4  10  20  32  55  83 114 152 185 219 279 332
#     4  10  21  40  63  81 110 150 191 233 284 336
#     4  11  22  35  53  78 112 149 189 232 288 340
#     4  10  21  36  60  88 117 147 187 230 282 336
#     4  10  18  34  53  83 114 150 185 221 267 338
#
# _framework density 18.944845999999998
#
# number of rings (size 3 to 8) (size 9 to 14) (size 15 to 20)
#    0.000    1.800    1.000    4.200    2.800    0.400 
#    0.000    2.000    0.000    7.200    0.000    0.000 
#    0.000    0.000    0.000    0.000    0.000    0.000 
#
# Total GULP energy -222912.577678 kJ/mol
# GULP energy per Si atom -5572.814442 kJ/mol
# Density = 1.890173 g / cm^3
# Si number density = 18.944846 Si / 1000 Ang^3
#
#
#
# Elastic Constant Matrix: (Units=GPa)
#
#
# Indices 1 2 3 4 5 6 
#
# 1 92.3526 1.1470 14.9102 0.0000 0.0000 0.0000
# 2 1.1470 54.8994 -5.7017 0.0000 0.0000 0.0000
# 3 14.9102 -5.7017 143.9667 0.0000 0.0000 0.0000
# 4 0.0000 0.0000 0.0000 6.0385 0.0000 0.0000
# 5 0.0000 0.0000 0.0000 0.0000 -2.4194 0.0000
# 6 0.0000 0.0000 0.0000 0.0000 0.0000 14.9587
#
#
#
# Elastic Compliance Matrix: (Units=1/GPa)
#
#
# Indices 1 2 3 4 5 6 
#
# 1 0.011019 -0.000350 -0.001155 0.000000 0.000000 0.000000
# 2 -0.000350 0.018302 0.000761 0.000000 0.000000 0.000000
# 3 -0.001155 0.000761 0.007096 0.000000 0.000000 0.000000
# 4 0.000000 0.000000 0.000000 0.165604 0.000000 0.000000
# 5 0.000000 0.000000 0.000000 0.000000 -0.413320 0.000000
# 6 0.000000 0.000000 0.000000 0.000000 0.000000 0.066851
#
#
# Mechanical properties :
#
#
# Convention : Reuss Voigt Hill
#
# Bulk Modulus (GPa) = 28.63040 34.65886 31.64463
# Shear Modulus (GPa) = -38.07531 22.43977 -7.81777
#
# Velocity S-wave (km/s) = -4.48794 3.44536 -2.03361
# Velocity P-wave (km/s) = 3.42201 5.84480 3.35048
#
# Compressibility (1/GPa) = 0.03492791
#
# Stress axis : x y z
#
# Youngs Moduli (GPa) = 90.75316 54.64030 140.92807
#
# Poissons Ratio (x) = 0.01913 0.16278
# Poissons Ratio (y) = 0.03178 -0.10726
# Poissons Ratio (z) = 0.10483 -0.04159
#
# Static dielectric constant tensor:
#      x y z
#    x 1.646140 0.000000 0.000000 
#    y 0.000000 1.681570 0.000000 
#    z 0.000000 0.000000 1.687370 
# 
# From -- ./inp_files/6807.got.cif
#   From: 2010.05.17/outbox.cif.g08.bks.cpg/sg66_4_cif.got.tgz:6807.got - 2010.06.03 17:51:23.
