data_PCOD9495085
_publ_section_title
;
Structure prediction by ZEFSAII (Michael W. Deem and Ramdas Pophale) SiO2 
 PCOD9495085
Probable space group: C C C M
;
_chemical_formula_sum "Si O2"
_cell_formula_units_Z 96
_cell_length_a 7.323090
_cell_length_b 23.668829
_cell_length_c 22.342183
_cell_angle_alpha 90.000000
_cell_angle_beta 90.000000
_cell_angle_gamma 90.000000
_cell_volume 3872.547454
_symmetry_space_group_name_H-M "C C C M"
_symmetry_group_IT_number 66
_symmetry_cell_setting 'orthorhombic'
loop_
_space_group_symop_operation_xyz
x,y,z
-x,-y,z
x,-y,1/2-z
-x,y,1/2-z
-x,-y,-z
x,y,-z
-x,y,1/2+z
x,-y,1/2+z
1/2+x,1/2+y,z
1/2-x,1/2-y,z
1/2+x,1/2-y,1/2-z
1/2-x,1/2+y,1/2-z
1/2-x,1/2-y,-z
1/2+x,1/2+y,-z
1/2-x,1/2+y,1/2+z
1/2+x,1/2-y,1/2+z
loop_
_atom_site_type_symbol
_atom_site_label
_atom_site_fract_x
_atom_site_fract_y
_atom_site_fract_z
Si Si1 0.635472 0.055418 0.500000
Si Si2 0.290831 0.919960 0.271634
Si Si3 0.944780 0.780637 0.317174
Si Si4 0.778729 0.493658 0.381330
Si Si5 0.285454 0.386623 0.640447
Si Si6 0.803526 0.681360 0.000000
Si Si7 0.615278 0.830214 0.866743
O O1 0.746662 0.046114 0.438526
O O2 0.564657 0.120014 0.500000
O O3 0.500000 0.000000 0.500000
O O4 0.500000 0.932065 0.250000
O O5 0.221527 0.967338 0.317689
O O6 0.196439 0.906582 0.209470
O O7 0.293376 0.864426 0.312943
O O8 0.750000 0.750000 0.311044
O O9 0.915631 0.832992 0.361952
O O10 0.068071 0.732057 0.344604
O O11 0.000000 0.795723 0.250000
O O12 0.694205 0.554901 0.394345
O O13 0.000000 0.500000 0.374513
O O14 0.081344 0.362912 0.627704
O O15 0.750000 0.750000 0.000000
O O16 0.777848 0.673064 0.071286
#
# Coordination Sequence:
#
# PCOD9495085 Si02
#       7
#     8  16  16  16  16   8  16
#     4  10  20  36  55  84 122 164 207 281 316 360
#     4  10  17  28  54  83 120 151 197 255 317 361
#     4  10  21  39  60  90 131 167 209 254 324 393
#     4  11  17  30  54  83 120 153 203 258 315 358
#     4  10  20  31  55  89 116 159 199 252 318 378
#     4  12  24  38  58  94 128 162 217 269 332 372
#     4  10  19  35  53  80 122 162 198 255 313 374
#
# _framework density 24.789883
#
# number of rings (size 3 to 8) (size 9 to 14) (size 15 to 20)
#    0.000    1.667    5.000    4.000    0.000    2.000 
#    0.000    4.583    0.000    2.000    0.000    1.167 
#    0.000    0.000    0.000    0.000    0.000    0.000 
#
# Total GULP energy -267355.171482 kJ/mol
# GULP energy per Si atom -5569.899406 kJ/mol
# Density = 2.473346 g / cm^3
# Si number density = 24.789883 Si / 1000 Ang^3
#
#
#
# Elastic Constant Matrix: (Units=GPa)
#
#
# Indices 1 2 3 4 5 6 
#
# 1 73.4919 23.8609 17.0856 0.0000 0.0000 0.0000
# 2 23.8609 194.0628 25.5711 0.0000 0.0000 0.0000
# 3 17.0856 25.5711 129.9912 0.0000 0.0000 0.0000
# 4 0.0000 0.0000 0.0000 41.9809 0.0000 0.0000
# 5 0.0000 0.0000 0.0000 0.0000 5.0695 0.0000
# 6 0.0000 0.0000 0.0000 0.0000 0.0000 6.9115
#
#
#
# Elastic Compliance Matrix: (Units=1/GPa)
#
#
# Indices 1 2 3 4 5 6 
#
# 1 0.014488 -0.001571 -0.001595 0.000000 0.000000 0.000000
# 2 -0.001571 0.005460 -0.000868 0.000000 0.000000 0.000000
# 3 -0.001595 -0.000868 0.008073 0.000000 0.000000 0.000000
# 4 0.000000 0.000000 0.000000 0.023820 0.000000 0.000000
# 5 0.000000 0.000000 0.000000 0.000000 0.197257 0.000000
# 6 0.000000 0.000000 0.000000 0.000000 0.000000 0.144685
#
#
# Mechanical properties :
#
#
# Convention : Reuss Voigt Hill
#
# Bulk Modulus (GPa) = 50.11627 58.95345 54.53486
# Shear Modulus (GPa) = 12.23980 32.86095 22.55038
#
# Velocity S-wave (km/s) = 2.22444 3.64480 3.01933
# Velocity P-wave (km/s) = 5.18245 6.44559 5.84822
#
# Compressibility (1/GPa) = 0.01995360
#
# Stress axis : x y z
#
# Youngs Moduli (GPa) = 69.02309 183.13408 123.86706
#
# Poissons Ratio (x) = 0.28773 0.19759
# Poissons Ratio (y) = 0.10845 0.10747
# Poissons Ratio (z) = 0.11010 0.15890
#
# Static dielectric constant tensor:
#      x y z
#    x 2.078560 0.000000 0.000000 
#    y 0.000000 2.022070 0.000000 
#    z 0.000000 0.000000 1.904100 
# 
# From -- ./inp_files/57119.got.cif
#   From: 2010.05.17/outbox.cif.g08.bks.cpg/sg66_29_cif.got.tgz:57119.got - 2010.06.03 17:51:23.
