data_PCOD9495614
_publ_section_title
;
Structure prediction by ZEFSAII (Michael W. Deem and Ramdas Pophale) SiO2 
 PCOD9495614
Probable space group: C C C M
;
_chemical_formula_sum "Si O2"
_cell_formula_units_Z 112
_cell_length_a 16.080797
_cell_length_b 29.514175
_cell_length_c 11.477603
_cell_angle_alpha 90.000000
_cell_angle_beta 90.000000
_cell_angle_gamma 90.000000
_cell_volume 5447.401880
_symmetry_space_group_name_H-M "C C C M"
_symmetry_group_IT_number 66
_symmetry_cell_setting 'orthorhombic'
loop_
_space_group_symop_operation_xyz
x,y,z
-x,-y,z
x,-y,1/2-z
-x,y,1/2-z
-x,-y,-z
x,y,-z
-x,y,1/2+z
x,-y,1/2+z
1/2+x,1/2+y,z
1/2-x,1/2-y,z
1/2+x,1/2-y,1/2-z
1/2-x,1/2+y,1/2-z
1/2-x,1/2-y,-z
1/2+x,1/2+y,-z
1/2-x,1/2+y,1/2+z
1/2+x,1/2-y,1/2+z
loop_
_atom_site_type_symbol
_atom_site_label
_atom_site_fract_x
_atom_site_fract_y
_atom_site_fract_z
Si Si1 0.829926 0.693799 0.795029
Si Si2 0.906499 0.117570 0.713621
Si Si3 0.955381 0.379517 0.375474
Si Si4 0.155654 0.975657 0.627258
Si Si5 0.854861 0.787051 0.130099
Si Si6 0.838732 0.455414 0.301070
Si Si7 0.258271 0.119657 0.636683
O O1 0.893459 0.663046 0.865899
O O2 0.865037 0.744579 0.783031
O O3 0.742204 0.699046 0.861419
O O4 0.804572 0.665267 0.680810
O O5 0.876614 0.075832 0.634535
O O6 0.904027 0.167248 0.656490
O O7 0.836406 0.119816 0.815075
O O8 0.000000 0.107657 0.750000
O O9 0.002267 0.377208 0.500000
O O10 0.899749 0.424610 0.374397
O O11 0.000000 0.379717 0.250000
O O12 0.131737 0.995664 0.500000
O O13 0.255767 0.972461 0.634019
O O14 0.129732 0.000000 0.750000
O O15 0.873462 0.770767 0.000000
O O16 0.881010 0.500000 0.250000
O O17 0.804257 0.422030 0.200036
O O18 0.259823 0.115142 0.500000
#
# Coordination Sequence:
#
# PCOD9495614 Si02
#       7
#    16  16  16  16  16  16  16
#     4   9  19  36  58  82 107 139 189 237 280 336
#     4  10  22  36  52  82 120 154 189 230 280 343
#     4  11  23  38  56  82 115 151 186 226 279 342
#     4  10  21  39  63  88 112 148 195 241 287 341
#     4  10  18  34  61  85 104 138 189 241 285 331
#     4   9  20  37  60  85 108 140 189 243 287 335
#     4   9  19  35  57  82 112 149 188 235 291 343
#
# _framework density 20.56026
#
# number of rings (size 3 to 8) (size 9 to 14) (size 15 to 20)
#    0.000    2.286    0.000    3.429    0.000   10.286 
#    0.000    7.143    0.000    1.714    0.000    0.000 
#    0.000    0.000    0.000    0.000    0.000    0.000 
#
# Total GULP energy -312221.128826 kJ/mol
# GULP energy per Si atom -5575.377300 kJ/mol
# Density = 2.051346 g / cm^3
# Si number density = 20.560260 Si / 1000 Ang^3
#
#
#
# Elastic Constant Matrix: (Units=GPa)
#
#
# Indices 1 2 3 4 5 6 
#
# 1 34.4500 12.8189 22.4458 0.0000 0.0000 0.0000
# 2 12.8189 117.5187 35.1069 0.0000 0.0000 0.0000
# 3 22.4458 35.1069 172.4945 0.0000 0.0000 0.0000
# 4 0.0000 0.0000 0.0000 1.9624 0.0000 0.0000
# 5 0.0000 0.0000 0.0000 0.0000 8.3949 0.0000
# 6 0.0000 0.0000 0.0000 0.0000 0.0000 1.8721
#
#
#
# Elastic Compliance Matrix: (Units=1/GPa)
#
#
# Indices 1 2 3 4 5 6 
#
# 1 0.032349 -0.002418 -0.003717 0.000000 0.000000 0.000000
# 2 -0.002418 0.009241 -0.001566 0.000000 0.000000 0.000000
# 3 -0.003717 -0.001566 0.006600 0.000000 0.000000 0.000000
# 4 0.000000 0.000000 0.000000 0.509581 0.000000 0.000000
# 5 0.000000 0.000000 0.000000 0.000000 0.119120 0.000000
# 6 0.000000 0.000000 0.000000 0.000000 0.000000 0.534156
#
#
# Mechanical properties :
#
#
# Convention : Reuss Voigt Hill
#
# Bulk Modulus (GPa) = 30.49999 51.68960 41.09480
# Shear Modulus (GPa) = 4.04080 19.38531 11.71306
#
# Velocity S-wave (km/s) = 1.40343 3.07392 2.38942
# Velocity P-wave (km/s) = 4.18244 6.14767 5.25769
#
# Compressibility (1/GPa) = 0.03278689
#
# Stress axis : x y z
#
# Youngs Moduli (GPa) = 30.91250 108.21447 151.52118
#
# Poissons Ratio (x) = 0.26168 0.56325
# Poissons Ratio (y) = 0.07475 0.23730
# Poissons Ratio (z) = 0.11491 0.16947
#
# Static dielectric constant tensor:
#      x y z
#    x 1.732340 0.000000 0.000000 
#    y 0.000000 1.772230 0.000000 
#    z 0.000000 0.000000 1.756340 
# 
# From -- ./inp_files/16786.got.cif
#   From: 2010.05.17/outbox.cif.g08.bks.cpg/sg66_9_cif.got.tgz:16786.got - 2010.06.03 17:51:23.
