data_PCOD9495511
_publ_section_title
;
Structure prediction by ZEFSAII (Michael W. Deem and Ramdas Pophale) SiO2 
 PCOD9495511
Probable space group: C C C M
;
_chemical_formula_sum "Si O2"
_cell_formula_units_Z 88
_cell_length_a 15.381603
_cell_length_b 17.503699
_cell_length_c 14.489927
_cell_angle_alpha 90.000000
_cell_angle_beta 90.000000
_cell_angle_gamma 90.000000
_cell_volume 3901.194758
_symmetry_space_group_name_H-M "C C C M"
_symmetry_group_IT_number 66
_symmetry_cell_setting 'orthorhombic'
loop_
_space_group_symop_operation_xyz
x,y,z
-x,-y,z
x,-y,1/2-z
-x,y,1/2-z
-x,-y,-z
x,y,-z
-x,y,1/2+z
x,-y,1/2+z
1/2+x,1/2+y,z
1/2-x,1/2-y,z
1/2+x,1/2-y,1/2-z
1/2-x,1/2+y,1/2-z
1/2-x,1/2-y,-z
1/2+x,1/2+y,-z
1/2-x,1/2+y,1/2+z
1/2+x,1/2-y,1/2+z
loop_
_atom_site_type_symbol
_atom_site_label
_atom_site_fract_x
_atom_site_fract_y
_atom_site_fract_z
Si Si1 0.505478 0.748100 0.000000
Si Si2 0.602564 0.968866 0.000000
Si Si3 0.583643 0.400905 0.000000
Si Si4 0.356907 0.870969 0.000000
Si Si5 0.066320 0.645035 0.336945
Si Si6 0.235806 0.832763 0.341605
Si Si7 0.812140 0.056249 0.500000
Si Si8 0.282749 0.333912 0.637974
O O1 0.500803 0.655559 0.000000
O O2 0.411896 0.792674 0.000000
O O3 0.547418 0.783138 0.093804
O O4 0.571961 0.925996 0.907623
O O5 0.709489 0.969388 0.000000
O O6 0.580203 0.057270 0.000000
O O7 0.634897 0.367993 0.087339
O O8 0.611733 0.491384 0.000000
O O9 0.297831 0.879198 0.091838
O O10 0.166561 0.647715 0.306560
O O11 0.000000 0.641664 0.250000
O O12 0.250000 0.750000 0.386896
O O13 0.189329 0.890985 0.409130
O O14 0.189769 0.828711 0.243774
O O15 0.250000 0.250000 0.611618
#
# Coordination Sequence:
#
# PCOD9495511 Si02
#       8
#     8   8   8   8  16  16   8  16
#     4  11  22  36  59  82 119 160 206 246 303 367
#     4   9  20  37  53  82 119 166 200 240 305 358
#     4  11  20  35  59  88 123 155 203 262 308 351
#     4  11  17  34  57  77 119 158 198 248 287 351
#     4  10  22  39  57  86 122 162 206 249 307 379
#     4  10  22  39  64  88 116 156 206 252 312 375
#     4  10  20  38  57  88 122 156 193 257 311 361
#     4  10  18  32  58  89 111 156 205 257 297 345
#
# _framework density 22.557192000000001
#
# number of rings (size 3 to 8) (size 9 to 14) (size 15 to 20)
#    0.000    1.818    3.636    2.455    2.545    2.182 
#    0.000    5.455    0.000    2.182    0.000    1.273 
#    0.000    0.000    0.000    0.000    0.000    0.000 
#
# Total GULP energy -244940.602961 kJ/mol
# GULP energy per Si atom -5566.831885 kJ/mol
# Density = 2.250585 g / cm^3
# Si number density = 22.557192 Si / 1000 Ang^3
#
#
#
# Elastic Constant Matrix: (Units=GPa)
#
#
# Indices 1 2 3 4 5 6 
#
# 1 36.7911 7.7938 -1.8798 0.0000 0.0000 0.0000
# 2 7.7938 154.5003 47.6527 0.0000 0.0000 0.0000
# 3 -1.8798 47.6527 110.7787 0.0000 0.0000 0.0000
# 4 0.0000 0.0000 0.0000 15.1156 0.0000 0.0000
# 5 0.0000 0.0000 0.0000 0.0000 -10.2275 0.0000
# 6 0.0000 0.0000 0.0000 0.0000 0.0000 30.0565
#
#
#
# Elastic Compliance Matrix: (Units=1/GPa)
#
#
# Indices 1 2 3 4 5 6 
#
# 1 0.027619 -0.001773 0.001231 0.000000 0.000000 0.000000
# 2 -0.001773 0.007576 -0.003289 0.000000 0.000000 0.000000
# 3 0.001231 -0.003289 0.010463 0.000000 0.000000 0.000000
# 4 0.000000 0.000000 0.000000 0.066157 0.000000 0.000000
# 5 0.000000 0.000000 0.000000 0.000000 -0.097776 0.000000
# 6 0.000000 0.000000 0.000000 0.000000 0.000000 0.033271
#
#
# Mechanical properties :
#
#
# Convention : Reuss Voigt Hill
#
# Bulk Modulus (GPa) = 26.31824 45.46707 35.89265
# Shear Modulus (GPa) = 73.92365 23.55580 48.73973
#
# Velocity S-wave (km/s) = 5.73086 3.23502 4.65340
# Velocity P-wave (km/s) = 7.44870 5.84414 6.69466
#
# Compressibility (1/GPa) = 0.03799647
#
# Stress axis : x y z
#
# Youngs Moduli (GPa) = 36.20700 131.98881 95.57692
#
# Poissons Ratio (x) = 0.23402 -0.11769
# Poissons Ratio (y) = 0.06420 0.31437
# Poissons Ratio (z) = -0.04458 0.43413
#
# Static dielectric constant tensor:
#      x y z
#    x 1.975590 0.000000 0.000000 
#    y 0.000000 1.919810 0.000000 
#    z 0.000000 0.000000 1.929710 
# 
# From -- ./inp_files/31143.got.cif
#   From: 2010.05.17/outbox.cif.g08.bks.cpg/sg66_16_cif.got.tgz:31143.got - 2010.06.03 17:51:23.
