data_PCOD9495577
_publ_section_title
;
Structure prediction by ZEFSAII (Michael W. Deem and Ramdas Pophale) SiO2 
 PCOD9495577
Probable space group: C C C M
;
_chemical_formula_sum "Si O2"
_cell_formula_units_Z 112
_cell_length_a 11.517642
_cell_length_b 19.640117
_cell_length_c 23.377364
_cell_angle_alpha 90.000000
_cell_angle_beta 90.000000
_cell_angle_gamma 90.000000
_cell_volume 5288.142932
_symmetry_space_group_name_H-M "C C C M"
_symmetry_group_IT_number 66
_symmetry_cell_setting 'orthorhombic'
loop_
_space_group_symop_operation_xyz
x,y,z
-x,-y,z
x,-y,1/2-z
-x,y,1/2-z
-x,-y,-z
x,y,-z
-x,y,1/2+z
x,-y,1/2+z
1/2+x,1/2+y,z
1/2-x,1/2-y,z
1/2+x,1/2-y,1/2-z
1/2-x,1/2+y,1/2-z
1/2-x,1/2-y,-z
1/2+x,1/2+y,-z
1/2-x,1/2+y,1/2+z
1/2+x,1/2-y,1/2+z
loop_
_atom_site_type_symbol
_atom_site_label
_atom_site_fract_x
_atom_site_fract_y
_atom_site_fract_z
Si Si1 0.369477 0.017406 0.672756
Si Si2 0.931805 0.142047 0.870303
Si Si3 0.742678 0.063403 0.064067
Si Si4 0.850284 0.088652 0.434184
Si Si5 0.692581 0.134946 0.654857
Si Si6 0.754172 0.138809 0.224760
Si Si7 0.034077 0.718540 0.184229
O O1 0.356604 0.055484 0.611599
O O2 0.313725 0.067506 0.718467
O O3 0.500000 0.000000 0.686097
O O4 0.307091 0.946048 0.663977
O O5 0.830172 0.121832 0.914590
O O6 0.873221 0.127185 0.808669
O O7 0.965132 0.220445 0.861078
O O8 0.041351 0.099397 0.891855
O O9 0.810642 0.990556 0.064597
O O10 0.700679 0.075228 0.000000
O O11 0.878497 0.106573 0.500000
O O12 0.752186 0.138698 0.406918
O O13 0.764896 0.162088 0.709666
O O14 0.564053 0.164994 0.663726
O O15 0.664141 0.188875 0.192133
O O16 0.000000 0.737706 0.250000
#
# Coordination Sequence:
#
# PCOD9495577 Si02
#       7
#    16  16  16  16  16  16  16
#     4  10  18  33  62  92 122 152 194 253 310 362
#     4  11  22  36  60  85 119 159 205 244 293 366
#     4   9  20  39  61  87 116 157 204 250 307 361
#     4  10  22  41  65  88 117 157 206 258 307 359
#     4  10  21  37  61  91 123 158 199 250 308 363
#     4  10  21  36  59  92 125 157 196 248 306 375
#     4  10  22  38  58  86 123 166 198 240 301 371
#
# _framework density 21.179458
#
# number of rings (size 3 to 8) (size 9 to 14) (size 15 to 20)
#    0.000    2.000    1.429    1.714    2.000    2.571 
#    0.000    2.143    3.143   16.286    0.000    0.000 
#    0.000    0.000    0.000    0.000    0.000    0.000 
#
# Total GULP energy -312239.043781 kJ/mol
# GULP energy per Si atom -5575.697210 kJ/mol
# Density = 2.113125 g / cm^3
# Si number density = 21.179458 Si / 1000 Ang^3
#
#
#
# Elastic Constant Matrix: (Units=GPa)
#
#
# Indices 1 2 3 4 5 6 
#
# 1 61.6746 13.8839 32.5173 0.0000 0.0000 0.0000
# 2 13.8839 60.1869 30.3710 0.0000 0.0000 0.0000
# 3 32.5173 30.3710 119.5104 0.0000 0.0000 0.0000
# 4 0.0000 0.0000 0.0000 25.9648 0.0000 0.0000
# 5 0.0000 0.0000 0.0000 0.0000 19.3623 0.0000
# 6 0.0000 0.0000 0.0000 0.0000 0.0000 89.6590
#
#
#
# Elastic Compliance Matrix: (Units=1/GPa)
#
#
# Indices 1 2 3 4 5 6 
#
# 1 0.019148 -0.002051 -0.004689 0.000000 0.000000 0.000000
# 2 -0.002051 0.019279 -0.004341 0.000000 0.000000 0.000000
# 3 -0.004689 -0.004341 0.010746 0.000000 0.000000 0.000000
# 4 0.000000 0.000000 0.000000 0.038514 0.000000 0.000000
# 5 0.000000 0.000000 0.000000 0.000000 0.051647 0.000000
# 6 0.000000 0.000000 0.000000 0.000000 0.000000 0.011153
#
#
# Mechanical properties :
#
#
# Convention : Reuss Voigt Hill
#
# Bulk Modulus (GPa) = 37.02177 43.87958 40.45067
# Shear Modulus (GPa) = 27.52510 37.97053 32.74781
#
# Velocity S-wave (km/s) = 3.60893 4.23874 3.93645
# Velocity P-wave (km/s) = 5.90625 6.68722 6.30883
#
# Compressibility (1/GPa) = 0.02701114
#
# Stress axis : x y z
#
# Youngs Moduli (GPa) = 52.22501 51.87081 93.05429
#
# Poissons Ratio (x) = 0.10639 0.43630
# Poissons Ratio (y) = 0.10712 0.40397
# Poissons Ratio (z) = 0.24487 0.22518
#
# Static dielectric constant tensor:
#      x y z
#    x 1.785850 0.000000 0.000000 
#    y 0.000000 1.831380 0.000000 
#    z 0.000000 0.000000 1.786830 
# 
# From -- ./inp_files/57189.got.cif
#   From: 2010.05.17/outbox.cif.g08.bks.cpg/sg66_29_cif.got.tgz:57189.got - 2010.06.03 17:51:23.
