data_PCOD9495444
_publ_section_title
;
Structure prediction by ZEFSAII (Michael W. Deem and Ramdas Pophale) SiO2 
 PCOD9495444
Probable space group: C C C M
;
_chemical_formula_sum "Si O2"
_cell_formula_units_Z 116
_cell_length_a 9.515841
_cell_length_b 21.353387
_cell_length_c 29.342391
_cell_angle_alpha 90.000000
_cell_angle_beta 90.000000
_cell_angle_gamma 90.000000
_cell_volume 5962.239918
_symmetry_space_group_name_H-M "C C C M"
_symmetry_group_IT_number 66
_symmetry_cell_setting 'orthorhombic'
loop_
_space_group_symop_operation_xyz
x,y,z
-x,-y,z
x,-y,1/2-z
-x,y,1/2-z
-x,-y,-z
x,y,-z
-x,y,1/2+z
x,-y,1/2+z
1/2+x,1/2+y,z
1/2-x,1/2-y,z
1/2+x,1/2-y,1/2-z
1/2-x,1/2+y,1/2-z
1/2-x,1/2-y,-z
1/2+x,1/2+y,-z
1/2-x,1/2+y,1/2+z
1/2+x,1/2-y,1/2+z
loop_
_atom_site_type_symbol
_atom_site_label
_atom_site_fract_x
_atom_site_fract_y
_atom_site_fract_z
Si Si1 0.086804 0.758589 0.203553
Si Si2 0.726305 0.079599 0.369941
Si Si3 0.271343 0.648109 0.053009
Si Si4 0.014454 0.140462 0.372383
Si Si5 0.168219 0.001909 0.549331
Si Si6 0.924611 0.640365 0.360591
Si Si7 0.807437 0.044655 0.825634
Si Si8 0.500000 0.500000 0.750000
O O1 0.250000 0.750000 0.215301
O O2 0.049809 0.698817 0.172428
O O3 0.000000 0.763457 0.250000
O O4 0.064682 0.817172 0.169727
O O5 0.848047 0.131894 0.370888
O O6 0.572337 0.107283 0.368784
O O7 0.750337 0.038225 0.414437
O O8 0.757762 0.026961 0.331697
O O9 0.415788 0.664823 0.080525
O O10 0.278148 0.572884 0.049353
O O11 0.151550 0.661013 0.091669
O O12 0.259054 0.671156 0.000000
O O13 0.081015 0.071473 0.362675
O O14 0.195708 0.973460 0.500000
O O15 0.000000 0.000000 0.555033
O O16 0.822349 0.591146 0.334385
O O17 0.898033 0.043601 0.779917
#
# Coordination Sequence:
#
# PCOD9495444 Si02
#       8
#    16  16  16  16  16  16  16   4
#     4  12  28  48  71  92 123 170 227 277 323 391
#     4  12  21  38  63  95 137 170 197 267 335 387
#     4  10  20  38  65  97 132 174 219 263 321 390
#     4  11  22  41  69  91 130 170 224 273 316 391
#     4  10  18  31  59  98 132 171 215 249 303 390
#     4  11  26  43  62  94 140 169 217 271 336 391
#     4  11  22  39  62  92 123 167 212 267 340 393
#     4  12  24  36  66  92 118 164 230 260 358 412
#
# _framework density 19.455774999999999
#
# number of rings (size 3 to 8) (size 9 to 14) (size 15 to 20)
#    0.000    0.966    8.276    0.414    2.897    1.655 
#    0.000    3.448    0.000    0.000    0.000    2.897 
#    0.000    0.000    0.000    0.000    0.000    0.000 
#
# Total GULP energy -323433.759615 kJ/mol
# GULP energy per Si atom -5576.444131 kJ/mol
# Density = 1.941149 g / cm^3
# Si number density = 19.455775 Si / 1000 Ang^3
#
#
#
# Elastic Constant Matrix: (Units=GPa)
#
#
# Indices 1 2 3 4 5 6 
#
# 1 112.5984 31.0378 48.8077 0.0000 0.0000 0.0000
# 2 31.0378 51.6407 36.7329 0.0000 0.0000 0.0000
# 3 48.8077 36.7329 150.4157 0.0000 0.0000 0.0000
# 4 0.0000 0.0000 0.0000 -111.9699 0.0000 0.0000
# 5 0.0000 0.0000 0.0000 0.0000 24.0077 0.0000
# 6 0.0000 0.0000 0.0000 0.0000 0.0000 20.4369
#
#
#
# Elastic Compliance Matrix: (Units=1/GPa)
#
#
# Indices 1 2 3 4 5 6 
#
# 1 0.011339 -0.005080 -0.002439 0.000000 0.000000 0.000000
# 2 -0.005080 0.025712 -0.004631 0.000000 0.000000 0.000000
# 3 -0.002439 -0.004631 0.008570 0.000000 0.000000 0.000000
# 4 0.000000 0.000000 0.000000 -0.008931 0.000000 0.000000
# 5 0.000000 0.000000 0.000000 0.000000 0.041653 0.000000
# 6 0.000000 0.000000 0.000000 0.000000 0.000000 0.048931
#
#
# Mechanical properties :
#
#
# Convention : Reuss Voigt Hill
#
# Bulk Modulus (GPa) = 46.90019 60.86796 53.88407
# Shear Modulus (GPa) = 31.50995 -0.29995 15.60500
#
# Velocity S-wave (km/s) = 4.02875 -0.39307 2.83517
# Velocity P-wave (km/s) = 6.76753 5.58097 6.20269
#
# Compressibility (1/GPa) = 0.02132188
#
# Stress axis : x y z
#
# Youngs Moduli (GPa) = 88.19489 38.89267 116.68141
#
# Poissons Ratio (x) = 0.19759 0.28453
# Poissons Ratio (y) = 0.44805 0.54030
# Poissons Ratio (z) = 0.21507 0.18010
#
# Static dielectric constant tensor:
#      x y z
#    x 1.665380 0.000000 0.000000 
#    y 0.000000 1.704320 0.000000 
#    z 0.000000 0.000000 1.748030 
# 
# From -- ./inp_files/62887.got.cif
#   From: 2010.05.17/outbox.cif.g08.bks.cpg/sg66_32_cif.got.tgz:62887.got - 2010.06.03 17:51:23.
