data_PCOD9495098
_publ_section_title
;
Structure prediction by ZEFSAII (Michael W. Deem and Ramdas Pophale) SiO2 
 PCOD9495098
Probable space group: C C C M
;
_chemical_formula_sum "Si O2"
_cell_formula_units_Z 96
_cell_length_a 9.445314
_cell_length_b 24.787622
_cell_length_c 23.286929
_cell_angle_alpha 90.000000
_cell_angle_beta 90.000000
_cell_angle_gamma 90.000000
_cell_volume 5452.095871
_symmetry_space_group_name_H-M "C C C M"
_symmetry_group_IT_number 66
_symmetry_cell_setting 'orthorhombic'
loop_
_space_group_symop_operation_xyz
x,y,z
-x,-y,z
x,-y,1/2-z
-x,y,1/2-z
-x,-y,-z
x,y,-z
-x,y,1/2+z
x,-y,1/2+z
1/2+x,1/2+y,z
1/2-x,1/2-y,z
1/2+x,1/2-y,1/2-z
1/2-x,1/2+y,1/2-z
1/2-x,1/2-y,-z
1/2+x,1/2+y,-z
1/2-x,1/2+y,1/2+z
1/2+x,1/2-y,1/2+z
loop_
_atom_site_type_symbol
_atom_site_label
_atom_site_fract_x
_atom_site_fract_y
_atom_site_fract_z
Si Si1 0.043290 0.883403 0.124330
Si Si2 0.406055 0.580050 0.000000
Si Si3 0.721984 0.532637 0.697200
Si Si4 0.275492 0.929279 0.622409
Si Si5 0.135361 0.204039 0.286651
Si Si6 0.355451 0.124905 0.768707
Si Si7 0.269475 0.465113 0.000000
O O1 0.117061 0.929774 0.162205
O O2 0.079150 0.828207 0.157433
O O3 0.879182 0.900849 0.123329
O O4 0.102923 0.887167 0.059484
O O5 0.296363 0.529704 0.000000
O O6 0.567264 0.556384 0.000000
O O7 0.654823 0.500000 0.750000
O O8 0.775181 0.487260 0.653724
O O9 0.834971 0.571406 0.728914
O O10 0.364585 0.891557 0.664768
O O11 0.306402 0.942248 0.556500
O O12 0.250000 0.250000 0.300545
O O13 0.220461 0.161138 0.246648
O O14 0.000000 0.222559 0.250000
O O15 0.500000 0.152152 0.750000
#
# Coordination Sequence:
#
# PCOD9495098 Si02
#       7
#    16   8  16  16  16  16   8
#     4  10  18  31  49  82 112 148 186 232 281 327
#     4   9  16  28  49  77 122 153 192 222 268 324
#     4   9  18  25  45  73 111 151 183 223 266 326
#     4  10  17  29  49  77 116 150 189 221 265 328
#     4  11  22  39  60  84 106 138 183 244 303 345
#     4  10  21  35  51  77 113 152 184 227 282 338
#     4   9  16  26  46  82 113 162 188 225 259 316
#
# _framework density 17.607907000000001
#
# number of rings (size 3 to 8) (size 9 to 14) (size 15 to 20)
#    0.000    2.167    3.333    1.000    0.000    5.000 
#    0.000    0.417    0.000    6.000    0.000    4.667 
#    0.000    0.000    0.000    0.000    0.000    0.000 
#
# Total GULP energy -267366.366416 kJ/mol
# GULP energy per Si atom -5570.132634 kJ/mol
# Density = 1.756783 g / cm^3
# Si number density = 17.607907 Si / 1000 Ang^3
#
#
#
# Elastic Constant Matrix: (Units=GPa)
#
#
# Indices 1 2 3 4 5 6 
#
# 1 50.2055 13.0651 18.5938 0.0000 0.0000 0.0000
# 2 13.0651 76.1801 36.9445 0.0000 0.0000 0.0000
# 3 18.5938 36.9445 153.6612 0.0000 0.0000 0.0000
# 4 0.0000 0.0000 0.0000 13.8328 0.0000 0.0000
# 5 0.0000 0.0000 0.0000 0.0000 -21.2772 0.0000
# 6 0.0000 0.0000 0.0000 0.0000 0.0000 8.6729
#
#
#
# Elastic Compliance Matrix: (Units=1/GPa)
#
#
# Indices 1 2 3 4 5 6 
#
# 1 0.021341 -0.002725 -0.001927 0.000000 0.000000 0.000000
# 2 -0.002725 0.015207 -0.003327 0.000000 0.000000 0.000000
# 3 -0.001927 -0.003327 0.007541 0.000000 0.000000 0.000000
# 4 0.000000 0.000000 0.000000 0.072292 0.000000 0.000000
# 5 0.000000 0.000000 0.000000 0.000000 -0.046999 0.000000
# 6 0.000000 0.000000 0.000000 0.000000 0.000000 0.115302
#
#
# Mechanical properties :
#
#
# Convention : Reuss Voigt Hill
#
# Bulk Modulus (GPa) = 35.54777 46.36151 40.95464
# Shear Modulus (GPa) = 23.80719 14.34189 19.07454
#
# Velocity S-wave (km/s) = 3.68105 2.85707 3.29491
# Velocity P-wave (km/s) = 6.18863 6.10499 6.14695
#
# Compressibility (1/GPa) = 0.02813116
#
# Stress axis : x y z
#
# Youngs Moduli (GPa) = 46.85794 65.75721 132.61191
#
# Poissons Ratio (x) = 0.17922 0.25556
# Poissons Ratio (y) = 0.12771 0.44113
# Poissons Ratio (z) = 0.09030 0.21874
#
# Static dielectric constant tensor:
#      x y z
#    x 1.613860 0.000000 0.000000 
#    y 0.000000 1.618730 0.000000 
#    z 0.000000 0.000000 1.611140 
# 
# From -- ./inp_files/55673.got.cif
#   From: 2010.05.17/outbox.cif.g08.bks.cpg/sg66_28_cif.got.tgz:55673.got - 2010.06.03 17:51:23.
