data_PCOD9495598
_publ_section_title
;
Structure prediction by ZEFSAII (Michael W. Deem and Ramdas Pophale) SiO2 
 PCOD9495598
Probable space group: C C C M
;
_chemical_formula_sum "Si O2"
_cell_formula_units_Z 96
_cell_length_a 18.698524
_cell_length_b 24.204528
_cell_length_c 11.108301
_cell_angle_alpha 90.000000
_cell_angle_beta 90.000000
_cell_angle_gamma 90.000000
_cell_volume 5027.494261
_symmetry_space_group_name_H-M "C C C M"
_symmetry_group_IT_number 66
_symmetry_cell_setting 'orthorhombic'
loop_
_space_group_symop_operation_xyz
x,y,z
-x,-y,z
x,-y,1/2-z
-x,y,1/2-z
-x,-y,-z
x,y,-z
-x,y,1/2+z
x,-y,1/2+z
1/2+x,1/2+y,z
1/2-x,1/2-y,z
1/2+x,1/2-y,1/2-z
1/2-x,1/2+y,1/2-z
1/2-x,1/2-y,-z
1/2+x,1/2+y,-z
1/2-x,1/2+y,1/2+z
1/2+x,1/2-y,1/2+z
loop_
_atom_site_type_symbol
_atom_site_label
_atom_site_fract_x
_atom_site_fract_y
_atom_site_fract_z
Si Si1 0.538582 0.275446 0.631006
Si Si2 0.668032 0.870787 0.500000
Si Si3 0.802376 0.803825 0.500000
Si Si4 0.960008 0.643262 0.131741
Si Si5 0.844517 0.500000 0.250000
Si Si6 0.687183 0.123015 0.258855
Si Si7 0.416649 0.013010 0.500000
Si Si8 0.189468 0.797224 0.267804
O O1 0.500000 0.297910 0.750000
O O2 0.514388 0.296218 0.500000
O O3 0.527668 0.209088 0.630959
O O4 0.622918 0.286351 0.647630
O O5 0.754303 0.860052 0.500000
O O6 0.655340 0.848219 0.364713
O O7 0.623247 0.927126 0.500000
O O8 0.750000 0.750000 0.500000
O O9 0.838986 0.799951 0.370551
O O10 0.875678 0.633445 0.147299
O O11 0.000000 0.619291 0.250000
O O12 0.983523 0.622474 0.000000
O O13 0.803781 0.442059 0.233415
O O14 0.889561 0.490295 0.371436
O O15 0.762735 0.148895 0.291815
O O16 0.500000 0.000000 0.500000
O O17 0.250000 0.750000 0.276151
#
# Coordination Sequence:
#
# PCOD9495598 Si02
#       8
#    16   8   8  16   8  16   8  16
#     4  10  22  38  54  82 117 149 177 223 276 332
#     4   8  18  32  48  74 104 128 177 237 272 322
#     4   8  16  28  50  80 101 133 178 220 286 326
#     4  10  22  36  51  75 108 148 187 227 274 321
#     4  10  23  38  52  72 107 136 188 236 270 318
#     4  10  20  36  55  78 104 141 185 234 277 319
#     4  10  20  36  54  70  98 147 191 230 271 319
#     4  10  18  34  57  82 107 141 182 230 274 332
#
# _framework density 19.094999000000001
#
# number of rings (size 3 to 8) (size 9 to 14) (size 15 to 20)
#    0.000    2.333    1.667    0.250    3.500    3.667 
#    0.000    0.000    0.000    0.000    0.000    0.583 
#    0.000    1.333    0.000    0.000    0.000    0.000 
#
# Total GULP energy -267219.162813 kJ/mol
# GULP energy per Si atom -5567.065892 kJ/mol
# Density = 1.905154 g / cm^3
# Si number density = 19.094999 Si / 1000 Ang^3
#
#
#
# Elastic Constant Matrix: (Units=GPa)
#
#
# Indices 1 2 3 4 5 6 
#
# 1 54.1252 16.6989 41.9430 0.0000 0.0000 0.0000
# 2 16.6989 54.2628 16.3108 0.0000 0.0000 0.0000
# 3 41.9430 16.3108 145.2462 0.0000 0.0000 0.0000
# 4 0.0000 0.0000 0.0000 11.1957 0.0000 0.0000
# 5 0.0000 0.0000 0.0000 0.0000 21.0914 0.0000
# 6 0.0000 0.0000 0.0000 0.0000 0.0000 15.1560
#
#
#
# Elastic Compliance Matrix: (Units=1/GPa)
#
#
# Indices 1 2 3 4 5 6 
#
# 1 0.025464 -0.005822 -0.006699 0.000000 0.000000 0.000000
# 2 -0.005822 0.020404 -0.000610 0.000000 0.000000 0.000000
# 3 -0.006699 -0.000610 0.008888 0.000000 0.000000 0.000000
# 4 0.000000 0.000000 0.000000 0.089320 0.000000 0.000000
# 5 0.000000 0.000000 0.000000 0.000000 0.047413 0.000000
# 6 0.000000 0.000000 0.000000 0.000000 0.000000 0.065981
#
#
# Mechanical properties :
#
#
# Convention : Reuss Voigt Hill
#
# Bulk Modulus (GPa) = 35.09756 44.83775 39.96765
# Shear Modulus (GPa) = 17.05151 21.40072 19.22611
#
# Velocity S-wave (km/s) = 2.99152 3.35139 3.17656
# Velocity P-wave (km/s) = 5.50933 6.20549 5.86774
#
# Compressibility (1/GPa) = 0.02849201
#
# Stress axis : x y z
#
# Youngs Moduli (GPa) = 39.27186 49.01006 112.51208
#
# Poissons Ratio (x) = 0.28536 0.75375
# Poissons Ratio (y) = 0.22866 0.06863
# Poissons Ratio (z) = 0.26309 0.02989
#
# Static dielectric constant tensor:
#      x y z
#    x 1.652650 0.000000 0.000000 
#    y 0.000000 1.699820 0.000000 
#    z 0.000000 0.000000 1.858970 
# 
# From -- ./inp_files/18012.got.cif
#   From: 2010.05.17/outbox.cif.g08.bks.cpg/sg66_10_cif.got.tgz:18012.got - 2010.06.03 17:51:23.
