data_PCOD9495243
_publ_section_title
;
Structure prediction by ZEFSAII (Michael W. Deem and Ramdas Pophale) SiO2 
 PCOD9495243
Probable space group: C C C M
;
_chemical_formula_sum "Si O2"
_cell_formula_units_Z 96
_cell_length_a 27.508701
_cell_length_b 12.526870
_cell_length_c 17.448579
_cell_angle_alpha 90.000000
_cell_angle_beta 90.000000
_cell_angle_gamma 90.000000
_cell_volume 6012.744053
_symmetry_space_group_name_H-M "C C C M"
_symmetry_group_IT_number 66
_symmetry_cell_setting 'orthorhombic'
loop_
_space_group_symop_operation_xyz
x,y,z
-x,-y,z
x,-y,1/2-z
-x,y,1/2-z
-x,-y,-z
x,y,-z
-x,y,1/2+z
x,-y,1/2+z
1/2+x,1/2+y,z
1/2-x,1/2-y,z
1/2+x,1/2-y,1/2-z
1/2-x,1/2+y,1/2-z
1/2-x,1/2-y,-z
1/2+x,1/2+y,-z
1/2-x,1/2+y,1/2+z
1/2+x,1/2-y,1/2+z
loop_
_atom_site_type_symbol
_atom_site_label
_atom_site_fract_x
_atom_site_fract_y
_atom_site_fract_z
Si Si1 0.828596 0.742911 0.407693
Si Si2 0.494730 0.628570 0.584527
Si Si3 0.910927 0.860429 0.672425
Si Si4 0.892226 0.893266 0.851557
Si Si5 0.284594 0.348343 0.093054
Si Si6 0.248357 0.422079 0.407275
O O1 0.834598 0.742924 0.500000
O O2 0.877866 0.770657 0.365669
O O3 0.801809 0.633937 0.383611
O O4 0.791314 0.839313 0.388092
O O5 0.500000 0.500000 0.582762
O O6 0.508464 0.669032 0.500000
O O7 0.533429 0.660530 0.648888
O O8 0.438624 0.651754 0.602615
O O9 0.902331 0.868856 0.762653
O O10 0.894666 0.977233 0.639352
O O11 0.839952 0.849300 0.876902
O O12 0.250000 0.250000 0.116177
O O13 0.260374 0.459683 0.119890
O O14 0.286917 0.348698 0.000000
O O15 0.247102 0.425830 0.500000
#
# Coordination Sequence:
#
# PCOD9495243 Si02
#       6
#    16  16  16  16  16  16
#     4   9  15  26  46  67  88 115 150 191 231 269
#     4   9  17  28  45  65  88 120 156 189 226 278
#     4  10  18  28  43  67  93 123 147 186 238 281
#     4  10  19  30  41  64  96 125 151 189 230 273
#     4  10  19  32  48  64  89 127 165 192 220 269
#     4   8  15  27  44  66  87 114 152 194 229 260
#
# _framework density 15.966087999999999
#
# number of rings (size 3 to 8) (size 9 to 14) (size 15 to 20)
#    0.000    2.667    1.667    2.500    0.000    3.333 
#    3.000    0.000    0.000    0.000    0.000    1.167 
#    0.000    9.333    0.000    0.000    0.000    0.000 
#
# Total GULP energy -267276.922268 kJ/mol
# GULP energy per Si atom -5568.269214 kJ/mol
# Density = 1.592975 g / cm^3
# Si number density = 15.966088 Si / 1000 Ang^3
#
#
#
# Elastic Constant Matrix: (Units=GPa)
#
#
# Indices 1 2 3 4 5 6 
#
# 1 125.6654 52.7170 32.7035 0.0000 0.0000 0.0000
# 2 52.7170 65.2412 17.9022 0.0000 0.0000 0.0000
# 3 32.7035 17.9022 31.3818 0.0000 0.0000 0.0000
# 4 0.0000 0.0000 0.0000 5.8066 0.0000 0.0000
# 5 0.0000 0.0000 0.0000 0.0000 -50.1640 0.0000
# 6 0.0000 0.0000 0.0000 0.0000 0.0000 21.1592
#
#
#
# Elastic Compliance Matrix: (Units=1/GPa)
#
#
# Indices 1 2 3 4 5 6 
#
# 1 0.014184 -0.008779 -0.009773 0.000000 0.000000 0.000000
# 2 -0.008779 0.023607 -0.004318 0.000000 0.000000 0.000000
# 3 -0.009773 -0.004318 0.044513 0.000000 0.000000 0.000000
# 4 0.000000 0.000000 0.000000 0.172217 0.000000 0.000000
# 5 0.000000 0.000000 0.000000 0.000000 -0.019935 0.000000
# 6 0.000000 0.000000 0.000000 0.000000 0.000000 0.047261
#
#
# Mechanical properties :
#
#
# Convention : Reuss Voigt Hill
#
# Bulk Modulus (GPa) = 27.34942 47.65933 37.50438
# Shear Modulus (GPa) = 14.71562 3.29141 9.00351
#
# Velocity S-wave (km/s) = 3.03921 1.43735 2.37727
# Velocity P-wave (km/s) = 5.42979 5.71575 5.57460
#
# Compressibility (1/GPa) = 0.03656384
#
# Stress axis : x y z
#
# Youngs Moduli (GPa) = 70.50195 42.36118 22.46520
#
# Poissons Ratio (x) = 0.37191 0.21955
# Poissons Ratio (y) = 0.61897 0.09699
# Poissons Ratio (z) = 0.68902 0.18289
#
# Static dielectric constant tensor:
#      x y z
#    x 1.543390 0.000000 0.000000 
#    y 0.000000 1.525400 0.000000 
#    z 0.000000 0.000000 1.551900 
# 
# From -- ./inp_files/38868.got.cif
#   From: 2010.05.17/outbox.cif.g08.bks.cpg/sg66_20_cif.got.tgz:38868.got - 2010.06.03 17:51:23.
