data_PCOD9495199
_publ_section_title
;
Structure prediction by ZEFSAII (Michael W. Deem and Ramdas Pophale) SiO2 
 PCOD9495199
Probable space group: C C C M
;
_chemical_formula_sum "Si O2"
_cell_formula_units_Z 72
_cell_length_a 26.157499
_cell_length_b 8.881119
_cell_length_c 16.946511
_cell_angle_alpha 90.000000
_cell_angle_beta 90.000000
_cell_angle_gamma 90.000000
_cell_volume 3936.807728
_symmetry_space_group_name_H-M "C C C M"
_symmetry_group_IT_number 66
_symmetry_cell_setting 'orthorhombic'
loop_
_space_group_symop_operation_xyz
x,y,z
-x,-y,z
x,-y,1/2-z
-x,y,1/2-z
-x,-y,-z
x,y,-z
-x,y,1/2+z
x,-y,1/2+z
1/2+x,1/2+y,z
1/2-x,1/2-y,z
1/2+x,1/2-y,1/2-z
1/2-x,1/2+y,1/2-z
1/2-x,1/2-y,-z
1/2+x,1/2+y,-z
1/2-x,1/2+y,1/2+z
1/2+x,1/2-y,1/2+z
loop_
_atom_site_type_symbol
_atom_site_label
_atom_site_fract_x
_atom_site_fract_y
_atom_site_fract_z
Si Si1 0.151965 0.500000 0.250000
Si Si2 0.853496 0.617416 0.000000
Si Si3 0.192670 0.756607 0.645079
Si Si4 0.050023 0.602990 0.000000
Si Si5 0.691530 0.801045 0.500000
Si Si6 0.359814 0.500000 0.750000
Si Si7 0.609173 0.758250 0.365145
O O1 0.186846 0.620419 0.293652
O O2 0.118443 0.406539 0.312097
O O3 0.846564 0.720121 0.075752
O O4 0.904537 0.520206 0.000000
O O5 0.811208 0.483423 0.000000
O O6 0.250000 0.750000 0.613690
O O7 0.175849 0.904321 0.691349
O O8 0.061551 0.707122 0.076814
O O9 0.000000 0.500000 0.000000
O O10 0.750000 0.750000 0.500000
O O11 0.658735 0.747152 0.423635
O O12 0.391339 0.382857 0.694793
#
# Coordination Sequence:
#
# PCOD9495199 Si02
#       7
#     8   8  16   8   8   8  16
#     4  10  17  36  53  76 124 148 198 241 285 346
#     4  10  21  38  54  83 113 150 203 258 278 355
#     4  11  21  33  53  82 120 165 203 229 291 355
#     4  10  20  42  70  89 104 153 214 253 309 358
#     4  10  20  32  54  76 122 163 209 246 283 337
#     4  10  23  34  56  87 128 160 189 248 311 350
#     4   9  20  37  58  87 117 157 192 255 298 354
#
# _framework density 18.288929
#
# number of rings (size 3 to 8) (size 9 to 14) (size 15 to 20)
#    0.000    2.222    4.444    1.000    3.111    5.333 
#    0.000    0.556    0.000    4.000    0.000    0.000 
#    0.000    0.000    0.000    0.000    0.000    0.000 
#
# Total GULP energy -200617.009995 kJ/mol
# GULP energy per Si atom -5572.694722 kJ/mol
# Density = 1.824730 g / cm^3
# Si number density = 18.288929 Si / 1000 Ang^3
#
#
#
# Elastic Constant Matrix: (Units=GPa)
#
#
# Indices 1 2 3 4 5 6 
#
# 1 67.3889 29.2994 24.2140 0.0000 0.0000 0.0000
# 2 29.2994 101.8959 39.0723 0.0000 0.0000 0.0000
# 3 24.2140 39.0723 94.9254 0.0000 0.0000 0.0000
# 4 0.0000 0.0000 0.0000 44.6949 0.0000 0.0000
# 5 0.0000 0.0000 0.0000 0.0000 12.2002 0.0000
# 6 0.0000 0.0000 0.0000 0.0000 0.0000 19.8624
#
#
#
# Elastic Compliance Matrix: (Units=1/GPa)
#
#
# Indices 1 2 3 4 5 6 
#
# 1 0.017588 -0.003962 -0.002855 0.000000 0.000000 0.000000
# 2 -0.003962 0.012546 -0.004153 0.000000 0.000000 0.000000
# 3 -0.002855 -0.004153 0.012973 0.000000 0.000000 0.000000
# 4 0.000000 0.000000 0.000000 0.022374 0.000000 0.000000
# 5 0.000000 0.000000 0.000000 0.000000 0.081966 0.000000
# 6 0.000000 0.000000 0.000000 0.000000 0.000000 0.050346
#
#
# Mechanical properties :
#
#
# Convention : Reuss Voigt Hill
#
# Bulk Modulus (GPa) = 47.24968 49.93129 48.59049
# Shear Modulus (GPa) = 22.04689 26.79314 24.42001
#
# Velocity S-wave (km/s) = 3.47576 3.83167 3.65805
# Velocity P-wave (km/s) = 6.48067 6.85101 6.66841
#
# Compressibility (1/GPa) = 0.02116416
#
# Stress axis : x y z
#
# Youngs Moduli (GPa) = 56.85692 79.70750 77.08607
#
# Poissons Ratio (x) = 0.31583 0.22012
# Poissons Ratio (y) = 0.22529 0.32016
# Poissons Ratio (z) = 0.16235 0.33105
#
# Static dielectric constant tensor:
#      x y z
#    x 1.611770 0.000000 0.000000 
#    y 0.000000 1.648460 0.000000 
#    z 0.000000 0.000000 1.639970 
# 
# From -- ./inp_files/36902.got.cif
#   From: 2010.05.17/outbox.cif.g08.bks.cpg/sg66_19_cif.got.tgz:36902.got - 2010.06.03 17:51:23.
