data_PCOD9495909
_publ_section_title
;
Structure prediction by ZEFSAII (Michael W. Deem and Ramdas Pophale) SiO2 
 PCOD9495909
Probable space group: C C C M
;
_chemical_formula_sum "Si O2"
_cell_formula_units_Z 88
_cell_length_a 29.202263
_cell_length_b 13.244302
_cell_length_c 13.478650
_cell_angle_alpha 90.000000
_cell_angle_beta 90.000000
_cell_angle_gamma 90.000000
_cell_volume 5213.051066
_symmetry_space_group_name_H-M "C C C M"
_symmetry_group_IT_number 66
_symmetry_cell_setting 'orthorhombic'
loop_
_space_group_symop_operation_xyz
x,y,z
-x,-y,z
x,-y,1/2-z
-x,y,1/2-z
-x,-y,-z
x,y,-z
-x,y,1/2+z
x,-y,1/2+z
1/2+x,1/2+y,z
1/2-x,1/2-y,z
1/2+x,1/2-y,1/2-z
1/2-x,1/2+y,1/2-z
1/2-x,1/2-y,-z
1/2+x,1/2+y,-z
1/2-x,1/2+y,1/2+z
1/2+x,1/2-y,1/2+z
loop_
_atom_site_type_symbol
_atom_site_label
_atom_site_fract_x
_atom_site_fract_y
_atom_site_fract_z
Si Si1 0.967772 0.643733 0.379764
Si Si2 0.789619 0.834745 0.384222
Si Si3 0.370730 0.194678 0.380052
Si Si4 0.936496 0.412782 0.380481
Si Si5 0.338490 0.037552 0.117915
Si Si6 0.242849 0.500000 0.750000
O O1 0.969478 0.653277 0.500000
O O2 0.923303 0.705214 0.345202
O O3 0.952065 0.528036 0.359981
O O4 0.020535 0.654351 0.346064
O O5 0.795208 0.865820 0.500000
O O6 0.750000 0.750000 0.383587
O O7 0.835349 0.779305 0.345942
O O8 0.772926 0.925693 0.316241
O O9 0.371809 0.203493 0.500000
O O10 0.350967 0.081202 0.365202
O O11 0.934531 0.405040 0.500000
O O12 0.883981 0.401900 0.347830
O O13 0.292260 0.058700 0.176707
O O14 0.332502 0.050941 0.000000
#
# Coordination Sequence:
#
# PCOD9495909 Si02
#       6
#    16  16  16  16  16   8
#     4   7   9  15  32  56  77 105 141 179 219 261
#     4  10  19  32  47  65  87 118 165 213 246 280
#     4   8  13  24  42  60  80 109 154 200 236 269
#     4   7  10  17  31  53  81 109 141 174 212 263
#     4   9  16  26  40  61  87 119 156 192 227 276
#     4  12  20  26  44  67  90 126 167 204 244 282
#
# _framework density 16.880710000000001
#
# number of rings (size 3 to 8) (size 9 to 14) (size 15 to 20)
#    0.000    3.455    1.818    3.818    0.000    0.000 
#    0.000    0.000    0.000   10.909    0.000    0.000 
#    0.000    0.000    0.000    9.818    0.000   44.000 
#
# Total GULP energy -244951.687431 kJ/mol
# GULP energy per Si atom -5567.083805 kJ/mol
# Density = 1.684229 g / cm^3
# Si number density = 16.880710 Si / 1000 Ang^3
#
#
#
# Elastic Constant Matrix: (Units=GPa)
#
#
# Indices 1 2 3 4 5 6 
#
# 1 152.7890 43.7658 34.1255 0.0000 0.0000 0.0000
# 2 43.7658 33.9455 19.6871 0.0000 0.0000 0.0000
# 3 34.1255 19.6871 73.1945 0.0000 0.0000 0.0000
# 4 0.0000 0.0000 0.0000 15.7349 0.0000 0.0000
# 5 0.0000 0.0000 0.0000 0.0000 10.2492 0.0000
# 6 0.0000 0.0000 0.0000 0.0000 0.0000 24.6248
#
#
#
# Elastic Compliance Matrix: (Units=1/GPa)
#
#
# Indices 1 2 3 4 5 6 
#
# 1 0.010513 -0.012691 -0.001488 0.000000 0.000000 0.000000
# 2 -0.012691 0.050224 -0.007592 0.000000 0.000000 0.000000
# 3 -0.001488 -0.007592 0.016398 0.000000 0.000000 0.000000
# 4 0.000000 0.000000 0.000000 0.063553 0.000000 0.000000
# 5 0.000000 0.000000 0.000000 0.000000 0.097569 0.000000
# 6 0.000000 0.000000 0.000000 0.000000 0.000000 0.040609
#
#
# Mechanical properties :
#
#
# Convention : Reuss Voigt Hill
#
# Bulk Modulus (GPa) = 29.76762 50.56509 40.16636
# Shear Modulus (GPa) = 14.98778 20.94516 17.96647
#
# Velocity S-wave (km/s) = 2.98294 3.52628 3.26593
# Velocity P-wave (km/s) = 5.43473 6.82634 6.16990
#
# Compressibility (1/GPa) = 0.03359355
#
# Stress axis : x y z
#
# Youngs Moduli (GPa) = 95.12447 19.91062 60.98346
#
# Poissons Ratio (x) = 0.25268 0.09073
# Poissons Ratio (y) = 1.20722 0.46298
# Poissons Ratio (z) = 0.14153 0.15116
#
# Static dielectric constant tensor:
#      x y z
#    x 1.647570 0.000000 0.000000 
#    y 0.000000 1.525250 0.000000 
#    z 0.000000 0.000000 1.659500 
# 
# From -- ./inp_files/33697.got.cif
#   From: 2010.05.17/outbox.cif.g08.bks.cpg/sg66_17_cif.got.tgz:33697.got - 2010.06.03 17:51:23.
