data_PCOD9495330
_publ_section_title
;
Structure prediction by ZEFSAII (Michael W. Deem and Ramdas Pophale) SiO2 
 PCOD9495330
Probable space group: C C C M
;
_chemical_formula_sum "Si O2"
_cell_formula_units_Z 64
_cell_length_a 28.671307
_cell_length_b 11.631484
_cell_length_c 8.485932
_cell_angle_alpha 90.000000
_cell_angle_beta 90.000000
_cell_angle_gamma 90.000000
_cell_volume 2829.972178
_symmetry_space_group_name_H-M "C C C M"
_symmetry_group_IT_number 66
_symmetry_cell_setting 'orthorhombic'
loop_
_space_group_symop_operation_xyz
x,y,z
-x,-y,z
x,-y,1/2-z
-x,y,1/2-z
-x,-y,-z
x,y,-z
-x,y,1/2+z
x,-y,1/2+z
1/2+x,1/2+y,z
1/2-x,1/2-y,z
1/2+x,1/2-y,1/2-z
1/2-x,1/2+y,1/2-z
1/2-x,1/2-y,-z
1/2+x,1/2+y,-z
1/2-x,1/2+y,1/2+z
1/2+x,1/2-y,1/2+z
loop_
_atom_site_type_symbol
_atom_site_label
_atom_site_fract_x
_atom_site_fract_y
_atom_site_fract_z
Si Si1 0.650185 0.839673 0.681669
Si Si2 0.743379 0.879170 0.819510
Si Si3 0.393303 0.626957 0.314949
Si Si4 0.452664 0.813372 0.814905
O O1 0.664369 0.857668 0.500000
O O2 0.687230 0.888220 0.803044
O O3 0.644356 0.703533 0.720199
O O4 0.596613 0.878848 0.703960
O O5 0.750000 0.750000 0.747035
O O6 0.762165 0.000000 0.750000
O O7 0.758820 0.873316 0.000000
O O8 0.394907 0.500000 0.250000
O O9 0.383570 0.630481 0.500000
O O10 0.441255 0.695397 0.278150
O O11 0.500000 0.865702 0.750000
O O12 0.457359 0.790440 0.000000
#
# Coordination Sequence:
#
# PCOD9495330 Si02
#       4
#    16  16  16  16
#     4   9  20  37  57  84 119 160 206 257 318 382
#     4  11  25  45  71 102 134 173 219 270 333 398
#     4  10  18  30  48  74 112 157 208 264 320 381
#     4   9  18  31  50  79 115 161 211 263 321 382
#
# _framework density 22.615062000000002
#
# number of rings (size 3 to 8) (size 9 to 14) (size 15 to 20)
#    1.500    0.750    0.000    3.750    0.000    3.500 
#    0.000    5.000    0.000    0.750    0.000    5.250 
#    0.000    0.000    0.000    0.000    0.000    0.000 
#
# Total GULP energy -178196.348732 kJ/mol
# GULP energy per Si atom -5568.635898 kJ/mol
# Density = 2.256359 g / cm^3
# Si number density = 22.615062 Si / 1000 Ang^3
#
#
#
# Elastic Constant Matrix: (Units=GPa)
#
#
# Indices 1 2 3 4 5 6 
#
# 1 58.3037 -4.8687 5.9110 0.0000 0.0000 0.0000
# 2 -4.8687 157.2765 39.4137 0.0000 0.0000 0.0000
# 3 5.9110 39.4137 76.0211 0.0000 0.0000 0.0000
# 4 0.0000 0.0000 0.0000 20.4404 0.0000 0.0000
# 5 0.0000 0.0000 0.0000 0.0000 -10.3074 0.0000
# 6 0.0000 0.0000 0.0000 0.0000 0.0000 2.4770
#
#
#
# Elastic Compliance Matrix: (Units=1/GPa)
#
#
# Indices 1 2 3 4 5 6 
#
# 1 0.017426 0.001010 -0.001879 0.000000 0.000000 0.000000
# 2 0.001010 0.007366 -0.003898 0.000000 0.000000 0.000000
# 3 -0.001879 -0.003898 0.015321 0.000000 0.000000 0.000000
# 4 0.000000 0.000000 0.000000 0.048923 0.000000 0.000000
# 5 0.000000 0.000000 0.000000 0.000000 -0.097018 0.000000
# 6 0.000000 0.000000 0.000000 0.000000 0.000000 0.403709
#
#
# Mechanical properties :
#
#
# Convention : Reuss Voigt Hill
#
# Bulk Modulus (GPa) = 32.69950 41.39036 37.04493
# Shear Modulus (GPa) = 12.03504 19.26504 15.65004
#
# Velocity S-wave (km/s) = 2.30938 2.92184 2.63348
# Velocity P-wave (km/s) = 4.64775 5.45204 5.06588
#
# Compressibility (1/GPa) = 0.03058150
#
# Stress axis : x y z
#
# Youngs Moduli (GPa) = 57.38413 135.75412 65.26948
#
# Poissons Ratio (x) = -0.13715 0.12263
# Poissons Ratio (y) = -0.05797 0.25440
# Poissons Ratio (z) = 0.10781 0.52912
#
# Static dielectric constant tensor:
#      x y z
#    x 1.921640 0.000000 0.000000 
#    y 0.000000 1.923760 0.000000 
#    z 0.000000 0.000000 1.796780 
# 
# From -- ./inp_files/11196.got.cif
#   From: 2010.05.17/outbox.cif.g08.bks.cpg/sg66_6_cif.got.tgz:11196.got - 2010.06.03 17:51:23.
