data_PCOD9495280
_publ_section_title
;
Structure prediction by ZEFSAII (Michael W. Deem and Ramdas Pophale) SiO2 
 PCOD9495280
Probable space group: C C C M
;
_chemical_formula_sum "Si O2"
_cell_formula_units_Z 68
_cell_length_a 5.636206
_cell_length_b 23.112437
_cell_length_c 18.550696
_cell_angle_alpha 90.000000
_cell_angle_beta 90.000000
_cell_angle_gamma 90.000000
_cell_volume 2416.533426
_symmetry_space_group_name_H-M "C C C M"
_symmetry_group_IT_number 66
_symmetry_cell_setting 'orthorhombic'
loop_
_space_group_symop_operation_xyz
x,y,z
-x,-y,z
x,-y,1/2-z
-x,y,1/2-z
-x,-y,-z
x,y,-z
-x,y,1/2+z
x,-y,1/2+z
1/2+x,1/2+y,z
1/2-x,1/2-y,z
1/2+x,1/2-y,1/2-z
1/2-x,1/2+y,1/2-z
1/2-x,1/2-y,-z
1/2+x,1/2+y,-z
1/2-x,1/2+y,1/2+z
1/2+x,1/2-y,1/2+z
loop_
_atom_site_type_symbol
_atom_site_label
_atom_site_fract_x
_atom_site_fract_y
_atom_site_fract_z
Si Si1 0.906862 0.872262 0.000000
Si Si2 0.643425 0.854344 0.340942
Si Si3 0.500000 0.500000 0.250000
Si Si4 0.590993 0.867254 0.500000
Si Si5 0.146008 0.814019 0.343566
Si Si6 0.743888 0.514056 0.380160
O O1 0.894234 0.835316 0.926517
O O2 0.652522 0.902605 0.000000
O O3 0.163071 0.902061 0.000000
O O4 0.602372 0.833235 0.425022
O O5 0.372892 0.850044 0.312920
O O6 0.730262 0.920716 0.349466
O O7 0.876042 0.820118 0.313825
O O8 0.683787 0.474586 0.308752
O O9 0.250000 0.750000 0.340465
O O10 0.500000 0.500000 0.420737
O O11 0.000000 0.500000 0.409750
#
# Coordination Sequence:
#
# PCOD9495280 Si02
#       6
#     8  16   4   8  16  16
#     4   8  15  26  42  63  95 138 181 219 234 254
#     4  10  19  32  49  73 107 140 169 209 247 287
#     4   8  22  36  62  78 102 104 170 212 278 306
#     4   8  16  28  43  67 101 140 175 197 235 294
#     4  10  18  29  46  72 104 141 179 205 238 284
#     4  10  20  36  56  80 103 121 160 218 260 308
#
# _framework density 28.139481
#
# number of rings (size 3 to 8) (size 9 to 14) (size 15 to 20)
#    0.706    1.882    0.000    2.824    0.000    0.000 
#    0.000    8.235    0.000    0.000    0.000    3.294 
#    0.000    0.000    0.000    0.000    0.000    0.000 
#
# Total GULP energy -189302.364108 kJ/mol
# GULP energy per Si atom -5567.716591 kJ/mol
# Density = 2.807543 g / cm^3
# Si number density = 28.139481 Si / 1000 Ang^3
#
#
#
# Elastic Constant Matrix: (Units=GPa)
#
#
# Indices 1 2 3 4 5 6 
#
# 1 394.5325 74.8530 36.2517 0.0000 0.0000 0.0000
# 2 74.8530 126.1359 -10.2777 0.0000 0.0000 0.0000
# 3 36.2517 -10.2777 83.6949 0.0000 0.0000 0.0000
# 4 0.0000 0.0000 0.0000 15.8127 0.0000 0.0000
# 5 0.0000 0.0000 0.0000 0.0000 16.6664 0.0000
# 6 0.0000 0.0000 0.0000 0.0000 0.0000 36.4669
#
#
#
# Elastic Compliance Matrix: (Units=1/GPa)
#
#
# Indices 1 2 3 4 5 6 
#
# 1 0.003044 -0.001933 -0.001556 0.000000 0.000000 0.000000
# 2 -0.001933 0.009236 0.001972 0.000000 0.000000 0.000000
# 3 -0.001556 0.001972 0.012864 0.000000 0.000000 0.000000
# 4 0.000000 0.000000 0.000000 0.063240 0.000000 0.000000
# 5 0.000000 0.000000 0.000000 0.000000 0.060001 0.000000
# 6 0.000000 0.000000 0.000000 0.000000 0.000000 0.027422
#
#
# Mechanical properties :
#
#
# Convention : Reuss Voigt Hill
#
# Bulk Modulus (GPa) = 45.23071 89.55749 67.39410
# Shear Modulus (GPa) = 26.85089 47.35829 37.10459
#
# Velocity S-wave (km/s) = 3.09238 4.10687 3.63519
# Velocity P-wave (km/s) = 5.37206 7.37454 6.45147
#
# Compressibility (1/GPa) = 0.02210887
#
# Stress axis : x y z
#
# Youngs Moduli (GPa) = 328.46556 108.27204 77.73450
#
# Poissons Ratio (x) = 0.20934 0.12096
# Poissons Ratio (y) = 0.63508 -0.15326
# Poissons Ratio (z) = 0.51113 -0.21347
#
# Static dielectric constant tensor:
#      x y z
#    x 2.230830 0.000000 0.000000 
#    y 0.000000 2.143970 0.000000 
#    z 0.000000 0.000000 2.336740 
# 
# From -- ./inp_files/61491.got.cif
#   From: 2010.05.17/outbox.cif.g08.bks.cpg/sg66_31_cif.got.tgz:61491.got - 2010.06.03 17:51:23.
