data_PCOD9495791
_publ_section_title
;
Structure prediction by ZEFSAII (Michael W. Deem and Ramdas Pophale) SiO2 
 PCOD9495791
Probable space group: C C C M
;
_chemical_formula_sum "Si O2"
_cell_formula_units_Z 80
_cell_length_a 5.066781
_cell_length_b 34.855992
_cell_length_c 26.374411
_cell_angle_alpha 90.000000
_cell_angle_beta 90.000000
_cell_angle_gamma 90.000000
_cell_volume 4657.923485
_symmetry_space_group_name_H-M "C C C M"
_symmetry_group_IT_number 66
_symmetry_cell_setting 'orthorhombic'
loop_
_space_group_symop_operation_xyz
x,y,z
-x,-y,z
x,-y,1/2-z
-x,y,1/2-z
-x,-y,-z
x,y,-z
-x,y,1/2+z
x,-y,1/2+z
1/2+x,1/2+y,z
1/2-x,1/2-y,z
1/2+x,1/2-y,1/2-z
1/2-x,1/2+y,1/2-z
1/2-x,1/2-y,-z
1/2+x,1/2+y,-z
1/2-x,1/2+y,1/2+z
1/2+x,1/2-y,1/2+z
loop_
_atom_site_type_symbol
_atom_site_label
_atom_site_fract_x
_atom_site_fract_y
_atom_site_fract_z
Si Si1 0.749878 0.294492 0.714023
Si Si2 0.333128 0.294502 0.558145
Si Si3 0.339136 0.170264 0.892267
Si Si4 0.148244 0.036887 0.441740
Si Si5 0.133947 0.587775 0.441323
O O1 0.500000 0.300226 0.750000
O O2 0.750000 0.250000 0.695481
O O3 0.763984 0.321707 0.665642
O O4 0.000000 0.299435 0.750000
O O5 0.293569 0.307476 0.500000
O O6 0.250000 0.250000 0.560326
O O7 0.629693 0.305083 0.574478
O O8 0.132639 0.315222 0.595833
O O9 0.340546 0.126213 0.909107
O O10 0.216080 0.025263 0.500000
O O11 0.414751 0.057065 0.422054
O O12 0.920024 0.068510 0.442628
O O13 0.000000 0.000000 0.417939
O O14 0.059269 0.597300 0.500000
#
# Coordination Sequence:
#
# PCOD9495791 Si02
#       5
#    16  16  16  16  16
#     4  10  21  37  55  73  94 127 175 225 268 308
#     4  11  22  34  49  71 101 139 176 205 244 309
#     4  12  22  35  53  74 103 134 170 218 270 309
#     4   9  17  30  47  68  99 138 172 198 230 284
#     4  10  19  30  47  73 103 134 166 201 245 298
#
# _framework density 17.175034
#
# number of rings (size 3 to 8) (size 9 to 14) (size 15 to 20)
#    0.000    1.600    0.000    6.600    0.000    7.200 
#    0.000    0.000    0.000    0.000    0.000    0.000 
#    0.000   12.000    0.000    0.000    0.000    0.000 
#
# Total GULP energy -223190.282385 kJ/mol
# GULP energy per Si atom -5579.757060 kJ/mol
# Density = 1.713594 g / cm^3
# Si number density = 17.175034 Si / 1000 Ang^3
#
#
#
# Elastic Constant Matrix: (Units=GPa)
#
#
# Indices 1 2 3 4 5 6 
#
# 1 81.0476 -0.6549 5.4848 0.0000 0.0000 0.0000
# 2 -0.6549 55.6666 28.5919 0.0000 0.0000 0.0000
# 3 5.4848 28.5919 65.5028 0.0000 0.0000 0.0000
# 4 0.0000 0.0000 0.0000 -385.3334 0.0000 0.0000
# 5 0.0000 0.0000 0.0000 0.0000 -5.2317 0.0000
# 6 0.0000 0.0000 0.0000 0.0000 0.0000 27.4943
#
#
#
# Elastic Compliance Matrix: (Units=1/GPa)
#
#
# Indices 1 2 3 4 5 6 
#
# 1 0.012442 0.000878 -0.001425 0.000000 0.000000 0.000000
# 2 0.000878 0.023218 -0.010208 0.000000 0.000000 0.000000
# 3 -0.001425 -0.010208 0.019842 0.000000 0.000000 0.000000
# 4 0.000000 0.000000 0.000000 -0.002595 0.000000 0.000000
# 5 0.000000 0.000000 0.000000 0.000000 -0.191141 0.000000
# 6 0.000000 0.000000 0.000000 0.000000 0.000000 0.036371
#
#
# Mechanical properties :
#
#
# Convention : Reuss Voigt Hill
#
# Bulk Modulus (GPa) = 29.41907 29.89560 29.65733
# Shear Modulus (GPa) = -72.43896 -61.36115 -66.90006
#
# Velocity S-wave (km/s) = -6.50142 -5.98369 -6.24792
# Velocity P-wave (km/s) = 6.26033 5.50410 5.89436
#
# Compressibility (1/GPa) = 0.03399156
#
# Stress axis : x y z
#
# Youngs Moduli (GPa) = 80.37305 43.07089 50.39909
#
# Poissons Ratio (x) = -0.03783 0.07183
# Poissons Ratio (y) = -0.07060 0.51447
# Poissons Ratio (z) = 0.11455 0.43967
#
# Static dielectric constant tensor:
#      x y z
#    x 1.584630 0.000000 0.000000 
#    y 0.000000 1.601610 0.000000 
#    z 0.000000 0.000000 1.551240 
# 
# From -- ./inp_files/54351.got.cif
#   From: 2010.05.17/outbox.cif.g08.bks.cpg/sg66_28_cif.got.tgz:54351.got - 2010.06.03 17:51:23.
