data_PCOD9495796
_publ_section_title
;
Structure prediction by ZEFSAII (Michael W. Deem and Ramdas Pophale) SiO2 
 PCOD9495796
Probable space group: C C C M
;
_chemical_formula_sum "Si O2"
_cell_formula_units_Z 104
_cell_length_a 26.263845
_cell_length_b 21.395849
_cell_length_c 9.311825
_cell_angle_alpha 90.000000
_cell_angle_beta 90.000000
_cell_angle_gamma 90.000000
_cell_volume 5232.661443
_symmetry_space_group_name_H-M "C C C M"
_symmetry_group_IT_number 66
_symmetry_cell_setting 'orthorhombic'
loop_
_space_group_symop_operation_xyz
x,y,z
-x,-y,z
x,-y,1/2-z
-x,y,1/2-z
-x,-y,-z
x,y,-z
-x,y,1/2+z
x,-y,1/2+z
1/2+x,1/2+y,z
1/2-x,1/2-y,z
1/2+x,1/2-y,1/2-z
1/2-x,1/2+y,1/2-z
1/2-x,1/2-y,-z
1/2+x,1/2+y,-z
1/2-x,1/2+y,1/2+z
1/2+x,1/2-y,1/2+z
loop_
_atom_site_type_symbol
_atom_site_label
_atom_site_fract_x
_atom_site_fract_y
_atom_site_fract_z
Si Si1 0.084942 0.436847 0.168251
Si Si2 0.205953 0.565703 0.670719
Si Si3 0.050732 0.699431 0.672096
Si Si4 0.048560 0.916193 0.157478
Si Si5 0.135244 0.000000 0.250000
Si Si6 0.296153 0.613336 0.172822
Si Si7 0.614422 0.704226 0.330055
O O1 0.070869 0.500000 0.250000
O O2 0.145535 0.424850 0.186577
O O3 0.057550 0.373269 0.212466
O O4 0.075594 0.446924 0.000000
O O5 0.217036 0.500000 0.750000
O O6 0.217485 0.563309 0.500000
O O7 0.240767 0.614829 0.756112
O O8 0.047288 0.704689 0.500000
O O9 0.098269 0.738138 0.733241
O O10 0.000000 0.723810 0.750000
O O11 0.077005 0.853602 0.209291
O O12 0.000000 0.932501 0.250000
O O13 0.092734 0.968438 0.147530
O O14 0.028538 0.903140 0.000000
O O15 0.173541 0.058767 0.239257
O O16 0.329201 0.676020 0.188013
O O17 0.294983 0.598081 0.000000
O O18 0.607346 0.717783 0.500000
#
# Coordination Sequence:
#
# PCOD9495796 Si02
#       7
#    16  16  16  16   8  16  16
#     4   9  21  40  61  89 120 148 181 225 277 339
#     4  10  19  33  56  83 114 151 188 228 281 338
#     4  11  23  40  62  87 115 147 187 231 280 340
#     4  10  21  34  48  69 100 140 185 236 283 328
#     4  10  19  30  48  70 102 138 181 230 282 328
#     4  10  20  34  53  80 112 146 190 240 281 328
#     4   9  20  38  56  78 110 148 191 235 279 332
#
# _framework density 19.875163000000001
#
# number of rings (size 3 to 8) (size 9 to 14) (size 15 to 20)
#    0.000    2.154    0.769    3.000    0.000    7.077 
#    0.000    6.923    0.000    4.615    0.000    0.000 
#    0.000    0.000    0.000    0.000    0.000    0.000 
#
# Total GULP energy -289661.836026 kJ/mol
# GULP energy per Si atom -5570.419924 kJ/mol
# Density = 1.982993 g / cm^3
# Si number density = 19.875163 Si / 1000 Ang^3
#
#
#
# Elastic Constant Matrix: (Units=GPa)
#
#
# Indices 1 2 3 4 5 6 
#
# 1 39.6027 8.3938 24.8987 0.0000 0.0000 0.0000
# 2 8.3938 78.5127 42.2531 0.0000 0.0000 0.0000
# 3 24.8987 42.2531 46.2079 0.0000 0.0000 0.0000
# 4 0.0000 0.0000 0.0000 37.3178 0.0000 0.0000
# 5 0.0000 0.0000 0.0000 0.0000 -29.7076 0.0000
# 6 0.0000 0.0000 0.0000 0.0000 0.0000 23.0358
#
#
#
# Elastic Compliance Matrix: (Units=1/GPa)
#
#
# Indices 1 2 3 4 5 6 
#
# 1 0.047608 0.017161 -0.041345 0.000000 0.000000 0.000000
# 2 0.017161 0.031264 -0.037835 0.000000 0.000000 0.000000
# 3 -0.041345 -0.037835 0.078516 0.000000 0.000000 0.000000
# 4 0.000000 0.000000 0.000000 0.026797 0.000000 0.000000
# 5 0.000000 0.000000 0.000000 0.000000 -0.033661 0.000000
# 6 0.000000 0.000000 0.000000 0.000000 0.000000 0.043411
#
#
# Mechanical properties :
#
#
# Convention : Reuss Voigt Hill
#
# Bulk Modulus (GPa) = 29.98535 35.04606 32.51570
# Shear Modulus (GPa) = 15.19350 12.04770 13.62060
#
# Velocity S-wave (km/s) = 2.76786 2.46472 2.62068
# Velocity P-wave (km/s) = 5.03332 5.07653 5.05497
#
# Compressibility (1/GPa) = 0.03334962
#
# Stress axis : x y z
#
# Youngs Moduli (GPa) = 21.00504 31.98607 12.73622
#
# Poissons Ratio (x) = -0.54891 0.52658
# Poissons Ratio (y) = -0.36046 0.48187
# Poissons Ratio (z) = 0.86845 1.21019
#
# Static dielectric constant tensor:
#      x y z
#    x 1.716400 0.000000 0.000000 
#    y 0.000000 1.719450 0.000000 
#    z 0.000000 0.000000 1.849880 
# 
# From -- ./inp_files/10370.got.cif
#   From: 2010.05.17/outbox.cif.g08.bks.cpg/sg66_6_cif.got.tgz:10370.got - 2010.06.03 17:51:23.
