data_PCOD9495639
_publ_section_title
;
Structure prediction by ZEFSAII (Michael W. Deem and Ramdas Pophale) SiO2 
 PCOD9495639
Probable space group: C C C M
;
_chemical_formula_sum "Si O2"
_cell_formula_units_Z 64
_cell_length_a 14.448072
_cell_length_b 12.519050
_cell_length_c 18.700839
_cell_angle_alpha 90.000000
_cell_angle_beta 90.000000
_cell_angle_gamma 90.000000
_cell_volume 3382.535494
_symmetry_space_group_name_H-M "C C C M"
_symmetry_group_IT_number 66
_symmetry_cell_setting 'orthorhombic'
loop_
_space_group_symop_operation_xyz
x,y,z
-x,-y,z
x,-y,1/2-z
-x,y,1/2-z
-x,-y,-z
x,y,-z
-x,y,1/2+z
x,-y,1/2+z
1/2+x,1/2+y,z
1/2-x,1/2-y,z
1/2+x,1/2-y,1/2-z
1/2-x,1/2+y,1/2-z
1/2-x,1/2-y,-z
1/2+x,1/2+y,-z
1/2-x,1/2+y,1/2+z
1/2+x,1/2-y,1/2+z
loop_
_atom_site_type_symbol
_atom_site_label
_atom_site_fract_x
_atom_site_fract_y
_atom_site_fract_z
Si Si1 0.710784 0.508576 0.416883
Si Si2 0.909114 0.809312 0.657261
Si Si3 0.389950 0.391785 0.201295
Si Si4 0.079102 0.581260 0.084389
O O1 0.690506 0.486449 0.500000
O O2 0.654155 0.614191 0.391657
O O3 0.678361 0.415616 0.363407
O O4 0.819333 0.530437 0.408708
O O5 0.867780 0.805208 0.737792
O O6 0.920653 0.693327 0.624639
O O7 0.010497 0.862600 0.667949
O O8 0.391936 0.500000 0.250000
O O9 0.000000 0.500000 0.109850
O O10 0.062671 0.601564 0.000000
#
# Coordination Sequence:
#
# PCOD9495639 Si02
#       4
#    16  16  16  16
#     4  10  19  34  59  86 110 142 183 228 279 329
#     4  10  18  35  58  82 112 146 185 226 273 329
#     4   9  19  36  56  83 116 142 177 231 281 331
#     4  10  22  39  56  79 114 150 186 229 274 325
#
# _framework density 18.920717
#
# number of rings (size 3 to 8) (size 9 to 14) (size 15 to 20)
#    0.000    2.250    0.000    6.750    0.000    5.000 
#    0.000   26.250    0.000    4.500    0.000    0.000 
#    0.000    0.000    0.000    0.000    0.000    0.000 
#
# Total GULP energy -178453.885806 kJ/mol
# GULP energy per Si atom -5576.683931 kJ/mol
# Density = 1.887765 g / cm^3
# Si number density = 18.920717 Si / 1000 Ang^3
#
#
#
# Elastic Constant Matrix: (Units=GPa)
#
#
# Indices 1 2 3 4 5 6 
#
# 1 71.3444 33.3150 63.6994 0.0000 0.0000 0.0000
# 2 33.3150 73.4996 58.9272 0.0000 0.0000 0.0000
# 3 63.6994 58.9272 134.5220 0.0000 0.0000 0.0000
# 4 0.0000 0.0000 0.0000 38.3731 0.0000 0.0000
# 5 0.0000 0.0000 0.0000 0.0000 140.1003 0.0000
# 6 0.0000 0.0000 0.0000 0.0000 0.0000 9.9248
#
#
#
# Elastic Compliance Matrix: (Units=1/GPa)
#
#
# Indices 1 2 3 4 5 6 
#
# 1 0.024651 -0.002797 -0.010447 0.000000 0.000000 0.000000
# 2 -0.002797 0.021288 -0.008000 0.000000 0.000000 0.000000
# 3 -0.010447 -0.008000 0.015885 0.000000 0.000000 0.000000
# 4 0.000000 0.000000 0.000000 0.026060 0.000000 0.000000
# 5 0.000000 0.000000 0.000000 0.000000 0.007138 0.000000
# 6 0.000000 0.000000 0.000000 0.000000 0.000000 0.100758
#
#
# Mechanical properties :
#
#
# Convention : Reuss Voigt Hill
#
# Bulk Modulus (GPa) = 51.72374 65.69437 58.70906
# Shear Modulus (GPa) = 20.43205 45.90792 33.16999
#
# Velocity S-wave (km/s) = 3.28971 4.93112 4.19155
# Velocity P-wave (km/s) = 6.46731 8.19863 7.38389
#
# Compressibility (1/GPa) = 0.01933348
#
# Stress axis : x y z
#
# Youngs Moduli (GPa) = 40.56708 46.97550 62.95120
#
# Poissons Ratio (x) = 0.13141 0.65767
# Poissons Ratio (y) = 0.11348 0.50364
# Poissons Ratio (z) = 0.42381 0.37582
#
# Static dielectric constant tensor:
#      x y z
#    x 1.657290 0.000000 0.000000 
#    y 0.000000 1.671290 0.000000 
#    z 0.000000 0.000000 1.680360 
# 
# From -- ./inp_files/39792.got.cif
#   From: 2010.05.17/outbox.cif.g08.bks.cpg/sg66_20_cif.got.tgz:39792.got - 2010.06.03 17:51:23.
