data_PCOD9495931
_publ_section_title
;
Structure prediction by ZEFSAII (Michael W. Deem and Ramdas Pophale) SiO2 
 PCOD9495931
Probable space group: C C C M
;
_chemical_formula_sum "Si O2"
_cell_formula_units_Z 88
_cell_length_a 21.419199
_cell_length_b 21.451505
_cell_length_c 9.394745
_cell_angle_alpha 90.000000
_cell_angle_beta 90.000000
_cell_angle_gamma 90.000000
_cell_volume 4316.641576
_symmetry_space_group_name_H-M "C C C M"
_symmetry_group_IT_number 66
_symmetry_cell_setting 'orthorhombic'
loop_
_space_group_symop_operation_xyz
x,y,z
-x,-y,z
x,-y,1/2-z
-x,y,1/2-z
-x,-y,-z
x,y,-z
-x,y,1/2+z
x,-y,1/2+z
1/2+x,1/2+y,z
1/2-x,1/2-y,z
1/2+x,1/2-y,1/2-z
1/2-x,1/2+y,1/2-z
1/2-x,1/2-y,-z
1/2+x,1/2+y,-z
1/2-x,1/2+y,1/2+z
1/2+x,1/2-y,1/2+z
loop_
_atom_site_type_symbol
_atom_site_label
_atom_site_fract_x
_atom_site_fract_y
_atom_site_fract_z
Si Si1 0.108137 0.749793 0.836554
Si Si2 0.306047 0.143684 0.328123
Si Si3 0.000000 0.342142 0.250000
Si Si4 0.305340 0.439185 0.331741
Si Si5 0.063125 0.883540 0.828408
Si Si6 0.903856 0.439821 0.339350
O O1 0.167581 0.710992 0.779634
O O2 0.049995 0.701887 0.828105
O O3 0.084347 0.814715 0.774092
O O4 0.123630 0.764737 0.000000
O O5 0.315977 0.140770 0.500000
O O6 0.235435 0.122609 0.299752
O O7 0.348398 0.092963 0.248144
O O8 0.958725 0.388713 0.343846
O O9 0.282095 0.500000 0.250000
O O10 0.299128 0.450057 0.500000
O O11 0.377590 0.426877 0.299260
O O12 0.000000 0.902221 0.750000
O O13 0.053074 0.881386 0.000000
O O14 0.923492 0.500000 0.250000
O O15 0.885621 0.456789 0.500000
#
# Coordination Sequence:
#
# PCOD9495931 Si02
#       6
#    16  16   8  16  16  16
#     4   9  17  32  55  81 110 142 181 226 275 332
#     4   9  19  36  57  82 111 146 185 228 280 335
#     4  10  19  32  50  74 105 146 184 226 278 328
#     4  10  22  39  60  84 113 149 190 235 284 338
#     4  10  21  38  60  87 115 147 186 232 285 340
#     4  11  22  33  49  75 109 148 191 234 276 326
#
# _framework density 20.386216999999998
#
# number of rings (size 3 to 8) (size 9 to 14) (size 15 to 20)
#    0.000    2.182    0.909    1.909    0.000    6.909 
#    0.000    5.455    0.000    0.000    0.000    5.091 
#    0.000    0.000    0.000    0.000    0.000    0.000 
#
# Total GULP energy -245365.299523 kJ/mol
# GULP energy per Si atom -5576.484080 kJ/mol
# Density = 2.033982 g / cm^3
# Si number density = 20.386217 Si / 1000 Ang^3
#
#
#
# Elastic Constant Matrix: (Units=GPa)
#
#
# Indices 1 2 3 4 5 6 
#
# 1 95.7757 -3.7896 16.1721 0.0000 0.0000 0.0000
# 2 -3.7896 25.5586 4.3942 0.0000 0.0000 0.0000
# 3 16.1721 4.3942 37.0519 0.0000 0.0000 0.0000
# 4 0.0000 0.0000 0.0000 15.8977 0.0000 0.0000
# 5 0.0000 0.0000 0.0000 0.0000 18.6342 0.0000
# 6 0.0000 0.0000 0.0000 0.0000 0.0000 13.2214
#
#
#
# Elastic Compliance Matrix: (Units=1/GPa)
#
#
# Indices 1 2 3 4 5 6 
#
# 1 0.011440 0.002608 -0.005302 0.000000 0.000000 0.000000
# 2 0.002608 0.040535 -0.005945 0.000000 0.000000 0.000000
# 3 -0.005302 -0.005945 0.030009 0.000000 0.000000 0.000000
# 4 0.000000 0.000000 0.000000 0.062902 0.000000 0.000000
# 5 0.000000 0.000000 0.000000 0.000000 0.053665 0.000000
# 6 0.000000 0.000000 0.000000 0.000000 0.000000 0.075635
#
#
# Mechanical properties :
#
#
# Convention : Reuss Voigt Hill
#
# Bulk Modulus (GPa) = 15.45529 21.32662 18.39096
# Shear Modulus (GPa) = 15.97279 18.99129 17.48204
#
# Velocity S-wave (km/s) = 2.80216 3.05548 2.93156
# Velocity P-wave (km/s) = 4.25055 4.78873 4.52765
#
# Compressibility (1/GPa) = 0.06470276
#
# Stress axis : x y z
#
# Youngs Moduli (GPa) = 87.41598 24.67025 33.32376
#
# Poissons Ratio (x) = -0.06433 0.17669
# Poissons Ratio (y) = -0.22796 0.19813
# Poissons Ratio (z) = 0.46351 0.14668
#
# Static dielectric constant tensor:
#      x y z
#    x 1.750930 0.000000 0.000000 
#    y 0.000000 1.738470 0.000000 
#    z 0.000000 0.000000 1.690840 
# 
# From -- ./inp_files/7797.got.cif
#   From: 2010.05.17/outbox.cif.g08.bks.cpg/sg66_4_cif.got.tgz:7797.got - 2010.06.03 17:51:23.
