data_PCOD9495113
_publ_section_title
;
Structure prediction by ZEFSAII (Michael W. Deem and Ramdas Pophale) SiO2 
 PCOD9495113
Probable space group: C C C M
;
_chemical_formula_sum "Si O2"
_cell_formula_units_Z 80
_cell_length_a 15.404657
_cell_length_b 17.340890
_cell_length_c 17.103849
_cell_angle_alpha 90.000000
_cell_angle_beta 90.000000
_cell_angle_gamma 90.000000
_cell_volume 4568.959094
_symmetry_space_group_name_H-M "C C C M"
_symmetry_group_IT_number 66
_symmetry_cell_setting 'orthorhombic'
loop_
_space_group_symop_operation_xyz
x,y,z
-x,-y,z
x,-y,1/2-z
-x,y,1/2-z
-x,-y,-z
x,y,-z
-x,y,1/2+z
x,-y,1/2+z
1/2+x,1/2+y,z
1/2-x,1/2-y,z
1/2+x,1/2-y,1/2-z
1/2-x,1/2+y,1/2-z
1/2-x,1/2-y,-z
1/2+x,1/2+y,-z
1/2-x,1/2+y,1/2+z
1/2+x,1/2-y,1/2+z
loop_
_atom_site_type_symbol
_atom_site_label
_atom_site_fract_x
_atom_site_fract_y
_atom_site_fract_z
Si Si1 0.335871 0.304216 0.907723
Si Si2 0.409562 0.889440 0.795821
Si Si3 0.758914 0.926912 0.195675
Si Si4 0.882729 0.529125 0.087559
Si Si5 0.007473 0.311331 0.088034
O O1 0.250000 0.250000 0.902996
O O2 0.327546 0.366213 0.837685
O O3 0.421226 0.252875 0.893509
O O4 0.339179 0.330599 0.000000
O O5 0.500000 0.891460 0.750000
O O6 0.322964 0.889364 0.743548
O O7 0.426313 0.818812 0.854309
O O8 0.407177 0.966350 0.848167
O O9 0.714742 0.952452 0.113641
O O10 0.786043 0.000000 0.250000
O O11 0.938577 0.607483 0.089670
O O12 0.890049 0.497736 0.000000
O O13 0.977040 0.299907 0.000000
#
# Coordination Sequence:
#
# PCOD9495113 Si02
#       5
#    16  16  16  16  16
#     4  10  17  30  46  64  94 132 171 204 237 283
#     4  11  19  27  37  61  97 134 158 185 233 286
#     4  10  20  28  42  63  97 134 159 191 245 294
#     4  10  18  26  38  58  91 131 164 186 216 277
#     4  10  19  27  42  62  89 132 167 196 231 276
#
# _framework density 17.509457999999999
#
# number of rings (size 3 to 8) (size 9 to 14) (size 15 to 20)
#    0.000    1.800    4.000    1.800    5.600    1.600 
#    0.000    0.000    0.000    0.000    0.000    0.000 
#    0.000  146.400    0.000   39.600    3.200    0.000 
#
# Total GULP energy -222686.678738 kJ/mol
# GULP energy per Si atom -5567.166968 kJ/mol
# Density = 1.746961 g / cm^3
# Si number density = 17.509458 Si / 1000 Ang^3
#
#
#
# Elastic Constant Matrix: (Units=GPa)
#
#
# Indices 1 2 3 4 5 6 
#
# 1 33.7985 30.2059 27.5079 0.0000 0.0000 0.0000
# 2 30.2059 51.5147 37.8774 0.0000 0.0000 0.0000
# 3 27.5079 37.8774 90.3732 0.0000 0.0000 0.0000
# 4 0.0000 0.0000 0.0000 31.3702 0.0000 0.0000
# 5 0.0000 0.0000 0.0000 0.0000 9.0506 0.0000
# 6 0.0000 0.0000 0.0000 0.0000 0.0000 22.6233
#
#
#
# Elastic Compliance Matrix: (Units=1/GPa)
#
#
# Indices 1 2 3 4 5 6 
#
# 1 0.063946 -0.033511 -0.005419 0.000000 0.000000 0.000000
# 2 -0.033511 0.045620 -0.008920 0.000000 0.000000 0.000000
# 3 -0.005419 -0.008920 0.016453 0.000000 0.000000 0.000000
# 4 0.000000 0.000000 0.000000 0.031877 0.000000 0.000000
# 5 0.000000 0.000000 0.000000 0.000000 0.110489 0.000000
# 6 0.000000 0.000000 0.000000 0.000000 0.000000 0.044202
#
#
# Mechanical properties :
#
#
# Convention : Reuss Voigt Hill
#
# Bulk Modulus (GPa) = 32.98200 40.76319 36.87259
# Shear Modulus (GPa) = 11.95041 17.94851 14.94946
#
# Velocity S-wave (km/s) = 2.61533 3.20515 2.92514
# Velocity P-wave (km/s) = 5.29126 6.08511 5.70202
#
# Compressibility (1/GPa) = 0.03031957
#
# Stress axis : x y z
#
# Youngs Moduli (GPa) = 15.63809 21.92012 60.77800
#
# Poissons Ratio (x) = 0.73457 0.32935
# Poissons Ratio (y) = 0.52405 0.54216
# Poissons Ratio (z) = 0.08474 0.19553
#
# Static dielectric constant tensor:
#      x y z
#    x 1.603020 0.000000 0.000000 
#    y 0.000000 1.664650 0.000000 
#    z 0.000000 0.000000 1.683700 
# 
# From -- ./inp_files/40214.got.cif
#   From: 2010.05.17/outbox.cif.g08.bks.cpg/sg66_21_cif.got.tgz:40214.got - 2010.06.03 17:51:23.
