data_PCOD9495125
_publ_section_title
;
Structure prediction by ZEFSAII (Michael W. Deem and Ramdas Pophale) SiO2 
 PCOD9495125
Probable space group: C C C M
;
_chemical_formula_sum "Si O2"
_cell_formula_units_Z 120
_cell_length_a 19.336091
_cell_length_b 13.372049
_cell_length_c 19.347014
_cell_angle_alpha 90.000000
_cell_angle_beta 90.000000
_cell_angle_gamma 90.000000
_cell_volume 5002.425005
_symmetry_space_group_name_H-M "C C C M"
_symmetry_group_IT_number 66
_symmetry_cell_setting 'orthorhombic'
loop_
_space_group_symop_operation_xyz
x,y,z
-x,-y,z
x,-y,1/2-z
-x,y,1/2-z
-x,-y,-z
x,y,-z
-x,y,1/2+z
x,-y,1/2+z
1/2+x,1/2+y,z
1/2-x,1/2-y,z
1/2+x,1/2-y,1/2-z
1/2-x,1/2+y,1/2-z
1/2-x,1/2-y,-z
1/2+x,1/2+y,-z
1/2-x,1/2+y,1/2+z
1/2+x,1/2-y,1/2+z
loop_
_atom_site_type_symbol
_atom_site_label
_atom_site_fract_x
_atom_site_fract_y
_atom_site_fract_z
Si Si1 0.822543 0.384494 0.267583
Si Si2 0.425564 0.399270 0.079351
Si Si3 0.870590 0.901122 0.417054
Si Si4 0.264205 0.365551 0.898395
Si Si5 0.419865 0.824084 0.920573
Si Si6 0.440834 0.817531 0.369755
Si Si7 0.351796 0.098198 0.000000
Si Si8 0.723739 0.145764 0.882187
O O1 0.835916 0.500000 0.250000
O O2 0.756891 0.376647 0.318740
O O3 0.889089 0.339441 0.306710
O O4 0.801978 0.334994 0.195579
O O5 0.426118 0.514574 0.103957
O O6 0.342245 0.383886 0.080518
O O7 0.450246 0.302429 0.120668
O O8 0.451385 0.392713 0.000000
O O9 0.861737 0.910104 0.500000
O O10 0.898091 0.789852 0.403650
O O11 0.794879 0.916088 0.383182
O O12 0.250000 0.250000 0.917685
O O13 0.207874 0.424434 0.941226
O O14 0.480941 0.859516 0.870580
O O15 0.348190 0.884783 0.917724
O O16 0.444187 0.827668 0.000000
O O17 0.404078 0.861433 0.438205
O O18 0.750000 0.250000 0.915419
#
# Coordination Sequence:
#
# PCOD9495125 Si02
#       8
#    16  16  16  16  16  16   8  16
#     4  11  24  38  57  86 118 157 203 255 303 358
#     4  11  18  31  57  95 133 153 190 244 306 374
#     4   9  20  35  60  95 122 157 196 258 311 355
#     4  11  17  30  55  86 119 157 194 241 301 357
#     4  10  20  39  64  84 117 160 209 251 301 367
#     4  11  21  35  59  88 122 166 198 239 311 371
#     4  10  17  30  52  87 122 151 201 238 288 371
#     4  10  21  40  61  85 116 157 213 252 297 361
#
# _framework density 23.988365000000002
#
# number of rings (size 3 to 8) (size 9 to 14) (size 15 to 20)
#    0.000    1.600    4.667    1.800    0.000    2.667 
#    0.000    3.333    1.467    0.800    0.000    1.867 
#    0.000    0.000    0.000    0.000    0.000    0.000 
#
# Total GULP energy -334300.079667 kJ/mol
# GULP energy per Si atom -5571.667994 kJ/mol
# Density = 2.393377 g / cm^3
# Si number density = 23.988365 Si / 1000 Ang^3
#
#
#
# Elastic Constant Matrix: (Units=GPa)
#
#
# Indices 1 2 3 4 5 6 
#
# 1 158.3726 11.3052 30.7997 0.0000 0.0000 0.0000
# 2 11.3052 81.9043 -6.8247 0.0000 0.0000 0.0000
# 3 30.7997 -6.8247 86.3943 0.0000 0.0000 0.0000
# 4 0.0000 0.0000 0.0000 157.2841 0.0000 0.0000
# 5 0.0000 0.0000 0.0000 0.0000 13.3120 0.0000
# 6 0.0000 0.0000 0.0000 0.0000 0.0000 20.5800
#
#
#
# Elastic Compliance Matrix: (Units=1/GPa)
#
#
# Indices 1 2 3 4 5 6 
#
# 1 0.006893 -0.001164 -0.002549 0.000000 0.000000 0.000000
# 2 -0.001164 0.012487 0.001401 0.000000 0.000000 0.000000
# 3 -0.002549 0.001401 0.012594 0.000000 0.000000 0.000000
# 4 0.000000 0.000000 0.000000 0.006358 0.000000 0.000000
# 5 0.000000 0.000000 0.000000 0.000000 0.075120 0.000000
# 6 0.000000 0.000000 0.000000 0.000000 0.000000 0.048591
#
#
# Mechanical properties :
#
#
# Convention : Reuss Voigt Hill
#
# Bulk Modulus (GPa) = 36.56247 44.13684 40.34965
# Shear Modulus (GPa) = 28.44400 57.66128 43.05264
#
# Velocity S-wave (km/s) = 3.44720 4.90809 4.24102
# Velocity P-wave (km/s) = 5.57845 7.11044 6.39052
#
# Compressibility (1/GPa) = 0.02735045
#
# Stress axis : x y z
#
# Youngs Moduli (GPa) = 145.07281 80.08470 79.40057
#
# Poissons Ratio (x) = 0.09321 0.20242
# Poissons Ratio (y) = 0.16885 -0.11127
# Poissons Ratio (z) = 0.36984 -0.11222
#
# Static dielectric constant tensor:
#      x y z
#    x 1.953580 0.000000 0.000000 
#    y 0.000000 2.086510 0.000000 
#    z 0.000000 0.000000 1.872690 
# 
# From -- ./inp_files/52002.got.cif
#   From: 2010.05.17/outbox.cif.g08.bks.cpg/sg66_27_cif.got.tgz:52002.got - 2010.06.03 17:51:23.
