data_PCOD9495101
_publ_section_title
;
Structure prediction by ZEFSAII (Michael W. Deem and Ramdas Pophale) SiO2 
 PCOD9495101
Probable space group: C C C M
;
_chemical_formula_sum "Si O2"
_cell_formula_units_Z 80
_cell_length_a 11.953623
_cell_length_b 23.095391
_cell_length_c 15.647962
_cell_angle_alpha 90.000000
_cell_angle_beta 90.000000
_cell_angle_gamma 90.000000
_cell_volume 4319.989156
_symmetry_space_group_name_H-M "C C C M"
_symmetry_group_IT_number 66
_symmetry_cell_setting 'orthorhombic'
loop_
_space_group_symop_operation_xyz
x,y,z
-x,-y,z
x,-y,1/2-z
-x,y,1/2-z
-x,-y,-z
x,y,-z
-x,y,1/2+z
x,-y,1/2+z
1/2+x,1/2+y,z
1/2-x,1/2-y,z
1/2+x,1/2-y,1/2-z
1/2-x,1/2+y,1/2-z
1/2-x,1/2-y,-z
1/2+x,1/2+y,-z
1/2-x,1/2+y,1/2+z
1/2+x,1/2-y,1/2+z
loop_
_atom_site_type_symbol
_atom_site_label
_atom_site_fract_x
_atom_site_fract_y
_atom_site_fract_z
Si Si1 0.013461 0.088703 0.602458
Si Si2 0.646471 0.171825 0.395551
Si Si3 0.098478 0.201701 0.896127
Si Si4 0.314766 0.502245 0.348171
Si Si5 0.582661 0.952545 0.901563
O O1 0.002447 0.085683 0.500000
O O2 0.992527 0.154455 0.631090
O O3 0.913572 0.049214 0.639625
O O4 0.129376 0.058647 0.626732
O O5 0.644796 0.169817 0.500000
O O6 0.777736 0.178297 0.372442
O O7 0.588293 0.231778 0.368036
O O8 0.593583 0.111972 0.363480
O O9 0.096807 0.203138 0.000000
O O10 0.280990 0.500000 0.250000
O O11 0.207247 0.521236 0.400694
O O12 0.500000 0.000000 0.861669
O O13 0.545272 0.944464 0.000000
#
# Coordination Sequence:
#
# PCOD9495101 Si02
#       5
#    16  16  16  16  16
#     4  10  17  29  50  74 100 123 154 202 249 286
#     4   8  13  24  42  72 100 116 151 197 239 274
#     4   8  13  22  44  73  98 118 144 198 246 274
#     4  11  21  31  44  70 100 134 160 192 245 298
#     4  10  19  32  51  73  96 126 165 206 239 282
#
# _framework density 18.518564000000001
#
# number of rings (size 3 to 8) (size 9 to 14) (size 15 to 20)
#    0.000    2.600    2.000    4.800    0.000    0.400 
#    0.000    0.000    0.000    1.200   15.600    7.000 
#    0.000    0.000    0.000    0.000    0.000    0.000 
#
# Total GULP energy -222791.300056 kJ/mol
# GULP energy per Si atom -5569.782501 kJ/mol
# Density = 1.847641 g / cm^3
# Si number density = 18.518564 Si / 1000 Ang^3
#
#
#
# Elastic Constant Matrix: (Units=GPa)
#
#
# Indices 1 2 3 4 5 6 
#
# 1 35.8933 55.5814 -16.6122 0.0000 0.0000 0.0000
# 2 55.5814 199.8393 -2.1132 0.0000 0.0000 0.0000
# 3 -16.6122 -2.1132 27.8256 0.0000 0.0000 0.0000
# 4 0.0000 0.0000 0.0000 5.1153 0.0000 0.0000
# 5 0.0000 0.0000 0.0000 0.0000 33.7971 0.0000
# 6 0.0000 0.0000 0.0000 0.0000 0.0000 18.5641
#
#
#
# Elastic Compliance Matrix: (Units=1/GPa)
#
#
# Indices 1 2 3 4 5 6 
#
# 1 0.089297 -0.024292 0.051466 0.000000 0.000000 0.000000
# 2 -0.024292 0.011616 -0.013620 0.000000 0.000000 0.000000
# 3 0.051466 -0.013620 0.065630 0.000000 0.000000 0.000000
# 4 0.000000 0.000000 0.000000 0.195492 0.000000 0.000000
# 5 0.000000 0.000000 0.000000 0.000000 0.029588 0.000000
# 6 0.000000 0.000000 0.000000 0.000000 0.000000 0.053867
#
#
# Mechanical properties :
#
#
# Convention : Reuss Voigt Hill
#
# Bulk Modulus (GPa) = 5.16393 37.47448 21.31921
# Shear Modulus (GPa) = 10.35341 26.60877 18.48109
#
# Velocity S-wave (km/s) = 2.36706 3.79472 3.16250
# Velocity P-wave (km/s) = 3.20393 6.28331 4.98724
#
# Compressibility (1/GPa) = 0.19365081
#
# Stress axis : x y z
#
# Youngs Moduli (GPa) = 11.19863 86.08578 15.23699
#
# Poissons Ratio (x) = 2.09119 -0.78419
# Poissons Ratio (y) = 0.27204 0.20753
# Poissons Ratio (z) = -0.57635 1.17252
#
# Static dielectric constant tensor:
#      x y z
#    x 1.623180 0.000000 0.000000 
#    y 0.000000 1.694530 0.000000 
#    z 0.000000 0.000000 1.640750 
# 
# From -- ./inp_files/26397.got.cif
#   From: 2010.05.17/outbox.cif.g08.bks.cpg/sg66_14_cif.got.tgz:26397.got - 2010.06.03 17:51:23.
