data_PCOD9495949
_publ_section_title
;
Structure prediction by ZEFSAII (Michael W. Deem and Ramdas Pophale) SiO2 
 PCOD9495949
Probable space group: C C C M
;
_chemical_formula_sum "Si O2"
_cell_formula_units_Z 88
_cell_length_a 7.949475
_cell_length_b 20.912090
_cell_length_c 28.307605
_cell_angle_alpha 90.000000
_cell_angle_beta 90.000000
_cell_angle_gamma 90.000000
_cell_volume 4705.860124
_symmetry_space_group_name_H-M "C C C M"
_symmetry_group_IT_number 66
_symmetry_cell_setting 'orthorhombic'
loop_
_space_group_symop_operation_xyz
x,y,z
-x,-y,z
x,-y,1/2-z
-x,y,1/2-z
-x,-y,-z
x,y,-z
-x,y,1/2+z
x,-y,1/2+z
1/2+x,1/2+y,z
1/2-x,1/2-y,z
1/2+x,1/2-y,1/2-z
1/2-x,1/2+y,1/2-z
1/2-x,1/2-y,-z
1/2+x,1/2+y,-z
1/2-x,1/2+y,1/2+z
1/2+x,1/2-y,1/2+z
loop_
_atom_site_type_symbol
_atom_site_label
_atom_site_fract_x
_atom_site_fract_y
_atom_site_fract_z
Si Si1 0.500000 0.181118 0.250000
Si Si2 0.750000 0.750000 0.815809
Si Si3 0.907092 0.799783 0.944596
Si Si4 0.261405 0.876711 0.370767
Si Si5 0.638739 0.875566 0.658079
Si Si6 0.750000 0.750000 0.395024
Si Si7 0.800399 0.001550 0.695246
O O1 0.396797 0.226987 0.216879
O O2 0.398497 0.138888 0.286853
O O3 0.796390 0.811207 0.845738
O O4 0.750000 0.750000 0.939922
O O5 0.842661 0.865720 0.918997
O O6 0.077946 0.766694 0.924002
O O7 0.934484 0.811533 0.000000
O O8 0.465135 0.877631 0.372192
O O9 0.231675 0.934192 0.334450
O O10 0.729472 0.813510 0.636940
O O11 0.733082 0.942998 0.662878
O O12 0.733530 0.000000 0.750000
O O13 0.000000 0.000000 0.699471
#
# Coordination Sequence:
#
# PCOD9495949 Si02
#       7
#     8   8  16  16  16   8  16
#     4  10  20  32  53  82 119 156 206 254 294 368
#     4  10  19  32  51  81 110 155 195 250 305 352
#     4  11  22  41  67  96 126 158 207 270 330 385
#     4  11  21  39  59  84 124 159 208 260 312 377
#     4  11  22  37  58  87 121 168 210 255 316 370
#     4  12  22  40  66  97 126 161 210 264 322 388
#     4  11  24  38  57  86 125 173 218 257 307 381
#
# _framework density 18.700088000000001
#
# number of rings (size 3 to 8) (size 9 to 14) (size 15 to 20)
#    0.000    1.091    2.727    5.727    0.000    3.636 
#    0.000    0.000    0.000    8.182    0.000    0.000 
#    0.000    0.000    0.000    0.000    0.000    0.000 
#
# Total GULP energy -245043.613213 kJ/mol
# GULP energy per Si atom -5569.173028 kJ/mol
# Density = 1.865753 g / cm^3
# Si number density = 18.700088 Si / 1000 Ang^3
#
#
#
# Elastic Constant Matrix: (Units=GPa)
#
#
# Indices 1 2 3 4 5 6 
#
# 1 84.7628 31.5107 36.8214 0.0000 0.0000 0.0000
# 2 31.5107 134.2222 57.5236 0.0000 0.0000 0.0000
# 3 36.8214 57.5236 123.6920 0.0000 0.0000 0.0000
# 4 0.0000 0.0000 0.0000 3.0254 0.0000 0.0000
# 5 0.0000 0.0000 0.0000 0.0000 24.0641 0.0000
# 6 0.0000 0.0000 0.0000 0.0000 0.0000 47.2025
#
#
#
# Elastic Compliance Matrix: (Units=1/GPa)
#
#
# Indices 1 2 3 4 5 6 
#
# 1 0.013913 -0.001862 -0.003276 0.000000 0.000000 0.000000
# 2 -0.001862 0.009554 -0.003889 0.000000 0.000000 0.000000
# 3 -0.003276 -0.003889 0.010868 0.000000 0.000000 0.000000
# 4 0.000000 0.000000 0.000000 0.330536 0.000000 0.000000
# 5 0.000000 0.000000 0.000000 0.000000 0.041556 0.000000
# 6 0.000000 0.000000 0.000000 0.000000 0.000000 0.021185
#
#
# Mechanical properties :
#
#
# Convention : Reuss Voigt Hill
#
# Bulk Modulus (GPa) = 61.41865 66.04315 63.73090
# Shear Modulus (GPa) = 11.08419 29.31315 20.19867
#
# Velocity S-wave (km/s) = 2.43726 3.96351 3.29011
# Velocity P-wave (km/s) = 6.39028 7.50597 6.97048
#
# Compressibility (1/GPa) = 0.01628170
#
# Stress axis : x y z
#
# Youngs Moduli (GPa) = 71.87566 104.66602 92.01166
#
# Poissons Ratio (x) = 0.19494 0.30139
# Poissons Ratio (y) = 0.13387 0.35782
# Poissons Ratio (z) = 0.23543 0.40703
#
# Static dielectric constant tensor:
#      x y z
#    x 2.064260 0.000000 0.000000 
#    y 0.000000 1.672180 0.000000 
#    z 0.000000 0.000000 1.688340 
# 
# From -- ./inp_files/68223.got.cif
#   From: 2010.05.17/outbox.cif.g08.bks.cpg/sg66_35_cif.got.tgz:68223.got - 2010.06.03 17:51:23.
