data_PCOD9495246
_publ_section_title
;
Structure prediction by ZEFSAII (Michael W. Deem and Ramdas Pophale) SiO2 
 PCOD9495246
Probable space group: C C C M
;
_chemical_formula_sum "Si O2"
_cell_formula_units_Z 76
_cell_length_a 26.544436
_cell_length_b 10.246315
_cell_length_c 18.344116
_cell_angle_alpha 90.000000
_cell_angle_beta 90.000000
_cell_angle_gamma 90.000000
_cell_volume 4989.281332
_symmetry_space_group_name_H-M "C C C M"
_symmetry_group_IT_number 66
_symmetry_cell_setting 'orthorhombic'
loop_
_space_group_symop_operation_xyz
x,y,z
-x,-y,z
x,-y,1/2-z
-x,y,1/2-z
-x,-y,-z
x,y,-z
-x,y,1/2+z
x,-y,1/2+z
1/2+x,1/2+y,z
1/2-x,1/2-y,z
1/2+x,1/2-y,1/2-z
1/2-x,1/2+y,1/2-z
1/2-x,1/2-y,-z
1/2+x,1/2+y,-z
1/2-x,1/2+y,1/2+z
1/2+x,1/2-y,1/2+z
loop_
_atom_site_type_symbol
_atom_site_label
_atom_site_fract_x
_atom_site_fract_y
_atom_site_fract_z
Si Si1 0.655000 0.352017 0.770011
Si Si2 0.750000 0.750000 0.822213
Si Si3 0.597408 0.879324 0.201350
Si Si4 0.000000 0.500000 0.250000
Si Si5 0.189815 0.261666 0.417249
Si Si6 0.323441 0.070818 0.914386
O O1 0.643377 0.500000 0.750000
O O2 0.706668 0.312233 0.728143
O O3 0.612419 0.253255 0.741289
O O4 0.664272 0.324890 0.855195
O O5 0.722208 0.858275 0.871893
O O6 0.538218 0.912094 0.202608
O O7 0.625283 0.882164 0.124299
O O8 0.619627 0.000000 0.250000
O O9 0.175170 0.225626 0.500000
O O10 0.250000 0.250000 0.411504
O O11 0.178420 0.414619 0.405730
O O12 0.321105 0.101154 0.000000
#
# Coordination Sequence:
#
# PCOD9495246 Si02
#       6
#    16   8  16   4  16  16
#     4  11  20  31  49  74 102 137 179 207 247 303
#     4  10  21  28  49  68 108 146 170 206 245 300
#     4   9  18  34  56  71  95 128 168 210 268 303
#     4   8  16  36  60  72  96 128 168 228 264 302
#     4  10  18  28  44  66  98 136 172 204 241 292
#     4  10  19  32  48  74 103 133 171 212 253 305
#
# _framework density 15.232654999999999
#
# number of rings (size 3 to 8) (size 9 to 14) (size 15 to 20)
#    0.632    1.474    3.158    1.579    0.000    0.000 
#    0.000    5.263    0.000    0.000    0.000    0.000 
#    0.000   11.789    0.000    0.000    0.000    0.000 
#
# Total GULP energy -211653.783188 kJ/mol
# GULP energy per Si atom -5569.836400 kJ/mol
# Density = 1.519798 g / cm^3
# Si number density = 15.232655 Si / 1000 Ang^3
#
#
#
# Elastic Constant Matrix: (Units=GPa)
#
#
# Indices 1 2 3 4 5 6 
#
# 1 84.2699 27.6615 31.6702 0.0000 0.0000 0.0000
# 2 27.6615 104.0167 50.4802 0.0000 0.0000 0.0000
# 3 31.6702 50.4802 116.4264 0.0000 0.0000 0.0000
# 4 0.0000 0.0000 0.0000 21.9971 0.0000 0.0000
# 5 0.0000 0.0000 0.0000 0.0000 16.1051 0.0000
# 6 0.0000 0.0000 0.0000 0.0000 0.0000 20.4471
#
#
#
# Elastic Compliance Matrix: (Units=1/GPa)
#
#
# Indices 1 2 3 4 5 6 
#
# 1 0.013644 -0.002314 -0.002708 0.000000 0.000000 0.000000
# 2 -0.002314 0.012568 -0.004820 0.000000 0.000000 0.000000
# 3 -0.002708 -0.004820 0.011416 0.000000 0.000000 0.000000
# 4 0.000000 0.000000 0.000000 0.045460 0.000000 0.000000
# 5 0.000000 0.000000 0.000000 0.000000 0.062092 0.000000
# 6 0.000000 0.000000 0.000000 0.000000 0.000000 0.048907
#
#
# Mechanical properties :
#
#
# Convention : Reuss Voigt Hill
#
# Bulk Modulus (GPa) = 55.72978 58.25963 56.99470
# Shear Modulus (GPa) = 22.75283 24.70326 23.72805
#
# Velocity S-wave (km/s) = 3.86902 4.03144 3.95106
# Velocity P-wave (km/s) = 7.52491 7.74594 7.63622
#
# Compressibility (1/GPa) = 0.01794373
#
# Stress axis : x y z
#
# Youngs Moduli (GPa) = 73.29233 79.56461 87.59958
#
# Poissons Ratio (x) = 0.18412 0.23722
# Poissons Ratio (y) = 0.16961 0.42222
# Poissons Ratio (z) = 0.19848 0.38349
#
# Static dielectric constant tensor:
#      x y z
#    x 1.487530 0.000000 0.000000 
#    y 0.000000 1.522220 0.000000 
#    z 0.000000 0.000000 1.515360 
# 
# From -- ./inp_files/33681.got.cif
#   From: 2010.05.17/outbox.cif.g08.bks.cpg/sg66_17_cif.got.tgz:33681.got - 2010.06.03 17:51:23.
