data_PCOD9495363
_publ_section_title
;
Structure prediction by ZEFSAII (Michael W. Deem and Ramdas Pophale) SiO2 
 PCOD9495363
Probable space group: C C C M
;
_chemical_formula_sum "Si O2"
_cell_formula_units_Z 96
_cell_length_a 27.353559
_cell_length_b 21.039064
_cell_length_c 8.371947
_cell_angle_alpha 90.000000
_cell_angle_beta 90.000000
_cell_angle_gamma 90.000000
_cell_volume 4817.999226
_symmetry_space_group_name_H-M "C C C M"
_symmetry_group_IT_number 66
_symmetry_cell_setting 'orthorhombic'
loop_
_space_group_symop_operation_xyz
x,y,z
-x,-y,z
x,-y,1/2-z
-x,y,1/2-z
-x,-y,-z
x,y,-z
-x,y,1/2+z
x,-y,1/2+z
1/2+x,1/2+y,z
1/2-x,1/2-y,z
1/2+x,1/2-y,1/2-z
1/2-x,1/2+y,1/2-z
1/2-x,1/2-y,-z
1/2+x,1/2+y,-z
1/2-x,1/2+y,1/2+z
1/2+x,1/2-y,1/2+z
loop_
_atom_site_type_symbol
_atom_site_label
_atom_site_fract_x
_atom_site_fract_y
_atom_site_fract_z
Si Si1 0.334264 0.931133 0.809032
Si Si2 0.298444 0.710004 0.675154
Si Si3 0.112646 0.306216 0.812248
Si Si4 0.723391 0.585957 0.319107
Si Si5 0.616212 0.566100 0.307575
Si Si6 0.554490 0.312329 0.307774
O O1 0.369518 0.873008 0.759857
O O2 0.277574 0.923595 0.746513
O O3 0.351672 0.000000 0.750000
O O4 0.331461 0.930462 0.000000
O O5 0.307105 0.678722 0.500000
O O6 0.250000 0.750000 0.660873
O O7 0.341692 0.758470 0.704521
O O8 0.287651 0.660627 0.813229
O O9 0.070001 0.258995 0.750196
O O10 0.103852 0.318093 0.000000
O O11 0.725615 0.561144 0.500000
O O12 0.672300 0.563822 0.242935
O O13 0.592184 0.500000 0.250000
O O14 0.617535 0.567489 0.500000
O O15 0.589919 0.630678 0.250508
O O16 0.500000 0.326355 0.250000
O O17 0.557051 0.311469 0.500000
#
# Coordination Sequence:
#
# PCOD9495363 Si02
#       6
#    16  16  16  16  16  16
#     4  11  23  37  56  85 122 162 200 239 285 341
#     4  10  18  30  52  81 112 150 191 233 280 335
#     4  10  21  38  60  85 115 152 193 239 293 351
#     4  10  21  34  52  82 119 159 199 238 277 328
#     4  11  23  39  59  85 120 160 201 243 288 339
#     4  11  24  43  66  90 115 146 190 244 301 356
#
# _framework density 19.925284000000001
#
# number of rings (size 3 to 8) (size 9 to 14) (size 15 to 20)
#    0.000    1.500    3.333    2.000    0.000    4.000 
#    0.000    1.667    0.000    0.500    0.000    3.500 
#    0.000    0.000    0.000    0.000    0.000    0.000 
#
# Total GULP energy -267373.217741 kJ/mol
# GULP energy per Si atom -5570.275370 kJ/mol
# Density = 1.987993 g / cm^3
# Si number density = 19.925284 Si / 1000 Ang^3
#
#
#
# Elastic Constant Matrix: (Units=GPa)
#
#
# Indices 1 2 3 4 5 6 
#
# 1 65.0308 50.5095 11.8464 0.0000 0.0000 0.0000
# 2 50.5095 145.7496 43.6261 0.0000 0.0000 0.0000
# 3 11.8464 43.6261 47.3756 0.0000 0.0000 0.0000
# 4 0.0000 0.0000 0.0000 30.6158 0.0000 0.0000
# 5 0.0000 0.0000 0.0000 0.0000 10.8195 0.0000
# 6 0.0000 0.0000 0.0000 0.0000 0.0000 1.6145
#
#
#
# Elastic Compliance Matrix: (Units=1/GPa)
#
#
# Indices 1 2 3 4 5 6 
#
# 1 0.021180 -0.007944 0.002020 0.000000 0.000000 0.000000
# 2 -0.007944 0.012452 -0.009480 0.000000 0.000000 0.000000
# 3 0.002020 -0.009480 0.029332 0.000000 0.000000 0.000000
# 4 0.000000 0.000000 0.000000 0.032663 0.000000 0.000000
# 5 0.000000 0.000000 0.000000 0.000000 0.092426 0.000000
# 6 0.000000 0.000000 0.000000 0.000000 0.000000 0.619374
#
#
# Mechanical properties :
#
#
# Convention : Reuss Voigt Hill
#
# Bulk Modulus (GPa) = 31.09955 52.23555 41.66755
# Shear Modulus (GPa) = 5.88960 18.75490 12.32225
#
# Velocity S-wave (km/s) = 1.72112 3.07133 2.48951
# Velocity P-wave (km/s) = 4.42625 6.23298 5.40563
#
# Compressibility (1/GPa) = 0.03215481
#
# Stress axis : x y z
#
# Youngs Moduli (GPa) = 47.21474 80.31044 34.09209
#
# Poissons Ratio (x) = 0.63802 -0.06885
# Poissons Ratio (y) = 0.37509 0.32318
# Poissons Ratio (z) = -0.09535 0.76132
#
# Static dielectric constant tensor:
#      x y z
#    x 1.745630 0.000000 0.000000 
#    y 0.000000 1.736680 0.000000 
#    z 0.000000 0.000000 1.794880 
# 
# From -- ./inp_files/7957.got.cif
#   From: 2010.05.17/outbox.cif.g08.bks.cpg/sg66_4_cif.got.tgz:7957.got - 2010.06.03 17:51:23.
