data_PCOD9495868
_publ_section_title
;
Structure prediction by ZEFSAII (Michael W. Deem and Ramdas Pophale) SiO2 
 PCOD9495868
Probable space group: C C C M
;
_chemical_formula_sum "Si O2"
_cell_formula_units_Z 112
_cell_length_a 11.127814
_cell_length_b 22.167997
_cell_length_c 25.915855
_cell_angle_alpha 90.000000
_cell_angle_beta 90.000000
_cell_angle_gamma 90.000000
_cell_volume 6392.958030
_symmetry_space_group_name_H-M "C C C M"
_symmetry_group_IT_number 66
_symmetry_cell_setting 'orthorhombic'
loop_
_space_group_symop_operation_xyz
x,y,z
-x,-y,z
x,-y,1/2-z
-x,y,1/2-z
-x,-y,-z
x,y,-z
-x,y,1/2+z
x,-y,1/2+z
1/2+x,1/2+y,z
1/2-x,1/2-y,z
1/2+x,1/2-y,1/2-z
1/2-x,1/2+y,1/2-z
1/2-x,1/2-y,-z
1/2+x,1/2+y,-z
1/2-x,1/2+y,1/2+z
1/2+x,1/2-y,1/2+z
loop_
_atom_site_type_symbol
_atom_site_label
_atom_site_fract_x
_atom_site_fract_y
_atom_site_fract_z
Si Si1 0.409313 0.309116 0.938203
Si Si2 0.618945 0.567998 0.724962
Si Si3 0.327034 0.512998 0.440702
Si Si4 0.128217 0.330270 0.061253
Si Si5 0.369365 0.929597 0.734212
Si Si6 0.094943 0.553681 0.383329
Si Si7 0.456551 0.414531 0.607435
O O1 0.272195 0.331294 0.926991
O O2 0.413081 0.237789 0.927492
O O3 0.505679 0.346731 0.905725
O O4 0.427198 0.317919 0.000000
O O5 0.623064 0.500000 0.750000
O O6 0.500000 0.597137 0.750000
O O7 0.593685 0.570747 0.664059
O O8 0.748907 0.595335 0.738946
O O9 0.195843 0.527364 0.421033
O O10 0.420074 0.549492 0.404881
O O11 0.361767 0.443458 0.432270
O O12 0.058681 0.382912 0.090981
O O13 0.117321 0.339877 0.000000
O O14 0.500000 0.903391 0.750000
O O15 0.354745 0.929512 0.672842
O O16 0.374831 0.000000 0.750000
O O17 0.000000 0.500000 0.375995
O O18 0.344763 0.530623 0.500000
#
# Coordination Sequence:
#
# PCOD9495868 Si02
#       7
#    16  16  16  16  16  16  16
#     4   9  17  34  57  81 113 156 197 235 277 344
#     4  10  19  31  50  79 114 140 185 243 290 346
#     4  11  21  31  47  82 122 149 178 227 301 356
#     4   9  19  34  55  83 115 153 198 235 278 345
#     4  10  19  36  53  76 108 151 195 231 288 351
#     4  12  22  34  57  83 114 152 194 240 293 353
#     4  11  19  31  55  80 115 150 185 237 297 347
#
# _framework density 17.519276000000001
#
# number of rings (size 3 to 8) (size 9 to 14) (size 15 to 20)
#    0.000    1.714    2.857    7.286    0.000    1.143 
#    0.000    0.000    0.000    1.714    0.000    3.000 
#    0.000    0.000    0.000    0.000    0.000    0.000 
#
# Total GULP energy -311984.306578 kJ/mol
# GULP energy per Si atom -5571.148332 kJ/mol
# Density = 1.747940 g / cm^3
# Si number density = 17.519276 Si / 1000 Ang^3
#
#
#
# Elastic Constant Matrix: (Units=GPa)
#
#
# Indices 1 2 3 4 5 6 
#
# 1 90.8298 18.3399 40.7812 0.0000 0.0000 0.0000
# 2 18.3399 75.5242 44.7015 0.0000 0.0000 0.0000
# 3 40.7812 44.7015 101.9012 0.0000 0.0000 0.0000
# 4 0.0000 0.0000 0.0000 15.1456 0.0000 0.0000
# 5 0.0000 0.0000 0.0000 0.0000 7.4156 0.0000
# 6 0.0000 0.0000 0.0000 0.0000 0.0000 17.3971
#
#
#
# Elastic Compliance Matrix: (Units=1/GPa)
#
#
# Indices 1 2 3 4 5 6 
#
# 1 0.013422 -0.000108 -0.005324 0.000000 0.000000 0.000000
# 2 -0.000108 0.017885 -0.007803 0.000000 0.000000 0.000000
# 3 -0.005324 -0.007803 0.015367 0.000000 0.000000 0.000000
# 4 0.000000 0.000000 0.000000 0.066026 0.000000 0.000000
# 5 0.000000 0.000000 0.000000 0.000000 0.134851 0.000000
# 6 0.000000 0.000000 0.000000 0.000000 0.000000 0.057481
#
#
# Mechanical properties :
#
#
# Convention : Reuss Voigt Hill
#
# Bulk Modulus (GPa) = 49.49361 52.87782 51.18571
# Shear Modulus (GPa) = 14.78257 18.95383 16.86820
#
# Velocity S-wave (km/s) = 2.90796 3.29277 3.10633
# Velocity P-wave (km/s) = 6.29184 6.68615 6.49199
#
# Compressibility (1/GPa) = 0.02020463
#
# Stress axis : x y z
#
# Youngs Moduli (GPa) = 74.50545 55.91199 65.07488
#
# Poissons Ratio (x) = 0.00604 0.34646
# Poissons Ratio (y) = 0.00805 0.50775
# Poissons Ratio (z) = 0.39667 0.43626
#
# Static dielectric constant tensor:
#      x y z
#    x 1.647830 0.000000 0.000000 
#    y 0.000000 1.626100 0.000000 
#    z 0.000000 0.000000 1.614280 
# 
# From -- ./inp_files/57299.got.cif
#   From: 2010.05.17/outbox.cif.g08.bks.cpg/sg66_29_cif.got.tgz:57299.got - 2010.06.03 17:51:23.
