data_PCOD9495640
_publ_section_title
;
Structure prediction by ZEFSAII (Michael W. Deem and Ramdas Pophale) SiO2 
 PCOD9495640
Probable space group: C C C M
;
_chemical_formula_sum "Si O2"
_cell_formula_units_Z 52
_cell_length_a 5.241339
_cell_length_b 27.405140
_cell_length_c 14.432132
_cell_angle_alpha 90.000000
_cell_angle_beta 90.000000
_cell_angle_gamma 90.000000
_cell_volume 2073.026087
_symmetry_space_group_name_H-M "C C C M"
_symmetry_group_IT_number 66
_symmetry_cell_setting 'orthorhombic'
loop_
_space_group_symop_operation_xyz
x,y,z
-x,-y,z
x,-y,1/2-z
-x,y,1/2-z
-x,-y,-z
x,y,-z
-x,y,1/2+z
x,-y,1/2+z
1/2+x,1/2+y,z
1/2-x,1/2-y,z
1/2+x,1/2-y,1/2-z
1/2-x,1/2+y,1/2-z
1/2-x,1/2-y,-z
1/2+x,1/2+y,-z
1/2-x,1/2+y,1/2+z
1/2+x,1/2-y,1/2+z
loop_
_atom_site_type_symbol
_atom_site_label
_atom_site_fract_x
_atom_site_fract_y
_atom_site_fract_z
Si Si1 0.793553 0.801634 0.315289
Si Si2 0.750000 0.750000 0.500000
Si Si3 0.465171 0.444684 0.612209
Si Si4 0.962392 0.615127 0.888357
O O1 0.750000 0.750000 0.265067
O O2 0.883339 0.783578 0.417244
O O3 0.549754 0.834349 0.342302
O O4 0.000000 0.827163 0.250000
O O5 0.500000 0.500000 0.644698
O O6 0.474754 0.446111 0.500000
O O7 0.192504 0.421864 0.635010
O O8 0.699355 0.410051 0.639540
O O9 0.958788 0.622812 0.000000
#
# Coordination Sequence:
#
# PCOD9495640 Si02
#       4
#    16   4  16  16
#     4  10  21  39  63  95 139 190 248 304 373 448
#     4   8  20  44  62  90 150 186 250 314 372 448
#     4   9  18  31  56  91 130 176 231 282 347 432
#     4  10  18  35  58  90 134 182 228 292 358 428
#
# _framework density 25.084101
#
# number of rings (size 3 to 8) (size 9 to 14) (size 15 to 20)
#    0.923    1.538    1.538    0.923    0.000    6.154 
#    0.000    0.769    0.000    0.923    0.000    4.308 
#    0.000    0.000    0.000    2.615    0.000    0.000 
#
# Total GULP energy -144755.194114 kJ/mol
# GULP energy per Si atom -5567.507466 kJ/mol
# Density = 2.502701 g / cm^3
# Si number density = 25.084101 Si / 1000 Ang^3
#
#
#
# Elastic Constant Matrix: (Units=GPa)
#
#
# Indices 1 2 3 4 5 6 
#
# 1 101.0787 19.8244 22.8088 0.0000 0.0000 0.0000
# 2 19.8244 140.3304 11.0865 0.0000 0.0000 0.0000
# 3 22.8088 11.0865 140.5322 0.0000 0.0000 0.0000
# 4 0.0000 0.0000 0.0000 59.9545 0.0000 0.0000
# 5 0.0000 0.0000 0.0000 0.0000 27.2662 0.0000
# 6 0.0000 0.0000 0.0000 0.0000 0.0000 29.6705
#
#
#
# Elastic Compliance Matrix: (Units=1/GPa)
#
#
# Indices 1 2 3 4 5 6 
#
# 1 0.010521 -0.001360 -0.001600 0.000000 0.000000 0.000000
# 2 -0.001360 0.007346 -0.000359 0.000000 0.000000 0.000000
# 3 -0.001600 -0.000359 0.007404 0.000000 0.000000 0.000000
# 4 0.000000 0.000000 0.000000 0.016679 0.000000 0.000000
# 5 0.000000 0.000000 0.000000 0.000000 0.036675 0.000000
# 6 0.000000 0.000000 0.000000 0.000000 0.000000 0.033703
#
#
# Mechanical properties :
#
#
# Convention : Reuss Voigt Hill
#
# Bulk Modulus (GPa) = 53.66722 54.37565 54.02144
# Shear Modulus (GPa) = 39.94280 45.25967 42.60124
#
# Velocity S-wave (km/s) = 3.99476 4.25233 4.12556
# Velocity P-wave (km/s) = 6.53597 6.77009 6.65406
#
# Compressibility (1/GPa) = 0.01863335
#
# Stress axis : x y z
#
# Youngs Moduli (GPa) = 95.04696 136.11928 135.06476
#
# Poissons Ratio (x) = 0.18511 0.21615
# Poissons Ratio (y) = 0.12925 0.04847
# Poissons Ratio (z) = 0.15211 0.04885
#
# Static dielectric constant tensor:
#      x y z
#    x 1.400860 0.000000 0.000000 
#    y 0.000000 2.031290 0.000000 
#    z 0.000000 0.000000 1.951380 
# 
# From -- ./inp_files/34823.got.cif
#   From: 2010.05.17/outbox.cif.g08.bks.cpg/sg66_18_cif.got.tgz:34823.got - 2010.06.03 17:51:23.
