data_PCOD9495506
_publ_section_title
;
Structure prediction by ZEFSAII (Michael W. Deem and Ramdas Pophale) SiO2 
 PCOD9495506
Probable space group: C C C M
;
_chemical_formula_sum "Si O2"
_cell_formula_units_Z 88
_cell_length_a 21.053766
_cell_length_b 13.339709
_cell_length_c 17.173965
_cell_angle_alpha 90.000000
_cell_angle_beta 90.000000
_cell_angle_gamma 90.000000
_cell_volume 4823.327164
_symmetry_space_group_name_H-M "C C C M"
_symmetry_group_IT_number 66
_symmetry_cell_setting 'orthorhombic'
loop_
_space_group_symop_operation_xyz
x,y,z
-x,-y,z
x,-y,1/2-z
-x,y,1/2-z
-x,-y,-z
x,y,-z
-x,y,1/2+z
x,-y,1/2+z
1/2+x,1/2+y,z
1/2-x,1/2-y,z
1/2+x,1/2-y,1/2-z
1/2-x,1/2+y,1/2-z
1/2-x,1/2-y,-z
1/2+x,1/2+y,-z
1/2-x,1/2+y,1/2+z
1/2+x,1/2-y,1/2+z
loop_
_atom_site_type_symbol
_atom_site_label
_atom_site_fract_x
_atom_site_fract_y
_atom_site_fract_z
Si Si1 0.290245 0.082170 0.410892
Si Si2 0.250000 0.750000 0.691701
Si Si3 0.890333 0.755278 0.592930
Si Si4 0.508362 0.885087 0.905104
Si Si5 0.673156 0.403854 0.201135
Si Si6 0.350734 0.870324 0.408964
O O1 0.267261 0.085518 0.500000
O O2 0.328446 0.184259 0.395747
O O3 0.231736 0.064908 0.354457
O O4 0.339104 0.989904 0.404395
O O5 0.295203 0.678698 0.742580
O O6 0.296484 0.816839 0.639425
O O7 0.894552 0.777161 0.500000
O O8 0.879074 0.851377 0.646510
O O9 0.951278 0.688816 0.616312
O O10 0.578050 0.847971 0.880891
O O11 0.500000 0.000000 0.878139
O O12 0.508498 0.888807 0.000000
O O13 0.651357 0.500000 0.250000
O O14 0.345557 0.842460 0.500000
#
# Coordination Sequence:
#
# PCOD9495506 Si02
#       6
#    16   8  16  16  16  16
#     4  10  18  32  57  87 117 149 188 237 293 351
#     4  12  23  36  55  76 114 158 194 232 285 340
#     4  10  19  34  59  89 118 151 191 239 297 354
#     4   9  16  31  59  90 117 141 176 234 296 350
#     4  12  23  36  53  80 119 161 198 240 286 342
#     4  10  20  35  56  86 117 147 185 232 288 349
#
# _framework density 18.244667
#
# number of rings (size 3 to 8) (size 9 to 14) (size 15 to 20)
#    0.000    1.636    5.455    0.818    0.000    1.455 
#    0.000    0.909    0.000    3.273    0.000    3.818 
#    0.000    0.000    0.000    0.000    0.000    0.000 
#
# Total GULP energy -245613.846152 kJ/mol
# GULP energy per Si atom -5582.132867 kJ/mol
# Density = 1.820314 g / cm^3
# Si number density = 18.244667 Si / 1000 Ang^3
#
#
#
# Elastic Constant Matrix: (Units=GPa)
#
#
# Indices 1 2 3 4 5 6 
#
# 1 74.5061 28.0122 39.0401 0.0000 0.0000 0.0000
# 2 28.0122 94.2161 52.1933 0.0000 0.0000 0.0000
# 3 39.0401 52.1933 61.6858 0.0000 0.0000 0.0000
# 4 0.0000 0.0000 0.0000 36.5248 0.0000 0.0000
# 5 0.0000 0.0000 0.0000 0.0000 39.0737 0.0000
# 6 0.0000 0.0000 0.0000 0.0000 0.0000 29.8484
#
#
#
# Elastic Compliance Matrix: (Units=1/GPa)
#
#
# Indices 1 2 3 4 5 6 
#
# 1 0.020286 0.002035 -0.014560 0.000000 0.000000 0.000000
# 2 0.002035 0.020182 -0.018364 0.000000 0.000000 0.000000
# 3 -0.014560 -0.018364 0.040965 0.000000 0.000000 0.000000
# 4 0.000000 0.000000 0.000000 0.027379 0.000000 0.000000
# 5 0.000000 0.000000 0.000000 0.000000 0.025593 0.000000
# 6 0.000000 0.000000 0.000000 0.000000 0.000000 0.033503
#
#
# Mechanical properties :
#
#
# Convention : Reuss Voigt Hill
#
# Bulk Modulus (GPa) = 50.88278 52.09990 51.49134
# Shear Modulus (GPa) = 21.16509 28.50019 24.83264
#
# Velocity S-wave (km/s) = 3.40967 3.95664 3.69330
# Velocity P-wave (km/s) = 6.59173 7.03503 6.81698
#
# Compressibility (1/GPa) = 0.01965302
#
# Stress axis : x y z
#
# Youngs Moduli (GPa) = 49.29454 49.54846 24.41134
#
# Poissons Ratio (x) = -0.10081 0.35544
# Poissons Ratio (y) = -0.10030 0.44830
# Poissons Ratio (z) = 0.71775 0.90992
#
# Static dielectric constant tensor:
#      x y z
#    x 1.618910 0.000000 0.000000 
#    y 0.000000 1.630340 0.000000 
#    z 0.000000 0.000000 1.640980 
# 
# From -- ./inp_files/38637.got.cif
#   From: 2010.05.17/outbox.cif.g08.bks.cpg/sg66_20_cif.got.tgz:38637.got - 2010.06.03 17:51:23.
