data_PCOD9495042
_publ_section_title
;
Structure prediction by ZEFSAII (Michael W. Deem and Ramdas Pophale) SiO2 
 PCOD9495042
Probable space group: C C C M
;
_chemical_formula_sum "Si O2"
_cell_formula_units_Z 128
_cell_length_a 22.230921
_cell_length_b 18.009878
_cell_length_c 19.977928
_cell_angle_alpha 90.000000
_cell_angle_beta 90.000000
_cell_angle_gamma 90.000000
_cell_volume 7998.686398
_symmetry_space_group_name_H-M "C C C M"
_symmetry_group_IT_number 66
_symmetry_cell_setting 'orthorhombic'
loop_
_space_group_symop_operation_xyz
x,y,z
-x,-y,z
x,-y,1/2-z
-x,y,1/2-z
-x,-y,-z
x,y,-z
-x,y,1/2+z
x,-y,1/2+z
1/2+x,1/2+y,z
1/2-x,1/2-y,z
1/2+x,1/2-y,1/2-z
1/2-x,1/2+y,1/2-z
1/2-x,1/2-y,-z
1/2+x,1/2+y,-z
1/2-x,1/2+y,1/2+z
1/2+x,1/2-y,1/2+z
loop_
_atom_site_type_symbol
_atom_site_label
_atom_site_fract_x
_atom_site_fract_y
_atom_site_fract_z
Si Si1 0.858692 0.584368 0.423148
Si Si2 0.318195 0.219390 0.926007
Si Si3 0.443687 0.142512 0.204725
Si Si4 0.138307 0.770452 0.285381
Si Si5 0.293075 0.417647 0.240116
Si Si6 0.499489 0.085828 0.575648
Si Si7 0.172854 0.569736 0.349814
Si Si8 0.285730 0.183610 0.327022
O O1 0.836523 0.580058 0.500000
O O2 0.929225 0.601612 0.426267
O O3 0.844619 0.507501 0.384339
O O4 0.831522 0.648777 0.378106
O O5 0.250000 0.250000 0.924905
O O6 0.350028 0.257788 0.863691
O O7 0.322004 0.132888 0.906645
O O8 0.342938 0.232847 0.000000
O O9 0.500000 0.116510 0.250000
O O10 0.423585 0.225417 0.226866
O O11 0.466408 0.136443 0.128393
O O12 0.381700 0.093649 0.201238
O O13 0.155595 0.856254 0.274396
O O14 0.184804 0.723386 0.238486
O O15 0.317801 0.500000 0.250000
O O16 0.237566 0.427581 0.187208
O O17 0.258168 0.381838 0.303005
O O18 0.524780 0.088759 0.500000
O O19 0.500000 0.000000 0.598647
O O20 0.250000 0.250000 0.361289
#
# Coordination Sequence:
#
# PCOD9495042 Si02
#       8
#    16  16  16  16  16  16  16  16
#     4  11  22  35  50  71 102 142 175 210 253 296
#     4  10  17  27  46  72 105 141 167 200 243 300
#     4  11  22  33  52  75 101 135 178 221 248 297
#     4  10  20  36  50  74 105 132 178 215 260 312
#     4  11  19  32  55  76 101 133 170 208 270 318
#     4  10  21  35  46  66 103 141 176 205 246 297
#     4  11  20  32  48  76 106 135 172 204 256 305
#     4  10  19  33  51  71 101 134 165 214 251 303
#
# _framework density 16.002627
#
# number of rings (size 3 to 8) (size 9 to 14) (size 15 to 20)
#    0.000    1.500    6.250    1.500    0.000    2.500 
#    2.250    0.000    0.000    0.375    0.000    0.000 
#    0.000    0.000    0.000   13.750    0.000    0.000 
#
# Total GULP energy -356286.784878 kJ/mol
# GULP energy per Si atom -5566.981014 kJ/mol
# Density = 1.596620 g / cm^3
# Si number density = 16.002627 Si / 1000 Ang^3
#
#
#
# Elastic Constant Matrix: (Units=GPa)
#
#
# Indices 1 2 3 4 5 6 
#
# 1 43.8367 29.0439 21.8836 0.0000 0.0000 0.0000
# 2 29.0439 109.0379 28.8016 0.0000 0.0000 0.0000
# 3 21.8836 28.8016 54.2481 0.0000 0.0000 0.0000
# 4 0.0000 0.0000 0.0000 61.5640 0.0000 0.0000
# 5 0.0000 0.0000 0.0000 0.0000 20.9819 0.0000
# 6 0.0000 0.0000 0.0000 0.0000 0.0000 23.7273
#
#
#
# Elastic Compliance Matrix: (Units=1/GPa)
#
#
# Indices 1 2 3 4 5 6 
#
# 1 0.031476 -0.005851 -0.009591 0.000000 0.000000 0.000000
# 2 -0.005851 0.011755 -0.003881 0.000000 0.000000 0.000000
# 3 -0.009591 -0.003881 0.024363 0.000000 0.000000 0.000000
# 4 0.000000 0.000000 0.000000 0.016243 0.000000 0.000000
# 5 0.000000 0.000000 0.000000 0.000000 0.047660 0.000000
# 6 0.000000 0.000000 0.000000 0.000000 0.000000 0.042146
#
#
# Mechanical properties :
#
#
# Convention : Reuss Voigt Hill
#
# Bulk Modulus (GPa) = 34.54349 40.73120 37.63734
# Shear Modulus (GPa) = 22.52880 29.74753 26.13816
#
# Velocity S-wave (km/s) = 3.75616 4.31619 4.04588
# Velocity P-wave (km/s) = 6.35961 7.09559 6.73766
#
# Compressibility (1/GPa) = 0.02894901
#
# Stress axis : x y z
#
# Youngs Moduli (GPa) = 31.76983 85.07312 41.04546
#
# Poissons Ratio (x) = 0.49774 0.39368
# Poissons Ratio (y) = 0.18588 0.15928
# Poissons Ratio (z) = 0.30471 0.33013
#
# Static dielectric constant tensor:
#      x y z
#    x 1.583170 0.000000 0.000000 
#    y 0.000000 1.556590 0.000000 
#    z 0.000000 0.000000 1.560950 
# 
# From -- ./inp_files/52048.got.cif
#   From: 2010.05.17/outbox.cif.g08.bks.cpg/sg66_27_cif.got.tgz:52048.got - 2010.06.03 17:51:23.
