data_PCOD9495897
_publ_section_title
;
Structure prediction by ZEFSAII (Michael W. Deem and Ramdas Pophale) SiO2 
 PCOD9495897
Probable space group: C C C M
;
_chemical_formula_sum "Si O2"
_cell_formula_units_Z 112
_cell_length_a 26.927274
_cell_length_b 12.221386
_cell_length_c 14.758874
_cell_angle_alpha 90.000000
_cell_angle_beta 90.000000
_cell_angle_gamma 90.000000
_cell_volume 4856.977322
_symmetry_space_group_name_H-M "C C C M"
_symmetry_group_IT_number 66
_symmetry_cell_setting 'orthorhombic'
loop_
_space_group_symop_operation_xyz
x,y,z
-x,-y,z
x,-y,1/2-z
-x,y,1/2-z
-x,-y,-z
x,y,-z
-x,y,1/2+z
x,-y,1/2+z
1/2+x,1/2+y,z
1/2-x,1/2-y,z
1/2+x,1/2-y,1/2-z
1/2-x,1/2+y,1/2-z
1/2-x,1/2-y,-z
1/2+x,1/2+y,-z
1/2-x,1/2+y,1/2+z
1/2+x,1/2-y,1/2+z
loop_
_atom_site_type_symbol
_atom_site_label
_atom_site_fract_x
_atom_site_fract_y
_atom_site_fract_z
Si Si1 0.488553 0.746315 0.356149
Si Si2 0.908028 0.146215 0.893981
Si Si3 0.137164 0.365559 0.395470
Si Si4 0.755419 0.378323 0.889830
Si Si5 0.066308 0.450887 0.847137
Si Si6 0.165387 0.967764 0.611085
Si Si7 0.119663 0.753891 0.607514
O O1 0.500000 0.755133 0.250000
O O2 0.534087 0.675509 0.390674
O O3 0.477809 0.873601 0.385811
O O4 0.435597 0.693436 0.380145
O O5 0.880624 0.252002 0.852250
O O6 0.883163 0.036425 0.858233
O O7 0.895902 0.142560 0.000000
O O8 0.148683 0.340221 0.500000
O O9 0.189078 0.411137 0.359512
O O10 0.091467 0.448635 0.396859
O O11 0.750000 0.250000 0.864868
O O12 0.712581 0.461150 0.858719
O O13 0.751088 0.382344 0.000000
O O14 0.053936 0.500000 0.750000
O O15 0.110861 0.360503 0.841714
O O16 0.166085 0.960519 0.500000
O O17 0.159508 0.841758 0.639941
O O18 0.126389 0.729717 0.500000
#
# Coordination Sequence:
#
# PCOD9495897 Si02
#       7
#    16  16  16  16  16  16  16
#     4  10  22  37  56  78 110 154 196 234 291 351
#     4  10  19  31  54  86 114 147 192 240 286 338
#     4  10  19  31  55  87 113 142 188 237 281 337
#     4   9  15  29  54  86 117 146 184 235 287 336
#     4  10  22  38  58  74 112 152 193 237 291 346
#     4   9  17  33  57  86 120 151 190 240 293 343
#     4   9  20  38  59  83 115 154 193 240 290 347
#
# _framework density 23.059609999999999
#
# number of rings (size 3 to 8) (size 9 to 14) (size 15 to 20)
#    0.857    1.571    1.429    1.714    0.000    2.571 
#    0.000    5.714    0.000    6.857    0.000    0.000 
#    0.000    0.000    0.000    0.000    0.000    0.000 
#
# Total GULP energy -311798.255805 kJ/mol
# GULP energy per Si atom -5567.825997 kJ/mol
# Density = 2.300712 g / cm^3
# Si number density = 23.059610 Si / 1000 Ang^3
#
#
#
# Elastic Constant Matrix: (Units=GPa)
#
#
# Indices 1 2 3 4 5 6 
#
# 1 82.1535 24.8383 -7.1479 0.0000 0.0000 0.0000
# 2 24.8383 92.3005 6.7523 0.0000 0.0000 0.0000
# 3 -7.1479 6.7523 43.8151 0.0000 0.0000 0.0000
# 4 0.0000 0.0000 0.0000 6.7141 0.0000 0.0000
# 5 0.0000 0.0000 0.0000 0.0000 -20.2223 0.0000
# 6 0.0000 0.0000 0.0000 0.0000 0.0000 22.8675
#
#
#
# Elastic Compliance Matrix: (Units=1/GPa)
#
#
# Indices 1 2 3 4 5 6 
#
# 1 0.013584 -0.003861 0.002811 0.000000 0.000000 0.000000
# 2 -0.003861 0.012055 -0.002488 0.000000 0.000000 0.000000
# 3 0.002811 -0.002488 0.023665 0.000000 0.000000 0.000000
# 4 0.000000 0.000000 0.000000 0.148940 0.000000 0.000000
# 5 0.000000 0.000000 0.000000 0.000000 -0.049450 0.000000
# 6 0.000000 0.000000 0.000000 0.000000 0.000000 0.043730
#
#
# Mechanical properties :
#
#
# Convention : Reuss Voigt Hill
#
# Bulk Modulus (GPa) = 23.68033 29.68385 26.68209
# Shear Modulus (GPa) = 23.39985 14.79362 19.09673
#
# Velocity S-wave (km/s) = 3.18898 2.53561 2.88088
# Velocity P-wave (km/s) = 4.88374 4.63390 4.76046
#
# Compressibility (1/GPa) = 0.04222914
#
# Stress axis : x y z
#
# Youngs Moduli (GPa) = 73.61417 82.95144 42.25617
#
# Poissons Ratio (x) = 0.32030 -0.11879
# Poissons Ratio (y) = 0.28424 0.10512
# Poissons Ratio (z) = -0.20694 0.20636
#
# Static dielectric constant tensor:
#      x y z
#    x 1.920990 0.000000 0.000000 
#    y 0.000000 1.888990 0.000000 
#    z 0.000000 0.000000 1.897820 
# 
# From -- ./inp_files/53146.got.cif
#   From: 2010.05.17/outbox.cif.g08.bks.cpg/sg66_27_cif.got.tgz:53146.got - 2010.06.03 17:51:23.
