data_PCOD9495056
_publ_section_title
;
Structure prediction by ZEFSAII (Michael W. Deem and Ramdas Pophale) SiO2 
 PCOD9495056
Probable space group: C C C M
;
_chemical_formula_sum "Si O2"
_cell_formula_units_Z 80
_cell_length_a 28.272497
_cell_length_b 18.205280
_cell_length_c 8.721679
_cell_angle_alpha 90.000000
_cell_angle_beta 90.000000
_cell_angle_gamma 90.000000
_cell_volume 4489.124271
_symmetry_space_group_name_H-M "C C C M"
_symmetry_group_IT_number 66
_symmetry_cell_setting 'orthorhombic'
loop_
_space_group_symop_operation_xyz
x,y,z
-x,-y,z
x,-y,1/2-z
-x,y,1/2-z
-x,-y,-z
x,y,-z
-x,y,1/2+z
x,-y,1/2+z
1/2+x,1/2+y,z
1/2-x,1/2-y,z
1/2+x,1/2-y,1/2-z
1/2-x,1/2+y,1/2-z
1/2-x,1/2-y,-z
1/2+x,1/2+y,-z
1/2-x,1/2+y,1/2+z
1/2+x,1/2-y,1/2+z
loop_
_atom_site_type_symbol
_atom_site_label
_atom_site_fract_x
_atom_site_fract_y
_atom_site_fract_z
Si Si1 0.290130 0.686731 0.326259
Si Si2 0.052336 0.771336 0.317955
Si Si3 0.639060 0.203823 0.818626
Si Si4 0.553558 0.574470 0.683697
Si Si5 0.216382 0.419252 0.683710
O O1 0.306574 0.672047 0.500000
O O2 0.250000 0.750000 0.333771
O O3 0.330644 0.723994 0.225649
O O4 0.263648 0.617470 0.253394
O O5 0.048858 0.779557 0.500000
O O6 0.089858 0.709482 0.270847
O O7 0.071575 0.847699 0.244933
O O8 0.000000 0.758111 0.250000
O O9 0.672292 0.134519 0.777337
O O10 0.630346 0.202379 0.000000
O O11 0.576503 0.500000 0.750000
O O12 0.500000 0.574243 0.750000
O O13 0.552866 0.572495 0.500000
O O14 0.209371 0.500000 0.750000
O O15 0.220264 0.420849 0.500000
#
# Coordination Sequence:
#
# PCOD9495056 Si02
#       5
#    16  16  16  16  16
#     4   9  17  31  52  77 104 134 168 206 252 307
#     4  11  21  34  52  75 103 139 182 225 268 313
#     4  10  20  35  54  78 107 140 177 217 263 313
#     4  10  17  28  45  66  92 123 161 205 252 300
#     4  10  20  34  55  81 110 141 174 214 261 315
#
# _framework density 17.820848000000002
#
# number of rings (size 3 to 8) (size 9 to 14) (size 15 to 20)
#    0.000    2.000    0.000    7.200    0.000    4.800 
#    0.000    1.000    0.000    0.600    0.000    4.200 
#    0.000    0.000    0.000    0.000    0.000    0.000 
#
# Total GULP energy -223115.562041 kJ/mol
# GULP energy per Si atom -5577.889051 kJ/mol
# Density = 1.778029 g / cm^3
# Si number density = 17.820848 Si / 1000 Ang^3
#
#
#
# Elastic Constant Matrix: (Units=GPa)
#
#
# Indices 1 2 3 4 5 6 
#
# 1 60.7400 40.0766 25.0764 0.0000 0.0000 0.0000
# 2 40.0766 107.5920 45.0906 0.0000 0.0000 0.0000
# 3 25.0764 45.0906 120.9144 0.0000 0.0000 0.0000
# 4 0.0000 0.0000 0.0000 30.6346 0.0000 0.0000
# 5 0.0000 0.0000 0.0000 0.0000 22.9439 0.0000
# 6 0.0000 0.0000 0.0000 0.0000 0.0000 18.8987
#
#
#
# Elastic Compliance Matrix: (Units=1/GPa)
#
#
# Indices 1 2 3 4 5 6 
#
# 1 0.022153 -0.007498 -0.001798 0.000000 0.000000 0.000000
# 2 -0.007498 0.013554 -0.003499 0.000000 0.000000 0.000000
# 3 -0.001798 -0.003499 0.009948 0.000000 0.000000 0.000000
# 4 0.000000 0.000000 0.000000 0.032643 0.000000 0.000000
# 5 0.000000 0.000000 0.000000 0.000000 0.043584 0.000000
# 6 0.000000 0.000000 0.000000 0.000000 0.000000 0.052914
#
#
# Mechanical properties :
#
#
# Convention : Reuss Voigt Hill
#
# Bulk Modulus (GPa) = 49.84080 56.63707 53.23894
# Shear Modulus (GPa) = 24.14569 26.42895 25.28732
#
# Velocity S-wave (km/s) = 3.68491 3.85520 3.77101
# Velocity P-wave (km/s) = 6.79214 7.18798 6.99286
#
# Compressibility (1/GPa) = 0.02006388
#
# Stress axis : x y z
#
# Youngs Moduli (GPa) = 45.13985 73.77938 100.52068
#
# Poissons Ratio (x) = 0.55322 0.18075
# Poissons Ratio (y) = 0.33847 0.35176
# Poissons Ratio (z) = 0.08117 0.25818
#
# Static dielectric constant tensor:
#      x y z
#    x 1.638460 0.000000 0.000000 
#    y 0.000000 1.633510 0.000000 
#    z 0.000000 0.000000 1.602500 
# 
# From -- ./inp_files/10071.got.cif
#   From: 2010.05.17/outbox.cif.g08.bks.cpg/sg66_6_cif.got.tgz:10071.got - 2010.06.03 17:51:23.
