data_PCOD9495080
_publ_section_title
;
Structure prediction by ZEFSAII (Michael W. Deem and Ramdas Pophale) SiO2 
 PCOD9495080
Probable space group: C C C M
;
_chemical_formula_sum "Si O2"
_cell_formula_units_Z 112
_cell_length_a 12.101821
_cell_length_b 24.892602
_cell_length_c 19.392846
_cell_angle_alpha 90.000000
_cell_angle_beta 90.000000
_cell_angle_gamma 90.000000
_cell_volume 5842.013672
_symmetry_space_group_name_H-M "C C C M"
_symmetry_group_IT_number 66
_symmetry_cell_setting 'orthorhombic'
loop_
_space_group_symop_operation_xyz
x,y,z
-x,-y,z
x,-y,1/2-z
-x,y,1/2-z
-x,-y,-z
x,y,-z
-x,y,1/2+z
x,-y,1/2+z
1/2+x,1/2+y,z
1/2-x,1/2-y,z
1/2+x,1/2-y,1/2-z
1/2-x,1/2+y,1/2-z
1/2-x,1/2-y,-z
1/2+x,1/2+y,-z
1/2-x,1/2+y,1/2+z
1/2+x,1/2-y,1/2+z
loop_
_atom_site_type_symbol
_atom_site_label
_atom_site_fract_x
_atom_site_fract_y
_atom_site_fract_z
Si Si1 0.143627 0.872819 0.175317
Si Si2 0.666514 0.059476 0.224462
Si Si3 0.482953 0.062454 0.597166
Si Si4 0.910029 0.154779 0.667238
Si Si5 0.169448 0.665156 0.921817
Si Si6 0.483546 0.775801 0.667436
Si Si7 0.825367 0.629294 0.861263
O O1 0.221348 0.924292 0.184915
O O2 0.128439 0.846237 0.251765
O O3 0.215402 0.839300 0.120120
O O4 0.016944 0.882319 0.155336
O O5 0.559722 0.060497 0.176108
O O6 0.660825 0.101290 0.286606
O O7 0.679192 0.000000 0.250000
O O8 0.391258 0.106115 0.571994
O O9 0.600301 0.091946 0.590087
O O10 0.500000 0.000000 0.575701
O O11 0.953467 0.214420 0.652255
O O12 0.803564 0.136208 0.625084
O O13 0.088372 0.701413 0.874705
O O14 0.182814 0.684987 0.000000
O O15 0.500000 0.781702 0.750000
O O16 0.382247 0.813091 0.644301
#
# Coordination Sequence:
#
# PCOD9495080 Si02
#       7
#    16  16  16  16  16  16  16
#     4   9  19  36  52  79 117 153 191 243 287 348
#     4  10  17  28  51  79 118 143 185 243 302 342
#     4  10  18  31  54  81 110 151 190 238 293 350
#     4  10  19  35  54  78 115 148 198 237 292 346
#     4  10  23  39  58  88 122 154 196 245 294 354
#     4  11  19  34  59  82 111 153 193 245 293 342
#     4  10  19  28  48  81 111 142 183 236 293 346
#
# _framework density 19.171472999999999
#
# number of rings (size 3 to 8) (size 9 to 14) (size 15 to 20)
#    0.000    2.000    2.857    4.286    0.000    0.857 
#    0.000    7.143    0.000   10.286    0.000    1.000 
#    0.000    0.000    0.000    0.000    0.000    0.000 
#
# Total GULP energy -311850.713060 kJ/mol
# GULP energy per Si atom -5568.762733 kJ/mol
# Density = 1.912784 g / cm^3
# Si number density = 19.171473 Si / 1000 Ang^3
#
#
#
# Elastic Constant Matrix: (Units=GPa)
#
#
# Indices 1 2 3 4 5 6 
#
# 1 160.7755 23.4558 32.2829 0.0000 0.0000 0.0000
# 2 23.4558 59.0390 8.9875 0.0000 0.0000 0.0000
# 3 32.2829 8.9875 72.9011 0.0000 0.0000 0.0000
# 4 0.0000 0.0000 0.0000 -5.9731 0.0000 0.0000
# 5 0.0000 0.0000 0.0000 0.0000 0.9205 0.0000
# 6 0.0000 0.0000 0.0000 0.0000 0.0000 16.1270
#
#
#
# Elastic Compliance Matrix: (Units=1/GPa)
#
#
# Indices 1 2 3 4 5 6 
#
# 1 0.007146 -0.002403 -0.002868 0.000000 0.000000 0.000000
# 2 -0.002403 0.018070 -0.001164 0.000000 0.000000 0.000000
# 3 -0.002868 -0.001164 0.015131 0.000000 0.000000 0.000000
# 4 0.000000 0.000000 0.000000 -0.167417 0.000000 0.000000
# 5 0.000000 0.000000 0.000000 0.000000 1.086335 0.000000
# 6 0.000000 0.000000 0.000000 0.000000 0.000000 0.062008
#
#
# Mechanical properties :
#
#
# Convention : Reuss Voigt Hill
#
# Bulk Modulus (GPa) = 36.39351 46.90755 41.65053
# Shear Modulus (GPa) = 4.79248 17.41418 11.10333
#
# Velocity S-wave (km/s) = 1.58279 3.01713 2.40918
# Velocity P-wave (km/s) = 4.72913 6.05458 5.43243
#
# Compressibility (1/GPa) = 0.02747743
#
# Stress axis : x y z
#
# Youngs Moduli (GPa) = 139.93205 55.34148 66.08991
#
# Poissons Ratio (x) = 0.13296 0.18957
# Poissons Ratio (y) = 0.33619 0.07691
# Poissons Ratio (z) = 0.40138 0.06440
#
# Static dielectric constant tensor:
#      x y z
#    x 1.692940 0.000000 0.000000 
#    y 0.000000 1.651400 0.000000 
#    z 0.000000 0.000000 1.718210 
# 
# From -- ./inp_files/49149.got.cif
#   From: 2010.05.17/outbox.cif.g08.bks.cpg/sg66_25_cif.got.tgz:49149.got - 2010.06.03 17:51:23.
