data_PCOD9495793
_publ_section_title
;
Structure prediction by ZEFSAII (Michael W. Deem and Ramdas Pophale) SiO2 
 PCOD9495793
Probable space group: C C C M
;
_chemical_formula_sum "Si O2"
_cell_formula_units_Z 96
_cell_length_a 26.096297
_cell_length_b 24.411952
_cell_length_c 8.384465
_cell_angle_alpha 90.000000
_cell_angle_beta 90.000000
_cell_angle_gamma 90.000000
_cell_volume 5341.420267
_symmetry_space_group_name_H-M "C C C M"
_symmetry_group_IT_number 66
_symmetry_cell_setting 'orthorhombic'
loop_
_space_group_symop_operation_xyz
x,y,z
-x,-y,z
x,-y,1/2-z
-x,y,1/2-z
-x,-y,-z
x,y,-z
-x,y,1/2+z
x,-y,1/2+z
1/2+x,1/2+y,z
1/2-x,1/2-y,z
1/2+x,1/2-y,1/2-z
1/2-x,1/2+y,1/2-z
1/2-x,1/2-y,-z
1/2+x,1/2+y,-z
1/2-x,1/2+y,1/2+z
1/2+x,1/2-y,1/2+z
loop_
_atom_site_type_symbol
_atom_site_label
_atom_site_fract_x
_atom_site_fract_y
_atom_site_fract_z
Si Si1 0.942902 0.938640 0.691298
Si Si2 0.942420 0.439456 0.689289
Si Si3 0.748992 0.062035 0.192509
Si Si4 0.690235 0.249341 0.805238
Si Si5 0.652654 0.367310 0.194804
Si Si6 0.150308 0.631634 0.807077
O O1 0.943197 0.939523 0.500000
O O2 0.899946 0.895801 0.746910
O O3 0.000000 0.925293 0.750000
O O4 0.930248 0.000000 0.750000
O O5 0.926818 0.500000 0.750000
O O6 0.943216 0.440988 0.500000
O O7 0.902227 0.394488 0.747644
O O8 0.000000 0.429029 0.750000
O O9 0.799090 0.095630 0.245108
O O10 0.697683 0.093328 0.245492
O O11 0.750184 0.000000 0.250000
O O12 0.749022 0.062362 0.000000
O O13 0.750000 0.250000 0.756388
O O14 0.662441 0.305034 0.753229
O O15 0.662533 0.193546 0.754114
O O16 0.690566 0.249220 0.000000
O O17 0.652423 0.366983 0.000000
O O18 0.149607 0.631532 0.000000
#
# Coordination Sequence:
#
# PCOD9495793 Si02
#       6
#    16  16  16  16  16  16
#     4  10  19  32  51  73 101 133 170 213 261 311
#     4  11  22  38  59  81 109 141 178 220 267 319
#     4  10  19  30  47  74 105 134 168 212 263 314
#     4   9  15  29  53  78 104 139 181 220 255 303
#     4   9  17  30  49  75 102 132 174 220 258 303
#     4  10  19  32  54  81 108 139 177 218 263 314
#
# _framework density 17.972747999999999
#
# number of rings (size 3 to 8) (size 9 to 14) (size 15 to 20)
#    0.000    2.167    1.667    4.000    0.000    2.000 
#    0.000    1.667    0.000    5.500    0.000    0.000 
#    0.000    0.000    0.000    0.000    0.000    0.000 
#
# Total GULP energy -267925.675815 kJ/mol
# GULP energy per Si atom -5581.784913 kJ/mol
# Density = 1.793184 g / cm^3
# Si number density = 17.972748 Si / 1000 Ang^3
#
#
#
# Elastic Constant Matrix: (Units=GPa)
#
#
# Indices 1 2 3 4 5 6 
#
# 1 135.4692 115.4516 23.8155 0.0000 0.0000 0.0000
# 2 115.4516 197.4345 25.9958 0.0000 0.0000 0.0000
# 3 23.8155 25.9958 30.0290 0.0000 0.0000 0.0000
# 4 0.0000 0.0000 0.0000 16.0166 0.0000 0.0000
# 5 0.0000 0.0000 0.0000 0.0000 11.3618 0.0000
# 6 0.0000 0.0000 0.0000 0.0000 0.0000 30.5086
#
#
#
# Elastic Compliance Matrix: (Units=1/GPa)
#
#
# Indices 1 2 3 4 5 6 
#
# 1 0.015345 -0.008319 -0.004968 0.000000 0.000000 0.000000
# 2 -0.008319 0.010226 -0.002255 0.000000 0.000000 0.000000
# 3 -0.004968 -0.002255 0.039194 0.000000 0.000000 0.000000
# 4 0.000000 0.000000 0.000000 0.062435 0.000000 0.000000
# 5 0.000000 0.000000 0.000000 0.000000 0.088014 0.000000
# 6 0.000000 0.000000 0.000000 0.000000 0.000000 0.032778
#
#
# Mechanical properties :
#
#
# Convention : Reuss Voigt Hill
#
# Bulk Modulus (GPa) = 29.69104 77.05095 53.37099
# Shear Modulus (GPa) = 17.22333 24.75537 20.98935
#
# Velocity S-wave (km/s) = 3.09900 3.71534 3.42108
# Velocity P-wave (km/s) = 5.41858 7.83384 6.73536
#
# Compressibility (1/GPa) = 0.03368020
#
# Stress axis : x y z
#
# Youngs Moduli (GPa) = 65.16884 97.78567 25.51427
#
# Poissons Ratio (x) = 0.81346 0.12676
# Poissons Ratio (y) = 0.54213 0.05754
# Poissons Ratio (z) = 0.32377 0.22054
#
# Static dielectric constant tensor:
#      x y z
#    x 1.602860 0.000000 0.000000 
#    y 0.000000 1.599230 0.000000 
#    z 0.000000 0.000000 1.621630 
# 
# From -- ./inp_files/10488.got.cif
#   From: 2010.05.17/outbox.cif.g08.bks.cpg/sg66_6_cif.got.tgz:10488.got - 2010.06.03 17:51:23.
