data_PCOD9495969
_publ_section_title
;
Structure prediction by ZEFSAII (Michael W. Deem and Ramdas Pophale) SiO2 
 PCOD9495969
Probable space group: C C C M
;
_chemical_formula_sum "Si O2"
_cell_formula_units_Z 112
_cell_length_a 34.045519
_cell_length_b 10.377279
_cell_length_c 17.979800
_cell_angle_alpha 90.000000
_cell_angle_beta 90.000000
_cell_angle_gamma 90.000000
_cell_volume 6352.260632
_symmetry_space_group_name_H-M "C C C M"
_symmetry_group_IT_number 66
_symmetry_cell_setting 'orthorhombic'
loop_
_space_group_symop_operation_xyz
x,y,z
-x,-y,z
x,-y,1/2-z
-x,y,1/2-z
-x,-y,-z
x,y,-z
-x,y,1/2+z
x,-y,1/2+z
1/2+x,1/2+y,z
1/2-x,1/2-y,z
1/2+x,1/2-y,1/2-z
1/2-x,1/2+y,1/2-z
1/2-x,1/2-y,-z
1/2+x,1/2+y,-z
1/2-x,1/2+y,1/2+z
1/2+x,1/2-y,1/2+z
loop_
_atom_site_type_symbol
_atom_site_label
_atom_site_fract_x
_atom_site_fract_y
_atom_site_fract_z
Si Si1 0.000000 0.156599 0.664265
Si Si2 0.918454 0.845013 0.911819
Si Si3 0.338534 0.733519 0.161489
Si Si4 0.793607 0.500000 0.837708
Si Si5 0.838534 0.766481 0.838511
Si Si6 0.290780 0.500000 0.911330
Si Si7 0.581546 0.345013 0.088181
O O1 0.039811 0.195563 0.622566
O O2 0.000000 0.198682 0.750000
O O3 0.960189 0.195563 0.622566
O O4 0.000000 0.000000 0.663863
O O5 0.882059 0.777705 0.871745
O O6 0.914171 1.000000 0.900316
O O7 0.917721 0.822168 0.000000
O O8 0.339601 0.709797 0.250000
O O9 0.312188 0.624788 0.122464
O O10 0.382059 0.722294 0.128255
O O11 0.319062 0.872365 0.148532
O O12 0.782225 0.500000 0.750000
O O13 0.819062 0.627635 0.851468
O O14 0.754368 0.500000 0.886158
O O15 0.812188 0.875211 0.877536
O O16 0.294592 0.500000 0.000000
O O17 0.582279 0.322168 0.000000
#
# Coordination Sequence:
#
# PCOD9495969 Si02
#       7
#    16  16  16  16  16  16  16
#     4   9  17  29  49  78 111 146 185 224 271 325
#     4  10  19  32  52  81 115 145 181 227 277 328
#     4  11  22  38  60  82 111 148 188 231 277 331
#     4  10  24  42  58  81 110 147 190 232 279 332
#     4  11  22  38  60  82 111 148 188 231 277 331
#     4  12  24  38  58  85 112 143 186 234 282 332
#     4  10  19  32  52  81 115 145 181 227 277 328
#
# _framework density 17.631518
#
# number of rings (size 3 to 8) (size 9 to 14) (size 15 to 20)
#    0.000    1.571    1.429    4.286    0.000    8.571 
#    0.000    0.000    0.000    0.857    0.000    6.000 
#    0.000    0.000    0.000    0.000    0.000    0.000 
#
# Total GULP energy -312923.653708 kJ/mol
# GULP energy per Si atom -5587.922388 kJ/mol
# Density = 1.759139 g / cm^3
# Si number density = 17.631518 Si / 1000 Ang^3
#
#
#
# Elastic Constant Matrix: (Units=GPa)
#
#
# Indices 1 2 3 4 5 6 
#
# 1 185.0215 62.4787 110.1564 0.0000 0.0000 0.0000
# 2 62.4787 95.1541 76.4366 0.0000 0.0000 0.0000
# 3 110.1564 76.4366 139.6464 0.0000 0.0000 0.0000
# 4 0.0000 0.0000 0.0000 -2.4702 0.0000 0.0000
# 5 0.0000 0.0000 0.0000 0.0000 59.7318 0.0000
# 6 0.0000 0.0000 0.0000 0.0000 0.0000 -8.0281
#
#
#
# Elastic Compliance Matrix: (Units=1/GPa)
#
#
# Indices 1 2 3 4 5 6 
#
# 1 0.010200 -0.000418 -0.007817 0.000000 0.000000 0.000000
# 2 -0.000418 0.018773 -0.009946 0.000000 0.000000 0.000000
# 3 -0.007817 -0.009946 0.018772 0.000000 0.000000 0.000000
# 4 0.000000 0.000000 0.000000 -0.404830 0.000000 0.000000
# 5 0.000000 0.000000 0.000000 0.000000 0.016742 0.000000
# 6 0.000000 0.000000 0.000000 0.000000 0.000000 -0.124563
#
#
# Mechanical properties :
#
#
# Convention : Reuss Voigt Hill
#
# Bulk Modulus (GPa) = 87.85566 101.99614 94.92590
# Shear Modulus (GPa) = -11.77164 21.23006 4.72921
#
# Velocity S-wave (km/s) = -2.58669 3.47377 1.63953
# Velocity P-wave (km/s) = 6.40435 8.60603 7.58549
#
# Compressibility (1/GPa) = 0.01138231
#
# Stress axis : x y z
#
# Youngs Moduli (GPa) = 98.03814 53.26729 53.27196
#
# Poissons Ratio (x) = 0.02225 0.41645
# Poissons Ratio (y) = 0.04096 0.52985
# Poissons Ratio (z) = 0.76640 0.52980
#
# Static dielectric constant tensor:
#      x y z
#    x 1.582150 0.000000 0.000000 
#    y 0.000000 1.572330 0.000000 
#    z 0.000000 0.000000 1.587280 
# 
# From -- ./inp_files/33816.got.cif
#   From: 2010.05.17/outbox.cif.g08.bks.cpg/sg66_17_cif.got.tgz:33816.got - 2010.06.03 17:51:23.
