data_PCOD9495780
_publ_section_title
;
Structure prediction by ZEFSAII (Michael W. Deem and Ramdas Pophale) SiO2 
 PCOD9495780
Probable space group: C C C M
;
_chemical_formula_sum "Si O2"
_cell_formula_units_Z 96
_cell_length_a 17.255856
_cell_length_b 16.582285
_cell_length_c 14.551829
_cell_angle_alpha 90.000000
_cell_angle_beta 90.000000
_cell_angle_gamma 90.000000
_cell_volume 4163.882500
_symmetry_space_group_name_H-M "C C C M"
_symmetry_group_IT_number 66
_symmetry_cell_setting 'orthorhombic'
loop_
_space_group_symop_operation_xyz
x,y,z
-x,-y,z
x,-y,1/2-z
-x,y,1/2-z
-x,-y,-z
x,y,-z
-x,y,1/2+z
x,-y,1/2+z
1/2+x,1/2+y,z
1/2-x,1/2-y,z
1/2+x,1/2-y,1/2-z
1/2-x,1/2+y,1/2-z
1/2-x,1/2-y,-z
1/2+x,1/2+y,-z
1/2-x,1/2+y,1/2+z
1/2+x,1/2-y,1/2+z
loop_
_atom_site_type_symbol
_atom_site_label
_atom_site_fract_x
_atom_site_fract_y
_atom_site_fract_z
Si Si1 0.725317 0.926466 0.110360
Si Si2 0.117458 0.714549 0.331401
Si Si3 0.550803 0.204090 0.126942
Si Si4 0.114779 0.903533 0.310142
Si Si5 0.081681 0.474010 0.602113
Si Si6 0.553566 0.605211 0.604400
O O1 0.688509 0.840929 0.141028
O O2 0.807853 0.944932 0.154478
O O3 0.659596 0.989489 0.142307
O O4 0.734653 0.927740 0.000000
O O5 0.082196 0.699738 0.230771
O O6 0.132899 0.809222 0.330595
O O7 0.041104 0.694889 0.390539
O O8 0.587421 0.121647 0.092023
O O9 0.565253 0.296986 0.099769
O O10 0.096460 0.916186 0.201451
O O11 0.035888 0.916013 0.369055
O O12 0.078514 0.511169 0.500000
O O13 0.000000 0.500000 0.646956
O O14 0.572400 0.575904 0.500000
#
# Coordination Sequence:
#
# PCOD9495780 Si02
#       6
#    16  16  16  16  16  16
#     4  11  21  31  46  72 110 153 193 247 303 348
#     4   9  18  30  46  70 102 146 194 243 287 343
#     4   9  17  31  47  71 105 144 196 241 281 349
#     4   9  19  32  48  78 111 138 192 247 298 364
#     4  10  19  30  45  71 108 150 202 244 279 352
#     4   9  17  32  56  77 103 146 188 244 305 357
#
# _framework density 23.055406000000001
#
# number of rings (size 3 to 8) (size 9 to 14) (size 15 to 20)
#    0.000    2.500    1.667    3.500    0.000    4.667 
#    0.000    0.000    0.000    9.000    0.000    1.167 
#    0.000   11.333    0.000   51.667    0.000   84.333 
#
# Total GULP energy -267610.717344 kJ/mol
# GULP energy per Si atom -5575.223278 kJ/mol
# Density = 2.300293 g / cm^3
# Si number density = 23.055406 Si / 1000 Ang^3
#
#
#
# Elastic Constant Matrix: (Units=GPa)
#
#
# Indices 1 2 3 4 5 6 
#
# 1 167.0292 55.3883 60.9084 0.0000 0.0000 0.0000
# 2 55.3883 93.4762 30.6139 0.0000 0.0000 0.0000
# 3 60.9084 30.6139 155.4299 0.0000 0.0000 0.0000
# 4 0.0000 0.0000 0.0000 17.6441 0.0000 0.0000
# 5 0.0000 0.0000 0.0000 0.0000 7.6476 0.0000
# 6 0.0000 0.0000 0.0000 0.0000 0.0000 34.5389
#
#
#
# Elastic Compliance Matrix: (Units=1/GPa)
#
#
# Indices 1 2 3 4 5 6 
#
# 1 0.008222 -0.004080 -0.002418 0.000000 0.000000 0.000000
# 2 -0.004080 0.013460 -0.001052 0.000000 0.000000 0.000000
# 3 -0.002418 -0.001052 0.007589 0.000000 0.000000 0.000000
# 4 0.000000 0.000000 0.000000 0.056676 0.000000 0.000000
# 5 0.000000 0.000000 0.000000 0.000000 0.130760 0.000000
# 6 0.000000 0.000000 0.000000 0.000000 0.000000 0.028953
#
#
# Mechanical properties :
#
#
# Convention : Reuss Voigt Hill
#
# Bulk Modulus (GPa) = 70.57361 78.86184 74.71772
# Shear Modulus (GPa) = 18.83356 29.90109 24.36733
#
# Velocity S-wave (km/s) = 2.86122 3.60519 3.25453
# Velocity P-wave (km/s) = 6.44921 7.18397 6.82648
#
# Compressibility (1/GPa) = 0.01416960
#
# Stress axis : x y z
#
# Youngs Moduli (GPa) = 121.62974 74.29461 131.77467
#
# Poissons Ratio (x) = 0.30310 0.31867
# Poissons Ratio (y) = 0.49621 0.13868
# Poissons Ratio (z) = 0.29414 0.07819
#
# Static dielectric constant tensor:
#      x y z
#    x 1.842220 0.000000 0.000000 
#    y 0.000000 1.922000 0.000000 
#    z 0.000000 0.000000 1.865940 
# 
# From -- ./inp_files/28362.got.cif
#   From: 2010.05.17/outbox.cif.g08.bks.cpg/sg66_15_cif.got.tgz:28362.got - 2010.06.03 17:51:23.
