data_PCOD9495228
_publ_section_title
;
Structure prediction by ZEFSAII (Michael W. Deem and Ramdas Pophale) SiO2 
 PCOD9495228
Probable space group: C C C M
;
_chemical_formula_sum "Si O2"
_cell_formula_units_Z 96
_cell_length_a 28.723668
_cell_length_b 10.383976
_cell_length_c 14.997712
_cell_angle_alpha 90.000000
_cell_angle_beta 90.000000
_cell_angle_gamma 90.000000
_cell_volume 4473.305755
_symmetry_space_group_name_H-M "C C C M"
_symmetry_group_IT_number 66
_symmetry_cell_setting 'orthorhombic'
loop_
_space_group_symop_operation_xyz
x,y,z
-x,-y,z
x,-y,1/2-z
-x,y,1/2-z
-x,-y,-z
x,y,-z
-x,y,1/2+z
x,-y,1/2+z
1/2+x,1/2+y,z
1/2-x,1/2-y,z
1/2+x,1/2-y,1/2-z
1/2-x,1/2+y,1/2-z
1/2-x,1/2-y,-z
1/2+x,1/2+y,-z
1/2-x,1/2+y,1/2+z
1/2+x,1/2-y,1/2+z
loop_
_atom_site_type_symbol
_atom_site_label
_atom_site_fract_x
_atom_site_fract_y
_atom_site_fract_z
Si Si1 0.753150 0.597249 0.834797
Si Si2 0.910087 0.244351 0.657668
Si Si3 0.146240 0.514702 0.641128
Si Si4 0.107772 0.757871 0.867933
Si Si5 0.003674 0.853001 0.897119
Si Si6 0.345616 0.514587 0.641215
O O1 0.752975 0.500000 0.750000
O O2 0.750000 0.750000 0.810516
O O3 0.801881 0.563612 0.882026
O O4 0.705298 0.563925 0.884774
O O5 0.890040 0.374137 0.616483
O O6 0.894691 0.245483 0.760513
O O7 0.965222 0.230715 0.652765
O O8 0.884974 0.118685 0.617463
O O9 0.146122 0.500000 0.750000
O O10 0.129146 0.378261 0.604267
O O11 0.055192 0.794529 0.894260
O O12 0.140700 0.875678 0.894713
O O13 0.988623 0.857447 0.000000
O O14 0.000000 0.000000 0.862323
O O15 0.345955 0.500000 0.750000
#
# Coordination Sequence:
#
# PCOD9495228 Si02
#       6
#    16  16  16  16  16  16
#     4  10  18  27  44  76 115 146 173 213 263 314
#     4  10  18  34  54  78 106 141 174 214 263 315
#     4   9  19  31  49  77 114 141 171 217 262 309
#     4  10  20  34  53  80 107 140 178 216 265 315
#     4  11  23  37  55  79 103 134 179 228 273 319
#     4   9  17  27  48  74 106 141 174 206 255 314
#
# _framework density 21.460637999999999
#
# number of rings (size 3 to 8) (size 9 to 14) (size 15 to 20)
#    0.000    2.167    3.333    0.500    7.000    1.333 
#    0.000    4.167    0.000    0.000    0.000    7.000 
#    0.000    0.000    0.000    0.000    0.000    0.000 
#
# Total GULP energy -267891.415512 kJ/mol
# GULP energy per Si atom -5581.071157 kJ/mol
# Density = 2.141179 g / cm^3
# Si number density = 21.460638 Si / 1000 Ang^3
#
#
#
# Elastic Constant Matrix: (Units=GPa)
#
#
# Indices 1 2 3 4 5 6 
#
# 1 159.7323 94.9777 -5.0885 0.0000 0.0000 0.0000
# 2 94.9777 202.0638 18.5570 0.0000 0.0000 0.0000
# 3 -5.0885 18.5570 46.2197 0.0000 0.0000 0.0000
# 4 0.0000 0.0000 0.0000 -3.3866 0.0000 0.0000
# 5 0.0000 0.0000 0.0000 0.0000 -24.2561 0.0000
# 6 0.0000 0.0000 0.0000 0.0000 0.0000 36.5603
#
#
#
# Elastic Compliance Matrix: (Units=1/GPa)
#
#
# Indices 1 2 3 4 5 6 
#
# 1 0.009025 -0.004499 0.002800 0.000000 0.000000 0.000000
# 2 -0.004499 0.007381 -0.003459 0.000000 0.000000 0.000000
# 3 0.002800 -0.003459 0.023333 0.000000 0.000000 0.000000
# 4 0.000000 0.000000 0.000000 -0.295286 0.000000 0.000000
# 5 0.000000 0.000000 0.000000 0.000000 -0.041227 0.000000
# 6 0.000000 0.000000 0.000000 0.000000 0.000000 0.027352
#
#
# Mechanical properties :
#
#
# Convention : Reuss Voigt Hill
#
# Bulk Modulus (GPa) = 33.98722 69.43425 51.71073
# Shear Modulus (GPa) = -20.05636 21.75484 0.84924
#
# Velocity S-wave (km/s) = -3.06038 3.18733 0.62974
# Velocity P-wave (km/s) = 1.83942 6.78011 4.96756
#
# Compressibility (1/GPa) = 0.02942283
#
# Stress axis : x y z
#
# Youngs Moduli (GPa) = 110.80427 135.47582 42.85815
#
# Poissons Ratio (x) = 0.60953 -0.12000
# Poissons Ratio (y) = 0.49853 0.14824
# Poissons Ratio (z) = -0.31025 0.46860
#
# Static dielectric constant tensor:
#      x y z
#    x 1.759300 0.000000 0.000000 
#    y 0.000000 1.815020 0.000000 
#    z 0.000000 0.000000 1.827330 
# 
# From -- ./inp_files/52933.got.cif
#   From: 2010.05.17/outbox.cif.g08.bks.cpg/sg66_27_cif.got.tgz:52933.got - 2010.06.03 17:51:23.
