data_PCOD9495215
_publ_section_title
;
Structure prediction by ZEFSAII (Michael W. Deem and Ramdas Pophale) SiO2 
 PCOD9495215
Probable space group: C C C M
;
_chemical_formula_sum "Si O2"
_cell_formula_units_Z 96
_cell_length_a 9.301610
_cell_length_b 29.032003
_cell_length_c 15.129547
_cell_angle_alpha 90.000000
_cell_angle_beta 90.000000
_cell_angle_gamma 90.000000
_cell_volume 4085.648979
_symmetry_space_group_name_H-M "C C C M"
_symmetry_group_IT_number 66
_symmetry_cell_setting 'orthorhombic'
loop_
_space_group_symop_operation_xyz
x,y,z
-x,-y,z
x,-y,1/2-z
-x,y,1/2-z
-x,-y,-z
x,y,-z
-x,y,1/2+z
x,-y,1/2+z
1/2+x,1/2+y,z
1/2-x,1/2-y,z
1/2+x,1/2-y,1/2-z
1/2-x,1/2+y,1/2-z
1/2-x,1/2-y,-z
1/2+x,1/2+y,-z
1/2-x,1/2+y,1/2+z
1/2+x,1/2-y,1/2+z
loop_
_atom_site_type_symbol
_atom_site_label
_atom_site_fract_x
_atom_site_fract_y
_atom_site_fract_z
Si Si1 0.773081 0.392519 0.903490
Si Si2 0.000433 0.330212 0.650290
Si Si3 0.307066 0.445969 0.767579
Si Si4 0.915312 0.767206 0.898579
Si Si5 0.674275 0.635414 0.895910
Si Si6 0.935421 0.450012 0.595037
O O1 0.694697 0.417933 0.823678
O O2 0.841303 0.342423 0.887722
O O3 0.927779 0.417776 0.905178
O O4 0.703992 0.396758 0.000000
O O5 0.991847 0.275058 0.647921
O O6 0.848001 0.351430 0.611751
O O7 0.000000 0.347664 0.750000
O O8 0.349029 0.500000 0.750000
O O9 0.371031 0.409823 0.840377
O O10 0.152902 0.448876 0.815280
O O11 0.750000 0.750000 0.901418
O O12 0.909475 0.819036 0.862232
O O13 0.966686 0.769188 0.000000
O O14 0.644278 0.631355 0.000000
O O15 0.854854 0.442994 0.500000
O O16 0.000000 0.500000 0.590872
#
# Coordination Sequence:
#
# PCOD9495215 Si02
#       6
#    16  16  16  16  16  16
#     4  11  20  27  36  54  84 115 147 184 218 251
#     4  11  17  27  44  65  86 110 145 184 227 262
#     4  12  21  27  39  58  86 119 157 185 214 259
#     4   8  16  29  45  63  84 112 147 188 231 269
#     4  10  19  32  45  61  89 121 152 190 230 261
#     4  10  18  26  34  47  75 112 144 179 217 249
#
# _framework density 23.496880000000001
#
# number of rings (size 3 to 8) (size 9 to 14) (size 15 to 20)
#    0.000    1.667    5.000    3.500    0.000    0.667 
#    0.000    0.000    0.000    0.000    0.000    4.667 
#    0.000    0.667    0.000    3.667    0.000    0.000 
#
# Total GULP energy -267268.183626 kJ/mol
# GULP energy per Si atom -5568.087159 kJ/mol
# Density = 2.344340 g / cm^3
# Si number density = 23.496880 Si / 1000 Ang^3
#
#
#
# Elastic Constant Matrix: (Units=GPa)
#
#
# Indices 1 2 3 4 5 6 
#
# 1 51.7738 25.0908 27.9879 0.0000 0.0000 0.0000
# 2 25.0908 178.8011 45.5185 0.0000 0.0000 0.0000
# 3 27.9879 45.5185 168.2517 0.0000 0.0000 0.0000
# 4 0.0000 0.0000 0.0000 35.7638 0.0000 0.0000
# 5 0.0000 0.0000 0.0000 0.0000 -35.5190 0.0000
# 6 0.0000 0.0000 0.0000 0.0000 0.0000 -10.9952
#
#
#
# Elastic Compliance Matrix: (Units=1/GPa)
#
#
# Indices 1 2 3 4 5 6 
#
# 1 0.022087 -0.002324 -0.003045 0.000000 0.000000 0.000000
# 2 -0.002324 0.006251 -0.001305 0.000000 0.000000 0.000000
# 3 -0.003045 -0.001305 0.006803 0.000000 0.000000 0.000000
# 4 0.000000 0.000000 0.000000 0.027961 0.000000 0.000000
# 5 0.000000 0.000000 0.000000 0.000000 -0.028154 0.000000
# 6 0.000000 0.000000 0.000000 0.000000 0.000000 -0.090949
#
#
# Mechanical properties :
#
#
# Convention : Reuss Voigt Hill
#
# Bulk Modulus (GPa) = 45.88572 66.22455 56.05514
# Shear Modulus (GPa) = -141.29263 17.86521 -61.71371
#
# Velocity S-wave (km/s) = -7.76293 2.76039 -5.13046
# Velocity P-wave (km/s) = 7.79615 6.19720 3.34475
#
# Compressibility (1/GPa) = 0.02179327
#
# Stress axis : x y z
#
# Youngs Moduli (GPa) = 45.27469 159.97281 146.99437
#
# Poissons Ratio (x) = 0.37181 0.44765
# Poissons Ratio (y) = 0.10523 0.19176
# Poissons Ratio (z) = 0.13788 0.20869
#
# Static dielectric constant tensor:
#      x y z
#    x 1.915330 0.000000 0.000000 
#    y 0.000000 1.862430 0.000000 
#    z 0.000000 0.000000 1.884990 
# 
# From -- ./inp_files/28962.got.cif
#   From: 2010.05.17/outbox.cif.g08.bks.cpg/sg66_15_cif.got.tgz:28962.got - 2010.06.03 17:51:23.
