data_PCOD9495711
_publ_section_title
;
Structure prediction by ZEFSAII (Michael W. Deem and Ramdas Pophale) SiO2 
 PCOD9495711
Probable space group: C C C M
;
_chemical_formula_sum "Si O2"
_cell_formula_units_Z 56
_cell_length_a 19.018907
_cell_length_b 8.890424
_cell_length_c 14.715154
_cell_angle_alpha 90.000000
_cell_angle_beta 90.000000
_cell_angle_gamma 90.000000
_cell_volume 2488.128696
_symmetry_space_group_name_H-M "C C C M"
_symmetry_group_IT_number 66
_symmetry_cell_setting 'orthorhombic'
loop_
_space_group_symop_operation_xyz
x,y,z
-x,-y,z
x,-y,1/2-z
-x,y,1/2-z
-x,-y,-z
x,y,-z
-x,y,1/2+z
x,-y,1/2+z
1/2+x,1/2+y,z
1/2-x,1/2-y,z
1/2+x,1/2-y,1/2-z
1/2-x,1/2+y,1/2-z
1/2-x,1/2-y,-z
1/2+x,1/2+y,-z
1/2-x,1/2+y,1/2+z
1/2+x,1/2-y,1/2+z
loop_
_atom_site_type_symbol
_atom_site_label
_atom_site_fract_x
_atom_site_fract_y
_atom_site_fract_z
Si Si1 0.269860 0.073991 0.500000
Si Si2 0.817976 0.643721 0.312437
Si Si3 0.113740 0.056556 0.000000
Si Si4 0.024006 0.671579 0.500000
Si Si5 0.549784 0.344814 0.838886
O O1 0.250000 0.250000 0.500000
O O2 0.315601 0.064164 0.410775
O O3 0.196555 0.983649 0.500000
O O4 0.819720 0.500000 0.250000
O O5 0.750000 0.750000 0.300000
O O6 0.882160 0.757258 0.303840
O O7 0.078639 0.979066 0.908249
O O8 0.098121 0.235193 0.000000
O O9 0.000000 0.500000 0.500000
O O10 0.988877 0.737827 0.590409
O O11 0.500000 0.363467 0.750000
#
# Coordination Sequence:
#
# PCOD9495711 Si02
#       5
#     8  16   8   8  16
#     4  10  18  46  76  99 147 198 259 322 377 471
#     4  11  24  45  72 105 146 197 253 319 387 458
#     4  11  22  49  79 104 142 211 255 313 390 459
#     4  11  28  45  66 110 149 191 245 313 390 454
#     4  11  24  45  73 105 149 195 254 312 384 467
#
# _framework density 22.506875999999998
#
# number of rings (size 3 to 8) (size 9 to 14) (size 15 to 20)
#    0.000    1.143    5.714    2.571    4.000    4.571 
#    5.143    0.714    0.000    0.000    0.000    0.000 
#    0.000    0.000    0.000    0.000    0.000    0.000 
#
# Total GULP energy -156118.479610 kJ/mol
# GULP energy per Si atom -5575.659986 kJ/mol
# Density = 2.245565 g / cm^3
# Si number density = 22.506876 Si / 1000 Ang^3
#
#
#
# Elastic Constant Matrix: (Units=GPa)
#
#
# Indices 1 2 3 4 5 6 
#
# 1 148.2773 54.8027 46.5053 0.0000 0.0000 0.0000
# 2 54.8027 169.7777 60.2569 0.0000 0.0000 0.0000
# 3 46.5053 60.2569 191.1616 0.0000 0.0000 0.0000
# 4 0.0000 0.0000 0.0000 72.5560 0.0000 0.0000
# 5 0.0000 0.0000 0.0000 0.0000 55.5684 0.0000
# 6 0.0000 0.0000 0.0000 0.0000 0.0000 13.1567
#
#
#
# Elastic Compliance Matrix: (Units=1/GPa)
#
#
# Indices 1 2 3 4 5 6 
#
# 1 0.007919 -0.002108 -0.001262 0.000000 0.000000 0.000000
# 2 -0.002108 0.007193 -0.001755 0.000000 0.000000 0.000000
# 3 -0.001262 -0.001755 0.006091 0.000000 0.000000 0.000000
# 4 0.000000 0.000000 0.000000 0.013782 0.000000 0.000000
# 5 0.000000 0.000000 0.000000 0.000000 0.017996 0.000000
# 6 0.000000 0.000000 0.000000 0.000000 0.000000 0.076007
#
#
# Mechanical properties :
#
#
# Convention : Reuss Voigt Hill
#
# Bulk Modulus (GPa) = 91.29056 92.48295 91.88675
# Shear Modulus (GPa) = 34.99193 51.43299 43.21246
#
# Velocity S-wave (km/s) = 3.94727 4.78558 4.38650
# Velocity P-wave (km/s) = 7.83734 8.46852 8.15903
#
# Compressibility (1/GPa) = 0.01095404
#
# Stress axis : x y z
#
# Youngs Moduli (GPa) = 126.27605 139.01793 164.17025
#
# Poissons Ratio (x) = 0.29310 0.20718
# Poissons Ratio (y) = 0.26623 0.28804
# Poissons Ratio (z) = 0.15936 0.24391
#
# Static dielectric constant tensor:
#      x y z
#    x 1.887030 0.000000 0.000000 
#    y 0.000000 1.841420 0.000000 
#    z 0.000000 0.000000 1.813620 
# 
# From -- ./inp_files/30734.got.cif
#   From: 2010.05.17/outbox.cif.g08.bks.cpg/sg66_16_cif.got.tgz:30734.got - 2010.06.03 17:51:23.
