data_PCOD9495434
_publ_section_title
;
Structure prediction by ZEFSAII (Michael W. Deem and Ramdas Pophale) SiO2 
 PCOD9495434
Probable space group: C C C M
;
_chemical_formula_sum "Si O2"
_cell_formula_units_Z 96
_cell_length_a 21.150909
_cell_length_b 27.475819
_cell_length_c 8.503684
_cell_angle_alpha 90.000000
_cell_angle_beta 90.000000
_cell_angle_gamma 90.000000
_cell_volume 4941.818567
_symmetry_space_group_name_H-M "C C C M"
_symmetry_group_IT_number 66
_symmetry_cell_setting 'orthorhombic'
loop_
_space_group_symop_operation_xyz
x,y,z
-x,-y,z
x,-y,1/2-z
-x,y,1/2-z
-x,-y,-z
x,y,-z
-x,y,1/2+z
x,-y,1/2+z
1/2+x,1/2+y,z
1/2-x,1/2-y,z
1/2+x,1/2-y,1/2-z
1/2-x,1/2+y,1/2-z
1/2-x,1/2-y,-z
1/2+x,1/2+y,-z
1/2-x,1/2+y,1/2+z
1/2+x,1/2-y,1/2+z
loop_
_atom_site_type_symbol
_atom_site_label
_atom_site_fract_x
_atom_site_fract_y
_atom_site_fract_z
Si Si1 0.732454 0.194463 0.170306
Si Si2 0.934843 0.391487 0.191732
Si Si3 0.195893 0.445395 0.312291
Si Si4 0.191354 0.117860 0.178950
Si Si5 0.430608 0.677323 0.311324
Si Si6 0.414206 0.213498 0.321349
O O1 0.750000 0.250000 0.179071
O O2 0.763563 0.165019 0.308779
O O3 0.658109 0.196989 0.167330
O O4 0.754767 0.174057 0.000000
O O5 0.868040 0.416274 0.239582
O O6 0.938502 0.336031 0.257370
O O7 0.000000 0.416300 0.250000
O O8 0.934946 0.389344 0.000000
O O9 0.191962 0.500000 0.250000
O O10 0.194562 0.445022 0.500000
O O11 0.262835 0.421612 0.260014
O O12 0.124778 0.139845 0.243519
O O13 0.180411 0.102379 0.000000
O O14 0.500000 0.663273 0.250000
O O15 0.429321 0.676853 0.500000
O O16 0.419520 0.733590 0.257380
O O17 0.439692 0.219468 0.500000
#
# Coordination Sequence:
#
# PCOD9495434 Si02
#       6
#    16  16  16  16  16  16
#     4  10  18  31  54  82 114 155 197 237 285 341
#     4  10  22  38  57  83 118 158 199 240 284 338
#     4  11  24  44  66  89 114 146 192 244 302 359
#     4  11  23  38  59  87 117 151 195 245 295 350
#     4  11  24  38  55  85 122 160 200 240 286 343
#     4  10  19  34  55  82 118 160 202 238 279 335
#
# _framework density 19.426045999999999
#
# number of rings (size 3 to 8) (size 9 to 14) (size 15 to 20)
#    0.000    1.500    3.333    2.000    0.000    6.667 
#    0.000    1.667    0.000    0.500    0.000    3.500 
#    0.000    0.000    0.000    0.000    0.000    0.000 
#
# Total GULP energy -267259.550779 kJ/mol
# GULP energy per Si atom -5567.907308 kJ/mol
# Density = 1.938183 g / cm^3
# Si number density = 19.426046 Si / 1000 Ang^3
#
#
#
# Elastic Constant Matrix: (Units=GPa)
#
#
# Indices 1 2 3 4 5 6 
#
# 1 147.7593 68.0739 21.9891 0.0000 0.0000 0.0000
# 2 68.0739 106.0285 21.8535 0.0000 0.0000 0.0000
# 3 21.9891 21.8535 37.2346 0.0000 0.0000 0.0000
# 4 0.0000 0.0000 0.0000 28.2780 0.0000 0.0000
# 5 0.0000 0.0000 0.0000 0.0000 28.3990 0.0000
# 6 0.0000 0.0000 0.0000 0.0000 0.0000 9.7012
#
#
#
# Elastic Compliance Matrix: (Units=1/GPa)
#
#
# Indices 1 2 3 4 5 6 
#
# 1 0.009793 -0.005796 -0.002381 0.000000 0.000000 0.000000
# 2 -0.005796 0.014160 -0.004888 0.000000 0.000000 0.000000
# 3 -0.002381 -0.004888 0.031132 0.000000 0.000000 0.000000
# 4 0.000000 0.000000 0.000000 0.035363 0.000000 0.000000
# 5 0.000000 0.000000 0.000000 0.000000 0.035212 0.000000
# 6 0.000000 0.000000 0.000000 0.000000 0.000000 0.103080
#
#
# Mechanical properties :
#
#
# Convention : Reuss Voigt Hill
#
# Bulk Modulus (GPa) = 34.53755 57.20617 45.87186
# Shear Modulus (GPa) = 18.90201 25.21602 22.05901
#
# Velocity S-wave (km/s) = 3.12272 3.60676 3.37343
# Velocity P-wave (km/s) = 5.55152 6.84522 6.23203
#
# Compressibility (1/GPa) = 0.02895399
#
# Stress axis : x y z
#
# Youngs Moduli (GPa) = 102.11841 70.61973 32.12163
#
# Poissons Ratio (x) = 0.40934 0.07648
# Poissons Ratio (y) = 0.59192 0.15701
# Poissons Ratio (z) = 0.24315 0.34518
#
# Static dielectric constant tensor:
#      x y z
#    x 1.739990 0.000000 0.000000 
#    y 0.000000 1.640770 0.000000 
#    z 0.000000 0.000000 1.740100 
# 
# From -- ./inp_files/9296.got.cif
#   From: 2010.05.17/outbox.cif.g08.bks.cpg/sg66_5_cif.got.tgz:9296.got - 2010.06.03 17:51:23.
