data_PCOD9495585
_publ_section_title
;
Structure prediction by ZEFSAII (Michael W. Deem and Ramdas Pophale) SiO2 
 PCOD9495585
Probable space group: C C C M
;
_chemical_formula_sum "Si O2"
_cell_formula_units_Z 80
_cell_length_a 14.781117
_cell_length_b 17.762763
_cell_length_c 14.963946
_cell_angle_alpha 90.000000
_cell_angle_beta 90.000000
_cell_angle_gamma 90.000000
_cell_volume 3928.836069
_symmetry_space_group_name_H-M "C C C M"
_symmetry_group_IT_number 66
_symmetry_cell_setting 'orthorhombic'
loop_
_space_group_symop_operation_xyz
x,y,z
-x,-y,z
x,-y,1/2-z
-x,y,1/2-z
-x,-y,-z
x,y,-z
-x,y,1/2+z
x,-y,1/2+z
1/2+x,1/2+y,z
1/2-x,1/2-y,z
1/2+x,1/2-y,1/2-z
1/2-x,1/2+y,1/2-z
1/2-x,1/2-y,-z
1/2+x,1/2+y,-z
1/2-x,1/2+y,1/2+z
1/2+x,1/2-y,1/2+z
loop_
_atom_site_type_symbol
_atom_site_label
_atom_site_fract_x
_atom_site_fract_y
_atom_site_fract_z
Si Si1 0.655942 0.856598 0.500000
Si Si2 0.577927 0.393024 0.822110
Si Si3 0.858495 0.562885 0.684565
Si Si4 0.375284 0.321336 0.500000
Si Si5 0.184527 0.023482 0.895103
Si Si6 0.261996 0.664074 0.704381
O O1 0.615922 0.897365 0.589651
O O2 0.631661 0.768580 0.500000
O O3 0.769053 0.853379 0.500000
O O4 0.500000 0.386811 0.750000
O O5 0.568580 0.351702 0.915949
O O6 0.603773 0.479090 0.846921
O O7 0.664447 0.349303 0.781592
O O8 0.904486 0.500000 0.750000
O O9 0.771327 0.516505 0.648846
O O10 0.828590 0.629312 0.751852
O O11 0.199234 0.110387 0.872668
O O12 0.178403 0.012485 0.000000
O O13 0.250000 0.750000 0.679959
#
# Coordination Sequence:
#
# PCOD9495585 Si02
#       6
#     8  16  16   8  16  16
#     4  11  16  30  60  85 113 149 201 264 296 342
#     4  11  21  37  57  83 122 160 199 237 294 364
#     4   9  16  27  48  77 110 141 175 234 298 344
#     4  11  20  32  58  88 111 156 205 252 297 343
#     4  10  18  34  53  73 110 151 196 238 280 352
#     4  10  20  33  52  78 112 152 194 251 300 342
#
# _framework density 20.362264
#
# number of rings (size 3 to 8) (size 9 to 14) (size 15 to 20)
#    0.000    1.800    6.000    3.000    0.000    2.000 
#    1.800    1.000    0.000    0.000    0.000    0.000 
#    0.000   94.400    0.000    0.000    0.000    0.000 
#
# Total GULP energy -222723.319678 kJ/mol
# GULP energy per Si atom -5568.082992 kJ/mol
# Density = 2.031592 g / cm^3
# Si number density = 20.362264 Si / 1000 Ang^3
#
#
#
# Elastic Constant Matrix: (Units=GPa)
#
#
# Indices 1 2 3 4 5 6 
#
# 1 42.0577 28.1542 34.5413 0.0000 0.0000 0.0000
# 2 28.1542 190.7944 68.2023 0.0000 0.0000 0.0000
# 3 34.5413 68.2023 163.9028 0.0000 0.0000 0.0000
# 4 0.0000 0.0000 0.0000 25.7151 0.0000 0.0000
# 5 0.0000 0.0000 0.0000 0.0000 12.6074 0.0000
# 6 0.0000 0.0000 0.0000 0.0000 0.0000 4.5591
#
#
#
# Elastic Compliance Matrix: (Units=1/GPa)
#
#
# Indices 1 2 3 4 5 6 
#
# 1 0.029754 -0.002525 -0.005220 0.000000 0.000000 0.000000
# 2 -0.002525 0.006371 -0.002119 0.000000 0.000000 0.000000
# 3 -0.005220 -0.002119 0.008083 0.000000 0.000000 0.000000
# 4 0.000000 0.000000 0.000000 0.038888 0.000000 0.000000
# 5 0.000000 0.000000 0.000000 0.000000 0.079318 0.000000
# 6 0.000000 0.000000 0.000000 0.000000 0.000000 0.219341
#
#
# Mechanical properties :
#
#
# Convention : Reuss Voigt Hill
#
# Bulk Modulus (GPa) = 40.84812 73.17226 57.01019
# Shear Modulus (GPa) = 12.20576 26.30014 19.25295
#
# Velocity S-wave (km/s) = 2.45098 3.59780 3.07827
# Velocity P-wave (km/s) = 5.30226 7.29877 6.37911
#
# Compressibility (1/GPa) = 0.02448093
#
# Stress axis : x y z
#
# Youngs Moduli (GPa) = 33.60901 156.95372 123.71596
#
# Poissons Ratio (x) = 0.39625 0.64578
# Poissons Ratio (y) = 0.08485 0.26217
# Poissons Ratio (z) = 0.17543 0.33261
#
# Static dielectric constant tensor:
#      x y z
#    x 1.749520 0.000000 0.000000 
#    y 0.000000 1.746890 0.000000 
#    z 0.000000 0.000000 1.815520 
# 
# From -- ./inp_files/31294.got.cif
#   From: 2010.05.17/outbox.cif.g08.bks.cpg/sg66_16_cif.got.tgz:31294.got - 2010.06.03 17:51:23.
