data_PCOD9495617
_publ_section_title
;
Structure prediction by ZEFSAII (Michael W. Deem and Ramdas Pophale) SiO2 
 PCOD9495617
Probable space group: C C C M
;
_chemical_formula_sum "Si O2"
_cell_formula_units_Z 88
_cell_length_a 12.877703
_cell_length_b 14.754302
_cell_length_c 22.530954
_cell_angle_alpha 90.000000
_cell_angle_beta 90.000000
_cell_angle_gamma 90.000000
_cell_volume 4280.915487
_symmetry_space_group_name_H-M "C C C M"
_symmetry_group_IT_number 66
_symmetry_cell_setting 'orthorhombic'
loop_
_space_group_symop_operation_xyz
x,y,z
-x,-y,z
x,-y,1/2-z
-x,y,1/2-z
-x,-y,-z
x,y,-z
-x,y,1/2+z
x,-y,1/2+z
1/2+x,1/2+y,z
1/2-x,1/2-y,z
1/2+x,1/2-y,1/2-z
1/2-x,1/2+y,1/2-z
1/2-x,1/2-y,-z
1/2+x,1/2+y,-z
1/2-x,1/2+y,1/2+z
1/2+x,1/2-y,1/2+z
loop_
_atom_site_type_symbol
_atom_site_label
_atom_site_fract_x
_atom_site_fract_y
_atom_site_fract_z
Si Si1 0.658729 0.183972 0.398021
Si Si2 0.321678 0.544098 0.367167
Si Si3 0.681413 0.332463 0.871923
Si Si4 0.382208 0.535711 0.500000
Si Si5 0.993438 0.610558 0.000000
Si Si6 0.538022 0.316174 0.684046
Si Si7 0.261233 0.870215 0.000000
O O1 0.750000 0.250000 0.424635
O O2 0.713699 0.096128 0.371002
O O3 0.571367 0.151093 0.444345
O O4 0.612197 0.241275 0.344121
O O5 0.302165 0.438250 0.355514
O O6 0.372758 0.569849 0.431970
O O7 0.399405 0.589514 0.320441
O O8 0.750000 0.250000 0.845332
O O9 0.562492 0.316393 0.857570
O O10 0.706437 0.333007 0.941601
O O11 0.500000 0.500000 0.500000
O O12 0.277137 0.474348 0.500000
O O13 0.000000 0.500000 0.000000
O O14 0.114865 0.639445 0.000000
O O15 0.500000 0.298176 0.750000
#
# Coordination Sequence:
#
# PCOD9495617 Si02
#       7
#    16  16  16   8   8  16   8
#     4  10  23  42  65  93 129 173 218 264 324 398
#     4  10  21  40  64  93 126 168 215 263 323 393
#     4  11  22  38  62  93 129 164 208 263 326 390
#     4  10  18  34  61  95 133 168 211 262 322 400
#     4  12  21  37  66 100 136 165 201 255 322 405
#     4  11  25  43  63  89 121 166 223 278 322 373
#     4  10  21  35  56  95 131 167 203 253 327 391
#
# _framework density 20.556350999999999
#
# number of rings (size 3 to 8) (size 9 to 14) (size 15 to 20)
#    0.000    1.455    0.000    7.091    0.000    6.545 
#    0.000    1.818    0.000    3.818    0.000    0.000 
#    0.000    0.000    0.000    0.000    0.000    0.000 
#
# Total GULP energy -245222.622493 kJ/mol
# GULP energy per Si atom -5573.241420 kJ/mol
# Density = 2.050956 g / cm^3
# Si number density = 20.556351 Si / 1000 Ang^3
#
#
#
# Elastic Constant Matrix: (Units=GPa)
#
#
# Indices 1 2 3 4 5 6 
#
# 1 155.4737 55.0865 55.3535 0.0000 0.0000 0.0000
# 2 55.0865 116.7072 32.1926 0.0000 0.0000 0.0000
# 3 55.3535 32.1926 84.4014 0.0000 0.0000 0.0000
# 4 0.0000 0.0000 0.0000 13.8415 0.0000 0.0000
# 5 0.0000 0.0000 0.0000 0.0000 97.9789 0.0000
# 6 0.0000 0.0000 0.0000 0.0000 0.0000 32.6589
#
#
#
# Elastic Compliance Matrix: (Units=1/GPa)
#
#
# Indices 1 2 3 4 5 6 
#
# 1 0.009249 -0.003009 -0.004918 0.000000 0.000000 0.000000
# 2 -0.003009 0.010555 -0.002052 0.000000 0.000000 0.000000
# 3 -0.004918 -0.002052 0.015857 0.000000 0.000000 0.000000
# 4 0.000000 0.000000 0.000000 0.072247 0.000000 0.000000
# 5 0.000000 0.000000 0.000000 0.000000 0.010206 0.000000
# 6 0.000000 0.000000 0.000000 0.000000 0.000000 0.030620
#
#
# Mechanical properties :
#
#
# Convention : Reuss Voigt Hill
#
# Bulk Modulus (GPa) = 63.68940 71.31639 67.50289
# Shear Modulus (GPa) = 28.74787 43.15917 35.95352
#
# Velocity S-wave (km/s) = 3.74370 4.58706 4.18667
# Velocity P-wave (km/s) = 7.05245 7.92611 7.50201
#
# Compressibility (1/GPa) = 0.01570120
#
# Stress axis : x y z
#
# Youngs Moduli (GPa) = 108.11833 94.74307 63.06549
#
# Poissons Ratio (x) = 0.28508 0.31017
# Poissons Ratio (y) = 0.32533 0.12944
# Poissons Ratio (z) = 0.53175 0.19446
#
# Static dielectric constant tensor:
#      x y z
#    x 1.764680 0.000000 0.000000 
#    y 0.000000 1.851250 0.000000 
#    z 0.000000 0.000000 1.756950 
# 
# From -- ./inp_files/56811.got.cif
#   From: 2010.05.17/outbox.cif.g08.bks.cpg/sg66_29_cif.got.tgz:56811.got - 2010.06.03 17:51:23.
