data_PCOD9495970
_publ_section_title
;
Structure prediction by ZEFSAII (Michael W. Deem and Ramdas Pophale) SiO2 
 PCOD9495970
Probable space group: C C C M
;
_chemical_formula_sum "Si O2"
_cell_formula_units_Z 64
_cell_length_a 19.464373
_cell_length_b 9.524728
_cell_length_c 13.545629
_cell_angle_alpha 90.000000
_cell_angle_beta 90.000000
_cell_angle_gamma 90.000000
_cell_volume 2511.262881
_symmetry_space_group_name_H-M "C C C M"
_symmetry_group_IT_number 66
_symmetry_cell_setting 'orthorhombic'
loop_
_space_group_symop_operation_xyz
x,y,z
-x,-y,z
x,-y,1/2-z
-x,y,1/2-z
-x,-y,-z
x,y,-z
-x,y,1/2+z
x,-y,1/2+z
1/2+x,1/2+y,z
1/2-x,1/2-y,z
1/2+x,1/2-y,1/2-z
1/2-x,1/2+y,1/2-z
1/2-x,1/2-y,-z
1/2+x,1/2+y,-z
1/2-x,1/2+y,1/2+z
1/2+x,1/2-y,1/2+z
loop_
_atom_site_type_symbol
_atom_site_label
_atom_site_fract_x
_atom_site_fract_y
_atom_site_fract_z
Si Si1 0.627412 0.004220 0.132413
Si Si2 0.587062 0.315152 0.154345
Si Si3 0.068657 0.798483 0.389515
Si Si4 0.271857 0.413996 0.349847
O O1 0.595640 0.156128 0.115197
O O2 0.706927 0.011307 0.099203
O O3 0.631560 0.000000 0.250000
O O4 0.583188 0.869853 0.104327
O O5 0.594902 0.325651 0.275231
O O6 0.510072 0.346870 0.122760
O O7 0.650585 0.403001 0.111539
O O8 0.092300 0.846223 0.500000
O O9 0.277596 0.500000 0.250000
O O10 0.250000 0.250000 0.335436
#
# Coordination Sequence:
#
# PCOD9495970 Si02
#       4
#    16  16  16  16
#     4   8  15  29  51  77 106 144 192 242 293 348
#     4   9  18  32  52  80 112 152 199 247 304 357
#     4  10  19  32  52  81 118 159 202 246 297 364
#     4   9  17  33  60  86 113 154 201 248 303 364
#
# _framework density 25.485185999999999
#
# number of rings (size 3 to 8) (size 9 to 14) (size 15 to 20)
#    0.000    3.000    0.000    2.250    0.000    5.000 
#    0.000    3.750    0.000   44.250    0.000    0.000 
#    0.000    0.000    0.000    0.000    0.000    0.000 
#
# Total GULP energy -178159.604827 kJ/mol
# GULP energy per Si atom -5567.487651 kJ/mol
# Density = 2.542718 g / cm^3
# Si number density = 25.485186 Si / 1000 Ang^3
#
#
#
# Elastic Constant Matrix: (Units=GPa)
#
#
# Indices 1 2 3 4 5 6 
#
# 1 155.1456 67.2446 21.3981 0.0000 0.0000 0.0000
# 2 67.2446 119.3321 41.6438 0.0000 0.0000 0.0000
# 3 21.3981 41.6438 210.1038 0.0000 0.0000 0.0000
# 4 0.0000 0.0000 0.0000 -45.8260 0.0000 0.0000
# 5 0.0000 0.0000 0.0000 0.0000 -18.5527 0.0000
# 6 0.0000 0.0000 0.0000 0.0000 0.0000 1.6602
#
#
#
# Elastic Compliance Matrix: (Units=1/GPa)
#
#
# Indices 1 2 3 4 5 6 
#
# 1 0.008530 -0.004838 0.000090 0.000000 0.000000 0.000000
# 2 -0.004838 0.011747 -0.001836 0.000000 0.000000 0.000000
# 3 0.000090 -0.001836 0.005114 0.000000 0.000000 0.000000
# 4 0.000000 0.000000 0.000000 -0.021822 0.000000 0.000000
# 5 0.000000 0.000000 0.000000 0.000000 -0.053900 0.000000
# 6 0.000000 0.000000 0.000000 0.000000 0.000000 0.602323
#
#
# Mechanical properties :
#
#
# Convention : Reuss Voigt Hill
#
# Bulk Modulus (GPa) = 81.80603 82.79492 82.30047
# Shear Modulus (GPa) = 8.78373 11.07597 9.92985
#
# Velocity S-wave (km/s) = 1.85852 2.08698 1.97605
# Velocity P-wave (km/s) = 6.06420 6.19397 6.12943
#
# Compressibility (1/GPa) = 0.01222404
#
# Stress axis : x y z
#
# Youngs Moduli (GPa) = 117.23083 85.12838 195.53472
#
# Poissons Ratio (x) = 0.41188 -0.01764
# Poissons Ratio (y) = 0.56720 0.35891
# Poissons Ratio (z) = -0.01058 0.15626
#
# Static dielectric constant tensor:
#      x y z
#    x 2.006840 0.000000 0.000000 
#    y 0.000000 2.002950 0.000000 
#    z 0.000000 0.000000 2.000160 
# 
# From -- ./inp_files/30819.got.cif
#   From: 2010.05.17/outbox.cif.g08.bks.cpg/sg66_16_cif.got.tgz:30819.got - 2010.06.03 17:51:23.
