data_PCOD9495460
_publ_section_title
;
Structure prediction by ZEFSAII (Michael W. Deem and Ramdas Pophale) SiO2 
 PCOD9495460
Probable space group: C C C M
;
_chemical_formula_sum "Si O2"
_cell_formula_units_Z 120
_cell_length_a 20.578206
_cell_length_b 13.647345
_cell_length_c 24.037338
_cell_angle_alpha 90.000000
_cell_angle_beta 90.000000
_cell_angle_gamma 90.000000
_cell_volume 6750.594967
_symmetry_space_group_name_H-M "C C C M"
_symmetry_group_IT_number 66
_symmetry_cell_setting 'orthorhombic'
loop_
_space_group_symop_operation_xyz
x,y,z
-x,-y,z
x,-y,1/2-z
-x,y,1/2-z
-x,-y,-z
x,y,-z
-x,y,1/2+z
x,-y,1/2+z
1/2+x,1/2+y,z
1/2-x,1/2-y,z
1/2+x,1/2-y,1/2-z
1/2-x,1/2+y,1/2-z
1/2-x,1/2-y,-z
1/2+x,1/2+y,-z
1/2-x,1/2+y,1/2+z
1/2+x,1/2-y,1/2+z
loop_
_atom_site_type_symbol
_atom_site_label
_atom_site_fract_x
_atom_site_fract_y
_atom_site_fract_z
Si Si1 0.201209 0.843441 0.661908
Si Si2 0.575631 0.117026 0.743429
Si Si3 0.763855 0.000000 0.750000
Si Si4 0.898900 0.300125 0.625143
Si Si5 0.787279 0.588293 0.937784
Si Si6 0.011147 0.610763 0.935652
Si Si7 0.334988 0.135488 0.561400
Si Si8 0.304066 0.829702 0.185706
O O1 0.250000 0.750000 0.673241
O O2 0.131294 0.802016 0.644613
O O3 0.232696 0.894166 0.608073
O O4 0.199532 0.919423 0.712610
O O5 0.500000 0.147151 0.750000
O O6 0.600239 0.137131 0.681384
O O7 0.625089 0.173168 0.784871
O O8 0.578190 0.000000 0.750000
O O9 0.721904 0.935432 0.706678
O O10 0.848590 0.347178 0.581593
O O11 0.969410 0.311412 0.598468
O O12 0.809872 0.476146 0.938186
O O13 0.766584 0.615879 0.000000
O O14 0.087039 0.632241 0.934882
O O15 0.000000 0.500000 0.913193
O O16 0.988727 0.609974 0.000000
O O17 0.317864 0.177643 0.500000
O O18 0.310953 0.179815 0.619291
O O19 0.250000 0.750000 0.203117
#
# Coordination Sequence:
#
# PCOD9495460 Si02
#       8
#    16  16   8  16  16  16  16  16
#     4  10  22  34  51  81 111 156 194 240 285 348
#     4  11  23  35  54  82 115 150 186 232 291 346
#     4  12  20  38  55  76 117 150 196 242 288 348
#     4  11  20  32  48  77 113 149 194 225 275 350
#     4  10  18  32  52  77 115 151 184 228 285 352
#     4  10  19  30  52  81 114 156 188 222 287 360
#     4  10  20  35  54  81 113 150 191 235 288 345
#     4  12  23  37  59  84 115 159 194 235 291 351
#
# _framework density 17.776209999999999
#
# number of rings (size 3 to 8) (size 9 to 14) (size 15 to 20)
#    0.000    1.333    3.333    4.800    1.867    3.200 
#    0.000    0.000    0.000    0.000    0.000   16.800 
#    0.000    2.133    0.000    0.000    0.000    0.000 
#
# Total GULP energy -334692.419008 kJ/mol
# GULP energy per Si atom -5578.206983 kJ/mol
# Density = 1.773575 g / cm^3
# Si number density = 17.776210 Si / 1000 Ang^3
#
#
#
# Elastic Constant Matrix: (Units=GPa)
#
#
# Indices 1 2 3 4 5 6 
#
# 1 94.2303 50.1301 46.0494 0.0000 0.0000 0.0000
# 2 50.1301 53.0878 32.3328 0.0000 0.0000 0.0000
# 3 46.0494 32.3328 137.7274 0.0000 0.0000 0.0000
# 4 0.0000 0.0000 0.0000 21.2339 0.0000 0.0000
# 5 0.0000 0.0000 0.0000 0.0000 21.9338 0.0000
# 6 0.0000 0.0000 0.0000 0.0000 0.0000 42.5837
#
#
#
# Elastic Compliance Matrix: (Units=1/GPa)
#
#
# Indices 1 2 3 4 5 6 
#
# 1 0.022295 -0.019268 -0.002931 0.000000 0.000000 0.000000
# 2 -0.019268 0.038631 -0.002627 0.000000 0.000000 0.000000
# 3 -0.002931 -0.002627 0.008857 0.000000 0.000000 0.000000
# 4 0.000000 0.000000 0.000000 0.047094 0.000000 0.000000
# 5 0.000000 0.000000 0.000000 0.000000 0.045592 0.000000
# 6 0.000000 0.000000 0.000000 0.000000 0.000000 0.023483
#
#
# Mechanical properties :
#
#
# Convention : Reuss Voigt Hill
#
# Bulk Modulus (GPa) = 49.67199 60.23002 54.95101
# Shear Modulus (GPa) = 20.63431 27.58582 24.11007
#
# Velocity S-wave (km/s) = 3.41072 3.94361 3.68681
# Velocity P-wave (km/s) = 6.59654 7.39541 7.00737
#
# Compressibility (1/GPa) = 0.02013207
#
# Stress axis : x y z
#
# Youngs Moduli (GPa) = 44.85290 25.88600 112.90011
#
# Poissons Ratio (x) = 0.49877 0.33092
# Poissons Ratio (y) = 0.86422 0.29656
# Poissons Ratio (z) = 0.13147 0.06800
#
# Static dielectric constant tensor:
#      x y z
#    x 1.620790 0.000000 0.000000 
#    y 0.000000 1.595630 0.000000 
#    z 0.000000 0.000000 1.660250 
# 
# From -- ./inp_files/59614.got.cif
#   From: 2010.05.17/outbox.cif.g08.bks.cpg/sg66_30_cif.got.tgz:59614.got - 2010.06.03 17:51:23.
