data_PCOD9495682
_publ_section_title
;
Structure prediction by ZEFSAII (Michael W. Deem and Ramdas Pophale) SiO2 
 PCOD9495682
Probable space group: C C C M
;
_chemical_formula_sum "Si O2"
_cell_formula_units_Z 60
_cell_length_a 15.354059
_cell_length_b 7.157705
_cell_length_c 24.778406
_cell_angle_alpha 90.000000
_cell_angle_beta 90.000000
_cell_angle_gamma 90.000000
_cell_volume 2723.142480
_symmetry_space_group_name_H-M "C C C M"
_symmetry_group_IT_number 66
_symmetry_cell_setting 'orthorhombic'
loop_
_space_group_symop_operation_xyz
x,y,z
-x,-y,z
x,-y,1/2-z
-x,y,1/2-z
-x,-y,-z
x,y,-z
-x,y,1/2+z
x,-y,1/2+z
1/2+x,1/2+y,z
1/2-x,1/2-y,z
1/2+x,1/2-y,1/2-z
1/2-x,1/2+y,1/2-z
1/2-x,1/2-y,-z
1/2+x,1/2+y,-z
1/2-x,1/2+y,1/2+z
1/2+x,1/2-y,1/2+z
loop_
_atom_site_type_symbol
_atom_site_label
_atom_site_fract_x
_atom_site_fract_y
_atom_site_fract_z
Si Si1 0.250000 0.250000 0.135685
Si Si2 0.102278 0.795907 0.913248
Si Si3 0.176930 0.898494 0.801079
Si Si4 0.591568 0.260953 0.561462
Si Si5 0.750000 0.750000 0.500000
O O1 0.276525 0.428596 0.169741
O O2 0.332281 0.190191 0.099617
O O3 0.122393 0.802328 0.849258
O O4 0.176096 0.713866 0.951972
O O5 0.006925 0.713126 0.923159
O O6 0.098457 0.013201 0.932570
O O7 0.250000 0.750000 0.782909
O O8 0.131124 0.000000 0.750000
O O9 0.609394 0.210926 0.500000
#
# Coordination Sequence:
#
# PCOD9495682 Si02
#       5
#     8  16  16  16   4
#     4  10  23  37  64  96 121 171 210 254 326 374
#     4  10  20  33  62  93 124 169 212 257 323 384
#     4  11  22  41  66  89 126 166 217 268 316 378
#     4  10  18  37  58  92 132 164 208 253 312 399
#     4  12  16  32  60  98 126 166 204 262 332 370
#
# _framework density 22.033366999999998
#
# number of rings (size 3 to 8) (size 9 to 14) (size 15 to 20)
#    0.000    1.600    5.333    1.200    0.000    0.000 
#    0.000   12.000    0.000    9.600    0.000    0.000 
#    0.000    0.000    0.000    0.000    0.000    0.000 
#
# Total GULP energy -167105.056971 kJ/mol
# GULP energy per Si atom -5570.168566 kJ/mol
# Density = 2.198322 g / cm^3
# Si number density = 22.033367 Si / 1000 Ang^3
#
#
#
# Elastic Constant Matrix: (Units=GPa)
#
#
# Indices 1 2 3 4 5 6 
#
# 1 113.6907 4.5169 54.6806 0.0000 0.0000 0.0000
# 2 4.5169 67.4030 15.5178 0.0000 0.0000 0.0000
# 3 54.6806 15.5178 172.6055 0.0000 0.0000 0.0000
# 4 0.0000 0.0000 0.0000 28.8817 0.0000 0.0000
# 5 0.0000 0.0000 0.0000 0.0000 23.1580 0.0000
# 6 0.0000 0.0000 0.0000 0.0000 0.0000 1.6754
#
#
#
# Elastic Compliance Matrix: (Units=1/GPa)
#
#
# Indices 1 2 3 4 5 6 
#
# 1 0.010377 0.000063 -0.003293 0.000000 0.000000 0.000000
# 2 0.000063 0.015150 -0.001382 0.000000 0.000000 0.000000
# 3 -0.003293 -0.001382 0.006961 0.000000 0.000000 0.000000
# 4 0.000000 0.000000 0.000000 0.034624 0.000000 0.000000
# 5 0.000000 0.000000 0.000000 0.000000 0.043182 0.000000
# 6 0.000000 0.000000 0.000000 0.000000 0.000000 0.596867
#
#
# Mechanical properties :
#
#
# Convention : Reuss Voigt Hill
#
# Bulk Modulus (GPa) = 42.98536 55.90333 49.44434
# Shear Modulus (GPa) = 6.90474 29.34194 18.12334
#
# Velocity S-wave (km/s) = 1.77217 3.65321 2.87111
# Velocity P-wave (km/s) = 4.87227 6.57433 5.78623
#
# Compressibility (1/GPa) = 0.02326374
#
# Stress axis : x y z
#
# Youngs Moduli (GPa) = 96.36575 66.00624 143.65703
#
# Poissons Ratio (x) = -0.00414 0.47307
# Poissons Ratio (y) = -0.00605 0.19852
# Poissons Ratio (z) = 0.31734 0.09122
#
# Static dielectric constant tensor:
#      x y z
#    x 1.800560 0.000000 0.000000 
#    y 0.000000 1.902430 0.000000 
#    z 0.000000 0.000000 1.819790 
# 
# From -- ./inp_files/57611.got.cif
#   From: 2010.05.17/outbox.cif.g08.bks.cpg/sg66_29_cif.got.tgz:57611.got - 2010.06.03 17:51:23.
