data_PCOD9495164
_publ_section_title
;
Structure prediction by ZEFSAII (Michael W. Deem and Ramdas Pophale) SiO2 
 PCOD9495164
Probable space group: C C C M
;
_chemical_formula_sum "Si O2"
_cell_formula_units_Z 88
_cell_length_a 11.128286
_cell_length_b 16.745358
_cell_length_c 23.064551
_cell_angle_alpha 90.000000
_cell_angle_beta 90.000000
_cell_angle_gamma 90.000000
_cell_volume 4298.012953
_symmetry_space_group_name_H-M "C C C M"
_symmetry_group_IT_number 66
_symmetry_cell_setting 'orthorhombic'
loop_
_space_group_symop_operation_xyz
x,y,z
-x,-y,z
x,-y,1/2-z
-x,y,1/2-z
-x,-y,-z
x,y,-z
-x,y,1/2+z
x,-y,1/2+z
1/2+x,1/2+y,z
1/2-x,1/2-y,z
1/2+x,1/2-y,1/2-z
1/2-x,1/2+y,1/2-z
1/2-x,1/2-y,-z
1/2+x,1/2+y,-z
1/2-x,1/2+y,1/2+z
1/2+x,1/2-y,1/2+z
loop_
_atom_site_type_symbol
_atom_site_label
_atom_site_fract_x
_atom_site_fract_y
_atom_site_fract_z
Si Si1 0.183939 0.973659 0.628448
Si Si2 0.645149 0.553621 0.000000
Si Si3 0.892681 0.257815 0.873624
Si Si4 0.551907 0.085419 0.375051
Si Si5 0.515730 0.701243 0.500000
Si Si6 0.541805 0.604440 0.685180
Si Si7 0.612180 0.138170 0.500000
O O1 0.170209 0.992546 0.559868
O O2 0.305852 0.924144 0.641078
O O3 0.068147 0.921190 0.644019
O O4 0.158774 0.053346 0.665835
O O5 0.525519 0.608460 0.000000
O O6 0.748212 0.620462 0.000000
O O7 0.750000 0.250000 0.868929
O O8 0.962768 0.340963 0.860295
O O9 0.940193 0.196302 0.826239
O O10 0.920519 0.224610 0.939106
O O11 0.556480 0.096344 0.444240
O O12 0.500000 0.000000 0.357671
O O13 0.410494 0.767852 0.500000
O O14 0.500000 0.587438 0.750000
#
# Coordination Sequence:
#
# PCOD9495164 Si02
#       7
#    16   8  16  16   8  16   8
#     4  10  21  38  65  93 123 163 209 255 322 384
#     4  10  17  32  58  96 127 157 201 266 315 388
#     4  11  23  40  63  95 132 170 214 263 324 386
#     4  10  20  37  62  91 129 164 208 256 312 379
#     4  10  18  34  57  94 133 167 204 258 320 392
#     4  11  24  44  65  87 125 168 212 266 323 380
#     4   8  18  29  54  89 130 173 195 240 313 387
#
# _framework density 20.474578000000001
#
# number of rings (size 3 to 8) (size 9 to 14) (size 15 to 20)
#    0.000    1.818    1.818    3.000    0.000    2.909 
#    3.273    3.636    0.000    0.000    0.000    0.000 
#    0.000    0.000    0.000    0.000    0.000    0.000 
#
# Total GULP energy -244977.333169 kJ/mol
# GULP energy per Si atom -5567.666663 kJ/mol
# Density = 2.042798 g / cm^3
# Si number density = 20.474578 Si / 1000 Ang^3
#
#
#
# Elastic Constant Matrix: (Units=GPa)
#
#
# Indices 1 2 3 4 5 6 
#
# 1 113.2763 53.5822 20.7614 0.0000 0.0000 0.0000
# 2 53.5822 126.7856 30.2845 0.0000 0.0000 0.0000
# 3 20.7614 30.2845 88.2951 0.0000 0.0000 0.0000
# 4 0.0000 0.0000 0.0000 27.6691 0.0000 0.0000
# 5 0.0000 0.0000 0.0000 0.0000 0.9361 0.0000
# 6 0.0000 0.0000 0.0000 0.0000 0.0000 32.5010
#
#
#
# Elastic Compliance Matrix: (Units=1/GPa)
#
#
# Indices 1 2 3 4 5 6 
#
# 1 0.011130 -0.004443 -0.001093 0.000000 0.000000 0.000000
# 2 -0.004443 0.010364 -0.002510 0.000000 0.000000 0.000000
# 3 -0.001093 -0.002510 0.012444 0.000000 0.000000 0.000000
# 4 0.000000 0.000000 0.000000 0.036141 0.000000 0.000000
# 5 0.000000 0.000000 0.000000 0.000000 1.068260 0.000000
# 6 0.000000 0.000000 0.000000 0.000000 0.000000 0.030768
#
#
# Mechanical properties :
#
#
# Convention : Reuss Voigt Hill
#
# Bulk Modulus (GPa) = 56.03580 59.73481 57.88531
# Shear Modulus (GPa) = 4.19763 27.13650 15.66707
#
# Velocity S-wave (km/s) = 1.43339 3.64452 2.76922
# Velocity P-wave (km/s) = 5.49248 6.85190 6.20950
#
# Compressibility (1/GPa) = 0.01784573
#
# Stress axis : x y z
#
# Youngs Moduli (GPa) = 89.84924 96.48355 80.36167
#
# Poissons Ratio (x) = 0.42863 0.08786
# Poissons Ratio (y) = 0.39916 0.20173
# Poissons Ratio (z) = 0.09823 0.24221
#
# Static dielectric constant tensor:
#      x y z
#    x 1.800470 0.000000 0.000000 
#    y 0.000000 1.768500 0.000000 
#    z 0.000000 0.000000 1.747670 
# 
# From -- ./inp_files/48596.got.cif
#   From: 2010.05.17/outbox.cif.g08.bks.cpg/sg66_25_cif.got.tgz:48596.got - 2010.06.03 17:51:23.
