data_PCOD9495092
_publ_section_title
;
Structure prediction by ZEFSAII (Michael W. Deem and Ramdas Pophale) SiO2 
 PCOD9495092
Probable space group: C C C M
;
_chemical_formula_sum "Si O2"
_cell_formula_units_Z 64
_cell_length_a 14.058457
_cell_length_b 11.160156
_cell_length_c 19.466991
_cell_angle_alpha 90.000000
_cell_angle_beta 90.000000
_cell_angle_gamma 90.000000
_cell_volume 3054.265245
_symmetry_space_group_name_H-M "C C C M"
_symmetry_group_IT_number 66
_symmetry_cell_setting 'orthorhombic'
loop_
_space_group_symop_operation_xyz
x,y,z
-x,-y,z
x,-y,1/2-z
-x,y,1/2-z
-x,-y,-z
x,y,-z
-x,y,1/2+z
x,-y,1/2+z
1/2+x,1/2+y,z
1/2-x,1/2-y,z
1/2+x,1/2-y,1/2-z
1/2-x,1/2+y,1/2-z
1/2-x,1/2-y,-z
1/2+x,1/2+y,-z
1/2-x,1/2+y,1/2+z
1/2+x,1/2-y,1/2+z
loop_
_atom_site_type_symbol
_atom_site_label
_atom_site_fract_x
_atom_site_fract_y
_atom_site_fract_z
Si Si1 0.640402 0.631427 0.774111
Si Si2 0.398424 0.434016 0.077414
Si Si3 0.780834 0.611753 0.574204
Si Si4 0.358400 0.880273 0.220067
O O1 0.604928 0.500000 0.750000
O O2 0.619299 0.645648 0.855107
O O3 0.602433 0.747342 0.733701
O O4 0.753101 0.626254 0.755904
O O5 0.500000 0.500000 0.083276
O O6 0.313880 0.531921 0.081303
O O7 0.394235 0.379707 0.000000
O O8 0.824670 0.584441 0.500000
O O9 0.750000 0.750000 0.575022
O O10 0.845912 0.596356 0.639694
O O11 0.402968 0.000000 0.250000
#
# Coordination Sequence:
#
# PCOD9495092 Si02
#       4
#    16  16  16  16
#     4  10  17  31  48  73 102 134 168 215 263 308
#     4  10  20  33  49  76 110 139 175 224 275 330
#     4  10  17  29  48  70  99 133 172 212 260 315
#     4  10  17  30  48  73 104 133 165 216 266 316
#
# _framework density 20.954301999999998
#
# number of rings (size 3 to 8) (size 9 to 14) (size 15 to 20)
#    0.000    2.000    7.500    0.000    0.000    0.500 
#    0.000    3.750    0.000    0.000    0.000   19.250 
#    0.000   20.000    0.000    0.000    0.000    0.000 
#
# Total GULP energy -178373.884030 kJ/mol
# GULP energy per Si atom -5574.183876 kJ/mol
# Density = 2.090661 g / cm^3
# Si number density = 20.954302 Si / 1000 Ang^3
#
#
#
# Elastic Constant Matrix: (Units=GPa)
#
#
# Indices 1 2 3 4 5 6 
#
# 1 65.1332 10.8735 32.6791 0.0000 0.0000 0.0000
# 2 10.8735 127.8273 42.4495 0.0000 0.0000 0.0000
# 3 32.6791 42.4495 216.4054 0.0000 0.0000 0.0000
# 4 0.0000 0.0000 0.0000 15.5810 0.0000 0.0000
# 5 0.0000 0.0000 0.0000 0.0000 11.1600 0.0000
# 6 0.0000 0.0000 0.0000 0.0000 0.0000 -19.2661
#
#
#
# Elastic Compliance Matrix: (Units=1/GPa)
#
#
# Indices 1 2 3 4 5 6 
#
# 1 0.016658 -0.000622 -0.002393 0.000000 0.000000 0.000000
# 2 -0.000622 0.008391 -0.001552 0.000000 0.000000 0.000000
# 3 -0.002393 -0.001552 0.005287 0.000000 0.000000 0.000000
# 4 0.000000 0.000000 0.000000 0.064181 0.000000 0.000000
# 5 0.000000 0.000000 0.000000 0.000000 0.089606 0.000000
# 6 0.000000 0.000000 0.000000 0.000000 0.000000 -0.051905
#
#
# Mechanical properties :
#
#
# Convention : Reuss Voigt Hill
#
# Bulk Modulus (GPa) = 47.16816 64.59668 55.88242
# Shear Modulus (GPa) = 33.68811 23.05257 28.37034
#
# Velocity S-wave (km/s) = 4.01396 3.32043 3.68355
# Velocity P-wave (km/s) = 6.63636 6.75238 6.69462
#
# Compressibility (1/GPa) = 0.02120074
#
# Stress axis : x y z
#
# Youngs Moduli (GPa) = 60.03166 119.16964 189.14894
#
# Poissons Ratio (x) = 0.07414 0.45272
# Poissons Ratio (y) = 0.03735 0.29357
# Poissons Ratio (z) = 0.14368 0.18496
#
# Static dielectric constant tensor:
#      x y z
#    x 1.732850 0.000000 0.000000 
#    y 0.000000 1.781500 0.000000 
#    z 0.000000 0.000000 1.808670 
# 
# From -- ./inp_files/38206.got.cif
#   From: 2010.05.17/outbox.cif.g08.bks.cpg/sg66_20_cif.got.tgz:38206.got - 2010.06.03 17:51:23.
