data_PCOD9495362
_publ_section_title
;
Structure prediction by ZEFSAII (Michael W. Deem and Ramdas Pophale) SiO2 
 PCOD9495362
Probable space group: C C C M
;
_chemical_formula_sum "Si O2"
_cell_formula_units_Z 112
_cell_length_a 12.020904
_cell_length_b 27.765723
_cell_length_c 14.511395
_cell_angle_alpha 90.000000
_cell_angle_beta 90.000000
_cell_angle_gamma 90.000000
_cell_volume 4843.455114
_symmetry_space_group_name_H-M "C C C M"
_symmetry_group_IT_number 66
_symmetry_cell_setting 'orthorhombic'
loop_
_space_group_symop_operation_xyz
x,y,z
-x,-y,z
x,-y,1/2-z
-x,y,1/2-z
-x,-y,-z
x,y,-z
-x,y,1/2+z
x,-y,1/2+z
1/2+x,1/2+y,z
1/2-x,1/2-y,z
1/2+x,1/2-y,1/2-z
1/2-x,1/2+y,1/2-z
1/2-x,1/2-y,-z
1/2+x,1/2+y,-z
1/2-x,1/2+y,1/2+z
1/2+x,1/2-y,1/2+z
loop_
_atom_site_type_symbol
_atom_site_label
_atom_site_fract_x
_atom_site_fract_y
_atom_site_fract_z
Si Si1 0.068158 0.773994 0.612804
Si Si2 0.875960 0.509279 0.638522
Si Si3 0.765858 0.096970 0.852876
Si Si4 0.498212 0.443663 0.362317
Si Si5 0.737004 0.418699 0.635433
Si Si6 0.698722 0.183923 0.392584
Si Si7 0.180540 0.796256 0.111581
O O1 0.062104 0.776653 0.500000
O O2 0.177639 0.803474 0.645114
O O3 0.101356 0.719191 0.641582
O O4 0.947728 0.792277 0.644888
O O5 0.877911 0.500000 0.750000
O O6 0.831623 0.562081 0.612843
O O7 0.790513 0.468687 0.605374
O O8 0.000000 0.500000 0.606036
O O9 0.769753 0.083483 0.745551
O O10 0.759234 0.154039 0.862495
O O11 0.884681 0.080964 0.893197
O O12 0.500000 0.500000 0.387412
O O13 0.500000 0.442278 0.250000
O O14 0.609240 0.417222 0.396373
O O15 0.812598 0.373069 0.612037
O O16 0.706279 0.196385 0.500000
O O17 0.250000 0.750000 0.143695
O O18 0.178302 0.794994 0.000000
#
# Coordination Sequence:
#
# PCOD9495362 Si02
#       7
#    16  16  16  16  16  16  16
#     4   8  16  33  53  72  95 131 172 204 245 308
#     4   9  18  32  50  73 102 136 170 201 252 313
#     4  10  19  33  53  75 101 132 172 218 251 302
#     4   9  15  27  50  77 101 129 169 206 252 309
#     4  10  18  30  52  78 102 132 165 210 255 305
#     4   9  17  31  53  76 101 132 166 207 257 307
#     4  10  21  37  55  72  99 140 179 212 256 310
#
# _framework density 23.123989000000002
#
# number of rings (size 3 to 8) (size 9 to 14) (size 15 to 20)
#    0.000    2.714    1.429    1.714    0.000    1.143 
#    2.571    0.714    0.000    1.714    0.000    0.000 
#    0.000    0.000    0.000    0.000    0.000    0.000 
#
# Total GULP energy -312645.657740 kJ/mol
# GULP energy per Si atom -5582.958174 kJ/mol
# Density = 2.307136 g / cm^3
# Si number density = 23.123989 Si / 1000 Ang^3
#
#
#
# Elastic Constant Matrix: (Units=GPa)
#
#
# Indices 1 2 3 4 5 6 
#
# 1 126.7010 66.9078 10.0134 0.0000 0.0000 0.0000
# 2 66.9078 173.4707 -5.9864 0.0000 0.0000 0.0000
# 3 10.0134 -5.9864 72.6570 0.0000 0.0000 0.0000
# 4 0.0000 0.0000 0.0000 34.8525 0.0000 0.0000
# 5 0.0000 0.0000 0.0000 0.0000 -7.0422 0.0000
# 6 0.0000 0.0000 0.0000 0.0000 0.0000 35.0558
#
#
#
# Elastic Compliance Matrix: (Units=1/GPa)
#
#
# Indices 1 2 3 4 5 6 
#
# 1 0.010122 -0.003963 -0.001721 0.000000 0.000000 0.000000
# 2 -0.003963 0.007333 0.001150 0.000000 0.000000 0.000000
# 3 -0.001721 0.001150 0.014095 0.000000 0.000000 0.000000
# 4 0.000000 0.000000 0.000000 0.028692 0.000000 0.000000
# 5 0.000000 0.000000 0.000000 0.000000 -0.142002 0.000000
# 6 0.000000 0.000000 0.000000 0.000000 0.000000 0.028526
#
#
# Mechanical properties :
#
#
# Convention : Reuss Voigt Hill
#
# Bulk Modulus (GPa) = 44.48170 57.18869 50.83520
# Shear Modulus (GPa) = -136.34668 32.69949 -51.82359
#
# Velocity S-wave (km/s) = -7.68709 3.76452 -4.73918
# Velocity P-wave (km/s) = 7.71430 6.60912 2.81336
#
# Compressibility (1/GPa) = 0.02248115
#
# Stress axis : x y z
#
# Youngs Moduli (GPa) = 98.79878 136.36953 70.94549
#
# Poissons Ratio (x) = 0.54048 0.12213
# Poissons Ratio (y) = 0.39157 -0.08162
# Poissons Ratio (z) = 0.17008 -0.15688
#
# Static dielectric constant tensor:
#      x y z
#    x 1.837060 0.000000 0.000000 
#    y 0.000000 1.860980 0.000000 
#    z 0.000000 0.000000 1.935400 
# 
# From -- ./inp_files/49156.got.cif
#   From: 2010.05.17/outbox.cif.g08.bks.cpg/sg66_25_cif.got.tgz:49156.got - 2010.06.03 17:51:23.
