data_PCOD9495458
_publ_section_title
;
Structure prediction by ZEFSAII (Michael W. Deem and Ramdas Pophale) SiO2 
 PCOD9495458
Probable space group: C C C M
;
_chemical_formula_sum "Si O2"
_cell_formula_units_Z 112
_cell_length_a 24.385126
_cell_length_b 12.715560
_cell_length_c 14.319805
_cell_angle_alpha 90.000000
_cell_angle_beta 90.000000
_cell_angle_gamma 90.000000
_cell_volume 4440.149565
_symmetry_space_group_name_H-M "C C C M"
_symmetry_group_IT_number 66
_symmetry_cell_setting 'orthorhombic'
loop_
_space_group_symop_operation_xyz
x,y,z
-x,-y,z
x,-y,1/2-z
-x,y,1/2-z
-x,-y,-z
x,y,-z
-x,y,1/2+z
x,-y,1/2+z
1/2+x,1/2+y,z
1/2-x,1/2-y,z
1/2+x,1/2-y,1/2-z
1/2-x,1/2+y,1/2-z
1/2-x,1/2-y,-z
1/2+x,1/2+y,-z
1/2-x,1/2+y,1/2+z
1/2+x,1/2-y,1/2+z
loop_
_atom_site_type_symbol
_atom_site_label
_atom_site_fract_x
_atom_site_fract_y
_atom_site_fract_z
Si Si1 0.255914 0.993564 0.613780
Si Si2 0.937222 0.495162 0.138782
Si Si3 0.308273 0.206705 0.613852
Si Si4 0.855876 0.095990 0.614514
Si Si5 0.523157 0.616700 0.106377
Si Si6 0.578071 0.250274 0.107505
Si Si7 0.159090 0.664597 0.609447
O O1 0.253542 0.997400 0.500000
O O2 0.192553 0.983636 0.643284
O O3 0.288035 0.892395 0.650047
O O4 0.299102 0.085128 0.637654
O O5 0.938891 0.500000 0.250000
O O6 0.921284 0.377034 0.108733
O O7 0.895824 0.591451 0.115763
O O8 0.000000 0.500000 0.104525
O O9 0.311459 0.214660 0.500000
O O10 0.250000 0.250000 0.642856
O O11 0.361611 0.268276 0.649481
O O12 0.858778 0.084643 0.500000
O O13 0.917988 0.093621 0.651525
O O14 0.841687 0.215748 0.639265
O O15 0.500000 0.500000 0.099721
O O16 0.476874 0.695753 0.147406
O O17 0.533808 0.658505 0.000000
O O18 0.578674 0.288535 0.000000
O O19 0.169671 0.670491 0.500000
#
# Coordination Sequence:
#
# PCOD9495458 Si02
#       7
#    16  16  16  16  16  16  16
#     4   9  16  27  45  73 104 132 168 212 261 316
#     4  11  23  36  52  76 105 141 178 221 270 325
#     4   9  17  27  45  74 105 141 178 218 266 317
#     4   9  17  27  44  72 104 135 166 209 260 310
#     4   9  18  29  44  72 110 144 171 211 264 314
#     4  10  19  34  54  79 109 141 182 225 271 326
#     4  10  18  32  52  77 103 131 172 217 267 319
#
# _framework density 25.224374000000001
#
# number of rings (size 3 to 8) (size 9 to 14) (size 15 to 20)
#    0.000    2.429    1.429    1.714    2.000    4.000 
#    0.000    0.000    0.000    1.714    0.000    8.000 
#    0.000    0.000    0.000    0.000    0.000    0.143 
#
# Total GULP energy -312156.502938 kJ/mol
# GULP energy per Si atom -5574.223267 kJ/mol
# Density = 2.516696 g / cm^3
# Si number density = 25.224374 Si / 1000 Ang^3
#
#
#
# Elastic Constant Matrix: (Units=GPa)
#
#
# Indices 1 2 3 4 5 6 
#
# 1 195.4530 18.7687 3.9757 0.0000 0.0000 0.0000
# 2 18.7687 38.6114 -11.7180 0.0000 0.0000 0.0000
# 3 3.9757 -11.7180 92.9840 0.0000 0.0000 0.0000
# 4 0.0000 0.0000 0.0000 10.1295 0.0000 0.0000
# 5 0.0000 0.0000 0.0000 0.0000 139.0516 0.0000
# 6 0.0000 0.0000 0.0000 0.0000 0.0000 42.4492
#
#
#
# Elastic Compliance Matrix: (Units=1/GPa)
#
#
# Indices 1 2 3 4 5 6 
#
# 1 0.005397 -0.002801 -0.000584 0.000000 0.000000 0.000000
# 2 -0.002801 0.028382 0.003697 0.000000 0.000000 0.000000
# 3 -0.000584 0.003697 0.011245 0.000000 0.000000 0.000000
# 4 0.000000 0.000000 0.000000 0.098721 0.000000 0.000000
# 5 0.000000 0.000000 0.000000 0.000000 0.007192 0.000000
# 6 0.000000 0.000000 0.000000 0.000000 0.000000 0.023558
#
#
# Mechanical properties :
#
#
# Convention : Reuss Voigt Hill
#
# Bulk Modulus (GPa) = 21.90623 38.78903 30.34763
# Shear Modulus (GPa) = 26.44281 59.39419 42.91850
#
# Velocity S-wave (km/s) = 3.24126 4.85772 4.12936
# Velocity P-wave (km/s) = 4.76562 6.84648 5.89853
#
# Compressibility (1/GPa) = 0.04564912
#
# Stress axis : x y z
#
# Youngs Moduli (GPa) = 185.28361 35.23319 88.92573
#
# Poissons Ratio (x) = 0.09868 0.05191
# Poissons Ratio (y) = 0.51892 -0.32872
# Poissons Ratio (z) = 0.10815 -0.13024
#
# Static dielectric constant tensor:
#      x y z
#    x 2.103090 0.000000 0.000000 
#    y 0.000000 2.231170 0.000000 
#    z 0.000000 0.000000 1.991960 
# 
# From -- ./inp_files/52596.got.cif
#   From: 2010.05.17/outbox.cif.g08.bks.cpg/sg66_27_cif.got.tgz:52596.got - 2010.06.03 17:51:23.
