data_PCOD9495988
_publ_section_title
;
Structure prediction by ZEFSAII (Michael W. Deem and Ramdas Pophale) SiO2 
 PCOD9495988
Probable space group: C C C M
;
_chemical_formula_sum "Si O2"
_cell_formula_units_Z 96
_cell_length_a 10.248360
_cell_length_b 20.594148
_cell_length_c 23.440003
_cell_angle_alpha 90.000000
_cell_angle_beta 90.000000
_cell_angle_gamma 90.000000
_cell_volume 4947.158960
_symmetry_space_group_name_H-M "C C C M"
_symmetry_group_IT_number 66
_symmetry_cell_setting 'orthorhombic'
loop_
_space_group_symop_operation_xyz
x,y,z
-x,-y,z
x,-y,1/2-z
-x,y,1/2-z
-x,-y,-z
x,y,-z
-x,y,1/2+z
x,-y,1/2+z
1/2+x,1/2+y,z
1/2-x,1/2-y,z
1/2+x,1/2-y,1/2-z
1/2-x,1/2+y,1/2-z
1/2-x,1/2-y,-z
1/2+x,1/2+y,-z
1/2-x,1/2+y,1/2+z
1/2+x,1/2-y,1/2+z
loop_
_atom_site_type_symbol
_atom_site_label
_atom_site_fract_x
_atom_site_fract_y
_atom_site_fract_z
Si Si1 0.508146 0.172908 0.932630
Si Si2 0.993732 0.827902 0.433650
Si Si3 0.251050 0.326717 0.356905
Si Si4 0.150378 0.988948 0.657014
Si Si5 0.651658 0.392405 0.755383
Si Si6 0.244732 0.413140 0.066124
O O1 0.482320 0.250504 0.924895
O O2 0.622945 0.150418 0.890343
O O3 0.379164 0.131519 0.920493
O O4 0.543223 0.164990 0.000000
O O5 0.951562 0.835343 0.500000
O O6 0.881369 0.850060 0.389981
O O7 0.124333 0.869755 0.425684
O O8 0.250000 0.250000 0.365566
O O9 0.263171 0.340389 0.289351
O O10 0.177662 0.923467 0.693980
O O11 0.240522 0.978109 0.603054
O O12 0.169451 0.047354 0.700851
O O13 0.000000 0.000000 0.639358
O O14 0.500000 0.371901 0.750000
O O15 0.237245 0.430177 0.000000
#
# Coordination Sequence:
#
# PCOD9495988 Si02
#       6
#    16  16  16  16  16  16
#     4   9  18  32  49  75 114 149 173 210 269 324
#     4   9  16  28  50  77 106 144 184 218 259 316
#     4  10  19  33  54  80 106 137 180 223 263 313
#     4   9  18  34  55  75  99 135 174 215 262 315
#     4   9  18  35  56  74  98 134 173 212 261 315
#     4  10  19  32  53  81 109 137 176 225 268 307
#
# _framework density 19.405076000000001
#
# number of rings (size 3 to 8) (size 9 to 14) (size 15 to 20)
#    0.000    2.667    0.000    4.000    0.000    4.333 
#    0.000    8.333    0.000    4.000    0.000    0.000 
#    0.000    0.000    0.000    0.000    0.000    0.000 
#
# Total GULP energy -267296.084037 kJ/mol
# GULP energy per Si atom -5568.668417 kJ/mol
# Density = 1.936091 g / cm^3
# Si number density = 19.405076 Si / 1000 Ang^3
#
#
#
# Elastic Constant Matrix: (Units=GPa)
#
#
# Indices 1 2 3 4 5 6 
#
# 1 70.0524 9.9754 42.4680 0.0000 0.0000 0.0000
# 2 9.9754 16.8502 22.2229 0.0000 0.0000 0.0000
# 3 42.4680 22.2229 72.8594 0.0000 0.0000 0.0000
# 4 0.0000 0.0000 0.0000 36.5224 0.0000 0.0000
# 5 0.0000 0.0000 0.0000 0.0000 30.8684 0.0000
# 6 0.0000 0.0000 0.0000 0.0000 0.0000 6.3014
#
#
#
# Elastic Compliance Matrix: (Units=1/GPa)
#
#
# Indices 1 2 3 4 5 6 
#
# 1 0.022513 0.006656 -0.015153 0.000000 0.000000 0.000000
# 2 0.006656 0.101253 -0.034763 0.000000 0.000000 0.000000
# 3 -0.015153 -0.034763 0.033160 0.000000 0.000000 0.000000
# 4 0.000000 0.000000 0.000000 0.027380 0.000000 0.000000
# 5 0.000000 0.000000 0.000000 0.000000 0.032396 0.000000
# 6 0.000000 0.000000 0.000000 0.000000 0.000000 0.158695
#
#
# Mechanical properties :
#
#
# Convention : Reuss Voigt Hill
#
# Bulk Modulus (GPa) = 14.20300 34.34387 24.27343
# Shear Modulus (GPa) = 10.30108 20.41148 15.35628
#
# Velocity S-wave (km/s) = 2.30651 3.24676 2.81615
# Velocity P-wave (km/s) = 3.79847 5.63845 4.80731
#
# Compressibility (1/GPa) = 0.07040765
#
# Stress axis : x y z
#
# Youngs Moduli (GPa) = 44.41837 9.87622 30.15651
#
# Poissons Ratio (x) = -0.06574 0.45695
# Poissons Ratio (y) = -0.29566 1.04834
# Poissons Ratio (z) = 0.67306 0.34333
#
# Static dielectric constant tensor:
#      x y z
#    x 1.661070 0.000000 0.000000 
#    y 0.000000 1.745090 0.000000 
#    z 0.000000 0.000000 1.787230 
# 
# From -- ./inp_files/62609.got.cif
#   From: 2010.05.17/outbox.cif.g08.bks.cpg/sg66_32_cif.got.tgz:62609.got - 2010.06.03 17:51:23.
