data_PCOD9495361
_publ_section_title
;
Structure prediction by ZEFSAII (Michael W. Deem and Ramdas Pophale) SiO2 
 PCOD9495361
Probable space group: C C C M
;
_chemical_formula_sum "Si O2"
_cell_formula_units_Z 96
_cell_length_a 26.296674
_cell_length_b 7.026666
_cell_length_c 22.526863
_cell_angle_alpha 90.000000
_cell_angle_beta 90.000000
_cell_angle_gamma 90.000000
_cell_volume 4162.467455
_symmetry_space_group_name_H-M "C C C M"
_symmetry_group_IT_number 66
_symmetry_cell_setting 'orthorhombic'
loop_
_space_group_symop_operation_xyz
x,y,z
-x,-y,z
x,-y,1/2-z
-x,y,1/2-z
-x,-y,-z
x,y,-z
-x,y,1/2+z
x,-y,1/2+z
1/2+x,1/2+y,z
1/2-x,1/2-y,z
1/2+x,1/2-y,1/2-z
1/2-x,1/2+y,1/2-z
1/2-x,1/2-y,-z
1/2+x,1/2+y,-z
1/2-x,1/2+y,1/2+z
1/2+x,1/2-y,1/2+z
loop_
_atom_site_type_symbol
_atom_site_label
_atom_site_fract_x
_atom_site_fract_y
_atom_site_fract_z
Si Si1 0.707967 0.035574 0.069241
Si Si2 0.441510 0.273244 0.741918
Si Si3 0.994274 0.729148 0.565647
Si Si4 0.318625 0.416389 0.069171
Si Si5 0.393867 0.844335 0.115864
Si Si6 0.089646 0.228527 0.131885
O O1 0.695800 0.808702 0.072449
O O2 0.767753 0.033449 0.085290
O O3 0.666492 0.158917 0.105170
O O4 0.703081 0.089237 0.000000
O O5 0.442872 0.500000 0.750000
O O6 0.500000 0.206575 0.750000
O O7 0.415521 0.207963 0.681064
O O8 0.408758 0.217768 0.799151
O O9 0.011523 0.783370 0.500000
O O10 0.934420 0.762218 0.574010
O O11 0.000000 0.500000 0.571924
O O12 0.032042 0.822357 0.613440
O O13 0.367977 0.421543 0.111564
O O14 0.331177 0.456110 0.000000
O O15 0.401755 0.068881 0.100830
#
# Coordination Sequence:
#
# PCOD9495361 Si02
#       6
#    16  16  16  16  16  16
#     4   8  14  26  48  80 113 141 173 222 284 346
#     4  11  23  37  51  69 103 149 195 236 291 353
#     4   9  16  25  43  76 109 134 169 227 287 334
#     4   8  14  26  48  80 113 141 172 217 283 350
#     4  10  18  30  52  78 106 138 186 235 281 340
#     4  10  18  30  52  77 106 140 183 231 277 343
#
# _framework density 23.063241999999999
#
# number of rings (size 3 to 8) (size 9 to 14) (size 15 to 20)
#    0.000    2.667    1.667    2.500    0.000    4.667 
#    0.000    0.000    0.000   14.000    0.000    2.333 
#    0.000    0.000    0.000    0.000    0.000    0.000 
#
# Total GULP energy -267763.240701 kJ/mol
# GULP energy per Si atom -5578.400848 kJ/mol
# Density = 2.301075 g / cm^3
# Si number density = 23.063242 Si / 1000 Ang^3
#
#
#
# Elastic Constant Matrix: (Units=GPa)
#
#
# Indices 1 2 3 4 5 6 
#
# 1 192.8800 47.1196 81.4496 0.0000 0.0000 0.0000
# 2 47.1196 89.5347 -7.5817 0.0000 0.0000 0.0000
# 3 81.4496 -7.5817 93.6830 0.0000 0.0000 0.0000
# 4 0.0000 0.0000 0.0000 -48.1810 0.0000 0.0000
# 5 0.0000 0.0000 0.0000 0.0000 18.6092 0.0000
# 6 0.0000 0.0000 0.0000 0.0000 0.0000 26.4006
#
#
#
# Elastic Compliance Matrix: (Units=1/GPa)
#
#
# Indices 1 2 3 4 5 6 
#
# 1 0.011158 -0.006740 -0.010246 0.000000 0.000000 0.000000
# 2 -0.006740 0.015317 0.007099 0.000000 0.000000 0.000000
# 3 -0.010246 0.007099 0.020157 0.000000 0.000000 0.000000
# 4 0.000000 0.000000 0.000000 -0.020755 0.000000 0.000000
# 5 0.000000 0.000000 0.000000 0.000000 0.053737 0.000000
# 6 0.000000 0.000000 0.000000 0.000000 0.000000 0.037878
#
#
# Mechanical properties :
#
#
# Convention : Reuss Voigt Hill
#
# Bulk Modulus (GPa) = 37.23231 68.67474 52.95353
# Shear Modulus (GPa) = 34.19549 16.37309 25.28429
#
# Velocity S-wave (km/s) = 3.85474 2.66733 3.31464
# Velocity P-wave (km/s) = 5.99922 6.27117 6.13670
#
# Compressibility (1/GPa) = 0.02685839
#
# Stress axis : x y z
#
# Youngs Moduli (GPa) = 89.62282 65.28716 49.61020
#
# Poissons Ratio (x) = 0.44002 0.50832
# Poissons Ratio (y) = 0.60403 -0.35219
# Poissons Ratio (z) = 0.91830 -0.46349
#
# Static dielectric constant tensor:
#      x y z
#    x 1.923840 0.000000 0.000000 
#    y 0.000000 2.018720 0.000000 
#    z 0.000000 0.000000 1.825590 
# 
# From -- ./inp_files/59814.got.cif
#   From: 2010.05.17/outbox.cif.g08.bks.cpg/sg66_30_cif.got.tgz:59814.got - 2010.06.03 17:51:23.
