data_PCOD9495653
_publ_section_title
;
Structure prediction by ZEFSAII (Michael W. Deem and Ramdas Pophale) SiO2 
 PCOD9495653
Probable space group: C C C M
;
_chemical_formula_sum "Si O2"
_cell_formula_units_Z 116
_cell_length_a 23.305680
_cell_length_b 28.422228
_cell_length_c 8.769795
_cell_angle_alpha 90.000000
_cell_angle_beta 90.000000
_cell_angle_gamma 90.000000
_cell_volume 5809.106513
_symmetry_space_group_name_H-M "C C C M"
_symmetry_group_IT_number 66
_symmetry_cell_setting 'orthorhombic'
loop_
_space_group_symop_operation_xyz
x,y,z
-x,-y,z
x,-y,1/2-z
-x,y,1/2-z
-x,-y,-z
x,y,-z
-x,y,1/2+z
x,-y,1/2+z
1/2+x,1/2+y,z
1/2-x,1/2-y,z
1/2+x,1/2-y,1/2-z
1/2-x,1/2+y,1/2-z
1/2-x,1/2-y,-z
1/2+x,1/2+y,-z
1/2-x,1/2+y,1/2+z
1/2+x,1/2-y,1/2+z
loop_
_atom_site_type_symbol
_atom_site_label
_atom_site_fract_x
_atom_site_fract_y
_atom_site_fract_z
Si Si1 0.302858 0.450088 0.178137
Si Si2 0.912087 0.917094 0.673115
Si Si3 0.500000 0.500000 0.250000
Si Si4 0.681036 0.051738 0.818887
Si Si5 0.233345 0.194921 0.318585
Si Si6 0.940044 0.286022 0.183327
Si Si7 0.343505 0.146886 0.818757
Si Si8 0.100722 0.814551 0.182752
O O1 0.318696 0.500000 0.250000
O O2 0.360401 0.421999 0.208426
O O3 0.246724 0.436388 0.271838
O O4 0.288496 0.452908 0.000000
O O5 0.888396 0.916779 0.500000
O O6 0.956134 0.961025 0.678541
O O7 0.932264 0.863797 0.706550
O O8 0.646299 0.094495 0.745684
O O9 0.669200 0.000000 0.750000
O O10 0.675314 0.050477 0.000000
O O11 0.237778 0.184023 0.500000
O O12 0.250000 0.250000 0.300651
O O13 0.280238 0.164928 0.228623
O O14 0.167793 0.185347 0.267605
O O15 0.888025 0.317577 0.242011
O O16 0.929303 0.232541 0.240828
O O17 0.000000 0.303254 0.250000
O O18 0.941404 0.286831 0.000000
O O19 0.348796 0.147094 0.000000
O O20 0.104157 0.808747 0.000000
#
# Coordination Sequence:
#
# PCOD9495653 Si02
#       8
#    16  16   4  16  16  16  16  16
#     4  11  21  36  58  85 117 155 198 251 310 377
#     4  11  23  40  58  79 111 157 211 267 328 385
#     4  12  26  36  60  82 118 156 226 284 334 384
#     4  11  22  39  64  95 130 166 203 249 304 371
#     4  10  18  35  62  92 124 164 209 260 325 395
#     4  11  23  43  65  90 122 164 212 261 315 380
#     4  12  24  39  62  96 133 171 211 259 314 378
#     4   9  20  38  62  86 117 161 207 259 326 394
#
# _framework density 19.968648000000002
#
# number of rings (size 3 to 8) (size 9 to 14) (size 15 to 20)
#    0.000    1.241    2.069    6.000    0.966    1.931 
#    0.000    1.379    0.000    0.414    0.000    2.897 
#    0.000    0.000    0.000    0.000    0.000    0.000 
#
# Total GULP energy -323638.783322 kJ/mol
# GULP energy per Si atom -5579.979023 kJ/mol
# Density = 1.992320 g / cm^3
# Si number density = 19.968648 Si / 1000 Ang^3
#
#
#
# Elastic Constant Matrix: (Units=GPa)
#
#
# Indices 1 2 3 4 5 6 
#
# 1 49.8218 33.9804 9.0434 0.0000 0.0000 0.0000
# 2 33.9804 126.4470 36.8542 0.0000 0.0000 0.0000
# 3 9.0434 36.8542 97.3292 0.0000 0.0000 0.0000
# 4 0.0000 0.0000 0.0000 49.7157 0.0000 0.0000
# 5 0.0000 0.0000 0.0000 0.0000 122.6108 0.0000
# 6 0.0000 0.0000 0.0000 0.0000 0.0000 14.8508
#
#
#
# Elastic Compliance Matrix: (Units=1/GPa)
#
#
# Indices 1 2 3 4 5 6 
#
# 1 0.024581 -0.006677 0.000244 0.000000 0.000000 0.000000
# 2 -0.006677 0.010703 -0.003432 0.000000 0.000000 0.000000
# 3 0.000244 -0.003432 0.011551 0.000000 0.000000 0.000000
# 4 0.000000 0.000000 0.000000 0.020114 0.000000 0.000000
# 5 0.000000 0.000000 0.000000 0.000000 0.008156 0.000000
# 6 0.000000 0.000000 0.000000 0.000000 0.000000 0.067337
#
#
# Mechanical properties :
#
#
# Convention : Reuss Voigt Hill
#
# Bulk Modulus (GPa) = 36.89276 48.15042 42.52159
# Shear Modulus (GPa) = 29.20427 50.35013 39.77720
#
# Velocity S-wave (km/s) = 3.82842 5.02686 4.46801
# Velocity P-wave (km/s) = 6.16911 7.60643 6.92516
#
# Compressibility (1/GPa) = 0.02710559
#
# Stress axis : x y z
#
# Youngs Moduli (GPa) = 40.68161 93.43019 86.56943
#
# Poissons Ratio (x) = 0.62383 -0.02115
# Poissons Ratio (y) = 0.27163 0.29714
# Poissons Ratio (z) = -0.00994 0.32069
#
# Static dielectric constant tensor:
#      x y z
#    x 1.574350 0.000000 0.000000 
#    y 0.000000 1.735640 0.000000 
#    z 0.000000 0.000000 1.686650 
# 
# From -- ./inp_files/9472.got.cif
#   From: 2010.05.17/outbox.cif.g08.bks.cpg/sg66_5_cif.got.tgz:9472.got - 2010.06.03 17:51:23.
