data_PCOD9495261
_publ_section_title
;
Structure prediction by ZEFSAII (Michael W. Deem and Ramdas Pophale) SiO2 
 PCOD9495261
Probable space group: C C C M
;
_chemical_formula_sum "Si O2"
_cell_formula_units_Z 112
_cell_length_a 19.002868
_cell_length_b 11.198797
_cell_length_c 26.051807
_cell_angle_alpha 90.000000
_cell_angle_beta 90.000000
_cell_angle_gamma 90.000000
_cell_volume 5544.065799
_symmetry_space_group_name_H-M "C C C M"
_symmetry_group_IT_number 66
_symmetry_cell_setting 'orthorhombic'
loop_
_space_group_symop_operation_xyz
x,y,z
-x,-y,z
x,-y,1/2-z
-x,y,1/2-z
-x,-y,-z
x,y,-z
-x,y,1/2+z
x,-y,1/2+z
1/2+x,1/2+y,z
1/2-x,1/2-y,z
1/2+x,1/2-y,1/2-z
1/2-x,1/2+y,1/2-z
1/2-x,1/2-y,-z
1/2+x,1/2+y,-z
1/2-x,1/2+y,1/2+z
1/2+x,1/2-y,1/2+z
loop_
_atom_site_type_symbol
_atom_site_label
_atom_site_fract_x
_atom_site_fract_y
_atom_site_fract_z
Si Si1 0.054905 0.609899 0.942683
Si Si2 0.325416 0.315708 0.060165
Si Si3 0.359133 0.012780 0.642085
Si Si4 0.551727 0.214316 0.633099
Si Si5 0.410187 0.385888 0.783039
Si Si6 0.331013 0.257382 0.305901
Si Si7 0.196040 0.995172 0.862273
O O1 0.123670 0.554774 0.916103
O O2 0.000000 0.500000 0.946390
O O3 0.017175 0.695525 0.901494
O O4 0.065656 0.657775 0.000000
O O5 0.250000 0.250000 0.068095
O O6 0.386253 0.254365 0.093939
O O7 0.320983 0.449977 0.082341
O O8 0.341750 0.310392 0.000000
O O9 0.361509 0.132373 0.675445
O O10 0.416107 0.910513 0.654819
O O11 0.278070 0.976539 0.646772
O O12 0.540767 0.310938 0.678215
O O13 0.432950 0.500000 0.750000
O O14 0.377694 0.300001 0.740849
O O15 0.348651 0.433347 0.820236
O O16 0.250000 0.250000 0.287627
O O17 0.323829 0.357460 0.351096
#
# Coordination Sequence:
#
# PCOD9495261 Si02
#       7
#    16  16  16  16  16  16  16
#     4   9  19  35  54  77 108 149 187 226 282 334
#     4  10  18  28  49  76 104 135 174 231 287 330
#     4  10  19  32  51  79 111 145 179 228 270 336
#     4  10  19  32  54  80 111 138 186 233 272 332
#     4   9  19  33  53  79 108 141 180 224 286 338
#     4   9  19  32  50  74 107 144 178 211 275 332
#     4   9  18  33  49  77 111 137 178 224 274 338
#
# _framework density 20.201778999999998
#
# number of rings (size 3 to 8) (size 9 to 14) (size 15 to 20)
#    0.000    2.571    1.429    0.429    2.000    1.714 
#    0.000    1.429    0.000   15.429    0.000   10.000 
#    0.000    0.000    0.000    0.000    0.000    0.000 
#
# Total GULP energy -312165.928030 kJ/mol
# GULP energy per Si atom -5574.391572 kJ/mol
# Density = 2.015580 g / cm^3
# Si number density = 20.201779 Si / 1000 Ang^3
#
#
#
# Elastic Constant Matrix: (Units=GPa)
#
#
# Indices 1 2 3 4 5 6 
#
# 1 54.3569 2.3748 26.5099 0.0000 0.0000 0.0000
# 2 2.3748 76.2419 47.3948 0.0000 0.0000 0.0000
# 3 26.5099 47.3948 110.0318 0.0000 0.0000 0.0000
# 4 0.0000 0.0000 0.0000 27.5231 0.0000 0.0000
# 5 0.0000 0.0000 0.0000 0.0000 20.5273 0.0000
# 6 0.0000 0.0000 0.0000 0.0000 0.0000 11.5651
#
#
#
# Elastic Compliance Matrix: (Units=1/GPa)
#
#
# Indices 1 2 3 4 5 6 
#
# 1 0.021503 0.003484 -0.006681 0.000000 0.000000 0.000000
# 2 0.003484 0.018477 -0.008798 0.000000 0.000000 0.000000
# 3 -0.006681 -0.008798 0.014488 0.000000 0.000000 0.000000
# 4 0.000000 0.000000 0.000000 0.036333 0.000000 0.000000
# 5 0.000000 0.000000 0.000000 0.000000 0.048716 0.000000
# 6 0.000000 0.000000 0.000000 0.000000 0.000000 0.086467
#
#
# Mechanical properties :
#
#
# Convention : Reuss Voigt Hill
#
# Bulk Modulus (GPa) = 32.81244 43.68774 38.25009
# Shear Modulus (GPa) = 19.22091 22.87983 21.05037
#
# Velocity S-wave (km/s) = 3.08790 3.36901 3.23151
# Velocity P-wave (km/s) = 5.38434 6.06682 5.73574
#
# Compressibility (1/GPa) = 0.03047625
#
# Stress axis : x y z
#
# Youngs Moduli (GPa) = 46.50475 54.12207 69.02463
#
# Poissons Ratio (x) = -0.18854 0.46117
# Poissons Ratio (y) = -0.16200 0.60727
# Poissons Ratio (z) = 0.31071 0.47616
#
# Static dielectric constant tensor:
#      x y z
#    x 1.731480 0.000000 0.000000 
#    y 0.000000 1.765310 0.000000 
#    z 0.000000 0.000000 1.695530 
# 
# From -- ./inp_files/59561.got.cif
#   From: 2010.05.17/outbox.cif.g08.bks.cpg/sg66_30_cif.got.tgz:59561.got - 2010.06.03 17:51:23.
