data_PCOD9495586
_publ_section_title
;
Structure prediction by ZEFSAII (Michael W. Deem and Ramdas Pophale) SiO2 
 PCOD9495586
Probable space group: C C C M
;
_chemical_formula_sum "Si O2"
_cell_formula_units_Z 104
_cell_length_a 23.611800
_cell_length_b 9.623913
_cell_length_c 23.385476
_cell_angle_alpha 90.000000
_cell_angle_beta 90.000000
_cell_angle_gamma 90.000000
_cell_volume 5314.066667
_symmetry_space_group_name_H-M "C C C M"
_symmetry_group_IT_number 66
_symmetry_cell_setting 'orthorhombic'
loop_
_space_group_symop_operation_xyz
x,y,z
-x,-y,z
x,-y,1/2-z
-x,y,1/2-z
-x,-y,-z
x,y,-z
-x,y,1/2+z
x,-y,1/2+z
1/2+x,1/2+y,z
1/2-x,1/2-y,z
1/2+x,1/2-y,1/2-z
1/2-x,1/2+y,1/2-z
1/2-x,1/2-y,-z
1/2+x,1/2+y,-z
1/2-x,1/2+y,1/2+z
1/2+x,1/2-y,1/2+z
loop_
_atom_site_type_symbol
_atom_site_label
_atom_site_fract_x
_atom_site_fract_y
_atom_site_fract_z
Si Si1 0.373820 0.348924 0.639764
Si Si2 0.750000 0.750000 0.177974
Si Si3 0.858120 0.594473 0.566307
Si Si4 0.753523 0.449934 0.864932
Si Si5 0.048909 0.608133 0.430581
Si Si6 0.841501 0.349569 0.232712
Si Si7 0.439294 0.428076 0.933295
O O1 0.386404 0.227173 0.595008
O O2 0.306849 0.379162 0.636725
O O3 0.379687 0.267428 0.700793
O O4 0.404471 0.485094 0.614593
O O5 0.743146 0.612797 0.141074
O O6 0.805569 0.723037 0.217057
O O7 0.866928 0.605532 0.500000
O O8 0.792355 0.584300 0.581212
O O9 0.891375 0.459063 0.587590
O O10 0.792803 0.400328 0.812105
O O11 0.045083 0.610220 0.500000
O O12 0.049713 0.769161 0.414197
O O13 0.000000 0.500000 0.411187
O O14 0.868442 0.500000 0.250000
O O15 0.500000 0.500000 0.936838
O O16 0.415718 0.429942 0.000000
#
# Coordination Sequence:
#
# PCOD9495586 Si02
#       7
#    16   8  16  16  16  16  16
#     4  11  20  33  54  84 114 146 196 239 280 343
#     4  10  18  34  53  74 115 144 176 238 282 338
#     4  10  20  34  50  74 115 156 187 227 277 341
#     4  10  21  31  52  82 113 147 192 225 280 352
#     4   9  18  34  54  74 104 152 200 235 277 334
#     4   9  17  33  53  79 113 141 186 232 284 344
#     4  10  21  36  56  84 118 155 197 242 285 336
#
# _framework density 19.570698
#
# number of rings (size 3 to 8) (size 9 to 14) (size 15 to 20)
#    0.000    2.154    1.538    2.769    2.154    4.308 
#    0.000    0.385    0.000    0.000    0.000    2.154 
#   13.846    0.000    0.000    0.000    0.000    0.000 
#
# Total GULP energy -289571.521469 kJ/mol
# GULP energy per Si atom -5568.683105 kJ/mol
# Density = 1.952615 g / cm^3
# Si number density = 19.570698 Si / 1000 Ang^3
#
#
#
# Elastic Constant Matrix: (Units=GPa)
#
#
# Indices 1 2 3 4 5 6 
#
# 1 29.1267 20.7818 6.2658 0.0000 0.0000 0.0000
# 2 20.7818 172.5748 25.6636 0.0000 0.0000 0.0000
# 3 6.2658 25.6636 29.9317 0.0000 0.0000 0.0000
# 4 0.0000 0.0000 0.0000 33.1286 0.0000 0.0000
# 5 0.0000 0.0000 0.0000 0.0000 10.3130 0.0000
# 6 0.0000 0.0000 0.0000 0.0000 0.0000 30.5896
#
#
#
# Elastic Compliance Matrix: (Units=1/GPa)
#
#
# Indices 1 2 3 4 5 6 
#
# 1 0.038113 -0.003900 -0.004634 0.000000 0.000000 0.000000
# 2 -0.003900 0.007041 -0.005220 0.000000 0.000000 0.000000
# 3 -0.004634 -0.005220 0.038855 0.000000 0.000000 0.000000
# 4 0.000000 0.000000 0.000000 0.030185 0.000000 0.000000
# 5 0.000000 0.000000 0.000000 0.000000 0.096965 0.000000
# 6 0.000000 0.000000 0.000000 0.000000 0.000000 0.032691
#
#
# Mechanical properties :
#
#
# Convention : Reuss Voigt Hill
#
# Bulk Modulus (GPa) = 17.69938 37.45059 27.57499
# Shear Modulus (GPa) = 17.22995 26.73436 21.98215
#
# Velocity S-wave (km/s) = 2.97036 3.70001 3.35508
# Velocity P-wave (km/s) = 4.56372 6.11809 5.39715
#
# Compressibility (1/GPa) = 0.05649915
#
# Stress axis : x y z
#
# Youngs Moduli (GPa) = 26.23806 142.03393 25.73656
#
# Poissons Ratio (x) = 0.55400 0.11926
# Poissons Ratio (y) = 0.10234 0.13435
# Poissons Ratio (z) = 0.12159 0.74143
#
# Static dielectric constant tensor:
#      x y z
#    x 1.693310 0.000000 0.000000 
#    y 0.000000 1.750660 0.000000 
#    z 0.000000 0.000000 1.729350 
# 
# From -- ./inp_files/65731.got.cif
#   From: 2010.05.17/outbox.cif.g08.bks.cpg/sg66_33_cif.got.tgz:65731.got - 2010.06.03 17:51:23.
