data_PCOD9495756
_publ_section_title
;
Structure prediction by ZEFSAII (Michael W. Deem and Ramdas Pophale) SiO2 
 PCOD9495756
Probable space group: C C C M
;
_chemical_formula_sum "Si O2"
_cell_formula_units_Z 64
_cell_length_a 32.957172
_cell_length_b 7.146005
_cell_length_c 11.142233
_cell_angle_alpha 90.000000
_cell_angle_beta 90.000000
_cell_angle_gamma 90.000000
_cell_volume 2624.130870
_symmetry_space_group_name_H-M "C C C M"
_symmetry_group_IT_number 66
_symmetry_cell_setting 'orthorhombic'
loop_
_space_group_symop_operation_xyz
x,y,z
-x,-y,z
x,-y,1/2-z
-x,y,1/2-z
-x,-y,-z
x,y,-z
-x,y,1/2+z
x,-y,1/2+z
1/2+x,1/2+y,z
1/2-x,1/2-y,z
1/2+x,1/2-y,1/2-z
1/2-x,1/2+y,1/2-z
1/2-x,1/2-y,-z
1/2+x,1/2+y,-z
1/2-x,1/2+y,1/2+z
1/2+x,1/2-y,1/2+z
loop_
_atom_site_type_symbol
_atom_site_label
_atom_site_fract_x
_atom_site_fract_y
_atom_site_fract_z
Si Si1 0.831179 0.206202 0.500000
Si Si2 0.841688 0.773968 0.259050
Si Si3 0.538941 0.136202 0.000000
Si Si4 0.702903 0.707203 0.500000
Si Si5 0.562519 0.215851 0.757658
Si Si6 0.926056 0.241814 0.500000
O O1 0.825090 0.298385 0.369383
O O2 0.880037 0.165901 0.500000
O O3 0.805631 0.015923 0.500000
O O4 0.817839 0.720509 0.378178
O O5 0.888912 0.723657 0.271184
O O6 0.840001 0.000000 0.250000
O O7 0.542826 0.265664 0.883618
O O8 0.500000 0.000000 0.000000
O O9 0.574452 0.973216 0.000000
O O10 0.750000 0.750000 0.500000
O O11 0.554451 0.306673 0.628347
O O12 0.549368 0.000000 0.750000
#
# Coordination Sequence:
#
# PCOD9495756 Si02
#       6
#     8  16   8   8  16   8
#     4   8  16  33  53  71  96 134 176 210 253 318
#     4   9  17  32  54  76  99 133 175 216 258 313
#     4  10  19  29  46  79 114 139 167 216 271 312
#     4  10  19  31  50  77 103 128 165 216 269 320
#     4   9  17  30  48  73 100 133 175 214 254 306
#     4   8  16  29  48  71  96 133 176 212 253 308
#
# _framework density 24.389026999999999
#
# number of rings (size 3 to 8) (size 9 to 14) (size 15 to 20)
#    0.000    3.000    0.000    0.750    0.000    4.500 
#    0.000    4.375    0.000    0.000    0.000   82.250 
#    0.000    0.000    0.000    0.000    0.000    0.000 
#
# Total GULP energy -178562.946336 kJ/mol
# GULP energy per Si atom -5580.092073 kJ/mol
# Density = 2.433352 g / cm^3
# Si number density = 24.389027 Si / 1000 Ang^3
#
#
#
# Elastic Constant Matrix: (Units=GPa)
#
#
# Indices 1 2 3 4 5 6 
#
# 1 121.5428 30.9798 84.5518 0.0000 0.0000 0.0000
# 2 30.9798 106.0521 16.1177 0.0000 0.0000 0.0000
# 3 84.5518 16.1177 350.8336 0.0000 0.0000 0.0000
# 4 0.0000 0.0000 0.0000 -10.8712 0.0000 0.0000
# 5 0.0000 0.0000 0.0000 0.0000 -21.4897 0.0000
# 6 0.0000 0.0000 0.0000 0.0000 0.0000 30.6331
#
#
#
# Elastic Compliance Matrix: (Units=1/GPa)
#
#
# Indices 1 2 3 4 5 6 
#
# 1 0.010616 -0.002731 -0.002433 0.000000 0.000000 0.000000
# 2 -0.002731 0.010198 0.000190 0.000000 0.000000 0.000000
# 3 -0.002433 0.000190 0.003428 0.000000 0.000000 0.000000
# 4 0.000000 0.000000 0.000000 -0.091986 0.000000 0.000000
# 5 0.000000 0.000000 0.000000 0.000000 -0.046534 0.000000
# 6 0.000000 0.000000 0.000000 0.000000 0.000000 0.032644
#
#
# Mechanical properties :
#
#
# Convention : Reuss Voigt Hill
#
# Bulk Modulus (GPa) = 69.96329 93.52524 81.74426
# Shear Modulus (GPa) = -74.71694 29.43972 -22.63861
#
# Velocity S-wave (km/s) = -5.54094 3.47809 -3.04999
# Velocity P-wave (km/s) = 3.49103 7.38647 4.60286
#
# Compressibility (1/GPa) = 0.01429321
#
# Stress axis : x y z
#
# Youngs Moduli (GPa) = 94.19431 98.05458 291.71396
#
# Poissons Ratio (x) = 0.26783 0.70976
# Poissons Ratio (y) = 0.25729 -0.05536
# Poissons Ratio (z) = 0.22918 -0.01861
#
# Static dielectric constant tensor:
#      x y z
#    x 1.864310 0.000000 0.000000 
#    y 0.000000 1.757540 0.000000 
#    z 0.000000 0.000000 2.100950 
# 
# From -- ./inp_files/21146.got.cif
#   From: 2010.05.17/outbox.cif.g08.bks.cpg/sg66_11_cif.got.tgz:21146.got - 2010.06.03 17:51:23.
