data_PCOD9495981
_publ_section_title
;
Structure prediction by ZEFSAII (Michael W. Deem and Ramdas Pophale) SiO2 
 PCOD9495981
Probable space group: C C C M
;
_chemical_formula_sum "Si O2"
_cell_formula_units_Z 112
_cell_length_a 13.686980
_cell_length_b 16.046436
_cell_length_c 25.093331
_cell_angle_alpha 90.000000
_cell_angle_beta 90.000000
_cell_angle_gamma 90.000000
_cell_volume 5511.179246
_symmetry_space_group_name_H-M "C C C M"
_symmetry_group_IT_number 66
_symmetry_cell_setting 'orthorhombic'
loop_
_space_group_symop_operation_xyz
x,y,z
-x,-y,z
x,-y,1/2-z
-x,y,1/2-z
-x,-y,-z
x,y,-z
-x,y,1/2+z
x,-y,1/2+z
1/2+x,1/2+y,z
1/2-x,1/2-y,z
1/2+x,1/2-y,1/2-z
1/2-x,1/2+y,1/2-z
1/2-x,1/2-y,-z
1/2+x,1/2+y,-z
1/2-x,1/2+y,1/2+z
1/2+x,1/2-y,1/2+z
loop_
_atom_site_type_symbol
_atom_site_label
_atom_site_fract_x
_atom_site_fract_y
_atom_site_fract_z
Si Si1 0.580573 0.124469 0.333114
Si Si2 0.862093 0.216865 0.940229
Si Si3 0.106500 0.786195 0.735604
Si Si4 0.893776 0.543758 0.059318
Si Si5 0.876463 0.675290 0.661539
Si Si6 0.722610 0.561425 0.391260
Si Si7 0.776620 0.056492 0.299548
O O1 0.592991 0.215994 0.309215
O O2 0.607514 0.112349 0.394726
O O3 0.464783 0.111212 0.326628
O O4 0.659400 0.066403 0.304230
O O5 0.750000 0.250000 0.943184
O O6 0.904575 0.271885 0.891725
O O7 0.852467 0.119978 0.922926
O O8 0.903862 0.227079 0.000000
O O9 0.136791 0.736860 0.789025
O O10 0.179322 0.853933 0.713163
O O11 0.000000 0.823427 0.750000
O O12 0.808093 0.476948 0.071610
O O13 0.000000 0.500000 0.062675
O O14 0.881609 0.576861 0.000000
O O15 0.779273 0.624414 0.648643
O O16 0.685619 0.486744 0.353852
O O17 0.803044 0.000000 0.250000
#
# Coordination Sequence:
#
# PCOD9495981 Si02
#       7
#    16  16  16  16  16  16  16
#     4  10  21  36  55  82 114 148 183 231 293 348
#     4   9  18  31  52  81 113 148 187 232 285 346
#     4  10  22  39  58  79 111 150 194 237 280 341
#     4  10  19  32  53  82 118 149 184 234 293 361
#     4  10  19  35  54  81 112 148 183 233 295 351
#     4  10  19  32  53  79 116 146 191 238 297 344
#     4  11  22  35  56  82 109 151 190 237 288 348
#
# _framework density 20.322330000000001
#
# number of rings (size 3 to 8) (size 9 to 14) (size 15 to 20)
#    0.000    2.000    1.429    2.571    0.000    3.714 
#    0.000    0.714    0.000    7.714    0.000    4.000 
#    0.000    0.000    0.000    0.000    0.000    0.000 
#
# Total GULP energy -312575.367197 kJ/mol
# GULP energy per Si atom -5581.702986 kJ/mol
# Density = 2.027608 g / cm^3
# Si number density = 20.322330 Si / 1000 Ang^3
#
#
#
# Elastic Constant Matrix: (Units=GPa)
#
#
# Indices 1 2 3 4 5 6 
#
# 1 31.0197 3.3396 12.5045 0.0000 0.0000 0.0000
# 2 3.3396 52.8392 38.5879 0.0000 0.0000 0.0000
# 3 12.5045 38.5879 124.1862 0.0000 0.0000 0.0000
# 4 0.0000 0.0000 0.0000 26.5685 0.0000 0.0000
# 5 0.0000 0.0000 0.0000 0.0000 16.1402 0.0000
# 6 0.0000 0.0000 0.0000 0.0000 0.0000 18.7326
#
#
#
# Elastic Compliance Matrix: (Units=1/GPa)
#
#
# Indices 1 2 3 4 5 6 
#
# 1 0.033610 0.000449 -0.003524 0.000000 0.000000 0.000000
# 2 0.000449 0.024486 -0.007654 0.000000 0.000000 0.000000
# 3 -0.003524 -0.007654 0.010785 0.000000 0.000000 0.000000
# 4 0.000000 0.000000 0.000000 0.037639 0.000000 0.000000
# 5 0.000000 0.000000 0.000000 0.000000 0.061957 0.000000
# 6 0.000000 0.000000 0.000000 0.000000 0.000000 0.053383
#
#
# Mechanical properties :
#
#
# Convention : Reuss Voigt Hill
#
# Bulk Modulus (GPa) = 21.08604 35.21212 28.14908
# Shear Modulus (GPa) = 19.29568 22.52913 20.91241
#
# Velocity S-wave (km/s) = 3.08471 3.33316 3.21134
# Velocity P-wave (km/s) = 4.80474 5.67254 5.25658
#
# Compressibility (1/GPa) = 0.04742474
#
# Stress axis : x y z
#
# Youngs Moduli (GPa) = 29.75328 40.83891 92.71723
#
# Poissons Ratio (x) = -0.01834 0.32671
# Poissons Ratio (y) = -0.01336 0.70964
# Poissons Ratio (z) = 0.10484 0.31257
#
# Static dielectric constant tensor:
#      x y z
#    x 1.768190 0.000000 0.000000 
#    y 0.000000 1.732320 0.000000 
#    z 0.000000 0.000000 1.756610 
# 
# From -- ./inp_files/64664.got.cif
#   From: 2010.05.17/outbox.cif.g08.bks.cpg/sg66_33_cif.got.tgz:64664.got - 2010.06.03 17:51:23.
