data_PCOD9495647
_publ_section_title
;
Structure prediction by ZEFSAII (Michael W. Deem and Ramdas Pophale) SiO2 
 PCOD9495647
Probable space group: C C C M
;
_chemical_formula_sum "Si O2"
_cell_formula_units_Z 104
_cell_length_a 9.911197
_cell_length_b 17.277205
_cell_length_c 27.500877
_cell_angle_alpha 90.000000
_cell_angle_beta 90.000000
_cell_angle_gamma 90.000000
_cell_volume 4709.189191
_symmetry_space_group_name_H-M "C C C M"
_symmetry_group_IT_number 66
_symmetry_cell_setting 'orthorhombic'
loop_
_space_group_symop_operation_xyz
x,y,z
-x,-y,z
x,-y,1/2-z
-x,y,1/2-z
-x,-y,-z
x,y,-z
-x,y,1/2+z
x,-y,1/2+z
1/2+x,1/2+y,z
1/2-x,1/2-y,z
1/2+x,1/2-y,1/2-z
1/2-x,1/2+y,1/2-z
1/2-x,1/2-y,-z
1/2+x,1/2+y,-z
1/2-x,1/2+y,1/2+z
1/2+x,1/2-y,1/2+z
loop_
_atom_site_type_symbol
_atom_site_label
_atom_site_fract_x
_atom_site_fract_y
_atom_site_fract_z
Si Si1 0.259326 0.086587 0.394367
Si Si2 0.545404 0.167185 0.500000
Si Si3 0.952491 0.848998 0.000000
Si Si4 0.742604 0.095950 0.000000
Si Si5 0.587029 0.421014 0.292077
Si Si6 0.039186 0.153673 0.106466
Si Si7 0.457339 0.163071 0.105830
Si Si8 0.857644 0.539194 0.818070
O O1 0.265788 0.051447 0.449013
O O2 0.383070 0.146102 0.391426
O O3 0.118728 0.131047 0.390572
O O4 0.283748 0.023178 0.353175
O O5 0.578007 0.257877 0.500000
O O6 0.383396 0.154683 0.500000
O O7 0.590563 0.135300 0.447884
O O8 0.910643 0.877804 0.946266
O O9 0.114620 0.860441 0.000000
O O10 0.500000 0.500000 0.298717
O O11 0.500000 0.378892 0.250000
O O12 0.595127 0.381453 0.344244
O O13 0.744209 0.434759 0.279461
O O14 0.064293 0.245406 0.108125
O O15 0.394958 0.112719 0.148541
O O16 0.000000 0.500000 0.803138
#
# Coordination Sequence:
#
# PCOD9495647 Si02
#       8
#    16   8   8   8  16  16  16  16
#     4   9  16  30  53  87 125 172 210 257 306 370
#     4   8  13  25  43  82 125 175 209 238 304 380
#     4   8  15  26  49  88 123 163 210 258 310 357
#     4   8  13  21  43  79 123 164 217 253 294 356
#     4  11  24  44  69  88 116 164 209 253 314 380
#     4  10  18  35  61  89 127 168 215 262 307 378
#     4   9  18  30  57  88 131 169 208 259 311 364
#     4  10  21  39  63  92 125 158 205 260 318 372
#
# _framework density 22.084481
#
# number of rings (size 3 to 8) (size 9 to 14) (size 15 to 20)
#    0.000    2.615    1.538    0.692    0.000    4.923 
#    0.000    6.538    6.769    2.769    0.000    0.000 
#    0.000    0.000    0.000    0.000    0.000    0.000 
#
# Total GULP energy -289879.731100 kJ/mol
# GULP energy per Si atom -5574.610213 kJ/mol
# Density = 2.203422 g / cm^3
# Si number density = 22.084481 Si / 1000 Ang^3
#
#
#
# Elastic Constant Matrix: (Units=GPa)
#
#
# Indices 1 2 3 4 5 6 
#
# 1 144.8348 12.0562 40.3499 0.0000 0.0000 0.0000
# 2 12.0562 58.3336 25.9452 0.0000 0.0000 0.0000
# 3 40.3499 25.9452 117.4133 0.0000 0.0000 0.0000
# 4 0.0000 0.0000 0.0000 13.8924 0.0000 0.0000
# 5 0.0000 0.0000 0.0000 0.0000 -9.2245 0.0000
# 6 0.0000 0.0000 0.0000 0.0000 0.0000 2.2654
#
#
#
# Elastic Compliance Matrix: (Units=1/GPa)
#
#
# Indices 1 2 3 4 5 6 
#
# 1 0.007646 -0.000456 -0.002527 0.000000 0.000000 0.000000
# 2 -0.000456 0.019039 -0.004050 0.000000 0.000000 0.000000
# 3 -0.002527 -0.004050 0.010280 0.000000 0.000000 0.000000
# 4 0.000000 0.000000 0.000000 0.071982 0.000000 0.000000
# 5 0.000000 0.000000 0.000000 0.000000 -0.108407 0.000000
# 6 0.000000 0.000000 0.000000 0.000000 0.000000 0.441429
#
#
# Mechanical properties :
#
#
# Convention : Reuss Voigt Hill
#
# Bulk Modulus (GPa) = 43.67146 53.03159 48.35152
# Shear Modulus (GPa) = 10.78355 17.53535 14.15945
#
# Velocity S-wave (km/s) = 2.21212 2.82088 2.53484
# Velocity P-wave (km/s) = 5.13247 5.88855 5.52346
#
# Compressibility (1/GPa) = 0.02289825
#
# Stress axis : x y z
#
# Youngs Moduli (GPa) = 130.78088 52.52513 97.27372
#
# Poissons Ratio (x) = 0.02397 0.24580
# Poissons Ratio (y) = 0.05969 0.39397
# Poissons Ratio (z) = 0.33047 0.21273
#
# Static dielectric constant tensor:
#      x y z
#    x 1.857650 0.000000 0.000000 
#    y 0.000000 1.768960 0.000000 
#    z 0.000000 0.000000 2.006540 
# 
# From -- ./inp_files/68286.got.cif
#   From: 2010.05.17/outbox.cif.g08.bks.cpg/sg66_35_cif.got.tgz:68286.got - 2010.06.03 17:51:23.
