data_PCOD9495645
_publ_section_title
;
Structure prediction by ZEFSAII (Michael W. Deem and Ramdas Pophale) SiO2 
 PCOD9495645
Probable space group: C C C M
;
_chemical_formula_sum "Si O2"
_cell_formula_units_Z 80
_cell_length_a 8.135541
_cell_length_b 17.585626
_cell_length_c 27.305332
_cell_angle_alpha 90.000000
_cell_angle_beta 90.000000
_cell_angle_gamma 90.000000
_cell_volume 3906.535112
_symmetry_space_group_name_H-M "C C C M"
_symmetry_group_IT_number 66
_symmetry_cell_setting 'orthorhombic'
loop_
_space_group_symop_operation_xyz
x,y,z
-x,-y,z
x,-y,1/2-z
-x,y,1/2-z
-x,-y,-z
x,y,-z
-x,y,1/2+z
x,-y,1/2+z
1/2+x,1/2+y,z
1/2-x,1/2-y,z
1/2+x,1/2-y,1/2-z
1/2-x,1/2+y,1/2-z
1/2-x,1/2-y,-z
1/2+x,1/2+y,-z
1/2-x,1/2+y,1/2+z
1/2+x,1/2-y,1/2+z
loop_
_atom_site_type_symbol
_atom_site_label
_atom_site_fract_x
_atom_site_fract_y
_atom_site_fract_z
Si Si1 0.355962 0.324626 0.711671
Si Si2 0.658159 0.448162 0.056641
Si Si3 0.424471 0.274137 0.554280
Si Si4 0.885853 0.571766 0.653495
Si Si5 0.074243 0.271907 0.143005
O O1 0.500000 0.344047 0.750000
O O2 0.250000 0.250000 0.728748
O O3 0.246903 0.395827 0.693176
O O4 0.448475 0.289320 0.664903
O O5 0.500000 0.500000 0.068350
O O6 0.583121 0.363984 0.053542
O O7 0.791954 0.446151 0.101292
O O8 0.717221 0.466218 0.000000
O O9 0.428356 0.241761 0.500000
O O10 0.250000 0.250000 0.576793
O O11 0.569167 0.240978 0.585416
O O12 0.000000 0.500000 0.666937
O O13 0.009370 0.643684 0.650937
O O14 0.250000 0.250000 0.163092
#
# Coordination Sequence:
#
# PCOD9495645 Si02
#       5
#    16  16  16  16  16
#     4  10  21  43  72  97 122 161 209 263 327 389
#     4  10  21  38  62  91 133 182 221 261 320 382
#     4  10  18  35  60  88 126 171 220 268 307 366
#     4  11  24  40  65 100 136 168 212 267 320 384
#     4  11  22  38  64  96 124 167 214 256 320 383
#
# _framework density 20.478507
#
# number of rings (size 3 to 8) (size 9 to 14) (size 15 to 20)
#    0.000    1.600    4.000    1.200    2.800    0.800 
#    0.000    0.000    0.000   47.400    0.000    0.000 
#    0.000    0.000    0.000    0.000    0.000    0.000 
#
# Total GULP energy -222792.772398 kJ/mol
# GULP energy per Si atom -5569.819310 kJ/mol
# Density = 2.043190 g / cm^3
# Si number density = 20.478507 Si / 1000 Ang^3
#
#
#
# Elastic Constant Matrix: (Units=GPa)
#
#
# Indices 1 2 3 4 5 6 
#
# 1 131.1937 65.7584 63.2342 0.0000 0.0000 0.0000
# 2 65.7584 112.9791 32.8545 0.0000 0.0000 0.0000
# 3 63.2342 32.8545 109.4035 0.0000 0.0000 0.0000
# 4 0.0000 0.0000 0.0000 82.5030 0.0000 0.0000
# 5 0.0000 0.0000 0.0000 0.0000 27.5253 0.0000
# 6 0.0000 0.0000 0.0000 0.0000 0.0000 46.1013
#
#
#
# Elastic Compliance Matrix: (Units=1/GPa)
#
#
# Indices 1 2 3 4 5 6 
#
# 1 0.013618 -0.006177 -0.006016 0.000000 0.000000 0.000000
# 2 -0.006177 0.012500 -0.000184 0.000000 0.000000 0.000000
# 3 -0.006016 -0.000184 0.012673 0.000000 0.000000 0.000000
# 4 0.000000 0.000000 0.000000 0.012121 0.000000 0.000000
# 5 0.000000 0.000000 0.000000 0.000000 0.036330 0.000000
# 6 0.000000 0.000000 0.000000 0.000000 0.000000 0.021691
#
#
# Mechanical properties :
#
#
# Convention : Reuss Voigt Hill
#
# Bulk Modulus (GPa) = 71.23754 75.25228 73.24491
# Shear Modulus (GPa) = 36.13622 44.00787 40.07204
#
# Velocity S-wave (km/s) = 4.20526 4.64074 4.42836
# Velocity P-wave (km/s) = 7.64467 8.09580 7.87347
#
# Compressibility (1/GPa) = 0.01403754
#
# Stress axis : x y z
#
# Youngs Moduli (GPa) = 73.43195 80.00191 78.90839
#
# Poissons Ratio (x) = 0.49415 0.47473
# Poissons Ratio (y) = 0.45357 0.01449
# Poissons Ratio (z) = 0.44178 0.01469
#
# Static dielectric constant tensor:
#      x y z
#    x 1.798990 0.000000 0.000000 
#    y 0.000000 1.640090 0.000000 
#    z 0.000000 0.000000 1.807640 
# 
# From -- ./inp_files/62362.got.cif
#   From: 2010.05.17/outbox.cif.g08.bks.cpg/sg66_32_cif.got.tgz:62362.got - 2010.06.03 17:51:23.
