data_PCOD9495129
_publ_section_title
;
Structure prediction by ZEFSAII (Michael W. Deem and Ramdas Pophale) SiO2 
 PCOD9495129
Probable space group: C C C M
;
_chemical_formula_sum "Si O2"
_cell_formula_units_Z 88
_cell_length_a 24.872596
_cell_length_b 13.785196
_cell_length_c 14.153850
_cell_angle_alpha 90.000000
_cell_angle_beta 90.000000
_cell_angle_gamma 90.000000
_cell_volume 4852.981657
_symmetry_space_group_name_H-M "C C C M"
_symmetry_group_IT_number 66
_symmetry_cell_setting 'orthorhombic'
loop_
_space_group_symop_operation_xyz
x,y,z
-x,-y,z
x,-y,1/2-z
-x,y,1/2-z
-x,-y,-z
x,y,-z
-x,y,1/2+z
x,-y,1/2+z
1/2+x,1/2+y,z
1/2-x,1/2-y,z
1/2+x,1/2-y,1/2-z
1/2-x,1/2+y,1/2-z
1/2-x,1/2-y,-z
1/2+x,1/2+y,-z
1/2-x,1/2+y,1/2+z
1/2+x,1/2-y,1/2+z
loop_
_atom_site_type_symbol
_atom_site_label
_atom_site_fract_x
_atom_site_fract_y
_atom_site_fract_z
Si Si1 0.436932 0.841117 0.240235
Si Si2 0.250000 0.750000 0.255590
Si Si3 0.640016 0.337909 0.784588
Si Si4 0.342844 0.525862 0.391292
Si Si5 0.722029 0.072585 0.609630
Si Si6 0.604497 0.986960 0.111457
O O1 0.500000 0.823660 0.250000
O O2 0.404063 0.745328 0.214963
O O3 0.415610 0.889439 0.337336
O O4 0.424472 0.923395 0.161924
O O5 0.300935 0.708385 0.199803
O O6 0.273402 0.835320 0.322200
O O7 0.641431 0.389422 0.681406
O O8 0.631442 0.425242 0.857804
O O9 0.354265 0.549007 0.500000
O O10 0.278051 0.515849 0.380080
O O11 0.718387 0.105164 0.500000
O O12 0.668882 0.010316 0.629032
O O13 0.594868 0.986043 0.000000
#
# Coordination Sequence:
#
# PCOD9495129 Si02
#       6
#    16   8  16  16  16  16
#     4  11  24  39  56  80 111 147 190 233 272 321
#     4  10  17  30  53  82 112 144 182 218 268 328
#     4  10  21  35  58  82 109 147 183 228 275 327
#     4   9  20  37  56  83 116 144 175 225 282 335
#     4   9  17  30  53  83 114 143 178 220 270 329
#     4  10  21  37  57  82 113 149 184 223 270 326
#
# _framework density 18.133182000000001
#
# number of rings (size 3 to 8) (size 9 to 14) (size 15 to 20)
#    0.000    2.182    1.818    1.364    2.545    5.091 
#    0.000    2.273    0.000    1.091    0.000    0.000 
#    0.000    0.000    0.000    0.000    0.000    0.000 
#
# Total GULP energy -245590.598945 kJ/mol
# GULP energy per Si atom -5581.604521 kJ/mol
# Density = 1.809191 g / cm^3
# Si number density = 18.133182 Si / 1000 Ang^3
#
#
#
# Elastic Constant Matrix: (Units=GPa)
#
#
# Indices 1 2 3 4 5 6 
#
# 1 60.8170 13.3796 -7.3122 0.0000 0.0000 0.0000
# 2 13.3796 59.5793 -8.5247 0.0000 0.0000 0.0000
# 3 -7.3122 -8.5247 56.4054 0.0000 0.0000 0.0000
# 4 0.0000 0.0000 0.0000 8.1243 0.0000 0.0000
# 5 0.0000 0.0000 0.0000 0.0000 9.6136 0.0000
# 6 0.0000 0.0000 0.0000 0.0000 0.0000 22.8064
#
#
#
# Elastic Compliance Matrix: (Units=1/GPa)
#
#
# Indices 1 2 3 4 5 6 
#
# 1 0.017457 -0.003676 0.001707 0.000000 0.000000 0.000000
# 2 -0.003676 0.017929 0.002233 0.000000 0.000000 0.000000
# 3 0.001707 0.002233 0.018288 0.000000 0.000000 0.000000
# 4 0.000000 0.000000 0.000000 0.123088 0.000000 0.000000
# 5 0.000000 0.000000 0.000000 0.000000 0.104020 0.000000
# 6 0.000000 0.000000 0.000000 0.000000 0.000000 0.043847
#
#
# Mechanical properties :
#
#
# Convention : Reuss Voigt Hill
#
# Bulk Modulus (GPa) = 18.44906 19.09855 18.77381
# Shear Modulus (GPa) = 14.61274 20.05945 17.33609
#
# Velocity S-wave (km/s) = 2.84184 3.32961 3.09535
# Velocity P-wave (km/s) = 4.57869 5.03359 4.81151
#
# Compressibility (1/GPa) = 0.05420331
#
# Stress axis : x y z
#
# Youngs Moduli (GPa) = 57.28438 55.77438 54.68166
#
# Poissons Ratio (x) = 0.20502 -0.09337
# Poissons Ratio (y) = 0.21057 -0.12211
# Poissons Ratio (z) = -0.09781 -0.12455
#
# Static dielectric constant tensor:
#      x y z
#    x 1.621800 0.000000 0.000000 
#    y 0.000000 1.604810 0.000000 
#    z 0.000000 0.000000 1.627550 
# 
# From -- ./inp_files/26507.got.cif
#   From: 2010.05.17/outbox.cif.g08.bks.cpg/sg66_14_cif.got.tgz:26507.got - 2010.06.03 17:51:23.
