data_PCOD9495355
_publ_section_title
;
Structure prediction by ZEFSAII (Michael W. Deem and Ramdas Pophale) SiO2 
 PCOD9495355
Probable space group: C C C M
;
_chemical_formula_sum "Si O2"
_cell_formula_units_Z 72
_cell_length_a 13.605336
_cell_length_b 17.064350
_cell_length_c 14.689755
_cell_angle_alpha 90.000000
_cell_angle_beta 90.000000
_cell_angle_gamma 90.000000
_cell_volume 3410.464823
_symmetry_space_group_name_H-M "C C C M"
_symmetry_group_IT_number 66
_symmetry_cell_setting 'orthorhombic'
loop_
_space_group_symop_operation_xyz
x,y,z
-x,-y,z
x,-y,1/2-z
-x,y,1/2-z
-x,-y,-z
x,y,-z
-x,y,1/2+z
x,-y,1/2+z
1/2+x,1/2+y,z
1/2-x,1/2-y,z
1/2+x,1/2-y,1/2-z
1/2-x,1/2+y,1/2-z
1/2-x,1/2-y,-z
1/2+x,1/2+y,-z
1/2-x,1/2+y,1/2+z
1/2+x,1/2-y,1/2+z
loop_
_atom_site_type_symbol
_atom_site_label
_atom_site_fract_x
_atom_site_fract_y
_atom_site_fract_z
Si Si1 0.800387 0.499122 0.500000
Si Si2 0.157142 0.311863 0.500000
Si Si3 0.407525 0.382478 0.199027
Si Si4 0.636852 0.775554 0.300325
Si Si5 0.321266 0.927636 0.691816
Si Si6 0.418855 0.433277 0.000000
O O1 0.815004 0.594173 0.500000
O O2 0.839615 0.453750 0.588651
O O3 0.684148 0.479893 0.500000
O O4 0.250000 0.250000 0.500000
O O5 0.103015 0.294973 0.403470
O O6 0.500000 0.421255 0.250000
O O7 0.402611 0.298756 0.247020
O O8 0.297651 0.418445 0.207177
O O9 0.427235 0.382782 0.091407
O O10 0.750000 0.750000 0.312145
O O11 0.632165 0.849502 0.233057
O O12 0.357084 0.000000 0.750000
O O13 0.500000 0.500000 0.000000
#
# Coordination Sequence:
#
# PCOD9495355 Si02
#       6
#     8   8  16  16  16   8
#     4  10  20  33  52  84 108 142 185 234 278 333
#     4  10  18  30  51  78 107 137 181 233 276 325
#     4  10  23  36  53  80 115 150 180 224 281 343
#     4   9  19  34  52  78 108 146 184 232 276 329
#     4  10  19  33  55  80 110 141 187 234 280 325
#     4  10  24  35  53  82 117 154 182 219 279 351
#
# _framework density 21.111491999999998
#
# number of rings (size 3 to 8) (size 9 to 14) (size 15 to 20)
#    0.000    2.222    2.222    0.000    6.222    1.778 
#    0.000    4.444    0.000    0.667    0.000    1.556 
#    0.000    0.000    0.000    0.000    0.000    0.000 
#
# Total GULP energy -200580.342940 kJ/mol
# GULP energy per Si atom -5571.676193 kJ/mol
# Density = 2.106344 g / cm^3
# Si number density = 21.111492 Si / 1000 Ang^3
#
#
#
# Elastic Constant Matrix: (Units=GPa)
#
#
# Indices 1 2 3 4 5 6 
#
# 1 14.5833 10.1655 24.2124 0.0000 0.0000 0.0000
# 2 10.1655 178.2013 110.6757 0.0000 0.0000 0.0000
# 3 24.2124 110.6757 225.7753 0.0000 0.0000 0.0000
# 4 0.0000 0.0000 0.0000 32.7856 0.0000 0.0000
# 5 0.0000 0.0000 0.0000 0.0000 8.2868 0.0000
# 6 0.0000 0.0000 0.0000 0.0000 0.0000 -3.1944
#
#
#
# Elastic Compliance Matrix: (Units=1/GPa)
#
#
# Indices 1 2 3 4 5 6 
#
# 1 0.083589 0.001149 -0.009527 0.000000 0.000000 0.000000
# 2 0.001149 0.008084 -0.004086 0.000000 0.000000 0.000000
# 3 -0.009527 -0.004086 0.007454 0.000000 0.000000 0.000000
# 4 0.000000 0.000000 0.000000 0.030501 0.000000 0.000000
# 5 0.000000 0.000000 0.000000 0.000000 0.120674 0.000000
# 6 0.000000 0.000000 0.000000 0.000000 0.000000 -0.313044
#
#
# Mechanical properties :
#
#
# Convention : Reuss Voigt Hill
#
# Bulk Modulus (GPa) = 13.47751 78.74078 46.10914
# Shear Modulus (GPa) = -382.23186 25.80934 -178.21126
#
# Velocity S-wave (km/s) = -13.47023 3.50026 -9.19770
# Velocity P-wave (km/s) = 15.34704 7.32900 9.53460
#
# Compressibility (1/GPa) = 0.07419771
#
# Stress axis : x y z
#
# Youngs Moduli (GPa) = 11.96331 123.70569 134.15993
#
# Poissons Ratio (x) = -0.14211 1.27818
# Poissons Ratio (y) = -0.01374 0.54816
# Poissons Ratio (z) = 0.11398 0.50544
#
# Static dielectric constant tensor:
#      x y z
#    x 1.950780 0.000000 0.000000 
#    y 0.000000 1.585950 0.000000 
#    z 0.000000 0.000000 1.820750 
# 
# From -- ./inp_files/17506.got.cif
#   From: 2010.05.17/outbox.cif.g08.bks.cpg/sg66_9_cif.got.tgz:17506.got - 2010.06.03 17:51:23.
