data_PCOD9495871
_publ_section_title
;
Structure prediction by ZEFSAII (Michael W. Deem and Ramdas Pophale) SiO2 
 PCOD9495871
Probable space group: C C C M
;
_chemical_formula_sum "Si O2"
_cell_formula_units_Z 96
_cell_length_a 25.346645
_cell_length_b 15.669373
_cell_length_c 13.172008
_cell_angle_alpha 90.000000
_cell_angle_beta 90.000000
_cell_angle_gamma 90.000000
_cell_volume 5231.474188
_symmetry_space_group_name_H-M "C C C M"
_symmetry_group_IT_number 66
_symmetry_cell_setting 'orthorhombic'
loop_
_space_group_symop_operation_xyz
x,y,z
-x,-y,z
x,-y,1/2-z
-x,y,1/2-z
-x,-y,-z
x,y,-z
-x,y,1/2+z
x,-y,1/2+z
1/2+x,1/2+y,z
1/2-x,1/2-y,z
1/2+x,1/2-y,1/2-z
1/2-x,1/2+y,1/2-z
1/2-x,1/2-y,-z
1/2+x,1/2+y,-z
1/2-x,1/2+y,1/2+z
1/2+x,1/2-y,1/2+z
loop_
_atom_site_type_symbol
_atom_site_label
_atom_site_fract_x
_atom_site_fract_y
_atom_site_fract_z
Si Si1 0.471633 0.090953 0.114102
Si Si2 0.366344 0.096913 0.242702
Si Si3 0.686930 0.752696 0.879674
Si Si4 0.437733 0.496413 0.882868
Si Si5 0.393772 0.358091 0.240794
Si Si6 0.073746 0.293805 0.616995
O O1 0.423854 0.095621 0.190417
O O2 0.516867 0.161498 0.125143
O O3 0.500000 0.000000 0.124262
O O4 0.450006 0.097092 0.000000
O O5 0.331928 0.159042 0.172581
O O6 0.380192 0.139169 0.351474
O O7 0.346729 0.000000 0.250000
O O8 0.750000 0.750000 0.875724
O O9 0.659872 0.679907 0.808060
O O10 0.671373 0.746634 0.000000
O O11 0.500000 0.500000 0.858746
O O12 0.422493 0.399778 0.855375
O O13 0.401283 0.563711 0.821081
O O14 0.430931 0.515105 0.000000
O O15 0.420952 0.280835 0.300743
O O16 0.080359 0.265810 0.500000
#
# Coordination Sequence:
#
# PCOD9495871 Si02
#       6
#    16  16  16  16  16  16
#     4  10  19  31  50  80 120 159 191 226 275 342
#     4  11  21  34  56  83 112 153 196 239 286 346
#     4  10  23  43  63  84 112 146 197 256 305 354
#     4  10  21  37  60  91 125 156 192 237 291 359
#     4  10  20  37  60  86 115 155 195 243 298 345
#     4  10  21  33  51  81 121 161 193 228 274 343
#
# _framework density 18.350467999999999
#
# number of rings (size 3 to 8) (size 9 to 14) (size 15 to 20)
#    0.000    1.833    1.667    3.000    0.000    6.000 
#    3.000    3.333    0.000   12.500    0.000    0.000 
#    0.000    0.000    0.000    0.000    0.000    0.000 
#
# Total GULP energy -267407.829799 kJ/mol
# GULP energy per Si atom -5570.996454 kJ/mol
# Density = 1.830870 g / cm^3
# Si number density = 18.350468 Si / 1000 Ang^3
#
#
#
# Elastic Constant Matrix: (Units=GPa)
#
#
# Indices 1 2 3 4 5 6 
#
# 1 70.8661 36.9985 41.9104 0.0000 0.0000 0.0000
# 2 36.9985 102.4611 33.9457 0.0000 0.0000 0.0000
# 3 41.9104 33.9457 117.5341 0.0000 0.0000 0.0000
# 4 0.0000 0.0000 0.0000 24.3133 0.0000 0.0000
# 5 0.0000 0.0000 0.0000 0.0000 29.2738 0.0000
# 6 0.0000 0.0000 0.0000 0.0000 0.0000 15.4715
#
#
#
# Elastic Compliance Matrix: (Units=1/GPa)
#
#
# Indices 1 2 3 4 5 6 
#
# 1 0.020311 -0.005457 -0.005667 0.000000 0.000000 0.000000
# 2 -0.005457 0.012259 -0.001595 0.000000 0.000000 0.000000
# 3 -0.005667 -0.001595 0.010989 0.000000 0.000000 0.000000
# 4 0.000000 0.000000 0.000000 0.041130 0.000000 0.000000
# 5 0.000000 0.000000 0.000000 0.000000 0.034160 0.000000
# 6 0.000000 0.000000 0.000000 0.000000 0.000000 0.064635
#
#
# Mechanical properties :
#
#
# Convention : Reuss Voigt Hill
#
# Bulk Modulus (GPa) = 55.17886 57.39672 56.28779
# Shear Modulus (GPa) = 23.25995 25.67884 24.46939
#
# Velocity S-wave (km/s) = 3.56411 3.74486 3.65560
# Velocity P-wave (km/s) = 6.86090 7.07422 6.96838
#
# Compressibility (1/GPa) = 0.01812288
#
# Stress axis : x y z
#
# Youngs Moduli (GPa) = 49.23340 81.57518 90.99758
#
# Poissons Ratio (x) = 0.44516 0.51564
# Poissons Ratio (y) = 0.26867 0.14510
# Poissons Ratio (z) = 0.27898 0.13008
#
# Static dielectric constant tensor:
#      x y z
#    x 1.591910 0.000000 0.000000 
#    y 0.000000 1.682180 0.000000 
#    z 0.000000 0.000000 1.691220 
# 
# From -- ./inp_files/31158.got.cif
#   From: 2010.05.17/outbox.cif.g08.bks.cpg/sg66_16_cif.got.tgz:31158.got - 2010.06.03 17:51:23.
