data_PCOD9495407
_publ_section_title
;
Structure prediction by ZEFSAII (Michael W. Deem and Ramdas Pophale) SiO2 
 PCOD9495407
Probable space group: C C C M
;
_chemical_formula_sum "Si O2"
_cell_formula_units_Z 48
_cell_length_a 5.153996
_cell_length_b 24.911044
_cell_length_c 14.453518
_cell_angle_alpha 90.000000
_cell_angle_beta 90.000000
_cell_angle_gamma 90.000000
_cell_volume 1855.707716
_symmetry_space_group_name_H-M "C C C M"
_symmetry_group_IT_number 66
_symmetry_cell_setting 'orthorhombic'
loop_
_space_group_symop_operation_xyz
x,y,z
-x,-y,z
x,-y,1/2-z
-x,y,1/2-z
-x,-y,-z
x,y,-z
-x,y,1/2+z
x,-y,1/2+z
1/2+x,1/2+y,z
1/2-x,1/2-y,z
1/2+x,1/2-y,1/2-z
1/2-x,1/2+y,1/2-z
1/2-x,1/2-y,-z
1/2+x,1/2+y,-z
1/2-x,1/2+y,1/2+z
1/2+x,1/2-y,1/2+z
loop_
_atom_site_type_symbol
_atom_site_label
_atom_site_fract_x
_atom_site_fract_y
_atom_site_fract_z
Si Si1 0.077565 0.697330 0.359576
Si Si2 0.928737 0.849562 0.647262
Si Si3 0.244902 0.534870 0.889350
O O1 0.250000 0.750000 0.379726
O O2 0.279387 0.650888 0.392123
O O3 0.000000 0.696774 0.250000
O O4 0.789847 0.687562 0.398593
O O5 0.795631 0.907347 0.654830
O O6 0.000000 0.829423 0.750000
O O7 0.500000 0.500000 0.873249
O O8 0.000000 0.500000 0.858579
O O9 0.219423 0.544299 0.000000
#
# Coordination Sequence:
#
# PCOD9495407 Si02
#       3
#    16  16  16
#     4  10  18  31  52  78 109 141 174 215 266 324
#     4  10  20  33  53  81 108 137 177 225 270 310
#     4  10  21  38  58  78 106 148 188 222 272 335
#
# _framework density 25.866143999999998
#
# number of rings (size 3 to 8) (size 9 to 14) (size 15 to 20)
#    0.000    2.000    0.000    6.000    0.000    0.667 
#    0.000    1.667    0.000    6.000    0.000    0.000 
#    0.000   12.000    0.000    0.000    0.000    0.000 
#
# Total GULP energy -133954.879423 kJ/mol
# GULP energy per Si atom -5581.453309 kJ/mol
# Density = 2.580727 g / cm^3
# Si number density = 25.866144 Si / 1000 Ang^3
#
#
#
# Elastic Constant Matrix: (Units=GPa)
#
#
# Indices 1 2 3 4 5 6 
#
# 1 284.9949 84.8138 24.1741 0.0000 0.0000 0.0000
# 2 84.8138 130.5574 -6.2431 0.0000 0.0000 0.0000
# 3 24.1741 -6.2431 94.0194 0.0000 0.0000 0.0000
# 4 0.0000 0.0000 0.0000 67.2039 0.0000 0.0000
# 5 0.0000 0.0000 0.0000 0.0000 -434.0607 0.0000
# 6 0.0000 0.0000 0.0000 0.0000 0.0000 29.7383
#
#
#
# Elastic Compliance Matrix: (Units=1/GPa)
#
#
# Indices 1 2 3 4 5 6 
#
# 1 0.004517 -0.002999 -0.001361 0.000000 0.000000 0.000000
# 2 -0.002999 0.009676 0.001414 0.000000 0.000000 0.000000
# 3 -0.001361 0.001414 0.011080 0.000000 0.000000 0.000000
# 4 0.000000 0.000000 0.000000 0.014880 0.000000 0.000000
# 5 0.000000 0.000000 0.000000 0.000000 -0.002304 0.000000
# 6 0.000000 0.000000 0.000000 0.000000 0.000000 0.033627
#
#
# Mechanical properties :
#
#
# Convention : Reuss Voigt Hill
#
# Bulk Modulus (GPa) = 51.60027 79.45125 65.52576
# Shear Modulus (GPa) = 59.64645 -40.30189 9.67228
#
# Velocity S-wave (km/s) = 4.80726 -3.95155 1.93584
# Velocity P-wave (km/s) = 7.12778 3.15647 5.51219
#
# Compressibility (1/GPa) = 0.01937974
#
# Stress axis : x y z
#
# Youngs Moduli (GPa) = 221.39434 103.35377 90.25449
#
# Poissons Ratio (x) = 0.30999 0.12279
# Poissons Ratio (y) = 0.66403 -0.12759
# Poissons Ratio (z) = 0.30121 -0.14611
#
# Static dielectric constant tensor:
#      x y z
#    x 2.081610 0.000000 0.000000 
#    y 0.000000 2.046100 0.000000 
#    z 0.000000 0.000000 2.139930 
# 
# From -- ./inp_files/22308.got.cif
#   From: 2010.05.17/outbox.cif.g08.bks.cpg/sg66_12_cif.got.tgz:22308.got - 2010.06.03 17:51:23.
