data_PCOD9495801
_publ_section_title
;
Structure prediction by ZEFSAII (Michael W. Deem and Ramdas Pophale) SiO2 
 PCOD9495801
Probable space group: C C C M
;
_chemical_formula_sum "Si O2"
_cell_formula_units_Z 88
_cell_length_a 19.098028
_cell_length_b 8.984514
_cell_length_c 27.466143
_cell_angle_alpha 90.000000
_cell_angle_beta 90.000000
_cell_angle_gamma 90.000000
_cell_volume 4712.819344
_symmetry_space_group_name_H-M "C C C M"
_symmetry_group_IT_number 66
_symmetry_cell_setting 'orthorhombic'
loop_
_space_group_symop_operation_xyz
x,y,z
-x,-y,z
x,-y,1/2-z
-x,y,1/2-z
-x,-y,-z
x,y,-z
-x,y,1/2+z
x,-y,1/2+z
1/2+x,1/2+y,z
1/2-x,1/2-y,z
1/2+x,1/2-y,1/2-z
1/2-x,1/2+y,1/2-z
1/2-x,1/2-y,-z
1/2+x,1/2+y,-z
1/2-x,1/2+y,1/2+z
1/2+x,1/2-y,1/2+z
loop_
_atom_site_type_symbol
_atom_site_label
_atom_site_fract_x
_atom_site_fract_y
_atom_site_fract_z
Si Si1 0.300184 0.390815 0.705190
Si Si2 0.622125 0.816806 0.943194
Si Si3 0.271411 0.981339 0.107446
Si Si4 0.000000 0.500000 0.393773
Si Si5 0.396451 0.239475 0.366924
Si Si6 0.373589 0.531763 0.944172
O O1 0.311030 0.500000 0.750000
O O2 0.250000 0.250000 0.717363
O O3 0.264068 0.481668 0.660635
O O4 0.370010 0.319975 0.681677
O O5 0.685745 0.874986 0.909834
O O6 0.609552 0.641812 0.937112
O O7 0.555057 0.911470 0.927023
O O8 0.638985 0.844038 0.000000
O O9 0.328761 0.849855 0.111763
O O10 0.208683 0.953421 0.069725
O O11 0.042902 0.380857 0.362202
O O12 0.414513 0.362623 0.407174
O O13 0.386143 0.573149 0.000000
#
# Coordination Sequence:
#
# PCOD9495801 Si02
#       6
#    16  16  16   8  16  16
#     4   9  18  33  55  86 110 128 164 218 278 334
#     4  10  20  32  50  77 110 149 188 222 259 312
#     4   9  18  33  51  78 111 140 171 212 273 332
#     4  10  21  38  52  68 105 154 193 220 253 308
#     4   9  20  35  52  77 108 144 181 215 261 317
#     4  10  19  30  48  77 109 139 179 229 270 309
#
# _framework density 18.672474000000001
#
# number of rings (size 3 to 8) (size 9 to 14) (size 15 to 20)
#    0.000    2.545    0.000    3.000    0.000   10.182 
#    0.000    1.818    0.000    0.000    0.000  143.182 
#    0.000    0.000    0.000    0.000    0.000    0.000 
#
# Total GULP energy -245464.146598 kJ/mol
# GULP energy per Si atom -5578.730605 kJ/mol
# Density = 1.862997 g / cm^3
# Si number density = 18.672474 Si / 1000 Ang^3
#
#
#
# Elastic Constant Matrix: (Units=GPa)
#
#
# Indices 1 2 3 4 5 6 
#
# 1 67.2697 48.0055 29.8612 0.0000 0.0000 0.0000
# 2 48.0055 102.6642 86.2941 0.0000 0.0000 0.0000
# 3 29.8612 86.2941 110.2660 0.0000 0.0000 0.0000
# 4 0.0000 0.0000 0.0000 32.8734 0.0000 0.0000
# 5 0.0000 0.0000 0.0000 0.0000 -22.7623 0.0000
# 6 0.0000 0.0000 0.0000 0.0000 0.0000 23.1302
#
#
#
# Elastic Compliance Matrix: (Units=1/GPa)
#
#
# Indices 1 2 3 4 5 6 
#
# 1 0.023863 -0.016734 0.006634 0.000000 0.000000 0.000000
# 2 -0.016734 0.040201 -0.026929 0.000000 0.000000 0.000000
# 3 0.006634 -0.026929 0.028347 0.000000 0.000000 0.000000
# 4 0.000000 0.000000 0.000000 0.030420 0.000000 0.000000
# 5 0.000000 0.000000 0.000000 0.000000 -0.043932 0.000000
# 6 0.000000 0.000000 0.000000 0.000000 0.000000 0.043234
#
#
# Mechanical properties :
#
#
# Convention : Reuss Voigt Hill
#
# Bulk Modulus (GPa) = 54.49127 67.61350 61.05239
# Shear Modulus (GPa) = 24.71476 14.38419 19.54947
#
# Velocity S-wave (km/s) = 3.64207 2.77851 3.23920
# Velocity P-wave (km/s) = 6.85071 6.82513 6.83793
#
# Compressibility (1/GPa) = 0.01835156
#
# Stress axis : x y z
#
# Youngs Moduli (GPa) = 41.90623 24.87514 35.27686
#
# Poissons Ratio (x) = 0.41627 -0.23403
# Poissons Ratio (y) = 0.70128 0.94998
# Poissons Ratio (z) = -0.27801 0.66987
#
# Static dielectric constant tensor:
#      x y z
#    x 1.669880 0.000000 0.000000 
#    y 0.000000 1.667430 0.000000 
#    z 0.000000 0.000000 1.610430 
# 
# From -- ./inp_files/69918.got.cif
#   From: 2010.05.17/outbox.cif.g08.bks.cpg/sg66_35_cif.got.tgz:69918.got - 2010.06.03 17:51:23.
