data_PCOD9495170
_publ_section_title
;
Structure prediction by ZEFSAII (Michael W. Deem and Ramdas Pophale) SiO2 
 PCOD9495170
Probable space group: C C C M
;
_chemical_formula_sum "Si O2"
_cell_formula_units_Z 128
_cell_length_a 23.581438
_cell_length_b 10.146968
_cell_length_c 28.928485
_cell_angle_alpha 90.000000
_cell_angle_beta 90.000000
_cell_angle_gamma 90.000000
_cell_volume 6922.010690
_symmetry_space_group_name_H-M "C C C M"
_symmetry_group_IT_number 66
_symmetry_cell_setting 'orthorhombic'
loop_
_space_group_symop_operation_xyz
x,y,z
-x,-y,z
x,-y,1/2-z
-x,y,1/2-z
-x,-y,-z
x,y,-z
-x,y,1/2+z
x,-y,1/2+z
1/2+x,1/2+y,z
1/2-x,1/2-y,z
1/2+x,1/2-y,1/2-z
1/2-x,1/2+y,1/2-z
1/2-x,1/2-y,-z
1/2+x,1/2+y,-z
1/2-x,1/2+y,1/2+z
1/2+x,1/2-y,1/2+z
loop_
_atom_site_type_symbol
_atom_site_label
_atom_site_fract_x
_atom_site_fract_y
_atom_site_fract_z
Si Si1 0.916902 0.390558 0.612576
Si Si2 0.224863 0.102655 0.392188
Si Si3 0.675792 0.989905 0.052196
Si Si4 0.060619 0.346125 0.267533
Si Si5 0.875969 0.788501 0.447120
Si Si6 0.658913 0.817420 0.199460
Si Si7 0.279096 0.547569 0.300171
Si Si8 0.960014 0.685661 0.624074
O O1 0.871509 0.389136 0.571193
O O2 0.881499 0.371229 0.659275
O O3 0.941886 0.537787 0.609996
O O4 0.972613 0.300466 0.616198
O O5 0.250000 0.250000 0.389946
O O6 0.271342 0.003179 0.413317
O O7 0.171986 0.115658 0.426721
O O8 0.211609 0.057036 0.340553
O O9 0.650131 0.139321 0.051754
O O10 0.692888 0.958698 0.000000
O O11 0.059932 0.500000 0.250000
O O12 0.118557 0.297871 0.243974
O O13 0.058174 0.316305 0.322082
O O14 0.000000 0.291259 0.250000
O O15 0.891890 0.820021 0.500000
O O16 0.926059 0.781816 0.409691
O O17 0.686750 0.678557 0.186729
O O18 0.712360 0.914884 0.204765
O O19 0.298252 0.500000 0.250000
#
# Coordination Sequence:
#
# PCOD9495170 Si02
#       8
#    16  16  16  16  16  16  16  16
#     4  10  17  33  51  80 113 145 176 223 281 326
#     4  10  20  35  57  76 110 145 189 228 273 333
#     4   9  17  30  53  81 110 142 180 226 280 331
#     4  11  18  30  55  84 113 147 186 223 268 333
#     4   9  19  32  52  83 114 144 182 236 283 323
#     4  11  22  37  55  75 118 143 178 229 274 338
#     4  11  26  37  52  82 109 148 183 224 286 332
#     4  10  19  29  53  85 113 145 187 222 277 335
#
# _framework density 18.491737000000001
#
# number of rings (size 3 to 8) (size 9 to 14) (size 15 to 20)
#    0.000    1.875    3.750    1.500    3.500    2.000 
#    0.000    2.500    0.000    4.875    0.000    0.875 
#    0.000    0.000    0.000    0.000    0.000    0.000 
#
# Total GULP energy -356491.078080 kJ/mol
# GULP energy per Si atom -5570.173095 kJ/mol
# Density = 1.844965 g / cm^3
# Si number density = 18.491737 Si / 1000 Ang^3
#
#
#
# Elastic Constant Matrix: (Units=GPa)
#
#
# Indices 1 2 3 4 5 6 
#
# 1 98.6653 19.5322 38.1619 0.0000 0.0000 0.0000
# 2 19.5322 17.1645 15.5971 0.0000 0.0000 0.0000
# 3 38.1619 15.5971 139.2116 0.0000 0.0000 0.0000
# 4 0.0000 0.0000 0.0000 11.8306 0.0000 0.0000
# 5 0.0000 0.0000 0.0000 0.0000 17.1517 0.0000
# 6 0.0000 0.0000 0.0000 0.0000 0.0000 6.4253
#
#
#
# Elastic Compliance Matrix: (Units=1/GPa)
#
#
# Indices 1 2 3 4 5 6 
#
# 1 0.013679 -0.013536 -0.002233 0.000000 0.000000 0.000000
# 2 -0.013536 0.078259 -0.005057 0.000000 0.000000 0.000000
# 3 -0.002233 -0.005057 0.008362 0.000000 0.000000 0.000000
# 4 0.000000 0.000000 0.000000 0.084527 0.000000 0.000000
# 5 0.000000 0.000000 0.000000 0.000000 0.058303 0.000000
# 6 0.000000 0.000000 0.000000 0.000000 0.000000 0.155636
#
#
# Mechanical properties :
#
#
# Convention : Reuss Voigt Hill
#
# Bulk Modulus (GPa) = 17.05140 44.62485 30.83812
# Shear Modulus (GPa) = 10.87032 19.19820 15.03426
#
# Velocity S-wave (km/s) = 2.42719 3.22561 2.85445
# Velocity P-wave (km/s) = 4.13474 6.16907 5.25136
#
# Compressibility (1/GPa) = 0.05864622
#
# Stress axis : x y z
#
# Youngs Moduli (GPa) = 73.10619 12.77806 119.58738
#
# Poissons Ratio (x) = 0.17297 0.26705
# Poissons Ratio (y) = 0.98960 0.60479
# Poissons Ratio (z) = 0.16326 0.06462
#
# Static dielectric constant tensor:
#      x y z
#    x 1.675300 0.000000 0.000000 
#    y 0.000000 1.657340 0.000000 
#    z 0.000000 0.000000 1.644190 
# 
# From -- ./inp_files/66169.got.cif
#   From: 2010.05.17/outbox.cif.g08.bks.cpg/sg66_34_cif.got.tgz:66169.got - 2010.06.03 17:51:23.
