data_PCOD9495944
_publ_section_title
;
Structure prediction by ZEFSAII (Michael W. Deem and Ramdas Pophale) SiO2 
 PCOD9495944
Probable space group: C C C M
;
_chemical_formula_sum "Si O2"
_cell_formula_units_Z 80
_cell_length_a 26.920482
_cell_length_b 19.311654
_cell_length_c 8.730358
_cell_angle_alpha 90.000000
_cell_angle_beta 90.000000
_cell_angle_gamma 90.000000
_cell_volume 4538.730083
_symmetry_space_group_name_H-M "C C C M"
_symmetry_group_IT_number 66
_symmetry_cell_setting 'orthorhombic'
loop_
_space_group_symop_operation_xyz
x,y,z
-x,-y,z
x,-y,1/2-z
-x,y,1/2-z
-x,-y,-z
x,y,-z
-x,y,1/2+z
x,-y,1/2+z
1/2+x,1/2+y,z
1/2-x,1/2-y,z
1/2+x,1/2-y,1/2-z
1/2-x,1/2+y,1/2-z
1/2-x,1/2-y,-z
1/2+x,1/2+y,-z
1/2-x,1/2+y,1/2+z
1/2+x,1/2-y,1/2+z
loop_
_atom_site_type_symbol
_atom_site_label
_atom_site_fract_x
_atom_site_fract_y
_atom_site_fract_z
Si Si1 0.248666 0.422097 0.683358
Si Si2 0.146859 0.577703 0.315932
Si Si3 0.141214 0.077722 0.316367
Si Si4 0.947191 0.331048 0.684166
Si Si5 0.446770 0.669871 0.683713
O O1 0.249847 0.500000 0.750000
O O2 0.243478 0.424525 0.500000
O O3 0.198867 0.390765 0.755348
O O4 0.303385 0.393344 0.720762
O O5 0.142274 0.500000 0.250000
O O6 0.148656 0.574251 0.500000
O O7 0.099466 0.622772 0.267356
O O8 0.137212 0.074217 0.500000
O O9 0.097909 0.124488 0.248403
O O10 0.137574 0.000000 0.250000
O O11 0.949836 0.333534 0.500000
O O12 0.940217 0.250611 0.728892
O O13 0.000000 0.355047 0.750000
O O14 0.500000 0.646894 0.750000
O O15 0.447782 0.665628 0.500000
#
# Coordination Sequence:
#
# PCOD9495944 Si02
#       5
#    16  16  16  16  16
#     4   9  17  30  49  73 101 132 164 200 246 294
#     4  10  19  32  51  76 103 131 167 207 248 295
#     4  10  20  34  53  78 104 131 166 206 247 294
#     4   9  20  36  53  73  99 133 169 206 250 299
#     4  10  20  36  55  74  99 132 168 206 251 298
#
# _framework density 17.626076999999999
#
# number of rings (size 3 to 8) (size 9 to 14) (size 15 to 20)
#    0.000    2.400    0.000    3.600    0.000    5.600 
#    0.000    5.000    0.000    6.000    0.000    0.000 
#    0.000    0.000    0.000    0.000    0.000    0.000 
#
# Total GULP energy -223028.836219 kJ/mol
# GULP energy per Si atom -5575.720905 kJ/mol
# Density = 1.758596 g / cm^3
# Si number density = 17.626077 Si / 1000 Ang^3
#
#
#
# Elastic Constant Matrix: (Units=GPa)
#
#
# Indices 1 2 3 4 5 6 
#
# 1 223.9292 77.2133 62.0994 0.0000 0.0000 0.0000
# 2 77.2133 47.3930 25.7038 0.0000 0.0000 0.0000
# 3 62.0994 25.7038 59.0606 0.0000 0.0000 0.0000
# 4 0.0000 0.0000 0.0000 11.3611 0.0000 0.0000
# 5 0.0000 0.0000 0.0000 0.0000 32.6541 0.0000
# 6 0.0000 0.0000 0.0000 0.0000 0.0000 3.2409
#
#
#
# Elastic Compliance Matrix: (Units=1/GPa)
#
#
# Indices 1 2 3 4 5 6 
#
# 1 0.011227 -0.015562 -0.005032 0.000000 0.000000 0.000000
# 2 -0.015562 0.049191 -0.005045 0.000000 0.000000 0.000000
# 3 -0.005032 -0.005045 0.024418 0.000000 0.000000 0.000000
# 4 0.000000 0.000000 0.000000 0.088019 0.000000 0.000000
# 5 0.000000 0.000000 0.000000 0.000000 0.030624 0.000000
# 6 0.000000 0.000000 0.000000 0.000000 0.000000 0.308556
#
#
# Mechanical properties :
#
#
# Convention : Reuss Voigt Hill
#
# Bulk Modulus (GPa) = 29.79977 73.37953 51.58965
# Shear Modulus (GPa) = 8.70320 20.47566 14.58943
#
# Velocity S-wave (km/s) = 2.22450 3.41202 2.88013
# Velocity P-wave (km/s) = 4.85193 7.56599 6.35552
#
# Compressibility (1/GPa) = 0.03355730
#
# Stress axis : x y z
#
# Youngs Moduli (GPa) = 89.06887 20.32894 40.95272
#
# Poissons Ratio (x) = 0.31637 0.20607
# Poissons Ratio (y) = 1.38613 0.20661
# Poissons Ratio (z) = 0.44820 0.10256
#
# Static dielectric constant tensor:
#      x y z
#    x 1.625880 0.000000 0.000000 
#    y 0.000000 1.584090 0.000000 
#    z 0.000000 0.000000 1.595890 
# 
# From -- ./inp_files/6649.got.cif
#   From: 2010.05.17/outbox.cif.g08.bks.cpg/sg66_4_cif.got.tgz:6649.got - 2010.06.03 17:51:23.
