data_PCOD9495527
_publ_section_title
;
Structure prediction by ZEFSAII (Michael W. Deem and Ramdas Pophale) SiO2 
 PCOD9495527
Probable space group: C C C M
;
_chemical_formula_sum "Si O2"
_cell_formula_units_Z 96
_cell_length_a 9.287237
_cell_length_b 22.807333
_cell_length_c 25.656605
_cell_angle_alpha 90.000000
_cell_angle_beta 90.000000
_cell_angle_gamma 90.000000
_cell_volume 5434.507844
_symmetry_space_group_name_H-M "C C C M"
_symmetry_group_IT_number 66
_symmetry_cell_setting 'orthorhombic'
loop_
_space_group_symop_operation_xyz
x,y,z
-x,-y,z
x,-y,1/2-z
-x,y,1/2-z
-x,-y,-z
x,y,-z
-x,y,1/2+z
x,-y,1/2+z
1/2+x,1/2+y,z
1/2-x,1/2-y,z
1/2+x,1/2-y,1/2-z
1/2-x,1/2+y,1/2-z
1/2-x,1/2-y,-z
1/2+x,1/2+y,-z
1/2-x,1/2+y,1/2+z
1/2+x,1/2-y,1/2+z
loop_
_atom_site_type_symbol
_atom_site_label
_atom_site_fract_x
_atom_site_fract_y
_atom_site_fract_z
Si Si1 0.854833 0.480514 0.881180
Si Si2 0.145028 0.384017 0.300798
Si Si3 0.216113 0.054806 0.789709
Si Si4 0.923014 0.745413 0.303634
Si Si5 0.417352 0.561886 0.940526
Si Si6 0.525836 0.634436 0.341204
O O1 0.910526 0.433882 0.838685
O O2 0.771138 0.526712 0.843911
O O3 0.743111 0.452046 0.920721
O O4 0.000000 0.500000 0.909060
O O5 0.163978 0.408011 0.242083
O O6 0.059979 0.324052 0.310800
O O7 0.313412 0.376224 0.318424
O O8 0.086552 0.098683 0.805211
O O9 0.179571 0.000000 0.750000
O O10 0.750000 0.750000 0.299643
O O11 0.985319 0.794867 0.341984
O O12 0.000000 0.761477 0.250000
O O13 0.500000 0.500000 0.937311
O O14 0.481236 0.606739 0.898488
O O15 0.422019 0.582593 0.000000
#
# Coordination Sequence:
#
# PCOD9495527 Si02
#       6
#    16  16  16  16  16  16
#     4  10  21  33  50  79 106 141 172 214 270 320
#     4   9  20  30  49  72 114 145 173 204 247 310
#     4  10  19  30  52  80 113 145 180 213 261 319
#     4  10  20  34  49  73 109 149 180 210 246 310
#     4  10  20  36  57  79 101 127 173 237 288 322
#     4  10  18  33  51  76  99 138 177 217 262 308
#
# _framework density 17.664891999999998
#
# number of rings (size 3 to 8) (size 9 to 14) (size 15 to 20)
#    0.000    2.167    1.667    2.500    2.333    6.000 
#    0.000    0.000    0.000   12.500    0.000    0.000 
#    0.000    5.000    0.000    0.000    0.000    0.000 
#
# Total GULP energy -267444.039405 kJ/mol
# GULP energy per Si atom -5571.750821 kJ/mol
# Density = 1.762469 g / cm^3
# Si number density = 17.664892 Si / 1000 Ang^3
#
#
#
# Elastic Constant Matrix: (Units=GPa)
#
#
# Indices 1 2 3 4 5 6 
#
# 1 50.3073 27.4857 19.9758 0.0000 0.0000 0.0000
# 2 27.4857 118.1571 40.0211 0.0000 0.0000 0.0000
# 3 19.9758 40.0211 99.4460 0.0000 0.0000 0.0000
# 4 0.0000 0.0000 0.0000 17.2901 0.0000 0.0000
# 5 0.0000 0.0000 0.0000 0.0000 13.6542 0.0000
# 6 0.0000 0.0000 0.0000 0.0000 0.0000 13.7914
#
#
#
# Elastic Compliance Matrix: (Units=1/GPa)
#
#
# Indices 1 2 3 4 5 6 
#
# 1 0.023480 -0.004474 -0.002916 0.000000 0.000000 0.000000
# 2 -0.004474 0.010652 -0.003388 0.000000 0.000000 0.000000
# 3 -0.002916 -0.003388 0.012005 0.000000 0.000000 0.000000
# 4 0.000000 0.000000 0.000000 0.057837 0.000000 0.000000
# 5 0.000000 0.000000 0.000000 0.000000 0.073238 0.000000
# 6 0.000000 0.000000 0.000000 0.000000 0.000000 0.072509
#
#
# Mechanical properties :
#
#
# Convention : Reuss Voigt Hill
#
# Bulk Modulus (GPa) = 40.68258 49.20842 44.94550
# Shear Modulus (GPa) = 17.89102 20.97564 19.43333
#
# Velocity S-wave (km/s) = 3.18591 3.44963 3.32039
# Velocity P-wave (km/s) = 6.05091 6.61693 6.34024
#
# Compressibility (1/GPa) = 0.02458055
#
# Stress axis : x y z
#
# Youngs Moduli (GPa) = 42.58905 93.88223 83.29979
#
# Poissons Ratio (x) = 0.42006 0.24289
# Poissons Ratio (y) = 0.19056 0.28221
# Poissons Ratio (z) = 0.12418 0.31806
#
# Static dielectric constant tensor:
#      x y z
#    x 1.652610 0.000000 0.000000 
#    y 0.000000 1.676540 0.000000 
#    z 0.000000 0.000000 1.582430 
# 
# From -- ./inp_files/55657.got.cif
#   From: 2010.05.17/outbox.cif.g08.bks.cpg/sg66_28_cif.got.tgz:55657.got - 2010.06.03 17:51:23.
