data_PCOD9495766
_publ_section_title
;
Structure prediction by ZEFSAII (Michael W. Deem and Ramdas Pophale) SiO2 
 PCOD9495766
Probable space group: C C C M
;
_chemical_formula_sum "Si O2"
_cell_formula_units_Z 80
_cell_length_a 13.443384
_cell_length_b 31.169724
_cell_length_c 8.194056
_cell_angle_alpha 90.000000
_cell_angle_beta 90.000000
_cell_angle_gamma 90.000000
_cell_volume 3433.527171
_symmetry_space_group_name_H-M "C C C M"
_symmetry_group_IT_number 66
_symmetry_cell_setting 'orthorhombic'
loop_
_space_group_symop_operation_xyz
x,y,z
-x,-y,z
x,-y,1/2-z
-x,y,1/2-z
-x,-y,-z
x,y,-z
-x,y,1/2+z
x,-y,1/2+z
1/2+x,1/2+y,z
1/2-x,1/2-y,z
1/2+x,1/2-y,1/2-z
1/2-x,1/2+y,1/2-z
1/2-x,1/2-y,-z
1/2+x,1/2+y,-z
1/2-x,1/2+y,1/2+z
1/2+x,1/2-y,1/2+z
loop_
_atom_site_type_symbol
_atom_site_label
_atom_site_fract_x
_atom_site_fract_y
_atom_site_fract_z
Si Si1 0.127523 0.193917 0.000000
Si Si2 0.370221 0.208132 0.000000
Si Si3 0.898982 0.433457 0.694631
Si Si4 0.132651 0.140380 0.682723
Si Si5 0.670969 0.453530 0.694233
Si Si6 0.631744 0.158921 0.823361
O O1 0.097344 0.167628 0.838399
O O2 0.248900 0.200916 0.000000
O O3 0.093751 0.243032 0.000000
O O4 0.400852 0.185561 0.167306
O O5 0.900507 0.425390 0.500000
O O6 0.790312 0.452911 0.729723
O O7 0.901598 0.389626 0.796867
O O8 0.000000 0.456211 0.750000
O O9 0.094377 0.148551 0.500000
O O10 0.127637 0.089355 0.721795
O O11 0.248853 0.153944 0.677935
O O12 0.632028 0.500000 0.750000
O O13 0.658175 0.448785 0.500000
O O14 0.602420 0.176238 0.000000
#
# Coordination Sequence:
#
# PCOD9495766 Si02
#       6
#     8   8  16  16  16  16
#     4   9  16  26  40  58  77  95 117 145 183 232
#     4   9  16  26  40  58  77  95 117 145 183 232
#     4  10  19  30  42  55  73  97 128 166 205 243
#     4   9  16  27  41  55  74  97 119 148 188 231
#     4  10  19  30  42  55  73  97 128 166 205 243
#     4   9  16  27  41  55  74  97 119 148 188 231
#
# _framework density 23.299655000000001
#
# number of rings (size 3 to 8) (size 9 to 14) (size 15 to 20)
#    0.000    2.600    2.000    1.200    0.000    3.600 
#    0.000    6.000    0.000    0.000    0.000    0.000 
#    0.000    0.000    0.000    0.000    0.000    0.000 
#
# Total GULP energy -223413.305739 kJ/mol
# GULP energy per Si atom -5585.332643 kJ/mol
# Density = 2.324662 g / cm^3
# Si number density = 23.299655 Si / 1000 Ang^3
#
#
#
# Elastic Constant Matrix: (Units=GPa)
#
#
# Indices 1 2 3 4 5 6 
#
# 1 70.1952 1.7613 33.5214 0.0000 0.0000 0.0000
# 2 1.7613 171.7665 111.8101 0.0000 0.0000 0.0000
# 3 33.5214 111.8101 196.3417 0.0000 0.0000 0.0000
# 4 0.0000 0.0000 0.0000 12.9467 0.0000 0.0000
# 5 0.0000 0.0000 0.0000 0.0000 19.7010 0.0000
# 6 0.0000 0.0000 0.0000 0.0000 0.0000 -0.9830
#
#
#
# Elastic Compliance Matrix: (Units=1/GPa)
#
#
# Indices 1 2 3 4 5 6 
#
# 1 0.016209 0.002598 -0.004247 0.000000 0.000000 0.000000
# 2 0.002598 0.009668 -0.005949 0.000000 0.000000 0.000000
# 3 -0.004247 -0.005949 0.009206 0.000000 0.000000 0.000000
# 4 0.000000 0.000000 0.000000 0.077240 0.000000 0.000000
# 5 0.000000 0.000000 0.000000 0.000000 0.050759 0.000000
# 6 0.000000 0.000000 0.000000 0.000000 0.000000 -1.017297
#
#
# Mechanical properties :
#
#
# Convention : Reuss Voigt Hill
#
# Bulk Modulus (GPa) = 50.28344 81.38767 65.83556
# Shear Modulus (GPa) = -6.00679 25.74698 9.87010
#
# Velocity S-wave (km/s) = -1.60738 3.32782 2.06043
# Velocity P-wave (km/s) = 4.26417 7.05496 5.82905
#
# Compressibility (1/GPa) = 0.01988726
#
# Stress axis : x y z
#
# Youngs Moduli (GPa) = 61.69429 103.43704 108.62414
#
# Poissons Ratio (x) = -0.26877 0.46133
# Poissons Ratio (y) = -0.16031 0.64621
# Poissons Ratio (z) = 0.26202 0.61535
#
# Static dielectric constant tensor:
#      x y z
#    x 1.959800 0.000000 0.000000 
#    y 0.000000 1.819560 0.000000 
#    z 0.000000 0.000000 1.822960 
# 
# From -- ./inp_files/6794.got.cif
#   From: 2010.05.17/outbox.cif.g08.bks.cpg/sg66_4_cif.got.tgz:6794.got - 2010.06.03 17:51:23.
