data_PCOD9495608
_publ_section_title
;
Structure prediction by ZEFSAII (Michael W. Deem and Ramdas Pophale) SiO2 
 PCOD9495608
Probable space group: C C C M
;
_chemical_formula_sum "Si O2"
_cell_formula_units_Z 112
_cell_length_a 17.785911
_cell_length_b 17.563980
_cell_length_c 18.264616
_cell_angle_alpha 90.000000
_cell_angle_beta 90.000000
_cell_angle_gamma 90.000000
_cell_volume 5705.708690
_symmetry_space_group_name_H-M "C C C M"
_symmetry_group_IT_number 66
_symmetry_cell_setting 'orthorhombic'
loop_
_space_group_symop_operation_xyz
x,y,z
-x,-y,z
x,-y,1/2-z
-x,y,1/2-z
-x,-y,-z
x,y,-z
-x,y,1/2+z
x,-y,1/2+z
1/2+x,1/2+y,z
1/2-x,1/2-y,z
1/2+x,1/2-y,1/2-z
1/2-x,1/2+y,1/2-z
1/2-x,1/2-y,-z
1/2+x,1/2+y,-z
1/2-x,1/2+y,1/2+z
1/2+x,1/2-y,1/2+z
loop_
_atom_site_type_symbol
_atom_site_label
_atom_site_fract_x
_atom_site_fract_y
_atom_site_fract_z
Si Si1 0.714489 0.324365 0.082252
Si Si2 0.930624 0.165701 0.168387
Si Si3 0.821089 0.707351 0.176084
Si Si4 0.242517 0.083786 0.086929
Si Si5 0.573426 0.846933 0.702953
Si Si6 0.348510 0.055783 0.416591
Si Si7 0.404639 0.360092 0.837791
O O1 0.750000 0.250000 0.118819
O O2 0.641416 0.354295 0.121478
O O3 0.781514 0.383226 0.079082
O O4 0.690917 0.302371 0.000000
O O5 0.935342 0.258824 0.174622
O O6 0.913511 0.134887 0.249881
O O7 0.008965 0.133635 0.137018
O O8 0.750000 0.750000 0.211125
O O9 0.785995 0.660377 0.109755
O O10 0.859347 0.656387 0.237926
O O11 0.878015 0.772654 0.149962
O O12 0.161633 0.088172 0.128351
O O13 0.302573 0.018728 0.108558
O O14 0.229540 0.077457 0.000000
O O15 0.500000 0.866155 0.750000
O O16 0.591996 0.906829 0.639016
O O17 0.377733 0.043863 0.500000
#
# Coordination Sequence:
#
# PCOD9495608 Si02
#       7
#    16  16  16  16  16  16  16
#     4  10  20  32  54  86 114 152 199 241 291 350
#     4  10  18  34  59  89 122 146 189 258 305 350
#     4   9  19  34  58  87 113 146 196 248 293 344
#     4  10  22  40  57  80 119 162 202 242 291 351
#     4  11  20  36  62  88 118 154 193 248 305 361
#     4  10  23  40  58  85 123 161 199 243 291 353
#     4   9  19  35  58  87 114 150 190 244 308 346
#
# _framework density 19.629465
#
# number of rings (size 3 to 8) (size 9 to 14) (size 15 to 20)
#    0.000    2.143    4.286    0.000    6.000    3.714 
#    0.000    2.857    0.000    6.000    0.000    0.000 
#    0.000    0.000    0.000    0.000    0.000    0.000 
#
# Total GULP energy -312040.200703 kJ/mol
# GULP energy per Si atom -5572.146441 kJ/mol
# Density = 1.958479 g / cm^3
# Si number density = 19.629465 Si / 1000 Ang^3
#
#
#
# Elastic Constant Matrix: (Units=GPa)
#
#
# Indices 1 2 3 4 5 6 
#
# 1 95.4087 2.8610 38.5336 0.0000 0.0000 0.0000
# 2 2.8610 33.6110 21.5064 0.0000 0.0000 0.0000
# 3 38.5336 21.5064 60.7041 0.0000 0.0000 0.0000
# 4 0.0000 0.0000 0.0000 19.4024 0.0000 0.0000
# 5 0.0000 0.0000 0.0000 0.0000 27.8198 0.0000
# 6 0.0000 0.0000 0.0000 0.0000 0.0000 14.3273
#
#
#
# Elastic Compliance Matrix: (Units=1/GPa)
#
#
# Indices 1 2 3 4 5 6 
#
# 1 0.015045 0.006246 -0.011763 0.000000 0.000000 0.000000
# 2 0.006246 0.041067 -0.018514 0.000000 0.000000 0.000000
# 3 -0.011763 -0.018514 0.030499 0.000000 0.000000 0.000000
# 4 0.000000 0.000000 0.000000 0.051540 0.000000 0.000000
# 5 0.000000 0.000000 0.000000 0.000000 0.035946 0.000000
# 6 0.000000 0.000000 0.000000 0.000000 0.000000 0.069797
#
#
# Mechanical properties :
#
#
# Convention : Reuss Voigt Hill
#
# Bulk Modulus (GPa) = 25.94098 35.05843 30.49970
# Shear Modulus (GPa) = 16.40391 20.76476 18.58434
#
# Velocity S-wave (km/s) = 2.89395 3.25597 3.08028
# Velocity P-wave (km/s) = 4.94071 5.65986 5.31246
#
# Compressibility (1/GPa) = 0.03854904
#
# Stress axis : x y z
#
# Youngs Moduli (GPa) = 66.46854 24.35044 32.78747
#
# Poissons Ratio (x) = -0.15209 0.38568
# Poissons Ratio (y) = -0.41516 0.60703
# Poissons Ratio (z) = 0.78186 0.45083
#
# Static dielectric constant tensor:
#      x y z
#    x 1.730280 0.000000 0.000000 
#    y 0.000000 1.799030 0.000000 
#    z 0.000000 0.000000 1.725240 
# 
# From -- ./inp_files/41972.got.cif
#   From: 2010.05.17/outbox.cif.g08.bks.cpg/sg66_21_cif.got.tgz:41972.got - 2010.06.03 17:51:23.
