data_PCOD9495123
_publ_section_title
;
Structure prediction by ZEFSAII (Michael W. Deem and Ramdas Pophale) SiO2 
 PCOD9495123
Probable space group: C C C M
;
_chemical_formula_sum "Si O2"
_cell_formula_units_Z 80
_cell_length_a 19.713178
_cell_length_b 13.579773
_cell_length_c 18.103267
_cell_angle_alpha 90.000000
_cell_angle_beta 90.000000
_cell_angle_gamma 90.000000
_cell_volume 4846.253308
_symmetry_space_group_name_H-M "C C C M"
_symmetry_group_IT_number 66
_symmetry_cell_setting 'orthorhombic'
loop_
_space_group_symop_operation_xyz
x,y,z
-x,-y,z
x,-y,1/2-z
-x,y,1/2-z
-x,-y,-z
x,y,-z
-x,y,1/2+z
x,-y,1/2+z
1/2+x,1/2+y,z
1/2-x,1/2-y,z
1/2+x,1/2-y,1/2-z
1/2-x,1/2+y,1/2-z
1/2-x,1/2-y,-z
1/2+x,1/2+y,-z
1/2-x,1/2+y,1/2+z
1/2+x,1/2-y,1/2+z
loop_
_atom_site_type_symbol
_atom_site_label
_atom_site_fract_x
_atom_site_fract_y
_atom_site_fract_z
Si Si1 0.647719 0.812561 0.778551
Si Si2 0.790655 0.106034 0.232476
Si Si3 0.566885 0.875925 0.088372
Si Si4 0.772163 0.362570 0.078178
Si Si5 0.081000 0.396640 0.363217
O O1 0.719067 0.872099 0.774736
O O2 0.664564 0.702876 0.748342
O O3 0.616716 0.812306 0.860292
O O4 0.596348 0.866983 0.721606
O O5 0.767641 0.096827 0.147711
O O6 0.821309 0.000000 0.250000
O O7 0.488596 0.851020 0.106680
O O8 0.576593 0.987049 0.119693
O O9 0.578227 0.873400 0.000000
O O10 0.750000 0.250000 0.074686
O O11 0.851931 0.363080 0.094054
O O12 0.758086 0.412586 0.000000
#
# Coordination Sequence:
#
# PCOD9495123 Si02
#       5
#    16  16  16  16  16
#     4  10  19  34  51  75 100 138 170 203 256 310
#     4  10  19  34  52  74 102 135 173 213 250 304
#     4  11  21  31  49  78 108 135 161 207 258 315
#     4  10  17  30  52  78 101 126 166 215 258 295
#     4  10  18  33  50  75 105 131 167 204 259 313
#
# _framework density 16.507598000000002
#
# number of rings (size 3 to 8) (size 9 to 14) (size 15 to 20)
#    0.000    1.800    4.000    6.000    0.000    1.600 
#    0.000    3.000    0.000    2.400    0.000    1.400 
#    0.000    0.000    0.000    0.000    0.000    0.000 
#
# Total GULP energy -222797.548358 kJ/mol
# GULP energy per Si atom -5569.938709 kJ/mol
# Density = 1.647003 g / cm^3
# Si number density = 16.507598 Si / 1000 Ang^3
#
#
#
# Elastic Constant Matrix: (Units=GPa)
#
#
# Indices 1 2 3 4 5 6 
#
# 1 61.8247 26.0738 48.3098 0.0000 0.0000 0.0000
# 2 26.0738 59.7294 26.8840 0.0000 0.0000 0.0000
# 3 48.3098 26.8840 143.4080 0.0000 0.0000 0.0000
# 4 0.0000 0.0000 0.0000 14.3556 0.0000 0.0000
# 5 0.0000 0.0000 0.0000 0.0000 12.0210 0.0000
# 6 0.0000 0.0000 0.0000 0.0000 0.0000 22.5645
#
#
#
# Elastic Compliance Matrix: (Units=1/GPa)
#
#
# Indices 1 2 3 4 5 6 
#
# 1 0.024841 -0.007730 -0.006919 0.000000 0.000000 0.000000
# 2 -0.007730 0.020690 -0.001275 0.000000 0.000000 0.000000
# 3 -0.006919 -0.001275 0.009543 0.000000 0.000000 0.000000
# 4 0.000000 0.000000 0.000000 0.069659 0.000000 0.000000
# 5 0.000000 0.000000 0.000000 0.000000 0.083188 0.000000
# 6 0.000000 0.000000 0.000000 0.000000 0.000000 0.044317
#
#
# Mechanical properties :
#
#
# Convention : Reuss Voigt Hill
#
# Bulk Modulus (GPa) = 43.05325 51.94414 47.49870
# Shear Modulus (GPa) = 17.13331 20.70118 18.91725
#
# Velocity S-wave (km/s) = 3.22515 3.54508 3.38889
# Velocity P-wave (km/s) = 6.32505 6.94924 6.64448
#
# Compressibility (1/GPa) = 0.02322705
#
# Stress axis : x y z
#
# Youngs Moduli (GPa) = 40.25538 48.33202 104.78918
#
# Poissons Ratio (x) = 0.37359 0.72506
# Poissons Ratio (y) = 0.31116 0.13358
# Poissons Ratio (z) = 0.27854 0.06161
#
# Static dielectric constant tensor:
#      x y z
#    x 1.565730 0.000000 0.000000 
#    y 0.000000 1.562300 0.000000 
#    z 0.000000 0.000000 1.651050 
# 
# From -- ./inp_files/40229.got.cif
#   From: 2010.05.17/outbox.cif.g08.bks.cpg/sg66_21_cif.got.tgz:40229.got - 2010.06.03 17:51:23.
