data_PCOD9495489
_publ_section_title
;
Structure prediction by ZEFSAII (Michael W. Deem and Ramdas Pophale) SiO2 
 PCOD9495489
Probable space group: C C C M
;
_chemical_formula_sum "Si O2"
_cell_formula_units_Z 104
_cell_length_a 13.751907
_cell_length_b 16.321008
_cell_length_c 26.310112
_cell_angle_alpha 90.000000
_cell_angle_beta 90.000000
_cell_angle_gamma 90.000000
_cell_volume 5905.172671
_symmetry_space_group_name_H-M "C C C M"
_symmetry_group_IT_number 66
_symmetry_cell_setting 'orthorhombic'
loop_
_space_group_symop_operation_xyz
x,y,z
-x,-y,z
x,-y,1/2-z
-x,y,1/2-z
-x,-y,-z
x,y,-z
-x,y,1/2+z
x,-y,1/2+z
1/2+x,1/2+y,z
1/2-x,1/2-y,z
1/2+x,1/2-y,1/2-z
1/2-x,1/2+y,1/2-z
1/2-x,1/2-y,-z
1/2+x,1/2+y,-z
1/2-x,1/2+y,1/2+z
1/2+x,1/2-y,1/2+z
loop_
_atom_site_type_symbol
_atom_site_label
_atom_site_fract_x
_atom_site_fract_y
_atom_site_fract_z
Si Si1 0.713488 0.656252 0.768668
Si Si2 0.185517 0.598354 0.363709
Si Si3 0.113245 0.509645 0.059866
Si Si4 0.648397 0.799079 0.439747
Si Si5 0.507750 0.802866 0.652796
Si Si6 0.369043 0.945187 0.204545
Si Si7 0.000000 0.815247 0.750000
O O1 0.750000 0.750000 0.762145
O O2 0.730003 0.633176 0.827911
O O3 0.781526 0.603391 0.731604
O O4 0.603021 0.640646 0.753146
O O5 0.183544 0.562813 0.420244
O O6 0.159655 0.512224 0.336560
O O7 0.099264 0.664616 0.360446
O O8 0.153457 0.602025 0.068311
O O9 0.000000 0.500000 0.079562
O O10 0.105629 0.500116 0.000000
O O11 0.622278 0.786696 0.500000
O O12 0.750000 0.750000 0.431184
O O13 0.568356 0.774669 0.396978
O O14 0.561458 0.879935 0.678842
O O15 0.502471 0.738223 0.698419
O O16 0.408139 0.000000 0.250000
#
# Coordination Sequence:
#
# PCOD9495489 Si02
#       7
#    16  16  16  16  16  16   8
#     4  11  22  37  51  75 113 149 191 232 283 349
#     4  11  20  34  53  81 110 146 186 239 286 346
#     4  10  18  32  55  84 115 147 192 244 300 352
#     4  10  22  36  54  85 122 156 193 242 303 361
#     4  12  20  32  58  81 118 144 188 242 294 350
#     4  10  20  32  50  77 109 145 184 228 284 348
#     4  12  24  36  52  84 110 158 192 234 282 358
#
# _framework density 17.611678000000001
#
# number of rings (size 3 to 8) (size 9 to 14) (size 15 to 20)
#    0.000    1.231    6.154    1.385    2.154    1.846 
#    0.000    3.462    0.000    1.385    0.000    0.000 
#    0.000    4.923    0.000    0.000    0.000    0.000 
#
# Total GULP energy -289518.591581 kJ/mol
# GULP energy per Si atom -5567.665223 kJ/mol
# Density = 1.757159 g / cm^3
# Si number density = 17.611678 Si / 1000 Ang^3
#
#
#
# Elastic Constant Matrix: (Units=GPa)
#
#
# Indices 1 2 3 4 5 6 
#
# 1 85.9965 32.7957 22.2196 0.0000 0.0000 0.0000
# 2 32.7957 43.6794 14.9854 0.0000 0.0000 0.0000
# 3 22.2196 14.9854 75.2685 0.0000 0.0000 0.0000
# 4 0.0000 0.0000 0.0000 28.7527 0.0000 0.0000
# 5 0.0000 0.0000 0.0000 0.0000 31.0261 0.0000
# 6 0.0000 0.0000 0.0000 0.0000 0.0000 48.3489
#
#
#
# Elastic Compliance Matrix: (Units=1/GPa)
#
#
# Indices 1 2 3 4 5 6 
#
# 1 0.016762 -0.011686 -0.002622 0.000000 0.000000 0.000000
# 2 -0.011686 0.032720 -0.003064 0.000000 0.000000 0.000000
# 3 -0.002622 -0.003064 0.014670 0.000000 0.000000 0.000000
# 4 0.000000 0.000000 0.000000 0.034779 0.000000 0.000000
# 5 0.000000 0.000000 0.000000 0.000000 0.032231 0.000000
# 6 0.000000 0.000000 0.000000 0.000000 0.000000 0.020683
#
#
# Mechanical properties :
#
#
# Convention : Reuss Voigt Hill
#
# Bulk Modulus (GPa) = 34.00522 38.32733 36.16627
# Shear Modulus (GPa) = 25.45922 30.62180 28.04051
#
# Velocity S-wave (km/s) = 3.80621 4.17432 3.99451
# Velocity P-wave (km/s) = 6.21825 6.71141 6.46953
#
# Compressibility (1/GPa) = 0.02940725
#
# Stress axis : x y z
#
# Youngs Moduli (GPa) = 59.65715 30.56257 68.16726
#
# Poissons Ratio (x) = 0.35716 0.17871
# Poissons Ratio (y) = 0.69717 0.20889
# Poissons Ratio (z) = 0.15640 0.09366
#
# Static dielectric constant tensor:
#      x y z
#    x 1.662280 0.000000 0.000000 
#    y 0.000000 1.611410 0.000000 
#    z 0.000000 0.000000 1.658240 
# 
# From -- ./inp_files/69169.got.cif
#   From: 2010.05.17/outbox.cif.g08.bks.cpg/sg66_35_cif.got.tgz:69169.got - 2010.06.03 17:51:23.
