data_PCOD9495083
_publ_section_title
;
Structure prediction by ZEFSAII (Michael W. Deem and Ramdas Pophale) SiO2 
 PCOD9495083
Probable space group: C C C M
;
_chemical_formula_sum "Si O2"
_cell_formula_units_Z 128
_cell_length_a 13.317149
_cell_length_b 24.816413
_cell_length_c 22.506829
_cell_angle_alpha 90.000000
_cell_angle_beta 90.000000
_cell_angle_gamma 90.000000
_cell_volume 7438.143940
_symmetry_space_group_name_H-M "C C C M"
_symmetry_group_IT_number 66
_symmetry_cell_setting 'orthorhombic'
loop_
_space_group_symop_operation_xyz
x,y,z
-x,-y,z
x,-y,1/2-z
-x,y,1/2-z
-x,-y,-z
x,y,-z
-x,y,1/2+z
x,-y,1/2+z
1/2+x,1/2+y,z
1/2-x,1/2-y,z
1/2+x,1/2-y,1/2-z
1/2-x,1/2+y,1/2-z
1/2-x,1/2-y,-z
1/2+x,1/2+y,-z
1/2-x,1/2+y,1/2+z
1/2+x,1/2-y,1/2+z
loop_
_atom_site_type_symbol
_atom_site_label
_atom_site_fract_x
_atom_site_fract_y
_atom_site_fract_z
Si Si1 0.524748 0.323748 0.064402
Si Si2 0.178376 0.874378 0.608197
Si Si3 0.674445 0.701802 0.781019
Si Si4 0.381706 0.490588 0.071777
Si Si5 0.664342 0.797000 0.932625
Si Si6 0.285451 0.808051 0.841997
Si Si7 0.714605 0.397329 0.931914
Si Si8 0.998062 0.262093 0.160365
O O1 0.413519 0.346221 0.073333
O O2 0.603188 0.371841 0.065987
O O3 0.545641 0.284686 0.118375
O O4 0.534583 0.297134 0.000000
O O5 0.178744 0.848048 0.673790
O O6 0.158395 0.937310 0.603881
O O7 0.279061 0.853156 0.577694
O O8 0.750000 0.750000 0.797839
O O9 0.712897 0.685018 0.715686
O O10 0.568339 0.731137 0.792291
O O11 0.500000 0.500000 0.086541
O O12 0.309448 0.541290 0.085968
O O13 0.378152 0.482811 0.000000
O O14 0.750000 0.750000 0.926208
O O15 0.577249 0.790749 0.884175
O O16 0.626812 0.793070 0.000000
O O17 0.250000 0.750000 0.868358
O O18 0.273939 0.857802 0.887249
O O19 0.402271 0.798619 0.822544
O O20 0.754399 0.395680 0.000000
#
# Coordination Sequence:
#
# PCOD9495083 Si02
#       8
#    16  16  16  16  16  16  16  16
#     4  10  17  28  52  81 113 148 182 223 275 337
#     4  11  18  33  53  82 117 154 185 228 285 338
#     4  10  21  39  55  83 114 145 191 235 279 333
#     4  10  19  32  56  85 115 152 192 233 286 342
#     4  11  19  29  51  85 122 150 183 231 281 334
#     4  11  24  38  56  80 109 155 191 230 289 341
#     4  10  21  37  53  81 118 148 189 235 278 344
#     4  11  20  36  53  79 116 149 185 231 280 342
#
# _framework density 17.208593
#
# number of rings (size 3 to 8) (size 9 to 14) (size 15 to 20)
#    0.000    1.500    6.250    1.500    0.000    3.250 
#    0.000    0.625    0.000    1.500    0.000    2.625 
#    7.500    0.000    0.000    0.000    0.000    0.000 
#
# Total GULP energy -356541.483757 kJ/mol
# GULP energy per Si atom -5570.960684 kJ/mol
# Density = 1.716943 g / cm^3
# Si number density = 17.208593 Si / 1000 Ang^3
#
#
#
# Elastic Constant Matrix: (Units=GPa)
#
#
# Indices 1 2 3 4 5 6 
#
# 1 79.9621 33.9179 42.0745 0.0000 0.0000 0.0000
# 2 33.9179 122.7907 47.1064 0.0000 0.0000 0.0000
# 3 42.0745 47.1064 95.6865 0.0000 0.0000 0.0000
# 4 0.0000 0.0000 0.0000 -0.1574 0.0000 0.0000
# 5 0.0000 0.0000 0.0000 0.0000 32.6024 0.0000
# 6 0.0000 0.0000 0.0000 0.0000 0.0000 27.0466
#
#
#
# Elastic Compliance Matrix: (Units=1/GPa)
#
#
# Indices 1 2 3 4 5 6 
#
# 1 0.016747 -0.002220 -0.006271 0.000000 0.000000 0.000000
# 2 -0.002220 0.010334 -0.004111 0.000000 0.000000 0.000000
# 3 -0.006271 -0.004111 0.015232 0.000000 0.000000 0.000000
# 4 0.000000 0.000000 0.000000 -6.354771 0.000000 0.000000
# 5 0.000000 0.000000 0.000000 0.000000 0.030673 0.000000
# 6 0.000000 0.000000 0.000000 0.000000 0.000000 0.036973
#
#
# Mechanical properties :
#
#
# Convention : Reuss Voigt Hill
#
# Bulk Modulus (GPa) = 58.44939 60.51523 59.48231
# Shear Modulus (GPa) = -0.80465 23.58770 11.39153
#
# Velocity S-wave (km/s) = -0.68454 3.70630 2.57566
# Velocity P-wave (km/s) = 5.78050 7.31831 6.59438
#
# Compressibility (1/GPa) = 0.01710882
#
# Stress axis : x y z
#
# Youngs Moduli (GPa) = 59.71082 96.76333 65.65024
#
# Poissons Ratio (x) = 0.21484 0.41169
# Poissons Ratio (y) = 0.13258 0.26991
# Poissons Ratio (z) = 0.37444 0.39783
#
# Static dielectric constant tensor:
#      x y z
#    x 4.313560 0.000000 0.000000 
#    y 0.000000 1.586580 0.000000 
#    z 0.000000 0.000000 1.639880 
# 
# From -- ./inp_files/57411.got.cif
#   From: 2010.05.17/outbox.cif.g08.bks.cpg/sg66_29_cif.got.tgz:57411.got - 2010.06.03 17:51:23.
