data_PCOD9495187
_publ_section_title
;
Structure prediction by ZEFSAII (Michael W. Deem and Ramdas Pophale) SiO2 
 PCOD9495187
Probable space group: C C C M
;
_chemical_formula_sum "Si O2"
_cell_formula_units_Z 112
_cell_length_a 14.833145
_cell_length_b 11.506118
_cell_length_c 31.775399
_cell_angle_alpha 90.000000
_cell_angle_beta 90.000000
_cell_angle_gamma 90.000000
_cell_volume 5423.168251
_symmetry_space_group_name_H-M "C C C M"
_symmetry_group_IT_number 66
_symmetry_cell_setting 'orthorhombic'
loop_
_space_group_symop_operation_xyz
x,y,z
-x,-y,z
x,-y,1/2-z
-x,y,1/2-z
-x,-y,-z
x,y,-z
-x,y,1/2+z
x,-y,1/2+z
1/2+x,1/2+y,z
1/2-x,1/2-y,z
1/2+x,1/2-y,1/2-z
1/2-x,1/2+y,1/2-z
1/2-x,1/2-y,-z
1/2+x,1/2+y,-z
1/2-x,1/2+y,1/2+z
1/2+x,1/2-y,1/2+z
loop_
_atom_site_type_symbol
_atom_site_label
_atom_site_fract_x
_atom_site_fract_y
_atom_site_fract_z
Si Si1 0.144594 0.277783 0.366929
Si Si2 0.939303 0.383844 0.951307
Si Si3 0.623224 0.788858 0.938050
Si Si4 0.147845 0.779480 0.342336
Si Si5 0.221145 0.949452 0.544149
Si Si6 0.899103 0.021147 0.117823
Si Si7 0.010489 0.365348 0.699783
O O1 0.250000 0.250000 0.364722
O O2 0.120745 0.348885 0.410351
O O3 0.098215 0.151449 0.366304
O O4 0.102699 0.334654 0.324960
O O5 0.000000 0.500000 0.943709
O O6 0.019826 0.289194 0.950041
O O7 0.903869 0.384652 0.000000
O O8 0.638600 0.777441 0.888524
O O9 0.676320 0.905490 0.951451
O O10 0.669292 0.673783 0.955837
O O11 0.250000 0.750000 0.327768
O O12 0.069963 0.716759 0.316566
O O13 0.127687 0.916954 0.349968
O O14 0.207654 0.011106 0.500000
O O15 0.178029 0.016686 0.582430
O O16 0.000000 0.000000 0.100854
O O17 0.000000 0.500000 0.688226
O O18 0.000000 0.356898 0.750000
#
# Coordination Sequence:
#
# PCOD9495187 Si02
#       7
#    16  16  16  16  16  16  16
#     4  12  27  43  68  98 145 180 221 285 354 408
#     4  11  24  40  62  91 131 190 245 283 334 404
#     4  10  17  34  58  88 118 166 225 274 321 372
#     4  11  21  40  72  97 128 170 219 271 332 402
#     4  10  19  30  54  88 124 161 220 285 318 364
#     4  11  22  40  60  95 128 178 224 263 338 409
#     4  11  26  49  76 103 131 168 220 274 338 419
#
# _framework density 20.652135000000001
#
# number of rings (size 3 to 8) (size 9 to 14) (size 15 to 20)
#    0.000    1.143    5.714    3.000    4.000    1.714 
#    0.000    1.429    0.000    0.000    0.000    0.000 
#    0.000    0.000    0.000    0.000    0.000    0.000 
#
# Total GULP energy -312297.142254 kJ/mol
# GULP energy per Si atom -5576.734683 kJ/mol
# Density = 2.060513 g / cm^3
# Si number density = 20.652135 Si / 1000 Ang^3
#
#
#
# Elastic Constant Matrix: (Units=GPa)
#
#
# Indices 1 2 3 4 5 6 
#
# 1 125.1080 15.1935 36.6183 0.0000 0.0000 0.0000
# 2 15.1935 89.2289 34.8341 0.0000 0.0000 0.0000
# 3 36.6183 34.8341 61.4070 0.0000 0.0000 0.0000
# 4 0.0000 0.0000 0.0000 56.4333 0.0000 0.0000
# 5 0.0000 0.0000 0.0000 0.0000 17.2287 0.0000
# 6 0.0000 0.0000 0.0000 0.0000 0.0000 31.0093
#
#
#
# Elastic Compliance Matrix: (Units=1/GPa)
#
#
# Indices 1 2 3 4 5 6 
#
# 1 0.009725 0.000781 -0.006242 0.000000 0.000000 0.000000
# 2 0.000781 0.014458 -0.008667 0.000000 0.000000 0.000000
# 3 -0.006242 -0.008667 0.024924 0.000000 0.000000 0.000000
# 4 0.000000 0.000000 0.000000 0.017720 0.000000 0.000000
# 5 0.000000 0.000000 0.000000 0.000000 0.058043 0.000000
# 6 0.000000 0.000000 0.000000 0.000000 0.000000 0.032248
#
#
# Mechanical properties :
#
#
# Convention : Reuss Voigt Hill
#
# Bulk Modulus (GPa) = 47.96210 49.89287 48.92749
# Shear Modulus (GPa) = 25.99764 33.54079 29.76922
#
# Velocity S-wave (km/s) = 3.55186 4.03436 3.80077
# Velocity P-wave (km/s) = 6.33207 6.77588 6.55773
#
# Compressibility (1/GPa) = 0.02084979
#
# Stress axis : x y z
#
# Youngs Moduli (GPa) = 102.82373 69.16738 40.12219
#
# Poissons Ratio (x) = -0.05402 0.25046
# Poissons Ratio (y) = -0.08031 0.34774
# Poissons Ratio (z) = 0.64188 0.59948
#
# Static dielectric constant tensor:
#      x y z
#    x 1.808230 0.000000 0.000000 
#    y 0.000000 1.765940 0.000000 
#    z 0.000000 0.000000 1.792670 
# 
# From -- ./inp_files/69547.got.cif
#   From: 2010.05.17/outbox.cif.g08.bks.cpg/sg66_35_cif.got.tgz:69547.got - 2010.06.03 17:51:23.
