data_PCOD9495324
_publ_section_title
;
Structure prediction by ZEFSAII (Michael W. Deem and Ramdas Pophale) SiO2 
 PCOD9495324
Probable space group: C C C M
;
_chemical_formula_sum "Si O2"
_cell_formula_units_Z 112
_cell_length_a 28.097109
_cell_length_b 12.173912
_cell_length_c 13.983122
_cell_angle_alpha 90.000000
_cell_angle_beta 90.000000
_cell_angle_gamma 90.000000
_cell_volume 4782.951105
_symmetry_space_group_name_H-M "C C C M"
_symmetry_group_IT_number 66
_symmetry_cell_setting 'orthorhombic'
loop_
_space_group_symop_operation_xyz
x,y,z
-x,-y,z
x,-y,1/2-z
-x,y,1/2-z
-x,-y,-z
x,y,-z
-x,y,1/2+z
x,-y,1/2+z
1/2+x,1/2+y,z
1/2-x,1/2-y,z
1/2+x,1/2-y,1/2-z
1/2-x,1/2+y,1/2-z
1/2-x,1/2-y,-z
1/2+x,1/2+y,-z
1/2-x,1/2+y,1/2+z
1/2+x,1/2-y,1/2+z
loop_
_atom_site_type_symbol
_atom_site_label
_atom_site_fract_x
_atom_site_fract_y
_atom_site_fract_z
Si Si1 0.586355 0.292383 0.882396
Si Si2 0.551784 0.037307 0.358874
Si Si3 0.019605 0.773457 0.385362
Si Si4 0.089267 0.045017 0.883244
Si Si5 0.645879 0.096813 0.892573
Si Si6 0.816765 0.827338 0.883512
Si Si7 0.214816 0.412512 0.882976
O O1 0.533899 0.254027 0.849581
O O2 0.591542 0.418684 0.854583
O O3 0.626611 0.208927 0.846738
O O4 0.587242 0.286580 0.000000
O O5 0.552350 0.168213 0.367415
O O6 0.500000 0.000000 0.398377
O O7 0.551855 0.000000 0.250000
O O8 0.598654 0.979766 0.399374
O O9 0.015440 0.782818 0.500000
O O10 0.043224 0.886242 0.351821
O O11 0.135637 0.112274 0.853154
O O12 0.088263 0.044119 0.000000
O O13 0.687651 0.022081 0.850917
O O14 0.661494 0.125896 0.000000
O O15 0.811854 0.700130 0.854645
O O16 0.769437 0.893873 0.853789
O O17 0.816621 0.826767 0.000000
O O18 0.213881 0.415190 0.000000
#
# Coordination Sequence:
#
# PCOD9495324 Si02
#       7
#    16  16  16  16  16  16  16
#     4   9  17  27  41  66  98 128 162 201 234 276
#     4  11  22  33  46  68  97 124 154 197 241 287
#     4  10  18  30  49  70  95 130 166 199 237 285
#     4   9  16  26  43  69  99 129 161 199 241 282
#     4  10  18  30  48  69  96 128 160 196 242 292
#     4   8  13  23  38  61  97 128 152 195 243 283
#     4   8  14  24  41  65  93 125 158 194 240 288
#
# _framework density 23.416506999999999
#
# number of rings (size 3 to 8) (size 9 to 14) (size 15 to 20)
#    0.000    2.714    1.429    2.571    0.000    4.571 
#    0.000    0.714    0.000    5.143    0.000    0.000 
#   17.143    0.000    0.000    0.000    0.000    0.000 
#
# Total GULP energy -313030.005498 kJ/mol
# GULP energy per Si atom -5589.821527 kJ/mol
# Density = 2.336321 g / cm^3
# Si number density = 23.416507 Si / 1000 Ang^3
#
#
#
# Elastic Constant Matrix: (Units=GPa)
#
#
# Indices 1 2 3 4 5 6 
#
# 1 59.5599 39.1475 9.7363 0.0000 0.0000 0.0000
# 2 39.1475 160.5335 -1.9073 0.0000 0.0000 0.0000
# 3 9.7363 -1.9073 70.1833 0.0000 0.0000 0.0000
# 4 0.0000 0.0000 0.0000 7.3773 0.0000 0.0000
# 5 0.0000 0.0000 0.0000 0.0000 2.0639 0.0000
# 6 0.0000 0.0000 0.0000 0.0000 0.0000 41.5530
#
#
#
# Elastic Compliance Matrix: (Units=1/GPa)
#
#
# Indices 1 2 3 4 5 6 
#
# 1 0.020606 -0.005060 -0.002996 0.000000 0.000000 0.000000
# 2 -0.005060 0.007474 0.000905 0.000000 0.000000 0.000000
# 3 -0.002996 0.000905 0.014689 0.000000 0.000000 0.000000
# 4 0.000000 0.000000 0.000000 0.135551 0.000000 0.000000
# 5 0.000000 0.000000 0.000000 0.000000 0.484518 0.000000
# 6 0.000000 0.000000 0.000000 0.000000 0.000000 0.024066
#
#
# Mechanical properties :
#
#
# Convention : Reuss Voigt Hill
#
# Bulk Modulus (GPa) = 35.13021 42.69219 38.91120
# Shear Modulus (GPa) = 7.03537 26.41886 16.72712
#
# Velocity S-wave (km/s) = 1.73522 3.36254 2.67559
# Velocity P-wave (km/s) = 4.36458 5.77467 5.11841
#
# Compressibility (1/GPa) = 0.02846553
#
# Stress axis : x y z
#
# Youngs Moduli (GPa) = 48.53015 133.79669 68.07985
#
# Poissons Ratio (x) = 0.67708 0.20397
# Poissons Ratio (y) = 0.24559 -0.06162
# Poissons Ratio (z) = 0.14540 -0.12110
#
# Static dielectric constant tensor:
#      x y z
#    x 1.850890 0.000000 0.000000 
#    y 0.000000 1.852760 0.000000 
#    z 0.000000 0.000000 1.906370 
# 
# From -- ./inp_files/53138.got.cif
#   From: 2010.05.17/outbox.cif.g08.bks.cpg/sg66_27_cif.got.tgz:53138.got - 2010.06.03 17:51:23.
