data_PCOD9495163
_publ_section_title
;
Structure prediction by ZEFSAII (Michael W. Deem and Ramdas Pophale) SiO2 
 PCOD9495163
Probable space group: C C C M
;
_chemical_formula_sum "Si O2"
_cell_formula_units_Z 120
_cell_length_a 13.907891
_cell_length_b 13.528789
_cell_length_c 30.328868
_cell_angle_alpha 90.000000
_cell_angle_beta 90.000000
_cell_angle_gamma 90.000000
_cell_volume 5706.586474
_symmetry_space_group_name_H-M "C C C M"
_symmetry_group_IT_number 66
_symmetry_cell_setting 'orthorhombic'
loop_
_space_group_symop_operation_xyz
x,y,z
-x,-y,z
x,-y,1/2-z
-x,y,1/2-z
-x,-y,-z
x,y,-z
-x,y,1/2+z
x,-y,1/2+z
1/2+x,1/2+y,z
1/2-x,1/2-y,z
1/2+x,1/2-y,1/2-z
1/2-x,1/2+y,1/2-z
1/2-x,1/2-y,-z
1/2+x,1/2+y,-z
1/2-x,1/2+y,1/2+z
1/2+x,1/2-y,1/2+z
loop_
_atom_site_type_symbol
_atom_site_label
_atom_site_fract_x
_atom_site_fract_y
_atom_site_fract_z
Si Si1 0.250000 0.250000 0.119407
Si Si2 0.429940 0.595536 0.048346
Si Si3 0.719995 0.049442 0.327527
Si Si4 0.154566 0.316067 0.243552
Si Si5 0.404184 0.568206 0.145472
Si Si6 0.569464 0.078007 0.393648
Si Si7 0.981227 0.722483 0.680152
Si Si8 0.603210 0.257004 0.549991
O O1 0.269102 0.159201 0.151259
O O2 0.327557 0.300984 0.086949
O O3 0.500000 0.500000 0.046652
O O4 0.374057 0.583811 0.094127
O O5 0.499672 0.690962 0.052833
O O6 0.381124 0.600268 0.000000
O O7 0.681679 0.081481 0.280048
O O8 0.639455 0.014104 0.362075
O O9 0.815997 0.984946 0.329582
O O10 0.250000 0.250000 0.249219
O O11 0.099135 0.329879 0.289589
O O12 0.075373 0.263974 0.211393
O O13 0.500000 0.500000 0.146464
O O14 0.436832 0.673361 0.165119
O O15 0.517034 0.156383 0.360785
O O16 0.609074 0.144634 0.433101
O O17 0.500000 0.000000 0.414730
O O18 0.635781 0.269590 0.500000
#
# Coordination Sequence:
#
# PCOD9495163 Si02
#       8
#     8  16  16  16  16  16  16  16
#     4  10  17  32  56  84 126 156 190 242 311 374
#     4   9  17  29  51  86 126 159 192 237 304 379
#     4  10  21  35  62  86 118 159 200 246 312 365
#     4  10  20  39  61  83 118 159 195 252 316 367
#     4  11  20  34  60  95 125 161 200 251 320 385
#     4  10  22  41  58  79 114 164 214 252 296 358
#     4  10  22  39  60  85 119 162 205 258 314 373
#     4  10  19  32  56  89 120 159 200 247 300 363
#
# _framework density 21.028331999999999
#
# number of rings (size 3 to 8) (size 9 to 14) (size 15 to 20)
#    0.000    2.000    2.000    2.600    1.867    1.333 
#    0.000   15.333    0.000    0.000    0.000    1.867 
#    0.000    0.000    0.000    0.000    0.000    0.000 
#
# Total GULP energy -334316.801208 kJ/mol
# GULP energy per Si atom -5571.946687 kJ/mol
# Density = 2.098047 g / cm^3
# Si number density = 21.028332 Si / 1000 Ang^3
#
#
#
# Elastic Constant Matrix: (Units=GPa)
#
#
# Indices 1 2 3 4 5 6 
#
# 1 74.6237 27.7465 17.7736 0.0000 0.0000 0.0000
# 2 27.7465 51.2392 27.5546 0.0000 0.0000 0.0000
# 3 17.7736 27.5546 91.1596 0.0000 0.0000 0.0000
# 4 0.0000 0.0000 0.0000 -42.4394 0.0000 0.0000
# 5 0.0000 0.0000 0.0000 0.0000 27.0539 0.0000
# 6 0.0000 0.0000 0.0000 0.0000 0.0000 34.7174
#
#
#
# Elastic Compliance Matrix: (Units=1/GPa)
#
#
# Indices 1 2 3 4 5 6 
#
# 1 0.016809 -0.008764 -0.000628 0.000000 0.000000 0.000000
# 2 -0.008764 0.027874 -0.006717 0.000000 0.000000 0.000000
# 3 -0.000628 -0.006717 0.013122 0.000000 0.000000 0.000000
# 4 0.000000 0.000000 0.000000 -0.023563 0.000000 0.000000
# 5 0.000000 0.000000 0.000000 0.000000 0.036963 0.000000
# 6 0.000000 0.000000 0.000000 0.000000 0.000000 0.028804
#
#
# Mechanical properties :
#
#
# Convention : Reuss Voigt Hill
#
# Bulk Modulus (GPa) = 39.08183 40.35243 39.71713
# Shear Modulus (GPa) = 35.52213 13.46291 24.49252
#
# Velocity S-wave (km/s) = 4.11451 2.53302 3.41653
# Velocity P-wave (km/s) = 6.41856 5.27125 5.87299
#
# Compressibility (1/GPa) = 0.02558734
#
# Stress axis : x y z
#
# Youngs Moduli (GPa) = 59.49219 35.87538 76.20525
#
# Poissons Ratio (x) = 0.31443 0.04786
# Poissons Ratio (y) = 0.52141 0.51184
# Poissons Ratio (z) = 0.03737 0.24096
#
# Static dielectric constant tensor:
#      x y z
#    x 1.910440 0.000000 0.000000 
#    y 0.000000 1.756570 0.000000 
#    z 0.000000 0.000000 1.782620 
# 
# From -- ./inp_files/69667.got.cif
#   From: 2010.05.17/outbox.cif.g08.bks.cpg/sg66_35_cif.got.tgz:69667.got - 2010.06.03 17:51:23.
