data_PCOD9495819
_publ_section_title
;
Structure prediction by ZEFSAII (Michael W. Deem and Ramdas Pophale) SiO2 
 PCOD9495819
Probable space group: C C C M
;
_chemical_formula_sum "Si O2"
_cell_formula_units_Z 112
_cell_length_a 22.598557
_cell_length_b 21.042021
_cell_length_c 15.896343
_cell_angle_alpha 90.000000
_cell_angle_beta 90.000000
_cell_angle_gamma 90.000000
_cell_volume 7559.018070
_symmetry_space_group_name_H-M "C C C M"
_symmetry_group_IT_number 66
_symmetry_cell_setting 'orthorhombic'
loop_
_space_group_symop_operation_xyz
x,y,z
-x,-y,z
x,-y,1/2-z
-x,y,1/2-z
-x,-y,-z
x,y,-z
-x,y,1/2+z
x,-y,1/2+z
1/2+x,1/2+y,z
1/2-x,1/2-y,z
1/2+x,1/2-y,1/2-z
1/2-x,1/2+y,1/2-z
1/2-x,1/2-y,-z
1/2+x,1/2+y,-z
1/2-x,1/2+y,1/2+z
1/2+x,1/2-y,1/2+z
loop_
_atom_site_type_symbol
_atom_site_label
_atom_site_fract_x
_atom_site_fract_y
_atom_site_fract_z
Si Si1 0.115708 0.367617 0.403099
Si Si2 0.283440 0.038633 0.663012
Si Si3 0.247910 0.409261 0.090850
Si Si4 0.381357 0.844185 0.596300
Si Si5 0.345288 0.224591 0.739759
Si Si6 0.506016 0.925323 0.850980
Si Si7 0.219480 0.150603 0.742895
O O1 0.130535 0.353068 0.500000
O O2 0.159130 0.423915 0.369928
O O3 0.123850 0.308914 0.339344
O O4 0.048776 0.390913 0.394855
O O5 0.233700 0.091855 0.681610
O O6 0.297013 0.000000 0.750000
O O7 0.260298 0.984370 0.601700
O O8 0.181738 0.380312 0.098136
O O9 0.286252 0.380172 0.165290
O O10 0.271920 0.392236 0.000000
O O11 0.389540 0.820550 0.500000
O O12 0.377258 0.792861 0.672026
O O13 0.432874 0.894175 0.618725
O O14 0.281164 0.189928 0.744075
O O15 0.331710 0.298761 0.726239
O O16 0.500000 0.917487 0.750000
O O17 0.500000 0.000000 0.869574
#
# Coordination Sequence:
#
# PCOD9495819 Si02
#       7
#    16  16  16  16  16  16  16
#     4  11  21  31  44  61  85 117 150 181 214 250
#     4   9  17  28  44  61  84 115 141 176 217 256
#     4   9  16  26  43  65  86 107 140 179 218 260
#     4  10  19  31  45  62  84 114 148 184 220 251
#     4   9  17  32  43  59  80 110 146 186 214 251
#     4  11  22  31  45  62  86 116 148 185 220 248
#     4   8  16  28  44  57  81 109 142 178 220 252
#
# _framework density 14.816739
#
# number of rings (size 3 to 8) (size 9 to 14) (size 15 to 20)
#    0.000    2.429    1.429    2.571    2.000    2.857 
#    0.000    9.286    0.000    0.000    0.000    0.000 
#    0.000    0.000    0.000   23.143    0.000   44.286 
#
# Total GULP energy -311885.701692 kJ/mol
# GULP energy per Si atom -5569.387530 kJ/mol
# Density = 1.478302 g / cm^3
# Si number density = 14.816739 Si / 1000 Ang^3
#
#
#
# Elastic Constant Matrix: (Units=GPa)
#
#
# Indices 1 2 3 4 5 6 
#
# 1 25.2012 16.0116 17.5214 0.0000 0.0000 0.0000
# 2 16.0116 50.4612 24.0925 0.0000 0.0000 0.0000
# 3 17.5214 24.0925 86.5892 0.0000 0.0000 0.0000
# 4 0.0000 0.0000 0.0000 4.8751 0.0000 0.0000
# 5 0.0000 0.0000 0.0000 0.0000 6.6472 0.0000
# 6 0.0000 0.0000 0.0000 0.0000 0.0000 21.8622
#
#
#
# Elastic Compliance Matrix: (Units=1/GPa)
#
#
# Indices 1 2 3 4 5 6 
#
# 1 0.053131 -0.013522 -0.006989 0.000000 0.000000 0.000000
# 2 -0.013522 0.026294 -0.004580 0.000000 0.000000 0.000000
# 3 -0.006989 -0.004580 0.014237 0.000000 0.000000 0.000000
# 4 0.000000 0.000000 0.000000 0.205122 0.000000 0.000000
# 5 0.000000 0.000000 0.000000 0.000000 0.150440 0.000000
# 6 0.000000 0.000000 0.000000 0.000000 0.000000 0.045741
#
#
# Mechanical properties :
#
#
# Convention : Reuss Voigt Hill
#
# Bulk Modulus (GPa) = 22.99844 30.83363 26.91604
# Shear Modulus (GPa) = 8.93430 13.65197 11.29314
#
# Velocity S-wave (km/s) = 2.45824 3.03873 2.76377
# Velocity P-wave (km/s) = 4.85931 5.75908 5.32822
#
# Compressibility (1/GPa) = 0.04348121
#
# Stress axis : x y z
#
# Youngs Moduli (GPa) = 18.82148 38.03078 70.23807
#
# Poissons Ratio (x) = 0.51425 0.49088
# Poissons Ratio (y) = 0.25450 0.32169
# Poissons Ratio (z) = 0.13154 0.17418
#
# Static dielectric constant tensor:
#      x y z
#    x 1.464690 0.000000 0.000000 
#    y 0.000000 1.493070 0.000000 
#    z 0.000000 0.000000 1.537590 
# 
# From -- ./inp_files/41990.got.cif
#   From: 2010.05.17/outbox.cif.g08.bks.cpg/sg66_21_cif.got.tgz:41990.got - 2010.06.03 17:51:23.
