data_PCOD9495462
_publ_section_title
;
Structure prediction by ZEFSAII (Michael W. Deem and Ramdas Pophale) SiO2 
 PCOD9495462
Probable space group: C C C M
;
_chemical_formula_sum "Si O2"
_cell_formula_units_Z 104
_cell_length_a 18.477903
_cell_length_b 16.421736
_cell_length_c 15.805430
_cell_angle_alpha 90.000000
_cell_angle_beta 90.000000
_cell_angle_gamma 90.000000
_cell_volume 4795.987745
_symmetry_space_group_name_H-M "C C C M"
_symmetry_group_IT_number 66
_symmetry_cell_setting 'orthorhombic'
loop_
_space_group_symop_operation_xyz
x,y,z
-x,-y,z
x,-y,1/2-z
-x,y,1/2-z
-x,-y,-z
x,y,-z
-x,y,1/2+z
x,-y,1/2+z
1/2+x,1/2+y,z
1/2-x,1/2-y,z
1/2+x,1/2-y,1/2-z
1/2-x,1/2+y,1/2-z
1/2-x,1/2-y,-z
1/2+x,1/2+y,-z
1/2-x,1/2+y,1/2+z
1/2+x,1/2-y,1/2+z
loop_
_atom_site_type_symbol
_atom_site_label
_atom_site_fract_x
_atom_site_fract_y
_atom_site_fract_z
Si Si1 0.574584 0.763594 0.903236
Si Si2 0.856823 0.103384 0.401623
Si Si3 0.047362 0.822934 0.827902
Si Si4 0.697463 0.674072 0.597176
Si Si5 0.569976 0.948571 0.896181
Si Si6 0.272227 0.993286 0.103412
Si Si7 0.500000 0.500000 0.636899
O O1 0.624560 0.692018 0.863887
O O2 0.496485 0.719613 0.903670
O O3 0.569777 0.854233 0.867147
O O4 0.599343 0.775009 0.000000
O O5 0.840451 0.116846 0.500000
O O6 0.929264 0.046750 0.400916
O O7 0.787583 0.057787 0.364553
O O8 0.130515 0.807105 0.842556
O O9 0.000000 0.790045 0.750000
O O10 0.039272 0.921010 0.823757
O O11 0.670553 0.657594 0.500000
O O12 0.750000 0.750000 0.593774
O O13 0.741841 0.595107 0.625504
O O14 0.500000 0.000000 0.868172
O O15 0.646193 0.988131 0.869686
O O16 0.567645 0.948528 0.000000
O O17 0.272710 0.996553 0.000000
#
# Coordination Sequence:
#
# PCOD9495462 Si02
#       7
#    16  16  16  16  16  16   8
#     4   9  19  33  53  82 111 148 191 238 291 346
#     4   9  16  27  48  78 111 142 182 236 292 348
#     4  11  22  36  58  83 119 155 195 240 295 362
#     4  10  21  36  60  92 121 152 196 250 301 353
#     4   9  18  31  50  79 114 147 186 236 290 347
#     4   9  17  30  50  81 114 143 182 238 293 341
#     4  10  18  32  52  78 113 154 187 232 291 366
#
# _framework density 21.684794
#
# number of rings (size 3 to 8) (size 9 to 14) (size 15 to 20)
#    0.000    2.462    1.538    0.923    2.154    1.846 
#    0.000    3.077    6.769    0.462    0.000    0.000 
#    0.000    0.000    0.000    0.000    0.000    0.000 
#
# Total GULP energy -289521.504640 kJ/mol
# GULP energy per Si atom -5567.721243 kJ/mol
# Density = 2.163544 g / cm^3
# Si number density = 21.684794 Si / 1000 Ang^3
#
#
#
# Elastic Constant Matrix: (Units=GPa)
#
#
# Indices 1 2 3 4 5 6 
#
# 1 183.2850 87.6473 18.0836 0.0000 0.0000 0.0000
# 2 87.6473 142.5532 13.3940 0.0000 0.0000 0.0000
# 3 18.0836 13.3940 37.6538 0.0000 0.0000 0.0000
# 4 0.0000 0.0000 0.0000 0.4284 0.0000 0.0000
# 5 0.0000 0.0000 0.0000 0.0000 9.1810 0.0000
# 6 0.0000 0.0000 0.0000 0.0000 0.0000 21.4626
#
#
#
# Elastic Compliance Matrix: (Units=1/GPa)
#
#
# Indices 1 2 3 4 5 6 
#
# 1 0.007891 -0.004651 -0.002135 0.000000 0.000000 0.000000
# 2 -0.004651 0.009999 -0.001323 0.000000 0.000000 0.000000
# 3 -0.002135 -0.001323 0.028054 0.000000 0.000000 0.000000
# 4 0.000000 0.000000 0.000000 2.334239 0.000000 0.000000
# 5 0.000000 0.000000 0.000000 0.000000 0.108920 0.000000
# 6 0.000000 0.000000 0.000000 0.000000 0.000000 0.046593
#
#
# Mechanical properties :
#
#
# Convention : Reuss Voigt Hill
#
# Bulk Modulus (GPa) = 33.64171 66.86020 50.25095
# Shear Modulus (GPa) = 1.95174 22.50556 12.22865
#
# Velocity S-wave (km/s) = 0.94974 3.22506 2.37729
# Velocity P-wave (km/s) = 4.09271 6.69087 5.54608
#
# Compressibility (1/GPa) = 0.02972500
#
# Stress axis : x y z
#
# Youngs Moduli (GPa) = 126.73116 100.01208 35.64572
#
# Poissons Ratio (x) = 0.46515 0.07611
# Poissons Ratio (y) = 0.58941 0.04716
# Poissons Ratio (z) = 0.27060 0.13233
#
# Static dielectric constant tensor:
#      x y z
#    x 1.767560 0.000000 0.000000 
#    y 0.000000 1.773220 0.000000 
#    z 0.000000 0.000000 1.920640 
# 
# From -- ./inp_files/51116.got.cif
#   From: 2010.05.17/outbox.cif.g08.bks.cpg/sg66_26_cif.got.tgz:51116.got - 2010.06.03 17:51:23.
