data_PCOD9495968
_publ_section_title
;
Structure prediction by ZEFSAII (Michael W. Deem and Ramdas Pophale) SiO2 
 PCOD9495968
Probable space group: C C C M
;
_chemical_formula_sum "Si O2"
_cell_formula_units_Z 112
_cell_length_a 32.797940
_cell_length_b 12.310692
_cell_length_c 14.725467
_cell_angle_alpha 90.000000
_cell_angle_beta 90.000000
_cell_angle_gamma 90.000000
_cell_volume 5945.633154
_symmetry_space_group_name_H-M "C C C M"
_symmetry_group_IT_number 66
_symmetry_cell_setting 'orthorhombic'
loop_
_space_group_symop_operation_xyz
x,y,z
-x,-y,z
x,-y,1/2-z
-x,y,1/2-z
-x,-y,-z
x,y,-z
-x,y,1/2+z
x,-y,1/2+z
1/2+x,1/2+y,z
1/2-x,1/2-y,z
1/2+x,1/2-y,1/2-z
1/2-x,1/2+y,1/2-z
1/2-x,1/2-y,-z
1/2+x,1/2+y,-z
1/2-x,1/2+y,1/2+z
1/2+x,1/2-y,1/2+z
loop_
_atom_site_type_symbol
_atom_site_label
_atom_site_fract_x
_atom_site_fract_y
_atom_site_fract_z
Si Si1 0.954620 0.724448 0.239832
Si Si2 0.259029 0.378488 0.398244
Si Si3 0.168700 0.466945 0.607254
Si Si4 0.838778 0.117251 0.213039
Si Si5 0.961710 0.925840 0.106202
Si Si6 0.085557 0.137380 0.603055
Si Si7 0.865276 0.659621 0.779397
O O1 0.958388 0.820036 0.165931
O O2 0.940824 0.786448 0.331561
O O3 0.914535 0.655647 0.213409
O O4 0.000000 0.674631 0.250000
O O5 0.273865 0.408352 0.500000
O O6 0.250000 0.250000 0.399262
O O7 0.216886 0.442315 0.382388
O O8 0.292910 0.393390 0.321941
O O9 0.158770 0.451452 0.500000
O O10 0.146791 0.387963 0.680092
O O11 0.155825 0.585283 0.644389
O O12 0.867399 0.148161 0.128072
O O13 0.848692 0.216544 0.281259
O O14 0.851165 0.000000 0.250000
O O15 0.925196 0.010857 0.117387
O O16 0.966062 0.898226 0.000000
O O17 0.000000 0.000000 0.133296
O O18 0.076265 0.164430 0.500000
#
# Coordination Sequence:
#
# PCOD9495968 Si02
#       7
#    16  16  16  16  16  16  16
#     4  11  21  34  56  83 120 156 202 268 311 367
#     4  10  20  36  62  92 116 153 204 257 308 359
#     4  10  22  44  68  87 119 163 214 265 310 370
#     4  11  22  35  58  93 131 162 196 251 310 372
#     4  10  19  32  52  80 117 166 207 242 306 380
#     4  10  20  33  50  78 118 164 208 245 297 365
#     4  10  23  40  62  94 118 166 216 248 321 375
#
# _framework density 18.837354000000001
#
# number of rings (size 3 to 8) (size 9 to 14) (size 15 to 20)
#    0.000    1.714    2.857    2.571    2.000    2.857 
#    0.000    2.857    0.000    2.571    0.000    0.000 
#    0.000    0.000    0.000    0.000    0.000    0.000 
#
# Total GULP energy -312298.322149 kJ/mol
# GULP energy per Si atom -5576.755753 kJ/mol
# Density = 1.879448 g / cm^3
# Si number density = 18.837354 Si / 1000 Ang^3
#
#
#
# Elastic Constant Matrix: (Units=GPa)
#
#
# Indices 1 2 3 4 5 6 
#
# 1 119.5621 22.7450 36.3557 0.0000 0.0000 0.0000
# 2 22.7450 70.9596 16.2205 0.0000 0.0000 0.0000
# 3 36.3557 16.2205 65.9280 0.0000 0.0000 0.0000
# 4 0.0000 0.0000 0.0000 -18.0960 0.0000 0.0000
# 5 0.0000 0.0000 0.0000 0.0000 16.4301 0.0000
# 6 0.0000 0.0000 0.0000 0.0000 0.0000 21.6744
#
#
#
# Elastic Compliance Matrix: (Units=1/GPa)
#
#
# Indices 1 2 3 4 5 6 
#
# 1 0.010344 -0.002132 -0.005180 0.000000 0.000000 0.000000
# 2 -0.002132 0.015372 -0.002606 0.000000 0.000000 0.000000
# 3 -0.005180 -0.002606 0.018666 0.000000 0.000000 0.000000
# 4 0.000000 0.000000 0.000000 -0.055261 0.000000 0.000000
# 5 0.000000 0.000000 0.000000 0.000000 0.060864 0.000000
# 6 0.000000 0.000000 0.000000 0.000000 0.000000 0.046137
#
#
# Mechanical properties :
#
#
# Convention : Reuss Voigt Hill
#
# Bulk Modulus (GPa) = 40.74026 45.23246 42.98636
# Shear Modulus (GPa) = 40.27708 16.07695 28.17701
#
# Velocity S-wave (km/s) = 4.62903 2.92458 3.87176
# Velocity P-wave (km/s) = 7.08836 5.95554 6.54650
#
# Compressibility (1/GPa) = 0.02454574
#
# Stress axis : x y z
#
# Youngs Moduli (GPa) = 96.67016 65.05500 53.57401
#
# Poissons Ratio (x) = 0.13868 0.27751
# Poissons Ratio (y) = 0.20607 0.13964
# Poissons Ratio (z) = 0.50074 0.16956
#
# Static dielectric constant tensor:
#      x y z
#    x 1.706180 0.000000 0.000000 
#    y 0.000000 1.671350 0.000000 
#    z 0.000000 0.000000 1.651160 
# 
# From -- ./inp_files/33793.got.cif
#   From: 2010.05.17/outbox.cif.g08.bks.cpg/sg66_17_cif.got.tgz:33793.got - 2010.06.03 17:51:23.
