data_PCOD9495720
_publ_section_title
;
Structure prediction by ZEFSAII (Michael W. Deem and Ramdas Pophale) SiO2 
 PCOD9495720
Probable space group: C C C M
;
_chemical_formula_sum "Si O2"
_cell_formula_units_Z 96
_cell_length_a 31.945145
_cell_length_b 27.909939
_cell_length_c 9.000120
_cell_angle_alpha 90.000000
_cell_angle_beta 90.000000
_cell_angle_gamma 90.000000
_cell_volume 8024.390425
_symmetry_space_group_name_H-M "C C C M"
_symmetry_group_IT_number 66
_symmetry_cell_setting 'orthorhombic'
loop_
_space_group_symop_operation_xyz
x,y,z
-x,-y,z
x,-y,1/2-z
-x,y,1/2-z
-x,-y,-z
x,y,-z
-x,y,1/2+z
x,-y,1/2+z
1/2+x,1/2+y,z
1/2-x,1/2-y,z
1/2+x,1/2-y,1/2-z
1/2-x,1/2+y,1/2-z
1/2-x,1/2-y,-z
1/2+x,1/2+y,-z
1/2-x,1/2+y,1/2+z
1/2+x,1/2-y,1/2+z
loop_
_atom_site_type_symbol
_atom_site_label
_atom_site_fract_x
_atom_site_fract_y
_atom_site_fract_z
Si Si1 0.250836 0.863949 0.670954
Si Si2 0.202821 0.551861 0.175990
Si Si3 0.706341 0.280255 0.828258
Si Si4 0.954646 0.551260 0.821162
Si Si5 0.337884 0.803535 0.328918
Si Si6 0.117284 0.388431 0.323911
O O1 0.239648 0.872709 0.500000
O O2 0.262690 0.912689 0.754354
O O3 0.216882 0.830619 0.751463
O O4 0.293909 0.832866 0.671905
O O5 0.203375 0.500000 0.250000
O O6 0.157686 0.577213 0.200504
O O7 0.208947 0.547965 0.000000
O O8 0.750000 0.250000 0.825145
O O9 0.672918 0.247634 0.742286
O O10 0.694818 0.286318 0.000000
O O11 0.941915 0.500000 0.750000
O O12 0.920975 0.590007 0.768525
O O13 0.000000 0.561967 0.750000
O O14 0.957110 0.547705 0.000000
O O15 0.351287 0.799420 0.500000
O O16 0.369277 0.836106 0.233861
O O17 0.108336 0.387998 0.500000
#
# Coordination Sequence:
#
# PCOD9495720 Si02
#       6
#    16  16  16  16  16  16
#     4   9  16  25  36  49  66  87 111 137 165 199
#     4  10  19  28  38  51  68  89 113 141 173 208
#     4   9  15  23  35  50  68  88 109 133 162 197
#     4  11  21  33  46  58  71  88 111 139 172 211
#     4   9  16  25  37  53  70  88 109 133 164 201
#     4  10  19  30  42  56  72  89 110 138 173 211
#
# _framework density 11.963526
#
# number of rings (size 3 to 8) (size 9 to 14) (size 15 to 20)
#    0.000    2.333    0.000    5.000    0.000    9.333 
#    0.000    0.000    0.000    0.000    0.000    0.000 
#    0.000    0.000    0.000    0.000    0.000    0.000 
#
# Total GULP energy -267549.770902 kJ/mol
# GULP energy per Si atom -5573.953560 kJ/mol
# Density = 1.193630 g / cm^3
# Si number density = 11.963526 Si / 1000 Ang^3
#
#
#
# Elastic Constant Matrix: (Units=GPa)
#
#
# Indices 1 2 3 4 5 6 
#
# 1 30.1029 26.6278 28.5302 0.0000 0.0000 0.0000
# 2 26.6278 50.1712 45.5414 0.0000 0.0000 0.0000
# 3 28.5302 45.5414 104.9415 0.0000 0.0000 0.0000
# 4 0.0000 0.0000 0.0000 23.0828 0.0000 0.0000
# 5 0.0000 0.0000 0.0000 0.0000 14.8912 0.0000
# 6 0.0000 0.0000 0.0000 0.0000 0.0000 16.8842
#
#
#
# Elastic Compliance Matrix: (Units=1/GPa)
#
#
# Indices 1 2 3 4 5 6 
#
# 1 0.063810 -0.029896 -0.004374 0.000000 0.000000 0.000000
# 2 -0.029896 0.046893 -0.012223 0.000000 0.000000 0.000000
# 3 -0.004374 -0.012223 0.016022 0.000000 0.000000 0.000000
# 4 0.000000 0.000000 0.000000 0.043322 0.000000 0.000000
# 5 0.000000 0.000000 0.000000 0.000000 0.067154 0.000000
# 6 0.000000 0.000000 0.000000 0.000000 0.000000 0.059227
#
#
# Mechanical properties :
#
#
# Convention : Reuss Voigt Hill
#
# Bulk Modulus (GPa) = 29.63786 42.95714 36.29750
# Shear Modulus (GPa) = 12.47940 16.60606 14.54273
#
# Velocity S-wave (km/s) = 3.23324 3.72971 3.49031
# Velocity P-wave (km/s) = 6.22622 7.38460 6.83001
#
# Compressibility (1/GPa) = 0.03374063
#
# Stress axis : x y z
#
# Youngs Moduli (GPa) = 15.67160 21.32494 62.41264
#
# Poissons Ratio (x) = 0.63753 0.27298
# Poissons Ratio (y) = 0.46852 0.76284
# Poissons Ratio (z) = 0.06854 0.26064
#
# Static dielectric constant tensor:
#      x y z
#    x 1.363690 0.000000 0.000000 
#    y 0.000000 1.378650 0.000000 
#    z 0.000000 0.000000 1.399970 
# 
# From -- ./inp_files/9269.got.cif
#   From: 2010.05.17/outbox.cif.g08.bks.cpg/sg66_5_cif.got.tgz:9269.got - 2010.06.03 17:51:23.
