data_PCOD9495668
_publ_section_title
;
Structure prediction by ZEFSAII (Michael W. Deem and Ramdas Pophale) SiO2 
 PCOD9495668
Probable space group: C C C M
;
_chemical_formula_sum "Si O2"
_cell_formula_units_Z 60
_cell_length_a 9.279198
_cell_length_b 23.387158
_cell_length_c 13.570876
_cell_angle_alpha 90.000000
_cell_angle_beta 90.000000
_cell_angle_gamma 90.000000
_cell_volume 2945.071031
_symmetry_space_group_name_H-M "C C C M"
_symmetry_group_IT_number 66
_symmetry_cell_setting 'orthorhombic'
loop_
_space_group_symop_operation_xyz
x,y,z
-x,-y,z
x,-y,1/2-z
-x,y,1/2-z
-x,-y,-z
x,y,-z
-x,y,1/2+z
x,-y,1/2+z
1/2+x,1/2+y,z
1/2-x,1/2-y,z
1/2+x,1/2-y,1/2-z
1/2-x,1/2+y,1/2-z
1/2-x,1/2-y,-z
1/2+x,1/2+y,-z
1/2-x,1/2+y,1/2+z
1/2+x,1/2-y,1/2+z
loop_
_atom_site_type_symbol
_atom_site_label
_atom_site_fract_x
_atom_site_fract_y
_atom_site_fract_z
Si Si1 0.913309 0.163216 0.612400
Si Si2 0.765600 0.060364 0.725537
Si Si3 0.500000 0.000000 0.250000
Si Si4 0.259040 0.848151 0.887551
Si Si5 0.250000 0.750000 0.751502
O O1 0.863554 0.169382 0.500000
O O2 0.854066 0.103731 0.658262
O O3 0.852604 0.213172 0.681113
O O4 0.086241 0.163127 0.612180
O O5 0.727620 0.093917 0.826046
O O6 0.840011 0.000000 0.750000
O O7 0.609493 0.039089 0.687095
O O8 0.324402 0.796322 0.823788
O O9 0.309600 0.849944 0.000000
#
# Coordination Sequence:
#
# PCOD9495668 Si02
#       5
#    16  16   4  16   8
#     4  10  21  37  58  84 112 144 185 230 277 327
#     4   9  19  38  57  78 113 148 182 225 276 327
#     4   8  20  40  56  76 116 150 176 226 280 320
#     4  10  21  37  58  84 112 144 185 230 277 327
#     4  10  18  36  58  78 114 144 178 226 274 326
#
# _framework density 20.373024000000001
#
# number of rings (size 3 to 8) (size 9 to 14) (size 15 to 20)
#    0.800    1.600    0.000    4.000    0.000    3.200 
#   19.200    5.333    0.000    0.000    0.000    0.000 
#    0.000    0.000    0.000    0.000    0.000    0.000 
#
# Total GULP energy -167156.777543 kJ/mol
# GULP energy per Si atom -5571.892585 kJ/mol
# Density = 2.032665 g / cm^3
# Si number density = 20.373024 Si / 1000 Ang^3
#
#
#
# Elastic Constant Matrix: (Units=GPa)
#
#
# Indices 1 2 3 4 5 6 
#
# 1 54.2053 16.0916 6.4941 0.0000 0.0000 0.0000
# 2 16.0916 161.1810 70.8882 0.0000 0.0000 0.0000
# 3 6.4941 70.8882 161.9811 0.0000 0.0000 0.0000
# 4 0.0000 0.0000 0.0000 6.3049 0.0000 0.0000
# 5 0.0000 0.0000 0.0000 0.0000 13.7653 0.0000
# 6 0.0000 0.0000 0.0000 0.0000 0.0000 7.2009
#
#
#
# Elastic Compliance Matrix: (Units=1/GPa)
#
#
# Indices 1 2 3 4 5 6 
#
# 1 0.019013 -0.001935 0.000085 0.000000 0.000000 0.000000
# 2 -0.001935 0.007880 -0.003371 0.000000 0.000000 0.000000
# 3 0.000085 -0.003371 0.007645 0.000000 0.000000 0.000000
# 4 0.000000 0.000000 0.000000 0.158606 0.000000 0.000000
# 5 0.000000 0.000000 0.000000 0.000000 0.072647 0.000000
# 6 0.000000 0.000000 0.000000 0.000000 0.000000 0.138871
#
#
# Mechanical properties :
#
#
# Convention : Reuss Voigt Hill
#
# Bulk Modulus (GPa) = 41.50248 62.70168 52.10208
# Shear Modulus (GPa) = 11.81652 24.38045 18.09849
#
# Velocity S-wave (km/s) = 2.41095 3.46309 2.98376
# Velocity P-wave (km/s) = 5.30714 6.84356 6.12373
#
# Compressibility (1/GPa) = 0.02409494
#
# Stress axis : x y z
#
# Youngs Moduli (GPa) = 52.59615 126.90372 130.79761
#
# Poissons Ratio (x) = 0.24561 -0.01108
# Poissons Ratio (y) = 0.10180 0.44091
# Poissons Ratio (z) = -0.00446 0.42779
#
# Static dielectric constant tensor:
#      x y z
#    x 1.757750 0.000000 0.000000 
#    y 0.000000 1.742100 0.000000 
#    z 0.000000 0.000000 1.726710 
# 
# From -- ./inp_files/26239.got.cif
#   From: 2010.05.17/outbox.cif.g08.bks.cpg/sg66_14_cif.got.tgz:26239.got - 2010.06.03 17:51:23.
