data_PCOD9495326
_publ_section_title
;
Structure prediction by ZEFSAII (Michael W. Deem and Ramdas Pophale) SiO2 
 PCOD9495326
Probable space group: C C C M
;
_chemical_formula_sum "Si O2"
_cell_formula_units_Z 80
_cell_length_a 12.541027
_cell_length_b 22.562099
_cell_length_c 17.245673
_cell_angle_alpha 90.000000
_cell_angle_beta 90.000000
_cell_angle_gamma 90.000000
_cell_volume 4879.695817
_symmetry_space_group_name_H-M "C C C M"
_symmetry_group_IT_number 66
_symmetry_cell_setting 'orthorhombic'
loop_
_space_group_symop_operation_xyz
x,y,z
-x,-y,z
x,-y,1/2-z
-x,y,1/2-z
-x,-y,-z
x,y,-z
-x,y,1/2+z
x,-y,1/2+z
1/2+x,1/2+y,z
1/2-x,1/2-y,z
1/2+x,1/2-y,1/2-z
1/2-x,1/2+y,1/2-z
1/2-x,1/2-y,-z
1/2+x,1/2+y,-z
1/2-x,1/2+y,1/2+z
1/2+x,1/2-y,1/2+z
loop_
_atom_site_type_symbol
_atom_site_label
_atom_site_fract_x
_atom_site_fract_y
_atom_site_fract_z
Si Si1 0.005030 0.091037 0.658045
Si Si2 0.654765 0.169330 0.405910
Si Si3 0.101832 0.200731 0.906410
Si Si4 0.334923 0.497197 0.406969
Si Si5 0.600656 0.961485 0.905343
O O1 0.000000 0.085899 0.750000
O O2 0.984133 0.157669 0.630953
O O3 0.910755 0.050533 0.621793
O O4 0.113910 0.062228 0.627296
O O5 0.653227 0.168550 0.500000
O O6 0.779687 0.176666 0.385109
O O7 0.597427 0.230388 0.382567
O O8 0.605513 0.107187 0.379321
O O9 0.093941 0.197515 0.000000
O O10 0.340794 0.495648 0.500000
O O11 0.213467 0.509126 0.383661
O O12 0.500000 0.000000 0.878595
O O13 0.597267 0.960587 0.000000
#
# Coordination Sequence:
#
# PCOD9495326 Si02
#       5
#    16  16  16  16  16
#     4  11  20  29  45  71 100 130 154 198 248 293
#     4   8  14  25  46  74  95 116 154 198 235 274
#     4   9  15  27  48  72  95 121 158 203 243 276
#     4  10  18  30  48  71  99 126 159 197 244 294
#     4   9  16  27  47  75 100 120 151 198 242 282
#
# _framework density 16.394465
#
# number of rings (size 3 to 8) (size 9 to 14) (size 15 to 20)
#    0.000    2.600    2.000    4.800    0.000    0.000 
#    0.000    0.000    0.000    8.400    0.000    7.000 
#    0.000    0.000    0.000    0.000    0.000    0.000 
#
# Total GULP energy -222839.936280 kJ/mol
# GULP energy per Si atom -5570.998407 kJ/mol
# Density = 1.635715 g / cm^3
# Si number density = 16.394465 Si / 1000 Ang^3
#
#
#
# Elastic Constant Matrix: (Units=GPa)
#
#
# Indices 1 2 3 4 5 6 
#
# 1 90.7663 79.4776 20.1204 0.0000 0.0000 0.0000
# 2 79.4776 164.0585 27.2460 0.0000 0.0000 0.0000
# 3 20.1204 27.2460 44.5918 0.0000 0.0000 0.0000
# 4 0.0000 0.0000 0.0000 -4.5919 0.0000 0.0000
# 5 0.0000 0.0000 0.0000 0.0000 -7.2388 0.0000
# 6 0.0000 0.0000 0.0000 0.0000 0.0000 20.6941
#
#
#
# Elastic Compliance Matrix: (Units=1/GPa)
#
#
# Indices 1 2 3 4 5 6 
#
# 1 0.019582 -0.008925 -0.003383 0.000000 0.000000 0.000000
# 2 -0.008925 0.010851 -0.002603 0.000000 0.000000 0.000000
# 3 -0.003383 -0.002603 0.025543 0.000000 0.000000 0.000000
# 4 0.000000 0.000000 0.000000 -0.217777 0.000000 0.000000
# 5 0.000000 0.000000 0.000000 0.000000 -0.138145 0.000000
# 6 0.000000 0.000000 0.000000 0.000000 0.000000 0.048323
#
#
# Mechanical properties :
#
#
# Convention : Reuss Voigt Hill
#
# Bulk Modulus (GPa) = 38.23413 61.45608 49.84510
# Shear Modulus (GPa) = -23.46493 13.27753 -5.09370
#
# Velocity S-wave (km/s) = -3.78732 2.84892 -1.76457
# Velocity P-wave (km/s) = 2.06081 6.95623 5.13011
#
# Compressibility (1/GPa) = 0.02615464
#
# Stress axis : x y z
#
# Youngs Moduli (GPa) = 51.06805 92.15573 39.15039
#
# Poissons Ratio (x) = 0.82245 0.13243
# Poissons Ratio (y) = 0.45576 0.10192
# Poissons Ratio (z) = 0.17274 0.23991
#
# Static dielectric constant tensor:
#      x y z
#    x 1.542060 0.000000 0.000000 
#    y 0.000000 1.580800 0.000000 
#    z 0.000000 0.000000 1.526460 
# 
# From -- ./inp_files/26389.got.cif
#   From: 2010.05.17/outbox.cif.g08.bks.cpg/sg66_14_cif.got.tgz:26389.got - 2010.06.03 17:51:23.
