data_PCOD9495689
_publ_section_title
;
Structure prediction by ZEFSAII (Michael W. Deem and Ramdas Pophale) SiO2 
 PCOD9495689
Probable space group: C C C M
;
_chemical_formula_sum "Si O2"
_cell_formula_units_Z 72
_cell_length_a 16.901476
_cell_length_b 15.547948
_cell_length_c 15.046224
_cell_angle_alpha 90.000000
_cell_angle_beta 90.000000
_cell_angle_gamma 90.000000
_cell_volume 3953.895943
_symmetry_space_group_name_H-M "C C C M"
_symmetry_group_IT_number 66
_symmetry_cell_setting 'orthorhombic'
loop_
_space_group_symop_operation_xyz
x,y,z
-x,-y,z
x,-y,1/2-z
-x,y,1/2-z
-x,-y,-z
x,y,-z
-x,y,1/2+z
x,-y,1/2+z
1/2+x,1/2+y,z
1/2-x,1/2-y,z
1/2+x,1/2-y,1/2-z
1/2-x,1/2+y,1/2-z
1/2-x,1/2-y,-z
1/2+x,1/2+y,-z
1/2-x,1/2+y,1/2+z
1/2+x,1/2-y,1/2+z
loop_
_atom_site_type_symbol
_atom_site_label
_atom_site_fract_x
_atom_site_fract_y
_atom_site_fract_z
Si Si1 0.914855 0.454160 0.000000
Si Si2 0.812930 0.184732 0.828635
Si Si3 0.905859 0.248445 0.000000
Si Si4 0.370991 0.579357 0.682354
Si Si5 0.788424 0.512487 0.348842
Si Si6 0.965235 0.096223 0.500000
O O1 0.859440 0.482631 0.082570
O O2 0.000000 0.500000 0.000000
O O3 0.925641 0.350020 0.000000
O O4 0.750000 0.250000 0.789864
O O5 0.854338 0.226764 0.912940
O O6 0.871853 0.157832 0.750812
O O7 0.763808 0.099780 0.857160
O O8 0.975625 0.177390 0.000000
O O9 0.393251 0.500000 0.750000
O O10 0.281211 0.559210 0.648533
O O11 0.419322 0.596328 0.593827
O O12 0.821713 0.500000 0.250000
O O13 0.000000 0.000000 0.500000
#
# Coordination Sequence:
#
# PCOD9495689 Si02
#       6
#     8  16   8  16  16   8
#     4  12  24  41  58  83 126 165 205 251 300 364
#     4  10  18  37  64  89 113 146 209 267 290 349
#     4  12  24  36  62  98 119 167 203 247 317 364
#     4   9  21  38  63  92 115 163 202 245 316 364
#     4   9  19  38  63  88 110 150 208 249 304 352
#     4  12  23  40  58  92 141 159 190 251 323 394
#
# _framework density 18.209886999999998
#
# number of rings (size 3 to 8) (size 9 to 14) (size 15 to 20)
#    0.000    2.222    2.222    4.333    0.000    3.556 
#    8.000    2.778    0.000    0.000    0.000    0.000 
#    0.000    0.000    0.000    0.000    0.000    0.000 
#
# Total GULP energy -200464.624453 kJ/mol
# GULP energy per Si atom -5568.461790 kJ/mol
# Density = 1.816844 g / cm^3
# Si number density = 18.209887 Si / 1000 Ang^3
#
#
#
# Elastic Constant Matrix: (Units=GPa)
#
#
# Indices 1 2 3 4 5 6 
#
# 1 50.0165 25.6537 41.6756 0.0000 0.0000 0.0000
# 2 25.6537 80.4777 47.2622 0.0000 0.0000 0.0000
# 3 41.6756 47.2622 128.9011 0.0000 0.0000 0.0000
# 4 0.0000 0.0000 0.0000 0.1423 0.0000 0.0000
# 5 0.0000 0.0000 0.0000 0.0000 -284.3505 0.0000
# 6 0.0000 0.0000 0.0000 0.0000 0.0000 21.5476
#
#
#
# Elastic Compliance Matrix: (Units=1/GPa)
#
#
# Indices 1 2 3 4 5 6 
#
# 1 0.028704 -0.004715 -0.007552 0.000000 0.000000 0.000000
# 2 -0.004715 0.016610 -0.004566 0.000000 0.000000 0.000000
# 3 -0.007552 -0.004566 0.011874 0.000000 0.000000 0.000000
# 4 0.000000 0.000000 0.000000 7.026712 0.000000 0.000000
# 5 0.000000 0.000000 0.000000 0.000000 -0.003517 0.000000
# 6 0.000000 0.000000 0.000000 0.000000 0.000000 0.046409
#
#
# Mechanical properties :
#
#
# Convention : Reuss Voigt Hill
#
# Bulk Modulus (GPa) = 42.51192 54.28648 48.39920
# Shear Modulus (GPa) = 0.69752 -42.87854 -21.09051
#
# Velocity S-wave (km/s) = 0.61958 -4.85777 -3.40691
# Velocity P-wave (km/s) = 4.88958 1.26004 3.34068
#
# Compressibility (1/GPa) = 0.02352281
#
# Stress axis : x y z
#
# Youngs Moduli (GPa) = 34.83817 60.20416 84.22116
#
# Poissons Ratio (x) = 0.28387 0.63601
# Poissons Ratio (y) = 0.16427 0.38453
# Poissons Ratio (z) = 0.26309 0.27488
#
# Static dielectric constant tensor:
#      x y z
#    x 1.643050 0.000000 0.000000 
#    y 0.000000 1.637970 0.000000 
#    z 0.000000 0.000000 1.610060 
# 
# From -- ./inp_files/29819.got.cif
#   From: 2010.05.17/outbox.cif.g08.bks.cpg/sg66_15_cif.got.tgz:29819.got - 2010.06.03 17:51:23.
