data_PCOD9495823
_publ_section_title
;
Structure prediction by ZEFSAII (Michael W. Deem and Ramdas Pophale) SiO2 
 PCOD9495823
Probable space group: C C C M
;
_chemical_formula_sum "Si O2"
_cell_formula_units_Z 88
_cell_length_a 5.247849
_cell_length_b 28.083804
_cell_length_c 34.905581
_cell_angle_alpha 90.000000
_cell_angle_beta 90.000000
_cell_angle_gamma 90.000000
_cell_volume 5144.369265
_symmetry_space_group_name_H-M "C C C M"
_symmetry_group_IT_number 66
_symmetry_cell_setting 'orthorhombic'
loop_
_space_group_symop_operation_xyz
x,y,z
-x,-y,z
x,-y,1/2-z
-x,y,1/2-z
-x,-y,-z
x,y,-z
-x,y,1/2+z
x,-y,1/2+z
1/2+x,1/2+y,z
1/2-x,1/2-y,z
1/2+x,1/2-y,1/2-z
1/2-x,1/2+y,1/2-z
1/2-x,1/2-y,-z
1/2+x,1/2+y,-z
1/2-x,1/2+y,1/2+z
1/2+x,1/2-y,1/2+z
loop_
_atom_site_type_symbol
_atom_site_label
_atom_site_fract_x
_atom_site_fract_y
_atom_site_fract_z
Si Si1 0.250000 0.250000 0.599461
Si Si2 0.302741 0.343455 0.359103
Si Si3 0.388677 0.800410 0.457572
Si Si4 0.750056 0.306760 0.775244
Si Si5 0.719807 0.878665 0.099600
Si Si6 0.749526 0.467399 0.543677
O O1 0.377680 0.289325 0.626791
O O2 0.386587 0.214399 0.570338
O O3 0.254618 0.336894 0.314157
O O4 0.544649 0.374819 0.371301
O O5 0.045543 0.364414 0.379178
O O6 0.462992 0.816848 0.500000
O O7 0.250000 0.750000 0.461198
O O8 0.234388 0.839529 0.434150
O O9 0.500000 0.316163 0.750000
O O10 0.750000 0.250000 0.784528
O O11 0.000000 0.316285 0.750000
O O12 0.718111 0.927837 0.076376
O O13 0.500000 0.500000 0.549941
O O14 0.727325 0.447084 0.500000
O O15 0.000000 0.500000 0.544153
#
# Coordination Sequence:
#
# PCOD9495823 Si02
#       6
#     8  16  16  16  16  16
#     4  10  19  32  44  68 102 150 180 224 256 302
#     4  11  21  34  53  76 112 140 184 220 269 319
#     4  10  19  31  45  67 103 145 188 218 252 303
#     4  10  20  34  52  76 106 150 191 222 260 320
#     4  11  22  35  54  81 106 144 183 228 278 323
#     4  10  21  39  60  81 109 144 186 238 287 329
#
# _framework density 17.106081
#
# number of rings (size 3 to 8) (size 9 to 14) (size 15 to 20)
#    0.000    1.636    2.727    3.000    0.000    0.000 
#    0.000    1.818    0.000    0.000    0.000    0.000 
#    0.000   50.909    0.000    0.000    0.000    0.000 
#
# Total GULP energy -244984.801680 kJ/mol
# GULP energy per Si atom -5567.836402 kJ/mol
# Density = 1.706715 g / cm^3
# Si number density = 17.106081 Si / 1000 Ang^3
#
#
#
# Elastic Constant Matrix: (Units=GPa)
#
#
# Indices 1 2 3 4 5 6 
#
# 1 119.7837 37.4609 58.7007 0.0000 0.0000 0.0000
# 2 37.4609 65.4360 53.7245 0.0000 0.0000 0.0000
# 3 58.7007 53.7245 143.5043 0.0000 0.0000 0.0000
# 4 0.0000 0.0000 0.0000 33.1627 0.0000 0.0000
# 5 0.0000 0.0000 0.0000 0.0000 21.0028 0.0000
# 6 0.0000 0.0000 0.0000 0.0000 0.0000 15.0825
#
#
#
# Elastic Compliance Matrix: (Units=1/GPa)
#
#
# Indices 1 2 3 4 5 6 
#
# 1 0.011052 -0.003776 -0.003107 0.000000 0.000000 0.000000
# 2 -0.003776 0.023354 -0.007199 0.000000 0.000000 0.000000
# 3 -0.003107 -0.007199 0.010934 0.000000 0.000000 0.000000
# 4 0.000000 0.000000 0.000000 0.030154 0.000000 0.000000
# 5 0.000000 0.000000 0.000000 0.000000 0.047613 0.000000
# 6 0.000000 0.000000 0.000000 0.000000 0.000000 0.066302
#
#
# Mechanical properties :
#
#
# Convention : Reuss Voigt Hill
#
# Bulk Modulus (GPa) = 58.21787 69.83293 64.02540
# Shear Modulus (GPa) = 22.39154 25.77212 24.08183
#
# Velocity S-wave (km/s) = 3.62191 3.88571 3.75613
# Velocity P-wave (km/s) = 7.18320 7.81305 7.50473
#
# Compressibility (1/GPa) = 0.01717686
#
# Stress axis : x y z
#
# Youngs Moduli (GPa) = 90.48162 42.81919 91.45433
#
# Poissons Ratio (x) = 0.16168 0.28417
# Poissons Ratio (y) = 0.34166 0.65834
# Poissons Ratio (z) = 0.28114 0.30824
#
# Static dielectric constant tensor:
#      x y z
#    x 1.596550 0.000000 0.000000 
#    y 0.000000 1.585910 0.000000 
#    z 0.000000 0.000000 1.611800 
# 
# From -- ./inp_files/67264.got.cif
#   From: 2010.05.17/outbox.cif.g08.bks.cpg/sg66_34_cif.got.tgz:67264.got - 2010.06.03 17:51:23.
