data_PCOD9495535
_publ_section_title
;
Structure prediction by ZEFSAII (Michael W. Deem and Ramdas Pophale) SiO2 
 PCOD9495535
Probable space group: C C C M
;
_chemical_formula_sum "Si O2"
_cell_formula_units_Z 128
_cell_length_a 23.334057
_cell_length_b 18.103912
_cell_length_c 15.086538
_cell_angle_alpha 90.000000
_cell_angle_beta 90.000000
_cell_angle_gamma 90.000000
_cell_volume 6373.122633
_symmetry_space_group_name_H-M "C C C M"
_symmetry_group_IT_number 66
_symmetry_cell_setting 'orthorhombic'
loop_
_space_group_symop_operation_xyz
x,y,z
-x,-y,z
x,-y,1/2-z
-x,y,1/2-z
-x,-y,-z
x,y,-z
-x,y,1/2+z
x,-y,1/2+z
1/2+x,1/2+y,z
1/2-x,1/2-y,z
1/2+x,1/2-y,1/2-z
1/2-x,1/2+y,1/2-z
1/2-x,1/2-y,-z
1/2+x,1/2+y,-z
1/2-x,1/2+y,1/2+z
1/2+x,1/2-y,1/2+z
loop_
_atom_site_type_symbol
_atom_site_label
_atom_site_fract_x
_atom_site_fract_y
_atom_site_fract_z
Si Si1 0.235805 0.463531 0.651610
Si Si2 0.122395 0.340285 0.833940
Si Si3 0.171231 0.923297 0.399057
Si Si4 0.890822 0.499965 0.640921
Si Si5 0.955701 0.631620 0.323708
Si Si6 0.251425 0.835806 0.271252
Si Si7 0.030782 0.233958 0.104428
Si Si8 0.960610 0.067676 0.392094
O O1 0.234360 0.500000 0.750000
O O2 0.287110 0.505382 0.603647
O O3 0.173124 0.477323 0.611989
O O4 0.246232 0.379435 0.678565
O O5 0.099074 0.414507 0.882410
O O6 0.099491 0.342810 0.732716
O O7 0.190291 0.348512 0.828008
O O8 0.093601 0.267865 0.874415
O O9 0.169858 0.894213 0.500000
O O10 0.199386 0.865915 0.330738
O O11 0.106627 0.943401 0.372196
O O12 0.890827 0.500000 0.750000
O O13 0.935642 0.563623 0.615914
O O14 0.000000 0.601354 0.250000
O O15 0.986631 0.703913 0.361341
O O16 0.250000 0.750000 0.255032
O O17 0.023374 0.150597 0.139626
O O18 0.024356 0.230021 0.000000
O O19 0.965230 0.068419 0.500000
O O20 0.000000 0.000000 0.360393
#
# Coordination Sequence:
#
# PCOD9495535 Si02
#       8
#    16  16  16  16  16  16  16  16
#     4   9  16  34  53  76 112 146 186 224 270 339
#     4  10  18  33  54  76 108 151 184 223 276 342
#     4  10  20  35  59  87 110 143 191 237 284 339
#     4   9  14  30  53  71  99 148 189 208 250 333
#     4   9  18  31  53  74 102 146 191 215 261 334
#     4  11  20  33  57  86 117 148 184 231 290 347
#     4  10  21  35  52  80 113 139 183 245 286 326
#     4   9  19  39  61  77 104 149 187 222 284 352
#
# _framework density 20.084346
#
# number of rings (size 3 to 8) (size 9 to 14) (size 15 to 20)
#    0.000    2.375    5.000    0.750    0.000    6.500 
#    2.250    1.875    8.250    0.375    0.000    0.000 
#    0.000    0.000    0.000    0.000    0.000    0.000 
#
# Total GULP energy -356673.826612 kJ/mol
# GULP energy per Si atom -5573.028541 kJ/mol
# Density = 2.003863 g / cm^3
# Si number density = 20.084346 Si / 1000 Ang^3
#
#
#
# Elastic Constant Matrix: (Units=GPa)
#
#
# Indices 1 2 3 4 5 6 
#
# 1 89.1565 55.2363 3.6717 0.0000 0.0000 0.0000
# 2 55.2363 172.5895 12.2443 0.0000 0.0000 0.0000
# 3 3.6717 12.2443 28.4354 0.0000 0.0000 0.0000
# 4 0.0000 0.0000 0.0000 19.4361 0.0000 0.0000
# 5 0.0000 0.0000 0.0000 0.0000 12.6419 0.0000
# 6 0.0000 0.0000 0.0000 0.0000 0.0000 27.1170
#
#
#
# Elastic Compliance Matrix: (Units=1/GPa)
#
#
# Indices 1 2 3 4 5 6 
#
# 1 0.013991 -0.004487 0.000125 0.000000 0.000000 0.000000
# 2 -0.004487 0.007415 -0.002614 0.000000 0.000000 0.000000
# 3 0.000125 -0.002614 0.036277 0.000000 0.000000 0.000000
# 4 0.000000 0.000000 0.000000 0.051451 0.000000 0.000000
# 5 0.000000 0.000000 0.000000 0.000000 0.079102 0.000000
# 6 0.000000 0.000000 0.000000 0.000000 0.000000 0.036877
#
#
# Mechanical properties :
#
#
# Convention : Reuss Voigt Hill
#
# Bulk Modulus (GPa) = 22.86605 48.05399 35.46002
# Shear Modulus (GPa) = 19.71299 26.44097 23.07698
#
# Velocity S-wave (km/s) = 3.13631 3.63229 3.39337
# Velocity P-wave (km/s) = 4.95227 6.44744 5.74867
#
# Compressibility (1/GPa) = 0.04373295
#
# Stress axis : x y z
#
# Youngs Moduli (GPa) = 71.47628 134.85432 27.56591
#
# Poissons Ratio (x) = 0.60503 -0.00346
# Poissons Ratio (y) = 0.32068 0.07205
# Poissons Ratio (z) = -0.00896 0.35248
#
# Static dielectric constant tensor:
#      x y z
#    x 1.749150 0.000000 0.000000 
#    y 0.000000 1.798580 0.000000 
#    z 0.000000 0.000000 1.736170 
# 
# From -- ./inp_files/43820.got.cif
#   From: 2010.05.17/outbox.cif.g08.bks.cpg/sg66_22_cif.got.tgz:43820.got - 2010.06.03 17:51:23.
