data_PCOD9495946
_publ_section_title
;
Structure prediction by ZEFSAII (Michael W. Deem and Ramdas Pophale) SiO2 
 PCOD9495946
Probable space group: C C C M
;
_chemical_formula_sum "Si O2"
_cell_formula_units_Z 128
_cell_length_a 21.338110
_cell_length_b 11.611858
_cell_length_c 28.903458
_cell_angle_alpha 90.000000
_cell_angle_beta 90.000000
_cell_angle_gamma 90.000000
_cell_volume 7161.557292
_symmetry_space_group_name_H-M "C C C M"
_symmetry_group_IT_number 66
_symmetry_cell_setting 'orthorhombic'
loop_
_space_group_symop_operation_xyz
x,y,z
-x,-y,z
x,-y,1/2-z
-x,y,1/2-z
-x,-y,-z
x,y,-z
-x,y,1/2+z
x,-y,1/2+z
1/2+x,1/2+y,z
1/2-x,1/2-y,z
1/2+x,1/2-y,1/2-z
1/2-x,1/2+y,1/2-z
1/2-x,1/2-y,-z
1/2+x,1/2+y,-z
1/2-x,1/2+y,1/2+z
1/2+x,1/2-y,1/2+z
loop_
_atom_site_type_symbol
_atom_site_label
_atom_site_fract_x
_atom_site_fract_y
_atom_site_fract_z
Si Si1 0.173511 0.495983 0.945869
Si Si2 0.317308 0.215222 0.127198
Si Si3 0.864756 0.126780 0.449298
Si Si4 0.613100 0.789889 0.599126
Si Si5 0.507669 0.631259 0.553919
Si Si6 0.308558 0.383862 0.551035
Si Si7 0.576897 0.140416 0.301548
Si Si8 0.569561 0.862931 0.695884
O O1 0.179142 0.392141 0.909045
O O2 0.122869 0.589260 0.927695
O O3 0.240820 0.559628 0.944868
O O4 0.161969 0.462898 0.000000
O O5 0.250000 0.250000 0.148680
O O6 0.329325 0.322230 0.093569
O O7 0.371982 0.194815 0.164520
O O8 0.838276 0.158455 0.500000
O O9 0.935556 0.171849 0.446492
O O10 0.858052 0.989020 0.446851
O O11 0.553470 0.717554 0.580313
O O12 0.672581 0.710555 0.587655
O O13 0.606822 0.811106 0.653316
O O14 0.500000 0.500000 0.572228
O O15 0.527693 0.623911 0.500000
O O16 0.313824 0.329447 0.500000
O O17 0.503908 0.167862 0.311465
O O18 0.588079 0.172430 0.247822
O O19 0.578312 0.001294 0.305580
#
# Coordination Sequence:
#
# PCOD9495946 Si02
#       8
#    16  16  16  16  16  16  16  16
#     4  11  23  36  52  82 119 156 195 239 281 335
#     4  12  22  36  59  82 116 152 190 239 288 345
#     4  10  20  34  52  78 111 154 197 223 265 350
#     4  12  20  34  58  86 109 148 194 247 287 334
#     4  10  19  32  51  79 115 153 188 228 279 341
#     4  10  20  35  53  76 114 157 196 226 270 343
#     4   9  19  40  61  89 109 144 191 236 305 355
#     4   9  19  37  67  85 111 140 187 249 293 363
#
# _framework density 17.873207000000001
#
# number of rings (size 3 to 8) (size 9 to 14) (size 15 to 20)
#    0.000    1.625    3.750    3.375    0.000    1.500 
#    0.000    1.250    0.000    3.750    0.000    0.000 
#    0.000    0.000    0.000    0.000    0.000    0.000 
#
# Total GULP energy -356822.337271 kJ/mol
# GULP energy per Si atom -5575.349020 kJ/mol
# Density = 1.783253 g / cm^3
# Si number density = 17.873207 Si / 1000 Ang^3
#
#
#
# Elastic Constant Matrix: (Units=GPa)
#
#
# Indices 1 2 3 4 5 6 
#
# 1 68.5241 19.4966 48.1740 0.0000 0.0000 0.0000
# 2 19.4966 57.3277 40.2508 0.0000 0.0000 0.0000
# 3 48.1740 40.2508 132.2484 0.0000 0.0000 0.0000
# 4 0.0000 0.0000 0.0000 137.9419 0.0000 0.0000
# 5 0.0000 0.0000 0.0000 0.0000 42.8424 0.0000
# 6 0.0000 0.0000 0.0000 0.0000 0.0000 32.9645
#
#
#
# Elastic Compliance Matrix: (Units=1/GPa)
#
#
# Indices 1 2 3 4 5 6 
#
# 1 0.019819 -0.002126 -0.006572 0.000000 0.000000 0.000000
# 2 -0.002126 0.022412 -0.006047 0.000000 0.000000 0.000000
# 3 -0.006572 -0.006047 0.011796 0.000000 0.000000 0.000000
# 4 0.000000 0.000000 0.000000 0.007249 0.000000 0.000000
# 5 0.000000 0.000000 0.000000 0.000000 0.023341 0.000000
# 6 0.000000 0.000000 0.000000 0.000000 0.000000 0.030336
#
#
# Mechanical properties :
#
#
# Convention : Reuss Voigt Hill
#
# Bulk Modulus (GPa) = 40.75474 52.66034 46.70754
# Shear Modulus (GPa) = 32.76056 52.76170 42.76113
#
# Velocity S-wave (km/s) = 4.28593 5.43913 4.89660
# Velocity P-wave (km/s) = 6.88069 8.30498 7.62616
#
# Compressibility (1/GPa) = 0.02453702
#
# Stress axis : x y z
#
# Youngs Moduli (GPa) = 50.45731 44.61855 84.77350
#
# Poissons Ratio (x) = 0.09484 0.55717
# Poissons Ratio (y) = 0.10725 0.51263
# Poissons Ratio (z) = 0.33163 0.26981
#
# Static dielectric constant tensor:
#      x y z
#    x 1.666450 0.000000 0.000000 
#    y 0.000000 1.630450 0.000000 
#    z 0.000000 0.000000 1.587520 
# 
# From -- ./inp_files/59963.got.cif
#   From: 2010.05.17/outbox.cif.g08.bks.cpg/sg66_30_cif.got.tgz:59963.got - 2010.06.03 17:51:23.
