data_PCOD9495010
_publ_section_title
;
Structure prediction by ZEFSAII (Michael W. Deem and Ramdas Pophale) SiO2 
 PCOD9495010
Probable space group: C C C M
;
_chemical_formula_sum "Si O2"
_cell_formula_units_Z 112
_cell_length_a 16.461203
_cell_length_b 24.134101
_cell_length_c 19.383645
_cell_angle_alpha 90.000000
_cell_angle_beta 90.000000
_cell_angle_gamma 90.000000
_cell_volume 7700.663460
_symmetry_space_group_name_H-M "C C C M"
_symmetry_group_IT_number 66
_symmetry_cell_setting 'orthorhombic'
loop_
_space_group_symop_operation_xyz
x,y,z
-x,-y,z
x,-y,1/2-z
-x,y,1/2-z
-x,-y,-z
x,y,-z
-x,y,1/2+z
x,-y,1/2+z
1/2+x,1/2+y,z
1/2-x,1/2-y,z
1/2+x,1/2-y,1/2-z
1/2-x,1/2+y,1/2-z
1/2-x,1/2-y,-z
1/2+x,1/2+y,-z
1/2-x,1/2+y,1/2+z
1/2+x,1/2-y,1/2+z
loop_
_atom_site_type_symbol
_atom_site_label
_atom_site_fract_x
_atom_site_fract_y
_atom_site_fract_z
Si Si1 0.380678 0.241567 0.079738
Si Si2 0.758494 0.166788 0.370786
Si Si3 0.497616 0.578142 0.074910
Si Si4 0.687871 0.547962 0.079696
Si Si5 0.005774 0.186480 0.646182
Si Si6 0.133285 0.155999 0.747587
Si Si7 0.370532 0.536999 0.816472
O O1 0.328924 0.192814 0.114578
O O2 0.321987 0.295922 0.084892
O O3 0.461434 0.258559 0.120774
O O4 0.396207 0.229481 0.000000
O O5 0.766682 0.102797 0.392397
O O6 0.790120 0.175174 0.292434
O O7 0.592566 0.565059 0.079187
O O8 0.484038 0.643721 0.083830
O O9 0.447721 0.550312 0.135886
O O10 0.466718 0.559718 0.000000
O O11 0.690864 0.496807 0.133511
O O12 0.710653 0.535761 0.000000
O O13 0.939822 0.154656 0.695553
O O14 0.089489 0.192064 0.688161
O O15 0.153547 0.096770 0.714263
O O16 0.389433 0.500000 0.750000
#
# Coordination Sequence:
#
# PCOD9495010 Si02
#       7
#    16  16  16  16  16  16  16
#     4  10  17  26  41  56  73 102 135 176 221 262
#     4  10  17  27  38  53  72 101 139 176 211 249
#     4  10  18  25  32  46  67  95 132 172 202 229
#     4  11  19  26  34  49  72  99 136 178 203 231
#     4   9  16  26  39  52  72 100 136 176 209 247
#     4   9  17  27  37  52  71 104 139 176 203 235
#     4  11  19  27  34  46  68 105 144 167 203 231
#
# _framework density 14.544200999999999
#
# number of rings (size 3 to 8) (size 9 to 14) (size 15 to 20)
#    0.000    2.000    4.286    3.000    0.000    5.714 
#    0.000    0.000    0.000    0.000    0.000    0.000 
#    0.000    0.000    0.000  691.714    0.000  138.714 
#
# Total GULP energy -311772.742493 kJ/mol
# GULP energy per Si atom -5567.370402 kJ/mol
# Density = 1.451110 g / cm^3
# Si number density = 14.544201 Si / 1000 Ang^3
#
#
#
# Elastic Constant Matrix: (Units=GPa)
#
#
# Indices 1 2 3 4 5 6 
#
# 1 34.5209 34.1201 36.1766 0.0000 0.0000 0.0000
# 2 34.1201 64.8077 37.4355 0.0000 0.0000 0.0000
# 3 36.1766 37.4355 102.9689 0.0000 0.0000 0.0000
# 4 0.0000 0.0000 0.0000 13.8948 0.0000 0.0000
# 5 0.0000 0.0000 0.0000 0.0000 8.6555 0.0000
# 6 0.0000 0.0000 0.0000 0.0000 0.0000 19.2569
#
#
#
# Elastic Compliance Matrix: (Units=1/GPa)
#
#
# Indices 1 2 3 4 5 6 
#
# 1 0.075623 -0.030971 -0.015309 0.000000 0.000000 0.000000
# 2 -0.030971 0.032216 -0.000831 0.000000 0.000000 0.000000
# 3 -0.015309 -0.000831 0.015393 0.000000 0.000000 0.000000
# 4 0.000000 0.000000 0.000000 0.071969 0.000000 0.000000
# 5 0.000000 0.000000 0.000000 0.000000 0.115533 0.000000
# 6 0.000000 0.000000 0.000000 0.000000 0.000000 0.051930
#
#
# Mechanical properties :
#
#
# Convention : Reuss Voigt Hill
#
# Bulk Modulus (GPa) = 34.47251 46.41800 40.44525
# Shear Modulus (GPa) = 10.71685 14.66579 12.69132
#
# Velocity S-wave (km/s) = 2.71744 3.17891 2.95719
# Velocity P-wave (km/s) = 5.79649 6.74228 6.28720
#
# Compressibility (1/GPa) = 0.02900862
#
# Stress axis : x y z
#
# Youngs Moduli (GPa) = 13.22357 31.04041 64.96653
#
# Poissons Ratio (x) = 0.96135 0.99458
# Poissons Ratio (y) = 0.40954 0.05401
# Poissons Ratio (z) = 0.20244 0.02581
#
# Static dielectric constant tensor:
#      x y z
#    x 1.453690 0.000000 0.000000 
#    y 0.000000 1.515020 0.000000 
#    z 0.000000 0.000000 1.535030 
# 
# From -- ./inp_files/52076.got.cif
#   From: 2010.05.17/outbox.cif.g08.bks.cpg/sg66_27_cif.got.tgz:52076.got - 2010.06.03 17:51:23.
