data_PCOD9495947
_publ_section_title
;
Structure prediction by ZEFSAII (Michael W. Deem and Ramdas Pophale) SiO2 
 PCOD9495947
Probable space group: C C C M
;
_chemical_formula_sum "Si O2"
_cell_formula_units_Z 88
_cell_length_a 8.374681
_cell_length_b 20.104841
_cell_length_c 28.193592
_cell_angle_alpha 90.000000
_cell_angle_beta 90.000000
_cell_angle_gamma 90.000000
_cell_volume 4747.001039
_symmetry_space_group_name_H-M "C C C M"
_symmetry_group_IT_number 66
_symmetry_cell_setting 'orthorhombic'
loop_
_space_group_symop_operation_xyz
x,y,z
-x,-y,z
x,-y,1/2-z
-x,y,1/2-z
-x,-y,-z
x,y,-z
-x,y,1/2+z
x,-y,1/2+z
1/2+x,1/2+y,z
1/2-x,1/2-y,z
1/2+x,1/2-y,1/2-z
1/2-x,1/2+y,1/2-z
1/2-x,1/2-y,-z
1/2+x,1/2+y,-z
1/2-x,1/2+y,1/2+z
1/2+x,1/2-y,1/2+z
loop_
_atom_site_type_symbol
_atom_site_label
_atom_site_fract_x
_atom_site_fract_y
_atom_site_fract_z
Si Si1 0.976002 0.283389 0.946156
Si Si2 0.246390 0.392331 0.052885
Si Si3 0.939439 0.268548 0.802962
Si Si4 0.667199 0.876739 0.372152
Si Si5 0.500000 0.000000 0.413267
Si Si6 0.016739 0.838026 0.624804
O O1 0.141039 0.324917 0.945622
O O2 0.854640 0.332667 0.919787
O O3 0.988559 0.216713 0.916319
O O4 0.933162 0.270362 0.000000
O O5 0.123589 0.453972 0.057614
O O6 0.357401 0.386812 0.099485
O O7 0.323137 0.395458 0.000000
O O8 0.750000 0.250000 0.803674
O O9 0.937460 0.336032 0.833850
O O10 0.041512 0.210808 0.829782
O O11 0.000000 0.277199 0.750000
O O12 0.599343 0.948737 0.381714
O O13 0.854475 0.876159 0.362132
#
# Coordination Sequence:
#
# PCOD9495947 Si02
#       6
#    16  16  16  16   8  16
#     4   9  17  30  49  75 105 133 164 209 264 316
#     4  10  20  33  51  75 107 146 185 220 258 313
#     4   9  19  35  57  83 107 129 162 213 273 329
#     4   9  20  35  51  74 104 137 175 215 256 309
#     4  10  21  38  51  66 102 150 188 220 256 300
#     4  10  19  32  51  80 106 129 169 220 268 313
#
# _framework density 18.538021000000001
#
# number of rings (size 3 to 8) (size 9 to 14) (size 15 to 20)
#    0.000    2.545    0.000    3.000    0.000    9.455 
#    0.000    1.364    0.000    0.000    0.000    1.273 
#    0.000    0.000    0.000    0.000    0.000    0.000 
#
# Total GULP energy -245107.262740 kJ/mol
# GULP energy per Si atom -5570.619608 kJ/mol
# Density = 1.849583 g / cm^3
# Si number density = 18.538021 Si / 1000 Ang^3
#
#
#
# Elastic Constant Matrix: (Units=GPa)
#
#
# Indices 1 2 3 4 5 6 
#
# 1 43.5398 18.1006 17.9963 0.0000 0.0000 0.0000
# 2 18.1006 89.0468 28.6748 0.0000 0.0000 0.0000
# 3 17.9963 28.6748 119.2068 0.0000 0.0000 0.0000
# 4 0.0000 0.0000 0.0000 14.4379 0.0000 0.0000
# 5 0.0000 0.0000 0.0000 0.0000 20.2886 0.0000
# 6 0.0000 0.0000 0.0000 0.0000 0.0000 17.5976
#
#
#
# Elastic Compliance Matrix: (Units=1/GPa)
#
#
# Indices 1 2 3 4 5 6 
#
# 1 0.025964 -0.004353 -0.002873 0.000000 0.000000 0.000000
# 2 -0.004353 0.012903 -0.002447 0.000000 0.000000 0.000000
# 3 -0.002873 -0.002447 0.009411 0.000000 0.000000 0.000000
# 4 0.000000 0.000000 0.000000 0.069262 0.000000 0.000000
# 5 0.000000 0.000000 0.000000 0.000000 0.049289 0.000000
# 6 0.000000 0.000000 0.000000 0.000000 0.000000 0.056826
#
#
# Mechanical properties :
#
#
# Convention : Reuss Voigt Hill
#
# Bulk Modulus (GPa) = 34.56140 42.37076 38.46608
# Shear Modulus (GPa) = 19.79071 22.93293 21.36182
#
# Velocity S-wave (km/s) = 3.27092 3.52102 3.39827
# Velocity P-wave (km/s) = 5.74014 6.27980 6.01603
#
# Compressibility (1/GPa) = 0.02893402
#
# Stress axis : x y z
#
# Youngs Moduli (GPa) = 38.51421 77.50331 106.25880
#
# Poissons Ratio (x) = 0.33735 0.30525
# Poissons Ratio (y) = 0.16764 0.25997
# Poissons Ratio (z) = 0.11064 0.18962
#
# Static dielectric constant tensor:
#      x y z
#    x 1.731310 0.000000 0.000000 
#    y 0.000000 1.631890 0.000000 
#    z 0.000000 0.000000 1.655770 
# 
# From -- ./inp_files/55481.got.cif
#   From: 2010.05.17/outbox.cif.g08.bks.cpg/sg66_28_cif.got.tgz:55481.got - 2010.06.03 17:51:23.
