data_PCOD9495860
_publ_section_title
;
Structure prediction by ZEFSAII (Michael W. Deem and Ramdas Pophale) SiO2 
 PCOD9495860
Probable space group: C C C M
;
_chemical_formula_sum "Si O2"
_cell_formula_units_Z 80
_cell_length_a 17.205490
_cell_length_b 15.654576
_cell_length_c 14.133952
_cell_angle_alpha 90.000000
_cell_angle_beta 90.000000
_cell_angle_gamma 90.000000
_cell_volume 3806.904366
_symmetry_space_group_name_H-M "C C C M"
_symmetry_group_IT_number 66
_symmetry_cell_setting 'orthorhombic'
loop_
_space_group_symop_operation_xyz
x,y,z
-x,-y,z
x,-y,1/2-z
-x,y,1/2-z
-x,-y,-z
x,y,-z
-x,y,1/2+z
x,-y,1/2+z
1/2+x,1/2+y,z
1/2-x,1/2-y,z
1/2+x,1/2-y,1/2-z
1/2-x,1/2+y,1/2-z
1/2-x,1/2-y,-z
1/2+x,1/2+y,-z
1/2-x,1/2+y,1/2+z
1/2+x,1/2-y,1/2+z
loop_
_atom_site_type_symbol
_atom_site_label
_atom_site_fract_x
_atom_site_fract_y
_atom_site_fract_z
Si Si1 0.389339 0.255158 0.388037
Si Si2 0.569714 0.233117 0.390172
Si Si3 0.800784 0.668820 0.771569
Si Si4 0.822854 0.897373 0.892378
Si Si5 0.070866 0.942766 0.108105
O O1 0.372741 0.254492 0.500000
O O2 0.478444 0.227513 0.371122
O O3 0.327959 0.195820 0.333070
O O4 0.395421 0.353936 0.352124
O O5 0.581460 0.215296 0.500000
O O6 0.619221 0.168544 0.328278
O O7 0.607760 0.327656 0.373682
O O8 0.750000 0.750000 0.806953
O O9 0.742758 0.598634 0.811323
O O10 0.860728 0.989800 0.896234
O O11 0.793038 0.876949 0.000000
O O12 0.044658 0.919119 0.000000
O O13 0.000000 0.000000 0.148215
#
# Coordination Sequence:
#
# PCOD9495860 Si02
#       5
#    16  16  16  16  16
#     4  10  19  31  50  74 105 147 189 228 274 333
#     4   9  16  29  49  71  98 136 183 230 272 318
#     4  10  20  31  44  68 109 146 189 223 266 332
#     4   9  16  29  51  77 106 141 178 230 285 328
#     4   9  15  28  52  80 109 140 179 226 281 340
#
# _framework density 21.01445
#
# number of rings (size 3 to 8) (size 9 to 14) (size 15 to 20)
#    0.000    2.600    2.000    1.200    0.000    2.800 
#    0.000    4.000    0.000    0.000    0.000    2.800 
#    0.000   28.000    0.000  112.600    0.000    0.800 
#
# Total GULP energy -222715.816867 kJ/mol
# GULP energy per Si atom -5567.895422 kJ/mol
# Density = 2.096662 g / cm^3
# Si number density = 21.014450 Si / 1000 Ang^3
#
#
#
# Elastic Constant Matrix: (Units=GPa)
#
#
# Indices 1 2 3 4 5 6 
#
# 1 79.8360 22.5520 63.4077 0.0000 0.0000 0.0000
# 2 22.5520 21.2976 32.2237 0.0000 0.0000 0.0000
# 3 63.4077 32.2237 105.5585 0.0000 0.0000 0.0000
# 4 0.0000 0.0000 0.0000 10.3926 0.0000 0.0000
# 5 0.0000 0.0000 0.0000 0.0000 26.4251 0.0000
# 6 0.0000 0.0000 0.0000 0.0000 0.0000 20.5071
#
#
#
# Elastic Compliance Matrix: (Units=1/GPa)
#
#
# Indices 1 2 3 4 5 6 
#
# 1 0.024476 -0.006825 -0.012619 0.000000 0.000000 0.000000
# 2 -0.006825 0.089157 -0.023118 0.000000 0.000000 0.000000
# 3 -0.012619 -0.023118 0.024110 0.000000 0.000000 0.000000
# 4 0.000000 0.000000 0.000000 0.096222 0.000000 0.000000
# 5 0.000000 0.000000 0.000000 0.000000 0.037843 0.000000
# 6 0.000000 0.000000 0.000000 0.000000 0.000000 0.048764
#
#
# Mechanical properties :
#
#
# Convention : Reuss Voigt Hill
#
# Bulk Modulus (GPa) = 19.00361 49.22876 34.11619
# Shear Modulus (GPa) = 11.81377 17.36553 14.58965
#
# Velocity S-wave (km/s) = 2.37359 2.87777 2.63775
# Velocity P-wave (km/s) = 4.07120 5.87529 5.05439
#
# Compressibility (1/GPa) = 0.05262159
#
# Stress axis : x y z
#
# Youngs Moduli (GPa) = 40.85677 11.21611 41.47571
#
# Poissons Ratio (x) = 0.07655 0.52338
# Poissons Ratio (y) = 0.27883 0.95882
# Poissons Ratio (z) = 0.51557 0.25929
#
# Static dielectric constant tensor:
#      x y z
#    x 1.791340 0.000000 0.000000 
#    y 0.000000 1.783400 0.000000 
#    z 0.000000 0.000000 1.851550 
# 
# From -- ./inp_files/28097.got.cif
#   From: 2010.05.17/outbox.cif.g08.bks.cpg/sg66_15_cif.got.tgz:28097.got - 2010.06.03 17:51:23.
