data_PCOD9495643
_publ_section_title
;
Structure prediction by ZEFSAII (Michael W. Deem and Ramdas Pophale) SiO2 
 PCOD9495643
Probable space group: C C C M
;
_chemical_formula_sum "Si O2"
_cell_formula_units_Z 80
_cell_length_a 11.618110
_cell_length_b 14.422917
_cell_length_c 25.147010
_cell_angle_alpha 90.000000
_cell_angle_beta 90.000000
_cell_angle_gamma 90.000000
_cell_volume 4213.809936
_symmetry_space_group_name_H-M "C C C M"
_symmetry_group_IT_number 66
_symmetry_cell_setting 'orthorhombic'
loop_
_space_group_symop_operation_xyz
x,y,z
-x,-y,z
x,-y,1/2-z
-x,y,1/2-z
-x,-y,-z
x,y,-z
-x,y,1/2+z
x,-y,1/2+z
1/2+x,1/2+y,z
1/2-x,1/2-y,z
1/2+x,1/2-y,1/2-z
1/2-x,1/2+y,1/2-z
1/2-x,1/2-y,-z
1/2+x,1/2+y,-z
1/2-x,1/2+y,1/2+z
1/2+x,1/2-y,1/2+z
loop_
_atom_site_type_symbol
_atom_site_label
_atom_site_fract_x
_atom_site_fract_y
_atom_site_fract_z
Si Si1 0.739404 0.097574 0.719612
Si Si2 0.524842 0.390836 0.343702
Si Si3 0.886720 0.764050 0.060992
Si Si4 0.101136 0.270633 0.293175
Si Si5 0.038078 0.603192 0.369512
O O1 0.865895 0.116726 0.696246
O O2 0.701383 0.174059 0.762393
O O3 0.647974 0.100729 0.670836
O O4 0.735249 0.000000 0.750000
O O5 0.500000 0.500000 0.349693
O O6 0.565741 0.340659 0.397882
O O7 0.417462 0.330838 0.320560
O O8 0.750000 0.750000 0.066771
O O9 0.935779 0.665256 0.079546
O O10 0.913539 0.786578 0.000000
O O11 0.000000 0.271668 0.250000
O O12 0.062415 0.342644 0.338716
O O13 0.000000 0.500000 0.381627
#
# Coordination Sequence:
#
# PCOD9495643 Si02
#       5
#    16  16  16  16  16
#     4  11  21  37  59  85 126 173 196 251 299 366
#     4  11  25  42  58  92 127 161 217 254 303 381
#     4  10  21  41  66  88 118 162 211 271 323 356
#     4   9  21  34  55  82 121 164 202 234 292 363
#     4  10  18  35  59  93 118 156 212 252 296 378
#
# _framework density 18.985192999999999
#
# number of rings (size 3 to 8) (size 9 to 14) (size 15 to 20)
#    0.000    1.800    4.000    0.000    2.800    0.800 
#    0.000    0.000    0.000    0.000    0.000    1.400 
#    0.000    0.000    0.000    0.000    0.000    0.800 
#
# Total GULP energy -223137.207028 kJ/mol
# GULP energy per Si atom -5578.430176 kJ/mol
# Density = 1.894198 g / cm^3
# Si number density = 18.985193 Si / 1000 Ang^3
#
#
#
# Elastic Constant Matrix: (Units=GPa)
#
#
# Indices 1 2 3 4 5 6 
#
# 1 79.2418 58.8074 53.2108 0.0000 0.0000 0.0000
# 2 58.8074 206.4418 71.2163 0.0000 0.0000 0.0000
# 3 53.2108 71.2163 124.3162 0.0000 0.0000 0.0000
# 4 0.0000 0.0000 0.0000 24.1122 0.0000 0.0000
# 5 0.0000 0.0000 0.0000 0.0000 24.3291 0.0000
# 6 0.0000 0.0000 0.0000 0.0000 0.0000 25.3652
#
#
#
# Elastic Compliance Matrix: (Units=1/GPa)
#
#
# Indices 1 2 3 4 5 6 
#
# 1 0.019371 -0.003312 -0.006394 0.000000 0.000000 0.000000
# 2 -0.003312 0.006603 -0.002365 0.000000 0.000000 0.000000
# 3 -0.006394 -0.002365 0.012136 0.000000 0.000000 0.000000
# 4 0.000000 0.000000 0.000000 0.041473 0.000000 0.000000
# 5 0.000000 0.000000 0.000000 0.000000 0.041103 0.000000
# 6 0.000000 0.000000 0.000000 0.000000 0.000000 0.039424
#
#
# Mechanical properties :
#
#
# Convention : Reuss Voigt Hill
#
# Bulk Modulus (GPa) = 71.59416 86.27433 78.93424
# Shear Modulus (GPa) = 26.46774 29.87896 28.17335
#
# Velocity S-wave (km/s) = 3.73785 3.97142 3.85640
# Velocity P-wave (km/s) = 7.51140 8.15912 7.84195
#
# Compressibility (1/GPa) = 0.01396762
#
# Stress axis : x y z
#
# Youngs Moduli (GPa) = 51.62257 151.43605 82.40201
#
# Poissons Ratio (x) = 0.50163 0.52687
# Poissons Ratio (y) = 0.17100 0.19489
# Poissons Ratio (z) = 0.33007 0.35815
#
# Static dielectric constant tensor:
#      x y z
#    x 1.839800 0.000000 0.000000 
#    y 0.000000 1.701920 0.000000 
#    z 0.000000 0.000000 1.634290 
# 
# From -- ./inp_files/56626.got.cif
#   From: 2010.05.17/outbox.cif.g08.bks.cpg/sg66_29_cif.got.tgz:56626.got - 2010.06.03 17:51:23.
