data_PCOD9495002
_publ_section_title
;
Structure prediction by ZEFSAII (Michael W. Deem and Ramdas Pophale) SiO2 
 PCOD9495002
Probable space group: C C C M
;
_chemical_formula_sum "Si O2"
_cell_formula_units_Z 80
_cell_length_a 23.732583
_cell_length_b 29.871934
_cell_length_c 8.573051
_cell_angle_alpha 90.000000
_cell_angle_beta 90.000000
_cell_angle_gamma 90.000000
_cell_volume 6077.762942
_symmetry_space_group_name_H-M "C C C M"
_symmetry_group_IT_number 66
_symmetry_cell_setting 'orthorhombic'
loop_
_space_group_symop_operation_xyz
x,y,z
-x,-y,z
x,-y,1/2-z
-x,y,1/2-z
-x,-y,-z
x,y,-z
-x,y,1/2+z
x,-y,1/2+z
1/2+x,1/2+y,z
1/2-x,1/2-y,z
1/2+x,1/2-y,1/2-z
1/2-x,1/2+y,1/2-z
1/2-x,1/2-y,-z
1/2+x,1/2+y,-z
1/2-x,1/2+y,1/2+z
1/2+x,1/2-y,1/2+z
loop_
_atom_site_type_symbol
_atom_site_label
_atom_site_fract_x
_atom_site_fract_y
_atom_site_fract_z
Si Si1 0.332289 0.271488 0.314031
Si Si2 0.062124 0.450185 0.813272
Si Si3 0.865974 0.369275 0.187608
Si Si4 0.768758 0.683832 0.814839
Si Si5 0.437143 0.218872 0.312247
O O1 0.330316 0.277476 0.500000
O O2 0.296455 0.310662 0.233524
O O3 0.299847 0.225474 0.269956
O O4 0.396092 0.259913 0.264522
O O5 0.073902 0.500000 0.750000
O O6 0.106781 0.414444 0.751177
O O7 0.000000 0.437533 0.750000
O O8 0.060819 0.450678 0.000000
O O9 0.804304 0.358529 0.256533
O O10 0.906922 0.327752 0.235831
O O11 0.863241 0.369797 0.000000
O O12 0.774015 0.688887 0.000000
O O13 0.500000 0.221856 0.250000
O O14 0.438384 0.218603 0.500000
#
# Coordination Sequence:
#
# PCOD9495002 Si02
#       5
#    16  16  16  16  16
#     4   9  16  27  38  51  73 100 124 152 190 230
#     4  11  21  33  46  60  77 100 128 160 197 238
#     4  10  19  31  43  57  76  99 126 161 199 235
#     4  10  17  25  39  58  73  92 122 157 192 228
#     4   9  18  27  38  54  74  99 127 157 192 227
#
# _framework density 13.162737
#
# number of rings (size 3 to 8) (size 9 to 14) (size 15 to 20)
#    0.000    2.200    0.000    8.400    0.000    6.400 
#    0.000    0.000    0.000    0.000    0.000    0.000 
#    0.000    0.000    0.000    0.000    0.000    1.000 
#
# Total GULP energy -222861.138054 kJ/mol
# GULP energy per Si atom -5571.528451 kJ/mol
# Density = 1.313278 g / cm^3
# Si number density = 13.162737 Si / 1000 Ang^3
#
#
#
# Elastic Constant Matrix: (Units=GPa)
#
#
# Indices 1 2 3 4 5 6 
#
# 1 66.9250 34.6315 14.9794 0.0000 0.0000 0.0000
# 2 34.6315 50.6715 15.7837 0.0000 0.0000 0.0000
# 3 14.9794 15.7837 37.6330 0.0000 0.0000 0.0000
# 4 0.0000 0.0000 0.0000 12.4726 0.0000 0.0000
# 5 0.0000 0.0000 0.0000 0.0000 41.1314 0.0000
# 6 0.0000 0.0000 0.0000 0.0000 0.0000 26.7613
#
#
#
# Elastic Compliance Matrix: (Units=1/GPa)
#
#
# Indices 1 2 3 4 5 6 
#
# 1 0.023409 -0.015064 -0.002999 0.000000 0.000000 0.000000
# 2 -0.015064 0.032395 -0.007591 0.000000 0.000000 0.000000
# 3 -0.002999 -0.007591 0.030950 0.000000 0.000000 0.000000
# 4 0.000000 0.000000 0.000000 0.080176 0.000000 0.000000
# 5 0.000000 0.000000 0.000000 0.000000 0.024312 0.000000
# 6 0.000000 0.000000 0.000000 0.000000 0.000000 0.037367
#
#
# Mechanical properties :
#
#
# Convention : Reuss Voigt Hill
#
# Bulk Modulus (GPa) = 28.21287 31.77986 29.99637
# Shear Modulus (GPa) = 17.13894 22.06206 19.60050
#
# Velocity S-wave (km/s) = 3.61235 4.09846 3.86306
# Velocity P-wave (km/s) = 6.23532 6.82589 6.53727
#
# Compressibility (1/GPa) = 0.03544481
#
# Stress axis : x y z
#
# Youngs Moduli (GPa) = 42.71891 30.86876 32.31026
#
# Poissons Ratio (x) = 0.46502 0.09691
# Poissons Ratio (y) = 0.64354 0.24526
# Poissons Ratio (z) = 0.12813 0.23431
#
# Static dielectric constant tensor:
#      x y z
#    x 1.463340 0.000000 0.000000 
#    y 0.000000 1.421150 0.000000 
#    z 0.000000 0.000000 1.438650 
# 
# From -- ./inp_files/8222.got.cif
#   From: 2010.05.17/outbox.cif.g08.bks.cpg/sg66_5_cif.got.tgz:8222.got - 2010.06.03 17:51:23.
