data_PCOD9495596
_publ_section_title
;
Structure prediction by ZEFSAII (Michael W. Deem and Ramdas Pophale) SiO2 
 PCOD9495596
Probable space group: C C C M
;
_chemical_formula_sum "Si O2"
_cell_formula_units_Z 112
_cell_length_a 24.426846
_cell_length_b 15.262327
_cell_length_c 14.529575
_cell_angle_alpha 90.000000
_cell_angle_beta 90.000000
_cell_angle_gamma 90.000000
_cell_volume 5416.778284
_symmetry_space_group_name_H-M "C C C M"
_symmetry_group_IT_number 66
_symmetry_cell_setting 'orthorhombic'
loop_
_space_group_symop_operation_xyz
x,y,z
-x,-y,z
x,-y,1/2-z
-x,y,1/2-z
-x,-y,-z
x,y,-z
-x,y,1/2+z
x,-y,1/2+z
1/2+x,1/2+y,z
1/2-x,1/2-y,z
1/2+x,1/2-y,1/2-z
1/2-x,1/2+y,1/2-z
1/2-x,1/2-y,-z
1/2+x,1/2+y,-z
1/2-x,1/2+y,1/2+z
1/2+x,1/2-y,1/2+z
loop_
_atom_site_type_symbol
_atom_site_label
_atom_site_fract_x
_atom_site_fract_y
_atom_site_fract_z
Si Si1 0.717424 0.535462 0.852868
Si Si2 0.022252 0.089836 0.644091
Si Si3 0.947731 0.550948 0.896097
Si Si4 0.033364 0.255991 0.156412
Si Si5 0.157930 0.788668 0.295311
Si Si6 0.668156 0.109056 0.606439
Si Si7 0.853206 0.870837 0.603325
O O1 0.725015 0.500000 0.750000
O O2 0.683869 0.627004 0.846398
O O3 0.776977 0.553017 0.893092
O O4 0.684158 0.457257 0.899246
O O5 0.087004 0.095569 0.635202
O O6 0.000000 0.090862 0.750000
O O7 0.997540 0.178644 0.604655
O O8 0.000000 0.000000 0.603798
O O9 0.962921 0.653246 0.895935
O O10 0.885518 0.556208 0.857511
O O11 0.000000 0.500000 0.854487
O O12 0.941997 0.515393 0.000000
O O13 0.093396 0.220500 0.182653
O O14 0.000000 0.275132 0.250000
O O15 0.179820 0.695941 0.333085
O O16 0.165364 0.806364 0.186027
O O17 0.656030 0.135476 0.500000
O O18 0.855853 0.832906 0.500000
#
# Coordination Sequence:
#
# PCOD9495596 Si02
#       7
#    16  16  16  16  16  16  16
#     4  10  22  38  60  87 122 167 205 266 316 380
#     4  10  19  33  58  82 127 172 205 253 303 366
#     4   9  20  39  61  88 121 152 191 256 322 371
#     4  10  18  34  56  86 114 162 203 249 298 369
#     4  10  20  38  60  87 125 162 207 260 320 365
#     4  10  21  40  67  94 121 155 211 270 321 383
#     4  11  22  36  58  90 127 169 213 254 314 385
#
# _framework density 20.676497999999999
#
# number of rings (size 3 to 8) (size 9 to 14) (size 15 to 20)
#    0.000    2.000    2.857    1.714    4.000    2.857 
#    5.143    2.857    0.000    7.714    0.000    0.000 
#    0.000    0.857    0.000    0.000    0.000    0.000 
#
# Total GULP energy -312213.225121 kJ/mol
# GULP energy per Si atom -5575.236163 kJ/mol
# Density = 2.062944 g / cm^3
# Si number density = 20.676498 Si / 1000 Ang^3
#
#
#
# Elastic Constant Matrix: (Units=GPa)
#
#
# Indices 1 2 3 4 5 6 
#
# 1 128.6164 67.2291 20.6579 0.0000 0.0000 0.0000
# 2 67.2291 87.4303 22.8650 0.0000 0.0000 0.0000
# 3 20.6579 22.8650 105.8705 0.0000 0.0000 0.0000
# 4 0.0000 0.0000 0.0000 32.0604 0.0000 0.0000
# 5 0.0000 0.0000 0.0000 0.0000 1.5458 0.0000
# 6 0.0000 0.0000 0.0000 0.0000 0.0000 38.5528
#
#
#
# Elastic Compliance Matrix: (Units=1/GPa)
#
#
# Indices 1 2 3 4 5 6 
#
# 1 0.013016 -0.009904 -0.000401 0.000000 0.000000 0.000000
# 2 -0.009904 0.019658 -0.002313 0.000000 0.000000 0.000000
# 3 -0.000401 -0.002313 0.010023 0.000000 0.000000 0.000000
# 4 0.000000 0.000000 0.000000 0.031191 0.000000 0.000000
# 5 0.000000 0.000000 0.000000 0.000000 0.646897 0.000000
# 6 0.000000 0.000000 0.000000 0.000000 0.000000 0.025938
#
#
# Mechanical properties :
#
#
# Convention : Reuss Voigt Hill
#
# Bulk Modulus (GPa) = 57.26729 60.38015 58.82372
# Shear Modulus (GPa) = 6.42854 28.50948 17.46901
#
# Velocity S-wave (km/s) = 1.76518 3.71730 2.90982
# Velocity P-wave (km/s) = 5.64902 6.90580 6.30878
#
# Compressibility (1/GPa) = 0.01746197
#
# Stress axis : x y z
#
# Youngs Moduli (GPa) = 76.82617 50.86908 99.76778
#
# Poissons Ratio (x) = 0.50381 0.03999
# Poissons Ratio (y) = 0.76089 0.23077
# Poissons Ratio (z) = 0.03079 0.11767
#
# Static dielectric constant tensor:
#      x y z
#    x 1.761030 0.000000 0.000000 
#    y 0.000000 1.735670 0.000000 
#    z 0.000000 0.000000 1.781680 
# 
# From -- ./inp_files/32514.got.cif
#   From: 2010.05.17/outbox.cif.g08.bks.cpg/sg66_17_cif.got.tgz:32514.got - 2010.06.03 17:51:23.
