data_PCOD9495020
_publ_section_title
;
Structure prediction by ZEFSAII (Michael W. Deem and Ramdas Pophale) SiO2 
 PCOD9495020
Probable space group: C C C M
;
_chemical_formula_sum "Si O2"
_cell_formula_units_Z 80
_cell_length_a 37.719647
_cell_length_b 18.778667
_cell_length_c 8.731291
_cell_angle_alpha 90.000000
_cell_angle_beta 90.000000
_cell_angle_gamma 90.000000
_cell_volume 6184.588994
_symmetry_space_group_name_H-M "C C C M"
_symmetry_group_IT_number 66
_symmetry_cell_setting 'orthorhombic'
loop_
_space_group_symop_operation_xyz
x,y,z
-x,-y,z
x,-y,1/2-z
-x,y,1/2-z
-x,-y,-z
x,y,-z
-x,y,1/2+z
x,-y,1/2+z
1/2+x,1/2+y,z
1/2-x,1/2-y,z
1/2+x,1/2-y,1/2-z
1/2-x,1/2+y,1/2-z
1/2-x,1/2-y,-z
1/2+x,1/2+y,-z
1/2-x,1/2+y,1/2+z
1/2+x,1/2-y,1/2+z
loop_
_atom_site_type_symbol
_atom_site_label
_atom_site_fract_x
_atom_site_fract_y
_atom_site_fract_z
Si Si1 0.322916 0.657469 0.182352
Si Si2 0.751064 0.421417 0.182994
Si Si3 0.390307 0.579774 0.317300
Si Si4 0.788045 0.290287 0.323606
Si Si5 0.536251 0.419316 0.183571
O O1 0.287972 0.610420 0.221241
O O2 0.356596 0.626064 0.269329
O O3 0.313998 0.738071 0.231909
O O4 0.328317 0.653122 0.000000
O O5 0.754586 0.500000 0.250000
O O6 0.779875 0.366602 0.250176
O O7 0.753836 0.422709 0.000000
O O8 0.385233 0.500000 0.250000
O O9 0.393923 0.574952 0.500000
O O10 0.426575 0.610745 0.244600
O O11 0.799154 0.296781 0.500000
O O12 0.750000 0.250000 0.320739
O O13 0.536757 0.500000 0.250000
O O14 0.500000 0.386299 0.250000
O O15 0.535287 0.421147 0.000000
#
# Coordination Sequence:
#
# PCOD9495020 Si02
#       5
#    16  16  16  16  16
#     4  10  19  30  42  57  77 100 126 158 196 233
#     4  10  19  29  42  58  76  98 126 160 195 231
#     4  11  20  29  40  56  76  99 128 161 196 230
#     4   9  17  29  43  57  74  97 124 154 190 232
#     4  10  17  27  40  54  72  95 123 155 190 226
#
# _framework density 12.935378
#
# number of rings (size 3 to 8) (size 9 to 14) (size 15 to 20)
#    0.000    2.000    0.000    7.800    0.000    6.400 
#    0.000    0.000    0.000    0.000    0.000    0.000 
#    0.000    0.000    0.000    0.000    0.000    1.000 
#
# Total GULP energy -223030.019729 kJ/mol
# GULP energy per Si atom -5575.750493 kJ/mol
# Density = 1.290594 g / cm^3
# Si number density = 12.935378 Si / 1000 Ang^3
#
#
#
# Elastic Constant Matrix: (Units=GPa)
#
#
# Indices 1 2 3 4 5 6 
#
# 1 70.5995 32.4526 39.1740 0.0000 0.0000 0.0000
# 2 32.4526 76.9875 32.5501 0.0000 0.0000 0.0000
# 3 39.1740 32.5501 97.9693 0.0000 0.0000 0.0000
# 4 0.0000 0.0000 0.0000 20.6860 0.0000 0.0000
# 5 0.0000 0.0000 0.0000 0.0000 21.9664 0.0000
# 6 0.0000 0.0000 0.0000 0.0000 0.0000 10.0086
#
#
#
# Elastic Compliance Matrix: (Units=1/GPa)
#
#
# Indices 1 2 3 4 5 6 
#
# 1 0.020314 -0.005967 -0.006140 0.000000 0.000000 0.000000
# 2 -0.005967 0.016865 -0.003217 0.000000 0.000000 0.000000
# 3 -0.006140 -0.003217 0.013732 0.000000 0.000000 0.000000
# 4 0.000000 0.000000 0.000000 0.048342 0.000000 0.000000
# 5 0.000000 0.000000 0.000000 0.000000 0.045524 0.000000
# 6 0.000000 0.000000 0.000000 0.000000 0.000000 0.099914
#
#
# Mechanical properties :
#
#
# Convention : Reuss Voigt Hill
#
# Bulk Modulus (GPa) = 49.35537 50.43440 49.89489
# Shear Modulus (GPa) = 17.72462 19.95752 18.84107
#
# Velocity S-wave (km/s) = 3.70570 3.93219 3.82062
# Velocity P-wave (km/s) = 7.51982 7.72595 7.62358
#
# Compressibility (1/GPa) = 0.02026122
#
# Stress axis : x y z
#
# Youngs Moduli (GPa) = 49.22613 59.29557 72.82519
#
# Poissons Ratio (x) = 0.35382 0.44717
# Poissons Ratio (y) = 0.29373 0.23430
# Poissons Ratio (z) = 0.30227 0.19077
#
# Static dielectric constant tensor:
#      x y z
#    x 1.441890 0.000000 0.000000 
#    y 0.000000 1.398790 0.000000 
#    z 0.000000 0.000000 1.432060 
# 
# From -- ./inp_files/11460.got.cif
#   From: 2010.05.17/outbox.cif.g08.bks.cpg/sg66_6_cif.got.tgz:11460.got - 2010.06.03 17:51:23.
