data_PCOD9495584
_publ_section_title
;
Structure prediction by ZEFSAII (Michael W. Deem and Ramdas Pophale) SiO2 
 PCOD9495584
Probable space group: C C C M
;
_chemical_formula_sum "Si O2"
_cell_formula_units_Z 104
_cell_length_a 24.542002
_cell_length_b 14.695106
_cell_length_c 14.637189
_cell_angle_alpha 90.000000
_cell_angle_beta 90.000000
_cell_angle_gamma 90.000000
_cell_volume 5278.862998
_symmetry_space_group_name_H-M "C C C M"
_symmetry_group_IT_number 66
_symmetry_cell_setting 'orthorhombic'
loop_
_space_group_symop_operation_xyz
x,y,z
-x,-y,z
x,-y,1/2-z
-x,y,1/2-z
-x,-y,-z
x,y,-z
-x,y,1/2+z
x,-y,1/2+z
1/2+x,1/2+y,z
1/2-x,1/2-y,z
1/2+x,1/2-y,1/2-z
1/2-x,1/2+y,1/2-z
1/2-x,1/2-y,-z
1/2+x,1/2+y,-z
1/2-x,1/2+y,1/2+z
1/2+x,1/2-y,1/2+z
loop_
_atom_site_type_symbol
_atom_site_label
_atom_site_fract_x
_atom_site_fract_y
_atom_site_fract_z
Si Si1 0.295143 0.814157 0.103644
Si Si2 0.500000 0.238376 0.750000
Si Si3 0.701500 0.311381 0.606603
Si Si4 0.267731 0.015100 0.857847
Si Si5 0.418850 0.150002 0.396005
Si Si6 0.916982 0.250267 0.390539
Si Si7 0.390954 0.043411 0.147931
O O1 0.250000 0.750000 0.148911
O O2 0.357257 0.823339 0.137914
O O3 0.269513 0.914579 0.101558
O O4 0.302756 0.780713 0.000000
O O5 0.460972 0.182033 0.680654
O O6 0.538003 0.290624 0.677495
O O7 0.697829 0.286960 0.500000
O O8 0.750000 0.250000 0.646816
O O9 0.721247 0.415144 0.613845
O O10 0.641637 0.288064 0.640962
O O11 0.327540 0.055617 0.879552
O O12 0.264170 0.000000 0.750000
O O13 0.428547 0.185390 0.500000
O O14 0.418049 0.040717 0.403575
O O15 0.924977 0.236270 0.500000
O O16 0.917688 0.359375 0.370349
O O17 0.391119 0.000000 0.250000
#
# Coordination Sequence:
#
# PCOD9495584 Si02
#       7
#    16   8  16  16  16  16  16
#     4   9  19  36  58  84 111 141 179 229 290 352
#     4  12  24  39  52  74 113 156 202 254 279 332
#     4  10  20  35  57  84 113 149 191 238 292 349
#     4  10  20  31  53  84 119 149 180 224 286 351
#     4  10  21  35  54  76 107 150 190 230 285 343
#     4  11  23  37  57  80 109 154 203 245 298 351
#     4  10  18  34  51  78 112 151 190 234 286 344
#
# _framework density 19.701212999999999
#
# number of rings (size 3 to 8) (size 9 to 14) (size 15 to 20)
#    0.000    1.846    3.077    1.385    0.000    4.308 
#    0.000    1.538    0.000    0.000    0.000    4.846 
#    0.000   13.538    0.000    0.000    0.000    0.000 
#
# Total GULP energy -289820.356931 kJ/mol
# GULP energy per Si atom -5573.468403 kJ/mol
# Density = 1.965637 g / cm^3
# Si number density = 19.701213 Si / 1000 Ang^3
#
#
#
# Elastic Constant Matrix: (Units=GPa)
#
#
# Indices 1 2 3 4 5 6 
#
# 1 129.7560 37.9658 45.4109 0.0000 0.0000 0.0000
# 2 37.9658 37.7829 7.4839 0.0000 0.0000 0.0000
# 3 45.4109 7.4839 111.1049 0.0000 0.0000 0.0000
# 4 0.0000 0.0000 0.0000 12.5746 0.0000 0.0000
# 5 0.0000 0.0000 0.0000 0.0000 21.2992 0.0000
# 6 0.0000 0.0000 0.0000 0.0000 0.0000 26.2485
#
#
#
# Elastic Compliance Matrix: (Units=1/GPa)
#
#
# Indices 1 2 3 4 5 6 
#
# 1 0.012737 -0.011927 -0.004403 0.000000 0.000000 0.000000
# 2 -0.011927 0.037993 0.002316 0.000000 0.000000 0.000000
# 3 -0.004403 0.002316 0.010644 0.000000 0.000000 0.000000
# 4 0.000000 0.000000 0.000000 0.079526 0.000000 0.000000
# 5 0.000000 0.000000 0.000000 0.000000 0.046950 0.000000
# 6 0.000000 0.000000 0.000000 0.000000 0.000000 0.038097
#
#
# Mechanical properties :
#
#
# Convention : Reuss Voigt Hill
#
# Bulk Modulus (GPa) = 29.98825 51.15167 40.56996
# Shear Modulus (GPa) = 18.86147 24.54333 21.70240
#
# Velocity S-wave (km/s) = 3.09751 3.53339 3.32260
# Velocity P-wave (km/s) = 5.29597 6.53196 5.94617
#
# Compressibility (1/GPa) = 0.03334639
#
# Stress axis : x y z
#
# Youngs Moduli (GPa) = 78.50954 26.32067 93.94991
#
# Poissons Ratio (x) = 0.31392 0.41363
# Poissons Ratio (y) = 0.93638 -0.21755
# Poissons Ratio (z) = 0.34565 -0.06095
#
# Static dielectric constant tensor:
#      x y z
#    x 1.760100 0.000000 0.000000 
#    y 0.000000 1.684150 0.000000 
#    z 0.000000 0.000000 1.803040 
# 
# From -- ./inp_files/32501.got.cif
#   From: 2010.05.17/outbox.cif.g08.bks.cpg/sg66_17_cif.got.tgz:32501.got - 2010.06.03 17:51:23.
