data_PCOD9495376
_publ_section_title
;
Structure prediction by ZEFSAII (Michael W. Deem and Ramdas Pophale) SiO2 
 PCOD9495376
Probable space group: C C C M
;
_chemical_formula_sum "Si O2"
_cell_formula_units_Z 64
_cell_length_a 15.349352
_cell_length_b 7.166526
_cell_length_c 24.719041
_cell_angle_alpha 90.000000
_cell_angle_beta 90.000000
_cell_angle_gamma 90.000000
_cell_volume 2719.132335
_symmetry_space_group_name_H-M "C C C M"
_symmetry_group_IT_number 66
_symmetry_cell_setting 'orthorhombic'
loop_
_space_group_symop_operation_xyz
x,y,z
-x,-y,z
x,-y,1/2-z
-x,y,1/2-z
-x,-y,-z
x,y,-z
-x,y,1/2+z
x,-y,1/2+z
1/2+x,1/2+y,z
1/2-x,1/2-y,z
1/2+x,1/2-y,1/2-z
1/2-x,1/2+y,1/2-z
1/2-x,1/2-y,-z
1/2+x,1/2+y,-z
1/2-x,1/2+y,1/2+z
1/2+x,1/2-y,1/2+z
loop_
_atom_site_type_symbol
_atom_site_label
_atom_site_fract_x
_atom_site_fract_y
_atom_site_fract_z
Si Si1 0.509117 0.725681 0.188271
Si Si2 0.341618 0.138867 0.500000
Si Si3 0.966325 0.788390 0.000000
Si Si4 0.844174 0.257239 0.881655
Si Si5 0.150076 0.813972 0.603205
O O1 0.500000 0.500000 0.188437
O O2 0.500000 0.787347 0.250000
O O3 0.427711 0.802964 0.154161
O O4 0.599674 0.755521 0.156734
O O5 0.250000 0.250000 0.500000
O O6 0.444442 0.178991 0.500000
O O7 0.336874 0.108318 0.566321
O O8 0.905747 0.754066 0.051259
O O9 0.000000 0.000000 0.000000
O O10 0.750000 0.250000 0.852679
O O11 0.856778 0.040997 0.899942
O O12 0.250000 0.750000 0.601727
#
# Coordination Sequence:
#
# PCOD9495376 Si02
#       5
#    16   8   8  16  16
#     4   9  18  34  55  76  99 138 183 214 249 310
#     4  10  18  30  56  80  99 129 178 212 248 306
#     4  12  17  34  57  77 104 142 179 208 255 316
#     4  10  19  34  56  76 103 139 174 209 259 314
#     4  11  21  33  53  83 108 133 172 223 260 305
#
# _framework density 23.536919999999999
#
# number of rings (size 3 to 8) (size 9 to 14) (size 15 to 20)
#    0.000    1.750    5.000    1.125    0.000    1.000 
#    0.000    1.250    0.000    4.500    0.000    0.000 
#    0.000    0.000    0.000    0.000    0.000    0.000 
#
# Total GULP energy -178337.187214 kJ/mol
# GULP energy per Si atom -5573.037100 kJ/mol
# Density = 2.348335 g / cm^3
# Si number density = 23.536920 Si / 1000 Ang^3
#
#
#
# Elastic Constant Matrix: (Units=GPa)
#
#
# Indices 1 2 3 4 5 6 
#
# 1 243.3329 23.6421 95.9256 0.0000 0.0000 0.0000
# 2 23.6421 104.3078 9.7519 0.0000 0.0000 0.0000
# 3 95.9256 9.7519 169.3611 0.0000 0.0000 0.0000
# 4 0.0000 0.0000 0.0000 408.5997 0.0000 0.0000
# 5 0.0000 0.0000 0.0000 0.0000 68.4947 0.0000
# 6 0.0000 0.0000 0.0000 0.0000 0.0000 36.0765
#
#
#
# Elastic Compliance Matrix: (Units=1/GPa)
#
#
# Indices 1 2 3 4 5 6 
#
# 1 0.005381 -0.000940 -0.002994 0.000000 0.000000 0.000000
# 2 -0.000940 0.009803 -0.000032 0.000000 0.000000 0.000000
# 3 -0.002994 -0.000032 0.007602 0.000000 0.000000 0.000000
# 4 0.000000 0.000000 0.000000 0.002447 0.000000 0.000000
# 5 0.000000 0.000000 0.000000 0.000000 0.014600 0.000000
# 6 0.000000 0.000000 0.000000 0.000000 0.000000 0.027719
#
#
# Mechanical properties :
#
#
# Convention : Reuss Voigt Hill
#
# Bulk Modulus (GPa) = 67.31830 86.18234 76.75032
# Shear Modulus (GPa) = 62.16199 128.47964 95.32081
#
# Velocity S-wave (km/s) = 5.14468 7.39628 6.37074
# Velocity P-wave (km/s) = 7.99710 10.47068 9.31635
#
# Compressibility (1/GPa) = 0.01485480
#
# Stress axis : x y z
#
# Youngs Moduli (GPa) = 185.83662 102.00929 131.54389
#
# Poissons Ratio (x) = 0.09587 0.39380
# Poissons Ratio (y) = 0.17464 0.00423
# Poissons Ratio (z) = 0.55634 0.00328
#
# Static dielectric constant tensor:
#      x y z
#    x 1.789950 0.000000 0.000000 
#    y 0.000000 1.905100 0.000000 
#    z 0.000000 0.000000 1.878990 
# 
# From -- ./inp_files/55054.got.cif
#   From: 2010.05.17/outbox.cif.g08.bks.cpg/sg66_28_cif.got.tgz:55054.got - 2010.06.03 17:51:23.
