data_PCOD9495673
_publ_section_title
;
Structure prediction by ZEFSAII (Michael W. Deem and Ramdas Pophale) SiO2 
 PCOD9495673
Probable space group: C C C M
;
_chemical_formula_sum "Si O2"
_cell_formula_units_Z 104
_cell_length_a 23.172832
_cell_length_b 9.321439
_cell_length_c 24.078944
_cell_angle_alpha 90.000000
_cell_angle_beta 90.000000
_cell_angle_gamma 90.000000
_cell_volume 5201.151590
_symmetry_space_group_name_H-M "C C C M"
_symmetry_group_IT_number 66
_symmetry_cell_setting 'orthorhombic'
loop_
_space_group_symop_operation_xyz
x,y,z
-x,-y,z
x,-y,1/2-z
-x,y,1/2-z
-x,-y,-z
x,y,-z
-x,y,1/2+z
x,-y,1/2+z
1/2+x,1/2+y,z
1/2-x,1/2-y,z
1/2+x,1/2-y,1/2-z
1/2-x,1/2+y,1/2-z
1/2-x,1/2-y,-z
1/2+x,1/2+y,-z
1/2-x,1/2+y,1/2+z
1/2+x,1/2-y,1/2+z
loop_
_atom_site_type_symbol
_atom_site_label
_atom_site_fract_x
_atom_site_fract_y
_atom_site_fract_z
Si Si1 0.209959 0.877161 0.064701
Si Si2 0.629940 0.909597 0.065858
Si Si3 0.500000 0.500000 0.895657
Si Si4 0.696676 0.660071 0.130382
Si Si5 0.999730 0.696511 0.061395
Si Si6 0.617016 0.204503 0.118892
Si Si7 0.393776 0.460407 0.311676
O O1 0.250000 0.750000 0.088358
O O2 0.145231 0.818924 0.075876
O O3 0.219289 0.030208 0.092112
O O4 0.221116 0.889515 0.000000
O O5 0.660718 0.771396 0.092440
O O6 0.560825 0.882316 0.069206
O O7 0.643893 0.050844 0.102547
O O8 0.644129 0.928352 0.000000
O O9 0.512663 0.635543 0.933646
O O10 0.554573 0.481371 0.855237
O O11 0.750000 0.750000 0.154686
O O12 0.656112 0.574654 0.173135
O O13 0.049552 0.677661 0.106776
O O14 0.022959 0.661808 0.000000
O O15 0.625049 0.293990 0.176184
O O16 0.412826 0.500000 0.250000
#
# Coordination Sequence:
#
# PCOD9495673 Si02
#       7
#    16  16   8  16  16  16  16
#     4  10  20  35  55  82 117 160 202 240 296 369
#     4  11  21  35  56  89 128 162 193 237 303 373
#     4  10  18  36  62  88 116 152 194 256 300 354
#     4  11  23  39  58  84 119 155 200 254 304 367
#     4  10  19  31  54  88 127 161 192 230 292 370
#     4  10  21  35  56  84 119 158 198 247 296 357
#     4  10  22  42  63  85 110 152 211 258 311 350
#
# _framework density 19.995573
#
# number of rings (size 3 to 8) (size 9 to 14) (size 15 to 20)
#    0.000    1.692    1.538    3.692    0.000    3.692 
#    0.000    5.385    0.000    0.000    0.000    0.000 
#    0.000    0.000    0.000    0.000    0.000    0.000 
#
# Total GULP energy -289907.770123 kJ/mol
# GULP energy per Si atom -5575.149425 kJ/mol
# Density = 1.995006 g / cm^3
# Si number density = 19.995573 Si / 1000 Ang^3
#
#
#
# Elastic Constant Matrix: (Units=GPa)
#
#
# Indices 1 2 3 4 5 6 
#
# 1 79.2081 19.1963 7.6485 0.0000 0.0000 0.0000
# 2 19.1963 154.2686 33.3795 0.0000 0.0000 0.0000
# 3 7.6485 33.3795 54.8827 0.0000 0.0000 0.0000
# 4 0.0000 0.0000 0.0000 18.8496 0.0000 0.0000
# 5 0.0000 0.0000 0.0000 0.0000 0.4865 0.0000
# 6 0.0000 0.0000 0.0000 0.0000 0.0000 38.6384
#
#
#
# Elastic Compliance Matrix: (Units=1/GPa)
#
#
# Indices 1 2 3 4 5 6 
#
# 1 0.013061 -0.001418 -0.000958 0.000000 0.000000 0.000000
# 2 -0.001418 0.007618 -0.004436 0.000000 0.000000 0.000000
# 3 -0.000958 -0.004436 0.021052 0.000000 0.000000 0.000000
# 4 0.000000 0.000000 0.000000 0.053052 0.000000 0.000000
# 5 0.000000 0.000000 0.000000 0.000000 2.055601 0.000000
# 6 0.000000 0.000000 0.000000 0.000000 0.000000 0.025881
#
#
# Mechanical properties :
#
#
# Convention : Reuss Voigt Hill
#
# Bulk Modulus (GPa) = 35.57680 45.42313 40.49996
# Shear Modulus (GPa) = 2.27349 26.80389 14.53869
#
# Velocity S-wave (km/s) = 1.06746 3.66524 2.69940
# Velocity P-wave (km/s) = 4.39889 6.37793 5.47851
#
# Compressibility (1/GPa) = 0.02810821
#
# Stress axis : x y z
#
# Youngs Moduli (GPa) = 76.56316 131.26013 47.50134
#
# Poissons Ratio (x) = 0.18613 0.04550
# Poissons Ratio (y) = 0.10857 0.21071
# Poissons Ratio (z) = 0.07333 0.58226
#
# Static dielectric constant tensor:
#      x y z
#    x 1.795970 0.000000 0.000000 
#    y 0.000000 1.759940 0.000000 
#    z 0.000000 0.000000 1.647540 
# 
# From -- ./inp_files/60175.got.cif
#   From: 2010.05.17/outbox.cif.g08.bks.cpg/sg66_31_cif.got.tgz:60175.got - 2010.06.03 17:51:23.
