data_PCOD9495538
_publ_section_title
;
Structure prediction by ZEFSAII (Michael W. Deem and Ramdas Pophale) SiO2 
 PCOD9495538
Probable space group: C C C M
;
_chemical_formula_sum "Si O2"
_cell_formula_units_Z 88
_cell_length_a 22.775569
_cell_length_b 13.268566
_cell_length_c 15.598127
_cell_angle_alpha 90.000000
_cell_angle_beta 90.000000
_cell_angle_gamma 90.000000
_cell_volume 4713.740572
_symmetry_space_group_name_H-M "C C C M"
_symmetry_group_IT_number 66
_symmetry_cell_setting 'orthorhombic'
loop_
_space_group_symop_operation_xyz
x,y,z
-x,-y,z
x,-y,1/2-z
-x,y,1/2-z
-x,-y,-z
x,y,-z
-x,y,1/2+z
x,-y,1/2+z
1/2+x,1/2+y,z
1/2-x,1/2-y,z
1/2+x,1/2-y,1/2-z
1/2-x,1/2+y,1/2-z
1/2-x,1/2-y,-z
1/2+x,1/2+y,-z
1/2-x,1/2+y,1/2+z
1/2+x,1/2-y,1/2+z
loop_
_atom_site_type_symbol
_atom_site_label
_atom_site_fract_x
_atom_site_fract_y
_atom_site_fract_z
Si Si1 0.933238 0.280538 0.837532
Si Si2 0.433704 0.539392 0.153651
Si Si3 0.853743 0.271260 0.500000
Si Si4 0.637033 0.032673 0.153537
Si Si5 0.648326 0.465410 0.500000
Si Si6 0.717998 0.037448 0.500000
Si Si7 0.057356 0.649943 0.640555
O O1 0.931227 0.160989 0.848766
O O2 0.878370 0.350625 0.861431
O O3 0.938104 0.306100 0.736326
O O4 0.991170 0.323557 0.884690
O O5 0.500000 0.500000 0.134442
O O6 0.420321 0.500000 0.250000
O O7 0.388591 0.498239 0.083295
O O8 0.843644 0.154128 0.500000
O O9 0.796766 0.342663 0.500000
O O10 0.894508 0.298446 0.581033
O O11 0.655520 0.000000 0.250000
O O12 0.684384 0.000428 0.084367
O O13 0.577028 0.966780 0.141125
O O14 0.715616 0.500837 0.500000
#
# Coordination Sequence:
#
# PCOD9495538 Si02
#       7
#    16  16   8  16   8   8  16
#     4  10  18  33  54  81 115 148 173 215 277 331
#     4  11  23  39  58  84 114 143 177 221 268 327
#     4  10  19  36  57  79 104 140 185 233 270 305
#     4   9  19  35  56  82 112 143 181 225 272 320
#     4  12  24  39  58  81 108 146 188 222 264 320
#     4  10  23  39  57  80 108 140 185 233 268 313
#     4   9  17  31  56  85 110 139 178 224 273 326
#
# _framework density 18.668827
#
# number of rings (size 3 to 8) (size 9 to 14) (size 15 to 20)
#    0.000    2.000    0.000    5.455    0.000    5.091 
#    0.000    4.545    0.000    0.000    0.000    0.000 
#    0.000    0.000    0.000    0.000    0.000    0.000 
#
# Total GULP energy -245339.207296 kJ/mol
# GULP energy per Si atom -5575.891075 kJ/mol
# Density = 1.862634 g / cm^3
# Si number density = 18.668827 Si / 1000 Ang^3
#
#
#
# Elastic Constant Matrix: (Units=GPa)
#
#
# Indices 1 2 3 4 5 6 
#
# 1 123.0812 53.3055 76.9646 0.0000 0.0000 0.0000
# 2 53.3055 147.8075 37.9532 0.0000 0.0000 0.0000
# 3 76.9646 37.9532 85.0059 0.0000 0.0000 0.0000
# 4 0.0000 0.0000 0.0000 15.6517 0.0000 0.0000
# 5 0.0000 0.0000 0.0000 0.0000 9.2621 0.0000
# 6 0.0000 0.0000 0.0000 0.0000 0.0000 16.3486
#
#
#
# Elastic Compliance Matrix: (Units=1/GPa)
#
#
# Indices 1 2 3 4 5 6 
#
# 1 0.019741 -0.002858 -0.016598 0.000000 0.000000 0.000000
# 2 -0.002858 0.008055 -0.001009 0.000000 0.000000 0.000000
# 3 -0.016598 -0.001009 0.027242 0.000000 0.000000 0.000000
# 4 0.000000 0.000000 0.000000 0.063891 0.000000 0.000000
# 5 0.000000 0.000000 0.000000 0.000000 0.107967 0.000000
# 6 0.000000 0.000000 0.000000 0.000000 0.000000 0.061167
#
#
# Mechanical properties :
#
#
# Convention : Reuss Voigt Hill
#
# Bulk Modulus (GPa) = 70.87513 76.92680 73.90096
# Shear Modulus (GPa) = 14.98364 20.76388 17.87376
#
# Velocity S-wave (km/s) = 2.83610 3.33862 3.09756
# Velocity P-wave (km/s) = 6.98365 7.49382 7.24323
#
# Compressibility (1/GPa) = 0.01410932
#
# Stress axis : x y z
#
# Youngs Moduli (GPa) = 50.65518 124.14242 36.70751
#
# Poissons Ratio (x) = 0.35475 0.60927
# Poissons Ratio (y) = 0.14475 0.03705
# Poissons Ratio (z) = 0.84078 0.12529
#
# Static dielectric constant tensor:
#      x y z
#    x 1.628860 0.000000 0.000000 
#    y 0.000000 1.670620 0.000000 
#    z 0.000000 0.000000 1.653890 
# 
# From -- ./inp_files/42811.got.cif
#   From: 2010.05.17/outbox.cif.g08.bks.cpg/sg66_22_cif.got.tgz:42811.got - 2010.06.03 17:51:23.
