data_PCOD9495257
_publ_section_title
;
Structure prediction by ZEFSAII (Michael W. Deem and Ramdas Pophale) SiO2 
 PCOD9495257
Probable space group: C C C M
;
_chemical_formula_sum "Si O2"
_cell_formula_units_Z 96
_cell_length_a 21.669079
_cell_length_b 11.662213
_cell_length_c 18.046620
_cell_angle_alpha 90.000000
_cell_angle_beta 90.000000
_cell_angle_gamma 90.000000
_cell_volume 4560.550780
_symmetry_space_group_name_H-M "C C C M"
_symmetry_group_IT_number 66
_symmetry_cell_setting 'orthorhombic'
loop_
_space_group_symop_operation_xyz
x,y,z
-x,-y,z
x,-y,1/2-z
-x,y,1/2-z
-x,-y,-z
x,y,-z
-x,y,1/2+z
x,-y,1/2+z
1/2+x,1/2+y,z
1/2-x,1/2-y,z
1/2+x,1/2-y,1/2-z
1/2-x,1/2+y,1/2-z
1/2-x,1/2-y,-z
1/2+x,1/2+y,-z
1/2-x,1/2+y,1/2+z
1/2+x,1/2-y,1/2+z
loop_
_atom_site_type_symbol
_atom_site_label
_atom_site_fract_x
_atom_site_fract_y
_atom_site_fract_z
Si Si1 0.772455 0.968846 0.130318
Si Si2 0.928744 0.975270 0.500000
Si Si3 0.359260 0.672936 0.888032
Si Si4 0.366261 0.054178 0.169292
Si Si5 0.691912 0.165194 0.000000
Si Si6 0.364774 0.066034 0.000000
Si Si7 0.322833 0.670032 0.500000
Si Si8 0.677997 0.711992 0.229482
O O1 0.704278 0.989565 0.159989
O O2 0.815073 0.911556 0.192735
O O3 0.800535 0.087678 0.103060
O O4 0.781512 0.869689 0.069375
O O5 0.911906 0.897939 0.571270
O O6 0.883212 0.085861 0.500000
O O7 0.000000 0.000000 0.500000
O O8 0.346943 0.790536 0.929941
O O9 0.361823 0.699771 0.802795
O O10 0.354931 0.189945 0.181948
O O11 0.389060 0.000000 0.250000
O O12 0.393919 0.044498 0.083984
O O13 0.750000 0.250000 0.000000
O O14 0.691012 0.028476 0.000000
O O15 0.343821 0.198592 0.000000
O O16 0.750000 0.750000 0.244157
#
# Coordination Sequence:
#
# PCOD9495257 Si02
#       8
#    16   8  16  16   8   8   8  16
#     4  10  18  31  49  75 111 151 201 236 290 348
#     4   9  21  40  64  86 111 145 198 268 336 385
#     4  10  19  33  53  76 108 152 194 243 297 362
#     4  11  21  31  47  77 118 164 201 242 279 340
#     4  11  21  32  46  74 113 159 194 234 276 345
#     4  12  22  35  52  76 120 156 211 243 294 357
#     4  10  20  35  56  84 106 152 199 259 312 371
#     4  10  18  28  46  75 114 152 195 229 280 356
#
# _framework density 21.050089
#
# number of rings (size 3 to 8) (size 9 to 14) (size 15 to 20)
#    0.000    1.667    1.667    6.000    0.000    0.667 
#    0.000    0.000    0.000   10.000    0.000    0.000 
#    0.000    0.000    0.000    0.000    0.000    0.000 
#
# Total GULP energy -267401.379748 kJ/mol
# GULP energy per Si atom -5570.862078 kJ/mol
# Density = 2.100218 g / cm^3
# Si number density = 21.050089 Si / 1000 Ang^3
#
#
#
# Elastic Constant Matrix: (Units=GPa)
#
#
# Indices 1 2 3 4 5 6 
#
# 1 37.1353 7.9892 10.0222 0.0000 0.0000 0.0000
# 2 7.9892 138.4669 27.8531 0.0000 0.0000 0.0000
# 3 10.0222 27.8531 165.7188 0.0000 0.0000 0.0000
# 4 0.0000 0.0000 0.0000 -54.9705 0.0000 0.0000
# 5 0.0000 0.0000 0.0000 0.0000 9.1625 0.0000
# 6 0.0000 0.0000 0.0000 0.0000 0.0000 8.8798
#
#
#
# Elastic Compliance Matrix: (Units=1/GPa)
#
#
# Indices 1 2 3 4 5 6 
#
# 1 0.027600 -0.001301 -0.001451 0.000000 0.000000 0.000000
# 2 -0.001301 0.007536 -0.001188 0.000000 0.000000 0.000000
# 3 -0.001451 -0.001188 0.006322 0.000000 0.000000 0.000000
# 4 0.000000 0.000000 0.000000 -0.018192 0.000000 0.000000
# 5 0.000000 0.000000 0.000000 0.000000 0.109141 0.000000
# 6 0.000000 0.000000 0.000000 0.000000 0.000000 0.112616
#
#
# Mechanical properties :
#
#
# Convention : Reuss Voigt Hill
#
# Bulk Modulus (GPa) = 29.78032 48.11665 38.94849
# Shear Modulus (GPa) = 18.93267 12.31145 15.62206
#
# Velocity S-wave (km/s) = 3.00227 2.42102 2.72718
# Velocity P-wave (km/s) = 5.11823 5.54283 5.33475
#
# Compressibility (1/GPa) = 0.03357922
#
# Stress axis : x y z
#
# Youngs Moduli (GPa) = 36.23207 132.69732 158.18517
#
# Poissons Ratio (x) = 0.17259 0.22945
# Poissons Ratio (y) = 0.04713 0.18791
# Poissons Ratio (z) = 0.05256 0.15764
#
# Static dielectric constant tensor:
#      x y z
#    x 1.713040 0.000000 0.000000 
#    y 0.000000 1.761750 0.000000 
#    z 0.000000 0.000000 1.956440 
# 
# From -- ./inp_files/44297.got.cif
#   From: 2010.05.17/outbox.cif.g08.bks.cpg/sg66_23_cif.got.tgz:44297.got - 2010.06.03 17:51:23.
