data_PCOD9495903
_publ_section_title
;
Structure prediction by ZEFSAII (Michael W. Deem and Ramdas Pophale) SiO2 
 PCOD9495903
Probable space group: C C C M
;
_chemical_formula_sum "Si O2"
_cell_formula_units_Z 68
_cell_length_a 10.053109
_cell_length_b 11.022918
_cell_length_c 28.820831
_cell_angle_alpha 90.000000
_cell_angle_beta 90.000000
_cell_angle_gamma 90.000000
_cell_volume 3193.768748
_symmetry_space_group_name_H-M "C C C M"
_symmetry_group_IT_number 66
_symmetry_cell_setting 'orthorhombic'
loop_
_space_group_symop_operation_xyz
x,y,z
-x,-y,z
x,-y,1/2-z
-x,y,1/2-z
-x,-y,-z
x,y,-z
-x,y,1/2+z
x,-y,1/2+z
1/2+x,1/2+y,z
1/2-x,1/2-y,z
1/2+x,1/2-y,1/2-z
1/2-x,1/2+y,1/2-z
1/2-x,1/2-y,-z
1/2+x,1/2+y,-z
1/2-x,1/2+y,1/2+z
1/2+x,1/2-y,1/2+z
loop_
_atom_site_type_symbol
_atom_site_label
_atom_site_fract_x
_atom_site_fract_y
_atom_site_fract_z
Si Si1 0.247131 0.118454 0.223187
Si Si2 0.473282 0.253933 0.448403
Si Si3 0.232236 0.548293 0.051512
Si Si4 0.000000 0.500000 0.750000
Si Si5 0.119576 0.099013 0.124573
O O1 0.250000 0.250000 0.247765
O O2 0.171444 0.131534 0.175071
O O3 0.189903 0.000000 0.250000
O O4 0.401565 0.079999 0.218931
O O5 0.534731 0.260425 0.500000
O O6 0.354285 0.354384 0.448678
O O7 0.401194 0.125611 0.442857
O O8 0.565590 0.290178 0.406044
O O9 0.264890 0.460456 0.093397
O O10 0.231788 0.491646 0.000000
O O11 0.000000 0.000000 0.128655
#
# Coordination Sequence:
#
# PCOD9495903 Si02
#       5
#    16  16  16   4  16
#     4  10  24  47  68  90 124 169 211 274 343 394
#     4   8  14  26  46  81 128 166 205 258 307 366
#     4   8  14  26  45  79 130 175 203 247 311 371
#     4   8  24  48  64  92 130 160 206 274 332 396
#     4  10  19  31  56  96 118 156 217 268 314 381
#
# _framework density 21.291459
#
# number of rings (size 3 to 8) (size 9 to 14) (size 15 to 20)
#    0.706    2.353    0.000    2.118    0.000    7.059 
#    8.471    0.000    0.000    2.824    0.000    6.588 
#    0.000    0.000    0.000    0.000    0.000    0.000 
#
# Total GULP energy -189577.311290 kJ/mol
# GULP energy per Si atom -5575.803273 kJ/mol
# Density = 2.124300 g / cm^3
# Si number density = 21.291459 Si / 1000 Ang^3
#
#
#
# Elastic Constant Matrix: (Units=GPa)
#
#
# Indices 1 2 3 4 5 6 
#
# 1 60.0581 32.0972 40.5829 0.0000 0.0000 0.0000
# 2 32.0972 95.7841 35.5824 0.0000 0.0000 0.0000
# 3 40.5829 35.5824 110.9901 0.0000 0.0000 0.0000
# 4 0.0000 0.0000 0.0000 12.1794 0.0000 0.0000
# 5 0.0000 0.0000 0.0000 0.0000 36.6859 0.0000
# 6 0.0000 0.0000 0.0000 0.0000 0.0000 28.8040
#
#
#
# Elastic Compliance Matrix: (Units=1/GPa)
#
#
# Indices 1 2 3 4 5 6 
#
# 1 0.024449 -0.005531 -0.007167 0.000000 0.000000 0.000000
# 2 -0.005531 0.013103 -0.002178 0.000000 0.000000 0.000000
# 3 -0.007167 -0.002178 0.012329 0.000000 0.000000 0.000000
# 4 0.000000 0.000000 0.000000 0.082106 0.000000 0.000000
# 5 0.000000 0.000000 0.000000 0.000000 0.027258 0.000000
# 6 0.000000 0.000000 0.000000 0.000000 0.000000 0.034717
#
#
# Mechanical properties :
#
#
# Convention : Reuss Voigt Hill
#
# Bulk Modulus (GPa) = 49.67909 53.70636 51.69273
# Shear Modulus (GPa) = 21.69925 26.10517 23.90221
#
# Velocity S-wave (km/s) = 3.19588 3.50535 3.35419
# Velocity P-wave (km/s) = 6.08291 6.45465 6.27153
#
# Compressibility (1/GPa) = 0.02012919
#
# Stress axis : x y z
#
# Youngs Moduli (GPa) = 40.90169 76.32039 81.11223
#
# Poissons Ratio (x) = 0.42209 0.58129
# Poissons Ratio (y) = 0.22621 0.17669
# Poissons Ratio (z) = 0.29312 0.16626
#
# Static dielectric constant tensor:
#      x y z
#    x 1.784350 0.000000 0.000000 
#    y 0.000000 1.838180 0.000000 
#    z 0.000000 0.000000 1.717710 
# 
# From -- ./inp_files/63368.got.cif
#   From: 2010.05.17/outbox.cif.g08.bks.cpg/sg66_32_cif.got.tgz:63368.got - 2010.06.03 17:51:23.
