data_PCOD9495426
_publ_section_title
;
Structure prediction by ZEFSAII (Michael W. Deem and Ramdas Pophale) SiO2 
 PCOD9495426
Probable space group: C C C M
;
_chemical_formula_sum "Si O2"
_cell_formula_units_Z 120
_cell_length_a 12.599012
_cell_length_b 20.956686
_cell_length_c 22.052559
_cell_angle_alpha 90.000000
_cell_angle_beta 90.000000
_cell_angle_gamma 90.000000
_cell_volume 5822.615183
_symmetry_space_group_name_H-M "C C C M"
_symmetry_group_IT_number 66
_symmetry_cell_setting 'orthorhombic'
loop_
_space_group_symop_operation_xyz
x,y,z
-x,-y,z
x,-y,1/2-z
-x,y,1/2-z
-x,-y,-z
x,y,-z
-x,y,1/2+z
x,-y,1/2+z
1/2+x,1/2+y,z
1/2-x,1/2-y,z
1/2+x,1/2-y,1/2-z
1/2-x,1/2+y,1/2-z
1/2-x,1/2-y,-z
1/2+x,1/2+y,-z
1/2-x,1/2+y,1/2+z
1/2+x,1/2-y,1/2+z
loop_
_atom_site_type_symbol
_atom_site_label
_atom_site_fract_x
_atom_site_fract_y
_atom_site_fract_z
Si Si1 0.700622 0.973642 0.930184
Si Si2 0.418941 0.585381 0.696307
Si Si3 0.570740 0.595705 0.933995
Si Si4 0.628343 0.745318 0.069876
Si Si5 0.252124 0.174625 0.753416
Si Si6 0.754844 0.500000 0.250000
Si Si7 0.076795 0.363943 0.146045
Si Si8 0.662530 0.909597 0.656078
O O1 0.819487 0.944083 0.932871
O O2 0.634648 0.920726 0.891881
O O3 0.694072 0.044637 0.900502
O O4 0.662272 0.976238 0.000000
O O5 0.500000 0.574971 0.750000
O O6 0.477269 0.581080 0.631858
O O7 0.353663 0.649944 0.711691
O O8 0.324247 0.534769 0.703675
O O9 0.594298 0.671598 0.930076
O O10 0.518762 0.583302 0.000000
O O11 0.750000 0.750000 0.090332
O O12 0.570069 0.797012 0.110027
O O13 0.624327 0.767152 0.000000
O O14 0.250000 0.250000 0.750149
O O15 0.351928 0.150954 0.794489
O O16 0.260638 0.145054 0.685116
O O17 0.830533 0.542485 0.288490
O O18 0.956024 0.384604 0.153138
#
# Coordination Sequence:
#
# PCOD9495426 Si02
#       8
#    16  16  16  16  16   8  16  16
#     4  11  21  36  60  92 134 173 211 260 326 398
#     4  11  21  37  65  90 119 161 218 276 327 393
#     4  10  19  35  60  91 126 169 218 273 329 385
#     4  10  18  31  53  82 125 174 219 266 321 377
#     4  11  24  41  58  86 126 169 222 276 332 394
#     4  10  21  44  59  88 126 164 206 254 330 392
#     4  12  21  34  59  93 133 172 216 263 328 396
#     4  11  24  38  60  87 130 173 213 261 326 405
#
# _framework density 20.609297000000002
#
# number of rings (size 3 to 8) (size 9 to 14) (size 15 to 20)
#    0.000    1.200    4.000    3.400    0.000    4.800 
#    0.000    0.000    0.000    5.200    0.000    0.000 
#    0.000    0.000    0.000    0.000    0.000    0.000 
#
# Total GULP energy -334602.794959 kJ/mol
# GULP energy per Si atom -5576.713249 kJ/mol
# Density = 2.056239 g / cm^3
# Si number density = 20.609297 Si / 1000 Ang^3
#
#
#
# Elastic Constant Matrix: (Units=GPa)
#
#
# Indices 1 2 3 4 5 6 
#
# 1 43.6242 20.6009 27.8895 0.0000 0.0000 0.0000
# 2 20.6009 120.5545 58.8839 0.0000 0.0000 0.0000
# 3 27.8895 58.8839 144.0828 0.0000 0.0000 0.0000
# 4 0.0000 0.0000 0.0000 -0.1335 0.0000 0.0000
# 5 0.0000 0.0000 0.0000 0.0000 37.5950 0.0000
# 6 0.0000 0.0000 0.0000 0.0000 0.0000 39.9702
#
#
#
# Elastic Compliance Matrix: (Units=1/GPa)
#
#
# Indices 1 2 3 4 5 6 
#
# 1 0.026775 -0.002554 -0.004139 0.000000 0.000000 0.000000
# 2 -0.002554 0.010607 -0.003841 0.000000 0.000000 0.000000
# 3 -0.004139 -0.003841 0.009311 0.000000 0.000000 0.000000
# 4 0.000000 0.000000 0.000000 -7.493391 0.000000 0.000000
# 5 0.000000 0.000000 0.000000 0.000000 0.026599 0.000000
# 6 0.000000 0.000000 0.000000 0.000000 0.000000 0.025019
#
#
# Mechanical properties :
#
#
# Convention : Reuss Voigt Hill
#
# Bulk Modulus (GPa) = 39.02178 58.11225 48.56701
# Shear Modulus (GPa) = -0.67884 28.87884 14.10000
#
# Velocity S-wave (km/s) = -0.57455 3.74739 2.61848
# Velocity P-wave (km/s) = 4.30523 6.85436 5.72352
#
# Compressibility (1/GPa) = 0.02562671
#
# Stress axis : x y z
#
# Youngs Moduli (GPa) = 37.34800 94.27416 107.39679
#
# Poissons Ratio (x) = 0.24075 0.44453
# Poissons Ratio (y) = 0.09538 0.41248
# Poissons Ratio (z) = 0.15459 0.36208
#
# Static dielectric constant tensor:
#      x y z
#    x 1.628740 0.000000 0.000000 
#    y 0.000000 1.876970 0.000000 
#    z 0.000000 0.000000 1.802460 
# 
# From -- ./inp_files/50250.got.cif
#   From: 2010.05.17/outbox.cif.g08.bks.cpg/sg66_26_cif.got.tgz:50250.got - 2010.06.03 17:51:23.
