data_PCOD9495155
_publ_section_title
;
Structure prediction by ZEFSAII (Michael W. Deem and Ramdas Pophale) SiO2 
 PCOD9495155
Probable space group: C C C M
;
_chemical_formula_sum "Si O2"
_cell_formula_units_Z 80
_cell_length_a 23.214384
_cell_length_b 13.025755
_cell_length_c 14.381289
_cell_angle_alpha 90.000000
_cell_angle_beta 90.000000
_cell_angle_gamma 90.000000
_cell_volume 4348.684326
_symmetry_space_group_name_H-M "C C C M"
_symmetry_group_IT_number 66
_symmetry_cell_setting 'orthorhombic'
loop_
_space_group_symop_operation_xyz
x,y,z
-x,-y,z
x,-y,1/2-z
-x,y,1/2-z
-x,-y,-z
x,y,-z
-x,y,1/2+z
x,-y,1/2+z
1/2+x,1/2+y,z
1/2-x,1/2-y,z
1/2+x,1/2-y,1/2-z
1/2-x,1/2+y,1/2-z
1/2-x,1/2-y,-z
1/2+x,1/2+y,-z
1/2-x,1/2+y,1/2+z
1/2+x,1/2-y,1/2+z
loop_
_atom_site_type_symbol
_atom_site_label
_atom_site_fract_x
_atom_site_fract_y
_atom_site_fract_z
Si Si1 0.698191 0.827438 0.722816
Si Si2 0.684393 0.030069 0.603198
Si Si3 0.924737 0.772290 0.757512
Si Si4 0.443625 0.057204 0.153130
Si Si5 0.008486 0.122014 0.107383
O O1 0.750000 0.750000 0.705889
O O2 0.705466 0.886737 0.821417
O O3 0.638066 0.765224 0.727870
O O4 0.694646 0.917380 0.646181
O O5 0.708894 0.041090 0.500000
O O6 0.615260 0.046371 0.598395
O O7 0.951442 0.673472 0.812805
O O8 0.931638 0.856086 0.838800
O O9 0.959922 0.819733 0.670073
O O10 0.500000 0.000000 0.113661
O O11 0.431641 0.000000 0.250000
O O12 0.008132 0.156601 0.000000
O O13 0.000000 0.000000 0.109475
#
# Coordination Sequence:
#
# PCOD9495155 Si02
#       5
#    16  16  16  16  16
#     4  10  22  42  60  81 114 154 191 237 282 328
#     4  10  21  39  59  86 117 144 185 235 282 334
#     4  10  19  35  59  82 110 150 191 219 278 346
#     4  10  17  32  54  86 120 146 174 216 275 346
#     4  10  21  37  55  83 118 145 183 239 284 327
#
# _framework density 18.396369
#
# number of rings (size 3 to 8) (size 9 to 14) (size 15 to 20)
#    0.000    2.000    4.000    3.600    0.000    5.200 
#    7.200    0.000    0.000    0.600    0.000    0.000 
#    0.000    0.000    0.000    0.000    0.000    0.000 
#
# Total GULP energy -222681.893443 kJ/mol
# GULP energy per Si atom -5567.047336 kJ/mol
# Density = 1.835450 g / cm^3
# Si number density = 18.396369 Si / 1000 Ang^3
#
#
#
# Elastic Constant Matrix: (Units=GPa)
#
#
# Indices 1 2 3 4 5 6 
#
# 1 62.4049 33.5181 5.4856 0.0000 0.0000 0.0000
# 2 33.5181 76.5647 29.2682 0.0000 0.0000 0.0000
# 3 5.4856 29.2682 128.7748 0.0000 0.0000 0.0000
# 4 0.0000 0.0000 0.0000 -0.9722 0.0000 0.0000
# 5 0.0000 0.0000 0.0000 0.0000 -4.4131 0.0000
# 6 0.0000 0.0000 0.0000 0.0000 0.0000 11.8856
#
#
#
# Elastic Compliance Matrix: (Units=1/GPa)
#
#
# Indices 1 2 3 4 5 6 
#
# 1 0.021153 -0.009764 0.001318 0.000000 0.000000 0.000000
# 2 -0.009764 0.018811 -0.003859 0.000000 0.000000 0.000000
# 3 0.001318 -0.003859 0.008587 0.000000 0.000000 0.000000
# 4 0.000000 0.000000 0.000000 -1.028601 0.000000 0.000000
# 5 0.000000 0.000000 0.000000 0.000000 -0.226596 0.000000
# 6 0.000000 0.000000 0.000000 0.000000 0.000000 0.084136
#
#
# Mechanical properties :
#
#
# Convention : Reuss Voigt Hill
#
# Bulk Modulus (GPa) = 41.77224 44.92090 43.34657
# Shear Modulus (GPa) = -4.58749 14.59822 5.00536
#
# Velocity S-wave (km/s) = -1.58086 2.82004 1.65129
# Velocity P-wave (km/s) = 4.40726 5.92240 5.22009
#
# Compressibility (1/GPa) = 0.02393934
#
# Stress axis : x y z
#
# Youngs Moduli (GPa) = 47.27497 53.16146 116.46174
#
# Poissons Ratio (x) = 0.51907 -0.15351
# Poissons Ratio (y) = 0.46160 0.44947
# Poissons Ratio (z) = -0.06231 0.20517
#
# Static dielectric constant tensor:
#      x y z
#    x 1.689540 0.000000 0.000000 
#    y 0.000000 1.703210 0.000000 
#    z 0.000000 0.000000 1.655020 
# 
# From -- ./inp_files/32130.got.cif
#   From: 2010.05.17/outbox.cif.g08.bks.cpg/sg66_17_cif.got.tgz:32130.got - 2010.06.03 17:51:23.
