data_PCOD9495415
_publ_section_title
;
Structure prediction by ZEFSAII (Michael W. Deem and Ramdas Pophale) SiO2 
 PCOD9495415
Probable space group: C C C M
;
_chemical_formula_sum "Si O2"
_cell_formula_units_Z 116
_cell_length_a 27.579566
_cell_length_b 28.184855
_cell_length_c 7.822496
_cell_angle_alpha 90.000000
_cell_angle_beta 90.000000
_cell_angle_gamma 90.000000
_cell_volume 6080.630063
_symmetry_space_group_name_H-M "C C C M"
_symmetry_group_IT_number 66
_symmetry_cell_setting 'orthorhombic'
loop_
_space_group_symop_operation_xyz
x,y,z
-x,-y,z
x,-y,1/2-z
-x,y,1/2-z
-x,-y,-z
x,y,-z
-x,y,1/2+z
x,-y,1/2+z
1/2+x,1/2+y,z
1/2-x,1/2-y,z
1/2+x,1/2-y,1/2-z
1/2-x,1/2+y,1/2-z
1/2-x,1/2-y,-z
1/2+x,1/2+y,-z
1/2-x,1/2+y,1/2+z
1/2+x,1/2-y,1/2+z
loop_
_atom_site_type_symbol
_atom_site_label
_atom_site_fract_x
_atom_site_fract_y
_atom_site_fract_z
Si Si1 0.188627 0.428921 0.803069
Si Si2 0.296824 0.552036 0.803188
Si Si3 0.000000 0.500000 0.250000
Si Si4 0.419093 0.928982 0.288133
Si Si5 0.178813 0.153969 0.707897
Si Si6 0.635960 0.252987 0.795996
Si Si7 0.555833 0.178231 0.702492
Si Si8 0.289018 0.175698 0.706941
O O1 0.238232 0.445022 0.715222
O O2 0.135588 0.443855 0.740553
O O3 0.189260 0.371830 0.788106
O O4 0.192863 0.443347 0.000000
O O5 0.313049 0.500000 0.750000
O O6 0.319120 0.600076 0.722162
O O7 0.308391 0.555331 0.000000
O O8 0.959386 0.460992 0.196132
O O9 0.424670 0.933333 0.500000
O O10 0.426967 0.874008 0.238209
O O11 0.175023 0.150773 0.500000
O O12 0.140345 0.193101 0.769658
O O13 0.232050 0.175636 0.744048
O O14 0.588560 0.221719 0.764574
O O15 0.680952 0.220932 0.733387
O O16 0.641731 0.256279 0.000000
O O17 0.500000 0.184411 0.750000
O O18 0.560649 0.177119 0.500000
O O19 0.293760 0.171526 0.500000
#
# Coordination Sequence:
#
# PCOD9495415 Si02
#       8
#    16  16   4  16  16  16  16  16
#     4  10  19  33  49  69  96 128 166 215 259 306
#     4  10  20  35  52  74 101 137 171 207 246 295
#     4  12  22  40  52  66  84 128 170 228 276 308
#     4  10  22  37  51  67  91 121 164 217 270 312
#     4   8  16  30  49  74 105 133 170 206 241 298
#     4  10  18  31  53  78 100 133 168 206 255 307
#     4  11  22  39  55  74 100 130 168 215 265 319
#     4   9  16  28  48  74 100 131 165 203 247 304
#
# _framework density 19.076969999999999
#
# number of rings (size 3 to 8) (size 9 to 14) (size 15 to 20)
#    0.000    2.207    2.069    2.690    0.966    1.655 
#    0.000    5.517    0.000    4.138    0.000    0.000 
#    0.000    0.552    0.000    6.345    0.000    1.931 
#
# Total GULP energy -323193.452426 kJ/mol
# GULP energy per Si atom -5572.300904 kJ/mol
# Density = 1.903355 g / cm^3
# Si number density = 19.076970 Si / 1000 Ang^3
#
#
#
# Elastic Constant Matrix: (Units=GPa)
#
#
# Indices 1 2 3 4 5 6 
#
# 1 45.6102 55.4860 -1.2965 0.0000 0.0000 0.0000
# 2 55.4860 169.3648 10.1270 0.0000 0.0000 0.0000
# 3 -1.2965 10.1270 22.2322 0.0000 0.0000 0.0000
# 4 0.0000 0.0000 0.0000 7.6388 0.0000 0.0000
# 5 0.0000 0.0000 0.0000 0.0000 -44.3953 0.0000
# 6 0.0000 0.0000 0.0000 0.0000 0.0000 80.8886
#
#
#
# Elastic Compliance Matrix: (Units=1/GPa)
#
#
# Indices 1 2 3 4 5 6 
#
# 1 0.037810 -0.012869 0.008067 0.000000 0.000000 0.000000
# 2 -0.012869 0.010450 -0.005511 0.000000 0.000000 0.000000
# 3 0.008067 -0.005511 0.047960 0.000000 0.000000 0.000000
# 4 0.000000 0.000000 0.000000 0.130911 0.000000 0.000000
# 5 0.000000 0.000000 0.000000 0.000000 -0.022525 0.000000
# 6 0.000000 0.000000 0.000000 0.000000 0.000000 0.012363
#
#
# Mechanical properties :
#
#
# Convention : Reuss Voigt Hill
#
# Bulk Modulus (GPa) = 13.22843 40.64894 26.93868
# Shear Modulus (GPa) = 19.02630 20.35246 19.68938
#
# Velocity S-wave (km/s) = 3.16150 3.26983 3.21612
# Velocity P-wave (km/s) = 4.50290 5.96739 5.28611
#
# Compressibility (1/GPa) = 0.07559475
#
# Stress axis : x y z
#
# Youngs Moduli (GPa) = 26.44782 95.69266 20.85057
#
# Poissons Ratio (x) = 1.23152 -0.16820
# Poissons Ratio (y) = 0.34037 0.11490
# Poissons Ratio (z) = -0.21336 0.52733
#
# Static dielectric constant tensor:
#      x y z
#    x 1.633370 0.000000 0.000000 
#    y 0.000000 1.752330 0.000000 
#    z 0.000000 0.000000 1.722320 
# 
# From -- ./inp_files/9636.got.cif
#   From: 2010.05.17/outbox.cif.g08.bks.cpg/sg66_5_cif.got.tgz:9636.got - 2010.06.03 17:51:23.
