data_PCOD9495468
_publ_section_title
;
Structure prediction by ZEFSAII (Michael W. Deem and Ramdas Pophale) SiO2 
 PCOD9495468
Probable space group: C C C M
;
_chemical_formula_sum "Si O2"
_cell_formula_units_Z 96
_cell_length_a 20.873636
_cell_length_b 27.271373
_cell_length_c 8.738599
_cell_angle_alpha 90.000000
_cell_angle_beta 90.000000
_cell_angle_gamma 90.000000
_cell_volume 4974.471191
_symmetry_space_group_name_H-M "C C C M"
_symmetry_group_IT_number 66
_symmetry_cell_setting 'orthorhombic'
loop_
_space_group_symop_operation_xyz
x,y,z
-x,-y,z
x,-y,1/2-z
-x,y,1/2-z
-x,-y,-z
x,y,-z
-x,y,1/2+z
x,-y,1/2+z
1/2+x,1/2+y,z
1/2-x,1/2-y,z
1/2+x,1/2-y,1/2-z
1/2-x,1/2+y,1/2-z
1/2-x,1/2-y,-z
1/2+x,1/2+y,-z
1/2-x,1/2+y,1/2+z
1/2+x,1/2-y,1/2+z
loop_
_atom_site_type_symbol
_atom_site_label
_atom_site_fract_x
_atom_site_fract_y
_atom_site_fract_z
Si Si1 0.804763 0.888769 0.677210
Si Si2 0.934734 0.384997 0.685189
Si Si3 0.308717 0.946429 0.682893
Si Si4 0.708632 0.798165 0.335262
Si Si5 0.068511 0.831292 0.816167
Si Si6 0.589720 0.776098 0.825383
O O1 0.813446 0.904296 0.500000
O O2 0.761930 0.928605 0.764775
O O3 0.756798 0.842634 0.679346
O O4 0.872762 0.866829 0.734140
O O5 0.936376 0.385293 0.500000
O O6 0.867848 0.410762 0.733115
O O7 0.935596 0.328010 0.736716
O O8 0.000000 0.408494 0.750000
O O9 0.310121 0.947507 0.500000
O O10 0.321010 0.000000 0.750000
O O11 0.672761 0.803538 0.500000
O O12 0.750000 0.750000 0.348141
O O13 0.664429 0.788826 0.190624
O O14 0.078172 0.774670 0.762647
O O15 0.000000 0.847341 0.750000
O O16 0.068168 0.831570 0.000000
O O17 0.568765 0.769082 0.000000
#
# Coordination Sequence:
#
# PCOD9495468 Si02
#       6
#    16  16  16  16  16  16
#     4  10  21  38  61  85 115 154 194 239 294 350
#     4  10  23  39  56  82 117 156 197 241 284 338
#     4  11  24  43  64  89 115 143 191 245 300 356
#     4  10  18  32  53  81 114 153 195 236 285 339
#     4  11  23  39  57  86 123 161 201 238 286 346
#     4  11  21  34  53  83 120 160 202 240 279 331
#
# _framework density 19.298532999999999
#
# number of rings (size 3 to 8) (size 9 to 14) (size 15 to 20)
#    0.000    1.500    3.333    2.000    0.000    6.000 
#    0.000    1.667    0.000    0.500    0.000    3.500 
#    0.000    0.000    0.000    0.000    0.000    0.000 
#
# Total GULP energy -267448.474582 kJ/mol
# GULP energy per Si atom -5571.843220 kJ/mol
# Density = 1.925461 g / cm^3
# Si number density = 19.298533 Si / 1000 Ang^3
#
#
#
# Elastic Constant Matrix: (Units=GPa)
#
#
# Indices 1 2 3 4 5 6 
#
# 1 143.5095 49.1895 34.6984 0.0000 0.0000 0.0000
# 2 49.1895 69.4736 22.0703 0.0000 0.0000 0.0000
# 3 34.6984 22.0703 32.5263 0.0000 0.0000 0.0000
# 4 0.0000 0.0000 0.0000 18.3217 0.0000 0.0000
# 5 0.0000 0.0000 0.0000 0.0000 31.4651 0.0000
# 6 0.0000 0.0000 0.0000 0.0000 0.0000 0.2268
#
#
#
# Elastic Compliance Matrix: (Units=1/GPa)
#
#
# Indices 1 2 3 4 5 6 
#
# 1 0.010590 -0.004984 -0.007916 0.000000 0.000000 0.000000
# 2 -0.004984 0.020694 -0.008726 0.000000 0.000000 0.000000
# 3 -0.007916 -0.008726 0.045110 0.000000 0.000000 0.000000
# 4 0.000000 0.000000 0.000000 0.054580 0.000000 0.000000
# 5 0.000000 0.000000 0.000000 0.000000 0.031781 0.000000
# 6 0.000000 0.000000 0.000000 0.000000 0.000000 4.409441
#
#
# Mechanical properties :
#
#
# Convention : Reuss Voigt Hill
#
# Bulk Modulus (GPa) = 30.17130 50.82509 40.49820
# Shear Modulus (GPa) = 1.08073 19.30612 10.19343
#
# Velocity S-wave (km/s) = 0.74915 3.16633 2.30075
# Velocity P-wave (km/s) = 4.05169 6.30563 5.29987
#
# Compressibility (1/GPa) = 0.03314408
#
# Stress axis : x y z
#
# Youngs Moduli (GPa) = 94.42583 48.32234 22.16823
#
# Poissons Ratio (x) = 0.24082 0.17548
# Poissons Ratio (y) = 0.47057 0.19343
# Poissons Ratio (z) = 0.74748 0.42164
#
# Static dielectric constant tensor:
#      x y z
#    x 1.724660 0.000000 0.000000 
#    y 0.000000 1.683810 0.000000 
#    z 0.000000 0.000000 1.761810 
# 
# From -- ./inp_files/7973.got.cif
#   From: 2010.05.17/outbox.cif.g08.bks.cpg/sg66_4_cif.got.tgz:7973.got - 2010.06.03 17:51:23.
