data_PCOD9495165
_publ_section_title
;
Structure prediction by ZEFSAII (Michael W. Deem and Ramdas Pophale) SiO2 
 PCOD9495165
Probable space group: C C C M
;
_chemical_formula_sum "Si O2"
_cell_formula_units_Z 88
_cell_length_a 25.970693
_cell_length_b 20.576282
_cell_length_c 8.389315
_cell_angle_alpha 90.000000
_cell_angle_beta 90.000000
_cell_angle_gamma 90.000000
_cell_volume 4483.084691
_symmetry_space_group_name_H-M "C C C M"
_symmetry_group_IT_number 66
_symmetry_cell_setting 'orthorhombic'
loop_
_space_group_symop_operation_xyz
x,y,z
-x,-y,z
x,-y,1/2-z
-x,y,1/2-z
-x,-y,-z
x,y,-z
-x,y,1/2+z
x,-y,1/2+z
1/2+x,1/2+y,z
1/2-x,1/2-y,z
1/2+x,1/2-y,1/2-z
1/2-x,1/2+y,1/2-z
1/2-x,1/2-y,-z
1/2+x,1/2+y,-z
1/2-x,1/2+y,1/2+z
1/2+x,1/2-y,1/2+z
loop_
_atom_site_type_symbol
_atom_site_label
_atom_site_fract_x
_atom_site_fract_y
_atom_site_fract_z
Si Si1 0.338318 0.069816 0.185124
Si Si2 0.750000 0.750000 0.740124
Si Si3 0.942043 0.199142 0.688997
Si Si4 0.386638 0.571261 0.808352
Si Si5 0.730322 0.399088 0.820511
Si Si6 0.145030 0.707121 0.187145
O O1 0.276567 0.075736 0.212339
O O2 0.361395 0.130868 0.280668
O O3 0.354890 0.000000 0.250000
O O4 0.350323 0.076261 0.000000
O O5 0.735701 0.679127 0.669737
O O6 0.807336 0.730719 0.799680
O O7 0.939903 0.208579 0.500000
O O8 0.920605 0.127909 0.733002
O O9 0.904471 0.250721 0.773372
O O10 0.000000 0.205880 0.750000
O O11 0.402047 0.500000 0.750000
O O12 0.326611 0.583055 0.763684
O O13 0.389659 0.575766 0.000000
O O14 0.737721 0.425105 0.000000
O O15 0.159742 0.716933 0.000000
#
# Coordination Sequence:
#
# PCOD9495165 Si02
#       6
#    16   8  16  16  16  16
#     4  11  22  36  55  87 126 167 208 250 301 366
#     4  10  17  32  59  90 123 160 199 244 305 368
#     4  12  26  45  67  93 122 160 208 260 310 368
#     4  11  23  40  61  88 121 162 208 260 314 369
#     4  10  19  33  55  84 122 165 205 249 305 366
#     4  11  21  39  64  93 125 163 203 253 311 368
#
# _framework density 19.629342000000001
#
# number of rings (size 3 to 8) (size 9 to 14) (size 15 to 20)
#    0.000    1.091    1.818    7.636    0.000    3.273 
#    0.000    4.091    0.000    0.545    0.000    3.818 
#    0.000    0.000    0.000    0.000    0.000    0.000 
#
# Total GULP energy -245540.614094 kJ/mol
# GULP energy per Si atom -5580.468502 kJ/mol
# Density = 1.958466 g / cm^3
# Si number density = 19.629342 Si / 1000 Ang^3
#
#
#
# Elastic Constant Matrix: (Units=GPa)
#
#
# Indices 1 2 3 4 5 6 
#
# 1 104.7019 55.1390 15.2126 0.0000 0.0000 0.0000
# 2 55.1390 148.8914 24.5078 0.0000 0.0000 0.0000
# 3 15.2126 24.5078 70.7342 0.0000 0.0000 0.0000
# 4 0.0000 0.0000 0.0000 23.9641 0.0000 0.0000
# 5 0.0000 0.0000 0.0000 0.0000 19.7338 0.0000
# 6 0.0000 0.0000 0.0000 0.0000 0.0000 12.5325
#
#
#
# Elastic Compliance Matrix: (Units=1/GPa)
#
#
# Indices 1 2 3 4 5 6 
#
# 1 0.011945 -0.004243 -0.001099 0.000000 0.000000 0.000000
# 2 -0.004243 0.008629 -0.002077 0.000000 0.000000 0.000000
# 3 -0.001099 -0.002077 0.015094 0.000000 0.000000 0.000000
# 4 0.000000 0.000000 0.000000 0.041729 0.000000 0.000000
# 5 0.000000 0.000000 0.000000 0.000000 0.050674 0.000000
# 6 0.000000 0.000000 0.000000 0.000000 0.000000 0.079793
#
#
# Mechanical properties :
#
#
# Convention : Reuss Voigt Hill
#
# Bulk Modulus (GPa) = 48.00824 57.11625 52.56225
# Shear Modulus (GPa) = 21.77268 26.54396 24.15832
#
# Velocity S-wave (km/s) = 3.33406 3.68130 3.51197
# Velocity P-wave (km/s) = 6.27151 6.87240 6.57881
#
# Compressibility (1/GPa) = 0.02082976
#
# Stress axis : x y z
#
# Youngs Moduli (GPa) = 83.71772 115.88233 66.25336
#
# Poissons Ratio (x) = 0.49165 0.07281
# Poissons Ratio (y) = 0.35519 0.13764
# Poissons Ratio (z) = 0.09200 0.24074
#
# Static dielectric constant tensor:
#      x y z
#    x 1.668610 0.000000 0.000000 
#    y 0.000000 1.691970 0.000000 
#    z 0.000000 0.000000 1.695580 
# 
# From -- ./inp_files/8989.got.cif
#   From: 2010.05.17/outbox.cif.g08.bks.cpg/sg66_5_cif.got.tgz:8989.got - 2010.06.03 17:51:23.
