data_PCOD9495314
_publ_section_title
;
Structure prediction by ZEFSAII (Michael W. Deem and Ramdas Pophale) SiO2 
 PCOD9495314
Probable space group: C C C M
;
_chemical_formula_sum "Si O2"
_cell_formula_units_Z 80
_cell_length_a 12.214093
_cell_length_b 25.137975
_cell_length_c 14.149285
_cell_angle_alpha 90.000000
_cell_angle_beta 90.000000
_cell_angle_gamma 90.000000
_cell_volume 4344.362006
_symmetry_space_group_name_H-M "C C C M"
_symmetry_group_IT_number 66
_symmetry_cell_setting 'orthorhombic'
loop_
_space_group_symop_operation_xyz
x,y,z
-x,-y,z
x,-y,1/2-z
-x,y,1/2-z
-x,-y,-z
x,y,-z
-x,y,1/2+z
x,-y,1/2+z
1/2+x,1/2+y,z
1/2-x,1/2-y,z
1/2+x,1/2-y,1/2-z
1/2-x,1/2+y,1/2-z
1/2-x,1/2-y,-z
1/2+x,1/2+y,-z
1/2-x,1/2+y,1/2+z
1/2+x,1/2-y,1/2+z
loop_
_atom_site_type_symbol
_atom_site_label
_atom_site_fract_x
_atom_site_fract_y
_atom_site_fract_z
Si Si1 0.411712 0.250107 0.886712
Si Si2 0.626068 0.194291 0.892520
Si Si3 0.742304 0.327722 0.712223
Si Si4 0.186681 0.554899 0.724273
Si Si5 0.022771 0.422061 0.606847
O O1 0.539217 0.239875 0.868029
O O2 0.364168 0.300420 0.830982
O O3 0.339414 0.199826 0.850164
O O4 0.397004 0.254979 0.000000
O O5 0.722883 0.188853 0.818124
O O6 0.549801 0.141055 0.888625
O O7 0.664532 0.199594 0.000000
O O8 0.743757 0.391465 0.712954
O O9 0.247992 0.500000 0.750000
O O10 0.107201 0.557192 0.815737
O O11 0.098309 0.560436 0.638871
O O12 0.044387 0.439101 0.500000
#
# Coordination Sequence:
#
# PCOD9495314 Si02
#       5
#    16  16  16  16  16
#     4  10  19  31  49  71  93 125 165 204 239 283
#     4   9  17  30  48  67  93 127 160 194 236 282
#     4  10  18  30  46  66  94 126 158 197 243 274
#     4  10  19  27  38  61  91 123 159 189 228 278
#     4   9  16  27  41  59  86 121 159 191 221 267
#
# _framework density 18.414670999999998
#
# number of rings (size 3 to 8) (size 9 to 14) (size 15 to 20)
#    0.000    2.400    2.000    3.000    0.000    2.400 
#    0.000    2.000    0.000    2.400    0.000    0.000 
#    0.000   12.800    0.000   42.400    0.000    2.000 
#
# Total GULP energy -222845.255044 kJ/mol
# GULP energy per Si atom -5571.131376 kJ/mol
# Density = 1.837276 g / cm^3
# Si number density = 18.414671 Si / 1000 Ang^3
#
#
#
# Elastic Constant Matrix: (Units=GPa)
#
#
# Indices 1 2 3 4 5 6 
#
# 1 22.6022 21.2361 17.4766 0.0000 0.0000 0.0000
# 2 21.2361 126.3636 15.0021 0.0000 0.0000 0.0000
# 3 17.4766 15.0021 104.7967 0.0000 0.0000 0.0000
# 4 0.0000 0.0000 0.0000 15.5777 0.0000 0.0000
# 5 0.0000 0.0000 0.0000 0.0000 10.9906 0.0000
# 6 0.0000 0.0000 0.0000 0.0000 0.0000 20.1354
#
#
#
# Elastic Compliance Matrix: (Units=1/GPa)
#
#
# Indices 1 2 3 4 5 6 
#
# 1 0.059304 -0.008944 -0.008610 0.000000 0.000000 0.000000
# 2 -0.008944 0.009399 0.000146 0.000000 0.000000 0.000000
# 3 -0.008610 0.000146 0.010957 0.000000 0.000000 0.000000
# 4 0.000000 0.000000 0.000000 0.064194 0.000000 0.000000
# 5 0.000000 0.000000 0.000000 0.000000 0.090987 0.000000
# 6 0.000000 0.000000 0.000000 0.000000 0.000000 0.049664
#
#
# Mechanical properties :
#
#
# Convention : Reuss Voigt Hill
#
# Bulk Modulus (GPa) = 22.29887 40.13246 31.21566
# Shear Modulus (GPa) = 14.95797 22.67726 18.81761
#
# Velocity S-wave (km/s) = 2.85315 3.51305 3.20016
# Velocity P-wave (km/s) = 4.79474 6.18841 5.53561
#
# Compressibility (1/GPa) = 0.04484533
#
# Stress axis : x y z
#
# Youngs Moduli (GPa) = 16.86218 106.38909 91.26441
#
# Poissons Ratio (x) = 0.95157 0.78575
# Poissons Ratio (y) = 0.15082 -0.01333
# Poissons Ratio (z) = 0.14518 -0.01554
#
# Static dielectric constant tensor:
#      x y z
#    x 1.619530 0.000000 0.000000 
#    y 0.000000 1.758430 0.000000 
#    z 0.000000 0.000000 1.656500 
# 
# From -- ./inp_files/28509.got.cif
#   From: 2010.05.17/outbox.cif.g08.bks.cpg/sg66_15_cif.got.tgz:28509.got - 2010.06.03 17:51:23.
