data_PCOD9495950
_publ_section_title
;
Structure prediction by ZEFSAII (Michael W. Deem and Ramdas Pophale) SiO2 
 PCOD9495950
Probable space group: C C C M
;
_chemical_formula_sum "Si O2"
_cell_formula_units_Z 104
_cell_length_a 25.646110
_cell_length_b 24.430061
_cell_length_c 8.638541
_cell_angle_alpha 90.000000
_cell_angle_beta 90.000000
_cell_angle_gamma 90.000000
_cell_volume 5412.357198
_symmetry_space_group_name_H-M "C C C M"
_symmetry_group_IT_number 66
_symmetry_cell_setting 'orthorhombic'
loop_
_space_group_symop_operation_xyz
x,y,z
-x,-y,z
x,-y,1/2-z
-x,y,1/2-z
-x,-y,-z
x,y,-z
-x,y,1/2+z
x,-y,1/2+z
1/2+x,1/2+y,z
1/2-x,1/2-y,z
1/2+x,1/2-y,1/2-z
1/2-x,1/2+y,1/2-z
1/2-x,1/2-y,-z
1/2+x,1/2+y,-z
1/2-x,1/2+y,1/2+z
1/2+x,1/2-y,1/2+z
loop_
_atom_site_type_symbol
_atom_site_label
_atom_site_fract_x
_atom_site_fract_y
_atom_site_fract_z
Si Si1 0.419648 0.056103 0.828822
Si Si2 0.558243 0.336123 0.685962
Si Si3 0.756215 0.940599 0.814343
Si Si4 0.500000 0.143909 0.250000
Si Si5 0.907577 0.716216 0.813546
Si Si6 0.166954 0.368609 0.317272
Si Si7 0.877877 0.941331 0.186507
O O1 0.466370 0.099550 0.844204
O O2 0.375923 0.085016 0.724922
O O3 0.436491 0.000000 0.750000
O O4 0.398116 0.045329 0.000000
O O5 0.500000 0.332097 0.750000
O O6 0.555134 0.339346 0.500000
O O7 0.589401 0.280292 0.721491
O O8 0.587729 0.390426 0.742296
O O9 0.720922 0.892766 0.744798
O O10 0.817032 0.933859 0.770660
O O11 0.739056 0.000000 0.750000
O O12 0.751882 0.940755 0.000000
O O13 0.453097 0.186066 0.286448
O O14 0.854560 0.685210 0.769960
O O15 0.918079 0.708944 0.000000
O O16 0.168544 0.359481 0.500000
O O17 0.895553 0.000000 0.250000
O O18 0.880068 0.942924 0.000000
#
# Coordination Sequence:
#
# PCOD9495950 Si02
#       7
#    16  16  16   8  16  16  16
#     4  11  23  36  50  72 104 142 184 234 284 335
#     4  10  21  39  61  88 117 151 189 230 279 336
#     4  10  19  35  58  83 112 149 189 234 284 338
#     4  10  19  32  52  72  95 136 180 228 278 322
#     4  10  21  37  56  78 108 145 189 234 276 330
#     4  11  22  35  54  79 109 146 188 235 282 333
#     4   9  20  38  62  89 119 150 185 226 278 339
#
# _framework density 19.215288000000001
#
# number of rings (size 3 to 8) (size 9 to 14) (size 15 to 20)
#    0.000    1.846    0.769    4.385    0.000    8.923 
#    0.000    2.308    0.000    4.615    0.000    0.000 
#    0.000    0.000    0.000    0.000    0.000    0.000 
#
# Total GULP energy -289862.547206 kJ/mol
# GULP energy per Si atom -5574.279754 kJ/mol
# Density = 1.917155 g / cm^3
# Si number density = 19.215288 Si / 1000 Ang^3
#
#
#
# Elastic Constant Matrix: (Units=GPa)
#
#
# Indices 1 2 3 4 5 6 
#
# 1 53.8682 63.7329 18.1804 0.0000 0.0000 0.0000
# 2 63.7329 179.6371 32.0257 0.0000 0.0000 0.0000
# 3 18.1804 32.0257 42.4475 0.0000 0.0000 0.0000
# 4 0.0000 0.0000 0.0000 23.7523 0.0000 0.0000
# 5 0.0000 0.0000 0.0000 0.0000 17.4122 0.0000
# 6 0.0000 0.0000 0.0000 0.0000 0.0000 32.4225
#
#
#
# Elastic Compliance Matrix: (Units=1/GPa)
#
#
# Indices 1 2 3 4 5 6 
#
# 1 0.033343 -0.010726 -0.006188 0.000000 0.000000 0.000000
# 2 -0.010726 0.009883 -0.002862 0.000000 0.000000 0.000000
# 3 -0.006188 -0.002862 0.028368 0.000000 0.000000 0.000000
# 4 0.000000 0.000000 0.000000 0.042101 0.000000 0.000000
# 5 0.000000 0.000000 0.000000 0.000000 0.057431 0.000000
# 6 0.000000 0.000000 0.000000 0.000000 0.000000 0.030843
#
#
# Mechanical properties :
#
#
# Convention : Reuss Voigt Hill
#
# Bulk Modulus (GPa) = 31.21027 55.98120 43.59573
# Shear Modulus (GPa) = 19.82535 25.51831 22.67183
#
# Velocity S-wave (km/s) = 3.21557 3.64816 3.43867
# Velocity P-wave (km/s) = 5.48308 6.85145 6.20510
#
# Compressibility (1/GPa) = 0.03204074
#
# Stress axis : x y z
#
# Youngs Moduli (GPa) = 29.99131 101.18770 35.25070
#
# Poissons Ratio (x) = 1.08538 0.21813
# Poissons Ratio (y) = 0.32170 0.10089
# Poissons Ratio (z) = 0.18559 0.28960
#
# Static dielectric constant tensor:
#      x y z
#    x 1.669950 0.000000 0.000000 
#    y 0.000000 1.666850 0.000000 
#    z 0.000000 0.000000 1.636440 
# 
# From -- ./inp_files/10536.got.cif
#   From: 2010.05.17/outbox.cif.g08.bks.cpg/sg66_6_cif.got.tgz:10536.got - 2010.06.03 17:51:23.
