data_PCOD9495865
_publ_section_title
;
Structure prediction by ZEFSAII (Michael W. Deem and Ramdas Pophale) SiO2 
 PCOD9495865
Probable space group: C C C M
;
_chemical_formula_sum "Si O2"
_cell_formula_units_Z 64
_cell_length_a 12.581488
_cell_length_b 12.935323
_cell_length_c 15.150530
_cell_angle_alpha 90.000000
_cell_angle_beta 90.000000
_cell_angle_gamma 90.000000
_cell_volume 2465.682263
_symmetry_space_group_name_H-M "C C C M"
_symmetry_group_IT_number 66
_symmetry_cell_setting 'orthorhombic'
loop_
_space_group_symop_operation_xyz
x,y,z
-x,-y,z
x,-y,1/2-z
-x,y,1/2-z
-x,-y,-z
x,y,-z
-x,y,1/2+z
x,-y,1/2+z
1/2+x,1/2+y,z
1/2-x,1/2-y,z
1/2+x,1/2-y,1/2-z
1/2-x,1/2+y,1/2-z
1/2-x,1/2-y,-z
1/2+x,1/2+y,-z
1/2-x,1/2+y,1/2+z
1/2+x,1/2-y,1/2+z
loop_
_atom_site_type_symbol
_atom_site_label
_atom_site_fract_x
_atom_site_fract_y
_atom_site_fract_z
Si Si1 0.968481 0.159309 0.097052
Si Si2 0.543698 0.106426 0.851662
Si Si3 0.732062 0.626797 0.709227
Si Si4 0.215498 0.128591 0.904222
O O1 0.983970 0.283241 0.107289
O O2 0.885720 0.118135 0.169321
O O3 0.087760 0.117928 0.100339
O O4 0.923049 0.137847 0.000000
O O5 0.500000 0.112200 0.750000
O O6 0.670382 0.099548 0.853013
O O7 0.500000 0.000000 0.890199
O O8 0.750000 0.750000 0.719137
O O9 0.748497 0.585860 0.808656
O O10 0.250000 0.250000 0.905459
O O11 0.251045 0.086989 0.000000
#
# Coordination Sequence:
#
# PCOD9495865 Si02
#       4
#    16  16  16  16
#     4  10  19  31  50  78 109 142 185 234 284 336
#     4  10  20  33  49  72 106 147 187 227 281 351
#     4   9  17  30  49  71 102 141 179 232 285 331
#     4   9  16  27  48  77 103 132 175 229 285 331
#
# _framework density 25.956303999999999
#
# number of rings (size 3 to 8) (size 9 to 14) (size 15 to 20)
#    0.000    2.500    0.000    5.250    0.000    5.000 
#    0.000    0.000    0.000    2.250    0.000   29.750 
#    0.000   40.000    0.000    0.000    0.000    0.000 
#
# Total GULP energy -179007.839716 kJ/mol
# GULP energy per Si atom -5593.994991 kJ/mol
# Density = 2.589723 g / cm^3
# Si number density = 25.956304 Si / 1000 Ang^3
#
#
#
# Elastic Constant Matrix: (Units=GPa)
#
#
# Indices 1 2 3 4 5 6 
#
# 1 82.9812 7.0181 4.4808 0.0000 0.0000 0.0000
# 2 7.0181 87.5083 11.0005 0.0000 0.0000 0.0000
# 3 4.4808 11.0005 128.7775 0.0000 0.0000 0.0000
# 4 0.0000 0.0000 0.0000 121.9711 0.0000 0.0000
# 5 0.0000 0.0000 0.0000 0.0000 14.7235 0.0000
# 6 0.0000 0.0000 0.0000 0.0000 0.0000 34.4888
#
#
#
# Elastic Compliance Matrix: (Units=1/GPa)
#
#
# Indices 1 2 3 4 5 6 
#
# 1 0.012148 -0.000931 -0.000343 0.000000 0.000000 0.000000
# 2 -0.000931 0.011623 -0.000960 0.000000 0.000000 0.000000
# 3 -0.000343 -0.000960 0.007859 0.000000 0.000000 0.000000
# 4 0.000000 0.000000 0.000000 0.008199 0.000000 0.000000
# 5 0.000000 0.000000 0.000000 0.000000 0.067919 0.000000
# 6 0.000000 0.000000 0.000000 0.000000 0.000000 0.028995
#
#
# Mechanical properties :
#
#
# Convention : Reuss Voigt Hill
#
# Bulk Modulus (GPa) = 36.81759 38.25173 37.53466
# Shear Modulus (GPa) = 33.27435 52.68786 42.98111
#
# Velocity S-wave (km/s) = 3.58430 4.51029 4.07369
# Velocity P-wave (km/s) = 5.59865 6.47245 6.05134
#
# Compressibility (1/GPa) = 0.02716093
#
# Stress axis : x y z
#
# Youngs Moduli (GPa) = 82.31675 86.03700 127.23751
#
# Poissons Ratio (x) = 0.08011 0.04366
# Poissons Ratio (y) = 0.07665 0.12221
# Poissons Ratio (z) = 0.02825 0.08263
#
# Static dielectric constant tensor:
#      x y z
#    x 1.992860 0.000000 0.000000 
#    y 0.000000 2.149720 0.000000 
#    z 0.000000 0.000000 2.042180 
# 
# From -- ./inp_files/27860.got.cif
#   From: 2010.05.17/outbox.cif.g08.bks.cpg/sg66_14_cif.got.tgz:27860.got - 2010.06.03 17:51:23.
