data_PCOD9495984
_publ_section_title
;
Structure prediction by ZEFSAII (Michael W. Deem and Ramdas Pophale) SiO2 
 PCOD9495984
Probable space group: C C C M
;
_chemical_formula_sum "Si O2"
_cell_formula_units_Z 116
_cell_length_a 28.737726
_cell_length_b 23.034392
_cell_length_c 9.348454
_cell_angle_alpha 90.000000
_cell_angle_beta 90.000000
_cell_angle_gamma 90.000000
_cell_volume 6188.265645
_symmetry_space_group_name_H-M "C C C M"
_symmetry_group_IT_number 66
_symmetry_cell_setting 'orthorhombic'
loop_
_space_group_symop_operation_xyz
x,y,z
-x,-y,z
x,-y,1/2-z
-x,y,1/2-z
-x,-y,-z
x,y,-z
-x,y,1/2+z
x,-y,1/2+z
1/2+x,1/2+y,z
1/2-x,1/2-y,z
1/2+x,1/2-y,1/2-z
1/2-x,1/2+y,1/2-z
1/2-x,1/2-y,-z
1/2+x,1/2+y,-z
1/2-x,1/2+y,1/2+z
1/2+x,1/2-y,1/2+z
loop_
_atom_site_type_symbol
_atom_site_label
_atom_site_fract_x
_atom_site_fract_y
_atom_site_fract_z
Si Si1 0.500000 0.500000 0.750000
Si Si2 0.922179 0.559701 0.830231
Si Si3 0.645391 0.344363 0.327658
Si Si4 0.543263 0.384392 0.337680
Si Si5 0.956455 0.674099 0.331612
Si Si6 0.221991 0.059254 0.171020
Si Si7 0.354304 0.225144 0.332491
Si Si8 0.821018 0.612994 0.831735
O O1 0.466929 0.454088 0.831724
O O2 0.933524 0.500000 0.750000
O O3 0.946468 0.613448 0.750141
O O4 0.866843 0.573078 0.816243
O O5 0.933288 0.557891 0.000000
O O6 0.645162 0.336534 0.500000
O O7 0.594248 0.367787 0.283758
O O8 0.684558 0.391501 0.292982
O O9 0.655712 0.284126 0.250481
O O10 0.500000 0.359062 0.250000
O O11 0.539915 0.364728 0.500000
O O12 0.965785 0.664793 0.500000
O O13 0.909430 0.711240 0.318949
O O14 0.000000 0.701669 0.250000
O O15 0.273905 0.080368 0.209413
O O16 0.210823 0.000000 0.250000
O O17 0.220823 0.050489 0.000000
O O18 0.343110 0.229423 0.500000
O O19 0.328696 0.170538 0.260888
O O20 0.817833 0.628868 0.000000
#
# Coordination Sequence:
#
# PCOD9495984 Si02
#       8
#     4  16  16  16  16  16  16  16
#     4   8  18  32  54  76 106 140 190 224 268 320
#     4  10  19  32  53  80 111 146 184 224 272 326
#     4  10  22  39  56  81 115 150 184 225 279 335
#     4   9  19  33  53  78 106 143 184 225 273 324
#     4  10  21  37  56  79 108 141 182 229 279 328
#     4  10  22  38  59  87 117 148 183 223 275 329
#     4  10  22  39  59  83 108 143 188 233 275 323
#     4   9  19  37  59  82 110 148 186 225 273 329
#
# _framework density 18.745155
#
# number of rings (size 3 to 8) (size 9 to 14) (size 15 to 20)
#    0.414    1.931    0.000    1.862    0.966    5.241 
#    0.000    6.897    0.000    0.000    0.000    0.000 
#    0.000    0.000    0.000    0.000    0.000    0.000 
#
# Total GULP energy -323571.736194 kJ/mol
# GULP energy per Si atom -5578.823038 kJ/mol
# Density = 1.870249 g / cm^3
# Si number density = 18.745155 Si / 1000 Ang^3
#
#
#
# Elastic Constant Matrix: (Units=GPa)
#
#
# Indices 1 2 3 4 5 6 
#
# 1 41.5121 5.1877 25.8951 0.0000 0.0000 0.0000
# 2 5.1877 94.6266 44.7422 0.0000 0.0000 0.0000
# 3 25.8951 44.7422 73.9161 0.0000 0.0000 0.0000
# 4 0.0000 0.0000 0.0000 22.7725 0.0000 0.0000
# 5 0.0000 0.0000 0.0000 0.0000 26.4435 0.0000
# 6 0.0000 0.0000 0.0000 0.0000 0.0000 9.4056
#
#
#
# Elastic Compliance Matrix: (Units=1/GPa)
#
#
# Indices 1 2 3 4 5 6 
#
# 1 0.032455 0.005039 -0.014420 0.000000 0.000000 0.000000
# 2 0.005039 0.015588 -0.011201 0.000000 0.000000 0.000000
# 3 -0.014420 -0.011201 0.025361 0.000000 0.000000 0.000000
# 4 0.000000 0.000000 0.000000 0.043913 0.000000 0.000000
# 5 0.000000 0.000000 0.000000 0.000000 0.037816 0.000000
# 6 0.000000 0.000000 0.000000 0.000000 0.000000 0.106319
#
#
# Mechanical properties :
#
#
# Convention : Reuss Voigt Hill
#
# Bulk Modulus (GPa) = 31.01789 40.18941 35.60365
# Shear Modulus (GPa) = 15.95602 20.67298 18.31450
#
# Velocity S-wave (km/s) = 2.92071 3.32451 3.12913
# Velocity P-wave (km/s) = 5.28745 6.01855 5.66481
#
# Compressibility (1/GPa) = 0.03223946
#
# Stress axis : x y z
#
# Youngs Moduli (GPa) = 30.81202 64.15363 39.43136
#
# Poissons Ratio (x) = -0.32327 0.56860
# Poissons Ratio (y) = -0.15526 0.44166
# Poissons Ratio (z) = 0.44431 0.71856
#
# Static dielectric constant tensor:
#      x y z
#    x 1.658450 0.000000 0.000000 
#    y 0.000000 1.618890 0.000000 
#    z 0.000000 0.000000 1.635540 
# 
# From -- ./inp_files/11741.got.cif
#   From: 2010.05.17/outbox.cif.g08.bks.cpg/sg66_6_cif.got.tgz:11741.got - 2010.06.03 17:51:23.
