data_PCOD9495084
_publ_section_title
;
Structure prediction by ZEFSAII (Michael W. Deem and Ramdas Pophale) SiO2 
 PCOD9495084
Probable space group: C C C M
;
_chemical_formula_sum "Si O2"
_cell_formula_units_Z 80
_cell_length_a 15.901280
_cell_length_b 13.316202
_cell_length_c 19.063136
_cell_angle_alpha 90.000000
_cell_angle_beta 90.000000
_cell_angle_gamma 90.000000
_cell_volume 4036.517185
_symmetry_space_group_name_H-M "C C C M"
_symmetry_group_IT_number 66
_symmetry_cell_setting 'orthorhombic'
loop_
_space_group_symop_operation_xyz
x,y,z
-x,-y,z
x,-y,1/2-z
-x,y,1/2-z
-x,-y,-z
x,y,-z
-x,y,1/2+z
x,-y,1/2+z
1/2+x,1/2+y,z
1/2-x,1/2-y,z
1/2+x,1/2-y,1/2-z
1/2-x,1/2+y,1/2-z
1/2-x,1/2-y,-z
1/2+x,1/2+y,-z
1/2-x,1/2+y,1/2+z
1/2+x,1/2-y,1/2+z
loop_
_atom_site_type_symbol
_atom_site_label
_atom_site_fract_x
_atom_site_fract_y
_atom_site_fract_z
Si Si1 0.721247 0.430947 0.646033
Si Si2 0.145065 0.863888 0.156533
Si Si3 0.022979 0.273300 0.000000
Si Si4 0.153954 0.217198 0.500000
Si Si5 0.750000 0.250000 0.743486
Si Si6 0.971790 0.104685 0.617240
Si Si7 0.294718 0.139006 0.000000
O O1 0.712265 0.546761 0.668853
O O2 0.763225 0.347301 0.694949
O O3 0.622196 0.403768 0.644587
O O4 0.761559 0.417617 0.569245
O O5 0.144918 0.843051 0.072961
O O6 0.173714 0.772310 0.203955
O O7 0.047824 0.886456 0.172314
O O8 0.031496 0.200007 0.933370
O O9 0.103724 0.346294 0.000000
O O10 0.922606 0.299326 0.000000
O O11 0.250000 0.250000 0.500000
O O12 0.000000 0.000000 0.580208
O O13 0.250000 0.250000 0.000000
#
# Coordination Sequence:
#
# PCOD9495084 Si02
#       7
#    16  16   8   8   8  16   8
#     4  11  21  36  58  85 118 150 185 231 293 352
#     4  10  22  36  58  85 113 147 191 240 287 339
#     4  10  17  28  53  89 115 147 181 232 287 341
#     4  10  19  38  60  84 112 152 200 238 281 333
#     4  12  22  36  52  80 114 152 190 230 288 344
#     4   9  17  31  52  84 114 141 179 234 294 348
#     4  12  19  34  56  89 123 150 184 228 291 351
#
# _framework density 19.819065999999999
#
# number of rings (size 3 to 8) (size 9 to 14) (size 15 to 20)
#    0.000    1.600    4.000    1.500    0.000    4.000 
#    0.000    3.000    0.000    2.400    0.000    5.600 
#    0.000    0.000    0.000    0.000    0.000    0.000 
#
# Total GULP energy -222734.612508 kJ/mol
# GULP energy per Si atom -5568.365313 kJ/mol
# Density = 1.977396 g / cm^3
# Si number density = 19.819066 Si / 1000 Ang^3
#
#
#
# Elastic Constant Matrix: (Units=GPa)
#
#
# Indices 1 2 3 4 5 6 
#
# 1 136.1826 46.0479 28.2307 0.0000 0.0000 0.0000
# 2 46.0479 57.3439 39.0021 0.0000 0.0000 0.0000
# 3 28.2307 39.0021 103.7886 0.0000 0.0000 0.0000
# 4 0.0000 0.0000 0.0000 43.0676 0.0000 0.0000
# 5 0.0000 0.0000 0.0000 0.0000 -11.1857 0.0000
# 6 0.0000 0.0000 0.0000 0.0000 0.0000 30.5810
#
#
#
# Elastic Compliance Matrix: (Units=1/GPa)
#
#
# Indices 1 2 3 4 5 6 
#
# 1 0.010093 -0.008379 0.000403 0.000000 0.000000 0.000000
# 2 -0.008379 0.030382 -0.009138 0.000000 0.000000 0.000000
# 3 0.000403 -0.009138 0.012959 0.000000 0.000000 0.000000
# 4 0.000000 0.000000 0.000000 0.023219 0.000000 0.000000
# 5 0.000000 0.000000 0.000000 0.000000 -0.089400 0.000000
# 6 0.000000 0.000000 0.000000 0.000000 0.000000 0.032700
#
#
# Mechanical properties :
#
#
# Convention : Reuss Voigt Hill
#
# Bulk Modulus (GPa) = 52.06448 58.20850 55.13649
# Shear Modulus (GPa) = 82.53109 24.76154 53.64632
#
# Velocity S-wave (km/s) = 6.46008 3.53849 5.20834
# Velocity P-wave (km/s) = 9.05376 6.79178 8.00309
#
# Compressibility (1/GPa) = 0.01920695
#
# Stress axis : x y z
#
# Youngs Moduli (GPa) = 99.08205 32.91391 77.16537
#
# Poissons Ratio (x) = 0.27578 -0.03113
# Poissons Ratio (y) = 0.83020 0.70514
# Poissons Ratio (z) = -0.03998 0.30077
#
# Static dielectric constant tensor:
#      x y z
#    x 1.772850 0.000000 0.000000 
#    y 0.000000 1.780020 0.000000 
#    z 0.000000 0.000000 1.775840 
# 
# From -- ./inp_files/50864.got.cif
#   From: 2010.05.17/outbox.cif.g08.bks.cpg/sg66_26_cif.got.tgz:50864.got - 2010.06.03 17:51:23.
