data_PCOD9495747
_publ_section_title
;
Structure prediction by ZEFSAII (Michael W. Deem and Ramdas Pophale) SiO2 
 PCOD9495747
Probable space group: C C C M
;
_chemical_formula_sum "Si O2"
_cell_formula_units_Z 84
_cell_length_a 23.908432
_cell_length_b 11.648584
_cell_length_c 17.745792
_cell_angle_alpha 90.000000
_cell_angle_beta 90.000000
_cell_angle_gamma 90.000000
_cell_volume 4942.192042
_symmetry_space_group_name_H-M "C C C M"
_symmetry_group_IT_number 66
_symmetry_cell_setting 'orthorhombic'
loop_
_space_group_symop_operation_xyz
x,y,z
-x,-y,z
x,-y,1/2-z
-x,y,1/2-z
-x,-y,-z
x,y,-z
-x,y,1/2+z
x,-y,1/2+z
1/2+x,1/2+y,z
1/2-x,1/2-y,z
1/2+x,1/2-y,1/2-z
1/2-x,1/2+y,1/2-z
1/2-x,1/2-y,-z
1/2+x,1/2+y,-z
1/2-x,1/2+y,1/2+z
1/2+x,1/2-y,1/2+z
loop_
_atom_site_type_symbol
_atom_site_label
_atom_site_fract_x
_atom_site_fract_y
_atom_site_fract_z
Si Si1 0.874066 0.991972 0.584419
Si Si2 0.500000 0.000000 0.750000
Si Si3 0.083006 0.677918 0.829768
Si Si4 0.515162 0.655253 0.417098
Si Si5 0.184762 0.747656 0.910343
Si Si6 0.078043 0.880195 0.706734
O O1 0.860550 0.031479 0.500000
O O2 0.938741 0.946230 0.584053
O O3 0.872008 0.087681 0.648858
O O4 0.838867 0.877368 0.600824
O O5 0.542973 0.078580 0.798315
O O6 0.146269 0.663233 0.860083
O O7 0.086290 0.777534 0.765419
O O8 0.051764 0.732047 0.901976
O O9 0.488908 0.658207 0.500000
O O10 0.473485 0.650983 0.347269
O O11 0.250000 0.750000 0.890952
O O12 0.179374 0.722061 0.000000
O O13 0.067858 0.000000 0.750000
#
# Coordination Sequence:
#
# PCOD9495747 Si02
#       6
#    16   4  16  16  16  16
#     4   9  18  28  46  78 111 136 169 221 275 330
#     4  12  24  40  52  76 116 164 190 232 280 348
#     4  11  22  36  53  76 111 144 192 230 279 336
#     4  10  19  29  44  71 105 140 173 210 263 330
#     4   9  18  36  59  82 109 143 186 235 283 336
#     4  12  19  28  49  79 110 136 168 221 283 331
#
# _framework density 16.996507000000001
#
# number of rings (size 3 to 8) (size 9 to 14) (size 15 to 20)
#    0.000    1.714    5.714    2.857    2.667    1.524 
#    0.000    3.810    0.000    0.000    0.000    0.000 
#    0.000    6.095    0.000    0.000    0.000    0.000 
#
# Total GULP energy -233894.619307 kJ/mol
# GULP energy per Si atom -5568.919507 kJ/mol
# Density = 1.695782 g / cm^3
# Si number density = 16.996507 Si / 1000 Ang^3
#
#
#
# Elastic Constant Matrix: (Units=GPa)
#
#
# Indices 1 2 3 4 5 6 
#
# 1 104.4951 23.4018 40.5500 0.0000 0.0000 0.0000
# 2 23.4018 50.8846 27.2827 0.0000 0.0000 0.0000
# 3 40.5500 27.2827 102.2274 0.0000 0.0000 0.0000
# 4 0.0000 0.0000 0.0000 14.5577 0.0000 0.0000
# 5 0.0000 0.0000 0.0000 0.0000 21.7575 0.0000
# 6 0.0000 0.0000 0.0000 0.0000 0.0000 15.0482
#
#
#
# Elastic Compliance Matrix: (Units=1/GPa)
#
#
# Indices 1 2 3 4 5 6 
#
# 1 0.011795 -0.003403 -0.003771 0.000000 0.000000 0.000000
# 2 -0.003403 0.023916 -0.005033 0.000000 0.000000 0.000000
# 3 -0.003771 -0.005033 0.012621 0.000000 0.000000 0.000000
# 4 0.000000 0.000000 0.000000 0.068692 0.000000 0.000000
# 5 0.000000 0.000000 0.000000 0.000000 0.045961 0.000000
# 6 0.000000 0.000000 0.000000 0.000000 0.000000 0.066453
#
#
# Mechanical properties :
#
#
# Convention : Reuss Voigt Hill
#
# Bulk Modulus (GPa) = 41.80746 48.89733 45.35239
# Shear Modulus (GPa) = 19.09682 21.36421 20.23051
#
# Velocity S-wave (km/s) = 3.35561 3.54923 3.45378
# Velocity P-wave (km/s) = 6.29798 6.75482 6.53040
#
# Compressibility (1/GPa) = 0.02391918
#
# Stress axis : x y z
#
# Youngs Moduli (GPa) = 84.78111 41.81337 79.23344
#
# Poissons Ratio (x) = 0.14229 0.29875
# Poissons Ratio (y) = 0.28850 0.39877
# Poissons Ratio (z) = 0.31967 0.21044
#
# Static dielectric constant tensor:
#      x y z
#    x 1.620650 0.000000 0.000000 
#    y 0.000000 1.605030 0.000000 
#    z 0.000000 0.000000 1.628870 
# 
# From -- ./inp_files/51796.got.cif
#   From: 2010.05.17/outbox.cif.g08.bks.cpg/sg66_26_cif.got.tgz:51796.got - 2010.06.03 17:51:23.
