data_PCOD9495299
_publ_section_title
;
Structure prediction by ZEFSAII (Michael W. Deem and Ramdas Pophale) SiO2 
 PCOD9495299
Probable space group: C C C M
;
_chemical_formula_sum "Si O2"
_cell_formula_units_Z 104
_cell_length_a 20.165522
_cell_length_b 15.120906
_cell_length_c 17.169355
_cell_angle_alpha 90.000000
_cell_angle_beta 90.000000
_cell_angle_gamma 90.000000
_cell_volume 5235.296254
_symmetry_space_group_name_H-M "C C C M"
_symmetry_group_IT_number 66
_symmetry_cell_setting 'orthorhombic'
loop_
_space_group_symop_operation_xyz
x,y,z
-x,-y,z
x,-y,1/2-z
-x,y,1/2-z
-x,-y,-z
x,y,-z
-x,y,1/2+z
x,-y,1/2+z
1/2+x,1/2+y,z
1/2-x,1/2-y,z
1/2+x,1/2-y,1/2-z
1/2-x,1/2+y,1/2-z
1/2-x,1/2-y,-z
1/2+x,1/2+y,-z
1/2-x,1/2+y,1/2+z
1/2+x,1/2-y,1/2+z
loop_
_atom_site_type_symbol
_atom_site_label
_atom_site_fract_x
_atom_site_fract_y
_atom_site_fract_z
Si Si1 0.142815 0.500000 0.750000
Si Si2 0.203648 0.918045 0.615656
Si Si3 0.897542 0.772415 0.912123
Si Si4 0.753609 0.852313 0.269089
Si Si5 0.658649 0.388281 0.088050
Si Si6 0.637975 0.075204 0.408474
Si Si7 0.489451 0.600732 0.904549
O O1 0.187575 0.411798 0.734701
O O2 0.111373 0.516492 0.664170
O O3 0.169001 0.830497 0.584406
O O4 0.200219 0.904482 0.708279
O O5 0.281173 0.928230 0.594416
O O6 0.165618 0.005017 0.588769
O O7 0.882368 0.674616 0.884258
O O8 0.953754 0.833629 0.874112
O O9 0.921387 0.757949 0.000000
O O10 0.750000 0.750000 0.243631
O O11 0.786078 0.854060 0.353542
O O12 0.584314 0.366856 0.114763
O O13 0.668495 0.356900 0.000000
O O14 0.619698 0.056930 0.500000
O O15 0.500000 0.500000 0.877665
O O16 0.492592 0.597314 0.000000
#
# Coordination Sequence:
#
# PCOD9495299 Si02
#       7
#     8  16  16  16  16  16  16
#     4  10  20  36  52  80 114 148 184 240 306 346
#     4  11  18  31  51  76 107 147 187 231 283 337
#     4  10  18  29  50  80 109 145 192 234 276 339
#     4  11  22  36  53  76 111 149 181 229 292 345
#     4  11  20  33  54  77 109 150 188 224 273 350
#     4  10  19  30  49  79 112 150 196 241 288 346
#     4   9  17  30  49  76 110 150 182 218 277 337
#
# _framework density 19.865159999999999
#
# number of rings (size 3 to 8) (size 9 to 14) (size 15 to 20)
#    0.000    1.692    4.615    3.692    0.000    1.538 
#    0.000    0.769    0.000    0.000    0.000    2.154 
#    0.000    4.923    0.000    2.000    0.000    0.154 
#
# Total GULP energy -289583.525460 kJ/mol
# GULP energy per Si atom -5568.913951 kJ/mol
# Density = 1.981995 g / cm^3
# Si number density = 19.865160 Si / 1000 Ang^3
#
#
#
# Elastic Constant Matrix: (Units=GPa)
#
#
# Indices 1 2 3 4 5 6 
#
# 1 19.1122 0.6523 12.6196 0.0000 0.0000 0.0000
# 2 0.6523 72.8346 13.5291 0.0000 0.0000 0.0000
# 3 12.6196 13.5291 94.7187 0.0000 0.0000 0.0000
# 4 0.0000 0.0000 0.0000 10.7130 0.0000 0.0000
# 5 0.0000 0.0000 0.0000 0.0000 -2.6373 0.0000
# 6 0.0000 0.0000 0.0000 0.0000 0.0000 17.8020
#
#
#
# Elastic Compliance Matrix: (Units=1/GPa)
#
#
# Indices 1 2 3 4 5 6 
#
# 1 0.057431 0.000932 -0.007785 0.000000 0.000000 0.000000
# 2 0.000932 0.014119 -0.002141 0.000000 0.000000 0.000000
# 3 -0.007785 -0.002141 0.011901 0.000000 0.000000 0.000000
# 4 0.000000 0.000000 0.000000 0.093345 0.000000 0.000000
# 5 0.000000 0.000000 0.000000 0.000000 -0.379169 0.000000
# 6 0.000000 0.000000 0.000000 0.000000 0.000000 0.056174
#
#
# Mechanical properties :
#
#
# Convention : Reuss Voigt Hill
#
# Bulk Modulus (GPa) = 15.27581 26.69639 20.98610
# Shear Modulus (GPa) = -46.99639 15.83315 -15.58162
#
# Velocity S-wave (km/s) = -4.86919 2.82624 -2.80370
# Velocity P-wave (km/s) = 4.88934 4.91102 0.32596
#
# Compressibility (1/GPa) = 0.06546297
#
# Stress axis : x y z
#
# Youngs Moduli (GPa) = 17.41214 70.82626 84.02967
#
# Poissons Ratio (x) = -0.06599 0.65416
# Poissons Ratio (y) = -0.01622 0.17989
# Poissons Ratio (z) = 0.13555 0.15163
#
# Static dielectric constant tensor:
#      x y z
#    x 1.716890 0.000000 0.000000 
#    y 0.000000 1.726120 0.000000 
#    z 0.000000 0.000000 1.826930 
# 
# From -- ./inp_files/42948.got.cif
#   From: 2010.05.17/outbox.cif.g08.bks.cpg/sg66_22_cif.got.tgz:42948.got - 2010.06.03 17:51:23.
