data_PCOD9495602
_publ_section_title
;
Structure prediction by ZEFSAII (Michael W. Deem and Ramdas Pophale) SiO2 
 PCOD9495602
Probable space group: C C C M
;
_chemical_formula_sum "Si O2"
_cell_formula_units_Z 64
_cell_length_a 14.821444
_cell_length_b 20.230150
_cell_length_c 10.565845
_cell_angle_alpha 90.000000
_cell_angle_beta 90.000000
_cell_angle_gamma 90.000000
_cell_volume 3168.063338
_symmetry_space_group_name_H-M "C C C M"
_symmetry_group_IT_number 66
_symmetry_cell_setting 'orthorhombic'
loop_
_space_group_symop_operation_xyz
x,y,z
-x,-y,z
x,-y,1/2-z
-x,y,1/2-z
-x,-y,-z
x,y,-z
-x,y,1/2+z
x,-y,1/2+z
1/2+x,1/2+y,z
1/2-x,1/2-y,z
1/2+x,1/2-y,1/2-z
1/2-x,1/2+y,1/2-z
1/2-x,1/2-y,-z
1/2+x,1/2+y,-z
1/2-x,1/2+y,1/2+z
1/2+x,1/2-y,1/2+z
loop_
_atom_site_type_symbol
_atom_site_label
_atom_site_fract_x
_atom_site_fract_y
_atom_site_fract_z
Si Si1 0.000000 0.397486 0.250000
Si Si2 0.685617 0.053610 0.648226
Si Si3 0.141749 0.235739 0.000000
Si Si4 0.200057 0.178866 0.767798
Si Si5 0.976445 0.680765 0.500000
Si Si6 0.662132 0.702138 0.500000
O O1 0.919844 0.436361 0.318465
O O2 0.957036 0.356133 0.132487
O O3 0.695900 0.035891 0.500000
O O4 0.735308 0.122738 0.677208
O O5 0.719840 0.000000 0.750000
O O6 0.250000 0.250000 0.000000
O O7 0.124831 0.194748 0.127118
O O8 0.082487 0.301197 0.000000
O O9 0.250000 0.250000 0.752947
O O10 0.165705 0.161325 0.629062
O O11 0.922194 0.748756 0.500000
O O12 0.750000 0.750000 0.500000
#
# Coordination Sequence:
#
# PCOD9495602 Si02
#       6
#     8  16   8  16   8   8
#     4  12  23  38  60  88 134 176 213 252 303 388
#     4  12  27  43  62  90 127 176 218 259 319 391
#     4  10  18  34  58  88 125 162 211 259 318 371
#     4  10  20  38  63  86 119 160 209 266 314 361
#     4  12  22  36  63 100 133 174 212 262 328 384
#     4  10  20  34  54  92 129 160 205 265 318 369
#
# _framework density 20.201616000000001
#
# number of rings (size 3 to 8) (size 9 to 14) (size 15 to 20)
#    0.000    1.000    2.500    7.875    3.500    1.000 
#    0.000    0.000    0.000    0.000    0.000    5.250 
#    0.000    0.000    0.000    0.000    0.000    0.000 
#
# Total GULP energy -178521.957763 kJ/mol
# GULP energy per Si atom -5578.811180 kJ/mol
# Density = 2.015564 g / cm^3
# Si number density = 20.201616 Si / 1000 Ang^3
#
#
#
# Elastic Constant Matrix: (Units=GPa)
#
#
# Indices 1 2 3 4 5 6 
#
# 1 21.9504 10.9355 10.4204 0.0000 0.0000 0.0000
# 2 10.9355 73.5328 35.9152 0.0000 0.0000 0.0000
# 3 10.4204 35.9152 234.1245 0.0000 0.0000 0.0000
# 4 0.0000 0.0000 0.0000 25.7862 0.0000 0.0000
# 5 0.0000 0.0000 0.0000 0.0000 22.2444 0.0000
# 6 0.0000 0.0000 0.0000 0.0000 0.0000 15.5212
#
#
#
# Elastic Compliance Matrix: (Units=1/GPa)
#
#
# Indices 1 2 3 4 5 6 
#
# 1 0.049493 -0.006793 -0.001161 0.000000 0.000000 0.000000
# 2 -0.006793 0.015633 -0.002096 0.000000 0.000000 0.000000
# 3 -0.001161 -0.002096 0.004644 0.000000 0.000000 0.000000
# 4 0.000000 0.000000 0.000000 0.038781 0.000000 0.000000
# 5 0.000000 0.000000 0.000000 0.000000 0.044955 0.000000
# 6 0.000000 0.000000 0.000000 0.000000 0.000000 0.064428
#
#
# Mechanical properties :
#
#
# Convention : Reuss Voigt Hill
#
# Bulk Modulus (GPa) = 20.13266 49.34998 34.74132
# Shear Modulus (GPa) = 19.63933 30.86612 25.25273
#
# Velocity S-wave (km/s) = 3.12134 3.91308 3.53942
# Velocity P-wave (km/s) = 4.79352 6.70060 5.82563
#
# Compressibility (1/GPa) = 0.04967054
#
# Stress axis : x y z
#
# Youngs Moduli (GPa) = 20.20496 63.96596 215.31337
#
# Poissons Ratio (x) = 0.43455 0.24991
# Poissons Ratio (y) = 0.13726 0.45126
# Poissons Ratio (z) = 0.02345 0.13406
#
# Static dielectric constant tensor:
#      x y z
#    x 1.761800 0.000000 0.000000 
#    y 0.000000 1.759830 0.000000 
#    z 0.000000 0.000000 1.863610 
# 
# From -- ./inp_files/15993.got.cif
#   From: 2010.05.17/outbox.cif.g08.bks.cpg/sg66_8_cif.got.tgz:15993.got - 2010.06.03 17:51:23.
