data_PCOD9495649
_publ_section_title
;
Structure prediction by ZEFSAII (Michael W. Deem and Ramdas Pophale) SiO2 
 PCOD9495649
Probable space group: C C C M
;
_chemical_formula_sum "Si O2"
_cell_formula_units_Z 80
_cell_length_a 17.983573
_cell_length_b 11.126222
_cell_length_c 20.154685
_cell_angle_alpha 90.000000
_cell_angle_beta 90.000000
_cell_angle_gamma 90.000000
_cell_volume 4032.735313
_symmetry_space_group_name_H-M "C C C M"
_symmetry_group_IT_number 66
_symmetry_cell_setting 'orthorhombic'
loop_
_space_group_symop_operation_xyz
x,y,z
-x,-y,z
x,-y,1/2-z
-x,y,1/2-z
-x,-y,-z
x,y,-z
-x,y,1/2+z
x,-y,1/2+z
1/2+x,1/2+y,z
1/2-x,1/2-y,z
1/2+x,1/2-y,1/2-z
1/2-x,1/2+y,1/2-z
1/2-x,1/2-y,-z
1/2+x,1/2+y,-z
1/2-x,1/2+y,1/2+z
1/2+x,1/2-y,1/2+z
loop_
_atom_site_type_symbol
_atom_site_label
_atom_site_fract_x
_atom_site_fract_y
_atom_site_fract_z
Si Si1 0.525962 0.626428 0.326956
Si Si2 0.611247 0.763859 0.141054
Si Si3 0.336900 0.255636 0.715615
Si Si4 0.912347 0.528775 0.500000
Si Si5 0.913514 0.463109 0.146714
Si Si6 0.162947 0.265541 0.000000
O O1 0.500000 0.500000 0.356329
O O2 0.500000 0.625796 0.250000
O O3 0.476557 0.733721 0.356039
O O4 0.613458 0.650118 0.326133
O O5 0.650714 0.712770 0.206714
O O6 0.636379 0.714179 0.070366
O O7 0.625086 0.906289 0.145748
O O8 0.250000 0.250000 0.700274
O O9 0.378490 0.129360 0.698825
O O10 0.900567 0.588380 0.428127
O O11 0.867545 0.402938 0.500000
O O12 0.000000 0.500000 0.500000
O O13 0.000000 0.500000 0.158598
O O14 0.250000 0.250000 0.000000
#
# Coordination Sequence:
#
# PCOD9495649 Si02
#       6
#    16  16  16   8  16   8
#     4   9  19  38  57  76 112 156 186 220 285 356
#     4  10  20  37  60  82 113 154 194 232 286 351
#     4  11  22  36  56  91 120 144 189 246 292 330
#     4   8  18  34  57  84 114 150 189 230 289 344
#     4  10  18  35  62  87 114 150 196 236 280 346
#     4  10  20  36  55  84 114 144 190 245 289 329
#
# _framework density 19.837653
#
# number of rings (size 3 to 8) (size 9 to 14) (size 15 to 20)
#    0.000    2.200    2.000    1.200    0.000    0.800 
#   21.600    1.000    0.000    0.000    0.000    0.000 
#    0.000    0.000    0.000    0.000    0.000    0.000 
#
# Total GULP energy -222713.328412 kJ/mol
# GULP energy per Si atom -5567.833210 kJ/mol
# Density = 1.979250 g / cm^3
# Si number density = 19.837653 Si / 1000 Ang^3
#
#
#
# Elastic Constant Matrix: (Units=GPa)
#
#
# Indices 1 2 3 4 5 6 
#
# 1 155.4734 25.5810 34.4873 0.0000 0.0000 0.0000
# 2 25.5810 64.7579 10.0903 0.0000 0.0000 0.0000
# 3 34.4873 10.0903 112.1919 0.0000 0.0000 0.0000
# 4 0.0000 0.0000 0.0000 7.4206 0.0000 0.0000
# 5 0.0000 0.0000 0.0000 0.0000 19.7221 0.0000
# 6 0.0000 0.0000 0.0000 0.0000 0.0000 19.1248
#
#
#
# Elastic Compliance Matrix: (Units=1/GPa)
#
#
# Indices 1 2 3 4 5 6 
#
# 1 0.007302 -0.002571 -0.002013 0.000000 0.000000 0.000000
# 2 -0.002571 0.016567 -0.000700 0.000000 0.000000 0.000000
# 3 -0.002013 -0.000700 0.009595 0.000000 0.000000 0.000000
# 4 0.000000 0.000000 0.000000 0.134760 0.000000 0.000000
# 5 0.000000 0.000000 0.000000 0.000000 0.050705 0.000000
# 6 0.000000 0.000000 0.000000 0.000000 0.000000 0.052288
#
#
# Mechanical properties :
#
#
# Convention : Reuss Voigt Hill
#
# Bulk Modulus (GPa) = 43.67578 52.52670 48.10124
# Shear Modulus (GPa) = 17.27619 26.73780 22.00700
#
# Velocity S-wave (km/s) = 2.95427 3.67526 3.33431
# Velocity P-wave (km/s) = 5.80528 6.67427 6.25489
#
# Compressibility (1/GPa) = 0.02289599
#
# Stress axis : x y z
#
# Youngs Moduli (GPa) = 136.95803 60.36237 104.21989
#
# Poissons Ratio (x) = 0.15517 0.20982
# Poissons Ratio (y) = 0.35206 0.07293
# Poissons Ratio (z) = 0.27573 0.04224
#
# Static dielectric constant tensor:
#      x y z
#    x 1.734690 0.000000 0.000000 
#    y 0.000000 1.753920 0.000000 
#    z 0.000000 0.000000 1.763900 
# 
# From -- ./inp_files/50813.got.cif
#   From: 2010.05.17/outbox.cif.g08.bks.cpg/sg66_26_cif.got.tgz:50813.got - 2010.06.03 17:51:23.
