data_PCOD9495572
_publ_section_title
;
Structure prediction by ZEFSAII (Michael W. Deem and Ramdas Pophale) SiO2 
 PCOD9495572
Probable space group: C C C M
;
_chemical_formula_sum "Si O2"
_cell_formula_units_Z 88
_cell_length_a 9.954454
_cell_length_b 26.452337
_cell_length_c 16.217898
_cell_angle_alpha 90.000000
_cell_angle_beta 90.000000
_cell_angle_gamma 90.000000
_cell_volume 4270.473740
_symmetry_space_group_name_H-M "C C C M"
_symmetry_group_IT_number 66
_symmetry_cell_setting 'orthorhombic'
loop_
_space_group_symop_operation_xyz
x,y,z
-x,-y,z
x,-y,1/2-z
-x,y,1/2-z
-x,-y,-z
x,y,-z
-x,y,1/2+z
x,-y,1/2+z
1/2+x,1/2+y,z
1/2-x,1/2-y,z
1/2+x,1/2-y,1/2-z
1/2-x,1/2+y,1/2-z
1/2-x,1/2-y,-z
1/2+x,1/2+y,-z
1/2-x,1/2+y,1/2+z
1/2+x,1/2-y,1/2+z
loop_
_atom_site_type_symbol
_atom_site_label
_atom_site_fract_x
_atom_site_fract_y
_atom_site_fract_z
Si Si1 0.381605 0.572028 0.094048
Si Si2 0.843329 0.489248 0.401247
Si Si3 0.071599 0.392093 0.835694
Si Si4 0.334417 0.841216 0.912673
Si Si5 0.760424 0.692476 0.761463
Si Si6 0.500000 0.620209 0.750000
O O1 0.272087 0.529410 0.120561
O O2 0.296531 0.623663 0.086205
O O3 0.481414 0.584808 0.168969
O O4 0.432293 0.560305 0.000000
O O5 0.841665 0.486709 0.500000
O O6 0.823503 0.434287 0.362368
O O7 0.000000 0.500000 0.377148
O O8 0.141228 0.338957 0.819271
O O9 0.000000 0.407073 0.750000
O O10 0.955977 0.381165 0.901703
O O11 0.323634 0.808252 0.830780
O O12 0.348034 0.814019 0.000000
O O13 0.750000 0.750000 0.788351
O O14 0.626284 0.658405 0.758876
#
# Coordination Sequence:
#
# PCOD9495572 Si02
#       6
#    16  16  16  16  16   8
#     4   9  18  36  62  93 127 165 204 248 309 373
#     4  10  18  33  61  93 125 156 194 254 313 361
#     4  10  20  34  55  92 123 153 197 255 305 362
#     4   9  17  34  60  90 120 149 197 259 309 360
#     4  10  23  39  61  84 117 164 211 256 311 365
#     4  10  22  42  61  88 128 170 211 258 304 378
#
# _framework density 20.606612999999999
#
# number of rings (size 3 to 8) (size 9 to 14) (size 15 to 20)
#    0.000    2.364    1.818    0.545    3.818    0.727 
#    0.000    3.636    0.000    4.909    0.000    3.818 
#    0.000    0.727    0.000    0.000    0.000    0.000 
#
# Total GULP energy -245311.700408 kJ/mol
# GULP energy per Si atom -5575.265918 kJ/mol
# Density = 2.055971 g / cm^3
# Si number density = 20.606613 Si / 1000 Ang^3
#
#
#
# Elastic Constant Matrix: (Units=GPa)
#
#
# Indices 1 2 3 4 5 6 
#
# 1 69.1398 22.9104 43.8168 0.0000 0.0000 0.0000
# 2 22.9104 104.6034 37.1199 0.0000 0.0000 0.0000
# 3 43.8168 37.1199 87.5353 0.0000 0.0000 0.0000
# 4 0.0000 0.0000 0.0000 -38.6039 0.0000 0.0000
# 5 0.0000 0.0000 0.0000 0.0000 12.3234 0.0000
# 6 0.0000 0.0000 0.0000 0.0000 0.0000 26.2997
#
#
#
# Elastic Compliance Matrix: (Units=1/GPa)
#
#
# Indices 1 2 3 4 5 6 
#
# 1 0.021278 -0.001037 -0.010212 0.000000 0.000000 0.000000
# 2 -0.001037 0.011304 -0.004275 0.000000 0.000000 0.000000
# 3 -0.010212 -0.004275 0.018348 0.000000 0.000000 0.000000
# 4 0.000000 0.000000 0.000000 -0.025904 0.000000 0.000000
# 5 0.000000 0.000000 0.000000 0.000000 0.081147 0.000000
# 6 0.000000 0.000000 0.000000 0.000000 0.000000 0.038023
#
#
# Mechanical properties :
#
#
# Convention : Reuss Voigt Hill
#
# Bulk Modulus (GPa) = 50.28960 52.10806 51.19883
# Shear Modulus (GPa) = 27.49215 10.49927 18.99571
#
# Velocity S-wave (km/s) = 3.65655 2.25968 3.03945
# Velocity P-wave (km/s) = 6.50267 5.67011 6.10061
#
# Compressibility (1/GPa) = 0.01988483
#
# Stress axis : x y z
#
# Youngs Moduli (GPa) = 46.99586 88.46542 54.50159
#
# Poissons Ratio (x) = 0.09172 0.55655
# Poissons Ratio (y) = 0.04872 0.23297
# Poissons Ratio (z) = 0.47990 0.37815
#
# Static dielectric constant tensor:
#      x y z
#    x 1.799040 0.000000 0.000000 
#    y 0.000000 1.758600 0.000000 
#    z 0.000000 0.000000 1.778920 
# 
# From -- ./inp_files/37209.got.cif
#   From: 2010.05.17/outbox.cif.g08.bks.cpg/sg66_19_cif.got.tgz:37209.got - 2010.06.03 17:51:23.
