data_PCOD9495828
_publ_section_title
;
Structure prediction by ZEFSAII (Michael W. Deem and Ramdas Pophale) SiO2 
 PCOD9495828
Probable space group: C C C M
;
_chemical_formula_sum "Si O2"
_cell_formula_units_Z 80
_cell_length_a 18.066014
_cell_length_b 19.358570
_cell_length_c 14.601546
_cell_angle_alpha 90.000000
_cell_angle_beta 90.000000
_cell_angle_gamma 90.000000
_cell_volume 5106.630757
_symmetry_space_group_name_H-M "C C C M"
_symmetry_group_IT_number 66
_symmetry_cell_setting 'orthorhombic'
loop_
_space_group_symop_operation_xyz
x,y,z
-x,-y,z
x,-y,1/2-z
-x,y,1/2-z
-x,-y,-z
x,y,-z
-x,y,1/2+z
x,-y,1/2+z
1/2+x,1/2+y,z
1/2-x,1/2-y,z
1/2+x,1/2-y,1/2-z
1/2-x,1/2+y,1/2-z
1/2-x,1/2-y,-z
1/2+x,1/2+y,-z
1/2-x,1/2+y,1/2+z
1/2+x,1/2-y,1/2+z
loop_
_atom_site_type_symbol
_atom_site_label
_atom_site_fract_x
_atom_site_fract_y
_atom_site_fract_z
Si Si1 0.166464 0.642843 0.895541
Si Si2 0.087700 0.740812 0.750000
Si Si3 0.085833 0.500001 0.860501
Si Si4 0.718616 0.671457 0.750003
Si Si5 0.166463 0.357159 0.895542
O O1 0.115538 0.696131 0.837744
O O2 0.126467 0.568984 0.892870
O O3 0.243503 0.638270 0.839152
O O4 0.177338 0.665170 0.000000
O O5 0.131663 0.813688 0.749997
O O6 0.115537 0.696127 0.662260
O O7 0.000000 0.747297 0.750000
O O8 0.088103 0.500000 0.750000
O O9 0.126469 0.431019 0.892872
O O10 0.000000 0.500000 0.888429
O O11 0.750000 0.750000 0.750003
O O12 0.756496 0.638269 0.839156
O O13 0.177333 0.334829 0.000000
#
# Coordination Sequence:
#
# PCOD9495828 Si02
#       5
#    16  16  16  16  16
#     4  10  19  31  47  67  93 125 153 180 219 267
#     4  10  20  32  46  67  92 119 154 193 226 262
#     4  11  19  29  45  68  99 124 146 178 218 269
#     4   8  18  32  46  63  88 121 155 191 218 264
#     4  10  19  31  47  67  93 125 153 180 219 267
#
# _framework density 15.665906
#
# number of rings (size 3 to 8) (size 9 to 14) (size 15 to 20)
#    0.000    2.600    4.000    1.800    0.000   11.200 
#    0.000    0.000    0.000    0.000    0.000    2.800 
#    0.000    3.200    0.000    0.000    0.000    0.000 
#
# Total GULP energy -222768.614240 kJ/mol
# GULP energy per Si atom -5569.215356 kJ/mol
# Density = 1.563025 g / cm^3
# Si number density = 15.665906 Si / 1000 Ang^3
#
#
#
# Elastic Constant Matrix: (Units=GPa)
#
#
# Indices 1 2 3 4 5 6 
#
# 1 131.7051 44.7509 50.3875 0.0000 0.0000 0.0000
# 2 44.7509 52.4776 20.7714 0.0000 0.0000 0.0000
# 3 50.3875 20.7714 149.7556 0.0000 0.0000 0.0000
# 4 0.0000 0.0000 0.0000 -21.2842 0.0000 0.0000
# 5 0.0000 0.0000 0.0000 0.0000 -4.4324 0.0000
# 6 0.0000 0.0000 0.0000 0.0000 0.0000 28.2285
#
#
#
# Elastic Compliance Matrix: (Units=1/GPa)
#
#
# Indices 1 2 3 4 5 6 
#
# 1 0.011628 -0.008853 -0.002684 0.000000 0.000000 0.000000
# 2 -0.008853 0.026903 -0.000753 0.000000 0.000000 0.000000
# 3 -0.002684 -0.000753 0.007685 0.000000 0.000000 0.000000
# 4 0.000000 0.000000 0.000000 -0.046983 0.000000 0.000000
# 5 0.000000 0.000000 0.000000 0.000000 -0.225613 0.000000
# 6 0.000000 0.000000 0.000000 0.000000 0.000000 0.035425
#
#
# Mechanical properties :
#
#
# Convention : Reuss Voigt Hill
#
# Bulk Modulus (GPa) = 46.22005 62.86197 54.54101
# Shear Modulus (GPa) = -31.41463 15.03762 -8.18851
#
# Velocity S-wave (km/s) = -4.48290 3.10158 -2.28873
# Velocity P-wave (km/s) = 1.66507 7.28286 5.28264
#
# Compressibility (1/GPa) = 0.02163563
#
# Stress axis : x y z
#
# Youngs Moduli (GPa) = 86.00003 37.16993 130.12087
#
# Poissons Ratio (x) = 0.32908 0.34930
# Poissons Ratio (y) = 0.76138 0.09795
# Poissons Ratio (z) = 0.23086 0.02798
#
# Static dielectric constant tensor:
#      x y z
#    x 1.561230 0.000000 0.000000 
#    y 0.000000 1.517190 0.000000 
#    z 0.000000 0.000000 1.572920 
# 
# From -- ./inp_files/29931.got.cif
#   From: 2010.05.17/outbox.cif.g08.bks.cpg/sg66_15_cif.got.tgz:29931.got - 2010.06.03 17:51:23.
