data_PCOD9495437
_publ_section_title
;
Structure prediction by ZEFSAII (Michael W. Deem and Ramdas Pophale) SiO2 
 PCOD9495437
Probable space group: C C C M
;
_chemical_formula_sum "Si O2"
_cell_formula_units_Z 80
_cell_length_a 27.509296
_cell_length_b 10.435755
_cell_length_c 14.265370
_cell_angle_alpha 90.000000
_cell_angle_beta 90.000000
_cell_angle_gamma 90.000000
_cell_volume 4095.306318
_symmetry_space_group_name_H-M "C C C M"
_symmetry_group_IT_number 66
_symmetry_cell_setting 'orthorhombic'
loop_
_space_group_symop_operation_xyz
x,y,z
-x,-y,z
x,-y,1/2-z
-x,y,1/2-z
-x,-y,-z
x,y,-z
-x,y,1/2+z
x,-y,1/2+z
1/2+x,1/2+y,z
1/2-x,1/2-y,z
1/2+x,1/2-y,1/2-z
1/2-x,1/2+y,1/2-z
1/2-x,1/2-y,-z
1/2+x,1/2+y,-z
1/2-x,1/2+y,1/2+z
1/2+x,1/2-y,1/2+z
loop_
_atom_site_type_symbol
_atom_site_label
_atom_site_fract_x
_atom_site_fract_y
_atom_site_fract_z
Si Si1 0.703288 0.041968 0.389052
Si Si2 0.343579 0.183756 0.272315
Si Si3 0.942488 0.781772 0.747244
Si Si4 0.058314 0.998292 0.102624
Si Si5 0.289972 0.365454 0.393862
O O1 0.696030 0.062088 0.500000
O O2 0.688163 0.156395 0.320534
O O3 0.670606 0.924592 0.348639
O O4 0.758592 0.992631 0.374774
O O5 0.400612 0.176670 0.249822
O O6 0.328212 0.319638 0.317203
O O7 0.930898 0.881769 0.830852
O O8 0.000000 0.746643 0.750000
O O9 0.933124 0.864173 0.653518
O O10 0.080357 0.009008 0.000000
O O11 0.000000 0.000000 0.095066
O O12 0.309656 0.371713 0.500000
O O13 0.250000 0.250000 0.393952
#
# Coordination Sequence:
#
# PCOD9495437 Si02
#       5
#    16  16  16  16  16
#     4   9  19  35  53  74 101 131 167 213 256 300
#     4  10  18  31  55  76  98 136 170 203 254 303
#     4   9  18  31  48  75 106 135 172 210 245 294
#     4   8  15  30  49  68  96 131 166 211 258 291
#     4   8  15  31  54  75  95 125 166 208 251 300
#
# _framework density 19.534559000000002
#
# number of rings (size 3 to 8) (size 9 to 14) (size 15 to 20)
#    0.000    3.200    0.000    3.000    0.000    2.400 
#    0.000   14.000    0.000   17.400    0.000    0.000 
#    0.000    0.000    0.000    0.000    0.000    0.000 
#
# Total GULP energy -222700.465988 kJ/mol
# GULP energy per Si atom -5567.511650 kJ/mol
# Density = 1.949010 g / cm^3
# Si number density = 19.534559 Si / 1000 Ang^3
#
#
#
# Elastic Constant Matrix: (Units=GPa)
#
#
# Indices 1 2 3 4 5 6 
#
# 1 99.5284 31.6466 39.8942 0.0000 0.0000 0.0000
# 2 31.6466 28.1489 24.8889 0.0000 0.0000 0.0000
# 3 39.8942 24.8889 131.1617 0.0000 0.0000 0.0000
# 4 0.0000 0.0000 0.0000 -41.7275 0.0000 0.0000
# 5 0.0000 0.0000 0.0000 0.0000 8.1590 0.0000
# 6 0.0000 0.0000 0.0000 0.0000 0.0000 20.9058
#
#
#
# Elastic Compliance Matrix: (Units=1/GPa)
#
#
# Indices 1 2 3 4 5 6 
#
# 1 0.015962 -0.016405 -0.001742 0.000000 0.000000 0.000000
# 2 -0.016405 0.059548 -0.006310 0.000000 0.000000 0.000000
# 3 -0.001742 -0.006310 0.009351 0.000000 0.000000 0.000000
# 4 0.000000 0.000000 0.000000 -0.023965 0.000000 0.000000
# 5 0.000000 0.000000 0.000000 0.000000 0.122565 0.000000
# 6 0.000000 0.000000 0.000000 0.000000 0.000000 0.047834
#
#
# Mechanical properties :
#
#
# Convention : Reuss Voigt Hill
#
# Bulk Modulus (GPa) = 27.81841 50.18870 39.00356
# Shear Modulus (GPa) = 17.11211 8.29473 12.70342
#
# Velocity S-wave (km/s) = 2.96293 2.06286 2.55287
# Velocity P-wave (km/s) = 5.09674 5.60552 5.35718
#
# Compressibility (1/GPa) = 0.03594741
#
# Stress axis : x y z
#
# Youngs Moduli (GPa) = 62.64939 16.79318 106.93613
#
# Poissons Ratio (x) = 0.27549 0.18628
# Poissons Ratio (y) = 1.02776 0.67476
# Poissons Ratio (z) = 0.10913 0.10596
#
# Static dielectric constant tensor:
#      x y z
#    x 1.744070 0.000000 0.000000 
#    y 0.000000 1.728260 0.000000 
#    z 0.000000 0.000000 1.745530 
# 
# From -- ./inp_files/26697.got.cif
#   From: 2010.05.17/outbox.cif.g08.bks.cpg/sg66_14_cif.got.tgz:26697.got - 2010.06.03 17:51:23.
