data_PCOD9495862
_publ_section_title
;
Structure prediction by ZEFSAII (Michael W. Deem and Ramdas Pophale) SiO2 
 PCOD9495862
Probable space group: C C C M
;
_chemical_formula_sum "Si O2"
_cell_formula_units_Z 112
_cell_length_a 21.929081
_cell_length_b 17.457225
_cell_length_c 11.417104
_cell_angle_alpha 90.000000
_cell_angle_beta 90.000000
_cell_angle_gamma 90.000000
_cell_volume 4370.706041
_symmetry_space_group_name_H-M "C C C M"
_symmetry_group_IT_number 66
_symmetry_cell_setting 'orthorhombic'
loop_
_space_group_symop_operation_xyz
x,y,z
-x,-y,z
x,-y,1/2-z
-x,y,1/2-z
-x,-y,-z
x,y,-z
-x,y,1/2+z
x,-y,1/2+z
1/2+x,1/2+y,z
1/2-x,1/2-y,z
1/2+x,1/2-y,1/2-z
1/2-x,1/2+y,1/2-z
1/2-x,1/2-y,-z
1/2+x,1/2+y,-z
1/2-x,1/2+y,1/2+z
1/2+x,1/2-y,1/2+z
loop_
_atom_site_type_symbol
_atom_site_label
_atom_site_fract_x
_atom_site_fract_y
_atom_site_fract_z
Si Si1 0.329422 0.844084 0.127244
Si Si2 0.121866 0.492673 0.874019
Si Si3 0.974682 0.678933 0.626877
Si Si4 0.697698 0.531515 0.125688
Si Si5 0.793228 0.657348 0.874427
Si Si6 0.422780 0.604841 0.372723
Si Si7 0.552667 0.647686 0.374416
O O1 0.329397 0.937245 0.130778
O O2 0.401993 0.829919 0.127991
O O3 0.303072 0.808244 0.245889
O O4 0.305452 0.818995 0.000000
O O5 0.087548 0.500000 0.750000
O O6 0.157586 0.412608 0.876043
O O7 0.089685 0.501447 0.000000
O O8 0.998541 0.650220 0.500000
O O9 0.982325 0.770629 0.626324
O O10 0.000000 0.648864 0.750000
O O11 0.717252 0.500000 0.250000
O O12 0.727563 0.616152 0.123859
O O13 0.624380 0.535213 0.126463
O O14 0.715398 0.496043 0.000000
O O15 0.802202 0.698308 0.000000
O O16 0.410664 0.643889 0.500000
O O17 0.495205 0.590152 0.372949
O O18 0.410723 0.643398 0.246152
O O19 0.585528 0.642122 0.500000
#
# Coordination Sequence:
#
# PCOD9495862 Si02
#       7
#    16  16  16  16  16  16  16
#     4   9  17  28  45  71  98 124 159 203 247 290
#     4   8  13  23  40  60  85 118 150 181 221 270
#     4  10  19  31  50  75  98 121 160 210 254 298
#     4  10  20  32  49  76 106 134 166 202 239 285
#     4   9  17  30  48  70  97 130 166 198 234 288
#     4   9  17  31  51  73  98 128 163 202 245 294
#     4   9  17  32  52  71  91 123 165 205 251 300
#
# _framework density 25.625150000000001
#
# number of rings (size 3 to 8) (size 9 to 14) (size 15 to 20)
#    0.000    2.857    1.429    1.286    0.000    2.857 
#    0.000    1.429    0.000   12.429    0.000   29.000 
#    0.000    0.000    0.000    0.000    0.000    0.000 
#
# Total GULP energy -311793.087870 kJ/mol
# GULP energy per Si atom -5567.733712 kJ/mol
# Density = 2.556683 g / cm^3
# Si number density = 25.625150 Si / 1000 Ang^3
#
#
#
# Elastic Constant Matrix: (Units=GPa)
#
#
# Indices 1 2 3 4 5 6 
#
# 1 45.8375 21.4638 40.0702 0.0000 0.0000 0.0000
# 2 21.4638 40.8950 15.4147 0.0000 0.0000 0.0000
# 3 40.0702 15.4147 400.5970 0.0000 0.0000 0.0000
# 4 0.0000 0.0000 0.0000 -24.4749 0.0000 0.0000
# 5 0.0000 0.0000 0.0000 0.0000 24.5988 0.0000
# 6 0.0000 0.0000 0.0000 0.0000 0.0000 37.8131
#
#
#
# Elastic Compliance Matrix: (Units=1/GPa)
#
#
# Indices 1 2 3 4 5 6 
#
# 1 0.031268 -0.015456 -0.002533 0.000000 0.000000 0.000000
# 2 -0.015456 0.032453 0.000297 0.000000 0.000000 0.000000
# 3 -0.002533 0.000297 0.002738 0.000000 0.000000 0.000000
# 4 0.000000 0.000000 0.000000 -0.040858 0.000000 0.000000
# 5 0.000000 0.000000 0.000000 0.000000 0.040652 0.000000
# 6 0.000000 0.000000 0.000000 0.000000 0.000000 0.026446
#
#
# Mechanical properties :
#
#
# Convention : Reuss Voigt Hill
#
# Bulk Modulus (GPa) = 32.17978 71.24741 51.71359
# Shear Modulus (GPa) = 36.11630 34.94611 35.53120
#
# Velocity S-wave (km/s) = 3.75828 3.69690 3.72771
# Velocity P-wave (km/s) = 5.60518 6.78872 6.22514
#
# Compressibility (1/GPa) = 0.03107541
#
# Stress axis : x y z
#
# Youngs Moduli (GPa) = 31.98163 30.81368 365.20494
#
# Poissons Ratio (x) = 0.47627 0.92501
# Poissons Ratio (y) = 0.49432 -0.10856
# Poissons Ratio (z) = 0.08101 -0.00916
#
# Static dielectric constant tensor:
#      x y z
#    x 1.979680 0.000000 0.000000 
#    y 0.000000 2.123520 0.000000 
#    z 0.000000 0.000000 2.127540 
# 
# From -- ./inp_files/19084.got.cif
#   From: 2010.05.17/outbox.cif.g08.bks.cpg/sg66_10_cif.got.tgz:19084.got - 2010.06.03 17:51:23.
