data_PCOD9495899
_publ_section_title
;
Structure prediction by ZEFSAII (Michael W. Deem and Ramdas Pophale) SiO2 
 PCOD9495899
Probable space group: C C C M
;
_chemical_formula_sum "Si O2"
_cell_formula_units_Z 80
_cell_length_a 9.100661
_cell_length_b 15.047061
_cell_length_c 26.312943
_cell_angle_alpha 90.000000
_cell_angle_beta 90.000000
_cell_angle_gamma 90.000000
_cell_volume 3603.247083
_symmetry_space_group_name_H-M "C C C M"
_symmetry_group_IT_number 66
_symmetry_cell_setting 'orthorhombic'
loop_
_space_group_symop_operation_xyz
x,y,z
-x,-y,z
x,-y,1/2-z
-x,y,1/2-z
-x,-y,-z
x,y,-z
-x,y,1/2+z
x,-y,1/2+z
1/2+x,1/2+y,z
1/2-x,1/2-y,z
1/2+x,1/2-y,1/2-z
1/2-x,1/2+y,1/2-z
1/2-x,1/2-y,-z
1/2+x,1/2+y,-z
1/2-x,1/2+y,1/2+z
1/2+x,1/2-y,1/2+z
loop_
_atom_site_type_symbol
_atom_site_label
_atom_site_fract_x
_atom_site_fract_y
_atom_site_fract_z
Si Si1 0.093471 0.145224 0.099881
Si Si2 0.422107 0.146059 0.097379
Si Si3 0.417368 0.859055 0.801693
Si Si4 0.865948 0.662475 0.500000
Si Si5 0.071266 0.905921 0.000000
Si Si6 0.579580 0.641032 0.301805
O O1 0.257386 0.108495 0.089461
O O2 0.103896 0.250198 0.109169
O O3 0.012117 0.108696 0.149493
O O4 0.990577 0.138504 0.050761
O O5 0.500106 0.109134 0.147591
O O6 0.530244 0.149659 0.048936
O O7 0.500000 0.885183 0.750000
O O8 0.416788 0.750039 0.802597
O O9 0.248368 0.888363 0.802609
O O10 0.750000 0.750000 0.500000
O O11 0.744628 0.586611 0.500000
O O12 0.000000 0.000000 0.000000
O O13 0.500000 0.614760 0.250000
#
# Coordination Sequence:
#
# PCOD9495899 Si02
#       6
#    16  16  16   8   8  16
#     4  10  19  34  52  78 109 141 181 223 276 323
#     4  10  19  31  55  80 107 139 182 229 268 327
#     4   9  16  25  41  73 112 143 172 214 277 326
#     4  12  21  35  57  81 104 140 189 232 276 329
#     4  12  25  39  55  77 110 143 179 226 279 334
#     4   9  16  26  45  71 107 143 176 218 267 325
#
# _framework density 22.202197000000002
#
# number of rings (size 3 to 8) (size 9 to 14) (size 15 to 20)
#    0.000    2.000    2.000    3.000    2.800    6.400 
#    0.000    2.000    0.000    0.600    0.000    0.000 
#    0.000    1.600    0.000    0.000    0.000    0.000 
#
# Total GULP energy -223231.739376 kJ/mol
# GULP energy per Si atom -5580.793484 kJ/mol
# Density = 2.215166 g / cm^3
# Si number density = 22.202197 Si / 1000 Ang^3
#
#
#
# Elastic Constant Matrix: (Units=GPa)
#
#
# Indices 1 2 3 4 5 6 
#
# 1 247.7240 5.2688 135.3535 0.0000 0.0000 0.0000
# 2 5.2688 27.9798 -4.4529 0.0000 0.0000 0.0000
# 3 135.3535 -4.4529 228.5952 0.0000 0.0000 0.0000
# 4 0.0000 0.0000 0.0000 -14.4968 0.0000 0.0000
# 5 0.0000 0.0000 0.0000 0.0000 39.2786 0.0000
# 6 0.0000 0.0000 0.0000 0.0000 0.0000 6.9107
#
#
#
# Elastic Compliance Matrix: (Units=1/GPa)
#
#
# Indices 1 2 3 4 5 6 
#
# 1 0.006048 -0.001714 -0.003615 0.000000 0.000000 0.000000
# 2 -0.001714 0.036337 0.001723 0.000000 0.000000 0.000000
# 3 -0.003615 0.001723 0.006548 0.000000 0.000000 0.000000
# 4 0.000000 0.000000 0.000000 -0.068981 0.000000 0.000000
# 5 0.000000 0.000000 0.000000 0.000000 0.025459 0.000000
# 6 0.000000 0.000000 0.000000 0.000000 0.000000 0.144703
#
#
# Mechanical properties :
#
#
# Convention : Reuss Voigt Hill
#
# Bulk Modulus (GPa) = 23.96835 86.29308 55.13072
# Shear Modulus (GPa) = 29.19981 30.88048 30.04015
#
# Velocity S-wave (km/s) = 3.63047 3.73349 3.68234
# Velocity P-wave (km/s) = 5.32848 7.58528 6.55474
#
# Compressibility (1/GPa) = 0.04172168
#
# Stress axis : x y z
#
# Youngs Moduli (GPa) = 165.33926 27.52012 152.71069
#
# Poissons Ratio (x) = 0.04717 0.55198
# Poissons Ratio (y) = 0.28342 -0.26309
# Poissons Ratio (z) = 0.59763 -0.04741
#
# Static dielectric constant tensor:
#      x y z
#    x 1.816500 0.000000 0.000000 
#    y 0.000000 1.848370 0.000000 
#    z 0.000000 0.000000 1.791290 
# 
# From -- ./inp_files/55389.got.cif
#   From: 2010.05.17/outbox.cif.g08.bks.cpg/sg66_28_cif.got.tgz:55389.got - 2010.06.03 17:51:23.
