data_PCOD9495609
_publ_section_title
;
Structure prediction by ZEFSAII (Michael W. Deem and Ramdas Pophale) SiO2 
 PCOD9495609
Probable space group: C C C M
;
_chemical_formula_sum "Si O2"
_cell_formula_units_Z 80
_cell_length_a 11.451626
_cell_length_b 14.973967
_cell_length_c 23.646939
_cell_angle_alpha 90.000000
_cell_angle_beta 90.000000
_cell_angle_gamma 90.000000
_cell_volume 4054.888892
_symmetry_space_group_name_H-M "C C C M"
_symmetry_group_IT_number 66
_symmetry_cell_setting 'orthorhombic'
loop_
_space_group_symop_operation_xyz
x,y,z
-x,-y,z
x,-y,1/2-z
-x,y,1/2-z
-x,-y,-z
x,y,-z
-x,y,1/2+z
x,-y,1/2+z
1/2+x,1/2+y,z
1/2-x,1/2-y,z
1/2+x,1/2-y,1/2-z
1/2-x,1/2+y,1/2-z
1/2-x,1/2-y,-z
1/2+x,1/2+y,-z
1/2-x,1/2+y,1/2+z
1/2+x,1/2-y,1/2+z
loop_
_atom_site_type_symbol
_atom_site_label
_atom_site_fract_x
_atom_site_fract_y
_atom_site_fract_z
Si Si1 0.919922 0.725477 0.693378
Si Si2 0.217872 0.852639 0.565883
Si Si3 0.243156 0.395827 0.236541
Si Si4 0.930693 0.407901 0.630735
Si Si5 0.462663 0.603084 0.663221
O O1 0.807950 0.668090 0.714836
O O2 0.000000 0.718446 0.750000
O O3 0.976299 0.670424 0.640988
O O4 0.931546 0.827425 0.671121
O O5 0.188041 0.858682 0.500000
O O6 0.250000 0.750000 0.580415
O O7 0.339452 0.903185 0.579402
O O8 0.111363 0.884395 0.605452
O O9 0.251008 0.500000 0.250000
O O10 0.153784 0.394823 0.184410
O O11 0.367948 0.369751 0.211105
O O12 0.000000 0.500000 0.633021
O O13 0.500000 0.500000 0.669648
#
# Coordination Sequence:
#
# PCOD9495609 Si02
#       5
#    16  16  16  16  16
#     4  10  21  35  57  85 123 163 199 242 302 355
#     4  10  21  40  65  90 119 159 215 275 316 363
#     4  10  21  36  58  85 122 165 204 248 298 365
#     4  10  18  34  59  91 117 157 208 251 303 367
#     4  11  25  42  58  90 126 165 214 250 307 381
#
# _framework density 19.72927
#
# number of rings (size 3 to 8) (size 9 to 14) (size 15 to 20)
#    0.000    1.800    4.000    0.000    2.800    0.800 
#    0.000    0.000    0.000    0.000    0.000    1.400 
#    0.000    0.000    0.000    0.000    0.000    0.000 
#
# Total GULP energy -223039.455249 kJ/mol
# GULP energy per Si atom -5575.986381 kJ/mol
# Density = 1.968437 g / cm^3
# Si number density = 19.729270 Si / 1000 Ang^3
#
#
#
# Elastic Constant Matrix: (Units=GPa)
#
#
# Indices 1 2 3 4 5 6 
#
# 1 118.6070 61.6827 40.5691 0.0000 0.0000 0.0000
# 2 61.6827 132.5023 26.0547 0.0000 0.0000 0.0000
# 3 40.5691 26.0547 66.6131 0.0000 0.0000 0.0000
# 4 0.0000 0.0000 0.0000 19.5075 0.0000 0.0000
# 5 0.0000 0.0000 0.0000 0.0000 9.9389 0.0000
# 6 0.0000 0.0000 0.0000 0.0000 0.0000 38.7039
#
#
#
# Elastic Compliance Matrix: (Units=1/GPa)
#
#
# Indices 1 2 3 4 5 6 
#
# 1 0.013031 -0.004881 -0.006027 0.000000 0.000000 0.000000
# 2 -0.004881 0.010004 -0.000940 0.000000 0.000000 0.000000
# 3 -0.006027 -0.000940 0.019051 0.000000 0.000000 0.000000
# 4 0.000000 0.000000 0.000000 0.051262 0.000000 0.000000
# 5 0.000000 0.000000 0.000000 0.000000 0.100615 0.000000
# 6 0.000000 0.000000 0.000000 0.000000 0.000000 0.025837
#
#
# Mechanical properties :
#
#
# Convention : Reuss Voigt Hill
#
# Bulk Modulus (GPa) = 54.38084 63.81505 59.09795
# Shear Modulus (GPa) = 20.02988 26.25778 23.14383
#
# Velocity S-wave (km/s) = 3.18973 3.65211 3.42873
# Velocity P-wave (km/s) = 6.41788 7.08516 6.75976
#
# Compressibility (1/GPa) = 0.01838883
#
# Stress axis : x y z
#
# Youngs Moduli (GPa) = 76.73841 99.95780 52.49196
#
# Poissons Ratio (x) = 0.48791 0.31638
# Poissons Ratio (y) = 0.37457 0.04935
# Poissons Ratio (z) = 0.46252 0.09398
#
# Static dielectric constant tensor:
#      x y z
#    x 1.764100 0.000000 0.000000 
#    y 0.000000 1.769930 0.000000 
#    z 0.000000 0.000000 1.686930 
# 
# From -- ./inp_files/56564.got.cif
#   From: 2010.05.17/outbox.cif.g08.bks.cpg/sg66_29_cif.got.tgz:56564.got - 2010.06.03 17:51:23.
