data_PCOD9495240
_publ_section_title
;
Structure prediction by ZEFSAII (Michael W. Deem and Ramdas Pophale) SiO2 
 PCOD9495240
Probable space group: C C C M
;
_chemical_formula_sum "Si O2"
_cell_formula_units_Z 96
_cell_length_a 26.676155
_cell_length_b 29.533277
_cell_length_c 8.945690
_cell_angle_alpha 90.000000
_cell_angle_beta 90.000000
_cell_angle_gamma 90.000000
_cell_volume 7047.721195
_symmetry_space_group_name_H-M "C C C M"
_symmetry_group_IT_number 66
_symmetry_cell_setting 'orthorhombic'
loop_
_space_group_symop_operation_xyz
x,y,z
-x,-y,z
x,-y,1/2-z
-x,y,1/2-z
-x,-y,-z
x,y,-z
-x,y,1/2+z
x,-y,1/2+z
1/2+x,1/2+y,z
1/2-x,1/2-y,z
1/2+x,1/2-y,1/2-z
1/2-x,1/2+y,1/2-z
1/2-x,1/2-y,-z
1/2+x,1/2+y,-z
1/2-x,1/2+y,1/2+z
1/2+x,1/2-y,1/2+z
loop_
_atom_site_type_symbol
_atom_site_label
_atom_site_fract_x
_atom_site_fract_y
_atom_site_fract_z
Si Si1 0.787490 0.546604 0.320177
Si Si2 0.553561 0.142815 0.678465
Si Si3 0.601753 0.953474 0.179333
Si Si4 0.248121 0.356008 0.321751
Si Si5 0.644640 0.196565 0.821956
Si Si6 0.197103 0.777280 0.327482
O O1 0.767710 0.500000 0.250000
O O2 0.791799 0.543078 0.500000
O O3 0.843039 0.552924 0.250826
O O4 0.755208 0.591074 0.284169
O O5 0.500000 0.152768 0.750000
O O6 0.551501 0.147263 0.500000
O O7 0.569443 0.090926 0.713491
O O8 0.596666 0.175116 0.743195
O O9 0.581315 0.000000 0.250000
O O10 0.606263 0.958108 0.000000
O O11 0.254932 0.351125 0.500000
O O12 0.193419 0.334520 0.286357
O O13 0.289706 0.326167 0.239463
O O14 0.658413 0.246647 0.764449
O O15 0.638193 0.196287 0.000000
O O16 0.182103 0.780062 0.500000
O O17 0.250000 0.750000 0.319891
#
# Coordination Sequence:
#
# PCOD9495240 Si02
#       6
#    16  16  16  16  16  16
#     4  10  18  28  42  61  83 109 139 170 207 250
#     4  11  23  35  47  62  79 103 136 174 217 260
#     4  10  20  32  46  60  76 100 133 174 217 259
#     4   9  17  28  43  62  83 108 135 165 204 248
#     4  10  18  31  47  61  82 106 131 167 209 252
#     4   9  17  27  42  64  85 104 130 163 201 244
#
# _framework density 13.621425
#
# number of rings (size 3 to 8) (size 9 to 14) (size 15 to 20)
#    0.000    2.167    1.667    3.500    0.000    6.333 
#    0.000    1.667    0.000    0.000    0.000    0.000 
#    0.000    0.000    0.000    0.000    0.000    0.833 
#
# Total GULP energy -267679.591558 kJ/mol
# GULP energy per Si atom -5576.658157 kJ/mol
# Density = 1.359042 g / cm^3
# Si number density = 13.621425 Si / 1000 Ang^3
#
#
#
# Elastic Constant Matrix: (Units=GPa)
#
#
# Indices 1 2 3 4 5 6 
#
# 1 49.6105 47.5479 34.5100 0.0000 0.0000 0.0000
# 2 47.5479 100.1603 48.2034 0.0000 0.0000 0.0000
# 3 34.5100 48.2034 58.1001 0.0000 0.0000 0.0000
# 4 0.0000 0.0000 0.0000 19.9052 0.0000 0.0000
# 5 0.0000 0.0000 0.0000 0.0000 15.7307 0.0000
# 6 0.0000 0.0000 0.0000 0.0000 0.0000 14.7405
#
#
#
# Elastic Compliance Matrix: (Units=1/GPa)
#
#
# Indices 1 2 3 4 5 6 
#
# 1 0.043168 -0.013572 -0.014381 0.000000 0.000000 0.000000
# 2 -0.013572 0.020887 -0.009268 0.000000 0.000000 0.000000
# 3 -0.014381 -0.009268 0.033443 0.000000 0.000000 0.000000
# 4 0.000000 0.000000 0.000000 0.050238 0.000000 0.000000
# 5 0.000000 0.000000 0.000000 0.000000 0.063570 0.000000
# 6 0.000000 0.000000 0.000000 0.000000 0.000000 0.067840
#
#
# Mechanical properties :
#
#
# Convention : Reuss Voigt Hill
#
# Bulk Modulus (GPa) = 43.37086 52.04370 47.70728
# Shear Modulus (GPa) = 13.83996 15.24926 14.54461
#
# Velocity S-wave (km/s) = 3.19100 3.34953 3.27123
# Velocity P-wave (km/s) = 6.74433 7.29721 7.02621
#
# Compressibility (1/GPa) = 0.02305696
#
# Stress axis : x y z
#
# Youngs Moduli (GPa) = 23.16528 47.87666 29.90182
#
# Poissons Ratio (x) = 0.64977 0.43001
# Poissons Ratio (y) = 0.31439 0.27713
# Poissons Ratio (z) = 0.33314 0.44372
#
# Static dielectric constant tensor:
#      x y z
#    x 1.409990 0.000000 0.000000 
#    y 0.000000 1.460250 0.000000 
#    z 0.000000 0.000000 1.453240 
# 
# From -- ./inp_files/9294.got.cif
#   From: 2010.05.17/outbox.cif.g08.bks.cpg/sg66_5_cif.got.tgz:9294.got - 2010.06.03 17:51:23.
