data_PCOD9495040
_publ_section_title
;
Structure prediction by ZEFSAII (Michael W. Deem and Ramdas Pophale) SiO2 
 PCOD9495040
Probable space group: C C C M
;
_chemical_formula_sum "Si O2"
_cell_formula_units_Z 72
_cell_length_a 9.104751
_cell_length_b 31.120060
_cell_length_c 14.271561
_cell_angle_alpha 90.000000
_cell_angle_beta 90.000000
_cell_angle_gamma 90.000000
_cell_volume 4043.709765
_symmetry_space_group_name_H-M "C C C M"
_symmetry_group_IT_number 66
_symmetry_cell_setting 'orthorhombic'
loop_
_space_group_symop_operation_xyz
x,y,z
-x,-y,z
x,-y,1/2-z
-x,y,1/2-z
-x,-y,-z
x,y,-z
-x,y,1/2+z
x,-y,1/2+z
1/2+x,1/2+y,z
1/2-x,1/2-y,z
1/2+x,1/2-y,1/2-z
1/2-x,1/2+y,1/2-z
1/2-x,1/2-y,-z
1/2+x,1/2+y,-z
1/2-x,1/2+y,1/2+z
1/2+x,1/2-y,1/2+z
loop_
_atom_site_type_symbol
_atom_site_label
_atom_site_fract_x
_atom_site_fract_y
_atom_site_fract_z
Si Si1 0.264752 0.302047 0.500000
Si Si2 0.339688 0.134442 0.798338
Si Si3 0.601850 0.043035 0.000000
Si Si4 0.531464 0.138255 0.500000
Si Si5 0.346327 0.293056 0.701950
Si Si6 0.671657 0.044658 0.784814
O O1 0.250000 0.250000 0.500000
O O2 0.350919 0.311048 0.595814
O O3 0.109490 0.328813 0.500000
O O4 0.500000 0.137909 0.750000
O O5 0.372420 0.141928 0.906962
O O6 0.236482 0.171312 0.761176
O O7 0.275762 0.088258 0.765291
O O8 0.679934 0.044299 0.102011
O O9 0.500000 0.000000 0.000000
O O10 0.520222 0.088725 0.000000
O O11 0.500000 0.283459 0.750000
O O12 0.250000 0.250000 0.700595
O O13 0.500000 0.043684 0.750000
O O14 0.739353 0.000000 0.750000
#
# Coordination Sequence:
#
# PCOD9495040 Si02
#       6
#     8  16   8   8  16  16
#     4  10  22  37  59  81 110 150 185 227 285 349
#     4  11  20  35  56  83 112 149 186 234 284 331
#     4  12  16  24  45  77 113 148 182 228 284 334
#     4  12  20  33  58  85 116 149 190 234 288 341
#     4  11  24  41  61  82 112 145 190 236 285 340
#     4  10  17  27  45  77 115 146 184 229 279 333
#
# _framework density 17.805433000000001
#
# number of rings (size 3 to 8) (size 9 to 14) (size 15 to 20)
#    0.000    1.111    8.889    0.667    3.111    0.889 
#    0.000    1.111    0.000    0.667    0.000    0.000 
#    0.000   10.667    0.000    0.000    0.000    0.000 
#
# Total GULP energy -200501.188209 kJ/mol
# GULP energy per Si atom -5569.477450 kJ/mol
# Density = 1.776491 g / cm^3
# Si number density = 17.805433 Si / 1000 Ang^3
#
#
#
# Elastic Constant Matrix: (Units=GPa)
#
#
# Indices 1 2 3 4 5 6 
#
# 1 51.3453 35.5190 44.8103 0.0000 0.0000 0.0000
# 2 35.5190 122.9897 41.3710 0.0000 0.0000 0.0000
# 3 44.8103 41.3710 212.5699 0.0000 0.0000 0.0000
# 4 0.0000 0.0000 0.0000 30.2581 0.0000 0.0000
# 5 0.0000 0.0000 0.0000 0.0000 7.6172 0.0000
# 6 0.0000 0.0000 0.0000 0.0000 0.0000 -23.5918
#
#
#
# Elastic Compliance Matrix: (Units=1/GPa)
#
#
# Indices 1 2 3 4 5 6 
#
# 1 0.028050 -0.006540 -0.004640 0.000000 0.000000 0.000000
# 2 -0.006540 0.010225 -0.000611 0.000000 0.000000 0.000000
# 3 -0.004640 -0.000611 0.005801 0.000000 0.000000 0.000000
# 4 0.000000 0.000000 0.000000 0.033049 0.000000 0.000000
# 5 0.000000 0.000000 0.000000 0.000000 0.131281 0.000000
# 6 0.000000 0.000000 0.000000 0.000000 0.000000 -0.042388
#
#
# Mechanical properties :
#
#
# Convention : Reuss Voigt Hill
#
# Bulk Modulus (GPa) = 48.79606 70.03394 59.41500
# Shear Modulus (GPa) = 25.45400 20.53700 22.99550
#
# Velocity S-wave (km/s) = 3.78506 3.39988 3.59763
# Velocity P-wave (km/s) = 6.82399 7.40476 7.12030
#
# Compressibility (1/GPa) = 0.02049346
#
# Stress axis : x y z
#
# Youngs Moduli (GPa) = 35.65118 97.79849 172.36962
#
# Poissons Ratio (x) = 0.63958 0.79982
# Poissons Ratio (y) = 0.23315 0.10539
# Poissons Ratio (z) = 0.16543 0.05980
#
# Static dielectric constant tensor:
#      x y z
#    x 1.603380 0.000000 0.000000 
#    y 0.000000 1.730340 0.000000 
#    z 0.000000 0.000000 1.662610 
# 
# From -- ./inp_files/24653.got.cif
#   From: 2010.05.17/outbox.cif.g08.bks.cpg/sg66_13_cif.got.tgz:24653.got - 2010.06.03 17:51:23.
