data_PCOD9495992
_publ_section_title
;
Structure prediction by ZEFSAII (Michael W. Deem and Ramdas Pophale) SiO2 
 PCOD9495992
Probable space group: C C C M
;
_chemical_formula_sum "Si O2"
_cell_formula_units_Z 80
_cell_length_a 12.051777
_cell_length_b 10.011267
_cell_length_c 28.013497
_cell_angle_alpha 90.000000
_cell_angle_beta 90.000000
_cell_angle_gamma 90.000000
_cell_volume 3379.928067
_symmetry_space_group_name_H-M "C C C M"
_symmetry_group_IT_number 66
_symmetry_cell_setting 'orthorhombic'
loop_
_space_group_symop_operation_xyz
x,y,z
-x,-y,z
x,-y,1/2-z
-x,y,1/2-z
-x,-y,-z
x,y,-z
-x,y,1/2+z
x,-y,1/2+z
1/2+x,1/2+y,z
1/2-x,1/2-y,z
1/2+x,1/2-y,1/2-z
1/2-x,1/2+y,1/2-z
1/2-x,1/2-y,-z
1/2+x,1/2+y,-z
1/2-x,1/2+y,1/2+z
1/2+x,1/2-y,1/2+z
loop_
_atom_site_type_symbol
_atom_site_label
_atom_site_fract_x
_atom_site_fract_y
_atom_site_fract_z
Si Si1 0.822098 0.445298 0.799572
Si Si2 0.419086 0.647083 0.202456
Si Si3 0.664856 0.950845 0.000000
Si Si4 0.940667 0.730914 0.500000
Si Si5 0.000000 0.500000 0.870668
Si Si6 0.995394 0.209981 0.599892
Si Si7 0.750000 0.750000 0.924168
O O1 0.861854 0.500000 0.750000
O O2 0.688820 0.448730 0.799454
O O3 0.866139 0.294465 0.798972
O O4 0.889890 0.524609 0.839399
O O5 0.500000 0.637350 0.250000
O O6 0.470182 0.640938 0.149226
O O7 0.725139 0.883674 0.955025
O O8 0.549647 0.865756 0.000000
O O9 0.652795 0.111951 0.000000
O O10 0.951959 0.822635 0.547882
O O11 0.028152 0.632830 0.898428
O O12 0.863024 0.211666 0.601073
#
# Coordination Sequence:
#
# PCOD9495992 Si02
#       7
#    16  16   8   8   8  16   8
#     4  10  20  37  59  80 111 152 193 232 279 338
#     4  10  22  37  55  84 119 150 187 236 288 342
#     4   8  14  26  46  80 111 139 184 235 273 317
#     4   9  16  30  52  77 109 145 186 233 275 325
#     4  10  19  33  56  82 110 142 185 233 278 334
#     4  10  19  32  53  82 114 146 185 231 283 331
#     4   9  16  26  46  78 116 144 178 225 276 332
#
# _framework density 23.669142999999998
#
# number of rings (size 3 to 8) (size 9 to 14) (size 15 to 20)
#    0.000    2.400    0.000    5.700    0.000    3.600 
#    0.000    0.000    0.000   10.800    0.000    0.000 
#    0.000   54.400    0.000    0.000    0.000    0.200 
#
# Total GULP energy -222855.751558 kJ/mol
# GULP energy per Si atom -5571.393789 kJ/mol
# Density = 2.361527 g / cm^3
# Si number density = 23.669143 Si / 1000 Ang^3
#
#
#
# Elastic Constant Matrix: (Units=GPa)
#
#
# Indices 1 2 3 4 5 6 
#
# 1 121.7543 11.7579 74.2857 0.0000 0.0000 0.0000
# 2 11.7579 53.5735 19.6849 0.0000 0.0000 0.0000
# 3 74.2857 19.6849 182.1880 0.0000 0.0000 0.0000
# 4 0.0000 0.0000 0.0000 115.2764 0.0000 0.0000
# 5 0.0000 0.0000 0.0000 0.0000 63.9805 0.0000
# 6 0.0000 0.0000 0.0000 0.0000 0.0000 27.5932
#
#
#
# Elastic Compliance Matrix: (Units=1/GPa)
#
#
# Indices 1 2 3 4 5 6 
#
# 1 0.010966 -0.000795 -0.004385 0.000000 0.000000 0.000000
# 2 -0.000795 0.019495 -0.001782 0.000000 0.000000 0.000000
# 3 -0.004385 -0.001782 0.007469 0.000000 0.000000 0.000000
# 4 0.000000 0.000000 0.000000 0.008675 0.000000 0.000000
# 5 0.000000 0.000000 0.000000 0.000000 0.015630 0.000000
# 6 0.000000 0.000000 0.000000 0.000000 0.000000 0.036241
#
#
# Mechanical properties :
#
#
# Convention : Reuss Voigt Hill
#
# Bulk Modulus (GPa) = 41.65797 63.21920 52.43858
# Shear Modulus (GPa) = 41.52731 58.15585 49.84158
#
# Velocity S-wave (km/s) = 4.19321 4.96222 4.59384
# Velocity P-wave (km/s) = 6.40955 7.72004 7.09512
#
# Compressibility (1/GPa) = 0.02400501
#
# Stress axis : x y z
#
# Youngs Moduli (GPa) = 91.19424 51.29433 133.87919
#
# Poissons Ratio (x) = 0.04080 0.58709
# Poissons Ratio (y) = 0.07253 0.23859
# Poissons Ratio (z) = 0.39991 0.09141
#
# Static dielectric constant tensor:
#      x y z
#    x 1.944240 0.000000 0.000000 
#    y 0.000000 1.856910 0.000000 
#    z 0.000000 0.000000 2.005980 
# 
# From -- ./inp_files/68824.got.cif
#   From: 2010.05.17/outbox.cif.g08.bks.cpg/sg66_35_cif.got.tgz:68824.got - 2010.06.03 17:51:23.
