data_PCOD9495691
_publ_section_title
;
Structure prediction by ZEFSAII (Michael W. Deem and Ramdas Pophale) SiO2 
 PCOD9495691
Probable space group: C C C M
;
_chemical_formula_sum "Si O2"
_cell_formula_units_Z 68
_cell_length_a 10.276880
_cell_length_b 19.748135
_cell_length_c 13.842360
_cell_angle_alpha 90.000000
_cell_angle_beta 90.000000
_cell_angle_gamma 90.000000
_cell_volume 2809.296077
_symmetry_space_group_name_H-M "C C C M"
_symmetry_group_IT_number 66
_symmetry_cell_setting 'orthorhombic'
loop_
_space_group_symop_operation_xyz
x,y,z
-x,-y,z
x,-y,1/2-z
-x,y,1/2-z
-x,-y,-z
x,y,-z
-x,y,1/2+z
x,-y,1/2+z
1/2+x,1/2+y,z
1/2-x,1/2-y,z
1/2+x,1/2-y,1/2-z
1/2-x,1/2+y,1/2-z
1/2-x,1/2-y,-z
1/2+x,1/2+y,-z
1/2-x,1/2+y,1/2+z
1/2+x,1/2-y,1/2+z
loop_
_atom_site_type_symbol
_atom_site_label
_atom_site_fract_x
_atom_site_fract_y
_atom_site_fract_z
Si Si1 0.747001 0.675930 0.389095
Si Si2 0.250000 0.250000 0.000000
Si Si3 0.955823 0.189965 0.349588
Si Si4 0.121775 0.048651 0.884335
Si Si5 0.871948 0.540342 0.617170
O O1 0.794929 0.684226 0.500000
O O2 0.750000 0.750000 0.342231
O O3 0.592287 0.662119 0.394036
O O4 0.834157 0.615508 0.346999
O O5 0.137102 0.234000 0.083390
O O6 0.881163 0.119549 0.329488
O O7 0.000000 0.223566 0.250000
O O8 0.249993 0.007154 0.862065
O O9 0.123052 0.064890 0.000000
O O10 0.000000 0.000000 0.865357
O O11 0.879426 0.546439 0.500000
O O12 0.000000 0.500000 0.647340
#
# Coordination Sequence:
#
# PCOD9495691 Si02
#       5
#    16   4  16  16  16
#     4  10  20  39  64  95 143 198 256 314 406 476
#     4  12  28  52  76 114 164 200 274 350 412 500
#     4  12  26  45  74 107 150 208 270 336 407 493
#     4  10  18  37  69  99 145 197 264 326 410 475
#     4   9  18  33  61  99 142 193 259 325 402 476
#
# _framework density 24.205352000000001
#
# number of rings (size 3 to 8) (size 9 to 14) (size 15 to 20)
#    0.000    1.647    4.706    0.000    1.647    2.353 
#    4.235    0.000    0.000    1.412    0.000    0.000 
#    0.000    0.000    0.000    0.000    0.000    0.000 
#
# Total GULP energy -189396.051538 kJ/mol
# GULP energy per Si atom -5570.472104 kJ/mol
# Density = 2.415026 g / cm^3
# Si number density = 24.205352 Si / 1000 Ang^3
#
#
#
# Elastic Constant Matrix: (Units=GPa)
#
#
# Indices 1 2 3 4 5 6 
#
# 1 194.6329 91.3029 32.1371 0.0000 0.0000 0.0000
# 2 91.3029 137.6832 17.2516 0.0000 0.0000 0.0000
# 3 32.1371 17.2516 127.8648 0.0000 0.0000 0.0000
# 4 0.0000 0.0000 0.0000 -173.0530 0.0000 0.0000
# 5 0.0000 0.0000 0.0000 0.0000 -118.9353 0.0000
# 6 0.0000 0.0000 0.0000 0.0000 0.0000 -30.9044
#
#
#
# Elastic Compliance Matrix: (Units=1/GPa)
#
#
# Indices 1 2 3 4 5 6 
#
# 1 0.007652 -0.004917 -0.001260 0.000000 0.000000 0.000000
# 2 -0.004917 0.010547 -0.000187 0.000000 0.000000 0.000000
# 3 -0.001260 -0.000187 0.008163 0.000000 0.000000 0.000000
# 4 0.000000 0.000000 0.000000 -0.005779 0.000000 0.000000
# 5 0.000000 0.000000 0.000000 0.000000 -0.008408 0.000000
# 6 0.000000 0.000000 0.000000 0.000000 0.000000 -0.032358
#
#
# Mechanical properties :
#
#
# Convention : Reuss Voigt Hill
#
# Bulk Modulus (GPa) = 73.34496 82.39600 77.87048
# Shear Modulus (GPa) = -1718.32867 -43.27925 -880.80396
#
# Velocity S-wave (km/s) = -26.67278 -4.23307 -19.09655
# Velocity P-wave (km/s) = 30.30208 3.19727 21.30720
#
# Compressibility (1/GPa) = 0.01363420
#
# Stress axis : x y z
#
# Youngs Moduli (GPa) = 130.67885 94.81410 122.50856
#
# Poissons Ratio (x) = 0.46617 0.15435
# Poissons Ratio (y) = 0.64251 0.02294
# Poissons Ratio (z) = 0.16465 0.01776
#
# Static dielectric constant tensor:
#      x y z
#    x 1.914070 0.000000 0.000000 
#    y 0.000000 1.909950 0.000000 
#    z 0.000000 0.000000 1.924790 
# 
# From -- ./inp_files/36528.got.cif
#   From: 2010.05.17/outbox.cif.g08.bks.cpg/sg66_19_cif.got.tgz:36528.got - 2010.06.03 17:51:23.
