data_PCOD9495234
_publ_section_title
;
Structure prediction by ZEFSAII (Michael W. Deem and Ramdas Pophale) SiO2 
 PCOD9495234
Probable space group: C C C M
;
_chemical_formula_sum "Si O2"
_cell_formula_units_Z 80
_cell_length_a 22.403782
_cell_length_b 9.415010
_cell_length_c 22.529434
_cell_angle_alpha 90.000000
_cell_angle_beta 90.000000
_cell_angle_gamma 90.000000
_cell_volume 4752.174778
_symmetry_space_group_name_H-M "C C C M"
_symmetry_group_IT_number 66
_symmetry_cell_setting 'orthorhombic'
loop_
_space_group_symop_operation_xyz
x,y,z
-x,-y,z
x,-y,1/2-z
-x,y,1/2-z
-x,-y,-z
x,y,-z
-x,y,1/2+z
x,-y,1/2+z
1/2+x,1/2+y,z
1/2-x,1/2-y,z
1/2+x,1/2-y,1/2-z
1/2-x,1/2+y,1/2-z
1/2-x,1/2-y,-z
1/2+x,1/2+y,-z
1/2-x,1/2+y,1/2+z
1/2+x,1/2-y,1/2+z
loop_
_atom_site_type_symbol
_atom_site_label
_atom_site_fract_x
_atom_site_fract_y
_atom_site_fract_z
Si Si1 0.497908 0.667105 0.565492
Si Si2 0.500000 0.000000 0.750000
Si Si3 0.679148 0.733675 0.895789
Si Si4 0.811109 0.987219 0.000000
Si Si5 0.170211 0.548443 0.500000
Si Si6 0.500000 0.500000 0.250000
Si Si7 0.933282 0.250834 0.679766
Si Si8 0.391930 0.246157 0.500000
O O1 0.500000 0.500000 0.578813
O O2 0.468889 0.681783 0.500000
O O3 0.465184 0.750361 0.615942
O O4 0.564875 0.721285 0.555508
O O5 0.543354 0.108829 0.713821
O O6 0.750000 0.750000 0.882379
O O7 0.671003 0.597619 0.939744
O O8 0.636366 0.736784 0.838484
O O9 0.661722 0.860618 0.940525
O O10 0.839658 0.140722 0.000000
O O11 0.739895 0.992389 0.000000
O O12 0.129707 0.412076 0.500000
O O13 0.541791 0.390698 0.287147
#
# Coordination Sequence:
#
# PCOD9495234 Si02
#       8
#    16   4  16   8   8   4  16   8
#     4   9  19  30  53  88 108 139 178 231 286 332
#     4  10  28  38  56  82 108 166 168 246 284 318
#     4   9  20  36  58  78 110 153 180 222 278 342
#     4   9  17  32  52  83 115 149 180 216 283 337
#     4   9  19  31  48  85 120 147 176 215 285 350
#     4  10  24  38  60  82  96 158 184 242 268 310
#     4  11  21  41  57  78 117 138 199 224 283 331
#     4  10  18  27  50  86 113 145 180 220 285 313
#
# _framework density 16.834398
#
# number of rings (size 3 to 8) (size 9 to 14) (size 15 to 20)
#    0.600    1.800    1.000    2.700    5.600    0.000 
#    0.000    2.500    0.000    0.000    0.000    0.000 
#    0.000    0.000    0.000    0.000    0.000    0.000 
#
# Total GULP energy -222694.812992 kJ/mol
# GULP energy per Si atom -5567.370325 kJ/mol
# Density = 1.679608 g / cm^3
# Si number density = 16.834398 Si / 1000 Ang^3
#
#
#
# Elastic Constant Matrix: (Units=GPa)
#
#
# Indices 1 2 3 4 5 6 
#
# 1 79.1779 45.0785 44.7518 0.0000 0.0000 0.0000
# 2 45.0785 98.4565 36.2586 0.0000 0.0000 0.0000
# 3 44.7518 36.2586 75.4205 0.0000 0.0000 0.0000
# 4 0.0000 0.0000 0.0000 25.3710 0.0000 0.0000
# 5 0.0000 0.0000 0.0000 0.0000 34.6880 0.0000
# 6 0.0000 0.0000 0.0000 0.0000 0.0000 27.4585
#
#
#
# Elastic Compliance Matrix: (Units=1/GPa)
#
#
# Indices 1 2 3 4 5 6 
#
# 1 0.021848 -0.006354 -0.009909 0.000000 0.000000 0.000000
# 2 -0.006354 0.014190 -0.003052 0.000000 0.000000 0.000000
# 3 -0.009909 -0.003052 0.020606 0.000000 0.000000 0.000000
# 4 0.000000 0.000000 0.000000 0.039415 0.000000 0.000000
# 5 0.000000 0.000000 0.000000 0.000000 0.028828 0.000000
# 6 0.000000 0.000000 0.000000 0.000000 0.000000 0.036419
#
#
# Mechanical properties :
#
#
# Convention : Reuss Voigt Hill
#
# Bulk Modulus (GPa) = 55.51164 56.13697 55.82430
# Shear Modulus (GPa) = 24.27899 25.96792 25.12346
#
# Velocity S-wave (km/s) = 3.80178 3.93179 3.86734
# Velocity P-wave (km/s) = 7.23313 7.35058 7.29209
#
# Compressibility (1/GPa) = 0.01801424
#
# Stress axis : x y z
#
# Youngs Moduli (GPa) = 45.77090 70.47360 48.53019
#
# Poissons Ratio (x) = 0.44778 0.48089
# Poissons Ratio (y) = 0.29082 0.14809
# Poissons Ratio (z) = 0.45355 0.21505
#
# Static dielectric constant tensor:
#      x y z
#    x 1.598130 0.000000 0.000000 
#    y 0.000000 1.829950 0.000000 
#    z 0.000000 0.000000 1.574430 
# 
# From -- ./inp_files/59365.got.cif
#   From: 2010.05.17/outbox.cif.g08.bks.cpg/sg66_30_cif.got.tgz:59365.got - 2010.06.03 17:51:23.
