data_PCOD9495563
_publ_section_title
;
Structure prediction by ZEFSAII (Michael W. Deem and Ramdas Pophale) SiO2 
 PCOD9495563
Probable space group: C C C M
;
_chemical_formula_sum "Si O2"
_cell_formula_units_Z 64
_cell_length_a 15.391194
_cell_length_b 8.316346
_cell_length_c 23.962268
_cell_angle_alpha 90.000000
_cell_angle_beta 90.000000
_cell_angle_gamma 90.000000
_cell_volume 3067.134233
_symmetry_space_group_name_H-M "C C C M"
_symmetry_group_IT_number 66
_symmetry_cell_setting 'orthorhombic'
loop_
_space_group_symop_operation_xyz
x,y,z
-x,-y,z
x,-y,1/2-z
-x,y,1/2-z
-x,-y,-z
x,y,-z
-x,y,1/2+z
x,-y,1/2+z
1/2+x,1/2+y,z
1/2-x,1/2-y,z
1/2+x,1/2-y,1/2-z
1/2-x,1/2+y,1/2-z
1/2-x,1/2-y,-z
1/2+x,1/2+y,-z
1/2-x,1/2+y,1/2+z
1/2+x,1/2-y,1/2+z
loop_
_atom_site_type_symbol
_atom_site_label
_atom_site_fract_x
_atom_site_fract_y
_atom_site_fract_z
Si Si1 0.013825 0.806828 0.000000
Si Si2 0.239225 0.558348 0.386788
Si Si3 0.910783 0.569134 0.312668
Si Si4 0.421132 0.625018 0.881824
Si Si5 0.669936 0.877083 0.000000
O O1 0.921915 0.713876 0.000000
O O2 0.060719 0.780663 0.059619
O O3 0.000000 0.000000 0.000000
O O4 0.250000 0.750000 0.380570
O O5 0.177703 0.493879 0.338913
O O6 0.332008 0.473165 0.388323
O O7 0.187052 0.526548 0.443943
O O8 0.910902 0.500000 0.250000
O O9 0.914958 0.756756 0.328779
O O10 0.000000 0.500000 0.338944
O O11 0.500000 0.500000 0.874319
O O12 0.750000 0.750000 0.000000
#
# Coordination Sequence:
#
# PCOD9495563 Si02
#       5
#     8  16  16  16   8
#     4  10  18  33  62  99 137 172 208 253 319 399
#     4  11  22  39  64  95 130 168 211 261 317 383
#     4  11  25  45  64  89 123 164 217 274 322 379
#     4  11  22  41  67  99 133 172 212 263 326 393
#     4  10  18  33  58  93 133 172 206 255 315 379
#
# _framework density 20.866382999999999
#
# number of rings (size 3 to 8) (size 9 to 14) (size 15 to 20)
#    0.000    1.250    0.000   10.500    0.000    3.000 
#    0.000   12.500    0.000    0.000    0.000    0.000 
#    0.000    0.000    0.000    0.000    0.000    0.000 
#
# Total GULP energy -178659.487833 kJ/mol
# GULP energy per Si atom -5583.108995 kJ/mol
# Density = 2.081889 g / cm^3
# Si number density = 20.866383 Si / 1000 Ang^3
#
#
#
# Elastic Constant Matrix: (Units=GPa)
#
#
# Indices 1 2 3 4 5 6 
#
# 1 212.4188 76.6214 65.4545 0.0000 0.0000 0.0000
# 2 76.6214 114.0188 57.7743 0.0000 0.0000 0.0000
# 3 65.4545 57.7743 129.2794 0.0000 0.0000 0.0000
# 4 0.0000 0.0000 0.0000 10.9977 0.0000 0.0000
# 5 0.0000 0.0000 0.0000 0.0000 5.6046 0.0000
# 6 0.0000 0.0000 0.0000 0.0000 0.0000 56.6828
#
#
#
# Elastic Compliance Matrix: (Units=1/GPa)
#
#
# Indices 1 2 3 4 5 6 
#
# 1 0.006500 -0.003491 -0.001731 0.000000 0.000000 0.000000
# 2 -0.003491 0.013213 -0.004137 0.000000 0.000000 0.000000
# 3 -0.001731 -0.004137 0.010460 0.000000 0.000000 0.000000
# 4 0.000000 0.000000 0.000000 0.090928 0.000000 0.000000
# 5 0.000000 0.000000 0.000000 0.000000 0.178423 0.000000
# 6 0.000000 0.000000 0.000000 0.000000 0.000000 0.017642
#
#
# Mechanical properties :
#
#
# Convention : Reuss Voigt Hill
#
# Bulk Modulus (GPa) = 87.29754 95.04639 91.17197
# Shear Modulus (GPa) = 14.71870 31.71483 23.21676
#
# Velocity S-wave (km/s) = 2.65878 3.90282 3.33924
# Velocity P-wave (km/s) = 7.16608 8.12147 7.65869
#
# Compressibility (1/GPa) = 0.01145508
#
# Stress axis : x y z
#
# Youngs Moduli (GPa) = 153.83759 75.68341 95.59812
#
# Poissons Ratio (x) = 0.26423 0.16548
# Poissons Ratio (y) = 0.53708 0.39551
# Poissons Ratio (z) = 0.26629 0.31312
#
# Static dielectric constant tensor:
#      x y z
#    x 1.782460 0.000000 0.000000 
#    y 0.000000 1.927140 0.000000 
#    z 0.000000 0.000000 1.665410 
# 
# From -- ./inp_files/57721.got.cif
#   From: 2010.05.17/outbox.cif.g08.bks.cpg/sg66_29_cif.got.tgz:57721.got - 2010.06.03 17:51:23.
