data_PCOD9495663
_publ_section_title
;
Structure prediction by ZEFSAII (Michael W. Deem and Ramdas Pophale) SiO2 
 PCOD9495663
Probable space group: C C C M
;
_chemical_formula_sum "Si O2"
_cell_formula_units_Z 68
_cell_length_a 23.080331
_cell_length_b 11.002745
_cell_length_c 16.708655
_cell_angle_alpha 90.000000
_cell_angle_beta 90.000000
_cell_angle_gamma 90.000000
_cell_volume 4243.112753
_symmetry_space_group_name_H-M "C C C M"
_symmetry_group_IT_number 66
_symmetry_cell_setting 'orthorhombic'
loop_
_space_group_symop_operation_xyz
x,y,z
-x,-y,z
x,-y,1/2-z
-x,y,1/2-z
-x,-y,-z
x,y,-z
-x,y,1/2+z
x,-y,1/2+z
1/2+x,1/2+y,z
1/2-x,1/2-y,z
1/2+x,1/2-y,1/2-z
1/2-x,1/2+y,1/2-z
1/2-x,1/2-y,-z
1/2+x,1/2+y,-z
1/2-x,1/2+y,1/2+z
1/2+x,1/2-y,1/2+z
loop_
_atom_site_type_symbol
_atom_site_label
_atom_site_fract_x
_atom_site_fract_y
_atom_site_fract_z
Si Si1 0.199797 0.925208 0.831930
Si Si2 0.158884 0.674582 0.500000
Si Si3 0.500000 0.000000 0.250000
Si Si4 0.832839 0.657606 0.686985
Si Si5 0.893526 0.579161 0.154633
Si Si6 0.284747 0.439170 0.000000
O O1 0.164067 0.799040 0.834581
O O2 0.267076 0.885833 0.823828
O O3 0.185699 0.000000 0.750000
O O4 0.197107 0.994856 0.916978
O O5 0.118633 0.651478 0.424374
O O6 0.214906 0.583963 0.500000
O O7 0.185763 0.807744 0.500000
O O8 0.543083 0.923250 0.193645
O O9 0.850686 0.635663 0.778876
O O10 0.874173 0.561558 0.641998
#
# Coordination Sequence:
#
# PCOD9495663 Si02
#       6
#    16   8   4  16  16   8
#     4  11  18  30  45  69 104 144 168 194 241 310
#     4  11  20  32  50  72 113 132 168 209 257 292
#     4   8  20  34  56  72  94 118 184 208 276 298
#     4   9  18  29  47  66 102 135 166 200 245 295
#     4  10  18  36  50  77  95 133 167 226 252 305
#     4  11  22  30  47  81 106 148 170 191 241 335
#
# _framework density 16.025970999999998
#
# number of rings (size 3 to 8) (size 9 to 14) (size 15 to 20)
#    0.000    2.118    4.706    1.412    0.000    7.059 
#    0.000    0.000    0.000    0.000    0.000   59.294 
#    0.000    0.000    0.000    0.000    0.000    0.000 
#
# Total GULP energy -189268.842712 kJ/mol
# GULP energy per Si atom -5566.730668 kJ/mol
# Density = 1.598950 g / cm^3
# Si number density = 16.025971 Si / 1000 Ang^3
#
#
#
# Elastic Constant Matrix: (Units=GPa)
#
#
# Indices 1 2 3 4 5 6 
#
# 1 64.6410 26.7194 33.6885 0.0000 0.0000 0.0000
# 2 26.7194 103.9936 53.1746 0.0000 0.0000 0.0000
# 3 33.6885 53.1746 128.8871 0.0000 0.0000 0.0000
# 4 0.0000 0.0000 0.0000 14.7883 0.0000 0.0000
# 5 0.0000 0.0000 0.0000 0.0000 2.1698 0.0000
# 6 0.0000 0.0000 0.0000 0.0000 0.0000 7.5056
#
#
#
# Elastic Compliance Matrix: (Units=1/GPa)
#
#
# Indices 1 2 3 4 5 6 
#
# 1 0.018576 -0.002902 -0.003658 0.000000 0.000000 0.000000
# 2 -0.002902 0.012640 -0.004456 0.000000 0.000000 0.000000
# 3 -0.003658 -0.004456 0.010553 0.000000 0.000000 0.000000
# 4 0.000000 0.000000 0.000000 0.067621 0.000000 0.000000
# 5 0.000000 0.000000 0.000000 0.000000 0.460883 0.000000
# 6 0.000000 0.000000 0.000000 0.000000 0.000000 0.133234
#
#
# Mechanical properties :
#
#
# Convention : Reuss Voigt Hill
#
# Bulk Modulus (GPa) = 50.66784 58.29853 54.48319
# Shear Modulus (GPa) = 6.82949 17.15534 11.99242
#
# Velocity S-wave (km/s) = 2.06658 3.27536 2.73850
# Velocity P-wave (km/s) = 6.11384 7.12464 6.63851
#
# Compressibility (1/GPa) = 0.01973639
#
# Stress axis : x y z
#
# Youngs Moduli (GPa) = 53.83239 79.11170 94.75618
#
# Poissons Ratio (x) = 0.22961 0.34662
# Poissons Ratio (y) = 0.15624 0.42227
# Poissons Ratio (z) = 0.19692 0.35255
#
# Static dielectric constant tensor:
#      x y z
#    x 1.521610 0.000000 0.000000 
#    y 0.000000 1.561300 0.000000 
#    z 0.000000 0.000000 1.559220 
# 
# From -- ./inp_files/43460.got.cif
#   From: 2010.05.17/outbox.cif.g08.bks.cpg/sg66_22_cif.got.tgz:43460.got - 2010.06.03 17:51:23.
