data_PCOD9495631
_publ_section_title
;
Structure prediction by ZEFSAII (Michael W. Deem and Ramdas Pophale) SiO2 
 PCOD9495631
Probable space group: C C C M
;
_chemical_formula_sum "Si O2"
_cell_formula_units_Z 96
_cell_length_a 15.244134
_cell_length_b 21.876307
_cell_length_c 14.449349
_cell_angle_alpha 90.000000
_cell_angle_beta 90.000000
_cell_angle_gamma 90.000000
_cell_volume 4818.646286
_symmetry_space_group_name_H-M "C C C M"
_symmetry_group_IT_number 66
_symmetry_cell_setting 'orthorhombic'
loop_
_space_group_symop_operation_xyz
x,y,z
-x,-y,z
x,-y,1/2-z
-x,y,1/2-z
-x,-y,-z
x,y,-z
-x,y,1/2+z
x,-y,1/2+z
1/2+x,1/2+y,z
1/2-x,1/2-y,z
1/2+x,1/2-y,1/2-z
1/2-x,1/2+y,1/2-z
1/2-x,1/2-y,-z
1/2+x,1/2+y,-z
1/2-x,1/2+y,1/2+z
1/2+x,1/2-y,1/2+z
loop_
_atom_site_type_symbol
_atom_site_label
_atom_site_fract_x
_atom_site_fract_y
_atom_site_fract_z
Si Si1 0.151391 0.223365 0.693669
Si Si2 0.411606 0.611395 0.303353
Si Si3 0.916688 0.356096 0.189191
Si Si4 0.866845 0.406710 0.000000
Si Si5 0.275940 0.964385 0.500000
Si Si6 0.298094 0.683979 0.000000
Si Si7 0.424939 0.551729 0.500000
Si Si8 0.222534 0.565272 0.708372
O O1 0.250000 0.250000 0.709375
O O2 0.115483 0.180681 0.775641
O O3 0.093221 0.283479 0.678786
O O4 0.151706 0.184197 0.597843
O O5 0.500000 0.595303 0.250000
O O6 0.427899 0.594651 0.409835
O O7 0.325810 0.573422 0.273381
O O8 0.919722 0.388154 0.090424
O O9 0.830749 0.382413 0.239821
O O10 0.000000 0.371674 0.250000
O O11 0.777550 0.366436 0.000000
O O12 0.835805 0.475946 0.000000
O O13 0.171699 0.979720 0.500000
O O14 0.291637 0.931096 0.597815
O O15 0.250000 0.750000 0.000000
O O16 0.500000 0.500000 0.500000
O O17 0.194285 0.500000 0.750000
#
# Coordination Sequence:
#
# PCOD9495631 Si02
#       8
#    16  16  16   8   8   8   8  16
#     4  11  20  42  67  99 135 172 220 273 338 402
#     4  11  25  41  67  99 134 176 220 276 344 410
#     4  12  25  41  66  96 131 174 221 278 329 392
#     4  12  20  41  65  95 123 170 222 277 335 377
#     4  10  24  41  64  90 130 170 215 273 329 404
#     4  10  18  34  70 100 121 161 221 280 327 388
#     4  10  26  44  62 100 139 172 224 275 340 422
#     4  11  23  42  64  93 130 172 220 268 340 401
#
# _framework density 19.922606999999999
#
# number of rings (size 3 to 8) (size 9 to 14) (size 15 to 20)
#    0.000    1.000    6.667    0.500    4.667    1.667 
#    0.000    4.583    0.000    0.000    0.000    0.000 
#    0.000    0.000    0.000    0.000    0.000    0.000 
#
# Total GULP energy -268143.410230 kJ/mol
# GULP energy per Si atom -5586.321046 kJ/mol
# Density = 1.987726 g / cm^3
# Si number density = 19.922607 Si / 1000 Ang^3
#
#
#
# Elastic Constant Matrix: (Units=GPa)
#
#
# Indices 1 2 3 4 5 6 
#
# 1 76.3736 11.1897 68.4894 0.0000 0.0000 0.0000
# 2 11.1897 51.6721 32.5394 0.0000 0.0000 0.0000
# 3 68.4894 32.5394 155.8623 0.0000 0.0000 0.0000
# 4 0.0000 0.0000 0.0000 -3.3047 0.0000 0.0000
# 5 0.0000 0.0000 0.0000 0.0000 25.7032 0.0000
# 6 0.0000 0.0000 0.0000 0.0000 0.0000 21.7378
#
#
#
# Elastic Compliance Matrix: (Units=1/GPa)
#
#
# Indices 1 2 3 4 5 6 
#
# 1 0.021710 0.001504 -0.009854 0.000000 0.000000 0.000000
# 2 0.001504 0.022386 -0.005334 0.000000 0.000000 0.000000
# 3 -0.009854 -0.005334 0.011860 0.000000 0.000000 0.000000
# 4 0.000000 0.000000 0.000000 -0.302604 0.000000 0.000000
# 5 0.000000 0.000000 0.000000 0.000000 0.038906 0.000000
# 6 0.000000 0.000000 0.000000 0.000000 0.000000 0.046003
#
#
# Mechanical properties :
#
#
# Convention : Reuss Voigt Hill
#
# Bulk Modulus (GPa) = 34.98084 56.48277 45.73181
# Shear Modulus (GPa) = -40.05055 20.27324 -9.88865
#
# Velocity S-wave (km/s) = -4.48851 3.19344 -2.23032
# Velocity P-wave (km/s) = 3.04398 6.48152 4.04625
#
# Compressibility (1/GPa) = 0.02858707
#
# Stress axis : x y z
#
# Youngs Moduli (GPa) = 46.06240 44.67004 84.32039
#
# Poissons Ratio (x) = -0.06718 0.83087
# Poissons Ratio (y) = -0.06927 0.44980
# Poissons Ratio (z) = 0.45388 0.23829
#
# Static dielectric constant tensor:
#      x y z
#    x 1.711660 0.000000 0.000000 
#    y 0.000000 1.690110 0.000000 
#    z 0.000000 0.000000 1.715230 
# 
# From -- ./inp_files/28486.got.cif
#   From: 2010.05.17/outbox.cif.g08.bks.cpg/sg66_15_cif.got.tgz:28486.got - 2010.06.03 17:51:23.
