data_PCOD9495011
_publ_section_title
;
Structure prediction by ZEFSAII (Michael W. Deem and Ramdas Pophale) SiO2 
 PCOD9495011
Probable space group: C C C M
;
_chemical_formula_sum "Si O2"
_cell_formula_units_Z 96
_cell_length_a 32.801629
_cell_length_b 19.790348
_cell_length_c 8.071022
_cell_angle_alpha 90.000000
_cell_angle_beta 90.000000
_cell_angle_gamma 90.000000
_cell_volume 5239.349556
_symmetry_space_group_name_H-M "C C C M"
_symmetry_group_IT_number 66
_symmetry_cell_setting 'orthorhombic'
loop_
_space_group_symop_operation_xyz
x,y,z
-x,-y,z
x,-y,1/2-z
-x,y,1/2-z
-x,-y,-z
x,y,-z
-x,y,1/2+z
x,-y,1/2+z
1/2+x,1/2+y,z
1/2-x,1/2-y,z
1/2+x,1/2-y,1/2-z
1/2-x,1/2+y,1/2-z
1/2-x,1/2-y,-z
1/2+x,1/2+y,-z
1/2-x,1/2+y,1/2+z
1/2+x,1/2-y,1/2+z
loop_
_atom_site_type_symbol
_atom_site_label
_atom_site_fract_x
_atom_site_fract_y
_atom_site_fract_z
Si Si1 0.206921 0.922696 0.800000
Si Si2 0.867772 0.831227 0.703465
Si Si3 0.129390 0.325613 0.299612
Si Si4 0.298487 0.922670 0.799924
Si Si5 0.455995 0.658514 0.809123
Si Si6 0.042173 0.687366 0.305008
O O1 0.170838 0.874337 0.740171
O O2 0.252681 0.904425 0.741896
O O3 0.199326 0.000000 0.750000
O O4 0.207199 0.919054 0.000000
O O5 0.868397 0.832245 0.500000
O O6 0.864441 0.752537 0.752169
O O7 0.911654 0.859637 0.764384
O O8 0.128773 0.326693 0.500000
O O9 0.166077 0.372894 0.240480
O O10 0.084723 0.347737 0.238094
O O11 0.306260 0.000000 0.750000
O O12 0.298208 0.919271 0.000000
O O13 0.500000 0.633205 0.750000
O O14 0.456897 0.740195 0.788413
O O15 0.454142 0.640731 0.000000
O O16 0.040503 0.701094 0.500000
O O17 0.000000 0.652913 0.250000
#
# Coordination Sequence:
#
# PCOD9495011 Si02
#       6
#    16  16  16  16  16  16
#     4   9  17  31  48  67  89 119 153 187 225 271
#     4   8  15  27  45  67  92 117 149 189 227 262
#     4   9  17  30  46  68  93 119 150 188 226 264
#     4   9  18  31  49  68  90 119 152 185 224 271
#     4   9  15  25  41  63  90 120 150 185 224 268
#     4  10  17  26  42  65  92 122 150 182 221 266
#
# _framework density 18.322884999999999
#
# number of rings (size 3 to 8) (size 9 to 14) (size 15 to 20)
#    0.000    3.000    0.000    4.000    0.000    1.333 
#    0.000    7.500    0.000    1.000    0.000   16.333 
#    0.000    0.000    0.000    0.000    0.000    0.000 
#
# Total GULP energy -267222.325821 kJ/mol
# GULP energy per Si atom -5567.131788 kJ/mol
# Density = 1.828118 g / cm^3
# Si number density = 18.322885 Si / 1000 Ang^3
#
#
#
# Elastic Constant Matrix: (Units=GPa)
#
#
# Indices 1 2 3 4 5 6 
#
# 1 229.4232 85.4103 13.8369 0.0000 0.0000 0.0000
# 2 85.4103 45.5641 4.5683 0.0000 0.0000 0.0000
# 3 13.8369 4.5683 9.0181 0.0000 0.0000 0.0000
# 4 0.0000 0.0000 0.0000 11.9306 0.0000 0.0000
# 5 0.0000 0.0000 0.0000 0.0000 22.6001 0.0000
# 6 0.0000 0.0000 0.0000 0.0000 0.0000 -7.7891
#
#
#
# Elastic Compliance Matrix: (Units=1/GPa)
#
#
# Indices 1 2 3 4 5 6 
#
# 1 0.015135 -0.027436 -0.009324 0.000000 0.000000 0.000000
# 2 -0.027436 0.072855 0.005190 0.000000 0.000000 0.000000
# 3 -0.009324 0.005190 0.122565 0.000000 0.000000 0.000000
# 4 0.000000 0.000000 0.000000 0.083818 0.000000 0.000000
# 5 0.000000 0.000000 0.000000 0.000000 0.044248 0.000000
# 6 0.000000 0.000000 0.000000 0.000000 0.000000 -0.128384
#
#
# Mechanical properties :
#
#
# Convention : Reuss Voigt Hill
#
# Bulk Modulus (GPa) = 6.78357 54.62628 30.70492
# Shear Modulus (GPa) = 15.50307 17.36097 16.43202
#
# Velocity S-wave (km/s) = 2.91194 3.08149 2.99792
# Velocity P-wave (km/s) = 3.87507 6.52217 5.36446
#
# Compressibility (1/GPa) = 0.14741509
#
# Stress axis : x y z
#
# Youngs Moduli (GPa) = 66.07207 13.72582 8.15891
#
# Poissons Ratio (x) = 0.37658 0.07607
# Poissons Ratio (y) = 1.81274 -0.04234
# Poissons Ratio (z) = 0.61606 -0.07123
#
# Static dielectric constant tensor:
#      x y z
#    x 1.702160 0.000000 0.000000 
#    y 0.000000 1.586290 0.000000 
#    z 0.000000 0.000000 1.659630 
# 
# From -- ./inp_files/10472.got.cif
#   From: 2010.05.17/outbox.cif.g08.bks.cpg/sg66_6_cif.got.tgz:10472.got - 2010.06.03 17:51:23.
