data_PCOD9495792
_publ_section_title
;
Structure prediction by ZEFSAII (Michael W. Deem and Ramdas Pophale) SiO2 
 PCOD9495792
Probable space group: C C C M
;
_chemical_formula_sum "Si O2"
_cell_formula_units_Z 116
_cell_length_a 27.150670
_cell_length_b 27.484543
_cell_length_c 9.382828
_cell_angle_alpha 90.000000
_cell_angle_beta 90.000000
_cell_angle_gamma 90.000000
_cell_volume 7001.689162
_symmetry_space_group_name_H-M "C C C M"
_symmetry_group_IT_number 66
_symmetry_cell_setting 'orthorhombic'
loop_
_space_group_symop_operation_xyz
x,y,z
-x,-y,z
x,-y,1/2-z
-x,y,1/2-z
-x,-y,-z
x,y,-z
-x,y,1/2+z
x,-y,1/2+z
1/2+x,1/2+y,z
1/2-x,1/2-y,z
1/2+x,1/2-y,1/2-z
1/2-x,1/2+y,1/2-z
1/2-x,1/2-y,-z
1/2+x,1/2+y,-z
1/2-x,1/2+y,1/2+z
1/2+x,1/2-y,1/2+z
loop_
_atom_site_type_symbol
_atom_site_label
_atom_site_fract_x
_atom_site_fract_y
_atom_site_fract_z
Si Si1 0.251805 0.638093 0.330148
Si Si2 0.344752 0.692038 0.668175
Si Si3 0.315907 0.211799 0.664652
Si Si4 0.500000 0.000000 0.750000
Si Si5 0.546986 0.279234 0.330422
Si Si6 0.072202 0.319849 0.334723
Si Si7 0.928705 0.414683 0.662223
Si Si8 0.817241 0.550257 0.830097
O O1 0.243648 0.642875 0.500000
O O2 0.309945 0.645708 0.304012
O O3 0.223728 0.681316 0.250888
O O4 0.224616 0.588729 0.285849
O O5 0.339201 0.704386 0.500000
O O6 0.324884 0.736562 0.761605
O O7 0.403071 0.690186 0.695031
O O8 0.302096 0.217386 0.500000
O O9 0.368309 0.183781 0.669795
O O10 0.463435 0.962213 0.671098
O O11 0.500000 0.300694 0.250000
O O12 0.539362 0.274965 0.500000
O O13 0.555033 0.225807 0.260324
O O14 0.056658 0.314783 0.500000
O O15 0.056768 0.371411 0.268909
O O16 0.929642 0.395859 0.500000
O O17 0.872463 0.429772 0.697075
O O18 0.811071 0.500000 0.750000
O O19 0.813749 0.543004 0.000000
#
# Coordination Sequence:
#
# PCOD9495792 Si02
#       8
#    16  16  16   4  16  16  16  16
#     4  10  19  33  52  73  97 130 166 201 248 304
#     4   9  19  33  50  72 100 132 166 200 238 296
#     4  10  19  30  47  74 103 130 161 201 249 297
#     4  12  26  40  52  70  94 120 168 230 276 304
#     4  10  20  35  53  73 100 133 166 200 240 288
#     4  10  21  35  52  72  96 128 166 208 251 300
#     4  11  23  39  55  70  90 123 167 218 268 308
#     4  10  21  37  56  74  95 127 166 210 260 313
#
# _framework density 16.567430000000002
#
# number of rings (size 3 to 8) (size 9 to 14) (size 15 to 20)
#    0.000    1.931    2.069    1.862    0.966    6.069 
#    0.000    0.000    0.000    0.000    0.000    0.000 
#    0.000    0.552    0.000    6.897    0.000    0.000 
#
# Total GULP energy -323593.145587 kJ/mol
# GULP energy per Si atom -5579.192165 kJ/mol
# Density = 1.652972 g / cm^3
# Si number density = 16.567430 Si / 1000 Ang^3
#
#
#
# Elastic Constant Matrix: (Units=GPa)
#
#
# Indices 1 2 3 4 5 6 
#
# 1 115.6885 49.2307 48.2584 0.0000 0.0000 0.0000
# 2 49.2307 50.5496 27.7431 0.0000 0.0000 0.0000
# 3 48.2584 27.7431 52.3412 0.0000 0.0000 0.0000
# 4 0.0000 0.0000 0.0000 17.7222 0.0000 0.0000
# 5 0.0000 0.0000 0.0000 0.0000 5.8229 0.0000
# 6 0.0000 0.0000 0.0000 0.0000 0.0000 22.1664
#
#
#
# Elastic Compliance Matrix: (Units=1/GPa)
#
#
# Indices 1 2 3 4 5 6 
#
# 1 0.017989 -0.011870 -0.010295 0.000000 0.000000 0.000000
# 2 -0.011870 0.035731 -0.007995 0.000000 0.000000 0.000000
# 3 -0.010295 -0.007995 0.032834 0.000000 0.000000 0.000000
# 4 0.000000 0.000000 0.000000 0.056427 0.000000 0.000000
# 5 0.000000 0.000000 0.000000 0.000000 0.171736 0.000000
# 6 0.000000 0.000000 0.000000 0.000000 0.000000 0.045113
#
#
# Mechanical properties :
#
#
# Convention : Reuss Voigt Hill
#
# Bulk Modulus (GPa) = 38.11548 52.11595 45.11572
# Shear Modulus (GPa) = 11.65788 15.36543 13.51166
#
# Velocity S-wave (km/s) = 2.65554 3.04871 2.85889
# Velocity P-wave (km/s) = 5.69726 6.62706 6.17967
#
# Compressibility (1/GPa) = 0.02623606
#
# Stress axis : x y z
#
# Youngs Moduli (GPa) = 55.58812 27.98718 30.45586
#
# Poissons Ratio (x) = 0.33221 0.31353
# Poissons Ratio (y) = 0.65984 0.24348
# Poissons Ratio (z) = 0.57225 0.22374
#
# Static dielectric constant tensor:
#      x y z
#    x 1.619410 0.000000 0.000000 
#    y 0.000000 1.526550 0.000000 
#    z 0.000000 0.000000 1.555730 
# 
# From -- ./inp_files/9476.got.cif
#   From: 2010.05.17/outbox.cif.g08.bks.cpg/sg66_5_cif.got.tgz:9476.got - 2010.06.03 17:51:23.
