data_PCOD9495738
_publ_section_title
;
Structure prediction by ZEFSAII (Michael W. Deem and Ramdas Pophale) SiO2 
 PCOD9495738
Probable space group: C C C M
;
_chemical_formula_sum "Si O2"
_cell_formula_units_Z 96
_cell_length_a 24.489388
_cell_length_b 24.523763
_cell_length_c 8.862836
_cell_angle_alpha 90.000000
_cell_angle_beta 90.000000
_cell_angle_gamma 90.000000
_cell_volume 5322.770675
_symmetry_space_group_name_H-M "C C C M"
_symmetry_group_IT_number 66
_symmetry_cell_setting 'orthorhombic'
loop_
_space_group_symop_operation_xyz
x,y,z
-x,-y,z
x,-y,1/2-z
-x,y,1/2-z
-x,-y,-z
x,y,-z
-x,y,1/2+z
x,-y,1/2+z
1/2+x,1/2+y,z
1/2-x,1/2-y,z
1/2+x,1/2-y,1/2-z
1/2-x,1/2+y,1/2-z
1/2-x,1/2-y,-z
1/2+x,1/2+y,-z
1/2-x,1/2+y,1/2+z
1/2+x,1/2-y,1/2+z
loop_
_atom_site_type_symbol
_atom_site_label
_atom_site_fract_x
_atom_site_fract_y
_atom_site_fract_z
Si Si1 0.448146 0.442846 0.670788
Si Si2 0.057887 0.354000 0.680705
Si Si3 0.440386 0.272854 0.317447
Si Si4 0.852315 0.442898 0.817673
Si Si5 0.731432 0.441441 0.680898
Si Si6 0.649566 0.641118 0.325758
O O1 0.437520 0.500000 0.750000
O O2 0.500000 0.416056 0.750000
O O3 0.463433 0.452722 0.500000
O O4 0.396109 0.405613 0.673398
O O5 0.053141 0.355767 0.500000
O O6 0.068001 0.290773 0.721917
O O7 0.106860 0.394103 0.723455
O O8 0.000000 0.370847 0.750000
O O9 0.500000 0.288280 0.250000
O O10 0.443804 0.279184 0.500000
O O11 0.386735 0.307458 0.269718
O O12 0.873343 0.500000 0.750000
O O13 0.792541 0.435013 0.745884
O O14 0.847691 0.446285 0.000000
O O15 0.711006 0.500000 0.750000
O O16 0.731163 0.446276 0.500000
O O17 0.697455 0.388035 0.732313
O O18 0.667278 0.651469 0.500000
#
# Coordination Sequence:
#
# PCOD9495738 Si02
#       6
#    16  16  16  16  16  16
#     4  10  19  29  42  62  89 122 159 205 258 304
#     4   9  19  35  57  83 110 141 173 209 255 309
#     4   9  18  34  54  77 106 140 178 218 262 309
#     4  10  20  36  57  81 109 139 172 210 258 313
#     4  11  22  36  55  77 103 137 176 219 267 313
#     4  10  20  33  50  72  99 134 176 217 257 307
#
# _framework density 18.035719
#
# number of rings (size 3 to 8) (size 9 to 14) (size 15 to 20)
#    0.000    2.167    0.000    5.000    0.000    5.000 
#    0.000    2.500    0.000    5.000    0.000    0.000 
#    0.000    0.000    0.000    0.000    0.000    0.000 
#
# Total GULP energy -267533.748017 kJ/mol
# GULP energy per Si atom -5573.619750 kJ/mol
# Density = 1.799467 g / cm^3
# Si number density = 18.035719 Si / 1000 Ang^3
#
#
#
# Elastic Constant Matrix: (Units=GPa)
#
#
# Indices 1 2 3 4 5 6 
#
# 1 88.6924 66.4688 36.6521 0.0000 0.0000 0.0000
# 2 66.4688 110.6354 37.8786 0.0000 0.0000 0.0000
# 3 36.6521 37.8786 82.6245 0.0000 0.0000 0.0000
# 4 0.0000 0.0000 0.0000 19.1122 0.0000 0.0000
# 5 0.0000 0.0000 0.0000 0.0000 20.8242 0.0000
# 6 0.0000 0.0000 0.0000 0.0000 0.0000 39.3975
#
#
#
# Elastic Compliance Matrix: (Units=1/GPa)
#
#
# Indices 1 2 3 4 5 6 
#
# 1 0.021745 -0.011579 -0.004338 0.000000 0.000000 0.000000
# 2 -0.011579 0.016887 -0.002605 0.000000 0.000000 0.000000
# 3 -0.004338 -0.002605 0.015222 0.000000 0.000000 0.000000
# 4 0.000000 0.000000 0.000000 0.052323 0.000000 0.000000
# 5 0.000000 0.000000 0.000000 0.000000 0.048021 0.000000
# 6 0.000000 0.000000 0.000000 0.000000 0.000000 0.025382
#
#
# Mechanical properties :
#
#
# Convention : Reuss Voigt Hill
#
# Bulk Modulus (GPa) = 59.49003 62.66125 61.07564
# Shear Modulus (GPa) = 22.49937 25.26365 23.88151
#
# Velocity S-wave (km/s) = 3.53581 3.74673 3.64280
# Velocity P-wave (km/s) = 7.05163 7.31680 7.18544
#
# Compressibility (1/GPa) = 0.01680954
#
# Stress axis : x y z
#
# Youngs Moduli (GPa) = 45.98669 59.21551 65.69611
#
# Poissons Ratio (x) = 0.68568 0.28498
# Poissons Ratio (y) = 0.53249 0.17116
# Poissons Ratio (z) = 0.19948 0.15428
#
# Static dielectric constant tensor:
#      x y z
#    x 1.614150 0.000000 0.000000 
#    y 0.000000 1.640480 0.000000 
#    z 0.000000 0.000000 1.632990 
# 
# From -- ./inp_files/8043.got.cif
#   From: 2010.05.17/outbox.cif.g08.bks.cpg/sg66_5_cif.got.tgz:8043.got - 2010.06.03 17:51:23.
