data_PCOD9495108
_publ_section_title
;
Structure prediction by ZEFSAII (Michael W. Deem and Ramdas Pophale) SiO2 
 PCOD9495108
Probable space group: C C C M
;
_chemical_formula_sum "Si O2"
_cell_formula_units_Z 128
_cell_length_a 15.376494
_cell_length_b 19.276792
_cell_length_c 20.609582
_cell_angle_alpha 90.000000
_cell_angle_beta 90.000000
_cell_angle_gamma 90.000000
_cell_volume 6108.875412
_symmetry_space_group_name_H-M "C C C M"
_symmetry_group_IT_number 66
_symmetry_cell_setting 'orthorhombic'
loop_
_space_group_symop_operation_xyz
x,y,z
-x,-y,z
x,-y,1/2-z
-x,y,1/2-z
-x,-y,-z
x,y,-z
-x,y,1/2+z
x,-y,1/2+z
1/2+x,1/2+y,z
1/2-x,1/2-y,z
1/2+x,1/2-y,1/2-z
1/2-x,1/2+y,1/2-z
1/2-x,1/2-y,-z
1/2+x,1/2+y,-z
1/2-x,1/2+y,1/2+z
1/2+x,1/2-y,1/2+z
loop_
_atom_site_type_symbol
_atom_site_label
_atom_site_fract_x
_atom_site_fract_y
_atom_site_fract_z
Si Si1 0.188520 0.874892 0.572145
Si Si2 0.393804 0.092129 0.070125
Si Si3 0.836417 0.433117 0.214249
Si Si4 0.865746 0.065756 0.209590
Si Si5 0.837109 0.203300 0.705603
Si Si6 0.358692 0.534383 0.928603
Si Si7 0.072475 0.659332 0.699704
Si Si8 0.847800 0.567310 0.571349
O O1 0.165419 0.847828 0.500000
O O2 0.292447 0.886872 0.572519
O O3 0.170070 0.827085 0.633120
O O4 0.145716 0.950986 0.579782
O O5 0.440048 0.129695 0.128724
O O6 0.391246 0.009025 0.074939
O O7 0.428966 0.111681 0.000000
O O8 0.878600 0.500000 0.250000
O O9 0.736690 0.452432 0.200966
O O10 0.841521 0.376481 0.270379
O O11 0.867353 0.405141 0.144008
O O12 0.862352 0.139335 0.246853
O O13 0.900896 0.067153 0.135814
O O14 0.901636 0.000000 0.250000
O O15 0.750000 0.250000 0.720803
O O16 0.913971 0.259466 0.703372
O O17 0.257131 0.558096 0.931923
O O18 0.397146 0.550039 0.000000
O O19 0.000000 0.635628 0.750000
O O20 0.871499 0.597608 0.500000
#
# Coordination Sequence:
#
# PCOD9495108 Si02
#       8
#    16  16  16  16  16  16  16  16
#     4   9  16  28  52  86 114 131 158 206 277 342
#     4   9  16  31  52  76 106 139 168 208 270 327
#     4  10  17  30  51  73 102 137 176 213 254 308
#     4  10  17  29  54  79 101 132 172 217 262 311
#     4  12  21  33  52  79 111 143 175 215 262 314
#     4   8  14  25  46  78 109 129 157 213 271 312
#     4  12  25  37  48  72 110 149 181 216 261 312
#     4   8  14  25  46  73 102 133 171 215 254 299
#
# _framework density 20.953119999999998
#
# number of rings (size 3 to 8) (size 9 to 14) (size 15 to 20)
#    0.000    2.250    5.000    1.500    0.000    1.000 
#    0.000    0.625    0.000    3.750    0.000    0.000 
#    0.000    2.000    0.000    0.000    0.000    0.000 
#
# Total GULP energy -356414.947829 kJ/mol
# GULP energy per Si atom -5568.983560 kJ/mol
# Density = 2.090543 g / cm^3
# Si number density = 20.953120 Si / 1000 Ang^3
#
#
#
# Elastic Constant Matrix: (Units=GPa)
#
#
# Indices 1 2 3 4 5 6 
#
# 1 6.3658 -18.3731 -6.0680 0.0000 0.0000 0.0000
# 2 -18.3731 30.4978 2.3712 0.0000 0.0000 0.0000
# 3 -6.0680 2.3712 134.0107 0.0000 0.0000 0.0000
# 4 0.0000 0.0000 0.0000 21.2243 0.0000 0.0000
# 5 0.0000 0.0000 0.0000 0.0000 -0.0331 0.0000
# 6 0.0000 0.0000 0.0000 0.0000 0.0000 -533.6941
#
#
#
# Elastic Compliance Matrix: (Units=1/GPa)
#
#
# Indices 1 2 3 4 5 6 
#
# 1 -0.205601 -0.123309 -0.007128 0.000000 0.000000 0.000000
# 2 -0.123309 -0.041119 -0.004856 0.000000 0.000000 0.000000
# 3 -0.007128 -0.004856 0.007225 0.000000 0.000000 0.000000
# 4 0.000000 0.000000 0.000000 0.047116 0.000000 0.000000
# 5 0.000000 0.000000 0.000000 0.000000-30.192393 0.000000
# 6 0.000000 0.000000 0.000000 0.000000 0.000000 -0.001874
#
#
# Mechanical properties :
#
#
# Convention : Reuss Voigt Hill
#
# Bulk Modulus (GPa) = -1.96048 14.08161 6.06057
# Shear Modulus (GPa) = -0.16509 -89.63762 -44.90136
#
# Velocity S-wave (km/s) = -0.28100 -6.54774 -4.63422
# Velocity P-wave (km/s) = 1.02126 7.10133 5.07306
#
# Compressibility (1/GPa) = -0.51007998
#
# Stress axis : x y z
#
# Youngs Moduli (GPa) = -4.86378 -24.31944 138.40329
#
# Poissons Ratio (x) = -2.99880 0.98651
# Poissons Ratio (y) = -0.59975 0.67206
# Poissons Ratio (z) = -0.03467 -0.11809
#
# Static dielectric constant tensor:
#      x y z
#    x 1.819970 0.000000 0.000000 
#    y 0.000000 1.740550 0.000000 
#    z 0.000000 0.000000 1.819480 
# 
# From -- ./inp_files/52051.got.cif
#   From: 2010.05.17/outbox.cif.g08.bks.cpg/sg66_27_cif.got.tgz:52051.got - 2010.06.03 17:51:23.
