data_PCOD9495004
_publ_section_title
;
Structure prediction by ZEFSAII (Michael W. Deem and Ramdas Pophale) SiO2 
 PCOD9495004
Probable space group: C C C M
;
_chemical_formula_sum "Si O2"
_cell_formula_units_Z 80
_cell_length_a 14.912104
_cell_length_b 33.737269
_cell_length_c 8.903562
_cell_angle_alpha 90.000000
_cell_angle_beta 90.000000
_cell_angle_gamma 90.000000
_cell_volume 4479.325629
_symmetry_space_group_name_H-M "C C C M"
_symmetry_group_IT_number 66
_symmetry_cell_setting 'orthorhombic'
loop_
_space_group_symop_operation_xyz
x,y,z
-x,-y,z
x,-y,1/2-z
-x,y,1/2-z
-x,-y,-z
x,y,-z
-x,y,1/2+z
x,-y,1/2+z
1/2+x,1/2+y,z
1/2-x,1/2-y,z
1/2+x,1/2-y,1/2-z
1/2-x,1/2+y,1/2-z
1/2-x,1/2-y,-z
1/2+x,1/2+y,-z
1/2-x,1/2+y,1/2+z
1/2+x,1/2-y,1/2+z
loop_
_atom_site_type_symbol
_atom_site_label
_atom_site_fract_x
_atom_site_fract_y
_atom_site_fract_z
Si Si1 0.089945 0.866214 0.325124
Si Si2 0.165269 0.299505 0.679096
Si Si3 0.401858 0.958845 0.320563
Si Si4 0.206707 0.620671 0.680611
Si Si5 0.642229 0.722347 0.176699
O O1 0.087874 0.876719 0.500000
O O2 0.188931 0.878580 0.267511
O O3 0.087698 0.818272 0.313402
O O4 0.000000 0.882345 0.250000
O O5 0.161819 0.298996 0.500000
O O6 0.151346 0.343545 0.743011
O O7 0.265139 0.289440 0.740422
O O8 0.108961 0.262788 0.746529
O O9 0.500000 0.951889 0.250000
O O10 0.410248 0.963170 0.500000
O O11 0.338781 0.921373 0.289520
O O12 0.367793 0.000000 0.250000
O O13 0.207400 0.628028 0.500000
O O14 0.657243 0.729921 0.000000
#
# Coordination Sequence:
#
# PCOD9495004 Si02
#       5
#    16  16  16  16  16
#     4   9  18  31  48  70  97 133 176 213 247 287
#     4  10  17  25  43  70  94 121 165 215 250 284
#     4  10  20  36  59  83 107 130 158 196 245 306
#     4   9  19  35  52  72 102 139 167 197 250 309
#     4   9  16  28  43  60  91 133 169 204 252 302
#
# _framework density 17.859832000000001
#
# number of rings (size 3 to 8) (size 9 to 14) (size 15 to 20)
#    0.000    2.600    0.000    6.000    0.000    5.600 
#    0.000    1.000    0.000    0.600    0.000    4.200 
#    0.000    0.000    0.000    0.000    0.000    0.000 
#
# Total GULP energy -222768.036394 kJ/mol
# GULP energy per Si atom -5569.200910 kJ/mol
# Density = 1.781918 g / cm^3
# Si number density = 17.859832 Si / 1000 Ang^3
#
#
#
# Elastic Constant Matrix: (Units=GPa)
#
#
# Indices 1 2 3 4 5 6 
#
# 1 50.4940 41.6014 33.9030 0.0000 0.0000 0.0000
# 2 41.6014 131.4983 63.2133 0.0000 0.0000 0.0000
# 3 33.9030 63.2133 85.6295 0.0000 0.0000 0.0000
# 4 0.0000 0.0000 0.0000 25.3912 0.0000 0.0000
# 5 0.0000 0.0000 0.0000 0.0000 17.3634 0.0000
# 6 0.0000 0.0000 0.0000 0.0000 0.0000 6.2483
#
#
#
# Elastic Compliance Matrix: (Units=1/GPa)
#
#
# Indices 1 2 3 4 5 6 
#
# 1 0.029557 -0.005774 -0.007440 0.000000 0.000000 0.000000
# 2 -0.005774 0.012916 -0.007249 0.000000 0.000000 0.000000
# 3 -0.007440 -0.007249 0.019975 0.000000 0.000000 0.000000
# 4 0.000000 0.000000 0.000000 0.039384 0.000000 0.000000
# 5 0.000000 0.000000 0.000000 0.000000 0.057593 0.000000
# 6 0.000000 0.000000 0.000000 0.000000 0.000000 0.160043
#
#
# Mechanical properties :
#
#
# Convention : Reuss Voigt Hill
#
# Bulk Modulus (GPa) = 46.46297 60.56192 53.51244
# Shear Modulus (GPa) = 13.60299 18.39419 15.99859
#
# Velocity S-wave (km/s) = 2.76280 3.21272 2.99622
# Velocity P-wave (km/s) = 6.02073 6.90979 6.48053
#
# Compressibility (1/GPa) = 0.02152252
#
# Stress axis : x y z
#
# Youngs Moduli (GPa) = 33.83301 77.42345 50.06318
#
# Poissons Ratio (x) = 0.44708 0.37245
# Poissons Ratio (y) = 0.19537 0.36289
# Poissons Ratio (z) = 0.25170 0.56121
#
# Static dielectric constant tensor:
#      x y z
#    x 1.645690 0.000000 0.000000 
#    y 0.000000 1.640100 0.000000 
#    z 0.000000 0.000000 1.603370 
# 
# From -- ./inp_files/6902.got.cif
#   From: 2010.05.17/outbox.cif.g08.bks.cpg/sg66_4_cif.got.tgz:6902.got - 2010.06.03 17:51:23.
