data_PCOD9495999
_publ_section_title
;
Structure prediction by ZEFSAII (Michael W. Deem and Ramdas Pophale) SiO2 
 PCOD9495999
Probable space group: C C C M
;
_chemical_formula_sum "Si O2"
_cell_formula_units_Z 64
_cell_length_a 13.124446
_cell_length_b 12.357901
_cell_length_c 17.491538
_cell_angle_alpha 90.000000
_cell_angle_beta 90.000000
_cell_angle_gamma 90.000000
_cell_volume 2836.963119
_symmetry_space_group_name_H-M "C C C M"
_symmetry_group_IT_number 66
_symmetry_cell_setting 'orthorhombic'
loop_
_space_group_symop_operation_xyz
x,y,z
-x,-y,z
x,-y,1/2-z
-x,y,1/2-z
-x,-y,-z
x,y,-z
-x,y,1/2+z
x,-y,1/2+z
1/2+x,1/2+y,z
1/2-x,1/2-y,z
1/2+x,1/2-y,1/2-z
1/2-x,1/2+y,1/2-z
1/2-x,1/2-y,-z
1/2+x,1/2+y,-z
1/2-x,1/2+y,1/2+z
1/2+x,1/2-y,1/2+z
loop_
_atom_site_type_symbol
_atom_site_label
_atom_site_fract_x
_atom_site_fract_y
_atom_site_fract_z
Si Si1 0.647718 0.215116 0.133768
Si Si2 0.622024 0.985581 0.087068
Si Si3 0.379823 0.382083 0.767377
Si Si4 0.586430 0.254631 0.411501
O O1 0.750000 0.250000 0.089823
O O2 0.651363 0.285187 0.211193
O O3 0.537082 0.242770 0.097571
O O4 0.654751 0.085281 0.139484
O O5 0.634066 0.861623 0.111764
O O6 0.500000 0.000000 0.081643
O O7 0.662296 0.998869 0.000000
O O8 0.334811 0.500000 0.750000
O O9 0.500000 0.390408 0.750000
O O10 0.372925 0.345698 0.854953
O O11 0.609487 0.274200 0.500000
#
# Coordination Sequence:
#
# PCOD9495999 Si02
#       4
#    16  16  16  16
#     4  10  19  32  53  86 114 149 181 240 298 334
#     4   8  15  29  50  79 112 140 180 230 275 338
#     4   9  19  37  54  74 110 145 190 234 276 345
#     4   9  18  35  60  82 108 150 194 235 282 344
#
# _framework density 22.559332999999999
#
# number of rings (size 3 to 8) (size 9 to 14) (size 15 to 20)
#    0.000    3.000    0.000    2.250    0.000    3.000 
#    4.500   16.250    0.000    0.750    0.000    0.000 
#    0.000    0.000    0.000    0.000    0.000    0.000 
#
# Total GULP energy -178415.401165 kJ/mol
# GULP energy per Si atom -5575.481286 kJ/mol
# Density = 2.250799 g / cm^3
# Si number density = 22.559333 Si / 1000 Ang^3
#
#
#
# Elastic Constant Matrix: (Units=GPa)
#
#
# Indices 1 2 3 4 5 6 
#
# 1 90.1859 32.1977 13.9507 0.0000 0.0000 0.0000
# 2 32.1977 191.1380 108.1473 0.0000 0.0000 0.0000
# 3 13.9507 108.1473 119.8748 0.0000 0.0000 0.0000
# 4 0.0000 0.0000 0.0000 20.8004 0.0000 0.0000
# 5 0.0000 0.0000 0.0000 0.0000 -3.7000 0.0000
# 6 0.0000 0.0000 0.0000 0.0000 0.0000 11.7603
#
#
#
# Elastic Compliance Matrix: (Units=1/GPa)
#
#
# Indices 1 2 3 4 5 6 
#
# 1 0.011841 -0.002482 0.000861 0.000000 0.000000 0.000000
# 2 -0.002482 0.011207 -0.009822 0.000000 0.000000 0.000000
# 3 0.000861 -0.009822 0.017103 0.000000 0.000000 0.000000
# 4 0.000000 0.000000 0.000000 0.048076 0.000000 0.000000
# 5 0.000000 0.000000 0.000000 0.000000 -0.270274 0.000000
# 6 0.000000 0.000000 0.000000 0.000000 0.000000 0.085032
#
#
# Mechanical properties :
#
#
# Convention : Reuss Voigt Hill
#
# Bulk Modulus (GPa) = 57.91864 78.86556 68.39210
# Shear Modulus (GPa) = -73.12728 22.23236 -25.44746
#
# Velocity S-wave (km/s) = -5.69964 3.14268 -3.36225
# Velocity P-wave (km/s) = 4.19343 6.94289 3.91272
#
# Compressibility (1/GPa) = 0.01726560
#
# Stress axis : x y z
#
# Youngs Moduli (GPa) = 84.45183 89.22793 58.46947
#
# Poissons Ratio (x) = 0.22145 -0.05034
# Poissons Ratio (y) = 0.20959 0.57429
# Poissons Ratio (z) = -0.07271 0.87640
#
# Static dielectric constant tensor:
#      x y z
#    x 1.855830 0.000000 0.000000 
#    y 0.000000 1.851080 0.000000 
#    z 0.000000 0.000000 1.831140 
# 
# From -- ./inp_files/37971.got.cif
#   From: 2010.05.17/outbox.cif.g08.bks.cpg/sg66_19_cif.got.tgz:37971.got - 2010.06.03 17:51:23.
