data_PCOD9495536
_publ_section_title
;
Structure prediction by ZEFSAII (Michael W. Deem and Ramdas Pophale) SiO2 
 PCOD9495536
Probable space group: C C C M
;
_chemical_formula_sum "Si O2"
_cell_formula_units_Z 96
_cell_length_a 10.639258
_cell_length_b 28.743145
_cell_length_c 14.828008
_cell_angle_alpha 90.000000
_cell_angle_beta 90.000000
_cell_angle_gamma 90.000000
_cell_volume 4534.489891
_symmetry_space_group_name_H-M "C C C M"
_symmetry_group_IT_number 66
_symmetry_cell_setting 'orthorhombic'
loop_
_space_group_symop_operation_xyz
x,y,z
-x,-y,z
x,-y,1/2-z
-x,y,1/2-z
-x,-y,-z
x,y,-z
-x,y,1/2+z
x,-y,1/2+z
1/2+x,1/2+y,z
1/2-x,1/2-y,z
1/2+x,1/2-y,1/2-z
1/2-x,1/2+y,1/2-z
1/2-x,1/2-y,-z
1/2+x,1/2+y,-z
1/2-x,1/2+y,1/2+z
1/2+x,1/2-y,1/2+z
loop_
_atom_site_type_symbol
_atom_site_label
_atom_site_fract_x
_atom_site_fract_y
_atom_site_fract_z
Si Si1 0.609816 0.239985 0.395338
Si Si2 0.495998 0.660621 0.358929
Si Si3 0.738788 0.402481 0.639320
Si Si4 0.739345 0.396569 0.860027
Si Si5 0.354354 0.502286 0.859827
Si Si6 0.505473 0.141116 0.354445
O O1 0.629722 0.228388 0.500000
O O2 0.750000 0.250000 0.355335
O O3 0.529190 0.286743 0.387491
O O4 0.536150 0.195924 0.356503
O O5 0.500000 0.660256 0.250000
O O6 0.377564 0.629684 0.389472
O O7 0.624872 0.636636 0.388626
O O8 0.738255 0.398630 0.749554
O O9 0.714913 0.455374 0.611803
O O10 0.871560 0.383487 0.606142
O O11 0.709618 0.449502 0.888079
O O12 0.871716 0.375459 0.891429
O O13 0.500000 0.500000 0.888067
O O14 0.355095 0.500000 0.750000
O O15 0.500000 0.126857 0.250000
#
# Coordination Sequence:
#
# PCOD9495536 Si02
#       6
#    16  16  16  16  16  16
#     4  11  23  38  56  77 101 138 183 222 265 318
#     4  10  18  33  54  78 104 137 176 213 259 312
#     4   9  16  28  49  74 109 141 170 210 255 313
#     4   9  18  28  48  78 107 139 168 210 266 307
#     4   9  14  24  44  75 110 139 169 208 255 309
#     4  10  20  35  51  78 111 137 173 220 265 311
#
# _framework density 21.171071000000001
#
# number of rings (size 3 to 8) (size 9 to 14) (size 15 to 20)
#    0.000    2.333    3.333    0.500    0.000    1.333 
#    0.000    5.000    0.000    0.000    0.000    7.000 
#    0.000    0.000    0.000    0.000    0.000    0.000 
#
# Total GULP energy -268037.288094 kJ/mol
# GULP energy per Si atom -5584.110169 kJ/mol
# Density = 2.112288 g / cm^3
# Si number density = 21.171071 Si / 1000 Ang^3
#
#
#
# Elastic Constant Matrix: (Units=GPa)
#
#
# Indices 1 2 3 4 5 6 
#
# 1 220.6120 125.7006 6.1252 0.0000 0.0000 0.0000
# 2 125.7006 194.3056 -12.1650 0.0000 0.0000 0.0000
# 3 6.1252 -12.1650 58.8710 0.0000 0.0000 0.0000
# 4 0.0000 0.0000 0.0000 -61.0548 0.0000 0.0000
# 5 0.0000 0.0000 0.0000 0.0000 -10.0039 0.0000
# 6 0.0000 0.0000 0.0000 0.0000 0.0000 42.7292
#
#
#
# Elastic Compliance Matrix: (Units=1/GPa)
#
#
# Indices 1 2 3 4 5 6 
#
# 1 0.007357 -0.004870 -0.001772 0.000000 0.000000 0.000000
# 2 -0.004870 0.008438 0.002250 0.000000 0.000000 0.000000
# 3 -0.001772 0.002250 0.017636 0.000000 0.000000 0.000000
# 4 0.000000 0.000000 0.000000 -0.016379 0.000000 0.000000
# 5 0.000000 0.000000 0.000000 0.000000 -0.099961 0.000000
# 6 0.000000 0.000000 0.000000 0.000000 0.000000 0.023403
#
#
# Mechanical properties :
#
#
# Convention : Reuss Voigt Hill
#
# Bulk Modulus (GPa) = 40.57260 79.23447 59.90353
# Shear Modulus (GPa) = -117.63020 17.94262 -49.84379
#
# Velocity S-wave (km/s) = -7.46206 2.91435 -4.85741
# Velocity P-wave (km/s) = 7.41872 6.98797 1.76149
#
# Compressibility (1/GPa) = 0.02464718
#
# Stress axis : x y z
#
# Youngs Moduli (GPa) = 135.92290 118.50869 56.70328
#
# Poissons Ratio (x) = 0.57719 0.10047
# Poissons Ratio (y) = 0.66200 -0.12761
# Poissons Ratio (z) = 0.24084 -0.26669
#
# Static dielectric constant tensor:
#      x y z
#    x 1.753310 0.000000 0.000000 
#    y 0.000000 1.717490 0.000000 
#    z 0.000000 0.000000 1.767550 
# 
# From -- ./inp_files/47355.got.cif
#   From: 2010.05.17/outbox.cif.g08.bks.cpg/sg66_24_cif.got.tgz:47355.got - 2010.06.03 17:51:23.
