data_PCOD9495646
_publ_section_title
;
Structure prediction by ZEFSAII (Michael W. Deem and Ramdas Pophale) SiO2 
 PCOD9495646
Probable space group: C C C M
;
_chemical_formula_sum "Si O2"
_cell_formula_units_Z 72
_cell_length_a 8.620597
_cell_length_b 16.198175
_cell_length_c 25.696472
_cell_angle_alpha 90.000000
_cell_angle_beta 90.000000
_cell_angle_gamma 90.000000
_cell_volume 3588.202385
_symmetry_space_group_name_H-M "C C C M"
_symmetry_group_IT_number 66
_symmetry_cell_setting 'orthorhombic'
loop_
_space_group_symop_operation_xyz
x,y,z
-x,-y,z
x,-y,1/2-z
-x,y,1/2-z
-x,-y,-z
x,y,-z
-x,y,1/2+z
x,-y,1/2+z
1/2+x,1/2+y,z
1/2-x,1/2-y,z
1/2+x,1/2-y,1/2-z
1/2-x,1/2+y,1/2-z
1/2-x,1/2-y,-z
1/2+x,1/2+y,-z
1/2-x,1/2+y,1/2+z
1/2+x,1/2-y,1/2+z
loop_
_atom_site_type_symbol
_atom_site_label
_atom_site_fract_x
_atom_site_fract_y
_atom_site_fract_z
Si Si1 0.142778 0.378356 0.500000
Si Si2 0.500000 0.000000 0.917030
Si Si3 0.000000 0.344395 0.750000
Si Si4 0.750000 0.750000 0.322504
Si Si5 0.534244 0.297965 0.382873
Si Si6 0.022952 0.190306 0.500000
Si Si7 0.326100 0.121033 0.848477
O O1 0.079224 0.429595 0.451500
O O2 0.077281 0.285763 0.500000
O O3 0.327013 0.368226 0.500000
O O4 0.369597 0.043567 0.882875
O O5 0.124732 0.292675 0.715728
O O6 0.102143 0.392085 0.791882
O O7 0.641852 0.696851 0.361958
O O8 0.557038 0.319954 0.443768
O O9 0.591380 0.203619 0.372748
O O10 0.646376 0.355692 0.349186
#
# Coordination Sequence:
#
# PCOD9495646 Si02
#       7
#     8   8   8   8  16   8  16
#     4  10  22  36  63  91 125 169 203 247 317 377
#     4  11  22  41  58  90 132 163 202 257 312 382
#     4  10  20  35  62  88 118 165 212 256 322 359
#     4  10  18  35  60  92 126 151 214 282 308 354
#     4  10  21  36  63  94 124 158 213 259 304 374
#     4  11  20  37  64  96 119 167 203 254 309 382
#     4  10  22  38  59  91 123 166 206 259 309 373
#
# _framework density 20.065756
#
# number of rings (size 3 to 8) (size 9 to 14) (size 15 to 20)
#    0.000    1.778    2.222    4.000    3.111    4.000 
#    0.000    2.222    0.000    0.000    5.778    0.000 
#    0.000    0.000    0.000    0.000    0.000    0.000 
#
# Total GULP energy -200799.615658 kJ/mol
# GULP energy per Si atom -5577.767102 kJ/mol
# Density = 2.002009 g / cm^3
# Si number density = 20.065756 Si / 1000 Ang^3
#
#
#
# Elastic Constant Matrix: (Units=GPa)
#
#
# Indices 1 2 3 4 5 6 
#
# 1 111.9638 21.7569 40.1021 0.0000 0.0000 0.0000
# 2 21.7569 43.0109 12.7067 0.0000 0.0000 0.0000
# 3 40.1021 12.7067 127.2557 0.0000 0.0000 0.0000
# 4 0.0000 0.0000 0.0000 -115.2645 0.0000 0.0000
# 5 0.0000 0.0000 0.0000 0.0000-2329.8955 0.0000
# 6 0.0000 0.0000 0.0000 0.0000 0.0000 22.1001
#
#
#
# Elastic Compliance Matrix: (Units=1/GPa)
#
#
# Indices 1 2 3 4 5 6 
#
# 1 0.010896 -0.004634 -0.002971 0.000000 0.000000 0.000000
# 2 -0.004634 0.025927 -0.001129 0.000000 0.000000 0.000000
# 3 -0.002971 -0.001129 0.008907 0.000000 0.000000 0.000000
# 4 0.000000 0.000000 0.000000 -0.008676 0.000000 0.000000
# 5 0.000000 0.000000 0.000000 0.000000 -0.000429 0.000000
# 6 0.000000 0.000000 0.000000 0.000000 0.000000 0.045249
#
#
# Mechanical properties :
#
#
# Convention : Reuss Voigt Hill
#
# Bulk Modulus (GPa) = 35.38129 47.92906 41.65518
# Shear Modulus (GPa) = 45.97167 -470.76767 -212.39800
#
# Velocity S-wave (km/s) = 4.79169 -15.33368 -10.29955
# Velocity P-wave (km/s) = 6.94871 17.01640 10.98347
#
# Compressibility (1/GPa) = 0.02826352
#
# Stress axis : x y z
#
# Youngs Moduli (GPa) = 91.77640 38.56915 112.26967
#
# Poissons Ratio (x) = 0.17873 0.33355
# Poissons Ratio (y) = 0.42529 0.12671
# Poissons Ratio (z) = 0.27266 0.04353
#
# Static dielectric constant tensor:
#      x y z
#    x 1.720070 0.000000 0.000000 
#    y 0.000000 1.683200 0.000000 
#    z 0.000000 0.000000 1.753300 
# 
# From -- ./inp_files/55313.got.cif
#   From: 2010.05.17/outbox.cif.g08.bks.cpg/sg66_28_cif.got.tgz:55313.got - 2010.06.03 17:51:23.
