data_PCOD9495328
_publ_section_title
;
Structure prediction by ZEFSAII (Michael W. Deem and Ramdas Pophale) SiO2 
 PCOD9495328
Probable space group: C C C M
;
_chemical_formula_sum "Si O2"
_cell_formula_units_Z 96
_cell_length_a 9.740863
_cell_length_b 21.683911
_cell_length_c 25.627439
_cell_angle_alpha 90.000000
_cell_angle_beta 90.000000
_cell_angle_gamma 90.000000
_cell_volume 5413.027828
_symmetry_space_group_name_H-M "C C C M"
_symmetry_group_IT_number 66
_symmetry_cell_setting 'orthorhombic'
loop_
_space_group_symop_operation_xyz
x,y,z
-x,-y,z
x,-y,1/2-z
-x,y,1/2-z
-x,-y,-z
x,y,-z
-x,y,1/2+z
x,-y,1/2+z
1/2+x,1/2+y,z
1/2-x,1/2-y,z
1/2+x,1/2-y,1/2-z
1/2-x,1/2+y,1/2-z
1/2-x,1/2-y,-z
1/2+x,1/2+y,-z
1/2-x,1/2+y,1/2+z
1/2+x,1/2-y,1/2+z
loop_
_atom_site_type_symbol
_atom_site_label
_atom_site_fract_x
_atom_site_fract_y
_atom_site_fract_z
Si Si1 0.185909 0.898460 0.439018
Si Si2 0.898616 0.268669 0.793744
Si Si3 0.155350 0.475734 0.561282
Si Si4 0.005207 0.815574 0.120852
Si Si5 0.312262 0.154982 0.395483
Si Si6 0.579045 0.202953 0.442171
O O1 0.139306 0.892366 0.500000
O O2 0.316165 0.852597 0.432555
O O3 0.072695 0.876813 0.397368
O O4 0.241282 0.967319 0.431428
O O5 0.750000 0.250000 0.772010
O O6 0.967237 0.207761 0.820420
O O7 0.867583 0.316961 0.840595
O O8 0.000000 0.293146 0.750000
O O9 0.164018 0.456724 0.500000
O O10 0.189208 0.418507 0.598429
O O11 0.000000 0.500000 0.569690
O O12 0.159266 0.818914 0.097325
O O13 0.915989 0.760528 0.096096
O O14 0.425168 0.177286 0.436569
O O15 0.602410 0.226797 0.500000
#
# Coordination Sequence:
#
# PCOD9495328 Si02
#       6
#    16  16  16  16  16  16
#     4  10  20  32  49  77 112 151 187 215 252 309
#     4   9  20  38  58  83 105 131 171 226 285 335
#     4  10  19  34  53  75 111 153 188 218 250 305
#     4  10  21  33  49  81 109 134 173 223 275 321
#     4  10  20  34  53  77 105 139 178 221 266 320
#     4  10  18  30  48  72 107 144 176 214 258 311
#
# _framework density 17.73499
#
# number of rings (size 3 to 8) (size 9 to 14) (size 15 to 20)
#    0.000    2.167    1.667    3.000    0.000    8.000 
#    0.000    1.667    0.000    0.500    0.000    1.167 
#    0.000    0.000    0.000    0.000    0.000    0.000 
#
# Total GULP energy -267490.080168 kJ/mol
# GULP energy per Si atom -5572.710003 kJ/mol
# Density = 1.769462 g / cm^3
# Si number density = 17.734990 Si / 1000 Ang^3
#
#
#
# Elastic Constant Matrix: (Units=GPa)
#
#
# Indices 1 2 3 4 5 6 
#
# 1 78.9556 22.5044 40.2772 0.0000 0.0000 0.0000
# 2 22.5044 84.8875 22.8663 0.0000 0.0000 0.0000
# 3 40.2772 22.8663 43.4493 0.0000 0.0000 0.0000
# 4 0.0000 0.0000 0.0000 27.6380 0.0000 0.0000
# 5 0.0000 0.0000 0.0000 0.0000 22.6176 0.0000
# 6 0.0000 0.0000 0.0000 0.0000 0.0000 26.9516
#
#
#
# Elastic Compliance Matrix: (Units=1/GPa)
#
#
# Indices 1 2 3 4 5 6 
#
# 1 0.024041 -0.000431 -0.022059 0.000000 0.000000 0.000000
# 2 -0.000431 0.013734 -0.006828 0.000000 0.000000 0.000000
# 3 -0.022059 -0.006828 0.047057 0.000000 0.000000 0.000000
# 4 0.000000 0.000000 0.000000 0.036182 0.000000 0.000000
# 5 0.000000 0.000000 0.000000 0.000000 0.044213 0.000000
# 6 0.000000 0.000000 0.000000 0.000000 0.000000 0.037104
#
#
# Mechanical properties :
#
#
# Convention : Reuss Voigt Hill
#
# Bulk Modulus (GPa) = 38.17416 42.06534 40.11975
# Shear Modulus (GPa) = 18.53920 23.55110 21.04515
#
# Velocity S-wave (km/s) = 3.23669 3.64805 3.44851
# Velocity P-wave (km/s) = 5.96152 6.44319 6.20703
#
# Compressibility (1/GPa) = 0.02619573
#
# Stress axis : x y z
#
# Youngs Moduli (GPa) = 41.59553 72.81254 21.25085
#
# Poissons Ratio (x) = 0.03142 0.46877
# Poissons Ratio (y) = 0.01795 0.14510
# Poissons Ratio (z) = 0.91755 0.49715
#
# Static dielectric constant tensor:
#      x y z
#    x 1.640310 0.000000 0.000000 
#    y 0.000000 1.632440 0.000000 
#    z 0.000000 0.000000 1.593920 
# 
# From -- ./inp_files/55655.got.cif
#   From: 2010.05.17/outbox.cif.g08.bks.cpg/sg66_28_cif.got.tgz:55655.got - 2010.06.03 17:51:23.
