data_PCOD9495265
_publ_section_title
;
Structure prediction by ZEFSAII (Michael W. Deem and Ramdas Pophale) SiO2 
 PCOD9495265
Probable space group: C C C M
;
_chemical_formula_sum "Si O2"
_cell_formula_units_Z 96
_cell_length_a 27.098713
_cell_length_b 29.681843
_cell_length_c 8.704919
_cell_angle_alpha 90.000000
_cell_angle_beta 90.000000
_cell_angle_gamma 90.000000
_cell_volume 7001.712327
_symmetry_space_group_name_H-M "C C C M"
_symmetry_group_IT_number 66
_symmetry_cell_setting 'orthorhombic'
loop_
_space_group_symop_operation_xyz
x,y,z
-x,-y,z
x,-y,1/2-z
-x,y,1/2-z
-x,-y,-z
x,y,-z
-x,y,1/2+z
x,-y,1/2+z
1/2+x,1/2+y,z
1/2-x,1/2-y,z
1/2+x,1/2-y,1/2-z
1/2-x,1/2+y,1/2-z
1/2-x,1/2-y,-z
1/2+x,1/2+y,-z
1/2-x,1/2+y,1/2+z
1/2+x,1/2-y,1/2+z
loop_
_atom_site_type_symbol
_atom_site_label
_atom_site_fract_x
_atom_site_fract_y
_atom_site_fract_z
Si Si1 0.353297 0.302380 0.684661
Si Si2 0.402367 0.548102 0.315849
Si Si3 0.291432 0.547374 0.815022
Si Si4 0.700156 0.777695 0.182580
Si Si5 0.052799 0.138749 0.315030
Si Si6 0.745199 0.356834 0.815507
O O1 0.352224 0.300174 0.500000
O O2 0.343540 0.252619 0.749626
O O3 0.403764 0.326668 0.730881
O O4 0.306909 0.333823 0.733097
O O5 0.419891 0.500000 0.250000
O O6 0.402651 0.547188 0.500000
O O7 0.346210 0.553811 0.254713
O O8 0.433367 0.589878 0.252449
O O9 0.272529 0.500000 0.750000
O O10 0.258730 0.590747 0.773991
O O11 0.296092 0.545322 0.000000
O O12 0.750000 0.750000 0.226032
O O13 0.710668 0.827416 0.246019
O O14 0.696512 0.778821 0.000000
O O15 0.051831 0.136068 0.500000
O O16 0.000000 0.152746 0.250000
O O17 0.747785 0.353539 0.000000
#
# Coordination Sequence:
#
# PCOD9495265 Si02
#       6
#    16  16  16  16  16  16
#     4   9  17  31  46  58  80 107 131 162 203 253
#     4  11  21  33  48  62  78 103 134 174 217 257
#     4  10  18  29  43  62  84 110 140 171 206 249
#     4   9  17  26  40  64  85 100 128 165 201 239
#     4  11  22  36  49  64  81 103 136 172 214 258
#     4   9  16  28  44  60  81 109 135 161 201 248
#
# _framework density 13.710933000000001
#
# number of rings (size 3 to 8) (size 9 to 14) (size 15 to 20)
#    0.000    2.167    1.667    4.000    0.000    5.000 
#    0.000    1.667    0.000    0.000    0.000    0.000 
#    0.000    0.000    0.000    0.000    0.000    0.833 
#
# Total GULP energy -267623.168654 kJ/mol
# GULP energy per Si atom -5575.482680 kJ/mol
# Density = 1.367973 g / cm^3
# Si number density = 13.710933 Si / 1000 Ang^3
#
#
#
# Elastic Constant Matrix: (Units=GPa)
#
#
# Indices 1 2 3 4 5 6 
#
# 1 55.1953 54.4041 23.4119 0.0000 0.0000 0.0000
# 2 54.4041 103.3688 32.0255 0.0000 0.0000 0.0000
# 3 23.4119 32.0255 45.1736 0.0000 0.0000 0.0000
# 4 0.0000 0.0000 0.0000 12.3856 0.0000 0.0000
# 5 0.0000 0.0000 0.0000 0.0000 -26.3230 0.0000
# 6 0.0000 0.0000 0.0000 0.0000 0.0000 19.6329
#
#
#
# Elastic Compliance Matrix: (Units=1/GPa)
#
#
# Indices 1 2 3 4 5 6 
#
# 1 0.039460 -0.018494 -0.007339 0.000000 0.000000 0.000000
# 2 -0.018494 0.021065 -0.005349 0.000000 0.000000 0.000000
# 3 -0.007339 -0.005349 0.029733 0.000000 0.000000 0.000000
# 4 0.000000 0.000000 0.000000 0.080739 0.000000 0.000000
# 5 0.000000 0.000000 0.000000 0.000000 -0.037990 0.000000
# 6 0.000000 0.000000 0.000000 0.000000 0.000000 0.050935
#
#
# Mechanical properties :
#
#
# Convention : Reuss Voigt Hill
#
# Bulk Modulus (GPa) = 35.85202 47.04675 41.44939
# Shear Modulus (GPa) = 19.56154 7.39885 13.48019
#
# Velocity S-wave (km/s) = 3.78128 2.32552 3.13896
# Velocity P-wave (km/s) = 6.72825 6.44969 6.59044
#
# Compressibility (1/GPa) = 0.02789243
#
# Stress axis : x y z
#
# Youngs Moduli (GPa) = 25.34240 47.47212 33.63315
#
# Poissons Ratio (x) = 0.87796 0.24684
# Poissons Ratio (y) = 0.46869 0.17990
# Poissons Ratio (z) = 0.18599 0.25393
#
# Static dielectric constant tensor:
#      x y z
#    x 1.429600 0.000000 0.000000 
#    y 0.000000 1.468710 0.000000 
#    z 0.000000 0.000000 1.457490 
# 
# From -- ./inp_files/9273.got.cif
#   From: 2010.05.17/outbox.cif.g08.bks.cpg/sg66_5_cif.got.tgz:9273.got - 2010.06.03 17:51:23.
