data_PCOD9495419
_publ_section_title
;
Structure prediction by ZEFSAII (Michael W. Deem and Ramdas Pophale) SiO2 
 PCOD9495419
Probable space group: C C C M
;
_chemical_formula_sum "Si O2"
_cell_formula_units_Z 96
_cell_length_a 11.906649
_cell_length_b 21.944657
_cell_length_c 14.070317
_cell_angle_alpha 90.000000
_cell_angle_beta 90.000000
_cell_angle_gamma 90.000000
_cell_volume 3676.395538
_symmetry_space_group_name_H-M "C C C M"
_symmetry_group_IT_number 66
_symmetry_cell_setting 'orthorhombic'
loop_
_space_group_symop_operation_xyz
x,y,z
-x,-y,z
x,-y,1/2-z
-x,y,1/2-z
-x,-y,-z
x,y,-z
-x,y,1/2+z
x,-y,1/2+z
1/2+x,1/2+y,z
1/2-x,1/2-y,z
1/2+x,1/2-y,1/2-z
1/2-x,1/2+y,1/2-z
1/2-x,1/2-y,-z
1/2+x,1/2+y,-z
1/2-x,1/2+y,1/2+z
1/2+x,1/2-y,1/2+z
loop_
_atom_site_type_symbol
_atom_site_label
_atom_site_fract_x
_atom_site_fract_y
_atom_site_fract_z
Si Si1 0.922443 0.810053 0.605531
Si Si2 0.719096 0.117454 0.883281
Si Si3 0.466579 0.899009 0.613374
Si Si4 0.774679 0.480821 0.614092
Si Si5 0.039369 0.934534 0.641969
Si Si6 0.871282 0.268393 0.386232
O O1 0.896823 0.784530 0.500000
O O2 0.803537 0.829924 0.650959
O O3 0.984441 0.875380 0.597174
O O4 0.017212 0.766599 0.648762
O O5 0.590042 0.118578 0.850939
O O6 0.755972 0.049067 0.854180
O O7 0.723220 0.120889 0.000000
O O8 0.483556 0.910043 0.500000
O O9 0.393835 0.955772 0.649827
O O10 0.390231 0.839828 0.624275
O O11 0.783747 0.484034 0.500000
O O12 0.673271 0.435555 0.635625
O O13 0.000000 0.932775 0.750000
O O14 0.000000 0.000000 0.602334
O O15 0.869460 0.254497 0.500000
O O16 0.750000 0.250000 0.347630
#
# Coordination Sequence:
#
# PCOD9495419 Si02
#       6
#    16  16  16  16  16  16
#     4  10  19  32  52  78 107 138 176 221 265 316
#     4   9  17  28  46  77 111 140 173 216 265 319
#     4   9  17  29  48  79 113 140 172 218 269 317
#     4  10  18  31  53  79 109 141 177 219 264 320
#     4  11  22  34  50  76 103 137 172 215 268 317
#     4   9  17  29  46  74 109 140 175 218 264 313
#
# _framework density 26.112532999999999
#
# number of rings (size 3 to 8) (size 9 to 14) (size 15 to 20)
#    0.000    2.333    1.667    2.000    0.000    6.000 
#    0.000    3.333    0.000    1.000   13.000    0.000 
#    0.000    0.000    0.000    0.000    0.000    0.000 
#
# Total GULP energy -268524.582420 kJ/mol
# GULP energy per Si atom -5594.262134 kJ/mol
# Density = 2.605310 g / cm^3
# Si number density = 26.112533 Si / 1000 Ang^3
#
#
#
# Elastic Constant Matrix: (Units=GPa)
#
#
# Indices 1 2 3 4 5 6 
#
# 1 198.1581 33.9303 10.8607 0.0000 0.0000 0.0000
# 2 33.9303 41.2366 16.9902 0.0000 0.0000 0.0000
# 3 10.8607 16.9902 92.1018 0.0000 0.0000 0.0000
# 4 0.0000 0.0000 0.0000 28.9216 0.0000 0.0000
# 5 0.0000 0.0000 0.0000 0.0000 -0.2638 0.0000
# 6 0.0000 0.0000 0.0000 0.0000 0.0000 55.5636
#
#
#
# Elastic Compliance Matrix: (Units=1/GPa)
#
#
# Indices 1 2 3 4 5 6 
#
# 1 0.005878 -0.004925 0.000215 0.000000 0.000000 0.000000
# 2 -0.004925 0.030372 -0.005022 0.000000 0.000000 0.000000
# 3 0.000215 -0.005022 0.011759 0.000000 0.000000 0.000000
# 4 0.000000 0.000000 0.000000 0.034576 0.000000 0.000000
# 5 0.000000 0.000000 0.000000 0.000000 -3.791095 0.000000
# 6 0.000000 0.000000 0.000000 0.000000 0.000000 0.017997
#
#
# Mechanical properties :
#
#
# Convention : Reuss Voigt Hill
#
# Bulk Modulus (GPa) = 35.03246 50.56209 42.79728
# Shear Modulus (GPa) = -1.36555 34.82531 16.72988
#
# Velocity S-wave (km/s) = -0.72394 3.65590 2.53392
# Velocity P-wave (km/s) = 3.57020 6.10131 4.99861
#
# Compressibility (1/GPa) = 0.02854495
#
# Stress axis : x y z
#
# Youngs Moduli (GPa) = 170.12526 32.92493 85.04445
#
# Poissons Ratio (x) = 0.16217 -0.01832
# Poissons Ratio (y) = 0.83792 0.42709
# Poissons Ratio (z) = -0.03665 0.16535
#
# Static dielectric constant tensor:
#      x y z
#    x 2.059070 0.000000 0.000000 
#    y 0.000000 2.005090 0.000000 
#    z 0.000000 0.000000 2.034230 
# 
# From -- ./inp_files/48819.got.cif
#   From: 2010.05.17/outbox.cif.g08.bks.cpg/sg66_25_cif.got.tgz:48819.got - 2010.06.03 17:51:23.
