data_PCOD9495553
_publ_section_title
;
Structure prediction by ZEFSAII (Michael W. Deem and Ramdas Pophale) SiO2 
 PCOD9495553
Probable space group: C C C M
;
_chemical_formula_sum "Si O2"
_cell_formula_units_Z 84
_cell_length_a 9.805439
_cell_length_b 16.756495
_cell_length_c 23.234840
_cell_angle_alpha 90.000000
_cell_angle_beta 90.000000
_cell_angle_gamma 90.000000
_cell_volume 3817.595497
_symmetry_space_group_name_H-M "C C C M"
_symmetry_group_IT_number 66
_symmetry_cell_setting 'orthorhombic'
loop_
_space_group_symop_operation_xyz
x,y,z
-x,-y,z
x,-y,1/2-z
-x,y,1/2-z
-x,-y,-z
x,y,-z
-x,y,1/2+z
x,-y,1/2+z
1/2+x,1/2+y,z
1/2-x,1/2-y,z
1/2+x,1/2-y,1/2-z
1/2-x,1/2+y,1/2-z
1/2-x,1/2-y,-z
1/2+x,1/2+y,-z
1/2-x,1/2+y,1/2+z
1/2+x,1/2-y,1/2+z
loop_
_atom_site_type_symbol
_atom_site_label
_atom_site_fract_x
_atom_site_fract_y
_atom_site_fract_z
Si Si1 0.000000 0.000000 0.750000
Si Si2 0.575478 0.324896 0.500000
Si Si3 0.619698 0.132838 0.500000
Si Si4 0.008732 0.618908 0.623676
Si Si5 0.759639 0.100918 0.693550
Si Si6 0.757486 0.156406 0.178730
Si Si7 0.027426 0.188378 0.873907
O O1 0.116074 0.958182 0.709238
O O2 0.603000 0.229391 0.500000
O O3 0.716364 0.374654 0.500000
O O4 0.500937 0.337168 0.560362
O O5 0.549483 0.101417 0.558055
O O6 0.115842 0.576072 0.666046
O O7 0.851329 0.607887 0.641329
O O8 0.024831 0.715647 0.631841
O O9 0.728060 0.143043 0.754348
O O10 0.825401 0.159780 0.646641
O O11 0.750000 0.250000 0.164351
O O12 0.915394 0.144128 0.165037
#
# Coordination Sequence:
#
# PCOD9495553 Si02
#       7
#     4   8   8  16  16  16  16
#     4  12  28  40  58  78 112 160 202 250 282 332
#     4   9  16  27  51  85 114 157 185 214 284 346
#     4   9  16  29  49  85 123 146 181 223 283 355
#     4  10  20  32  58  88 117 148 182 232 295 349
#     4  12  21  38  55  77 110 150 198 238 286 334
#     4  10  20  33  54  89 120 146 181 233 296 347
#     4  10  18  33  57  84 119 149 183 234 282 351
#
# _framework density 22.003378000000001
#
# number of rings (size 3 to 8) (size 9 to 14) (size 15 to 20)
#    0.000    1.714    3.810    2.286    0.000    3.810 
#    0.000    5.714    0.000    2.286    0.000    1.333 
#    0.000    0.000    0.000    0.000    0.000    0.000 
#
# Total GULP energy -234102.856177 kJ/mol
# GULP energy per Si atom -5573.877528 kJ/mol
# Density = 2.195330 g / cm^3
# Si number density = 22.003378 Si / 1000 Ang^3
#
#
#
# Elastic Constant Matrix: (Units=GPa)
#
#
# Indices 1 2 3 4 5 6 
#
# 1 113.2768 16.6270 15.5672 0.0000 0.0000 0.0000
# 2 16.6270 46.8416 -0.8758 0.0000 0.0000 0.0000
# 3 15.5672 -0.8758 94.8047 0.0000 0.0000 0.0000
# 4 0.0000 0.0000 0.0000 122.3729 0.0000 0.0000
# 5 0.0000 0.0000 0.0000 0.0000 -88.5601 0.0000
# 6 0.0000 0.0000 0.0000 0.0000 0.0000 -12.5447
#
#
#
# Elastic Compliance Matrix: (Units=1/GPa)
#
#
# Indices 1 2 3 4 5 6 
#
# 1 0.009550 -0.003420 -0.001600 0.000000 0.000000 0.000000
# 2 -0.003420 0.022577 0.000770 0.000000 0.000000 0.000000
# 3 -0.001600 0.000770 0.010818 0.000000 0.000000 0.000000
# 4 0.000000 0.000000 0.000000 0.008172 0.000000 0.000000
# 5 0.000000 0.000000 0.000000 0.000000 -0.011292 0.000000
# 6 0.000000 0.000000 0.000000 0.000000 0.000000 -0.079715
#
#
# Mechanical properties :
#
#
# Convention : Reuss Voigt Hill
#
# Bulk Modulus (GPa) = 29.03115 35.28441 32.15778
# Shear Modulus (GPa) = -251.12669 19.16060 -115.98305
#
# Velocity S-wave (km/s) = -10.69480 2.95414 -7.26814
# Velocity P-wave (km/s) = 11.80180 5.26371 7.46913
#
# Compressibility (1/GPa) = 0.03444576
#
# Stress axis : x y z
#
# Youngs Moduli (GPa) = 104.71510 44.29323 92.44032
#
# Poissons Ratio (x) = 0.15147 0.14788
# Poissons Ratio (y) = 0.35809 -0.07119
# Poissons Ratio (z) = 0.16751 -0.03411
#
# Static dielectric constant tensor:
#      x y z
#    x 1.800300 0.000000 0.000000 
#    y 0.000000 1.848640 0.000000 
#    z 0.000000 0.000000 1.782560 
# 
# From -- ./inp_files/55574.got.cif
#   From: 2010.05.17/outbox.cif.g08.bks.cpg/sg66_28_cif.got.tgz:55574.got - 2010.06.03 17:51:23.
