data_PCOD9495570
_publ_section_title
;
Structure prediction by ZEFSAII (Michael W. Deem and Ramdas Pophale) SiO2 
 PCOD9495570
Probable space group: C C C M
;
_chemical_formula_sum "Si O2"
_cell_formula_units_Z 112
_cell_length_a 14.142476
_cell_length_b 23.810188
_cell_length_c 16.568186
_cell_angle_alpha 90.000000
_cell_angle_beta 90.000000
_cell_angle_gamma 90.000000
_cell_volume 5579.088317
_symmetry_space_group_name_H-M "C C C M"
_symmetry_group_IT_number 66
_symmetry_cell_setting 'orthorhombic'
loop_
_space_group_symop_operation_xyz
x,y,z
-x,-y,z
x,-y,1/2-z
-x,y,1/2-z
-x,-y,-z
x,y,-z
-x,y,1/2+z
x,-y,1/2+z
1/2+x,1/2+y,z
1/2-x,1/2-y,z
1/2+x,1/2-y,1/2-z
1/2-x,1/2+y,1/2-z
1/2-x,1/2-y,-z
1/2+x,1/2+y,-z
1/2-x,1/2+y,1/2+z
1/2+x,1/2-y,1/2+z
loop_
_atom_site_type_symbol
_atom_site_label
_atom_site_fract_x
_atom_site_fract_y
_atom_site_fract_z
Si Si1 0.895509 0.157701 0.403461
Si Si2 0.005945 0.259972 0.156052
Si Si3 0.414308 0.935284 0.405513
Si Si4 0.097571 0.028986 0.098719
Si Si5 0.404729 0.865066 0.902294
Si Si6 0.309414 0.822768 0.405759
Si Si7 0.787256 0.534430 0.598809
O O1 0.885777 0.154813 0.500000
O O2 0.981519 0.199271 0.384537
O O3 0.902306 0.093811 0.373920
O O4 0.796268 0.184798 0.374002
O O5 0.103030 0.292980 0.135979
O O6 0.000000 0.250915 0.250000
O O7 0.922980 0.302247 0.128365
O O8 0.436168 0.945526 0.500000
O O9 0.506328 0.903405 0.372975
O O10 0.330865 0.889339 0.402917
O O11 0.371628 0.992815 0.372736
O O12 0.188273 0.992452 0.125094
O O13 0.100443 0.029709 0.000000
O O14 0.000000 0.000000 0.123064
O O15 0.313249 0.901675 0.878583
O O16 0.409410 0.862214 0.000000
O O17 0.314621 0.805707 0.500000
O O18 0.788164 0.532690 0.500000
#
# Coordination Sequence:
#
# PCOD9495570 Si02
#       7
#    16  16  16  16  16  16  16
#     4  10  18  33  60  87 109 135 180 242 289 319
#     4  11  22  33  48  75 114 152 178 213 273 342
#     4   8  12  21  41  76 108 128 158 210 275 326
#     4   9  17  29  51  85 112 128 163 229 293 327
#     4   9  17  28  47  74 107 143 178 215 258 327
#     4   9  16  30  56  86 108 132 178 238 282 318
#     4   9  14  24  45  75 108 135 166 214 272 325
#
# _framework density 20.074964000000001
#
# number of rings (size 3 to 8) (size 9 to 14) (size 15 to 20)
#    0.000    2.714    1.429    3.000    0.000    2.857 
#    0.000    0.000    6.286    7.286    0.000    5.000 
#    0.000    0.000    0.000    0.000    0.000    0.000 
#
# Total GULP energy -311978.314619 kJ/mol
# GULP energy per Si atom -5571.041332 kJ/mol
# Density = 2.002927 g / cm^3
# Si number density = 20.074964 Si / 1000 Ang^3
#
#
#
# Elastic Constant Matrix: (Units=GPa)
#
#
# Indices 1 2 3 4 5 6 
#
# 1 55.3222 52.2318 5.5060 0.0000 0.0000 0.0000
# 2 52.2318 110.3246 2.8059 0.0000 0.0000 0.0000
# 3 5.5060 2.8059 4.6884 0.0000 0.0000 0.0000
# 4 0.0000 0.0000 0.0000 45.8748 0.0000 0.0000
# 5 0.0000 0.0000 0.0000 0.0000 -0.0482 0.0000
# 6 0.0000 0.0000 0.0000 0.0000 0.0000 34.9550
#
#
#
# Elastic Compliance Matrix: (Units=1/GPa)
#
#
# Indices 1 2 3 4 5 6 
#
# 1 0.037294 -0.016798 -0.033745 0.000000 0.000000 0.000000
# 2 -0.016798 0.016771 0.009691 0.000000 0.000000 0.000000
# 3 -0.033745 0.009691 0.247122 0.000000 0.000000 0.000000
# 4 0.000000 0.000000 0.000000 0.021798 0.000000 0.000000
# 5 0.000000 0.000000 0.000000 0.000000-20.736267 0.000000
# 6 0.000000 0.000000 0.000000 0.000000 0.000000 0.028608
#
#
# Mechanical properties :
#
#
# Convention : Reuss Voigt Hill
#
# Bulk Modulus (GPa) = 4.55616 32.38028 18.46822
# Shear Modulus (GPa) = -0.24716 23.47576 11.61430
#
# Velocity S-wave (km/s) = -0.35126 3.42337 2.40791
# Velocity P-wave (km/s) = 1.45258 5.63832 4.11707
#
# Compressibility (1/GPa) = 0.21948290
#
# Stress axis : x y z
#
# Youngs Moduli (GPa) = 26.81366 59.62795 4.04658
#
# Poissons Ratio (x) = 1.00165 0.13655
# Poissons Ratio (y) = 0.45043 -0.03922
# Poissons Ratio (z) = 0.90483 -0.57786
#
# Static dielectric constant tensor:
#      x y z
#    x 1.753740 0.000000 0.000000 
#    y 0.000000 1.775960 0.000000 
#    z 0.000000 0.000000 1.690520 
# 
# From -- ./inp_files/28660.got.cif
#   From: 2010.05.17/outbox.cif.g08.bks.cpg/sg66_15_cif.got.tgz:28660.got - 2010.06.03 17:51:23.
