data_PCOD9495789
_publ_section_title
;
Structure prediction by ZEFSAII (Michael W. Deem and Ramdas Pophale) SiO2 
 PCOD9495789
Probable space group: C C C M
;
_chemical_formula_sum "Si O2"
_cell_formula_units_Z 112
_cell_length_a 19.394948
_cell_length_b 19.863231
_cell_length_c 16.203751
_cell_angle_alpha 90.000000
_cell_angle_beta 90.000000
_cell_angle_gamma 90.000000
_cell_volume 6242.435643
_symmetry_space_group_name_H-M "C C C M"
_symmetry_group_IT_number 66
_symmetry_cell_setting 'orthorhombic'
loop_
_space_group_symop_operation_xyz
x,y,z
-x,-y,z
x,-y,1/2-z
-x,y,1/2-z
-x,-y,-z
x,y,-z
-x,y,1/2+z
x,-y,1/2+z
1/2+x,1/2+y,z
1/2-x,1/2-y,z
1/2+x,1/2-y,1/2-z
1/2-x,1/2+y,1/2-z
1/2-x,1/2-y,-z
1/2+x,1/2+y,-z
1/2-x,1/2+y,1/2+z
1/2+x,1/2-y,1/2+z
loop_
_atom_site_type_symbol
_atom_site_label
_atom_site_fract_x
_atom_site_fract_y
_atom_site_fract_z
Si Si1 0.717024 0.325897 0.721697
Si Si2 0.932729 0.612082 0.703603
Si Si3 0.692858 0.309172 0.905279
Si Si4 0.104780 0.214208 0.094604
Si Si5 0.083697 0.501092 0.590162
Si Si6 0.350420 0.859313 0.358118
Si Si7 0.544024 0.759741 0.596499
O O1 0.750000 0.250000 0.724230
O O2 0.708606 0.347080 0.817994
O O3 0.647995 0.321255 0.666954
O O4 0.770879 0.367478 0.665814
O O5 0.894164 0.551232 0.659779
O O6 0.886306 0.649438 0.769466
O O7 0.956928 0.668526 0.640537
O O8 0.000000 0.584763 0.750000
O O9 0.750000 0.250000 0.908713
O O10 0.616866 0.277202 0.891186
O O11 0.693249 0.339216 0.000000
O O12 0.133337 0.291280 0.093278
O O13 0.024281 0.218256 0.119154
O O14 0.111750 0.187933 0.000000
O O15 0.104704 0.476096 0.500000
O O16 0.114564 0.574800 0.603569
O O17 0.000000 0.500000 0.591954
O O18 0.537297 0.773201 0.500000
#
# Coordination Sequence:
#
# PCOD9495789 Si02
#       7
#    16  16  16  16  16  16  16
#     4   9  19  31  46  67  89 122 164 205 254 303
#     4  12  20  30  48  64  90 127 164 215 249 292
#     4   9  17  30  47  67  96 126 160 203 245 301
#     4  10  19  31  46  69  96 124 164 207 247 300
#     4  11  22  34  46  63  89 123 168 214 256 296
#     4  11  21  32  47  65  89 126 169 209 256 300
#     4  10  19  30  47  72  97 130 167 202 251 301
#
# _framework density 17.941714999999999
#
# number of rings (size 3 to 8) (size 9 to 14) (size 15 to 20)
#    0.000    1.714    2.857    3.857    0.000    5.429 
#    0.000    0.714    0.000    0.000    0.000    0.000 
#    0.000    0.000    0.000   21.857    0.000  119.429 
#
# Total GULP energy -312040.572986 kJ/mol
# GULP energy per Si atom -5572.153089 kJ/mol
# Density = 1.790088 g / cm^3
# Si number density = 17.941715 Si / 1000 Ang^3
#
#
#
# Elastic Constant Matrix: (Units=GPa)
#
#
# Indices 1 2 3 4 5 6 
#
# 1 102.0538 4.2497 37.8017 0.0000 0.0000 0.0000
# 2 4.2497 13.7722 9.8973 0.0000 0.0000 0.0000
# 3 37.8017 9.8973 60.0239 0.0000 0.0000 0.0000
# 4 0.0000 0.0000 0.0000 -1.2761 0.0000 0.0000
# 5 0.0000 0.0000 0.0000 0.0000 11.6045 0.0000
# 6 0.0000 0.0000 0.0000 0.0000 0.0000 15.6394
#
#
#
# Elastic Compliance Matrix: (Units=1/GPa)
#
#
# Indices 1 2 3 4 5 6 
#
# 1 0.012833 0.002097 -0.008428 0.000000 0.000000 0.000000
# 2 0.002097 0.082713 -0.014959 0.000000 0.000000 0.000000
# 3 -0.008428 -0.014959 0.024434 0.000000 0.000000 0.000000
# 4 0.000000 0.000000 0.000000 -0.783647 0.000000 0.000000
# 5 0.000000 0.000000 0.000000 0.000000 0.086174 0.000000
# 6 0.000000 0.000000 0.000000 0.000000 0.000000 0.063941
#
#
# Mechanical properties :
#
#
# Convention : Reuss Voigt Hill
#
# Bulk Modulus (GPa) = 12.91985 31.08304 22.00144
# Shear Modulus (GPa) = -11.23162 13.45365 1.11101
#
# Velocity S-wave (km/s) = -2.50473 2.74131 0.78777
# Velocity P-wave (km/s) = 1.07155 5.23276 3.62171
#
# Compressibility (1/GPa) = 0.07740028
#
# Stress axis : x y z
#
# Youngs Moduli (GPa) = 77.92313 12.08999 40.92623
#
# Poissons Ratio (x) = -0.02535 0.34492
# Poissons Ratio (y) = -0.16338 0.61221
# Poissons Ratio (z) = 0.65672 0.18085
#
# Static dielectric constant tensor:
#      x y z
#    x 1.681080 0.000000 0.000000 
#    y 0.000000 1.586810 0.000000 
#    z 0.000000 0.000000 1.681530 
# 
# From -- ./inp_files/41967.got.cif
#   From: 2010.05.17/outbox.cif.g08.bks.cpg/sg66_21_cif.got.tgz:41967.got - 2010.06.03 17:51:23.
