data_PCOD9495953
_publ_section_title
;
Structure prediction by ZEFSAII (Michael W. Deem and Ramdas Pophale) SiO2 
 PCOD9495953
Probable space group: C C C M
;
_chemical_formula_sum "Si O2"
_cell_formula_units_Z 104
_cell_length_a 27.468201
_cell_length_b 22.012898
_cell_length_c 9.848410
_cell_angle_alpha 90.000000
_cell_angle_beta 90.000000
_cell_angle_gamma 90.000000
_cell_volume 5954.887462
_symmetry_space_group_name_H-M "C C C M"
_symmetry_group_IT_number 66
_symmetry_cell_setting 'orthorhombic'
loop_
_space_group_symop_operation_xyz
x,y,z
-x,-y,z
x,-y,1/2-z
-x,y,1/2-z
-x,-y,-z
x,y,-z
-x,y,1/2+z
x,-y,1/2+z
1/2+x,1/2+y,z
1/2-x,1/2-y,z
1/2+x,1/2-y,1/2-z
1/2-x,1/2+y,1/2-z
1/2-x,1/2-y,-z
1/2+x,1/2+y,-z
1/2-x,1/2+y,1/2+z
1/2+x,1/2-y,1/2+z
loop_
_atom_site_type_symbol
_atom_site_label
_atom_site_fract_x
_atom_site_fract_y
_atom_site_fract_z
Si Si1 0.045653 0.745221 0.342735
Si Si2 0.219132 0.500000 0.250000
Si Si3 0.369009 0.924670 0.147355
Si Si4 0.731603 0.380737 0.654695
Si Si5 0.047339 0.598958 0.340759
Si Si6 0.804947 0.691773 0.656522
Si Si7 0.349742 0.705909 0.658781
O O1 0.033737 0.756203 0.500000
O O2 0.054818 0.672374 0.330378
O O3 0.093758 0.783669 0.308293
O O4 0.000000 0.760352 0.250000
O O5 0.180293 0.535983 0.156856
O O6 0.252988 0.549841 0.321330
O O7 0.405873 0.932150 0.271775
O O8 0.349812 0.855569 0.154829
O O9 0.392680 0.934668 0.000000
O O10 0.746095 0.364399 0.500000
O O11 0.762410 0.342222 0.762487
O O12 0.675505 0.360065 0.669972
O O13 0.041737 0.584144 0.500000
O O14 0.000000 0.584318 0.250000
O O15 0.792758 0.704512 0.500000
O O16 0.820316 0.749844 0.742404
O O17 0.344235 0.724965 0.500000
#
# Coordination Sequence:
#
# PCOD9495953 Si02
#       7
#    16   8  16  16  16  16  16
#     4   9  18  31  49  76 108 139 169 204 250 309
#     4  10  22  38  55  76  97 132 180 224 264 302
#     4  10  20  34  52  73 100 135 175 217 260 306
#     4  10  21  36  55  74 101 139 176 217 261 310
#     4  10  19  32  52  76 103 135 171 212 258 307
#     4  10  20  32  49  76 109 139 171 213 260 309
#     4  10  19  33  52  78 107 138 174 209 255 315
#
# _framework density 17.464645999999998
#
# number of rings (size 3 to 8) (size 9 to 14) (size 15 to 20)
#    0.000    2.154    1.538    1.846    0.000    7.385 
#    0.000    0.385    0.000    1.846    0.000    0.538 
#    0.000    3.692    0.000    0.000    0.000    0.000 
#
# Total GULP energy -289917.310805 kJ/mol
# GULP energy per Si atom -5575.332900 kJ/mol
# Density = 1.742490 g / cm^3
# Si number density = 17.464646 Si / 1000 Ang^3
#
#
#
# Elastic Constant Matrix: (Units=GPa)
#
#
# Indices 1 2 3 4 5 6 
#
# 1 95.5988 53.1515 62.2592 0.0000 0.0000 0.0000
# 2 53.1515 63.5101 35.2933 0.0000 0.0000 0.0000
# 3 62.2592 35.2933 110.2400 0.0000 0.0000 0.0000
# 4 0.0000 0.0000 0.0000 5.9697 0.0000 0.0000
# 5 0.0000 0.0000 0.0000 0.0000 24.6541 0.0000
# 6 0.0000 0.0000 0.0000 0.0000 0.0000 23.4886
#
#
#
# Elastic Compliance Matrix: (Units=1/GPa)
#
#
# Indices 1 2 3 4 5 6 
#
# 1 0.025444 -0.016189 -0.009187 0.000000 0.000000 0.000000
# 2 -0.016189 0.029453 -0.000287 0.000000 0.000000 0.000000
# 3 -0.009187 -0.000287 0.014351 0.000000 0.000000 0.000000
# 4 0.000000 0.000000 0.000000 0.167511 0.000000 0.000000
# 5 0.000000 0.000000 0.000000 0.000000 0.040561 0.000000
# 6 0.000000 0.000000 0.000000 0.000000 0.000000 0.042574
#
#
# Mechanical properties :
#
#
# Convention : Reuss Voigt Hill
#
# Bulk Modulus (GPa) = 55.79180 63.41744 59.60462
# Shear Modulus (GPa) = 13.25573 18.73213 15.99393
#
# Velocity S-wave (km/s) = 2.75799 3.27857 3.02948
# Velocity P-wave (km/s) = 6.49284 7.12199 6.81468
#
# Compressibility (1/GPa) = 0.01792378
#
# Stress axis : x y z
#
# Youngs Moduli (GPa) = 39.30152 33.95206 69.67987
#
# Poissons Ratio (x) = 0.54965 0.64015
# Poissons Ratio (y) = 0.63625 0.01997
# Poissons Ratio (z) = 0.36107 0.00973
#
# Static dielectric constant tensor:
#      x y z
#    x 1.598710 0.000000 0.000000 
#    y 0.000000 1.611730 0.000000 
#    z 0.000000 0.000000 1.602570 
# 
# From -- ./inp_files/9575.got.cif
#   From: 2010.05.17/outbox.cif.g08.bks.cpg/sg66_5_cif.got.tgz:9575.got - 2010.06.03 17:51:23.
