data_PCOD9495478
_publ_section_title
;
Structure prediction by ZEFSAII (Michael W. Deem and Ramdas Pophale) SiO2 
 PCOD9495478
Probable space group: C C C M
;
_chemical_formula_sum "Si O2"
_cell_formula_units_Z 80
_cell_length_a 31.723741
_cell_length_b 14.795247
_cell_length_c 8.486770
_cell_angle_alpha 90.000000
_cell_angle_beta 90.000000
_cell_angle_gamma 90.000000
_cell_volume 3983.355322
_symmetry_space_group_name_H-M "C C C M"
_symmetry_group_IT_number 66
_symmetry_cell_setting 'orthorhombic'
loop_
_space_group_symop_operation_xyz
x,y,z
-x,-y,z
x,-y,1/2-z
-x,y,1/2-z
-x,-y,-z
x,y,-z
-x,y,1/2+z
x,-y,1/2+z
1/2+x,1/2+y,z
1/2-x,1/2-y,z
1/2+x,1/2-y,1/2-z
1/2-x,1/2+y,1/2-z
1/2-x,1/2-y,-z
1/2+x,1/2+y,-z
1/2-x,1/2+y,1/2+z
1/2+x,1/2-y,1/2+z
loop_
_atom_site_type_symbol
_atom_site_label
_atom_site_fract_x
_atom_site_fract_y
_atom_site_fract_z
Si Si1 0.704297 0.772134 0.684884
Si Si2 0.652581 0.588054 0.317175
Si Si3 0.455808 0.793324 0.186992
Si Si4 0.128967 0.397517 0.691817
Si Si5 0.060627 0.096855 0.182962
O O1 0.711543 0.796731 0.500000
O O2 0.750000 0.750000 0.756805
O O3 0.679139 0.678363 0.689751
O O4 0.671804 0.847319 0.748128
O O5 0.675953 0.500000 0.250000
O O6 0.639998 0.574416 0.500000
O O7 0.610935 0.597534 0.212402
O O8 0.500000 0.831833 0.250000
O O9 0.413125 0.842975 0.244333
O O10 0.454286 0.687571 0.232047
O O11 0.455991 0.800425 0.000000
O O12 0.127310 0.500000 0.750000
O O13 0.129242 0.394956 0.500000
O O14 0.046353 0.000000 0.250000
O O15 0.050086 0.102524 0.000000
#
# Coordination Sequence:
#
# PCOD9495478 Si02
#       5
#    16  16  16  16  16
#     4   9  18  35  59  85 117 158 196 237 295 357
#     4  10  18  32  54  82 115 151 192 236 286 347
#     4  11  23  41  62  89 121 157 203 252 304 358
#     4  10  22  41  63  87 119 158 202 251 301 356
#     4  11  21  35  58  87 119 157 196 239 293 355
#
# _framework density 20.083570000000002
#
# number of rings (size 3 to 8) (size 9 to 14) (size 15 to 20)
#    0.000    1.800    2.000    4.200    0.000    3.200 
#    0.000    4.000    0.000    4.200    0.000    0.000 
#    0.000    0.000    0.000    0.000    0.000    0.000 
#
# Total GULP energy -223205.772064 kJ/mol
# GULP energy per Si atom -5580.144302 kJ/mol
# Density = 2.003786 g / cm^3
# Si number density = 20.083570 Si / 1000 Ang^3
#
#
#
# Elastic Constant Matrix: (Units=GPa)
#
#
# Indices 1 2 3 4 5 6 
#
# 1 150.6230 64.0312 17.7950 0.0000 0.0000 0.0000
# 2 64.0312 120.1578 12.6444 0.0000 0.0000 0.0000
# 3 17.7950 12.6444 33.8426 0.0000 0.0000 0.0000
# 4 0.0000 0.0000 0.0000 25.3717 0.0000 0.0000
# 5 0.0000 0.0000 0.0000 0.0000 17.8171 0.0000
# 6 0.0000 0.0000 0.0000 0.0000 0.0000 -0.8710
#
#
#
# Elastic Compliance Matrix: (Units=1/GPa)
#
#
# Indices 1 2 3 4 5 6 
#
# 1 0.008870 -0.004409 -0.003017 0.000000 0.000000 0.000000
# 2 -0.004409 0.010855 -0.001737 0.000000 0.000000 0.000000
# 3 -0.003017 -0.001737 0.031784 0.000000 0.000000 0.000000
# 4 0.000000 0.000000 0.000000 0.039414 0.000000 0.000000
# 5 0.000000 0.000000 0.000000 0.000000 0.056126 0.000000
# 6 0.000000 0.000000 0.000000 0.000000 0.000000 -1.148157
#
#
# Mechanical properties :
#
#
# Convention : Reuss Voigt Hill
#
# Bulk Modulus (GPa) = 30.13627 54.84052 42.48839
# Shear Modulus (GPa) = -5.14551 22.47375 8.66412
#
# Velocity S-wave (km/s) = -1.60238 3.34879 2.07928
# Velocity P-wave (km/s) = 3.40801 6.50523 5.19290
#
# Compressibility (1/GPa) = 0.03318261
#
# Stress axis : x y z
#
# Youngs Moduli (GPa) = 112.74092 92.12466 31.46258
#
# Poissons Ratio (x) = 0.40620 0.09491
# Poissons Ratio (y) = 0.49710 0.05466
# Poissons Ratio (z) = 0.34009 0.16004
#
# Static dielectric constant tensor:
#      x y z
#    x 1.759350 0.000000 0.000000 
#    y 0.000000 1.706140 0.000000 
#    z 0.000000 0.000000 1.700680 
# 
# From -- ./inp_files/11359.got.cif
#   From: 2010.05.17/outbox.cif.g08.bks.cpg/sg66_6_cif.got.tgz:11359.got - 2010.06.03 17:51:23.
