data_PCOD9495522
_publ_section_title
;
Structure prediction by ZEFSAII (Michael W. Deem and Ramdas Pophale) SiO2 
 PCOD9495522
Probable space group: C C C M
;
_chemical_formula_sum "Si O2"
_cell_formula_units_Z 48
_cell_length_a 16.633490
_cell_length_b 8.217671
_cell_length_c 14.962203
_cell_angle_alpha 90.000000
_cell_angle_beta 90.000000
_cell_angle_gamma 90.000000
_cell_volume 2045.161809
_symmetry_space_group_name_H-M "C C C M"
_symmetry_group_IT_number 66
_symmetry_cell_setting 'orthorhombic'
loop_
_space_group_symop_operation_xyz
x,y,z
-x,-y,z
x,-y,1/2-z
-x,y,1/2-z
-x,-y,-z
x,y,-z
-x,y,1/2+z
x,-y,1/2+z
1/2+x,1/2+y,z
1/2-x,1/2-y,z
1/2+x,1/2-y,1/2-z
1/2-x,1/2+y,1/2-z
1/2-x,1/2-y,-z
1/2+x,1/2+y,-z
1/2-x,1/2+y,1/2+z
1/2+x,1/2-y,1/2+z
loop_
_atom_site_type_symbol
_atom_site_label
_atom_site_fract_x
_atom_site_fract_y
_atom_site_fract_z
Si Si1 0.256166 0.551082 0.500000
Si Si2 0.983159 0.179359 0.895887
Si Si3 0.176660 0.131837 0.673961
Si Si4 0.579819 0.893045 0.000000
O O1 0.250000 0.750000 0.500000
O O2 0.298496 0.471235 0.585553
O O3 0.161271 0.509411 0.500000
O O4 0.904878 0.235628 0.843312
O O5 0.957611 0.160345 0.000000
O O6 0.000000 0.000000 0.861133
O O7 0.064365 0.282945 0.911090
O O8 0.250000 0.250000 0.695937
O O9 0.163593 0.000000 0.750000
O O10 0.500000 0.000000 0.000000
#
# Coordination Sequence:
#
# PCOD9495522 Si02
#       4
#     8  16  16   8
#     4  12  22  40  68  96 132 166 210 276 320 394
#     4   9  19  39  62  89 118 164 212 249 317 389
#     4  12  25  42  63  95 132 174 218 268 326 385
#     4  10  18  32  62  96 114 154 204 258 318 368
#
# _framework density 23.470027000000002
#
# number of rings (size 3 to 8) (size 9 to 14) (size 15 to 20)
#    1.000    0.333    1.667    5.500    0.000    0.667 
#    0.000    0.000    0.000    7.000    0.000    0.000 
#    0.000    0.000    0.000    0.000    0.000    0.000 
#
# Total GULP energy -133891.459437 kJ/mol
# GULP energy per Si atom -5578.810810 kJ/mol
# Density = 2.341661 g / cm^3
# Si number density = 23.470027 Si / 1000 Ang^3
#
#
#
# Elastic Constant Matrix: (Units=GPa)
#
#
# Indices 1 2 3 4 5 6 
#
# 1 98.8796 -14.0400 21.7097 0.0000 0.0000 0.0000
# 2 -14.0400 44.6701 -0.5341 0.0000 0.0000 0.0000
# 3 21.7097 -0.5341 98.7862 0.0000 0.0000 0.0000
# 4 0.0000 0.0000 0.0000 20.6839 0.0000 0.0000
# 5 0.0000 0.0000 0.0000 0.0000 14.7535 0.0000
# 6 0.0000 0.0000 0.0000 0.0000 0.0000 44.1664
#
#
#
# Elastic Compliance Matrix: (Units=1/GPa)
#
#
# Indices 1 2 3 4 5 6 
#
# 1 0.011140 0.003472 -0.002429 0.000000 0.000000 0.000000
# 2 0.003472 0.023470 -0.000636 0.000000 0.000000 0.000000
# 3 -0.002429 -0.000636 0.010653 0.000000 0.000000 0.000000
# 4 0.000000 0.000000 0.000000 0.048347 0.000000 0.000000
# 5 0.000000 0.000000 0.000000 0.000000 0.067781 0.000000
# 6 0.000000 0.000000 0.000000 0.000000 0.000000 0.022642
#
#
# Mechanical properties :
#
#
# Convention : Reuss Voigt Hill
#
# Bulk Modulus (GPa) = 21.70306 28.51190 25.10748
# Shear Modulus (GPa) = 25.17909 31.60078 28.38994
#
# Velocity S-wave (km/s) = 3.27895 3.67336 3.48174
# Velocity P-wave (km/s) = 4.85824 5.49236 5.18500
#
# Compressibility (1/GPa) = 0.04607646
#
# Stress axis : x y z
#
# Youngs Moduli (GPa) = 89.76899 42.60751 93.86753
#
# Poissons Ratio (x) = -0.14794 0.22804
# Poissons Ratio (y) = -0.31170 0.05972
# Poissons Ratio (z) = 0.21808 0.02711
#
# Static dielectric constant tensor:
#      x y z
#    x 1.978900 0.000000 0.000000 
#    y 0.000000 2.009650 0.000000 
#    z 0.000000 0.000000 1.878680 
# 
# From -- ./inp_files/29365.got.cif
#   From: 2010.05.17/outbox.cif.g08.bks.cpg/sg66_15_cif.got.tgz:29365.got - 2010.06.03 17:51:23.
