data_PCOD9495177
_publ_section_title
;
Structure prediction by ZEFSAII (Michael W. Deem and Ramdas Pophale) SiO2 
 PCOD9495177
Probable space group: C C C M
;
_chemical_formula_sum "Si O2"
_cell_formula_units_Z 128
_cell_length_a 11.512867
_cell_length_b 22.519272
_cell_length_c 24.570233
_cell_angle_alpha 90.000000
_cell_angle_beta 90.000000
_cell_angle_gamma 90.000000
_cell_volume 6370.112600
_symmetry_space_group_name_H-M "C C C M"
_symmetry_group_IT_number 66
_symmetry_cell_setting 'orthorhombic'
loop_
_space_group_symop_operation_xyz
x,y,z
-x,-y,z
x,-y,1/2-z
-x,y,1/2-z
-x,-y,-z
x,y,-z
-x,y,1/2+z
x,-y,1/2+z
1/2+x,1/2+y,z
1/2-x,1/2-y,z
1/2+x,1/2-y,1/2-z
1/2-x,1/2+y,1/2-z
1/2-x,1/2-y,-z
1/2+x,1/2+y,-z
1/2-x,1/2+y,1/2+z
1/2+x,1/2-y,1/2+z
loop_
_atom_site_type_symbol
_atom_site_label
_atom_site_fract_x
_atom_site_fract_y
_atom_site_fract_z
Si Si1 0.078300 0.735437 0.132763
Si Si2 0.376396 0.947475 0.782905
Si Si3 0.637081 0.183234 0.761443
Si Si4 0.679820 0.192084 0.638363
Si Si5 0.476243 0.351335 0.563115
Si Si6 0.715631 0.854036 0.439816
Si Si7 0.876059 0.522400 0.590405
Si Si8 0.781078 0.911309 0.064134
O O1 0.130321 0.735646 0.193807
O O2 0.171865 0.697284 0.099582
O O3 0.958235 0.698588 0.132598
O O4 0.036662 0.796333 0.104807
O O5 0.500000 0.942353 0.750000
O O6 0.324963 0.881083 0.784451
O O7 0.385479 0.969019 0.844492
O O8 0.311803 0.000000 0.750000
O O9 0.500000 0.177505 0.750000
O O10 0.699872 0.189298 0.703541
O O11 0.750000 0.250000 0.617875
O O12 0.719365 0.135197 0.604566
O O13 0.491300 0.330100 0.500000
O O14 0.347052 0.377050 0.567542
O O15 0.581452 0.397047 0.573204
O O16 0.706735 0.828405 0.500000
O O17 0.641228 0.912684 0.433613
O O18 0.773528 0.475869 0.576478
O O19 0.000000 0.500000 0.570281
O O20 0.758778 0.898804 0.000000
#
# Coordination Sequence:
#
# PCOD9495177 Si02
#       8
#    16  16  16  16  16  16  16  16
#     4  11  20  39  64  94 129 161 214 267 324 383
#     4  10  17  33  59  89 122 161 201 249 308 381
#     4   9  20  34  57  92 125 163 209 254 319 378
#     4  11  22  38  61  95 131 166 210 260 322 390
#     4  10  23  43  64  88 122 177 229 259 316 388
#     4  11  24  40  63  93 123 162 214 273 321 376
#     4  12  23  39  64  98 127 157 207 265 331 387
#     4  11  25  42  62  91 132 175 215 265 321 389
#
# _framework density 20.093836
#
# number of rings (size 3 to 8) (size 9 to 14) (size 15 to 20)
#    0.000    1.375    3.750    2.625    1.750    5.750 
#    0.000    1.875    0.000    0.000    0.000    0.875 
#    0.000    0.000    0.000    0.000    0.000    0.000 
#
# Total GULP energy -356598.447192 kJ/mol
# GULP energy per Si atom -5571.850737 kJ/mol
# Density = 2.004810 g / cm^3
# Si number density = 20.093836 Si / 1000 Ang^3
#
#
#
# Elastic Constant Matrix: (Units=GPa)
#
#
# Indices 1 2 3 4 5 6 
#
# 1 77.4219 14.7118 25.3100 0.0000 0.0000 0.0000
# 2 14.7118 78.6838 18.0370 0.0000 0.0000 0.0000
# 3 25.3100 18.0370 86.4674 0.0000 0.0000 0.0000
# 4 0.0000 0.0000 0.0000 20.5932 0.0000 0.0000
# 5 0.0000 0.0000 0.0000 0.0000 20.4076 0.0000
# 6 0.0000 0.0000 0.0000 0.0000 0.0000 30.3797
#
#
#
# Elastic Compliance Matrix: (Units=1/GPa)
#
#
# Indices 1 2 3 4 5 6 
#
# 1 0.014529 -0.001829 -0.003871 0.000000 0.000000 0.000000
# 2 -0.001829 0.013578 -0.002297 0.000000 0.000000 0.000000
# 3 -0.003871 -0.002297 0.013177 0.000000 0.000000 0.000000
# 4 0.000000 0.000000 0.000000 0.048560 0.000000 0.000000
# 5 0.000000 0.000000 0.000000 0.000000 0.049001 0.000000
# 6 0.000000 0.000000 0.000000 0.000000 0.000000 0.032917
#
#
# Mechanical properties :
#
#
# Convention : Reuss Voigt Hill
#
# Bulk Modulus (GPa) = 39.54189 39.85450 39.69819
# Shear Modulus (GPa) = 25.48591 26.57706 26.03149
#
# Velocity S-wave (km/s) = 3.56525 3.64077 3.60320
# Velocity P-wave (km/s) = 6.05552 6.12787 6.09180
#
# Compressibility (1/GPa) = 0.02528964
#
# Stress axis : x y z
#
# Youngs Moduli (GPa) = 68.82592 73.65058 75.88774
#
# Poissons Ratio (x) = 0.13472 0.29379
# Poissons Ratio (y) = 0.12589 0.17430
# Poissons Ratio (z) = 0.26645 0.16916
#
# Static dielectric constant tensor:
#      x y z
#    x 1.735540 0.000000 0.000000 
#    y 0.000000 1.752080 0.000000 
#    z 0.000000 0.000000 1.774640 
# 
# From -- ./inp_files/57349.got.cif
#   From: 2010.05.17/outbox.cif.g08.bks.cpg/sg66_29_cif.got.tgz:57349.got - 2010.06.03 17:51:23.
