data_PCOD9495754
_publ_section_title
;
Structure prediction by ZEFSAII (Michael W. Deem and Ramdas Pophale) SiO2 
 PCOD9495754
Probable space group: C C C M
;
_chemical_formula_sum "Si O2"
_cell_formula_units_Z 84
_cell_length_a 13.850135
_cell_length_b 19.334237
_cell_length_c 18.874139
_cell_angle_alpha 90.000000
_cell_angle_beta 90.000000
_cell_angle_gamma 90.000000
_cell_volume 5054.150775
_symmetry_space_group_name_H-M "C C C M"
_symmetry_group_IT_number 66
_symmetry_cell_setting 'orthorhombic'
loop_
_space_group_symop_operation_xyz
x,y,z
-x,-y,z
x,-y,1/2-z
-x,y,1/2-z
-x,-y,-z
x,y,-z
-x,y,1/2+z
x,-y,1/2+z
1/2+x,1/2+y,z
1/2-x,1/2-y,z
1/2+x,1/2-y,1/2-z
1/2-x,1/2+y,1/2-z
1/2-x,1/2-y,-z
1/2+x,1/2+y,-z
1/2-x,1/2+y,1/2+z
1/2+x,1/2-y,1/2+z
loop_
_atom_site_type_symbol
_atom_site_label
_atom_site_fract_x
_atom_site_fract_y
_atom_site_fract_z
Si Si1 0.500000 0.500000 0.750000
Si Si2 0.652257 0.419462 0.154741
Si Si3 0.500373 0.334135 0.081894
Si Si4 0.243520 0.635229 0.717020
Si Si5 0.176021 0.059908 0.919060
Si Si6 0.591140 0.249925 0.300792
O O1 0.430173 0.547855 0.795274
O O2 0.601216 0.353942 0.118678
O O3 0.740457 0.403938 0.208305
O O4 0.670089 0.478299 0.096111
O O5 0.427821 0.400845 0.087170
O O6 0.447250 0.271663 0.121943
O O7 0.514299 0.319190 0.000000
O O8 0.262539 0.589862 0.646728
O O9 0.329847 0.691745 0.717750
O O10 0.144817 0.677150 0.707729
O O11 0.209407 0.073328 0.000000
O O12 0.500000 0.254944 0.250000
#
# Coordination Sequence:
#
# PCOD9495754 Si02
#       6
#     4  16  16  16  16  16
#     4  12  16  24  50  68  98 136 150 200 254 292
#     4  12  17  29  48  75 106 133 167 205 261 317
#     4  10  19  30  49  77 106 137 166 206 269 319
#     4  10  20  31  52  76 100 138 176 208 259 309
#     4  10  19  29  45  76 110 133 162 207 264 318
#     4  10  19  35  52  71 101 137 176 220 248 295
#
# _framework density 16.620003000000001
#
# number of rings (size 3 to 8) (size 9 to 14) (size 15 to 20)
#    0.000    1.524    5.714    1.714    0.000    2.286 
#    0.000    3.810    0.000    5.714    0.000    1.333 
#    0.000    0.000    0.000    0.000    0.000    0.000 
#
# Total GULP energy -234057.655484 kJ/mol
# GULP energy per Si atom -5572.801321 kJ/mol
# Density = 1.658217 g / cm^3
# Si number density = 16.620003 Si / 1000 Ang^3
#
#
#
# Elastic Constant Matrix: (Units=GPa)
#
#
# Indices 1 2 3 4 5 6 
#
# 1 43.1479 23.6011 30.1578 0.0000 0.0000 0.0000
# 2 23.6011 40.5486 26.4395 0.0000 0.0000 0.0000
# 3 30.1578 26.4395 118.7089 0.0000 0.0000 0.0000
# 4 0.0000 0.0000 0.0000 8.9825 0.0000 0.0000
# 5 0.0000 0.0000 0.0000 0.0000 3.9771 0.0000
# 6 0.0000 0.0000 0.0000 0.0000 0.0000 16.5995
#
#
#
# Elastic Compliance Matrix: (Units=1/GPa)
#
#
# Indices 1 2 3 4 5 6 
#
# 1 0.036682 -0.017869 -0.005339 0.000000 0.000000 0.000000
# 2 -0.017869 0.037557 -0.003825 0.000000 0.000000 0.000000
# 3 -0.005339 -0.003825 0.010632 0.000000 0.000000 0.000000
# 4 0.000000 0.000000 0.000000 0.111328 0.000000 0.000000
# 5 0.000000 0.000000 0.000000 0.000000 0.251437 0.000000
# 6 0.000000 0.000000 0.000000 0.000000 0.000000 0.060243
#
#
# Mechanical properties :
#
#
# Convention : Reuss Voigt Hill
#
# Bulk Modulus (GPa) = 32.46336 40.31137 36.38736
# Shear Modulus (GPa) = 8.73800 14.05897 11.39848
#
# Velocity S-wave (km/s) = 2.29542 2.91160 2.62167
# Velocity P-wave (km/s) = 5.15755 5.96746 5.57723
#
# Compressibility (1/GPa) = 0.03080396
#
# Stress axis : x y z
#
# Youngs Moduli (GPa) = 27.26133 26.62641 94.05300
#
# Poissons Ratio (x) = 0.47580 0.50215
# Poissons Ratio (y) = 0.48714 0.35977
# Poissons Ratio (z) = 0.14555 0.10185
#
# Static dielectric constant tensor:
#      x y z
#    x 1.537700 0.000000 0.000000 
#    y 0.000000 1.595160 0.000000 
#    z 0.000000 0.000000 1.578310 
# 
# From -- ./inp_files/38557.got.cif
#   From: 2010.05.17/outbox.cif.g08.bks.cpg/sg66_20_cif.got.tgz:38557.got - 2010.06.03 17:51:23.
