data_PCOD9495812
_publ_section_title
;
Structure prediction by ZEFSAII (Michael W. Deem and Ramdas Pophale) SiO2 
 PCOD9495812
Probable space group: C C C M
;
_chemical_formula_sum "Si O2"
_cell_formula_units_Z 96
_cell_length_a 10.143427
_cell_length_b 25.675450
_cell_length_c 19.220665
_cell_angle_alpha 90.000000
_cell_angle_beta 90.000000
_cell_angle_gamma 90.000000
_cell_volume 5005.773345
_symmetry_space_group_name_H-M "C C C M"
_symmetry_group_IT_number 66
_symmetry_cell_setting 'orthorhombic'
loop_
_space_group_symop_operation_xyz
x,y,z
-x,-y,z
x,-y,1/2-z
-x,y,1/2-z
-x,-y,-z
x,y,-z
-x,y,1/2+z
x,-y,1/2+z
1/2+x,1/2+y,z
1/2-x,1/2-y,z
1/2+x,1/2-y,1/2-z
1/2-x,1/2+y,1/2-z
1/2-x,1/2-y,-z
1/2+x,1/2+y,-z
1/2-x,1/2+y,1/2+z
1/2+x,1/2-y,1/2+z
loop_
_atom_site_type_symbol
_atom_site_label
_atom_site_fract_x
_atom_site_fract_y
_atom_site_fract_z
Si Si1 0.093077 0.550825 0.000000
Si Si2 0.649548 0.519949 0.000000
Si Si3 0.076359 0.822836 0.079053
Si Si4 0.578837 0.582418 0.863726
Si Si5 0.849195 0.376499 0.877362
Si Si6 0.602415 0.767126 0.311115
Si Si7 0.816827 0.942492 0.721566
O O1 0.075200 0.589110 0.934171
O O2 0.000000 0.500000 0.000000
O O3 0.241530 0.525793 0.000000
O O4 0.500000 0.500000 0.000000
O O5 0.652364 0.551387 0.073976
O O6 0.216300 0.852598 0.087644
O O7 0.075051 0.772528 0.126525
O O8 0.967483 0.863674 0.103607
O O9 0.057965 0.808172 0.000000
O O10 0.657264 0.590077 0.791922
O O11 0.443069 0.557043 0.831276
O O12 0.909021 0.325900 0.840202
O O13 0.801278 0.417237 0.819720
O O14 0.500000 0.758964 0.250000
O O15 0.750000 0.750000 0.287905
O O16 0.795161 0.000000 0.750000
#
# Coordination Sequence:
#
# PCOD9495812 Si02
#       7
#     8   8  16  16  16  16  16
#     4  12  26  44  62  90 134 176 214 248 304 376
#     4  12  20  36  63  92 120 162 215 262 311 364
#     4  10  19  35  64  98 124 156 205 266 324 381
#     4  10  19  30  55  94 129 152 199 267 323 365
#     4  10  22  41  62  86 123 169 215 254 302 381
#     4  10  24  42  69  96 122 163 211 267 323 379
#     4  10  19  33  54  89 126 165 204 257 317 370
#
# _framework density 19.177855999999998
#
# number of rings (size 3 to 8) (size 9 to 14) (size 15 to 20)
#    0.000    1.667    1.667    5.000    8.167    1.000 
#    6.000    0.000    0.000    0.500    0.000    0.000 
#    0.000    0.000    0.000    0.000    0.000    0.000 
#
# Total GULP energy -267766.813134 kJ/mol
# GULP energy per Si atom -5578.475274 kJ/mol
# Density = 1.913421 g / cm^3
# Si number density = 19.177856 Si / 1000 Ang^3
#
#
#
# Elastic Constant Matrix: (Units=GPa)
#
#
# Indices 1 2 3 4 5 6 
#
# 1 33.1109 35.9815 42.2457 0.0000 0.0000 0.0000
# 2 35.9815 101.3972 55.5380 0.0000 0.0000 0.0000
# 3 42.2457 55.5380 162.2975 0.0000 0.0000 0.0000
# 4 0.0000 0.0000 0.0000 19.3780 0.0000 0.0000
# 5 0.0000 0.0000 0.0000 0.0000 5.4694 0.0000
# 6 0.0000 0.0000 0.0000 0.0000 0.0000 35.8990
#
#
#
# Elastic Compliance Matrix: (Units=1/GPa)
#
#
# Indices 1 2 3 4 5 6 
#
# 1 0.060639 -0.015842 -0.010363 0.000000 0.000000 0.000000
# 2 -0.015842 0.016276 -0.001446 0.000000 0.000000 0.000000
# 3 -0.010363 -0.001446 0.009354 0.000000 0.000000 0.000000
# 4 0.000000 0.000000 0.000000 0.051605 0.000000 0.000000
# 5 0.000000 0.000000 0.000000 0.000000 0.182835 0.000000
# 6 0.000000 0.000000 0.000000 0.000000 0.000000 0.027856
#
#
# Mechanical properties :
#
#
# Convention : Reuss Voigt Hill
#
# Bulk Modulus (GPa) = 32.29286 62.70400 47.49843
# Shear Modulus (GPa) = 12.07179 23.01864 17.54522
#
# Velocity S-wave (km/s) = 2.51164 3.46825 3.02796
# Velocity P-wave (km/s) = 5.02855 6.98609 6.08653
#
# Compressibility (1/GPa) = 0.03096660
#
# Stress axis : x y z
#
# Youngs Moduli (GPa) = 16.49101 61.44077 106.90834
#
# Poissons Ratio (x) = 0.97335 1.10790
# Poissons Ratio (y) = 0.26125 0.15458
# Poissons Ratio (z) = 0.17090 0.08884
#
# Static dielectric constant tensor:
#      x y z
#    x 1.593150 0.000000 0.000000 
#    y 0.000000 1.684170 0.000000 
#    z 0.000000 0.000000 1.673700 
# 
# From -- ./inp_files/38900.got.cif
#   From: 2010.05.17/outbox.cif.g08.bks.cpg/sg66_20_cif.got.tgz:38900.got - 2010.06.03 17:51:23.
