data_PCOD9495607
_publ_section_title
;
Structure prediction by ZEFSAII (Michael W. Deem and Ramdas Pophale) SiO2 
 PCOD9495607
Probable space group: C C C M
;
_chemical_formula_sum "Si O2"
_cell_formula_units_Z 116
_cell_length_a 23.048457
_cell_length_b 28.574709
_cell_length_c 9.129796
_cell_angle_alpha 90.000000
_cell_angle_beta 90.000000
_cell_angle_gamma 90.000000
_cell_volume 6012.910594
_symmetry_space_group_name_H-M "C C C M"
_symmetry_group_IT_number 66
_symmetry_cell_setting 'orthorhombic'
loop_
_space_group_symop_operation_xyz
x,y,z
-x,-y,z
x,-y,1/2-z
-x,y,1/2-z
-x,-y,-z
x,y,-z
-x,y,1/2+z
x,-y,1/2+z
1/2+x,1/2+y,z
1/2-x,1/2-y,z
1/2+x,1/2-y,1/2-z
1/2-x,1/2+y,1/2-z
1/2-x,1/2-y,-z
1/2+x,1/2+y,-z
1/2-x,1/2+y,1/2+z
1/2+x,1/2-y,1/2+z
loop_
_atom_site_type_symbol
_atom_site_label
_atom_site_fract_x
_atom_site_fract_y
_atom_site_fract_z
Si Si1 0.941194 0.786466 0.323094
Si Si2 0.805971 0.451900 0.326458
Si Si3 0.732689 0.804765 0.325740
Si Si4 0.401964 0.185398 0.324022
Si Si5 0.657365 0.651789 0.176196
Si Si6 0.087387 0.583803 0.168457
Si Si7 0.828062 0.951919 0.174861
Si Si8 0.500000 0.000000 0.750000
O O1 0.943377 0.788864 0.500000
O O2 0.932217 0.732678 0.272056
O O3 0.886972 0.815207 0.261418
O O4 0.000000 0.804557 0.250000
O O5 0.822426 0.500000 0.250000
O O6 0.808153 0.455521 0.500000
O O7 0.856220 0.419114 0.269619
O O8 0.739565 0.443463 0.283189
O O9 0.737726 0.815813 0.500000
O O10 0.750000 0.750000 0.308900
O O11 0.666029 0.813055 0.278716
O O12 0.778488 0.834840 0.233441
O O13 0.400044 0.189665 0.500000
O O14 0.434049 0.136268 0.294140
O O15 0.642569 0.597472 0.209671
O O16 0.654925 0.657907 0.000000
O O17 0.044420 0.539001 0.181559
O O18 0.106770 0.584454 0.000000
O O19 0.847758 0.000000 0.250000
O O20 0.830066 0.958687 0.000000
#
# Coordination Sequence:
#
# PCOD9495607 Si02
#       8
#    16  16  16  16  16  16  16   4
#     4  11  23  42  63  86 117 156 202 245 292 355
#     4  10  19  34  55  79 110 145 184 232 285 345
#     4  10  18  34  59  88 120 155 197 244 300 368
#     4   9  20  38  60  83 113 153 196 245 302 365
#     4  11  22  37  59  91 127 160 195 243 298 353
#     4  11  23  39  56  75 104 145 195 248 302 352
#     4   9  20  36  57  88 123 154 189 231 283 350
#     4  12  26  36  56  78 110 144 206 260 310 340
#
# _framework density 19.291820999999999
#
# number of rings (size 3 to 8) (size 9 to 14) (size 15 to 20)
#    0.000    1.793    2.069    2.276    0.966    2.483 
#    0.000    1.379    0.000    0.414    0.000    2.897 
#    0.000    0.000    0.000    0.000    0.000    0.000 
#
# Total GULP energy -323186.493418 kJ/mol
# GULP energy per Si atom -5572.180921 kJ/mol
# Density = 1.924791 g / cm^3
# Si number density = 19.291821 Si / 1000 Ang^3
#
#
#
# Elastic Constant Matrix: (Units=GPa)
#
#
# Indices 1 2 3 4 5 6 
#
# 1 67.2898 22.0545 15.6455 0.0000 0.0000 0.0000
# 2 22.0545 122.5767 32.9399 0.0000 0.0000 0.0000
# 3 15.6455 32.9399 44.5551 0.0000 0.0000 0.0000
# 4 0.0000 0.0000 0.0000 24.4610 0.0000 0.0000
# 5 0.0000 0.0000 0.0000 0.0000 0.2452 0.0000
# 6 0.0000 0.0000 0.0000 0.0000 0.0000 11.6620
#
#
#
# Elastic Compliance Matrix: (Units=1/GPa)
#
#
# Indices 1 2 3 4 5 6 
#
# 1 0.016481 -0.001760 -0.004486 0.000000 0.000000 0.000000
# 2 -0.001760 0.010369 -0.007048 0.000000 0.000000 0.000000
# 3 -0.004486 -0.007048 0.029230 0.000000 0.000000 0.000000
# 4 0.000000 0.000000 0.000000 0.040881 0.000000 0.000000
# 5 0.000000 0.000000 0.000000 0.000000 4.077839 0.000000
# 6 0.000000 0.000000 0.000000 0.000000 0.000000 0.085749
#
#
# Mechanical properties :
#
#
# Convention : Reuss Voigt Hill
#
# Bulk Modulus (GPa) = 33.90742 41.74460 37.82601
# Shear Modulus (GPa) = 1.16361 18.19242 9.67802
#
# Velocity S-wave (km/s) = 0.77748 3.07418 2.24222
# Velocity P-wave (km/s) = 4.29187 5.85545 5.13354
#
# Compressibility (1/GPa) = 0.02949207
#
# Stress axis : x y z
#
# Youngs Moduli (GPa) = 60.67612 96.44407 34.21158
#
# Poissons Ratio (x) = 0.16972 0.15348
# Poissons Ratio (y) = 0.10677 0.24111
# Poissons Ratio (z) = 0.27221 0.67971
#
# Static dielectric constant tensor:
#      x y z
#    x 1.692980 0.000000 0.000000 
#    y 0.000000 1.718500 0.000000 
#    z 0.000000 0.000000 1.649700 
# 
# From -- ./inp_files/9438.got.cif
#   From: 2010.05.17/outbox.cif.g08.bks.cpg/sg66_5_cif.got.tgz:9438.got - 2010.06.03 17:51:23.
