data_PCOD9495078
_publ_section_title
;
Structure prediction by ZEFSAII (Michael W. Deem and Ramdas Pophale) SiO2 
 PCOD9495078
Probable space group: C C C M
;
_chemical_formula_sum "Si O2"
_cell_formula_units_Z 112
_cell_length_a 15.323146
_cell_length_b 15.066447
_cell_length_c 24.407664
_cell_angle_alpha 90.000000
_cell_angle_beta 90.000000
_cell_angle_gamma 90.000000
_cell_volume 5634.884309
_symmetry_space_group_name_H-M "C C C M"
_symmetry_group_IT_number 66
_symmetry_cell_setting 'orthorhombic'
loop_
_space_group_symop_operation_xyz
x,y,z
-x,-y,z
x,-y,1/2-z
-x,y,1/2-z
-x,-y,-z
x,y,-z
-x,y,1/2+z
x,-y,1/2+z
1/2+x,1/2+y,z
1/2-x,1/2-y,z
1/2+x,1/2-y,1/2-z
1/2-x,1/2+y,1/2-z
1/2-x,1/2-y,-z
1/2+x,1/2+y,-z
1/2-x,1/2+y,1/2+z
1/2+x,1/2-y,1/2+z
loop_
_atom_site_type_symbol
_atom_site_label
_atom_site_fract_x
_atom_site_fract_y
_atom_site_fract_z
Si Si1 0.848427 0.288991 0.166220
Si Si2 0.273864 0.346306 0.829388
Si Si3 0.338236 0.548415 0.061561
Si Si4 0.597656 0.372903 0.760357
Si Si5 0.865983 0.150654 0.562346
Si Si6 0.947839 0.228642 0.936498
Si Si7 0.743564 0.039218 0.174165
O O1 0.750000 0.250000 0.157454
O O2 0.896468 0.221305 0.207523
O O3 0.901224 0.287761 0.109305
O O4 0.829192 0.387854 0.187722
O O5 0.250000 0.250000 0.806661
O O6 0.365239 0.364295 0.800499
O O7 0.290078 0.338399 0.893735
O O8 0.220735 0.435967 0.816372
O O9 0.388578 0.454548 0.065636
O O10 0.400515 0.632759 0.067982
O O11 0.268010 0.549181 0.109996
O O12 0.300366 0.552283 0.000000
O O13 0.500000 0.402796 0.750000
O O14 0.666635 0.433257 0.794337
O O15 0.838930 0.168204 0.500000
O O16 0.950232 0.210338 0.574665
O O17 0.938013 0.258050 0.000000
#
# Coordination Sequence:
#
# PCOD9495078 Si02
#       7
#    16  16  16  16  16  16  16
#     4  10  19  34  51  77 113 144 169 214 266 320
#     4  11  23  37  57  79 104 143 185 223 269 323
#     4   9  16  28  49  79 112 143 173 210 262 321
#     4  11  22  37  57  83 109 136 172 219 270 327
#     4   9  19  33  50  76 108 141 182 225 266 309
#     4  10  17  28  50  78 111 146 173 209 265 327
#     4  10  21  36  54  80 112 143 175 221 269 318
#
# _framework density 19.876183999999999
#
# number of rings (size 3 to 8) (size 9 to 14) (size 15 to 20)
#    0.000    2.000    2.857    3.000    0.000    4.000 
#    0.000    0.000    0.000    4.286    0.000    2.000 
#    0.000    0.000    0.000    0.000    0.000    0.000 
#
# Total GULP energy -312115.816634 kJ/mol
# GULP energy per Si atom -5573.496726 kJ/mol
# Density = 1.983094 g / cm^3
# Si number density = 19.876184 Si / 1000 Ang^3
#
#
#
# Elastic Constant Matrix: (Units=GPa)
#
#
# Indices 1 2 3 4 5 6 
#
# 1 28.5656 30.9261 10.5900 0.0000 0.0000 0.0000
# 2 30.9261 138.5576 23.4958 0.0000 0.0000 0.0000
# 3 10.5900 23.4958 78.2792 0.0000 0.0000 0.0000
# 4 0.0000 0.0000 0.0000 16.6644 0.0000 0.0000
# 5 0.0000 0.0000 0.0000 0.0000 19.1242 0.0000
# 6 0.0000 0.0000 0.0000 0.0000 0.0000 4.5882
#
#
#
# Elastic Compliance Matrix: (Units=1/GPa)
#
#
# Indices 1 2 3 4 5 6 
#
# 1 0.046996 -0.009916 -0.003381 0.000000 0.000000 0.000000
# 2 -0.009916 0.009697 -0.001569 0.000000 0.000000 0.000000
# 3 -0.003381 -0.001569 0.013703 0.000000 0.000000 0.000000
# 4 0.000000 0.000000 0.000000 0.060008 0.000000 0.000000
# 5 0.000000 0.000000 0.000000 0.000000 0.052290 0.000000
# 6 0.000000 0.000000 0.000000 0.000000 0.000000 0.217950
#
#
# Mechanical properties :
#
#
# Convention : Reuss Voigt Hill
#
# Bulk Modulus (GPa) = 24.59248 41.71403 33.15325
# Shear Modulus (GPa) = 11.26299 20.10141 15.68220
#
# Velocity S-wave (km/s) = 2.38304 3.18359 2.81195
# Velocity P-wave (km/s) = 4.46895 5.87760 5.22100
#
# Compressibility (1/GPa) = 0.04066283
#
# Stress axis : x y z
#
# Youngs Moduli (GPa) = 21.27822 103.12921 72.97583
#
# Poissons Ratio (x) = 1.02265 0.24677
# Poissons Ratio (y) = 0.21100 0.11450
# Poissons Ratio (z) = 0.07195 0.16180
#
# Static dielectric constant tensor:
#      x y z
#    x 1.661220 0.000000 0.000000 
#    y 0.000000 1.770520 0.000000 
#    z 0.000000 0.000000 1.736590 
# 
# From -- ./inp_files/64648.got.cif
#   From: 2010.05.17/outbox.cif.g08.bks.cpg/sg66_33_cif.got.tgz:64648.got - 2010.06.03 17:51:23.
