data_PCOD9495923
_publ_section_title
;
Structure prediction by ZEFSAII (Michael W. Deem and Ramdas Pophale) SiO2 
 PCOD9495923
Probable space group: C C C M
;
_chemical_formula_sum "Si O2"
_cell_formula_units_Z 52
_cell_length_a 14.145525
_cell_length_b 25.622827
_cell_length_c 8.799023
_cell_angle_alpha 90.000000
_cell_angle_beta 90.000000
_cell_angle_gamma 90.000000
_cell_volume 3189.191279
_symmetry_space_group_name_H-M "C C C M"
_symmetry_group_IT_number 66
_symmetry_cell_setting 'orthorhombic'
loop_
_space_group_symop_operation_xyz
x,y,z
-x,-y,z
x,-y,1/2-z
-x,y,1/2-z
-x,-y,-z
x,y,-z
-x,y,1/2+z
x,-y,1/2+z
1/2+x,1/2+y,z
1/2-x,1/2-y,z
1/2+x,1/2-y,1/2-z
1/2-x,1/2+y,1/2-z
1/2-x,1/2-y,-z
1/2+x,1/2+y,-z
1/2-x,1/2+y,1/2+z
1/2+x,1/2-y,1/2+z
loop_
_atom_site_type_symbol
_atom_site_label
_atom_site_fract_x
_atom_site_fract_y
_atom_site_fract_z
Si Si1 0.000000 0.500000 0.250000
Si Si2 0.895270 0.766103 0.817247
Si Si3 0.405842 0.102625 0.829214
Si Si4 0.731758 0.827355 0.681213
O O1 0.068376 0.458830 0.166767
O O2 0.831147 0.814508 0.760205
O O3 0.840818 0.716130 0.746831
O O4 0.000000 0.768863 0.750000
O O5 0.895871 0.763169 0.000000
O O6 0.500000 0.125959 0.750000
O O7 0.315891 0.118372 0.730730
O O8 0.395067 0.122310 0.000000
O O9 0.738917 0.822614 0.500000
#
# Coordination Sequence:
#
# PCOD9495923 Si02
#       4
#     4  16  16  16
#     4   8  22  32  54  72 108 132 174 208 262 302
#     4  11  21  35  51  71 100 133 171 212 251 300
#     4  10  19  32  49  72 101 133 166 206 253 302
#     4  11  21  33  50  73 100 134 172 208 253 303
#
# _framework density 16.305074000000001
#
# number of rings (size 3 to 8) (size 9 to 14) (size 15 to 20)
#    0.923    0.615    0.000    9.692    0.000    0.000 
#    0.000    0.000    0.000    0.000    0.000    1.077 
#    0.000    7.385    0.000    0.000    0.000    0.000 
#
# Total GULP energy -144818.482072 kJ/mol
# GULP energy per Si atom -5569.941618 kJ/mol
# Density = 1.626796 g / cm^3
# Si number density = 16.305074 Si / 1000 Ang^3
#
#
#
# Elastic Constant Matrix: (Units=GPa)
#
#
# Indices 1 2 3 4 5 6 
#
# 1 116.0107 26.9900 44.8623 0.0000 0.0000 0.0000
# 2 26.9900 53.4079 18.3726 0.0000 0.0000 0.0000
# 3 44.8623 18.3726 162.6396 0.0000 0.0000 0.0000
# 4 0.0000 0.0000 0.0000 23.5850 0.0000 0.0000
# 5 0.0000 0.0000 0.0000 0.0000 26.3478 0.0000
# 6 0.0000 0.0000 0.0000 0.0000 0.0000 23.4419
#
#
#
# Elastic Compliance Matrix: (Units=1/GPa)
#
#
# Indices 1 2 3 4 5 6 
#
# 1 0.010607 -0.004530 -0.002414 0.000000 0.000000 0.000000
# 2 -0.004530 0.021415 -0.001170 0.000000 0.000000 0.000000
# 3 -0.002414 -0.001170 0.006947 0.000000 0.000000 0.000000
# 4 0.000000 0.000000 0.000000 0.042400 0.000000 0.000000
# 5 0.000000 0.000000 0.000000 0.000000 0.037954 0.000000
# 6 0.000000 0.000000 0.000000 0.000000 0.000000 0.042659
#
#
# Mechanical properties :
#
#
# Convention : Reuss Voigt Hill
#
# Bulk Modulus (GPa) = 43.97196 56.94532 50.45864
# Shear Modulus (GPa) = 26.91208 30.79715 28.85461
#
# Velocity S-wave (km/s) = 4.06708 4.35076 4.21131
# Velocity P-wave (km/s) = 7.00583 7.76141 7.39328
#
# Compressibility (1/GPa) = 0.02274176
#
# Stress axis : x y z
#
# Youngs Moduli (GPa) = 94.27395 46.69527 143.95491
#
# Poissons Ratio (x) = 0.21153 0.34753
# Poissons Ratio (y) = 0.42706 0.16838
# Poissons Ratio (z) = 0.22760 0.05462
#
# Static dielectric constant tensor:
#      x y z
#    x 1.541490 0.000000 0.000000 
#    y 0.000000 1.602880 0.000000 
#    z 0.000000 0.000000 1.556960 
# 
# From -- ./inp_files/3848.got.cif
#   From: 2010.05.17/outbox.cif.g08.bks.cpg/sg66_2_cif.got.tgz:3848.got - 2010.06.03 17:51:23.
