data_PCOD9495106
_publ_section_title
;
Structure prediction by ZEFSAII (Michael W. Deem and Ramdas Pophale) SiO2 
 PCOD9495106
Probable space group: C C C M
;
_chemical_formula_sum "Si O2"
_cell_formula_units_Z 88
_cell_length_a 16.352372
_cell_length_b 12.786543
_cell_length_c 17.601116
_cell_angle_alpha 90.000000
_cell_angle_beta 90.000000
_cell_angle_gamma 90.000000
_cell_volume 3680.222761
_symmetry_space_group_name_H-M "C C C M"
_symmetry_group_IT_number 66
_symmetry_cell_setting 'orthorhombic'
loop_
_space_group_symop_operation_xyz
x,y,z
-x,-y,z
x,-y,1/2-z
-x,y,1/2-z
-x,-y,-z
x,y,-z
-x,y,1/2+z
x,-y,1/2+z
1/2+x,1/2+y,z
1/2-x,1/2-y,z
1/2+x,1/2-y,1/2-z
1/2-x,1/2+y,1/2-z
1/2-x,1/2-y,-z
1/2+x,1/2+y,-z
1/2-x,1/2+y,1/2+z
1/2+x,1/2-y,1/2+z
loop_
_atom_site_type_symbol
_atom_site_label
_atom_site_fract_x
_atom_site_fract_y
_atom_site_fract_z
Si Si1 0.000000 0.149843 0.250000
Si Si2 0.845502 0.275097 0.000000
Si Si3 0.627819 0.414886 0.636770
Si Si4 0.909894 0.677045 0.088640
Si Si5 0.090156 0.950891 0.000000
Si Si6 0.213180 0.633323 0.284144
Si Si7 0.913482 0.332014 0.159442
O O1 0.049071 0.085689 0.189016
O O2 0.065406 0.224806 0.293909
O O3 0.750000 0.250000 0.000000
O O4 0.866800 0.328113 0.079603
O O5 0.904398 0.172900 0.000000
O O6 0.613146 0.301359 0.595834
O O7 0.632156 0.504226 0.574687
O O8 0.704703 0.424089 0.691700
O O9 0.837595 0.628863 0.137559
O O10 0.993293 0.642927 0.132380
O O11 0.914679 0.649869 0.000000
O O12 0.000000 0.000000 0.000000
O O13 0.250000 0.750000 0.267935
O O14 0.148045 0.609379 0.217425
#
# Coordination Sequence:
#
# PCOD9495106 Si02
#       7
#     8   8  16  16   8  16  16
#     4  10  18  32  57  88 130 171 210 260 328 403
#     4  12  28  40  65  85 123 179 226 268 316 412
#     4  10  21  33  58  85 126 170 209 266 324 394
#     4  10  17  29  52  90 125 161 205 260 328 386
#     4  12  24  46  62  91 137 175 213 270 345 410
#     4  10  18  30  54  85 125 159 207 269 315 382
#     4  11  18  36  55  84 123 163 217 259 318 384
#
# _framework density 23.911595999999999
#
# number of rings (size 3 to 8) (size 9 to 14) (size 15 to 20)
#    0.000    1.455    7.273    2.727    1.273    1.091 
#    0.000    4.091    0.000    0.000    0.000    2.545 
#    5.455    0.000    0.000    0.000    0.000    0.000 
#
# Total GULP energy -245684.636748 kJ/mol
# GULP energy per Si atom -5583.741744 kJ/mol
# Density = 2.385717 g / cm^3
# Si number density = 23.911596 Si / 1000 Ang^3
#
#
#
# Elastic Constant Matrix: (Units=GPa)
#
#
# Indices 1 2 3 4 5 6 
#
# 1 135.5071 18.9499 49.9850 0.0000 0.0000 0.0000
# 2 18.9499 27.0214 45.3285 0.0000 0.0000 0.0000
# 3 49.9850 45.3285 181.3372 0.0000 0.0000 0.0000
# 4 0.0000 0.0000 0.0000 -12.3919 0.0000 0.0000
# 5 0.0000 0.0000 0.0000 0.0000 44.8666 0.0000
# 6 0.0000 0.0000 0.0000 0.0000 0.0000 -8.5577
#
#
#
# Elastic Compliance Matrix: (Units=1/GPa)
#
#
# Indices 1 2 3 4 5 6 
#
# 1 0.008398 -0.003455 -0.001451 0.000000 0.000000 0.000000
# 2 -0.003455 0.065154 -0.015334 0.000000 0.000000 0.000000
# 3 -0.001451 -0.015334 0.009748 0.000000 0.000000 0.000000
# 4 0.000000 0.000000 0.000000 -0.080698 0.000000 0.000000
# 5 0.000000 0.000000 0.000000 0.000000 0.022288 0.000000
# 6 0.000000 0.000000 0.000000 0.000000 0.000000 -0.116854
#
#
# Mechanical properties :
#
#
# Convention : Reuss Voigt Hill
#
# Bulk Modulus (GPa) = 23.35422 63.59917 43.47669
# Shear Modulus (GPa) = -134.36877 20.09023 -57.13927
#
# Velocity S-wave (km/s) = -7.50440 2.90174 -4.89366
# Velocity P-wave (km/s) = 8.08083 6.15485 3.70254
#
# Compressibility (1/GPa) = 0.04281882
#
# Stress axis : x y z
#
# Youngs Moduli (GPa) = 119.07323 15.34836 102.58904
#
# Poissons Ratio (x) = 0.05303 0.14889
# Poissons Ratio (y) = 0.41140 1.57309
# Poissons Ratio (z) = 0.17281 0.23535
#
# Static dielectric constant tensor:
#      x y z
#    x 1.841130 0.000000 0.000000 
#    y 0.000000 1.949890 0.000000 
#    z 0.000000 0.000000 1.879390 
# 
# From -- ./inp_files/40369.got.cif
#   From: 2010.05.17/outbox.cif.g08.bks.cpg/sg66_21_cif.got.tgz:40369.got - 2010.06.03 17:51:23.
