data_PCOD9495619
_publ_section_title
;
Structure prediction by ZEFSAII (Michael W. Deem and Ramdas Pophale) SiO2 
 PCOD9495619
Probable space group: C C C M
;
_chemical_formula_sum "Si O2"
_cell_formula_units_Z 104
_cell_length_a 24.867746
_cell_length_b 23.505902
_cell_length_c 9.237476
_cell_angle_alpha 90.000000
_cell_angle_beta 90.000000
_cell_angle_gamma 90.000000
_cell_volume 5399.663140
_symmetry_space_group_name_H-M "C C C M"
_symmetry_group_IT_number 66
_symmetry_cell_setting 'orthorhombic'
loop_
_space_group_symop_operation_xyz
x,y,z
-x,-y,z
x,-y,1/2-z
-x,y,1/2-z
-x,-y,-z
x,y,-z
-x,y,1/2+z
x,-y,1/2+z
1/2+x,1/2+y,z
1/2-x,1/2-y,z
1/2+x,1/2-y,1/2-z
1/2-x,1/2+y,1/2-z
1/2-x,1/2-y,-z
1/2+x,1/2+y,-z
1/2-x,1/2+y,1/2+z
1/2+x,1/2-y,1/2+z
loop_
_atom_site_type_symbol
_atom_site_label
_atom_site_fract_x
_atom_site_fract_y
_atom_site_fract_z
Si Si1 0.750000 0.750000 0.240515
Si Si2 0.254072 0.378080 0.162333
Si Si3 0.640457 0.938989 0.172837
Si Si4 0.141042 0.880940 0.165129
Si Si5 0.630673 0.246477 0.158927
Si Si6 0.058011 0.659804 0.673636
Si Si7 0.949879 0.939361 0.829165
O O1 0.745166 0.690703 0.156401
O O2 0.694981 0.760397 0.327267
O O3 0.195958 0.404172 0.200068
O O4 0.297900 0.391226 0.284892
O O5 0.268367 0.398922 0.000000
O O6 0.590815 0.897770 0.213580
O O7 0.640174 0.000000 0.250000
O O8 0.637742 0.947821 0.000000
O O9 0.125521 0.814426 0.168777
O O10 0.104447 0.909150 0.285863
O O11 0.131951 0.901437 0.000000
O O12 0.596539 0.211626 0.275102
O O13 0.612744 0.227027 0.000000
O O14 0.052046 0.661431 0.500000
O O15 0.000000 0.662654 0.750000
O O16 0.000000 0.908976 0.750000
O O17 0.946461 0.000000 0.750000
O O18 0.958230 0.944133 0.000000
#
# Coordination Sequence:
#
# PCOD9495619 Si02
#       7
#     8  16  16  16  16  16  16
#     4  10  18  34  62  92 124 154 198 246 298 358
#     4  10  20  36  59  89 122 159 201 247 303 364
#     4  10  23  42  62  89 121 159 206 254 309 370
#     4  10  22  38  57  89 126 161 203 249 301 367
#     4  10  21  37  60  91 125 161 200 246 303 363
#     4  11  24  43  64  90 122 160 208 259 312 371
#     4  11  22  39  62  85 113 155 202 251 302 359
#
# _framework density 19.260459999999998
#
# number of rings (size 3 to 8) (size 9 to 14) (size 15 to 20)
#    0.000    1.692    1.538    3.231    0.000    7.077 
#    0.000    3.077    0.000    0.000    0.000    0.000 
#    0.000    0.000    0.000    0.000    0.000    0.000 
#
# Total GULP energy -289958.932703 kJ/mol
# GULP energy per Si atom -5576.133321 kJ/mol
# Density = 1.921662 g / cm^3
# Si number density = 19.260460 Si / 1000 Ang^3
#
#
#
# Elastic Constant Matrix: (Units=GPa)
#
#
# Indices 1 2 3 4 5 6 
#
# 1 123.7127 42.6593 50.3434 0.0000 0.0000 0.0000
# 2 42.6593 42.4333 32.2315 0.0000 0.0000 0.0000
# 3 50.3434 32.2315 117.5802 0.0000 0.0000 0.0000
# 4 0.0000 0.0000 0.0000 26.0364 0.0000 0.0000
# 5 0.0000 0.0000 0.0000 0.0000 37.1207 0.0000
# 6 0.0000 0.0000 0.0000 0.0000 0.0000 24.9399
#
#
#
# Elastic Compliance Matrix: (Units=1/GPa)
#
#
# Indices 1 2 3 4 5 6 
#
# 1 0.012925 -0.011102 -0.002491 0.000000 0.000000 0.000000
# 2 -0.011102 0.039300 -0.006020 0.000000 0.000000 0.000000
# 3 -0.002491 -0.006020 0.011221 0.000000 0.000000 0.000000
# 4 0.000000 0.000000 0.000000 0.038408 0.000000 0.000000
# 5 0.000000 0.000000 0.000000 0.000000 0.026939 0.000000
# 6 0.000000 0.000000 0.000000 0.000000 0.000000 0.040096
#
#
# Mechanical properties :
#
#
# Convention : Reuss Voigt Hill
#
# Bulk Modulus (GPa) = 41.28520 59.35493 50.32007
# Shear Modulus (GPa) = 23.12802 28.18552 25.65677
#
# Velocity S-wave (km/s) = 3.46902 3.82958 3.65375
# Velocity P-wave (km/s) = 6.12595 7.10198 6.63194
#
# Compressibility (1/GPa) = 0.02422175
#
# Stress axis : x y z
#
# Youngs Moduli (GPa) = 77.36911 25.44541 89.11577
#
# Poissons Ratio (x) = 0.28249 0.22196
# Poissons Ratio (y) = 0.85895 0.53644
# Poissons Ratio (z) = 0.19270 0.15317
#
# Static dielectric constant tensor:
#      x y z
#    x 1.726290 0.000000 0.000000 
#    y 0.000000 1.689780 0.000000 
#    z 0.000000 0.000000 1.713260 
# 
# From -- ./inp_files/10352.got.cif
#   From: 2010.05.17/outbox.cif.g08.bks.cpg/sg66_6_cif.got.tgz:10352.got - 2010.06.03 17:51:23.
