data_PCOD9495104
_publ_section_title
;
Structure prediction by ZEFSAII (Michael W. Deem and Ramdas Pophale) SiO2 
 PCOD9495104
Probable space group: C C C M
;
_chemical_formula_sum "Si O2"
_cell_formula_units_Z 72
_cell_length_a 9.618018
_cell_length_b 11.514511
_cell_length_c 27.742696
_cell_angle_alpha 90.000000
_cell_angle_beta 90.000000
_cell_angle_gamma 90.000000
_cell_volume 3072.414086
_symmetry_space_group_name_H-M "C C C M"
_symmetry_group_IT_number 66
_symmetry_cell_setting 'orthorhombic'
loop_
_space_group_symop_operation_xyz
x,y,z
-x,-y,z
x,-y,1/2-z
-x,y,1/2-z
-x,-y,-z
x,y,-z
-x,y,1/2+z
x,-y,1/2+z
1/2+x,1/2+y,z
1/2-x,1/2-y,z
1/2+x,1/2-y,1/2-z
1/2-x,1/2+y,1/2-z
1/2-x,1/2-y,-z
1/2+x,1/2+y,-z
1/2-x,1/2+y,1/2+z
1/2+x,1/2-y,1/2+z
loop_
_atom_site_type_symbol
_atom_site_label
_atom_site_fract_x
_atom_site_fract_y
_atom_site_fract_z
Si Si1 0.491335 0.182426 0.393233
Si Si2 0.373050 0.586610 0.000000
Si Si3 0.789260 0.086300 0.896827
Si Si4 0.590215 0.748238 0.207679
Si Si5 0.500000 0.500000 0.172988
Si Si6 0.088928 0.295179 0.000000
O O1 0.368342 0.094241 0.380951
O O2 0.392882 0.300348 0.396045
O O3 0.583713 0.197618 0.345987
O O4 0.565132 0.157498 0.444743
O O5 0.500000 0.500000 0.000000
O O6 0.284657 0.562073 0.953216
O O7 0.453699 0.708363 0.000000
O O8 0.868764 0.999566 0.862746
O O9 0.500000 0.807233 0.250000
O O10 0.750000 0.750000 0.223361
O O11 0.519726 0.620147 0.201021
O O12 0.250000 0.250000 0.000000
#
# Coordination Sequence:
#
# PCOD9495104 Si02
#       6
#    16   8  16  16   8   8
#     4   9  19  35  59  89 122 159 206 261 316 380
#     4  10  17  29  51  87 114 159 206 246 295 380
#     4   9  17  32  59  87 122 158 206 252 313 373
#     4  11  25  43  68  93 125 167 215 264 327 386
#     4  10  21  39  66  90 122 165 206 262 319 386
#     4  10  19  33  57  82 119 161 205 253 316 381
#
# _framework density 23.434342000000001
#
# number of rings (size 3 to 8) (size 9 to 14) (size 15 to 20)
#    0.000    2.222    1.111    1.667    6.222    2.667 
#    0.000    1.111    0.000    1.333    0.000    0.000 
#    0.000    0.000    0.000    0.000    0.000    0.000 
#
# Total GULP energy -200564.401182 kJ/mol
# GULP energy per Si atom -5571.233366 kJ/mol
# Density = 2.338100 g / cm^3
# Si number density = 23.434342 Si / 1000 Ang^3
#
#
#
# Elastic Constant Matrix: (Units=GPa)
#
#
# Indices 1 2 3 4 5 6 
#
# 1 138.0154 -6.7253 57.2699 0.0000 0.0000 0.0000
# 2 -6.7253 22.5770 12.5442 0.0000 0.0000 0.0000
# 3 57.2699 12.5442 162.1988 0.0000 0.0000 0.0000
# 4 0.0000 0.0000 0.0000 -3.4655 0.0000 0.0000
# 5 0.0000 0.0000 0.0000 0.0000 41.8200 0.0000
# 6 0.0000 0.0000 0.0000 0.0000 0.0000 29.9730
#
#
#
# Elastic Compliance Matrix: (Units=1/GPa)
#
#
# Indices 1 2 3 4 5 6 
#
# 1 0.008926 0.004608 -0.003508 0.000000 0.000000 0.000000
# 2 0.004608 0.048660 -0.005390 0.000000 0.000000 0.000000
# 3 -0.003508 -0.005390 0.007821 0.000000 0.000000 0.000000
# 4 0.000000 0.000000 0.000000 -0.288555 0.000000 0.000000
# 5 0.000000 0.000000 0.000000 0.000000 0.023912 0.000000
# 6 0.000000 0.000000 0.000000 0.000000 0.000000 0.033363
#
#
# Mechanical properties :
#
#
# Convention : Reuss Voigt Hill
#
# Bulk Modulus (GPa) = 17.59752 49.88544 33.74148
# Shear Modulus (GPa) = -36.14033 30.97898 -2.58068
#
# Velocity S-wave (km/s) = -3.93134 3.63980 -1.05054
# Velocity P-wave (km/s) = 3.61686 6.24482 3.59973
#
# Compressibility (1/GPa) = 0.05682619
#
# Stress axis : x y z
#
# Youngs Moduli (GPa) = 112.03578 20.55060 127.86518
#
# Poissons Ratio (x) = -0.09469 0.44854
# Poissons Ratio (y) = -0.51625 0.68923
# Poissons Ratio (z) = 0.39301 0.11077
#
# Static dielectric constant tensor:
#      x y z
#    x 1.822590 0.000000 0.000000 
#    y 0.000000 2.020700 0.000000 
#    z 0.000000 0.000000 1.870700 
# 
# From -- ./inp_files/62212.got.cif
#   From: 2010.05.17/outbox.cif.g08.bks.cpg/sg66_32_cif.got.tgz:62212.got - 2010.06.03 17:51:23.
