data_PCOD9495628
_publ_section_title
;
Structure prediction by ZEFSAII (Michael W. Deem and Ramdas Pophale) SiO2 
 PCOD9495628
Probable space group: C C C M
;
_chemical_formula_sum "Si O2"
_cell_formula_units_Z 108
_cell_length_a 29.823340
_cell_length_b 12.158239
_cell_length_c 14.674950
_cell_angle_alpha 90.000000
_cell_angle_beta 90.000000
_cell_angle_gamma 90.000000
_cell_volume 5321.126531
_symmetry_space_group_name_H-M "C C C M"
_symmetry_group_IT_number 66
_symmetry_cell_setting 'orthorhombic'
loop_
_space_group_symop_operation_xyz
x,y,z
-x,-y,z
x,-y,1/2-z
-x,y,1/2-z
-x,-y,-z
x,y,-z
-x,y,1/2+z
x,-y,1/2+z
1/2+x,1/2+y,z
1/2-x,1/2-y,z
1/2+x,1/2-y,1/2-z
1/2-x,1/2+y,1/2-z
1/2-x,1/2-y,-z
1/2+x,1/2+y,-z
1/2-x,1/2+y,1/2+z
1/2+x,1/2-y,1/2+z
loop_
_atom_site_type_symbol
_atom_site_label
_atom_site_fract_x
_atom_site_fract_y
_atom_site_fract_z
Si Si1 0.372717 0.722135 0.898732
Si Si2 0.973840 0.161732 0.897329
Si Si3 0.033419 0.645789 0.665636
Si Si4 0.000000 0.500000 0.500000
Si Si5 0.300664 0.734135 0.608555
Si Si6 0.936444 0.000000 0.750000
Si Si7 0.366576 0.459915 0.106376
Si Si8 0.635374 0.871991 0.230406
O O1 0.427245 0.730890 0.898498
O O2 0.361587 0.592460 0.884908
O O3 0.355236 0.799550 0.820160
O O4 0.357273 0.752870 0.000000
O O5 0.963876 0.074481 0.819432
O O6 0.015268 0.237467 0.871711
O O7 0.978417 0.117206 0.000000
O O8 0.028025 0.564174 0.581018
O O9 0.083770 0.645485 0.701395
O O10 0.000000 0.620960 0.750000
O O11 0.300274 0.748393 0.500000
O O12 0.250000 0.750000 0.642535
O O13 0.323144 0.614246 0.625362
O O14 0.332794 0.823960 0.652962
O O15 0.903968 0.068504 0.681822
O O16 0.380151 0.440817 0.000000
O O17 0.642362 0.000000 0.250000
#
# Coordination Sequence:
#
# PCOD9495628 Si02
#       8
#    16  16  16   4  16   8  16  16
#     4   9  19  38  66  97 132 175 220 279 337 406
#     4  10  20  38  62  92 132 179 229 277 338 400
#     4  12  25  43  66  96 135 178 238 282 346 409
#     4  12  26  44  68  94 124 188 236 300 328 408
#     4  10  23  45  71 100 134 172 221 286 354 417
#     4  10  18  34  65 100 134 178 220 284 333 400
#     4   9  18  36  66  99 126 169 227 274 345 418
#     4  12  26  43  65 102 135 179 231 282 344 426
#
# _framework density 20.296453
#
# number of rings (size 3 to 8) (size 9 to 14) (size 15 to 20)
#    0.000    1.630    2.222    4.222    1.037    0.593 
#    4.000    1.852    1.630    3.111    0.000    0.000 
#    0.000    0.000    0.000    0.000    0.000    0.000 
#
# Total GULP energy -301257.736931 kJ/mol
# GULP energy per Si atom -5578.846980 kJ/mol
# Density = 2.025026 g / cm^3
# Si number density = 20.296453 Si / 1000 Ang^3
#
#
#
# Elastic Constant Matrix: (Units=GPa)
#
#
# Indices 1 2 3 4 5 6 
#
# 1 98.6968 49.4563 19.7109 0.0000 0.0000 0.0000
# 2 49.4563 89.4272 44.4244 0.0000 0.0000 0.0000
# 3 19.7109 44.4244 116.1252 0.0000 0.0000 0.0000
# 4 0.0000 0.0000 0.0000 27.6753 0.0000 0.0000
# 5 0.0000 0.0000 0.0000 0.0000 24.4799 0.0000
# 6 0.0000 0.0000 0.0000 0.0000 0.0000 8.6681
#
#
#
# Elastic Compliance Matrix: (Units=1/GPa)
#
#
# Indices 1 2 3 4 5 6 
#
# 1 0.014066 -0.008140 0.000726 0.000000 0.000000 0.000000
# 2 -0.008140 0.018516 -0.005702 0.000000 0.000000 0.000000
# 3 0.000726 -0.005702 0.010669 0.000000 0.000000 0.000000
# 4 0.000000 0.000000 0.000000 0.036133 0.000000 0.000000
# 5 0.000000 0.000000 0.000000 0.000000 0.040850 0.000000
# 6 0.000000 0.000000 0.000000 0.000000 0.000000 0.115365
#
#
# Mechanical properties :
#
#
# Convention : Reuss Voigt Hill
#
# Bulk Modulus (GPa) = 58.75082 59.04804 58.89943
# Shear Modulus (GPa) = 18.69135 24.87520 21.78328
#
# Velocity S-wave (km/s) = 3.03795 3.50465 3.27961
# Velocity P-wave (km/s) = 6.42765 6.74779 6.58967
#
# Compressibility (1/GPa) = 0.01702104
#
# Stress axis : x y z
#
# Youngs Moduli (GPa) = 71.09496 54.00650 93.72602
#
# Poissons Ratio (x) = 0.43959 -0.06808
# Poissons Ratio (y) = 0.57869 0.53442
# Poissons Ratio (z) = -0.05164 0.30794
#
# Static dielectric constant tensor:
#      x y z
#    x 1.711820 0.000000 0.000000 
#    y 0.000000 1.773070 0.000000 
#    z 0.000000 0.000000 1.729270 
# 
# From -- ./inp_files/33873.got.cif
#   From: 2010.05.17/outbox.cif.g08.bks.cpg/sg66_17_cif.got.tgz:33873.got - 2010.06.03 17:51:23.
