data_PCOD9495111
_publ_section_title
;
Structure prediction by ZEFSAII (Michael W. Deem and Ramdas Pophale) SiO2 
 PCOD9495111
Probable space group: C C C M
;
_chemical_formula_sum "Si O2"
_cell_formula_units_Z 88
_cell_length_a 9.717712
_cell_length_b 16.214780
_cell_length_c 22.559555
_cell_angle_alpha 90.000000
_cell_angle_beta 90.000000
_cell_angle_gamma 90.000000
_cell_volume 3554.721764
_symmetry_space_group_name_H-M "C C C M"
_symmetry_group_IT_number 66
_symmetry_cell_setting 'orthorhombic'
loop_
_space_group_symop_operation_xyz
x,y,z
-x,-y,z
x,-y,1/2-z
-x,y,1/2-z
-x,-y,-z
x,y,-z
-x,y,1/2+z
x,-y,1/2+z
1/2+x,1/2+y,z
1/2-x,1/2-y,z
1/2+x,1/2-y,1/2-z
1/2-x,1/2+y,1/2-z
1/2-x,1/2-y,-z
1/2+x,1/2+y,-z
1/2-x,1/2+y,1/2+z
1/2+x,1/2-y,1/2+z
loop_
_atom_site_type_symbol
_atom_site_label
_atom_site_fract_x
_atom_site_fract_y
_atom_site_fract_z
Si Si1 0.168658 0.552168 0.690201
Si Si2 0.785224 0.959210 0.400879
Si Si3 0.598130 0.209384 0.368394
Si Si4 0.947626 0.727618 0.000000
Si Si5 0.878775 0.913221 0.000000
Si Si6 0.479919 0.377465 0.820303
Si Si7 0.184425 0.846555 0.000000
O O1 0.155078 0.500000 0.750000
O O2 0.156799 0.486818 0.637740
O O3 0.083776 0.634514 0.677410
O O4 0.325979 0.584815 0.679505
O O5 0.747632 0.880920 0.441205
O O6 0.907425 0.929777 0.356629
O O7 0.825120 0.037585 0.442845
O O8 0.750000 0.250000 0.364013
O O9 0.577052 0.185196 0.437066
O O10 0.507620 0.287864 0.350479
O O11 0.642666 0.686081 0.000000
O O12 0.108217 0.759194 0.000000
O O13 0.044583 0.907406 0.000000
O O14 0.500000 0.371308 0.750000
#
# Coordination Sequence:
#
# PCOD9495111 Si02
#       7
#    16  16  16   8   8  16   8
#     4  11  21  30  45  70 103 138 181 224 266 322
#     4  11  17  27  43  71  95 138 180 220 257 316
#     4  10  21  32  44  68 105 145 180 216 279 324
#     4  10  17  30  43  64 103 151 175 218 265 341
#     4   9  16  23  42  65 102 131 172 217 262 309
#     4  11  19  30  48  69 100 137 188 220 261 317
#     4   9  16  24  43  63 102 130 176 217 256 310
#
# _framework density 24.755806
#
# number of rings (size 3 to 8) (size 9 to 14) (size 15 to 20)
#    0.545    1.091    3.636    6.273    0.000    1.455 
#    0.000    0.000    0.000    0.545    0.000    0.000 
#    0.000   20.364    0.000    0.000    0.000    0.000 
#
# Total GULP energy -245721.346215 kJ/mol
# GULP energy per Si atom -5584.576050 kJ/mol
# Density = 2.469946 g / cm^3
# Si number density = 24.755806 Si / 1000 Ang^3
#
#
#
# Elastic Constant Matrix: (Units=GPa)
#
#
# Indices 1 2 3 4 5 6 
#
# 1 50.8187 26.3377 2.9940 0.0000 0.0000 0.0000
# 2 26.3377 149.8470 60.1918 0.0000 0.0000 0.0000
# 3 2.9940 60.1918 172.0347 0.0000 0.0000 0.0000
# 4 0.0000 0.0000 0.0000 24.1362 0.0000 0.0000
# 5 0.0000 0.0000 0.0000 0.0000 7.0715 0.0000
# 6 0.0000 0.0000 0.0000 0.0000 0.0000 31.6520
#
#
#
# Elastic Compliance Matrix: (Units=1/GPa)
#
#
# Indices 1 2 3 4 5 6 
#
# 1 0.021834 -0.004288 0.001120 0.000000 0.000000 0.000000
# 2 -0.004288 0.008607 -0.002937 0.000000 0.000000 0.000000
# 3 0.001120 -0.002937 0.006821 0.000000 0.000000 0.000000
# 4 0.000000 0.000000 0.000000 0.041432 0.000000 0.000000
# 5 0.000000 0.000000 0.000000 0.000000 0.141412 0.000000
# 6 0.000000 0.000000 0.000000 0.000000 0.000000 0.031594
#
#
# Mechanical properties :
#
#
# Convention : Reuss Voigt Hill
#
# Bulk Modulus (GPa) = 39.91514 61.30526 50.61020
# Shear Modulus (GPa) = 18.36496 31.45040 24.90768
#
# Velocity S-wave (km/s) = 2.72664 3.56817 3.17540
# Velocity P-wave (km/s) = 5.10600 6.46479 5.82515
#
# Compressibility (1/GPa) = 0.02505315
#
# Stress axis : x y z
#
# Youngs Moduli (GPa) = 45.80034 116.18833 146.61060
#
# Poissons Ratio (x) = 0.49816 -0.16423
# Poissons Ratio (y) = 0.19637 0.43055
# Poissons Ratio (z) = -0.05130 0.34121
#
# Static dielectric constant tensor:
#      x y z
#    x 2.078010 0.000000 0.000000 
#    y 0.000000 2.045970 0.000000 
#    z 0.000000 0.000000 2.072540 
# 
# From -- ./inp_files/49902.got.cif
#   From: 2010.05.17/outbox.cif.g08.bks.cpg/sg66_25_cif.got.tgz:49902.got - 2010.06.03 17:51:23.
