data_PCOD9495698
_publ_section_title
;
Structure prediction by ZEFSAII (Michael W. Deem and Ramdas Pophale) SiO2 
 PCOD9495698
Probable space group: C C C M
;
_chemical_formula_sum "Si O2"
_cell_formula_units_Z 56
_cell_length_a 7.066735
_cell_length_b 12.664777
_cell_length_c 25.896073
_cell_angle_alpha 90.000000
_cell_angle_beta 90.000000
_cell_angle_gamma 90.000000
_cell_volume 2317.662872
_symmetry_space_group_name_H-M "C C C M"
_symmetry_group_IT_number 66
_symmetry_cell_setting 'orthorhombic'
loop_
_space_group_symop_operation_xyz
x,y,z
-x,-y,z
x,-y,1/2-z
-x,y,1/2-z
-x,-y,-z
x,y,-z
-x,y,1/2+z
x,-y,1/2+z
1/2+x,1/2+y,z
1/2-x,1/2-y,z
1/2+x,1/2-y,1/2-z
1/2-x,1/2+y,1/2-z
1/2-x,1/2-y,-z
1/2+x,1/2+y,-z
1/2-x,1/2+y,1/2+z
1/2+x,1/2-y,1/2+z
loop_
_atom_site_type_symbol
_atom_site_label
_atom_site_fract_x
_atom_site_fract_y
_atom_site_fract_z
Si Si1 0.989258 0.655494 0.808648
Si Si2 0.500000 0.000000 0.106949
Si Si3 0.168487 0.130997 0.942337
Si Si4 0.453138 0.383644 0.166261
O O1 0.769915 0.638039 0.824399
O O2 0.044940 0.778811 0.810204
O O3 0.000000 0.618712 0.750000
O O4 0.088958 0.586167 0.852959
O O5 0.658194 0.946226 0.071760
O O6 0.250000 0.250000 0.939839
O O7 0.021574 0.119655 0.895658
O O8 0.095885 0.113089 0.000000
O O9 0.500000 0.500000 0.186300
#
# Coordination Sequence:
#
# PCOD9495698 Si02
#       4
#    16   8  16  16
#     4  10  21  42  61  91 131 169 213 264 319 374
#     4  10  18  38  62  90 124 164 212 256 310 384
#     4  10  19  37  65  92 127 167 205 261 320 372
#     4  10  21  43  64  96 126 165 217 260 314 382
#
# _framework density 24.162272000000002
#
# number of rings (size 3 to 8) (size 9 to 14) (size 15 to 20)
#    0.000    2.000    5.714    0.857    0.000    1.143 
#   36.000    0.000    0.000    1.714    0.000    0.000 
#    0.000    0.000    0.000    0.000    0.000    0.000 
#
# Total GULP energy -156565.652620 kJ/mol
# GULP energy per Si atom -5591.630451 kJ/mol
# Density = 2.410728 g / cm^3
# Si number density = 24.162272 Si / 1000 Ang^3
#
#
#
# Elastic Constant Matrix: (Units=GPa)
#
#
# Indices 1 2 3 4 5 6 
#
# 1 56.8245 28.1094 13.3699 0.0000 0.0000 0.0000
# 2 28.1094 209.0348 21.8317 0.0000 0.0000 0.0000
# 3 13.3699 21.8317 169.8868 0.0000 0.0000 0.0000
# 4 0.0000 0.0000 0.0000 -121.7365 0.0000 0.0000
# 5 0.0000 0.0000 0.0000 0.0000 0.0084 0.0000
# 6 0.0000 0.0000 0.0000 0.0000 0.0000 38.1593
#
#
#
# Elastic Compliance Matrix: (Units=1/GPa)
#
#
# Indices 1 2 3 4 5 6 
#
# 1 0.019086 -0.002442 -0.001188 0.000000 0.000000 0.000000
# 2 -0.002442 0.005162 -0.000471 0.000000 0.000000 0.000000
# 3 -0.001188 -0.000471 0.006040 0.000000 0.000000 0.000000
# 4 0.000000 0.000000 0.000000 -0.008214 0.000000 0.000000
# 5 0.000000 0.000000 0.000000 0.000000119.231616 0.000000
# 6 0.000000 0.000000 0.000000 0.000000 0.000000 0.026206
#
#
# Mechanical properties :
#
#
# Convention : Reuss Voigt Hill
#
# Bulk Modulus (GPa) = 45.28098 62.48533 53.88316
# Shear Modulus (GPa) = 0.04191 8.11523 4.07857
#
# Velocity S-wave (km/s) = 0.13185 1.83465 1.30064
# Velocity P-wave (km/s) = 4.33638 5.51405 4.96029
#
# Compressibility (1/GPa) = 0.02208433
#
# Stress axis : x y z
#
# Youngs Moduli (GPa) = 52.39496 193.74106 165.55426
#
# Poissons Ratio (x) = 0.47320 0.19671
# Poissons Ratio (y) = 0.12797 0.07799
# Poissons Ratio (z) = 0.06225 0.09127
#
# Static dielectric constant tensor:
#      x y z
#    x 2.085280 0.000000 0.000000 
#    y 0.000000 2.014400 0.000000 
#    z 0.000000 0.000000 1.916520 
# 
# From -- ./inp_files/61936.got.cif
#   From: 2010.05.17/outbox.cif.g08.bks.cpg/sg66_31_cif.got.tgz:61936.got - 2010.06.03 17:51:23.
