data_PCOD9495636
_publ_section_title
;
Structure prediction by ZEFSAII (Michael W. Deem and Ramdas Pophale) SiO2 
 PCOD9495636
Probable space group: C C C M
;
_chemical_formula_sum "Si O2"
_cell_formula_units_Z 120
_cell_length_a 16.846295
_cell_length_b 12.322339
_cell_length_c 26.979539
_cell_angle_alpha 90.000000
_cell_angle_beta 90.000000
_cell_angle_gamma 90.000000
_cell_volume 5600.568051
_symmetry_space_group_name_H-M "C C C M"
_symmetry_group_IT_number 66
_symmetry_cell_setting 'orthorhombic'
loop_
_space_group_symop_operation_xyz
x,y,z
-x,-y,z
x,-y,1/2-z
-x,y,1/2-z
-x,-y,-z
x,y,-z
-x,y,1/2+z
x,-y,1/2+z
1/2+x,1/2+y,z
1/2-x,1/2-y,z
1/2+x,1/2-y,1/2-z
1/2-x,1/2+y,1/2-z
1/2-x,1/2-y,-z
1/2+x,1/2+y,-z
1/2-x,1/2+y,1/2+z
1/2+x,1/2-y,1/2+z
loop_
_atom_site_type_symbol
_atom_site_label
_atom_site_fract_x
_atom_site_fract_y
_atom_site_fract_z
Si Si1 0.751447 0.903666 0.942701
Si Si2 0.093539 0.497043 0.940114
Si Si3 0.154564 0.916512 0.815256
Si Si4 0.948257 0.277648 0.942261
Si Si5 0.197463 0.852158 0.921315
Si Si6 0.000000 0.000000 0.136928
Si Si7 0.098528 0.806005 0.390601
Si Si8 0.821386 0.834601 0.793056
O O1 0.816021 0.827817 0.915785
O O2 0.661977 0.916779 0.920365
O O3 0.779074 0.029685 0.940972
O O4 0.747468 0.870847 0.000000
O O5 0.108627 0.622622 0.926041
O O6 0.000000 0.500000 0.927726
O O7 0.098927 0.485580 0.000000
O O8 0.196943 0.861062 0.861629
O O9 0.158669 0.849573 0.764659
O O10 0.062239 0.934515 0.829209
O O11 0.190863 0.038761 0.809420
O O12 0.893348 0.173492 0.935885
O O13 0.031775 0.270726 0.914121
O O14 0.967312 0.293175 0.000000
O O15 0.250000 0.750000 0.938884
O O16 0.054595 0.078019 0.105065
O O17 0.113120 0.791344 0.331948
O O18 0.750000 0.750000 0.797884
#
# Coordination Sequence:
#
# PCOD9495636 Si02
#       8
#    16  16  16  16  16   8  16  16
#     4  11  21  35  57  86 121 165 207 252 304 358
#     4   9  20  38  56  76 111 163 215 254 297 354
#     4  10  21  39  62  89 125 150 193 255 306 369
#     4  11  22  36  56  86 124 161 202 256 310 369
#     4  12  21  35  59  91 124 160 205 253 305 367
#     4  10  18  35  57  84 120 150 181 226 305 358
#     4  11  21  37  57  89 122 157 199 251 305 369
#     4  10  22  39  61  86 114 156 198 245 304 366
#
# _framework density 21.426397000000001
#
# number of rings (size 3 to 8) (size 9 to 14) (size 15 to 20)
#    0.000    1.467    5.333    1.200    0.000    5.867 
#    0.000    2.000    0.000    4.000    0.000    0.000 
#    0.000    0.000    0.000    0.000    0.000    0.000 
#
# Total GULP energy -334604.711578 kJ/mol
# GULP energy per Si atom -5576.745193 kJ/mol
# Density = 2.137763 g / cm^3
# Si number density = 21.426397 Si / 1000 Ang^3
#
#
#
# Elastic Constant Matrix: (Units=GPa)
#
#
# Indices 1 2 3 4 5 6 
#
# 1 145.0576 57.8957 16.9186 0.0000 0.0000 0.0000
# 2 57.8957 78.2563 17.4500 0.0000 0.0000 0.0000
# 3 16.9186 17.4500 92.7433 0.0000 0.0000 0.0000
# 4 0.0000 0.0000 0.0000 3.8110 0.0000 0.0000
# 5 0.0000 0.0000 0.0000 0.0000 27.6928 0.0000
# 6 0.0000 0.0000 0.0000 0.0000 0.0000 49.0375
#
#
#
# Elastic Compliance Matrix: (Units=1/GPa)
#
#
# Indices 1 2 3 4 5 6 
#
# 1 0.009800 -0.007151 -0.000442 0.000000 0.000000 0.000000
# 2 -0.007151 0.018557 -0.002187 0.000000 0.000000 0.000000
# 3 -0.000442 -0.002187 0.011275 0.000000 0.000000 0.000000
# 4 0.000000 0.000000 0.000000 0.262400 0.000000 0.000000
# 5 0.000000 0.000000 0.000000 0.000000 0.036110 0.000000
# 6 0.000000 0.000000 0.000000 0.000000 0.000000 0.020393
#
#
# Mechanical properties :
#
#
# Convention : Reuss Voigt Hill
#
# Bulk Modulus (GPa) = 49.82518 55.62067 52.72292
# Shear Modulus (GPa) = 12.99424 31.02779 22.01101
#
# Velocity S-wave (km/s) = 2.46531 3.80953 3.20861
# Velocity P-wave (km/s) = 5.60431 6.73538 6.19571
#
# Compressibility (1/GPa) = 0.02007017
#
# Stress axis : x y z
#
# Youngs Moduli (GPa) = 102.04424 53.88813 88.69504
#
# Poissons Ratio (x) = 0.38538 0.03921
# Poissons Ratio (y) = 0.72976 0.19397
# Poissons Ratio (z) = 0.04512 0.11785
#
# Static dielectric constant tensor:
#      x y z
#    x 1.823260 0.000000 0.000000 
#    y 0.000000 1.897310 0.000000 
#    z 0.000000 0.000000 1.765650 
# 
# From -- ./inp_files/69676.got.cif
#   From: 2010.05.17/outbox.cif.g08.bks.cpg/sg66_35_cif.got.tgz:69676.got - 2010.06.03 17:51:23.
