data_PCOD9495112
_publ_section_title
;
Structure prediction by ZEFSAII (Michael W. Deem and Ramdas Pophale) SiO2 
 PCOD9495112
Probable space group: C C C M
;
_chemical_formula_sum "Si O2"
_cell_formula_units_Z 84
_cell_length_a 25.251770
_cell_length_b 15.773728
_cell_length_c 13.777939
_cell_angle_alpha 90.000000
_cell_angle_beta 90.000000
_cell_angle_gamma 90.000000
_cell_volume 5487.953593
_symmetry_space_group_name_H-M "C C C M"
_symmetry_group_IT_number 66
_symmetry_cell_setting 'orthorhombic'
loop_
_space_group_symop_operation_xyz
x,y,z
-x,-y,z
x,-y,1/2-z
-x,y,1/2-z
-x,-y,-z
x,y,-z
-x,y,1/2+z
x,-y,1/2+z
1/2+x,1/2+y,z
1/2-x,1/2-y,z
1/2+x,1/2-y,1/2-z
1/2-x,1/2+y,1/2-z
1/2-x,1/2-y,-z
1/2+x,1/2+y,-z
1/2-x,1/2+y,1/2+z
1/2+x,1/2-y,1/2+z
loop_
_atom_site_type_symbol
_atom_site_label
_atom_site_fract_x
_atom_site_fract_y
_atom_site_fract_z
Si Si1 0.827826 0.188158 0.309704
Si Si2 0.793819 0.370279 0.686126
Si Si3 0.000000 0.000000 0.750000
Si Si4 0.785287 0.552958 0.391876
Si Si5 0.911872 0.057247 0.612055
Si Si6 0.663388 0.603807 0.609661
O O1 0.826643 0.286480 0.338345
O O2 0.768317 0.153059 0.326823
O O3 0.870804 0.131960 0.364563
O O4 0.837790 0.172567 0.194780
O O5 0.802784 0.456297 0.626916
O O6 0.803209 0.392117 0.799796
O O7 0.037897 0.055766 0.818104
O O8 0.800745 0.581363 0.500000
O O9 0.721110 0.558982 0.386510
O O10 0.927838 0.060700 0.500000
O O11 0.879878 0.969044 0.627933
O O12 0.656831 0.637080 0.500000
#
# Coordination Sequence:
#
# PCOD9495112 Si02
#       6
#    16  16   4  16  16  16
#     4  10  17  30  43  65  94 118 159 203 232 270
#     4   9  18  26  44  66  89 126 159 190 235 280
#     4  12  22  36  52  66  92 126 166 196 232 280
#     4   9  16  28  42  61  91 123 157 188 223 279
#     4  11  21  33  49  68  90 123 162 198 234 273
#     4   9  16  28  46  61  84 124 158 189 232 271
#
# _framework density 15.306252000000001
#
# number of rings (size 3 to 8) (size 9 to 14) (size 15 to 20)
#    0.000    2.286    3.810    0.286    0.000    1.524 
#    0.000    5.714    0.000    0.000    0.000    0.000 
#    0.000    3.048    0.000    8.571    0.000    0.000 
#
# Total GULP energy -234034.614864 kJ/mol
# GULP energy per Si atom -5572.252735 kJ/mol
# Density = 1.527141 g / cm^3
# Si number density = 15.306252 Si / 1000 Ang^3
#
#
#
# Elastic Constant Matrix: (Units=GPa)
#
#
# Indices 1 2 3 4 5 6 
#
# 1 44.1175 17.2523 20.2959 0.0000 0.0000 0.0000
# 2 17.2523 48.8229 -1.5481 0.0000 0.0000 0.0000
# 3 20.2959 -1.5481 51.4725 0.0000 0.0000 0.0000
# 4 0.0000 0.0000 0.0000 7.8439 0.0000 0.0000
# 5 0.0000 0.0000 0.0000 0.0000 15.0820 0.0000
# 6 0.0000 0.0000 0.0000 0.0000 0.0000 9.7846
#
#
#
# Elastic Compliance Matrix: (Units=1/GPa)
#
#
# Indices 1 2 3 4 5 6 
#
# 1 0.033815 -0.012383 -0.013706 0.000000 0.000000 0.000000
# 2 -0.012383 0.025037 0.005636 0.000000 0.000000 0.000000
# 3 -0.013706 0.005636 0.025002 0.000000 0.000000 0.000000
# 4 0.000000 0.000000 0.000000 0.127488 0.000000 0.000000
# 5 0.000000 0.000000 0.000000 0.000000 0.066304 0.000000
# 6 0.000000 0.000000 0.000000 0.000000 0.000000 0.102201
#
#
# Mechanical properties :
#
#
# Convention : Reuss Voigt Hill
#
# Bulk Modulus (GPa) = 23.28488 24.04590 23.66539
# Shear Modulus (GPa) = 11.49244 13.76961 12.63103
#
# Velocity S-wave (km/s) = 2.74311 3.00260 2.87578
# Velocity P-wave (km/s) = 5.02778 5.26923 5.14992
#
# Compressibility (1/GPa) = 0.04294633
#
# Stress axis : x y z
#
# Youngs Moduli (GPa) = 29.57303 39.94127 39.99740
#
# Poissons Ratio (x) = 0.49461 0.54819
# Poissons Ratio (y) = 0.36622 -0.22542
# Poissons Ratio (z) = 0.40532 -0.22510
#
# Static dielectric constant tensor:
#      x y z
#    x 1.478330 0.000000 0.000000 
#    y 0.000000 1.500620 0.000000 
#    z 0.000000 0.000000 1.550480 
# 
# From -- ./inp_files/28802.got.cif
#   From: 2010.05.17/outbox.cif.g08.bks.cpg/sg66_15_cif.got.tgz:28802.got - 2010.06.03 17:51:23.
