data_PCOD9495119
_publ_section_title
;
Structure prediction by ZEFSAII (Michael W. Deem and Ramdas Pophale) SiO2 
 PCOD9495119
Probable space group: C C C M
;
_chemical_formula_sum "Si O2"
_cell_formula_units_Z 80
_cell_length_a 22.942071
_cell_length_b 16.895150
_cell_length_c 13.631081
_cell_angle_alpha 90.000000
_cell_angle_beta 90.000000
_cell_angle_gamma 90.000000
_cell_volume 5283.539638
_symmetry_space_group_name_H-M "C C C M"
_symmetry_group_IT_number 66
_symmetry_cell_setting 'orthorhombic'
loop_
_space_group_symop_operation_xyz
x,y,z
-x,-y,z
x,-y,1/2-z
-x,y,1/2-z
-x,-y,-z
x,y,-z
-x,y,1/2+z
x,-y,1/2+z
1/2+x,1/2+y,z
1/2-x,1/2-y,z
1/2+x,1/2-y,1/2-z
1/2-x,1/2+y,1/2-z
1/2-x,1/2-y,-z
1/2+x,1/2+y,-z
1/2-x,1/2+y,1/2+z
1/2+x,1/2-y,1/2+z
loop_
_atom_site_type_symbol
_atom_site_label
_atom_site_fract_x
_atom_site_fract_y
_atom_site_fract_z
Si Si1 0.660120 0.227106 0.618021
Si Si2 0.389010 0.028902 0.612457
Si Si3 0.729225 0.625560 0.810951
Si Si4 0.249032 0.459607 0.388604
Si Si5 0.433692 0.873310 0.719386
O O1 0.658854 0.230785 0.500000
O O2 0.680175 0.310489 0.663381
O O3 0.710709 0.165040 0.650091
O O4 0.599773 0.195422 0.662260
O O5 0.404646 0.040631 0.500000
O O6 0.319508 0.017524 0.620329
O O7 0.402330 0.104192 0.679081
O O8 0.423660 0.953086 0.654493
O O9 0.736000 0.603057 0.696302
O O10 0.719142 0.542293 0.865429
O O11 0.259485 0.432868 0.500000
O O12 0.500000 0.859308 0.750000
#
# Coordination Sequence:
#
# PCOD9495119 Si02
#       5
#    16  16  16  16  16
#     4  11  20  32  49  71  96 128 165 203 245 290
#     4  10  18  31  47  67  96 131 166 195 230 284
#     4  10  18  31  50  73  99 126 162 201 243 294
#     4  10  17  30  51  74 100 129 159 198 243 292
#     4  11  21  32  45  66  96 129 169 208 235 274
#
# _framework density 15.141365
#
# number of rings (size 3 to 8) (size 9 to 14) (size 15 to 20)
#    0.000    1.600    4.000    5.400    0.000    2.400 
#    0.000    3.000    0.000    0.000    0.000    2.800 
#    0.000    8.000    0.000    0.000    0.000    0.000 
#
# Total GULP energy -223010.821254 kJ/mol
# GULP energy per Si atom -5575.270531 kJ/mol
# Density = 1.510690 g / cm^3
# Si number density = 15.141365 Si / 1000 Ang^3
#
#
#
# Elastic Constant Matrix: (Units=GPa)
#
#
# Indices 1 2 3 4 5 6 
#
# 1 47.5521 39.0605 44.3760 0.0000 0.0000 0.0000
# 2 39.0605 79.5092 59.6213 0.0000 0.0000 0.0000
# 3 44.3760 59.6213 158.1852 0.0000 0.0000 0.0000
# 4 0.0000 0.0000 0.0000 12.4844 0.0000 0.0000
# 5 0.0000 0.0000 0.0000 0.0000 4.8411 0.0000
# 6 0.0000 0.0000 0.0000 0.0000 0.0000 11.0061
#
#
#
# Elastic Compliance Matrix: (Units=1/GPa)
#
#
# Indices 1 2 3 4 5 6 
#
# 1 0.037940 -0.014857 -0.005044 0.000000 0.000000 0.000000
# 2 -0.014857 0.023350 -0.004633 0.000000 0.000000 0.000000
# 3 -0.005044 -0.004633 0.009483 0.000000 0.000000 0.000000
# 4 0.000000 0.000000 0.000000 0.080100 0.000000 0.000000
# 5 0.000000 0.000000 0.000000 0.000000 0.206566 0.000000
# 6 0.000000 0.000000 0.000000 0.000000 0.000000 0.090859
#
#
# Mechanical properties :
#
#
# Convention : Reuss Voigt Hill
#
# Bulk Modulus (GPa) = 46.07030 63.48466 54.77748
# Shear Modulus (GPa) = 9.90885 15.14557 12.52721
#
# Velocity S-wave (km/s) = 2.56094 3.16615 2.87949
# Velocity P-wave (km/s) = 6.26398 7.44211 6.87831
#
# Compressibility (1/GPa) = 0.02170596
#
# Stress axis : x y z
#
# Youngs Moduli (GPa) = 26.35729 42.82664 105.45328
#
# Poissons Ratio (x) = 0.63626 0.53189
# Poissons Ratio (y) = 0.39158 0.48857
# Poissons Ratio (z) = 0.13294 0.19842
#
# Static dielectric constant tensor:
#      x y z
#    x 1.515080 0.000000 0.000000 
#    y 0.000000 1.500750 0.000000 
#    z 0.000000 0.000000 1.527280 
# 
# From -- ./inp_files/28104.got.cif
#   From: 2010.05.17/outbox.cif.g08.bks.cpg/sg66_15_cif.got.tgz:28104.got - 2010.06.03 17:51:23.
