data_PCOD9495197
_publ_section_title
;
Structure prediction by ZEFSAII (Michael W. Deem and Ramdas Pophale) SiO2 
 PCOD9495197
Probable space group: C C C M
;
_chemical_formula_sum "Si O2"
_cell_formula_units_Z 88
_cell_length_a 22.989100
_cell_length_b 8.802956
_cell_length_c 23.162441
_cell_angle_alpha 90.000000
_cell_angle_beta 90.000000
_cell_angle_gamma 90.000000
_cell_volume 4687.430339
_symmetry_space_group_name_H-M "C C C M"
_symmetry_group_IT_number 66
_symmetry_cell_setting 'orthorhombic'
loop_
_space_group_symop_operation_xyz
x,y,z
-x,-y,z
x,-y,1/2-z
-x,y,1/2-z
-x,-y,-z
x,y,-z
-x,y,1/2+z
x,-y,1/2+z
1/2+x,1/2+y,z
1/2-x,1/2-y,z
1/2+x,1/2-y,1/2-z
1/2-x,1/2+y,1/2-z
1/2-x,1/2-y,-z
1/2+x,1/2+y,-z
1/2-x,1/2+y,1/2+z
1/2+x,1/2-y,1/2+z
loop_
_atom_site_type_symbol
_atom_site_label
_atom_site_fract_x
_atom_site_fract_y
_atom_site_fract_z
Si Si1 0.378009 0.243492 0.000000
Si Si2 0.439227 0.065032 0.899089
Si Si3 0.938868 0.674928 0.227429
Si Si4 0.811505 0.321889 0.768557
Si Si5 0.657028 0.818073 0.400656
Si Si6 0.218798 0.489697 0.000000
Si Si7 0.351997 0.575369 0.000000
O O1 0.407852 0.168304 0.945170
O O2 0.388381 0.422102 0.000000
O O3 0.312426 0.173666 0.000000
O O4 0.445442 0.159327 0.840824
O O5 0.500000 0.000000 0.920349
O O6 0.399525 0.918366 0.887527
O O7 0.938152 0.500000 0.250000
O O8 0.874449 0.737110 0.244080
O O9 0.000000 0.744844 0.250000
O O10 0.809388 0.500000 0.750000
O O11 0.750000 0.250000 0.747935
O O12 0.815128 0.294354 0.837844
O O13 0.641515 0.675946 0.441965
O O14 0.696716 0.920139 0.443188
O O15 0.286994 0.508527 0.000000
#
# Coordination Sequence:
#
# PCOD9495197 Si02
#       7
#     8  16  16  16  16   8   8
#     4  10  24  35  54  91 116 143 202 254 304 336
#     4  11  19  38  62  86 112 152 201 255 284 350
#     4  10  17  35  64  86 112 152 208 244 280 348
#     4  11  21  37  56  92 124 151 195 248 306 355
#     4  10  19  36  60  83 112 156 198 236 295 366
#     4   9  19  36  58  79 107 157 204 231 281 357
#     4  11  21  39  55  82 119 158 191 241 308 365
#
# _framework density 18.773613000000001
#
# number of rings (size 3 to 8) (size 9 to 14) (size 15 to 20)
#    0.000    1.636    5.455    3.273    0.000    0.000 
#    6.545    1.818    0.000    0.545    0.000    1.273 
#    0.000    0.000    0.000    0.000    0.000    0.000 
#
# Total GULP energy -245067.611055 kJ/mol
# GULP energy per Si atom -5569.718433 kJ/mol
# Density = 1.873088 g / cm^3
# Si number density = 18.773613 Si / 1000 Ang^3
#
#
#
# Elastic Constant Matrix: (Units=GPa)
#
#
# Indices 1 2 3 4 5 6 
#
# 1 135.8126 26.0886 15.0037 0.0000 0.0000 0.0000
# 2 26.0886 73.9663 31.2759 0.0000 0.0000 0.0000
# 3 15.0037 31.2759 90.7833 0.0000 0.0000 0.0000
# 4 0.0000 0.0000 0.0000 15.9434 0.0000 0.0000
# 5 0.0000 0.0000 0.0000 0.0000 10.1920 0.0000
# 6 0.0000 0.0000 0.0000 0.0000 0.0000 17.0817
#
#
#
# Elastic Compliance Matrix: (Units=1/GPa)
#
#
# Indices 1 2 3 4 5 6 
#
# 1 0.007911 -0.002619 -0.000405 0.000000 0.000000 0.000000
# 2 -0.002619 0.016692 -0.005318 0.000000 0.000000 0.000000
# 3 -0.000405 -0.005318 0.012914 0.000000 0.000000 0.000000
# 4 0.000000 0.000000 0.000000 0.062722 0.000000 0.000000
# 5 0.000000 0.000000 0.000000 0.000000 0.098116 0.000000
# 6 0.000000 0.000000 0.000000 0.000000 0.000000 0.058542
#
#
# Mechanical properties :
#
#
# Convention : Reuss Voigt Hill
#
# Bulk Modulus (GPa) = 47.99985 49.47762 48.73874
# Shear Modulus (GPa) = 17.82368 23.85634 20.84001
#
# Velocity S-wave (km/s) = 3.08458 3.56861 3.33538
# Velocity P-wave (km/s) = 6.18946 6.58726 6.39146
#
# Compressibility (1/GPa) = 0.02083340
#
# Stress axis : x y z
#
# Youngs Moduli (GPa) = 126.40745 59.90919 77.43393
#
# Poissons Ratio (x) = 0.15690 0.03138
# Poissons Ratio (y) = 0.33105 0.41177
# Poissons Ratio (z) = 0.05122 0.31858
#
# Static dielectric constant tensor:
#      x y z
#    x 1.714810 0.000000 0.000000 
#    y 0.000000 1.643360 0.000000 
#    z 0.000000 0.000000 1.609110 
# 
# From -- ./inp_files/52452.got.cif
#   From: 2010.05.17/outbox.cif.g08.bks.cpg/sg66_27_cif.got.tgz:52452.got - 2010.06.03 17:51:23.
