data_PCOD9495127
_publ_section_title
;
Structure prediction by ZEFSAII (Michael W. Deem and Ramdas Pophale) SiO2 
 PCOD9495127
Probable space group: C C C M
;
_chemical_formula_sum "Si O2"
_cell_formula_units_Z 116
_cell_length_a 25.466378
_cell_length_b 25.972938
_cell_length_c 9.261921
_cell_angle_alpha 90.000000
_cell_angle_beta 90.000000
_cell_angle_gamma 90.000000
_cell_volume 6126.174063
_symmetry_space_group_name_H-M "C C C M"
_symmetry_group_IT_number 66
_symmetry_cell_setting 'orthorhombic'
loop_
_space_group_symop_operation_xyz
x,y,z
-x,-y,z
x,-y,1/2-z
-x,y,1/2-z
-x,-y,-z
x,y,-z
-x,y,1/2+z
x,-y,1/2+z
1/2+x,1/2+y,z
1/2-x,1/2-y,z
1/2+x,1/2-y,1/2-z
1/2-x,1/2+y,1/2-z
1/2-x,1/2-y,-z
1/2+x,1/2+y,-z
1/2-x,1/2+y,1/2+z
1/2+x,1/2-y,1/2+z
loop_
_atom_site_type_symbol
_atom_site_label
_atom_site_fract_x
_atom_site_fract_y
_atom_site_fract_z
Si Si1 0.550891 0.839810 0.837777
Si Si2 0.051968 0.214436 0.836779
Si Si3 0.769542 0.875065 0.338456
Si Si4 0.152670 0.340136 0.339102
Si Si5 0.344757 0.555394 0.673275
Si Si6 0.668575 0.723631 0.260321
Si Si7 0.750000 0.250000 0.500000
Si Si8 0.551675 0.442728 0.823554
O O1 0.500000 0.856657 0.750000
O O2 0.550256 0.777134 0.839895
O O3 0.606181 0.854192 0.767975
O O4 0.547453 0.858423 0.000000
O O5 0.109998 0.203280 0.776423
O O6 0.000000 0.198430 0.750000
O O7 0.048279 0.194854 0.000000
O O8 0.774282 0.898355 0.500000
O O9 0.708845 0.864526 0.304970
O O10 0.795905 0.909257 0.215230
O O11 0.799693 0.820706 0.340644
O O12 0.137089 0.355617 0.500000
O O13 0.160311 0.278373 0.336878
O O14 0.336473 0.500000 0.750000
O O15 0.353198 0.550977 0.500000
O O16 0.394886 0.579698 0.757760
O O17 0.705173 0.737237 0.124003
O O18 0.553058 0.500000 0.750000
O O19 0.500000 0.418918 0.750000
O O20 0.550064 0.444444 0.000000
#
# Coordination Sequence:
#
# PCOD9495127 Si02
#       8
#    16  16  16  16  16  16   4  16
#     4   9  17  28  46  69  99 136 176 216 256 301
#     4   9  18  30  45  66  94 132 174 214 257 307
#     4  11  23  37  54  78 106 138 176 218 268 317
#     4  10  20  33  51  76 108 141 176 215 261 308
#     4  11  23  39  59  79 104 134 170 214 266 319
#     4  11  21  33  55  75 107 137 179 222 268 312
#     4  12  20  32  54  80 108 132 182 228 270 320
#     4  10  17  30  53  79 105 129 164 208 261 316
#
# _framework density 18.935147000000001
#
# number of rings (size 3 to 8) (size 9 to 14) (size 15 to 20)
#    0.000    1.793    2.069    4.552    1.931    5.517 
#    0.000    0.690    0.000    1.655    0.000    0.000 
#    0.000    0.552    0.000    5.793    0.000    2.621 
#
# Total GULP energy -322947.165025 kJ/mol
# GULP energy per Si atom -5568.054569 kJ/mol
# Density = 1.889205 g / cm^3
# Si number density = 18.935147 Si / 1000 Ang^3
#
#
#
# Elastic Constant Matrix: (Units=GPa)
#
#
# Indices 1 2 3 4 5 6 
#
# 1 142.3754 13.8736 94.6109 0.0000 0.0000 0.0000
# 2 13.8736 24.9075 21.3128 0.0000 0.0000 0.0000
# 3 94.6109 21.3128 171.9037 0.0000 0.0000 0.0000
# 4 0.0000 0.0000 0.0000 103.1324 0.0000 0.0000
# 5 0.0000 0.0000 0.0000 0.0000 41.1137 0.0000
# 6 0.0000 0.0000 0.0000 0.0000 0.0000 -8.0569
#
#
#
# Elastic Compliance Matrix: (Units=1/GPa)
#
#
# Indices 1 2 3 4 5 6 
#
# 1 0.011099 -0.001069 -0.005976 0.000000 0.000000 0.000000
# 2 -0.001069 0.045016 -0.004993 0.000000 0.000000 0.000000
# 3 -0.005976 -0.004993 0.009725 0.000000 0.000000 0.000000
# 4 0.000000 0.000000 0.000000 0.009696 0.000000 0.000000
# 5 0.000000 0.000000 0.000000 0.000000 0.024323 0.000000
# 6 0.000000 0.000000 0.000000 0.000000 0.000000 -0.124118
#
#
# Mechanical properties :
#
#
# Convention : Reuss Voigt Hill
#
# Bulk Modulus (GPa) = 23.94343 66.53124 45.23734
# Shear Modulus (GPa) = 363.92289 41.19713 202.56001
#
# Velocity S-wave (km/s) = 13.87846 4.66950 10.35413
# Velocity P-wave (km/s) = 16.41609 8.01779 12.91845
#
# Compressibility (1/GPa) = 0.04176511
#
# Stress axis : x y z
#
# Youngs Moduli (GPa) = 90.09783 22.21423 102.82428
#
# Poissons Ratio (x) = 0.02374 0.61449
# Poissons Ratio (y) = 0.09628 0.51340
# Poissons Ratio (z) = 0.53843 0.11092
#
# Static dielectric constant tensor:
#      x y z
#    x 1.732420 0.000000 0.000000 
#    y 0.000000 1.671860 0.000000 
#    z 0.000000 0.000000 1.614070 
# 
# From -- ./inp_files/9597.got.cif
#   From: 2010.05.17/outbox.cif.g08.bks.cpg/sg66_5_cif.got.tgz:9597.got - 2010.06.03 17:51:23.
