data_PCOD9495068
_publ_section_title
;
Structure prediction by ZEFSAII (Michael W. Deem and Ramdas Pophale) SiO2 
 PCOD9495068
Probable space group: C C C M
;
_chemical_formula_sum "Si O2"
_cell_formula_units_Z 80
_cell_length_a 27.127048
_cell_length_b 18.082490
_cell_length_c 8.690368
_cell_angle_alpha 90.000000
_cell_angle_beta 90.000000
_cell_angle_gamma 90.000000
_cell_volume 4262.839063
_symmetry_space_group_name_H-M "C C C M"
_symmetry_group_IT_number 66
_symmetry_cell_setting 'orthorhombic'
loop_
_space_group_symop_operation_xyz
x,y,z
-x,-y,z
x,-y,1/2-z
-x,y,1/2-z
-x,-y,-z
x,y,-z
-x,y,1/2+z
x,-y,1/2+z
1/2+x,1/2+y,z
1/2-x,1/2-y,z
1/2+x,1/2-y,1/2-z
1/2-x,1/2+y,1/2-z
1/2-x,1/2-y,-z
1/2+x,1/2+y,-z
1/2-x,1/2+y,1/2+z
1/2+x,1/2-y,1/2+z
loop_
_atom_site_type_symbol
_atom_site_label
_atom_site_fract_x
_atom_site_fract_y
_atom_site_fract_z
Si Si1 0.550560 0.415921 0.684107
Si Si2 0.950346 0.416379 0.816314
Si Si3 0.347374 0.582928 0.816897
Si Si4 0.658115 0.083183 0.184711
Si Si5 0.753202 0.162028 0.679824
O O1 0.551372 0.500000 0.750000
O O2 0.500000 0.381764 0.750000
O O3 0.602351 0.384234 0.743887
O O4 0.549097 0.582221 0.000000
O O5 0.949225 0.500000 0.750000
O O6 0.896395 0.384880 0.776934
O O7 0.000000 0.380324 0.750000
O O8 0.954523 0.420202 0.000000
O O9 0.340695 0.500000 0.750000
O O10 0.299774 0.629769 0.770806
O O11 0.353038 0.578260 0.000000
O O12 0.702873 0.127935 0.255924
O O13 0.660460 0.000000 0.250000
O O14 0.662378 0.080716 0.000000
O O15 0.758873 0.142188 0.500000
O O16 0.750000 0.250000 0.693670
#
# Coordination Sequence:
#
# PCOD9495068 Si02
#       5
#    16  16  16  16  16
#     4  10  17  28  47  75 109 140 173 212 259 309
#     4   9  16  26  44  72 104 135 166 204 250 298
#     4  11  21  35  56  81 109 140 176 218 263 312
#     4  10  20  34  54  80 108 138 174 215 258 308
#     4  11  24  40  56  75 102 137 176 220 269 318
#
# _framework density 18.766835
#
# number of rings (size 3 to 8) (size 9 to 14) (size 15 to 20)
#    0.000    1.800    0.000    8.400    0.000    4.000 
#    0.000    0.000    0.000    1.200    0.000    2.800 
#    0.000    0.000    0.000    0.000    0.000    0.000 
#
# Total GULP energy -223219.126775 kJ/mol
# GULP energy per Si atom -5580.478169 kJ/mol
# Density = 1.872412 g / cm^3
# Si number density = 18.766835 Si / 1000 Ang^3
#
#
#
# Elastic Constant Matrix: (Units=GPa)
#
#
# Indices 1 2 3 4 5 6 
#
# 1 197.5850 32.7918 75.4301 0.0000 0.0000 0.0000
# 2 32.7918 18.2177 24.4202 0.0000 0.0000 0.0000
# 3 75.4301 24.4202 151.9931 0.0000 0.0000 0.0000
# 4 0.0000 0.0000 0.0000 14.5489 0.0000 0.0000
# 5 0.0000 0.0000 0.0000 0.0000 39.7887 0.0000
# 6 0.0000 0.0000 0.0000 0.0000 0.0000 -8.8588
#
#
#
# Elastic Compliance Matrix: (Units=1/GPa)
#
#
# Indices 1 2 3 4 5 6 
#
# 1 0.007677 -0.011103 -0.002026 0.000000 0.000000 0.000000
# 2 -0.011103 0.086016 -0.008310 0.000000 0.000000 0.000000
# 3 -0.002026 -0.008310 0.008920 0.000000 0.000000 0.000000
# 4 0.000000 0.000000 0.000000 0.068734 0.000000 0.000000
# 5 0.000000 0.000000 0.000000 0.000000 0.025133 0.000000
# 6 0.000000 0.000000 0.000000 0.000000 0.000000 -0.112883
#
#
# Mechanical properties :
#
#
# Convention : Reuss Voigt Hill
#
# Bulk Modulus (GPa) = 16.74055 70.34224 43.54139
# Shear Modulus (GPa) = 34.15605 24.77268 29.46437
#
# Velocity S-wave (km/s) = 4.27080 3.63716 3.96665
# Velocity P-wave (km/s) = 5.76709 7.42981 6.65062
#
# Compressibility (1/GPa) = 0.05973521
#
# Stress axis : x y z
#
# Youngs Moduli (GPa) = 130.25359 11.62573 112.10932
#
# Poissons Ratio (x) = 0.12908 0.22715
# Poissons Ratio (y) = 1.44623 0.93160
# Poissons Ratio (z) = 0.26391 0.09661
#
# Static dielectric constant tensor:
#      x y z
#    x 1.713020 0.000000 0.000000 
#    y 0.000000 1.615730 0.000000 
#    z 0.000000 0.000000 1.631110 
# 
# From -- ./inp_files/10070.got.cif
#   From: 2010.05.17/outbox.cif.g08.bks.cpg/sg66_6_cif.got.tgz:10070.got - 2010.06.03 17:51:23.
