data_PCOD9495883
_publ_section_title
;
Structure prediction by ZEFSAII (Michael W. Deem and Ramdas Pophale) SiO2 
 PCOD9495883
Probable space group: C C C M
;
_chemical_formula_sum "Si O2"
_cell_formula_units_Z 64
_cell_length_a 16.542686
_cell_length_b 8.551840
_cell_length_c 24.935107
_cell_angle_alpha 90.000000
_cell_angle_beta 90.000000
_cell_angle_gamma 90.000000
_cell_volume 3527.579657
_symmetry_space_group_name_H-M "C C C M"
_symmetry_group_IT_number 66
_symmetry_cell_setting 'orthorhombic'
loop_
_space_group_symop_operation_xyz
x,y,z
-x,-y,z
x,-y,1/2-z
-x,y,1/2-z
-x,-y,-z
x,y,-z
-x,y,1/2+z
x,-y,1/2+z
1/2+x,1/2+y,z
1/2-x,1/2-y,z
1/2+x,1/2-y,1/2-z
1/2-x,1/2+y,1/2-z
1/2-x,1/2-y,-z
1/2+x,1/2+y,-z
1/2-x,1/2+y,1/2+z
1/2+x,1/2-y,1/2+z
loop_
_atom_site_type_symbol
_atom_site_label
_atom_site_fract_x
_atom_site_fract_y
_atom_site_fract_z
Si Si1 0.156858 0.796962 0.881720
Si Si2 0.513456 0.815561 0.688064
Si Si3 0.840025 0.820777 0.000000
Si Si4 0.342570 0.699340 0.000000
Si Si5 0.076692 0.110668 0.102473
O O1 0.250000 0.750000 0.877300
O O2 0.101557 0.725211 0.835565
O O3 0.144260 0.984381 0.880376
O O4 0.125197 0.747872 0.941834
O O5 0.500000 0.772416 0.750000
O O6 0.453027 0.716385 0.651010
O O7 0.500000 0.000000 0.682637
O O8 0.750000 0.750000 0.000000
O O9 0.889587 0.785435 0.053898
O O10 0.840847 0.010806 0.000000
O O11 0.250000 0.750000 0.000000
O O12 0.000000 0.000000 0.086051
#
# Coordination Sequence:
#
# PCOD9495883 Si02
#       5
#    16  16   8   8  16
#     4   9  18  35  58  82 107 139 176 215 263 325
#     4  10  22  39  54  75 108 142 182 229 269 311
#     4  10  19  31  51  84 113 135 173 219 257 311
#     4   8  16  31  51  78 111 137 162 207 266 317
#     4   9  19  35  56  77 108 145 175 211 268 325
#
# _framework density 18.142751000000001
#
# number of rings (size 3 to 8) (size 9 to 14) (size 15 to 20)
#    0.000    2.750    0.000    0.375    0.000   13.500 
#    0.000    7.500    0.000    0.000    0.000    0.000 
#    0.000    0.000    0.000    0.000    0.000    0.000 
#
# Total GULP energy -178205.429681 kJ/mol
# GULP energy per Si atom -5568.919678 kJ/mol
# Density = 1.810146 g / cm^3
# Si number density = 18.142751 Si / 1000 Ang^3
#
#
#
# Elastic Constant Matrix: (Units=GPa)
#
#
# Indices 1 2 3 4 5 6 
#
# 1 101.2451 41.4979 90.4115 0.0000 0.0000 0.0000
# 2 41.4979 36.0200 50.8456 0.0000 0.0000 0.0000
# 3 90.4115 50.8456 182.7554 0.0000 0.0000 0.0000
# 4 0.0000 0.0000 0.0000 9.1016 0.0000 0.0000
# 5 0.0000 0.0000 0.0000 0.0000 26.7615 0.0000
# 6 0.0000 0.0000 0.0000 0.0000 0.0000 34.3374
#
#
#
# Elastic Compliance Matrix: (Units=1/GPa)
#
#
# Indices 1 2 3 4 5 6 
#
# 1 0.022571 -0.016864 -0.006474 0.000000 0.000000 0.000000
# 2 -0.016864 0.058317 -0.007882 0.000000 0.000000 0.000000
# 3 -0.006474 -0.007882 0.010867 0.000000 0.000000 0.000000
# 4 0.000000 0.000000 0.000000 0.109871 0.000000 0.000000
# 5 0.000000 0.000000 0.000000 0.000000 0.037367 0.000000
# 6 0.000000 0.000000 0.000000 0.000000 0.000000 0.029123
#
#
# Mechanical properties :
#
#
# Convention : Reuss Voigt Hill
#
# Bulk Modulus (GPa) = 34.11231 76.17004 55.14118
# Shear Modulus (GPa) = 14.69169 23.19114 18.94142
#
# Velocity S-wave (km/s) = 2.84876 3.57915 3.23464
# Velocity P-wave (km/s) = 5.44642 7.69125 6.66404
#
# Compressibility (1/GPa) = 0.02931493
#
# Stress axis : x y z
#
# Youngs Moduli (GPa) = 44.30544 17.14753 92.01814
#
# Poissons Ratio (x) = 0.28918 0.59573
# Poissons Ratio (y) = 0.74719 0.72527
# Poissons Ratio (z) = 0.28683 0.13515
#
# Static dielectric constant tensor:
#      x y z
#    x 1.609690 0.000000 0.000000 
#    y 0.000000 1.779320 0.000000 
#    z 0.000000 0.000000 1.668720 
# 
# From -- ./inp_files/50568.got.cif
#   From: 2010.05.17/outbox.cif.g08.bks.cpg/sg66_26_cif.got.tgz:50568.got - 2010.06.03 17:51:23.
