data_PCOD9495531
_publ_section_title
;
Structure prediction by ZEFSAII (Michael W. Deem and Ramdas Pophale) SiO2 
 PCOD9495531
Probable space group: C C C M
;
_chemical_formula_sum "Si O2"
_cell_formula_units_Z 120
_cell_length_a 32.235650
_cell_length_b 13.377576
_cell_length_c 17.544356
_cell_angle_alpha 90.000000
_cell_angle_beta 90.000000
_cell_angle_gamma 90.000000
_cell_volume 7565.737865
_symmetry_space_group_name_H-M "C C C M"
_symmetry_group_IT_number 66
_symmetry_cell_setting 'orthorhombic'
loop_
_space_group_symop_operation_xyz
x,y,z
-x,-y,z
x,-y,1/2-z
-x,y,1/2-z
-x,-y,-z
x,y,-z
-x,y,1/2+z
x,-y,1/2+z
1/2+x,1/2+y,z
1/2-x,1/2-y,z
1/2+x,1/2-y,1/2-z
1/2-x,1/2+y,1/2-z
1/2-x,1/2-y,-z
1/2+x,1/2+y,-z
1/2-x,1/2+y,1/2+z
1/2+x,1/2-y,1/2+z
loop_
_atom_site_type_symbol
_atom_site_label
_atom_site_fract_x
_atom_site_fract_y
_atom_site_fract_z
Si Si1 0.703869 0.907118 0.701067
Si Si2 0.250000 0.250000 0.810305
Si Si3 0.338135 0.758998 0.909204
Si Si4 0.909969 0.101579 0.592315
Si Si5 0.917559 0.870128 0.591310
Si Si6 0.503490 0.379443 0.661018
Si Si7 0.222444 0.927109 0.086876
Si Si8 0.318661 0.361317 0.088932
O O1 0.725078 0.827755 0.757846
O O2 0.671982 0.850946 0.645489
O O3 0.741054 0.943425 0.646165
O O4 0.687416 0.000000 0.750000
O O5 0.284261 0.305699 0.861763
O O6 0.380567 0.703471 0.886509
O O7 0.301563 0.676561 0.899448
O O8 0.339511 0.783378 0.000000
O O9 0.917714 0.873532 0.500000
O O10 0.951781 0.147954 0.626884
O O11 0.866340 0.151678 0.614440
O O12 0.909025 0.984517 0.617012
O O13 0.087553 0.896751 0.500000
O O14 0.962828 0.837968 0.619549
O O15 0.500000 0.500000 0.651244
O O16 0.500000 0.356897 0.750000
O O17 0.191000 0.019946 0.091845
O O18 0.238626 0.924174 0.000000
O O19 0.315238 0.331444 0.000000
#
# Coordination Sequence:
#
# PCOD9495531 Si02
#       8
#    16   8  16  16  16  16  16  16
#     4  12  23  35  47  70  99 130 169 216 263 301
#     4  12  23  34  49  68  98 132 164 206 259 302
#     4  10  19  33  53  75  96 129 173 215 253 293
#     4   9  16  29  48  67  94 131 168 198 232 285
#     4   9  16  28  48  71  95 126 166 202 234 279
#     4   9  17  27  39  67 102 134 158 187 234 290
#     4  10  18  33  53  71  94 128 172 216 251 290
#     4  10  20  34  50  70  96 133 174 207 241 294
#
# _framework density 15.860977999999999
#
# number of rings (size 3 to 8) (size 9 to 14) (size 15 to 20)
#    0.000    2.000    4.000    1.000    0.000    3.733 
#    0.000    1.333    0.000    0.000    0.000    0.000 
#    0.000    4.800    0.000   14.933    0.000    0.267 
#
# Total GULP energy -334528.302723 kJ/mol
# GULP energy per Si atom -5575.471712 kJ/mol
# Density = 1.582488 g / cm^3
# Si number density = 15.860978 Si / 1000 Ang^3
#
#
#
# Elastic Constant Matrix: (Units=GPa)
#
#
# Indices 1 2 3 4 5 6 
#
# 1 111.5888 24.6763 43.2577 0.0000 0.0000 0.0000
# 2 24.6763 46.2605 28.2054 0.0000 0.0000 0.0000
# 3 43.2577 28.2054 47.3880 0.0000 0.0000 0.0000
# 4 0.0000 0.0000 0.0000 251.4208 0.0000 0.0000
# 5 0.0000 0.0000 0.0000 0.0000 -1.8824 0.0000
# 6 0.0000 0.0000 0.0000 0.0000 0.0000 19.5791
#
#
#
# Elastic Compliance Matrix: (Units=1/GPa)
#
#
# Indices 1 2 3 4 5 6 
#
# 1 0.013877 0.000504 -0.012967 0.000000 0.000000 0.000000
# 2 0.000504 0.033948 -0.020666 0.000000 0.000000 0.000000
# 3 -0.012967 -0.020666 0.045240 0.000000 0.000000 0.000000
# 4 0.000000 0.000000 0.000000 0.003977 0.000000 0.000000
# 5 0.000000 0.000000 0.000000 0.000000 -0.531250 0.000000
# 6 0.000000 0.000000 0.000000 0.000000 0.000000 0.051075
#
#
# Mechanical properties :
#
#
# Convention : Reuss Voigt Hill
#
# Bulk Modulus (GPa) = 37.30482 44.16846 40.73664
# Shear Modulus (GPa) = -16.23703 61.09669 22.42983
#
# Velocity S-wave (km/s) = -3.20302 6.21319 3.76460
# Velocity P-wave (km/s) = 3.14513 8.90951 6.68099
#
# Compressibility (1/GPa) = 0.02680619
#
# Stress axis : x y z
#
# Youngs Moduli (GPa) = 72.06242 29.45673 22.10429
#
# Poissons Ratio (x) = -0.01485 0.28664
# Poissons Ratio (y) = -0.03633 0.45681
# Poissons Ratio (z) = 0.93446 0.60876
#
# Static dielectric constant tensor:
#      x y z
#    x 1.540890 0.000000 0.000000 
#    y 0.000000 1.519610 0.000000 
#    z 0.000000 0.000000 1.539990 
# 
# From -- ./inp_files/34012.got.cif
#   From: 2010.05.17/outbox.cif.g08.bks.cpg/sg66_18_cif.got.tgz:34012.got - 2010.06.03 17:51:23.
