data_PCOD9495180
_publ_section_title
;
Structure prediction by ZEFSAII (Michael W. Deem and Ramdas Pophale) SiO2 
 PCOD9495180
Probable space group: C C C M
;
_chemical_formula_sum "Si O2"
_cell_formula_units_Z 52
_cell_length_a 13.170907
_cell_length_b 6.946062
_cell_length_c 19.915970
_cell_angle_alpha 90.000000
_cell_angle_beta 90.000000
_cell_angle_gamma 90.000000
_cell_volume 1822.031169
_symmetry_space_group_name_H-M "C C C M"
_symmetry_group_IT_number 66
_symmetry_cell_setting 'orthorhombic'
loop_
_space_group_symop_operation_xyz
x,y,z
-x,-y,z
x,-y,1/2-z
-x,y,1/2-z
-x,-y,-z
x,y,-z
-x,y,1/2+z
x,-y,1/2+z
1/2+x,1/2+y,z
1/2-x,1/2-y,z
1/2+x,1/2-y,1/2-z
1/2-x,1/2+y,1/2-z
1/2-x,1/2-y,-z
1/2+x,1/2+y,-z
1/2-x,1/2+y,1/2+z
1/2+x,1/2-y,1/2+z
loop_
_atom_site_type_symbol
_atom_site_label
_atom_site_fract_x
_atom_site_fract_y
_atom_site_fract_z
Si Si1 0.115178 0.934372 0.000000
Si Si2 0.117877 0.056867 0.349166
Si Si3 0.880154 0.490431 0.500000
Si Si4 0.164418 0.518601 0.651975
Si Si5 0.000000 0.500000 0.250000
O O1 0.142480 0.998635 0.926354
O O2 0.146689 0.713512 0.000000
O O3 0.000000 0.000000 0.000000
O O4 0.132926 0.289309 0.345757
O O5 0.221338 0.964456 0.319896
O O6 0.000000 0.000000 0.333631
O O7 0.849797 0.416625 0.574071
O O8 0.000000 0.500000 0.500000
O O9 0.078719 0.608764 0.700370
#
# Coordination Sequence:
#
# PCOD9495180 Si02
#       5
#     8  16   8  16   4
#     4   8  15  29  61  89 121 139 187 251 291 352
#     4   9  18  38  62  91 113 151 199 241 299 365
#     4  10  17  33  62  86 115 158 197 237 306 362
#     4  10  21  38  61  87 119 156 193 251 298 355
#     4  12  24  42  52  80 128 154 192 252 304 338
#
# _framework density 28.539579
#
# number of rings (size 3 to 8) (size 9 to 14) (size 15 to 20)
#    0.000    2.462    1.538    0.923    0.000    3.692 
#   11.077    0.000    0.000    5.538    0.000    0.000 
#    0.000    0.000    0.000    0.000    0.000    0.000 
#
# Total GULP energy -144957.647082 kJ/mol
# GULP energy per Si atom -5575.294119 kJ/mol
# Density = 2.847462 g / cm^3
# Si number density = 28.539579 Si / 1000 Ang^3
#
#
#
# Elastic Constant Matrix: (Units=GPa)
#
#
# Indices 1 2 3 4 5 6 
#
# 1 269.6891 34.4168 70.0142 0.0000 0.0000 0.0000
# 2 34.4168 167.0094 0.7447 0.0000 0.0000 0.0000
# 3 70.0142 0.7447 249.0687 0.0000 0.0000 0.0000
# 4 0.0000 0.0000 0.0000 -8.0505 0.0000 0.0000
# 5 0.0000 0.0000 0.0000 0.0000 60.7871 0.0000
# 6 0.0000 0.0000 0.0000 0.0000 0.0000 32.3209
#
#
#
# Elastic Compliance Matrix: (Units=1/GPa)
#
#
# Indices 1 2 3 4 5 6 
#
# 1 0.004115 -0.000843 -0.001154 0.000000 0.000000 0.000000
# 2 -0.000843 0.006160 0.000219 0.000000 0.000000 0.000000
# 3 -0.001154 0.000219 0.004339 0.000000 0.000000 0.000000
# 4 0.000000 0.000000 0.000000 -0.124216 0.000000 0.000000
# 5 0.000000 0.000000 0.000000 0.000000 0.016451 0.000000
# 6 0.000000 0.000000 0.000000 0.000000 0.000000 0.030940
#
#
# Mechanical properties :
#
#
# Convention : Reuss Voigt Hill
#
# Bulk Modulus (GPa) = 90.43981 99.56874 95.00428
# Shear Modulus (GPa) = -90.96149 55.71761 -17.62194
#
# Velocity S-wave (km/s) = -5.65166 4.42327 -2.48756
# Velocity P-wave (km/s) = 3.29094 7.81350 5.01101
#
# Compressibility (1/GPa) = 0.01105708
#
# Stress axis : x y z
#
# Youngs Moduli (GPa) = 243.00125 162.32676 230.47975
#
# Poissons Ratio (x) = 0.13683 0.26604
# Poissons Ratio (y) = 0.20483 -0.05037
# Poissons Ratio (z) = 0.28049 -0.03547
#
# Static dielectric constant tensor:
#      x y z
#    x 1.923320 0.000000 0.000000 
#    y 0.000000 2.404750 0.000000 
#    z 0.000000 0.000000 2.023210 
# 
# From -- ./inp_files/46328.got.cif
#   From: 2010.05.17/outbox.cif.g08.bks.cpg/sg66_24_cif.got.tgz:46328.got - 2010.06.03 17:51:23.
