data_PCOD9495013
_publ_section_title
;
Structure prediction by ZEFSAII (Michael W. Deem and Ramdas Pophale) SiO2 
 PCOD9495013
Probable space group: C C C M
;
_chemical_formula_sum "Si O2"
_cell_formula_units_Z 64
_cell_length_a 14.967646
_cell_length_b 8.642925
_cell_length_c 22.222181
_cell_angle_alpha 90.000000
_cell_angle_beta 90.000000
_cell_angle_gamma 90.000000
_cell_volume 2874.755596
_symmetry_space_group_name_H-M "C C C M"
_symmetry_group_IT_number 66
_symmetry_cell_setting 'orthorhombic'
loop_
_space_group_symop_operation_xyz
x,y,z
-x,-y,z
x,-y,1/2-z
-x,y,1/2-z
-x,-y,-z
x,y,-z
-x,y,1/2+z
x,-y,1/2+z
1/2+x,1/2+y,z
1/2-x,1/2-y,z
1/2+x,1/2-y,1/2-z
1/2-x,1/2+y,1/2-z
1/2-x,1/2-y,-z
1/2+x,1/2+y,-z
1/2-x,1/2+y,1/2+z
1/2+x,1/2-y,1/2+z
loop_
_atom_site_type_symbol
_atom_site_label
_atom_site_fract_x
_atom_site_fract_y
_atom_site_fract_z
Si Si1 0.651727 0.315484 0.000000
Si Si2 0.648332 0.183792 0.253249
Si Si3 0.649104 0.686928 0.877362
Si Si4 0.418706 0.625532 0.500000
Si Si5 0.648688 0.315772 0.869469
O O1 0.750000 0.250000 0.000000
O O2 0.609854 0.272486 0.064640
O O3 0.662612 0.501422 0.000000
O O4 0.750000 0.250000 0.254931
O O5 0.610034 0.236779 0.317145
O O6 0.607053 0.250531 0.191791
O O7 0.650990 0.000000 0.250000
O O8 0.750000 0.750000 0.886050
O O9 0.593349 0.715147 0.938106
O O10 0.650450 0.501784 0.866460
O O11 0.500000 0.500000 0.500000
O O12 0.750000 0.250000 0.870302
#
# Coordination Sequence:
#
# PCOD9495013 Si02
#       5
#     8  16  16   8  16
#     4   8  16  29  50  75  98 130 173 212 251 307
#     4  10  17  26  43  74 110 139 171 224 278 317
#     4  10  18  30  50  77 105 138 179 224 269 324
#     4  10  21  35  52  79 111 140 175 226 278 321
#     4   9  15  26  44  73 106 134 171 222 271 312
#
# _framework density 22.262763
#
# number of rings (size 3 to 8) (size 9 to 14) (size 15 to 20)
#    0.000    2.500    0.000    7.125    0.000    0.000 
#    0.000    3.750    0.000   12.000    0.000  133.000 
#    0.000    0.000    0.000    0.000    0.000    0.000 
#
# Total GULP energy -178360.804202 kJ/mol
# GULP energy per Si atom -5573.775131 kJ/mol
# Density = 2.221209 g / cm^3
# Si number density = 22.262763 Si / 1000 Ang^3
#
#
#
# Elastic Constant Matrix: (Units=GPa)
#
#
# Indices 1 2 3 4 5 6 
#
# 1 73.9059 17.1457 39.7891 0.0000 0.0000 0.0000
# 2 17.1457 123.6132 71.9278 0.0000 0.0000 0.0000
# 3 39.7891 71.9278 317.4894 0.0000 0.0000 0.0000
# 4 0.0000 0.0000 0.0000 37.7779 0.0000 0.0000
# 5 0.0000 0.0000 0.0000 0.0000 -20.5653 0.0000
# 6 0.0000 0.0000 0.0000 0.0000 0.0000 10.9705
#
#
#
# Elastic Compliance Matrix: (Units=1/GPa)
#
#
# Indices 1 2 3 4 5 6 
#
# 1 0.014641 -0.001109 -0.001584 0.000000 0.000000 0.000000
# 2 -0.001109 0.009402 -0.001991 0.000000 0.000000 0.000000
# 3 -0.001584 -0.001991 0.003799 0.000000 0.000000 0.000000
# 4 0.000000 0.000000 0.000000 0.026470 0.000000 0.000000
# 5 0.000000 0.000000 0.000000 0.000000 -0.048626 0.000000
# 6 0.000000 0.000000 0.000000 0.000000 0.000000 0.091154
#
#
# Mechanical properties :
#
#
# Convention : Reuss Voigt Hill
#
# Bulk Modulus (GPa) = 54.12937 85.85929 69.99433
# Shear Modulus (GPa) = 44.49726 31.37969 37.93847
#
# Velocity S-wave (km/s) = 4.47557 3.75842 4.13258
# Velocity P-wave (km/s) = 7.14662 7.58184 7.36745
#
# Compressibility (1/GPa) = 0.01847426
#
# Stress axis : x y z
#
# Youngs Moduli (GPa) = 68.30330 106.35843 263.21053
#
# Poissons Ratio (x) = 0.11798 0.41679
# Poissons Ratio (y) = 0.07577 0.52407
# Poissons Ratio (z) = 0.10816 0.21177
#
# Static dielectric constant tensor:
#      x y z
#    x 1.860280 0.000000 0.000000 
#    y 0.000000 1.774210 0.000000 
#    z 0.000000 0.000000 1.955020 
# 
# From -- ./inp_files/51574.got.cif
#   From: 2010.05.17/outbox.cif.g08.bks.cpg/sg66_26_cif.got.tgz:51574.got - 2010.06.03 17:51:23.
