data_PCOD9495575
_publ_section_title
;
Structure prediction by ZEFSAII (Michael W. Deem and Ramdas Pophale) SiO2 
 PCOD9495575
Probable space group: C C C M
;
_chemical_formula_sum "Si O2"
_cell_formula_units_Z 112
_cell_length_a 13.642121
_cell_length_b 14.825770
_cell_length_c 25.172450
_cell_angle_alpha 90.000000
_cell_angle_beta 90.000000
_cell_angle_gamma 90.000000
_cell_volume 5091.252572
_symmetry_space_group_name_H-M "C C C M"
_symmetry_group_IT_number 66
_symmetry_cell_setting 'orthorhombic'
loop_
_space_group_symop_operation_xyz
x,y,z
-x,-y,z
x,-y,1/2-z
-x,y,1/2-z
-x,-y,-z
x,y,-z
-x,y,1/2+z
x,-y,1/2+z
1/2+x,1/2+y,z
1/2-x,1/2-y,z
1/2+x,1/2-y,1/2-z
1/2-x,1/2+y,1/2-z
1/2-x,1/2-y,-z
1/2+x,1/2+y,-z
1/2-x,1/2+y,1/2+z
1/2+x,1/2-y,1/2+z
loop_
_atom_site_type_symbol
_atom_site_label
_atom_site_fract_x
_atom_site_fract_y
_atom_site_fract_z
Si Si1 0.394371 0.871730 0.440476
Si Si2 0.891773 0.195392 0.628500
Si Si3 0.311253 0.467548 0.939563
Si Si4 0.911173 0.458353 0.341642
Si Si5 0.925008 0.915593 0.362529
Si Si6 0.260560 0.079238 0.705460
Si Si7 0.887130 0.288519 0.268898
O O1 0.431360 0.857800 0.500000
O O2 0.367890 0.777174 0.411995
O O3 0.303341 0.941771 0.443261
O O4 0.458414 0.919338 0.395665
O O5 0.845138 0.108975 0.601399
O O6 0.860025 0.207529 0.690308
O O7 0.007702 0.172251 0.629646
O O8 0.359159 0.556738 0.913775
O O9 0.349433 0.457146 0.000000
O O10 0.824725 0.530708 0.340695
O O11 0.880073 0.369701 0.311185
O O12 0.000000 0.500000 0.309237
O O13 0.848534 0.902550 0.314856
O O14 0.000000 0.000000 0.352328
O O15 0.317496 0.169607 0.723661
O O16 0.258179 0.000000 0.750000
O O17 0.000000 0.277339 0.250000
#
# Coordination Sequence:
#
# PCOD9495575 Si02
#       7
#    16  16  16  16  16  16  16
#     4  10  20  35  59  90 122 158 208 265 330 387
#     4  10  22  37  56  87 129 159 207 262 319 402
#     4  10  20  38  65  92 120 164 218 275 335 389
#     4  10  18  33  62  89 117 150 207 270 310 373
#     4  10  22  41  61  91 130 165 214 264 324 402
#     4  10  20  37  64  87 119 164 209 266 320 371
#     4  10  20  37  60  87 116 162 215 257 318 380
#
# _framework density 21.998515999999999
#
# number of rings (size 3 to 8) (size 9 to 14) (size 15 to 20)
#    0.000    2.000    2.857    0.857    0.000    4.857 
#    5.143    2.143    0.000    0.000    0.000    1.000 
#    0.000    0.000    0.000    0.000    0.000    0.000 
#
# Total GULP energy -311788.031395 kJ/mol
# GULP energy per Si atom -5567.643418 kJ/mol
# Density = 2.194845 g / cm^3
# Si number density = 21.998516 Si / 1000 Ang^3
#
#
#
# Elastic Constant Matrix: (Units=GPa)
#
#
# Indices 1 2 3 4 5 6 
#
# 1 70.3916 7.2741 13.4166 0.0000 0.0000 0.0000
# 2 7.2741 32.2464 32.6646 0.0000 0.0000 0.0000
# 3 13.4166 32.6646 123.3052 0.0000 0.0000 0.0000
# 4 0.0000 0.0000 0.0000 54.7293 0.0000 0.0000
# 5 0.0000 0.0000 0.0000 0.0000 12.6294 0.0000
# 6 0.0000 0.0000 0.0000 0.0000 0.0000 36.8068
#
#
#
# Elastic Compliance Matrix: (Units=1/GPa)
#
#
# Indices 1 2 3 4 5 6 
#
# 1 0.014632 -0.002307 -0.000981 0.000000 0.000000 0.000000
# 2 -0.002307 0.042749 -0.011073 0.000000 0.000000 0.000000
# 3 -0.000981 -0.011073 0.011150 0.000000 0.000000 0.000000
# 4 0.000000 0.000000 0.000000 0.018272 0.000000 0.000000
# 5 0.000000 0.000000 0.000000 0.000000 0.079180 0.000000
# 6 0.000000 0.000000 0.000000 0.000000 0.000000 0.027169
#
#
# Mechanical properties :
#
#
# Convention : Reuss Voigt Hill
#
# Bulk Modulus (GPa) = 25.12074 36.96154 31.04114
# Shear Modulus (GPa) = 21.26365 32.33897 26.80131
#
# Velocity S-wave (km/s) = 3.11238 3.83829 3.49424
# Velocity P-wave (km/s) = 4.93558 6.04000 5.51550
#
# Compressibility (1/GPa) = 0.03980775
#
# Stress axis : x y z
#
# Youngs Moduli (GPa) = 68.34523 23.39255 89.68500
#
# Poissons Ratio (x) = 0.05397 0.08797
# Poissons Ratio (y) = 0.15767 0.99312
# Poissons Ratio (z) = 0.06704 0.25904
#
# Static dielectric constant tensor:
#      x y z
#    x 1.804090 0.000000 0.000000 
#    y 0.000000 1.894910 0.000000 
#    z 0.000000 0.000000 1.913970 
# 
# From -- ./inp_files/58243.got.cif
#   From: 2010.05.17/outbox.cif.g08.bks.cpg/sg66_30_cif.got.tgz:58243.got - 2010.06.03 17:51:23.
