data_PCOD9495884
_publ_section_title
;
Structure prediction by ZEFSAII (Michael W. Deem and Ramdas Pophale) SiO2 
 PCOD9495884
Probable space group: C C C M
;
_chemical_formula_sum "Si O2"
_cell_formula_units_Z 112
_cell_length_a 25.066353
_cell_length_b 15.344080
_cell_length_c 14.636140
_cell_angle_alpha 90.000000
_cell_angle_beta 90.000000
_cell_angle_gamma 90.000000
_cell_volume 5629.354007
_symmetry_space_group_name_H-M "C C C M"
_symmetry_group_IT_number 66
_symmetry_cell_setting 'orthorhombic'
loop_
_space_group_symop_operation_xyz
x,y,z
-x,-y,z
x,-y,1/2-z
-x,y,1/2-z
-x,-y,-z
x,y,-z
-x,y,1/2+z
x,-y,1/2+z
1/2+x,1/2+y,z
1/2-x,1/2-y,z
1/2+x,1/2-y,1/2-z
1/2-x,1/2+y,1/2-z
1/2-x,1/2-y,-z
1/2+x,1/2+y,-z
1/2-x,1/2+y,1/2+z
1/2+x,1/2-y,1/2+z
loop_
_atom_site_type_symbol
_atom_site_label
_atom_site_fract_x
_atom_site_fract_y
_atom_site_fract_z
Si Si1 0.058675 0.699266 0.266091
Si Si2 0.239666 0.978233 0.643489
Si Si3 0.962062 0.864328 0.892371
Si Si4 0.214560 0.662804 0.099583
Si Si5 0.875988 0.001863 0.606759
Si Si6 0.338111 0.900931 0.717526
Si Si7 0.582748 0.329031 0.892901
O O1 0.049372 0.777927 0.336012
O O2 0.105137 0.639351 0.306439
O O3 0.077891 0.745453 0.171769
O O4 0.000000 0.658008 0.250000
O O5 0.253613 0.070801 0.597860
O O6 0.233419 0.000000 0.750000
O O7 0.180992 0.951098 0.613069
O O8 0.290017 0.911886 0.643461
O O9 0.923449 0.939349 0.855084
O O10 0.025411 0.878217 0.885645
O O11 0.950428 0.852257 0.000000
O O12 0.250000 0.750000 0.105584
O O13 0.182476 0.652300 0.193788
O O14 0.186356 0.667915 0.000000
O O15 0.888393 0.989802 0.500000
O O16 0.875131 0.901871 0.641232
O O17 0.347411 0.000000 0.750000
O O18 0.590844 0.306454 0.000000
#
# Coordination Sequence:
#
# PCOD9495884 Si02
#       7
#    16  16  16  16  16  16  16
#     4  10  21  36  58  81 103 141 188 235 285 334
#     4   9  20  34  48  72 105 145 178 216 263 327
#     4   9  19  35  51  77 115 149 184 225 270 329
#     4   9  18  32  53  79 107 134 170 224 282 328
#     4  10  19  31  52  78 110 149 181 214 268 338
#     4   9  21  39  53  74 108 142 179 228 285 328
#     4   9  19  33  53  84 116 141 176 232 287 333
#
# _framework density 19.895710000000001
#
# number of rings (size 3 to 8) (size 9 to 14) (size 15 to 20)
#    0.000    3.000    0.000    0.857    4.000    3.714 
#    0.000    5.714    0.000    1.714    0.000    8.000 
#    0.000    0.571    0.000    0.000    0.000    0.000 
#
# Total GULP energy -311743.383696 kJ/mol
# GULP energy per Si atom -5566.846137 kJ/mol
# Density = 1.985043 g / cm^3
# Si number density = 19.895710 Si / 1000 Ang^3
#
#
#
# Elastic Constant Matrix: (Units=GPa)
#
#
# Indices 1 2 3 4 5 6 
#
# 1 110.0196 50.7322 10.9639 0.0000 0.0000 0.0000
# 2 50.7322 51.0279 18.4631 0.0000 0.0000 0.0000
# 3 10.9639 18.4631 55.0562 0.0000 0.0000 0.0000
# 4 0.0000 0.0000 0.0000 6.8230 0.0000 0.0000
# 5 0.0000 0.0000 0.0000 0.0000 6.7709 0.0000
# 6 0.0000 0.0000 0.0000 0.0000 0.0000 29.4160
#
#
#
# Elastic Compliance Matrix: (Units=1/GPa)
#
#
# Indices 1 2 3 4 5 6 
#
# 1 0.017108 -0.017955 0.002614 0.000000 0.000000 0.000000
# 2 -0.017955 0.041147 -0.010223 0.000000 0.000000 0.000000
# 3 0.002614 -0.010223 0.021071 0.000000 0.000000 0.000000
# 4 0.000000 0.000000 0.000000 0.146563 0.000000 0.000000
# 5 0.000000 0.000000 0.000000 0.000000 0.147691 0.000000
# 6 0.000000 0.000000 0.000000 0.000000 0.000000 0.033995
#
#
# Mechanical properties :
#
#
# Convention : Reuss Voigt Hill
#
# Bulk Modulus (GPa) = 35.46277 41.82468 38.64373
# Shear Modulus (GPa) = 10.68144 17.66494 14.17319
#
# Velocity S-wave (km/s) = 2.31956 2.98296 2.67193
# Velocity P-wave (km/s) = 5.00368 5.73861 5.38370
#
# Compressibility (1/GPa) = 0.02819858
#
# Stress axis : x y z
#
# Youngs Moduli (GPa) = 58.45182 24.30317 47.45868
#
# Poissons Ratio (x) = 0.43636 -0.12407
# Poissons Ratio (y) = 1.04949 0.48517
# Poissons Ratio (z) = -0.15281 0.24845
#
# Static dielectric constant tensor:
#      x y z
#    x 1.775740 0.000000 0.000000 
#    y 0.000000 1.699280 0.000000 
#    z 0.000000 0.000000 1.730550 
# 
# From -- ./inp_files/33329.got.cif
#   From: 2010.05.17/outbox.cif.g08.bks.cpg/sg66_17_cif.got.tgz:33329.got - 2010.06.03 17:51:23.
