data_PCOD9495403
_publ_section_title
;
Structure prediction by ZEFSAII (Michael W. Deem and Ramdas Pophale) SiO2 
 PCOD9495403
Probable space group: C C C M
;
_chemical_formula_sum "Si O2"
_cell_formula_units_Z 112
_cell_length_a 28.647481
_cell_length_b 11.646340
_cell_length_c 14.422278
_cell_angle_alpha 90.000000
_cell_angle_beta 90.000000
_cell_angle_gamma 90.000000
_cell_volume 4811.824370
_symmetry_space_group_name_H-M "C C C M"
_symmetry_group_IT_number 66
_symmetry_cell_setting 'orthorhombic'
loop_
_space_group_symop_operation_xyz
x,y,z
-x,-y,z
x,-y,1/2-z
-x,y,1/2-z
-x,-y,-z
x,y,-z
-x,y,1/2+z
x,-y,1/2+z
1/2+x,1/2+y,z
1/2-x,1/2-y,z
1/2+x,1/2-y,1/2-z
1/2-x,1/2+y,1/2-z
1/2-x,1/2-y,-z
1/2+x,1/2+y,-z
1/2-x,1/2+y,1/2+z
1/2+x,1/2-y,1/2+z
loop_
_atom_site_type_symbol
_atom_site_label
_atom_site_fract_x
_atom_site_fract_y
_atom_site_fract_z
Si Si1 0.558515 0.885234 0.886960
Si Si2 0.723935 0.368379 0.112936
Si Si3 0.625214 0.711019 0.107921
Si Si4 0.775233 0.870730 0.887285
Si Si5 0.620315 0.314045 0.103825
Si Si6 0.042885 0.649211 0.886945
Si Si7 0.946980 0.017855 0.639600
O O1 0.607105 0.831835 0.853934
O O2 0.510023 0.825195 0.856236
O O3 0.553151 0.017981 0.863917
O O4 0.558613 0.879241 0.000000
O O5 0.750000 0.250000 0.141020
O O6 0.739492 0.498579 0.141713
O O7 0.670174 0.349035 0.142679
O O8 0.725617 0.371189 0.000000
O O9 0.670935 0.647653 0.143633
O O10 0.578479 0.635692 0.115834
O O11 0.636373 0.728590 0.000000
O O12 0.750000 0.750000 0.859863
O O13 0.772149 0.873744 0.000000
O O14 0.585001 0.225199 0.150866
O O15 0.587959 0.424946 0.098300
O O16 0.630693 0.269240 0.000000
O O17 0.042670 0.661358 0.000000
O O18 0.946857 0.000000 0.750000
O O19 0.000000 0.000000 0.607473
#
# Coordination Sequence:
#
# PCOD9495403 Si02
#       7
#    16  16  16  16  16  16  16
#     4   8  14  24  40  67 100 127 156 201 251 297
#     4   9  17  29  46  72 104 132 164 211 262 308
#     4  10  18  31  52  75  99 133 175 211 250 307
#     4   9  17  29  46  72 104 132 164 211 262 308
#     4  10  18  31  52  75  99 133 175 211 250 307
#     4   8  14  24  40  67 100 127 156 201 251 297
#     4  11  23  35  49  73 105 137 169 213 268 313
#
# _framework density 23.275994000000001
#
# number of rings (size 3 to 8) (size 9 to 14) (size 15 to 20)
#    0.000    2.714    1.429    2.143    0.000    3.429 
#    0.000    5.714    0.000    1.714    0.000    4.000 
#    0.000    0.000    0.000    0.000    0.000    0.000 
#
# Total GULP energy -312135.573570 kJ/mol
# GULP energy per Si atom -5573.849528 kJ/mol
# Density = 2.322302 g / cm^3
# Si number density = 23.275994 Si / 1000 Ang^3
#
#
#
# Elastic Constant Matrix: (Units=GPa)
#
#
# Indices 1 2 3 4 5 6 
#
# 1 121.6074 82.3122 -14.2040 0.0000 0.0000 0.0000
# 2 82.3122 158.4396 -8.1488 0.0000 0.0000 0.0000
# 3 -14.2040 -8.1488 88.1485 0.0000 0.0000 0.0000
# 4 0.0000 0.0000 0.0000 -147.4527 0.0000 0.0000
# 5 0.0000 0.0000 0.0000 0.0000 -11.0916 0.0000
# 6 0.0000 0.0000 0.0000 0.0000 0.0000 42.5011
#
#
#
# Elastic Compliance Matrix: (Units=1/GPa)
#
#
# Indices 1 2 3 4 5 6 
#
# 1 0.012868 -0.006610 0.001462 0.000000 0.000000 0.000000
# 2 -0.006610 0.009737 -0.000165 0.000000 0.000000 0.000000
# 3 0.001462 -0.000165 0.011565 0.000000 0.000000 0.000000
# 4 0.000000 0.000000 0.000000 -0.006782 0.000000 0.000000
# 5 0.000000 0.000000 0.000000 0.000000 -0.090158 0.000000
# 6 0.000000 0.000000 0.000000 0.000000 0.000000 0.023529
#
#
# Mechanical properties :
#
#
# Convention : Reuss Voigt Hill
#
# Bulk Modulus (GPa) = 42.47171 54.23491 48.35331
# Shear Modulus (GPa) = -240.75619 -2.65956 -121.70788
#
# Velocity S-wave (km/s) = -10.18135 -1.07009 -7.23896
# Velocity P-wave (km/s) = 10.95110 4.67168 7.00364
#
# Compressibility (1/GPa) = 0.02354509
#
# Stress axis : x y z
#
# Youngs Moduli (GPa) = 77.71158 102.70026 86.46852
#
# Poissons Ratio (x) = 0.67885 -0.12646
# Poissons Ratio (y) = 0.51367 0.01427
# Poissons Ratio (z) = -0.11365 0.01694
#
# Static dielectric constant tensor:
#      x y z
#    x 1.815530 0.000000 0.000000 
#    y 0.000000 1.874390 0.000000 
#    z 0.000000 0.000000 2.261200 
# 
# From -- ./inp_files/53144.got.cif
#   From: 2010.05.17/outbox.cif.g08.bks.cpg/sg66_27_cif.got.tgz:53144.got - 2010.06.03 17:51:23.
