data_PCOD9495217
_publ_section_title
;
Structure prediction by ZEFSAII (Michael W. Deem and Ramdas Pophale) SiO2 
 PCOD9495217
Probable space group: C C C M
;
_chemical_formula_sum "Si O2"
_cell_formula_units_Z 96
_cell_length_a 32.145977
_cell_length_b 21.687336
_cell_length_c 7.431199
_cell_angle_alpha 90.000000
_cell_angle_beta 90.000000
_cell_angle_gamma 90.000000
_cell_volume 5180.739185
_symmetry_space_group_name_H-M "C C C M"
_symmetry_group_IT_number 66
_symmetry_cell_setting 'orthorhombic'
loop_
_space_group_symop_operation_xyz
x,y,z
-x,-y,z
x,-y,1/2-z
-x,y,1/2-z
-x,-y,-z
x,y,-z
-x,y,1/2+z
x,-y,1/2+z
1/2+x,1/2+y,z
1/2-x,1/2-y,z
1/2+x,1/2-y,1/2-z
1/2-x,1/2+y,1/2-z
1/2-x,1/2-y,-z
1/2+x,1/2+y,-z
1/2-x,1/2+y,1/2+z
1/2+x,1/2-y,1/2+z
loop_
_atom_site_type_symbol
_atom_site_label
_atom_site_fract_x
_atom_site_fract_y
_atom_site_fract_z
Si Si1 0.843455 0.095179 0.717881
Si Si2 0.216465 0.302594 0.220228
Si Si3 0.454504 0.298198 0.784955
Si Si4 0.247349 0.932580 0.715029
Si Si5 0.135336 0.764112 0.717767
Si Si6 0.433989 0.433455 0.785194
O O1 0.843523 0.089503 0.500000
O O2 0.800110 0.068961 0.786282
O O3 0.846930 0.167779 0.758091
O O4 0.886384 0.066159 0.784659
O O5 0.250000 0.250000 0.273658
O O6 0.229755 0.370874 0.279924
O O7 0.170157 0.283693 0.280351
O O8 0.216668 0.302070 0.000000
O O9 0.500000 0.271247 0.750000
O O10 0.412639 0.264173 0.718513
O O11 0.453362 0.369406 0.716250
O O12 0.450210 0.300781 0.000000
O O13 0.244973 0.926007 0.500000
O O14 0.265948 0.000000 0.750000
O O15 0.134073 0.759031 0.500000
O O16 0.453278 0.500000 0.750000
O O17 0.432731 0.427450 0.000000
#
# Coordination Sequence:
#
# PCOD9495217 Si02
#       6
#    16  16  16  16  16  16
#     4   8  13  23  38  57  80 105 137 175 210 238
#     4   9  14  23  43  68  86 107 146 185 208 238
#     4   9  18  30  43  58  78 102 130 171 217 253
#     4  10  18  26  40  63  89 115 141 173 210 248
#     4   8  13  24  42  63  82 101 136 183 214 234
#     4   9  17  27  38  53  74 103 136 170 207 245
#
# _framework density 18.530173000000001
#
# number of rings (size 3 to 8) (size 9 to 14) (size 15 to 20)
#    0.000    3.167    1.667    2.500    0.000    1.000 
#    0.000    1.667    0.000    2.500    0.000    0.000 
#    0.000    0.667    0.000    8.333    0.000    0.000 
#
# Total GULP energy -267524.694899 kJ/mol
# GULP energy per Si atom -5573.431144 kJ/mol
# Density = 1.848800 g / cm^3
# Si number density = 18.530173 Si / 1000 Ang^3
#
#
#
# Elastic Constant Matrix: (Units=GPa)
#
#
# Indices 1 2 3 4 5 6 
#
# 1 148.8692 74.0597 3.3170 0.0000 0.0000 0.0000
# 2 74.0597 104.2059 0.4216 0.0000 0.0000 0.0000
# 3 3.3170 0.4216 58.3620 0.0000 0.0000 0.0000
# 4 0.0000 0.0000 0.0000 5.8025 0.0000 0.0000
# 5 0.0000 0.0000 0.0000 0.0000 1.0616 0.0000
# 6 0.0000 0.0000 0.0000 0.0000 0.0000 -1.9317
#
#
#
# Elastic Compliance Matrix: (Units=1/GPa)
#
#
# Indices 1 2 3 4 5 6 
#
# 1 0.010408 -0.007395 -0.000538 0.000000 0.000000 0.000000
# 2 -0.007395 0.014851 0.000313 0.000000 0.000000 0.000000
# 3 -0.000538 0.000313 0.017163 0.000000 0.000000 0.000000
# 4 0.000000 0.000000 0.000000 0.172340 0.000000 0.000000
# 5 0.000000 0.000000 0.000000 0.000000 0.942018 0.000000
# 6 0.000000 0.000000 0.000000 0.000000 0.000000 -0.517687
#
#
# Mechanical properties :
#
#
# Convention : Reuss Voigt Hill
#
# Bulk Modulus (GPa) = 36.78972 51.89265 44.34118
# Shear Modulus (GPa) = 7.53701 16.56239 12.04970
#
# Velocity S-wave (km/s) = 2.01897 2.99290 2.55281
# Velocity P-wave (km/s) = 5.03310 6.32523 5.71579
#
# Compressibility (1/GPa) = 0.02718151
#
# Stress axis : x y z
#
# Youngs Moduli (GPa) = 96.07854 67.33668 58.26572
#
# Poissons Ratio (x) = 0.49795 0.03135
# Poissons Ratio (y) = 0.71050 -0.01824
# Poissons Ratio (z) = 0.05170 -0.02108
#
# Static dielectric constant tensor:
#      x y z
#    x 1.678120 0.000000 0.000000 
#    y 0.000000 1.640740 0.000000 
#    z 0.000000 0.000000 1.769970 
# 
# From -- ./inp_files/20819.got.cif
#   From: 2010.05.17/outbox.cif.g08.bks.cpg/sg66_11_cif.got.tgz:20819.got - 2010.06.03 17:51:23.
