data_PCOD9495834
_publ_section_title
;
Structure prediction by ZEFSAII (Michael W. Deem and Ramdas Pophale) SiO2 
 PCOD9495834
Probable space group: C C C M
;
_chemical_formula_sum "Si O2"
_cell_formula_units_Z 96
_cell_length_a 9.881281
_cell_length_b 26.111070
_cell_length_c 23.247992
_cell_angle_alpha 90.000000
_cell_angle_beta 90.000000
_cell_angle_gamma 90.000000
_cell_volume 5998.233476
_symmetry_space_group_name_H-M "C C C M"
_symmetry_group_IT_number 66
_symmetry_cell_setting 'orthorhombic'
loop_
_space_group_symop_operation_xyz
x,y,z
-x,-y,z
x,-y,1/2-z
-x,y,1/2-z
-x,-y,-z
x,y,-z
-x,y,1/2+z
x,-y,1/2+z
1/2+x,1/2+y,z
1/2-x,1/2-y,z
1/2+x,1/2-y,1/2-z
1/2-x,1/2+y,1/2-z
1/2-x,1/2-y,-z
1/2+x,1/2+y,-z
1/2-x,1/2+y,1/2+z
1/2+x,1/2-y,1/2+z
loop_
_atom_site_type_symbol
_atom_site_label
_atom_site_fract_x
_atom_site_fract_y
_atom_site_fract_z
Si Si1 0.493308 0.165064 0.876523
Si Si2 0.505080 0.712025 0.373270
Si Si3 0.079919 0.799417 0.500000
Si Si4 0.500654 0.441863 0.319736
Si Si5 0.723665 0.360038 0.823156
Si Si6 0.615090 0.824113 0.000000
Si Si7 0.215946 0.857281 0.685068
O O1 0.504567 0.226796 0.870915
O O2 0.630191 0.140531 0.852334
O O3 0.457308 0.155431 0.943130
O O4 0.363800 0.146529 0.841089
O O5 0.493838 0.692376 0.439270
O O6 0.638598 0.688508 0.345399
O O7 0.376455 0.689343 0.338636
O O8 0.222033 0.830025 0.500000
O O9 0.103514 0.737912 0.500000
O O10 0.500000 0.500000 0.341135
O O11 0.500000 0.443564 0.250000
O O12 0.368901 0.409407 0.337680
O O13 0.632508 0.407884 0.333913
O O14 0.728001 0.356582 0.753986
#
# Coordination Sequence:
#
# PCOD9495834 Si02
#       7
#    16  16   8  16  16   8  16
#     4  11  20  31  47  71 103 133 161 199 236 278
#     4  10  19  31  48  68  99 137 169 197 227 273
#     4   9  16  31  49  65  86 131 188 206 212 268
#     4   8  16  34  54  69  92 124 159 201 240 283
#     4  10  21  31  45  76 104 124 159 198 245 294
#     4   9  18  31  47  65  92 132 174 206 230 263
#     4  10  19  31  49  73  99 131 163 189 237 303
#
# _framework density 16.004712000000001
#
# number of rings (size 3 to 8) (size 9 to 14) (size 15 to 20)
#    0.000    2.333    1.667    3.000    0.000    4.667 
#    0.000    3.333    0.000    4.000    0.000   22.167 
#    0.000    0.000    0.000    0.000    0.000    0.000 
#
# Total GULP energy -267495.302844 kJ/mol
# GULP energy per Si atom -5572.818809 kJ/mol
# Density = 1.596828 g / cm^3
# Si number density = 16.004712 Si / 1000 Ang^3
#
#
#
# Elastic Constant Matrix: (Units=GPa)
#
#
# Indices 1 2 3 4 5 6 
#
# 1 150.7746 46.8992 61.6522 0.0000 0.0000 0.0000
# 2 46.8992 83.4475 30.8826 0.0000 0.0000 0.0000
# 3 61.6522 30.8826 107.0864 0.0000 0.0000 0.0000
# 4 0.0000 0.0000 0.0000 -17.0166 0.0000 0.0000
# 5 0.0000 0.0000 0.0000 0.0000 -39.8884 0.0000
# 6 0.0000 0.0000 0.0000 0.0000 0.0000 1.2565
#
#
#
# Elastic Compliance Matrix: (Units=1/GPa)
#
#
# Indices 1 2 3 4 5 6 
#
# 1 0.009624 -0.003760 -0.004457 0.000000 0.000000 0.000000
# 2 -0.003760 0.014884 -0.002128 0.000000 0.000000 0.000000
# 3 -0.004457 -0.002128 0.012518 0.000000 0.000000 0.000000
# 4 0.000000 0.000000 0.000000 -0.058766 0.000000 0.000000
# 5 0.000000 0.000000 0.000000 0.000000 -0.025070 0.000000
# 6 0.000000 0.000000 0.000000 0.000000 0.000000 0.795865
#
#
# Mechanical properties :
#
#
# Convention : Reuss Voigt Hill
#
# Bulk Modulus (GPa) = 61.20841 68.90850 65.05845
# Shear Modulus (GPa) = 6.45004 2.32859 4.38931
#
# Velocity S-wave (km/s) = 2.00969 1.20752 1.65785
# Velocity P-wave (km/s) = 6.61151 6.71511 6.66351
#
# Compressibility (1/GPa) = 0.01633762
#
# Stress axis : x y z
#
# Youngs Moduli (GPa) = 103.90452 67.18578 79.88674
#
# Poissons Ratio (x) = 0.25260 0.35603
# Poissons Ratio (y) = 0.39065 0.16999
# Poissons Ratio (z) = 0.46307 0.14296
#
# Static dielectric constant tensor:
#      x y z
#    x 1.533630 0.000000 0.000000 
#    y 0.000000 1.526770 0.000000 
#    z 0.000000 0.000000 1.544930 
# 
# From -- ./inp_files/55695.got.cif
#   From: 2010.05.17/outbox.cif.g08.bks.cpg/sg66_28_cif.got.tgz:55695.got - 2010.06.03 17:51:23.
