data_PCOD9495979
_publ_section_title
;
Structure prediction by ZEFSAII (Michael W. Deem and Ramdas Pophale) SiO2 
 PCOD9495979
Probable space group: C C C M
;
_chemical_formula_sum "Si O2"
_cell_formula_units_Z 56
_cell_length_a 5.317627
_cell_length_b 18.537853
_cell_length_c 27.350926
_cell_angle_alpha 90.000000
_cell_angle_beta 90.000000
_cell_angle_gamma 90.000000
_cell_volume 2696.182834
_symmetry_space_group_name_H-M "C C C M"
_symmetry_group_IT_number 66
_symmetry_cell_setting 'orthorhombic'
loop_
_space_group_symop_operation_xyz
x,y,z
-x,-y,z
x,-y,1/2-z
-x,y,1/2-z
-x,-y,-z
x,y,-z
-x,y,1/2+z
x,-y,1/2+z
1/2+x,1/2+y,z
1/2-x,1/2-y,z
1/2+x,1/2-y,1/2-z
1/2-x,1/2+y,1/2-z
1/2-x,1/2-y,-z
1/2+x,1/2+y,-z
1/2-x,1/2+y,1/2+z
1/2+x,1/2-y,1/2+z
loop_
_atom_site_type_symbol
_atom_site_label
_atom_site_fract_x
_atom_site_fract_y
_atom_site_fract_z
Si Si1 0.742390 0.641563 0.055894
Si Si2 0.500000 0.500000 0.414205
Si Si3 0.241420 0.140586 0.614201
Si Si4 0.749267 0.166288 0.772114
O O1 0.673225 0.555832 0.056177
O O2 0.500097 0.672933 0.085050
O O3 0.001059 0.652000 0.084889
O O4 0.758493 0.665770 0.000000
O O5 0.324216 0.445023 0.384660
O O6 0.254923 0.165990 0.669543
O O7 0.500000 0.131724 0.750000
O O8 0.750000 0.250000 0.755116
O O9 0.000000 0.132292 0.750000
#
# Coordination Sequence:
#
# PCOD9495979 Si02
#       4
#    16   8  16  16
#     4  10  19  32  53  79 110 145 177 206 250 313
#     4   8  21  30  53  76 112 142 173 210 255 310
#     4  10  20  33  53  79 110 132 179 218 259 306
#     4  10  21  39  62  79  96 134 184 226 266 311
#
# _framework density 20.770105999999998
#
# number of rings (size 3 to 8) (size 9 to 14) (size 15 to 20)
#    1.714    0.571    0.000    3.857    0.000    1.143 
#    0.000    0.714    0.000    5.143    0.000    0.000 
#    0.000    0.000    0.000    0.000    0.000    0.000 
#
# Total GULP energy -155931.758578 kJ/mol
# GULP energy per Si atom -5568.991378 kJ/mol
# Density = 2.072283 g / cm^3
# Si number density = 20.770106 Si / 1000 Ang^3
#
#
#
# Elastic Constant Matrix: (Units=GPa)
#
#
# Indices 1 2 3 4 5 6 
#
# 1 241.4095 1.0451 102.0798 0.0000 0.0000 0.0000
# 2 1.0451 61.9133 -21.6667 0.0000 0.0000 0.0000
# 3 102.0798 -21.6667 122.0297 0.0000 0.0000 0.0000
# 4 0.0000 0.0000 0.0000 22.9406 0.0000 0.0000
# 5 0.0000 0.0000 0.0000 0.0000 27.6372 0.0000
# 6 0.0000 0.0000 0.0000 0.0000 0.0000 -23.5185
#
#
#
# Elastic Compliance Matrix: (Units=1/GPa)
#
#
# Indices 1 2 3 4 5 6 
#
# 1 0.006680 -0.002205 -0.005980 0.000000 0.000000 0.000000
# 2 -0.002205 0.017950 0.005032 0.000000 0.000000 0.000000
# 3 -0.005980 0.005032 0.014090 0.000000 0.000000 0.000000
# 4 0.000000 0.000000 0.000000 0.043591 0.000000 0.000000
# 5 0.000000 0.000000 0.000000 0.000000 0.036183 0.000000
# 6 0.000000 0.000000 0.000000 0.000000 0.000000 -0.042520
#
#
# Mechanical properties :
#
#
# Convention : Reuss Voigt Hill
#
# Bulk Modulus (GPa) = 30.85100 65.36320 48.10710
# Shear Modulus (GPa) = 53.71349 28.33815 41.02582
#
# Velocity S-wave (km/s) = 5.09088 3.69775 4.44918
# Velocity P-wave (km/s) = 7.03150 7.05473 7.04313
#
# Compressibility (1/GPa) = 0.03241386
#
# Stress axis : x y z
#
# Youngs Moduli (GPa) = 149.68952 55.71095 70.96997
#
# Poissons Ratio (x) = 0.12287 0.42440
# Poissons Ratio (y) = 0.33013 -0.35712
# Poissons Ratio (z) = 0.89513 -0.28033
#
# Static dielectric constant tensor:
#      x y z
#    x 1.702520 0.000000 0.000000 
#    y 0.000000 1.759930 0.000000 
#    z 0.000000 0.000000 1.674670 
# 
# From -- ./inp_files/54085.got.cif
#   From: 2010.05.17/outbox.cif.g08.bks.cpg/sg66_28_cif.got.tgz:54085.got - 2010.06.03 17:51:23.
