data_PCOD9495496
_publ_section_title
;
Structure prediction by ZEFSAII (Michael W. Deem and Ramdas Pophale) SiO2 
 PCOD9495496
Probable space group: C C C M
;
_chemical_formula_sum "Si O2"
_cell_formula_units_Z 96
_cell_length_a 21.023759
_cell_length_b 14.260848
_cell_length_c 18.621341
_cell_angle_alpha 90.000000
_cell_angle_beta 90.000000
_cell_angle_gamma 90.000000
_cell_volume 5582.987732
_symmetry_space_group_name_H-M "C C C M"
_symmetry_group_IT_number 66
_symmetry_cell_setting 'orthorhombic'
loop_
_space_group_symop_operation_xyz
x,y,z
-x,-y,z
x,-y,1/2-z
-x,y,1/2-z
-x,-y,-z
x,y,-z
-x,y,1/2+z
x,-y,1/2+z
1/2+x,1/2+y,z
1/2-x,1/2-y,z
1/2+x,1/2-y,1/2-z
1/2-x,1/2+y,1/2-z
1/2-x,1/2-y,-z
1/2+x,1/2+y,-z
1/2-x,1/2+y,1/2+z
1/2+x,1/2-y,1/2+z
loop_
_atom_site_type_symbol
_atom_site_label
_atom_site_fract_x
_atom_site_fract_y
_atom_site_fract_z
Si Si1 0.560791 0.433317 0.413885
Si Si2 0.435568 0.952949 0.671376
Si Si3 0.484915 0.256456 0.169735
Si Si4 0.116827 0.255162 0.414826
Si Si5 0.679801 0.560220 0.587216
Si Si6 0.322692 0.041132 0.414850
O O1 0.500000 0.500000 0.398743
O O2 0.561827 0.418489 0.500000
O O3 0.552512 0.335721 0.373516
O O4 0.624553 0.488093 0.392247
O O5 0.448510 0.842445 0.676060
O O6 0.500000 0.000000 0.639585
O O7 0.428533 0.000000 0.750000
O O8 0.373890 0.978018 0.625704
O O9 0.500000 0.289872 0.250000
O O10 0.551331 0.240300 0.128364
O O11 0.102444 0.244126 0.500000
O O12 0.157537 0.164608 0.391772
O O13 0.155494 0.350933 0.405695
O O14 0.682497 0.561304 0.500000
O O15 0.750260 0.533291 0.611916
O O16 0.324508 0.020437 0.500000
#
# Coordination Sequence:
#
# PCOD9495496 Si02
#       6
#    16  16  16  16  16  16
#     4  10  20  37  59  83 115 152 182 224 285 338
#     4  11  21  40  57  77 111 155 182 225 292 337
#     4  12  22  35  57  83 111 144 192 235 276 330
#     4  10  18  32  56  83 111 145 187 236 284 328
#     4   9  18  35  55  81 117 149 180 225 288 337
#     4  10  20  33  57  87 111 142 189 239 276 332
#
# _framework density 17.195094999999998
#
# number of rings (size 3 to 8) (size 9 to 14) (size 15 to 20)
#    0.000    1.667    5.000    1.000    0.000    4.000 
#    0.000    2.500    0.000    3.000    0.000    0.000 
#    0.000    0.000    0.000    0.000    0.000    0.000 
#
# Total GULP energy -267898.414287 kJ/mol
# GULP energy per Si atom -5581.216964 kJ/mol
# Density = 1.715596 g / cm^3
# Si number density = 17.195095 Si / 1000 Ang^3
#
#
#
# Elastic Constant Matrix: (Units=GPa)
#
#
# Indices 1 2 3 4 5 6 
#
# 1 149.9200 40.5515 47.2882 0.0000 0.0000 0.0000
# 2 40.5515 79.8378 31.7058 0.0000 0.0000 0.0000
# 3 47.2882 31.7058 41.6423 0.0000 0.0000 0.0000
# 4 0.0000 0.0000 0.0000 26.1784 0.0000 0.0000
# 5 0.0000 0.0000 0.0000 0.0000 4.9772 0.0000
# 6 0.0000 0.0000 0.0000 0.0000 0.0000 15.5033
#
#
#
# Elastic Compliance Matrix: (Units=1/GPa)
#
#
# Indices 1 2 3 4 5 6 
#
# 1 0.010433 -0.000852 -0.011199 0.000000 0.000000 0.000000
# 2 -0.000852 0.018024 -0.012756 0.000000 0.000000 0.000000
# 3 -0.011199 -0.012756 0.046443 0.000000 0.000000 0.000000
# 4 0.000000 0.000000 0.000000 0.038199 0.000000 0.000000
# 5 0.000000 0.000000 0.000000 0.000000 0.200915 0.000000
# 6 0.000000 0.000000 0.000000 0.000000 0.000000 0.064502
#
#
# Mechanical properties :
#
#
# Convention : Reuss Voigt Hill
#
# Bulk Modulus (GPa) = 39.54577 56.72123 48.13350
# Shear Modulus (GPa) = 11.45321 19.45544 15.45432
#
# Velocity S-wave (km/s) = 2.58364 3.36736 3.00119
# Velocity P-wave (km/s) = 5.65230 6.94098 6.32952
#
# Compressibility (1/GPa) = 0.02528715
#
# Stress axis : x y z
#
# Youngs Moduli (GPa) = 95.84916 55.48275 21.53156
#
# Poissons Ratio (x) = 0.04726 0.24113
# Poissons Ratio (y) = 0.08164 0.27465
# Poissons Ratio (z) = 1.07342 0.70772
#
# Static dielectric constant tensor:
#      x y z
#    x 1.578490 0.000000 0.000000 
#    y 0.000000 1.572460 0.000000 
#    z 0.000000 0.000000 1.580510 
# 
# From -- ./inp_files/28424.got.cif
#   From: 2010.05.17/outbox.cif.g08.bks.cpg/sg66_15_cif.got.tgz:28424.got - 2010.06.03 17:51:23.
