data_PCOD9495077
_publ_section_title
;
Structure prediction by ZEFSAII (Michael W. Deem and Ramdas Pophale) SiO2 
 PCOD9495077
Probable space group: C C C M
;
_chemical_formula_sum "Si O2"
_cell_formula_units_Z 112
_cell_length_a 25.773167
_cell_length_b 14.196832
_cell_length_c 19.044556
_cell_angle_alpha 90.000000
_cell_angle_beta 90.000000
_cell_angle_gamma 90.000000
_cell_volume 6968.352039
_symmetry_space_group_name_H-M "C C C M"
_symmetry_group_IT_number 66
_symmetry_cell_setting 'orthorhombic'
loop_
_space_group_symop_operation_xyz
x,y,z
-x,-y,z
x,-y,1/2-z
-x,y,1/2-z
-x,-y,-z
x,y,-z
-x,y,1/2+z
x,-y,1/2+z
1/2+x,1/2+y,z
1/2-x,1/2-y,z
1/2+x,1/2-y,1/2-z
1/2-x,1/2+y,1/2-z
1/2-x,1/2-y,-z
1/2+x,1/2+y,-z
1/2-x,1/2+y,1/2+z
1/2+x,1/2-y,1/2+z
loop_
_atom_site_type_symbol
_atom_site_label
_atom_site_fract_x
_atom_site_fract_y
_atom_site_fract_z
Si Si1 0.480967 0.244451 0.827786
Si Si2 0.943118 0.539099 0.171215
Si Si3 0.077354 0.741868 0.920069
Si Si4 0.247249 0.860900 0.085798
Si Si5 0.865025 0.929756 0.585152
Si Si6 0.548126 0.572906 0.915942
Si Si7 0.645292 0.941723 0.419399
O O1 0.500000 0.270352 0.750000
O O2 0.445000 0.152395 0.825337
O O3 0.531422 0.211297 0.870591
O O4 0.459751 0.333724 0.870384
O O5 0.937143 0.500000 0.250000
O O6 0.895376 0.503002 0.124511
O O7 0.000000 0.500000 0.146490
O O8 0.100882 0.839553 0.894019
O O9 0.121204 0.663208 0.921585
O O10 0.058326 0.755578 0.000000
O O11 0.250000 0.750000 0.106957
O O12 0.193574 0.909947 0.108570
O O13 0.296708 0.923097 0.108371
O O14 0.248581 0.859643 0.000000
O O15 0.863658 0.928687 0.500000
O O16 0.898173 0.021145 0.604613
O O17 0.500000 0.500000 0.905061
O O18 0.549013 0.592938 0.000000
O O19 0.647700 0.976635 0.500000
#
# Coordination Sequence:
#
# PCOD9495077 Si02
#       7
#    16  16  16  16  16  16  16
#     4  12  22  34  52  73 102 140 180 215 252 320
#     4  11  21  38  52  71 103 143 176 205 269 331
#     4  10  17  28  49  76 104 133 167 211 262 313
#     4   9  15  26  48  80 110 134 168 216 266 305
#     4   9  16  29  48  72 108 142 165 203 263 319
#     4  10  20  34  52  76 108 143 173 207 265 322
#     4  10  19  29  50  83 107 128 172 226 262 306
#
# _framework density 16.072666000000002
#
# number of rings (size 3 to 8) (size 9 to 14) (size 15 to 20)
#    0.000    1.857    5.714    0.429    0.000    1.714 
#    0.000    0.000    0.000    2.571    0.000    4.000 
#    0.000    0.000    0.000    0.000    0.000    0.000 
#
# Total GULP energy -311967.158150 kJ/mol
# GULP energy per Si atom -5570.842110 kJ/mol
# Density = 1.603608 g / cm^3
# Si number density = 16.072666 Si / 1000 Ang^3
#
#
#
# Elastic Constant Matrix: (Units=GPa)
#
#
# Indices 1 2 3 4 5 6 
#
# 1 105.6727 45.6842 34.3593 0.0000 0.0000 0.0000
# 2 45.6842 117.3426 39.1366 0.0000 0.0000 0.0000
# 3 34.3593 39.1366 49.2828 0.0000 0.0000 0.0000
# 4 0.0000 0.0000 0.0000 22.0363 0.0000 0.0000
# 5 0.0000 0.0000 0.0000 0.0000 6.1996 0.0000
# 6 0.0000 0.0000 0.0000 0.0000 0.0000 26.4773
#
#
#
# Elastic Compliance Matrix: (Units=1/GPa)
#
#
# Indices 1 2 3 4 5 6 
#
# 1 0.012855 -0.002742 -0.006785 0.000000 0.000000 0.000000
# 2 -0.002742 0.012177 -0.007759 0.000000 0.000000 0.000000
# 3 -0.006785 -0.007759 0.031183 0.000000 0.000000 0.000000
# 4 0.000000 0.000000 0.000000 0.045380 0.000000 0.000000
# 5 0.000000 0.000000 0.000000 0.000000 0.161302 0.000000
# 6 0.000000 0.000000 0.000000 0.000000 0.000000 0.037768
#
#
# Mechanical properties :
#
#
# Convention : Reuss Voigt Hill
#
# Bulk Modulus (GPa) = 46.20207 56.73980 51.47094
# Shear Modulus (GPa) = 14.60072 21.15050 17.87561
#
# Velocity S-wave (km/s) = 3.01727 3.63151 3.33855
# Velocity P-wave (km/s) = 6.39896 7.27753 6.85234
#
# Compressibility (1/GPa) = 0.02164405
#
# Stress axis : x y z
#
# Youngs Moduli (GPa) = 77.79366 82.12089 32.06909
#
# Poissons Ratio (x) = 0.22515 0.21758
# Poissons Ratio (y) = 0.21328 0.24881
# Poissons Ratio (z) = 0.52781 0.63715
#
# Static dielectric constant tensor:
#      x y z
#    x 1.554450 0.000000 0.000000 
#    y 0.000000 1.552960 0.000000 
#    z 0.000000 0.000000 1.531230 
# 
# From -- ./inp_files/53156.got.cif
#   From: 2010.05.17/outbox.cif.g08.bks.cpg/sg66_27_cif.got.tgz:53156.got - 2010.06.03 17:51:23.
