data_PCOD9495669
_publ_section_title
;
Structure prediction by ZEFSAII (Michael W. Deem and Ramdas Pophale) SiO2 
 PCOD9495669
Probable space group: C C C M
;
_chemical_formula_sum "Si O2"
_cell_formula_units_Z 120
_cell_length_a 15.527537
_cell_length_b 20.791625
_cell_length_c 17.512833
_cell_angle_alpha 90.000000
_cell_angle_beta 90.000000
_cell_angle_gamma 90.000000
_cell_volume 5653.890754
_symmetry_space_group_name_H-M "C C C M"
_symmetry_group_IT_number 66
_symmetry_cell_setting 'orthorhombic'
loop_
_space_group_symop_operation_xyz
x,y,z
-x,-y,z
x,-y,1/2-z
-x,y,1/2-z
-x,-y,-z
x,y,-z
-x,y,1/2+z
x,-y,1/2+z
1/2+x,1/2+y,z
1/2-x,1/2-y,z
1/2+x,1/2-y,1/2-z
1/2-x,1/2+y,1/2-z
1/2-x,1/2-y,-z
1/2+x,1/2+y,-z
1/2-x,1/2+y,1/2+z
1/2+x,1/2-y,1/2+z
loop_
_atom_site_type_symbol
_atom_site_label
_atom_site_fract_x
_atom_site_fract_y
_atom_site_fract_z
Si Si1 0.645477 0.902593 0.628219
Si Si2 0.103236 0.258461 0.584962
Si Si3 0.101304 0.263762 0.908818
Si Si4 0.000000 0.500000 0.371336
Si Si5 0.582378 0.876267 0.792594
Si Si6 0.506016 0.576041 0.918307
Si Si7 0.168876 0.132648 0.359619
Si Si8 0.090850 0.843871 0.293205
O O1 0.613046 0.833557 0.599784
O O2 0.581971 0.958362 0.596635
O O3 0.640840 0.896236 0.720917
O O4 0.746121 0.901580 0.610134
O O5 0.132380 0.243960 0.500000
O O6 0.160279 0.210351 0.634491
O O7 0.000990 0.246845 0.590227
O O8 0.112469 0.331091 0.862305
O O9 0.133544 0.210650 0.847236
O O10 0.127794 0.264821 0.000000
O O11 0.953137 0.442887 0.326172
O O12 0.500000 0.842873 0.750000
O O13 0.500000 0.500000 0.917705
O O14 0.412144 0.605729 0.905529
O O15 0.563262 0.600653 0.850344
O O16 0.540618 0.598594 0.000000
O O17 0.151671 0.125025 0.270090
O O18 0.000000 0.822902 0.250000
#
# Coordination Sequence:
#
# PCOD9495669 Si02
#       8
#    16  16  16   8  16  16  16  16
#     4  11  22  38  60  90 121 164 204 256 314 362
#     4  11  21  35  58  89 125 159 198 254 318 371
#     4  11  19  32  59  86 113 159 210 251 305 379
#     4  10  21  40  61  82 117 168 209 252 307 366
#     4  10  18  36  58  79 112 156 208 256 299 361
#     4  10  21  39  60  81 118 163 194 232 301 380
#     4  11  23  36  60  96 124 150 201 260 314 360
#     4  10  19  34  56  85 116 151 195 253 303 369
#
# _framework density 21.224322000000001
#
# number of rings (size 3 to 8) (size 9 to 14) (size 15 to 20)
#    0.000    1.467    5.333    4.200    0.000    4.000 
#    4.800    1.333    0.000    2.400    0.000    0.000 
#    0.000    0.000    0.000    0.000    0.000    0.000 
#
# Total GULP energy -334185.891731 kJ/mol
# GULP energy per Si atom -5569.764862 kJ/mol
# Density = 2.117601 g / cm^3
# Si number density = 21.224322 Si / 1000 Ang^3
#
#
#
# Elastic Constant Matrix: (Units=GPa)
#
#
# Indices 1 2 3 4 5 6 
#
# 1 48.8387 12.4123 -10.0021 0.0000 0.0000 0.0000
# 2 12.4123 90.4214 20.7020 0.0000 0.0000 0.0000
# 3 -10.0021 20.7020 105.3467 0.0000 0.0000 0.0000
# 4 0.0000 0.0000 0.0000 33.1894 0.0000 0.0000
# 5 0.0000 0.0000 0.0000 0.0000 0.6390 0.0000
# 6 0.0000 0.0000 0.0000 0.0000 0.0000 17.4500
#
#
#
# Elastic Compliance Matrix: (Units=1/GPa)
#
#
# Indices 1 2 3 4 5 6 
#
# 1 0.021980 -0.003660 0.002806 0.000000 0.000000 0.000000
# 2 -0.003660 0.012190 -0.002743 0.000000 0.000000 0.000000
# 3 0.002806 -0.002743 0.010298 0.000000 0.000000 0.000000
# 4 0.000000 0.000000 0.000000 0.030130 0.000000 0.000000
# 5 0.000000 0.000000 0.000000 0.000000 1.564971 0.000000
# 6 0.000000 0.000000 0.000000 0.000000 0.000000 0.057307
#
#
# Mechanical properties :
#
#
# Convention : Reuss Voigt Hill
#
# Bulk Modulus (GPa) = 26.82773 32.31458 29.57116
# Shear Modulus (GPa) = 2.91292 25.02198 13.96745
#
# Velocity S-wave (km/s) = 1.17278 3.43728 2.56810
# Velocity P-wave (km/s) = 3.80807 5.56880 4.77037
#
# Compressibility (1/GPa) = 0.03727487
#
# Stress axis : x y z
#
# Youngs Moduli (GPa) = 45.49518 82.03654 97.10712
#
# Poissons Ratio (x) = 0.30023 -0.27249
# Poissons Ratio (y) = 0.16650 0.26636
# Poissons Ratio (z) = -0.12766 0.22502
#
# Static dielectric constant tensor:
#      x y z
#    x 1.811170 0.000000 0.000000 
#    y 0.000000 1.778250 0.000000 
#    z 0.000000 0.000000 1.838420 
# 
# From -- ./inp_files/42047.got.cif
#   From: 2010.05.17/outbox.cif.g08.bks.cpg/sg66_22_cif.got.tgz:42047.got - 2010.06.03 17:51:23.
