data_PCOD9495615
_publ_section_title
;
Structure prediction by ZEFSAII (Michael W. Deem and Ramdas Pophale) SiO2 
 PCOD9495615
Probable space group: C C C M
;
_chemical_formula_sum "Si O2"
_cell_formula_units_Z 96
_cell_length_a 13.920042
_cell_length_b 19.693710
_cell_length_c 14.704412
_cell_angle_alpha 90.000000
_cell_angle_beta 90.000000
_cell_angle_gamma 90.000000
_cell_volume 4031.027368
_symmetry_space_group_name_H-M "C C C M"
_symmetry_group_IT_number 66
_symmetry_cell_setting 'orthorhombic'
loop_
_space_group_symop_operation_xyz
x,y,z
-x,-y,z
x,-y,1/2-z
-x,y,1/2-z
-x,-y,-z
x,y,-z
-x,y,1/2+z
x,-y,1/2+z
1/2+x,1/2+y,z
1/2-x,1/2-y,z
1/2+x,1/2-y,1/2-z
1/2-x,1/2+y,1/2-z
1/2-x,1/2-y,-z
1/2+x,1/2+y,-z
1/2-x,1/2+y,1/2+z
1/2+x,1/2-y,1/2+z
loop_
_atom_site_type_symbol
_atom_site_label
_atom_site_fract_x
_atom_site_fract_y
_atom_site_fract_z
Si Si1 0.303178 0.940639 0.888392
Si Si2 0.560413 0.826698 0.610239
Si Si3 0.219723 0.177949 0.893300
Si Si4 0.407662 0.538450 0.897769
Si Si5 0.496687 0.674064 0.146044
Si Si6 0.117268 0.579101 0.389214
O O1 0.344769 0.867741 0.860453
O O2 0.197680 0.961500 0.854964
O O3 0.376545 0.000620 0.862318
O O4 0.298171 0.938998 0.000000
O O5 0.559284 0.824587 0.500000
O O6 0.546002 0.749625 0.640553
O O7 0.470092 0.873042 0.639934
O O8 0.250000 0.250000 0.850855
O O9 0.284113 0.116012 0.859214
O O10 0.106026 0.171749 0.887491
O O11 0.245507 0.181165 0.000000
O O12 0.500000 0.500000 0.856998
O O13 0.434823 0.617470 0.903386
O O14 0.397092 0.508395 0.000000
O O15 0.500000 0.652700 0.250000
O O16 0.112092 0.577312 0.500000
#
# Coordination Sequence:
#
# PCOD9495615 Si02
#       6
#    16  16  16  16  16  16
#     4   9  18  32  55  89 117 146 186 236 300 356
#     4  10  19  35  58  85 117 150 191 238 294 355
#     4  10  18  34  61  88 110 142 200 257 298 337
#     4  10  21  40  64  85 112 150 197 246 289 346
#     4  12  25  39  55  84 121 157 191 240 295 363
#     4   9  16  30  58  90 115 140 187 256 301 337
#
# _framework density 23.815270000000002
#
# number of rings (size 3 to 8) (size 9 to 14) (size 15 to 20)
#    0.000    2.000    1.667    3.000    0.000    5.667 
#    3.000    2.500    0.000    4.000    0.000    0.000 
#    0.000    0.000    0.000    0.000    0.000    0.000 
#
# Total GULP energy -268238.260136 kJ/mol
# GULP energy per Si atom -5588.297086 kJ/mol
# Density = 2.376107 g / cm^3
# Si number density = 23.815270 Si / 1000 Ang^3
#
#
#
# Elastic Constant Matrix: (Units=GPa)
#
#
# Indices 1 2 3 4 5 6 
#
# 1 100.3656 43.4205 -3.9099 0.0000 0.0000 0.0000
# 2 43.4205 120.8011 3.5915 0.0000 0.0000 0.0000
# 3 -3.9099 3.5915 58.3986 0.0000 0.0000 0.0000
# 4 0.0000 0.0000 0.0000 -21.3965 0.0000 0.0000
# 5 0.0000 0.0000 0.0000 0.0000 24.9288 0.0000
# 6 0.0000 0.0000 0.0000 0.0000 0.0000 47.5070
#
#
#
# Elastic Compliance Matrix: (Units=1/GPa)
#
#
# Indices 1 2 3 4 5 6 
#
# 1 0.011863 -0.004296 0.001058 0.000000 0.000000 0.000000
# 2 -0.004296 0.009849 -0.000893 0.000000 0.000000 0.000000
# 3 0.001058 -0.000893 0.017249 0.000000 0.000000 0.000000
# 4 0.000000 0.000000 0.000000 -0.046737 0.000000 0.000000
# 5 0.000000 0.000000 0.000000 0.000000 0.040114 0.000000
# 6 0.000000 0.000000 0.000000 0.000000 0.000000 0.021050
#
#
# Mechanical properties :
#
#
# Convention : Reuss Voigt Hill
#
# Bulk Modulus (GPa) = 32.57275 40.64104 36.60689
# Shear Modulus (GPa) = 69.55786 25.97209 47.76497
#
# Velocity S-wave (km/s) = 5.41024 3.30595 4.48330
# Velocity P-wave (km/s) = 7.26185 5.62802 6.49650
#
# Compressibility (1/GPa) = 0.03070051
#
# Stress axis : x y z
#
# Youngs Moduli (GPa) = 84.29462 101.53721 57.97273
#
# Poissons Ratio (x) = 0.43616 -0.06136
# Poissons Ratio (y) = 0.36209 0.05179
# Poissons Ratio (z) = -0.08922 0.09070
#
# Static dielectric constant tensor:
#      x y z
#    x 2.013440 0.000000 0.000000 
#    y 0.000000 1.860290 0.000000 
#    z 0.000000 0.000000 1.939260 
# 
# From -- ./inp_files/28400.got.cif
#   From: 2010.05.17/outbox.cif.g08.bks.cpg/sg66_15_cif.got.tgz:28400.got - 2010.06.03 17:51:23.
