data_PCOD9495457
_publ_section_title
;
Structure prediction by ZEFSAII (Michael W. Deem and Ramdas Pophale) SiO2 
 PCOD9495457
Probable space group: C C C M
;
_chemical_formula_sum "Si O2"
_cell_formula_units_Z 96
_cell_length_a 30.532309
_cell_length_b 20.365832
_cell_length_c 8.576002
_cell_angle_alpha 90.000000
_cell_angle_beta 90.000000
_cell_angle_gamma 90.000000
_cell_volume 5332.694193
_symmetry_space_group_name_H-M "C C C M"
_symmetry_group_IT_number 66
_symmetry_cell_setting 'orthorhombic'
loop_
_space_group_symop_operation_xyz
x,y,z
-x,-y,z
x,-y,1/2-z
-x,y,1/2-z
-x,-y,-z
x,y,-z
-x,y,1/2+z
x,-y,1/2+z
1/2+x,1/2+y,z
1/2-x,1/2-y,z
1/2+x,1/2-y,1/2-z
1/2-x,1/2+y,1/2-z
1/2-x,1/2-y,-z
1/2+x,1/2+y,-z
1/2-x,1/2+y,1/2+z
1/2+x,1/2-y,1/2+z
loop_
_atom_site_type_symbol
_atom_site_label
_atom_site_fract_x
_atom_site_fract_y
_atom_site_fract_z
Si Si1 0.735894 0.070276 0.812872
Si Si2 0.875126 0.200478 0.812913
Si Si3 0.950537 0.288285 0.312736
Si Si4 0.450138 0.933115 0.313820
Si Si5 0.834794 0.929981 0.185800
Si Si6 0.293520 0.210631 0.310229
O O1 0.785978 0.079541 0.755957
O O2 0.709499 0.134805 0.760567
O O3 0.720224 0.000000 0.750000
O O4 0.736186 0.067953 0.000000
O O5 0.920217 0.232472 0.758484
O O6 0.864656 0.129970 0.740486
O O7 0.836296 0.249875 0.760525
O O8 0.873716 0.195369 0.000000
O O9 0.951058 0.284247 0.500000
O O10 0.932301 0.361304 0.269132
O O11 0.000000 0.283699 0.250000
O O12 0.500000 0.932455 0.250000
O O13 0.451547 0.937357 0.500000
O O14 0.428867 0.000000 0.250000
O O15 0.850738 0.000000 0.250000
O O16 0.831514 0.932355 0.000000
O O17 0.293178 0.210616 0.500000
O O18 0.250000 0.250000 0.259947
#
# Coordination Sequence:
#
# PCOD9495457 Si02
#       6
#    16  16  16  16  16  16
#     4  10  18  32  52  75 106 145 186 225 269 322
#     4  11  21  36  58  82 108 144 184 226 275 326
#     4  10  21  37  55  80 110 143 183 231 279 330
#     4   9  16  27  47  72 100 131 170 217 264 313
#     4  11  21  34  53  80 110 141 179 224 269 322
#     4   9  17  32  53  76 106 143 179 217 264 324
#
# _framework density 18.002158000000001
#
# number of rings (size 3 to 8) (size 9 to 14) (size 15 to 20)
#    0.000    2.000    1.667    5.000    0.000    2.000 
#    0.000    5.000    0.000    4.500    0.000    3.500 
#    0.000    0.000    0.000    0.000    0.000    0.000 
#
# Total GULP energy -267835.053499 kJ/mol
# GULP energy per Si atom -5579.896948 kJ/mol
# Density = 1.796118 g / cm^3
# Si number density = 18.002158 Si / 1000 Ang^3
#
#
#
# Elastic Constant Matrix: (Units=GPa)
#
#
# Indices 1 2 3 4 5 6 
#
# 1 53.4577 50.9842 12.8078 0.0000 0.0000 0.0000
# 2 50.9842 180.3106 44.2321 0.0000 0.0000 0.0000
# 3 12.8078 44.2321 71.1684 0.0000 0.0000 0.0000
# 4 0.0000 0.0000 0.0000 31.6020 0.0000 0.0000
# 5 0.0000 0.0000 0.0000 0.0000 -5.6312 0.0000
# 6 0.0000 0.0000 0.0000 0.0000 0.0000 26.4178
#
#
#
# Elastic Compliance Matrix: (Units=1/GPa)
#
#
# Indices 1 2 3 4 5 6 
#
# 1 0.025615 -0.007211 -0.000128 0.000000 0.000000 0.000000
# 2 -0.007211 0.008574 -0.004031 0.000000 0.000000 0.000000
# 3 -0.000128 -0.004031 0.016580 0.000000 0.000000 0.000000
# 4 0.000000 0.000000 0.000000 0.031644 0.000000 0.000000
# 5 0.000000 0.000000 0.000000 0.000000 -0.177582 0.000000
# 6 0.000000 0.000000 0.000000 0.000000 0.000000 0.037853
#
#
# Mechanical properties :
#
#
# Convention : Reuss Voigt Hill
#
# Bulk Modulus (GPa) = 35.67884 57.88719 46.78301
# Shear Modulus (GPa) = -198.14750 23.60523 -87.27114
#
# Velocity S-wave (km/s) = -10.50275 3.62504 -6.97018
# Velocity P-wave (km/s) = 11.27895 7.05314 6.22366
#
# Compressibility (1/GPa) = 0.02802782
#
# Stress axis : x y z
#
# Youngs Moduli (GPa) = 39.04001 116.63274 60.31545
#
# Poissons Ratio (x) = 0.84109 0.00770
# Poissons Ratio (y) = 0.28153 0.24313
# Poissons Ratio (z) = 0.00499 0.47015
#
# Static dielectric constant tensor:
#      x y z
#    x 1.592160 0.000000 0.000000 
#    y 0.000000 1.649960 0.000000 
#    z 0.000000 0.000000 1.607620 
# 
# From -- ./inp_files/10256.got.cif
#   From: 2010.05.17/outbox.cif.g08.bks.cpg/sg66_6_cif.got.tgz:10256.got - 2010.06.03 17:51:23.
