data_PCOD9495122
_publ_section_title
;
Structure prediction by ZEFSAII (Michael W. Deem and Ramdas Pophale) SiO2 
 PCOD9495122
Probable space group: C C C M
;
_chemical_formula_sum "Si O2"
_cell_formula_units_Z 128
_cell_length_a 23.908731
_cell_length_b 19.518516
_cell_length_c 17.405141
_cell_angle_alpha 90.000000
_cell_angle_beta 90.000000
_cell_angle_gamma 90.000000
_cell_volume 8122.334419
_symmetry_space_group_name_H-M "C C C M"
_symmetry_group_IT_number 66
_symmetry_cell_setting 'orthorhombic'
loop_
_space_group_symop_operation_xyz
x,y,z
-x,-y,z
x,-y,1/2-z
-x,y,1/2-z
-x,-y,-z
x,y,-z
-x,y,1/2+z
x,-y,1/2+z
1/2+x,1/2+y,z
1/2-x,1/2-y,z
1/2+x,1/2-y,1/2-z
1/2-x,1/2+y,1/2-z
1/2-x,1/2-y,-z
1/2+x,1/2+y,-z
1/2-x,1/2+y,1/2+z
1/2+x,1/2-y,1/2+z
loop_
_atom_site_type_symbol
_atom_site_label
_atom_site_fract_x
_atom_site_fract_y
_atom_site_fract_z
Si Si1 0.888632 0.792805 0.322438
Si Si2 0.630459 0.395605 0.303749
Si Si3 0.192234 0.293503 0.788312
Si Si4 0.454419 0.558533 0.587690
Si Si5 0.279234 0.325169 0.590143
Si Si6 0.499723 0.287174 0.590238
Si Si7 0.249610 0.422988 0.730177
Si Si8 0.623354 0.265607 0.590604
O O1 0.900336 0.856919 0.266052
O O2 0.853238 0.739745 0.269838
O O3 0.844366 0.815341 0.387588
O O4 0.946455 0.768705 0.358911
O O5 0.592683 0.450329 0.347496
O O6 0.689543 0.417743 0.270489
O O7 0.639001 0.337280 0.368735
O O8 0.250000 0.250000 0.783160
O O9 0.207342 0.370181 0.768799
O O10 0.165589 0.287249 0.872043
O O11 0.500000 0.500000 0.593003
O O12 0.431540 0.558711 0.500000
O O13 0.484331 0.632225 0.599081
O O14 0.271732 0.339957 0.500000
O O15 0.250000 0.250000 0.605299
O O16 0.257488 0.386949 0.645548
O O17 0.487686 0.275816 0.500000
O O18 0.558388 0.250788 0.610337
O O19 0.231241 0.500000 0.750000
O O20 0.627257 0.271441 0.500000
#
# Coordination Sequence:
#
# PCOD9495122 Si02
#       8
#    16  16  16  16  16  16  16  16
#     4  10  17  30  52  72 102 128 169 217 262 304
#     4   9  18  31  47  68  97 135 177 210 252 298
#     4  11  18  36  52  73 100 134 179 211 263 317
#     4   9  18  32  45  62 100 141 173 210 250 298
#     4  10  18  33  56  77 102 139 177 212 258 318
#     4   9  18  31  46  74  99 123 166 214 256 298
#     4  11  21  36  50  74 107 135 168 226 265 305
#     4   9  18  32  52  73 100 129 170 217 252 300
#
# _framework density 15.759017
#
# number of rings (size 3 to 8) (size 9 to 14) (size 15 to 20)
#    0.000    2.250    5.000    1.500    0.000    6.750 
#    0.000    3.750    0.000    0.000    0.000    1.750 
#    0.000    2.500    0.000    0.000    0.000    0.000 
#
# Total GULP energy -356328.529479 kJ/mol
# GULP energy per Si atom -5567.633273 kJ/mol
# Density = 1.572315 g / cm^3
# Si number density = 15.759017 Si / 1000 Ang^3
#
#
#
# Elastic Constant Matrix: (Units=GPa)
#
#
# Indices 1 2 3 4 5 6 
#
# 1 59.4337 24.9416 47.2567 0.0000 0.0000 0.0000
# 2 24.9416 70.4061 32.4118 0.0000 0.0000 0.0000
# 3 47.2567 32.4118 88.2333 0.0000 0.0000 0.0000
# 4 0.0000 0.0000 0.0000 13.2656 0.0000 0.0000
# 5 0.0000 0.0000 0.0000 0.0000 25.3865 0.0000
# 6 0.0000 0.0000 0.0000 0.0000 0.0000 17.6570
#
#
#
# Elastic Compliance Matrix: (Units=1/GPa)
#
#
# Indices 1 2 3 4 5 6 
#
# 1 0.030174 -0.003911 -0.014724 0.000000 0.000000 0.000000
# 2 -0.003911 0.017601 -0.004371 0.000000 0.000000 0.000000
# 3 -0.014724 -0.004371 0.020825 0.000000 0.000000 0.000000
# 4 0.000000 0.000000 0.000000 0.075383 0.000000 0.000000
# 5 0.000000 0.000000 0.000000 0.000000 0.039391 0.000000
# 6 0.000000 0.000000 0.000000 0.000000 0.000000 0.056635
#
#
# Mechanical properties :
#
#
# Convention : Reuss Voigt Hill
#
# Bulk Modulus (GPa) = 44.27081 47.47703 45.87392
# Shear Modulus (GPa) = 17.03280 18.82601 17.92941
#
# Velocity S-wave (km/s) = 3.29116 3.46008 3.37668
# Velocity P-wave (km/s) = 6.52654 6.79376 6.66149
#
# Compressibility (1/GPa) = 0.02258825
#
# Stress axis : x y z
#
# Youngs Moduli (GPa) = 33.14084 56.81518 48.01836
#
# Poissons Ratio (x) = 0.22220 0.70704
# Poissons Ratio (y) = 0.12961 0.20988
# Poissons Ratio (z) = 0.48798 0.24833
#
# Static dielectric constant tensor:
#      x y z
#    x 1.539540 0.000000 0.000000 
#    y 0.000000 1.556070 0.000000 
#    z 0.000000 0.000000 1.565940 
# 
# From -- ./inp_files/43809.got.cif
#   From: 2010.05.17/outbox.cif.g08.bks.cpg/sg66_22_cif.got.tgz:43809.got - 2010.06.03 17:51:23.
