data_PCOD9495226
_publ_section_title
;
Structure prediction by ZEFSAII (Michael W. Deem and Ramdas Pophale) SiO2 
 PCOD9495226
Probable space group: C C C M
;
_chemical_formula_sum "Si O2"
_cell_formula_units_Z 96
_cell_length_a 26.964059
_cell_length_b 29.596357
_cell_length_c 8.719892
_cell_angle_alpha 90.000000
_cell_angle_beta 90.000000
_cell_angle_gamma 90.000000
_cell_volume 6958.804442
_symmetry_space_group_name_H-M "C C C M"
_symmetry_group_IT_number 66
_symmetry_cell_setting 'orthorhombic'
loop_
_space_group_symop_operation_xyz
x,y,z
-x,-y,z
x,-y,1/2-z
-x,y,1/2-z
-x,-y,-z
x,y,-z
-x,y,1/2+z
x,-y,1/2+z
1/2+x,1/2+y,z
1/2-x,1/2-y,z
1/2+x,1/2-y,1/2-z
1/2-x,1/2+y,1/2-z
1/2-x,1/2-y,-z
1/2+x,1/2+y,-z
1/2-x,1/2+y,1/2+z
1/2+x,1/2-y,1/2+z
loop_
_atom_site_type_symbol
_atom_site_label
_atom_site_fract_x
_atom_site_fract_y
_atom_site_fract_z
Si Si1 0.260947 0.644585 0.181347
Si Si2 0.200203 0.280833 0.178757
Si Si3 0.208470 0.953268 0.816730
Si Si4 0.902667 0.048165 0.316217
Si Si5 0.946833 0.139603 0.183156
Si Si6 0.143739 0.804909 0.315667
O O1 0.213594 0.674027 0.230510
O O2 0.259452 0.591320 0.214910
O O3 0.308875 0.664906 0.267538
O O4 0.269339 0.650138 0.000000
O O5 0.250000 0.250000 0.188529
O O6 0.157071 0.246673 0.230569
O O7 0.192755 0.291760 0.000000
O O8 0.154281 0.946742 0.740692
O O9 0.228998 0.000000 0.750000
O O10 0.201562 0.957304 0.000000
O O11 0.904243 0.047852 0.500000
O O12 0.932653 0.090430 0.250482
O O13 0.920337 0.000000 0.250000
O O14 0.904331 0.174009 0.238138
O O15 0.000000 0.152951 0.250000
O O16 0.947967 0.137278 0.000000
O O17 0.139266 0.806273 0.500000
#
# Coordination Sequence:
#
# PCOD9495226 Si02
#       6
#    16  16  16  16  16  16
#     4  10  18  27  43  65  87 109 138 172 208 249
#     4   8  16  28  43  63  85 107 134 164 204 252
#     4  10  19  29  42  62  85 112 143 175 210 252
#     4  11  21  34  50  64  80 105 136 176 219 261
#     4  12  24  37  50  65  82 105 138 175 218 264
#     4  10  19  32  47  63  83 108 135 170 212 254
#
# _framework density 13.795472
#
# number of rings (size 3 to 8) (size 9 to 14) (size 15 to 20)
#    0.000    1.833    1.667    6.500    0.000    6.000 
#    0.000    1.667    0.000    0.000    0.000    0.000 
#    0.000    0.000    0.000    0.000    0.000    0.833 
#
# Total GULP energy -267744.466772 kJ/mol
# GULP energy per Si atom -5578.009724 kJ/mol
# Density = 1.376407 g / cm^3
# Si number density = 13.795472 Si / 1000 Ang^3
#
#
#
# Elastic Constant Matrix: (Units=GPa)
#
#
# Indices 1 2 3 4 5 6 
#
# 1 53.4945 50.5984 31.4240 0.0000 0.0000 0.0000
# 2 50.5984 96.4423 50.0652 0.0000 0.0000 0.0000
# 3 31.4240 50.0652 94.4855 0.0000 0.0000 0.0000
# 4 0.0000 0.0000 0.0000 24.2261 0.0000 0.0000
# 5 0.0000 0.0000 0.0000 0.0000 19.8127 0.0000
# 6 0.0000 0.0000 0.0000 0.0000 0.0000 15.8718
#
#
#
# Elastic Compliance Matrix: (Units=1/GPa)
#
#
# Indices 1 2 3 4 5 6 
#
# 1 0.037651 -0.018282 -0.002835 0.000000 0.000000 0.000000
# 2 -0.018282 0.023180 -0.006202 0.000000 0.000000 0.000000
# 3 -0.002835 -0.006202 0.014813 0.000000 0.000000 0.000000
# 4 0.000000 0.000000 0.000000 0.041278 0.000000 0.000000
# 5 0.000000 0.000000 0.000000 0.000000 0.050473 0.000000
# 6 0.000000 0.000000 0.000000 0.000000 0.000000 0.063005
#
#
# Mechanical properties :
#
#
# Convention : Reuss Voigt Hill
#
# Bulk Modulus (GPa) = 47.60589 56.51083 52.05836
# Shear Modulus (GPa) = 17.12098 19.47110 18.29604
#
# Velocity S-wave (km/s) = 3.52669 3.76095 3.64570
# Velocity P-wave (km/s) = 7.15308 7.74028 7.45247
#
# Compressibility (1/GPa) = 0.02100581
#
# Stress axis : x y z
#
# Youngs Moduli (GPa) = 26.55982 43.14020 67.50858
#
# Poissons Ratio (x) = 0.78868 0.19138
# Poissons Ratio (y) = 0.48556 0.41871
# Poissons Ratio (z) = 0.07529 0.26757
#
# Static dielectric constant tensor:
#      x y z
#    x 1.430840 0.000000 0.000000 
#    y 0.000000 1.479190 0.000000 
#    z 0.000000 0.000000 1.461180 
# 
# From -- ./inp_files/10652.got.cif
#   From: 2010.05.17/outbox.cif.g08.bks.cpg/sg66_6_cif.got.tgz:10652.got - 2010.06.03 17:51:23.
