data_PCOD9495461
_publ_section_title
;
Structure prediction by ZEFSAII (Michael W. Deem and Ramdas Pophale) SiO2 
 PCOD9495461
Probable space group: C C C M
;
_chemical_formula_sum "Si O2"
_cell_formula_units_Z 96
_cell_length_a 23.380631
_cell_length_b 26.096715
_cell_length_c 8.677344
_cell_angle_alpha 90.000000
_cell_angle_beta 90.000000
_cell_angle_gamma 90.000000
_cell_volume 5294.547942
_symmetry_space_group_name_H-M "C C C M"
_symmetry_group_IT_number 66
_symmetry_cell_setting 'orthorhombic'
loop_
_space_group_symop_operation_xyz
x,y,z
-x,-y,z
x,-y,1/2-z
-x,y,1/2-z
-x,-y,-z
x,y,-z
-x,y,1/2+z
x,-y,1/2+z
1/2+x,1/2+y,z
1/2-x,1/2-y,z
1/2+x,1/2-y,1/2-z
1/2-x,1/2+y,1/2-z
1/2-x,1/2-y,-z
1/2+x,1/2+y,-z
1/2-x,1/2+y,1/2+z
1/2+x,1/2-y,1/2+z
loop_
_atom_site_type_symbol
_atom_site_label
_atom_site_fract_x
_atom_site_fract_y
_atom_site_fract_z
Si Si1 0.192316 0.443969 0.683513
Si Si2 0.563515 0.244848 0.814193
Si Si3 0.376188 0.349787 0.321772
Si Si4 0.640610 0.846581 0.822604
Si Si5 0.319848 0.444060 0.183523
Si Si6 0.252781 0.189454 0.331860
O O1 0.178908 0.500000 0.750000
O O2 0.194198 0.446421 0.500000
O O3 0.146800 0.401698 0.740480
O O4 0.257040 0.431305 0.743660
O O5 0.500000 0.238295 0.750000
O O6 0.586684 0.301364 0.764602
O O7 0.602061 0.197542 0.754672
O O8 0.565015 0.244443 0.000000
O O9 0.392283 0.360600 0.500000
O O10 0.368080 0.402495 0.229201
O O11 0.311436 0.329072 0.320643
O O12 0.705509 0.826567 0.803225
O O13 0.624382 0.852502 0.000000
O O14 0.334519 0.500000 0.250000
O O15 0.313119 0.446084 0.000000
O O16 0.276534 0.171805 0.500000
O O17 0.250000 0.250000 0.335223
#
# Coordination Sequence:
#
# PCOD9495461 Si02
#       6
#    16  16  16  16  16  16
#     4  11  21  35  54  80 117 155 190 229 278 335
#     4  11  24  43  62  83 111 148 191 239 289 337
#     4  10  20  35  57  81 114 152 186 228 284 340
#     4  12  23  35  55  84 116 151 189 231 279 336
#     4  11  21  33  52  81 117 153 190 228 275 336
#     4  10  18  32  52  78 112 150 184 223 281 341
#
# _framework density 18.131858000000001
#
# number of rings (size 3 to 8) (size 9 to 14) (size 15 to 20)
#    0.000    1.167    3.333    6.000    0.000    1.667 
#    0.000    0.000    0.000    1.000    0.000    7.000 
#    0.000    0.000    0.000    0.000    0.000    0.000 
#
# Total GULP energy -267764.834349 kJ/mol
# GULP energy per Si atom -5578.434049 kJ/mol
# Density = 1.809059 g / cm^3
# Si number density = 18.131858 Si / 1000 Ang^3
#
#
#
# Elastic Constant Matrix: (Units=GPa)
#
#
# Indices 1 2 3 4 5 6 
#
# 1 47.8628 31.0855 20.1390 0.0000 0.0000 0.0000
# 2 31.0855 132.0070 48.2527 0.0000 0.0000 0.0000
# 3 20.1390 48.2527 121.4800 0.0000 0.0000 0.0000
# 4 0.0000 0.0000 0.0000 19.5767 0.0000 0.0000
# 5 0.0000 0.0000 0.0000 0.0000 -125.8942 0.0000
# 6 0.0000 0.0000 0.0000 0.0000 0.0000 9.3935
#
#
#
# Elastic Compliance Matrix: (Units=1/GPa)
#
#
# Indices 1 2 3 4 5 6 
#
# 1 0.025125 -0.005140 -0.002123 0.000000 0.000000 0.000000
# 2 -0.005140 0.009914 -0.003086 0.000000 0.000000 0.000000
# 3 -0.002123 -0.003086 0.009809 0.000000 0.000000 0.000000
# 4 0.000000 0.000000 0.000000 0.051081 0.000000 0.000000
# 5 0.000000 0.000000 0.000000 0.000000 -0.007943 0.000000
# 6 0.000000 0.000000 0.000000 0.000000 0.000000 0.106457
#
#
# Mechanical properties :
#
#
# Convention : Reuss Voigt Hill
#
# Bulk Modulus (GPa) = 41.40900 55.58937 48.49918
# Shear Modulus (GPa) = 22.40228 -5.92662 8.23783
#
# Velocity S-wave (km/s) = 3.51881 -1.80989 2.13381
# Velocity P-wave (km/s) = 6.27667 5.13394 5.73385
#
# Compressibility (1/GPa) = 0.02414934
#
# Stress axis : x y z
#
# Youngs Moduli (GPa) = 39.80096 100.87035 101.94236
#
# Poissons Ratio (x) = 0.51851 0.21647
# Poissons Ratio (y) = 0.20459 0.31456
# Poissons Ratio (z) = 0.08452 0.31125
#
# Static dielectric constant tensor:
#      x y z
#    x 1.589080 0.000000 0.000000 
#    y 0.000000 1.696140 0.000000 
#    z 0.000000 0.000000 1.660480 
# 
# From -- ./inp_files/7966.got.cif
#   From: 2010.05.17/outbox.cif.g08.bks.cpg/sg66_4_cif.got.tgz:7966.got - 2010.06.03 17:51:23.
