data_PCOD9495630
_publ_section_title
;
Structure prediction by ZEFSAII (Michael W. Deem and Ramdas Pophale) SiO2 
 PCOD9495630
Probable space group: C C C M
;
_chemical_formula_sum "Si O2"
_cell_formula_units_Z 64
_cell_length_a 29.420605
_cell_length_b 6.016818
_cell_length_c 15.950282
_cell_angle_alpha 90.000000
_cell_angle_beta 90.000000
_cell_angle_gamma 90.000000
_cell_volume 2823.493810
_symmetry_space_group_name_H-M "C C C M"
_symmetry_group_IT_number 66
_symmetry_cell_setting 'orthorhombic'
loop_
_space_group_symop_operation_xyz
x,y,z
-x,-y,z
x,-y,1/2-z
-x,y,1/2-z
-x,-y,-z
x,y,-z
-x,y,1/2+z
x,-y,1/2+z
1/2+x,1/2+y,z
1/2-x,1/2-y,z
1/2+x,1/2-y,1/2-z
1/2-x,1/2+y,1/2-z
1/2-x,1/2-y,-z
1/2+x,1/2+y,-z
1/2-x,1/2+y,1/2+z
1/2+x,1/2-y,1/2+z
loop_
_atom_site_type_symbol
_atom_site_label
_atom_site_fract_x
_atom_site_fract_y
_atom_site_fract_z
Si Si1 0.208145 0.412643 0.000000
Si Si2 0.537408 0.692684 0.000000
Si Si3 0.362007 0.467449 0.000000
Si Si4 0.074466 0.624241 0.335202
Si Si5 0.131115 0.000000 0.750000
Si Si6 0.836746 0.325482 0.865851
O O1 0.250000 0.250000 0.000000
O O2 0.203812 0.553069 0.085800
O O3 0.162895 0.265348 0.000000
O O4 0.500000 0.500000 0.000000
O O5 0.585013 0.563403 0.000000
O O6 0.540871 0.835897 0.913726
O O7 0.346176 0.610541 0.922010
O O8 0.057338 0.500000 0.250000
O O9 0.095717 0.863344 0.309010
O O10 0.117487 0.473874 0.364544
O O11 0.164154 0.794754 0.776463
#
# Coordination Sequence:
#
# PCOD9495630 Si02
#       6
#     8   8   8  16   8  16
#     4  11  22  36  62 104 137 183 232 300 366 442
#     4  12  22  41  71 103 140 189 237 299 368 440
#     4  11  20  40  63  97 135 172 240 288 352 443
#     4  10  21  40  69 102 136 189 237 296 371 432
#     4  10  18  34  67  94 126 188 228 296 362 427
#     4  10  19  35  65  94 133 179 236 284 358 436
#
# _framework density 22.666951000000001
#
# number of rings (size 3 to 8) (size 9 to 14) (size 15 to 20)
#    0.000    1.500    5.000    0.750    0.000    2.000 
#    0.000    3.125    5.500    0.000  146.250    0.875 
#    0.000    0.000    0.000    0.000    0.000    0.000 
#
# Total GULP energy -178270.883682 kJ/mol
# GULP energy per Si atom -5570.965115 kJ/mol
# Density = 2.261536 g / cm^3
# Si number density = 22.666951 Si / 1000 Ang^3
#
#
#
# Elastic Constant Matrix: (Units=GPa)
#
#
# Indices 1 2 3 4 5 6 
#
# 1 80.2820 32.8258 35.5783 0.0000 0.0000 0.0000
# 2 32.8258 105.8596 49.3236 0.0000 0.0000 0.0000
# 3 35.5783 49.3236 135.2315 0.0000 0.0000 0.0000
# 4 0.0000 0.0000 0.0000 55.0222 0.0000 0.0000
# 5 0.0000 0.0000 0.0000 0.0000 3.2363 0.0000
# 6 0.0000 0.0000 0.0000 0.0000 0.0000 43.3437
#
#
#
# Elastic Compliance Matrix: (Units=1/GPa)
#
#
# Indices 1 2 3 4 5 6 
#
# 1 0.015052 -0.003400 -0.002720 0.000000 0.000000 0.000000
# 2 -0.003400 0.012149 -0.003536 0.000000 0.000000 0.000000
# 3 -0.002720 -0.003536 0.009400 0.000000 0.000000 0.000000
# 4 0.000000 0.000000 0.000000 0.018174 0.000000 0.000000
# 5 0.000000 0.000000 0.000000 0.000000 0.308994 0.000000
# 6 0.000000 0.000000 0.000000 0.000000 0.000000 0.023071
#
#
# Mechanical properties :
#
#
# Convention : Reuss Voigt Hill
#
# Bulk Modulus (GPa) = 57.84486 61.86982 59.85734
# Shear Modulus (GPa) = 12.13840 33.89679 23.01759
#
# Velocity S-wave (km/s) = 2.31662 3.87127 3.19010
# Velocity P-wave (km/s) = 5.72106 6.88017 6.32721
#
# Compressibility (1/GPa) = 0.01728762
#
# Stress axis : x y z
#
# Youngs Moduli (GPa) = 66.43782 82.31425 106.38113
#
# Poissons Ratio (x) = 0.27988 0.28934
# Poissons Ratio (y) = 0.22589 0.37621
# Poissons Ratio (z) = 0.18070 0.29110
#
# Static dielectric constant tensor:
#      x y z
#    x 1.802720 0.000000 0.000000 
#    y 0.000000 1.849880 0.000000 
#    z 0.000000 0.000000 3.226950 
# 
# From -- ./inp_files/44533.got.cif
#   From: 2010.05.17/outbox.cif.g08.bks.cpg/sg66_23_cif.got.tgz:44533.got - 2010.06.03 17:51:23.
