data_PCOD9495140
_publ_section_title
;
Structure prediction by ZEFSAII (Michael W. Deem and Ramdas Pophale) SiO2 
 PCOD9495140
Probable space group: C C C M
;
_chemical_formula_sum "Si O2"
_cell_formula_units_Z 72
_cell_length_a 23.405066
_cell_length_b 7.287081
_cell_length_c 22.746928
_cell_angle_alpha 90.000000
_cell_angle_beta 90.000000
_cell_angle_gamma 90.000000
_cell_volume 3879.593474
_symmetry_space_group_name_H-M "C C C M"
_symmetry_group_IT_number 66
_symmetry_cell_setting 'orthorhombic'
loop_
_space_group_symop_operation_xyz
x,y,z
-x,-y,z
x,-y,1/2-z
-x,y,1/2-z
-x,-y,-z
x,y,-z
-x,y,1/2+z
x,-y,1/2+z
1/2+x,1/2+y,z
1/2-x,1/2-y,z
1/2+x,1/2-y,1/2-z
1/2-x,1/2+y,1/2-z
1/2-x,1/2-y,-z
1/2+x,1/2+y,-z
1/2-x,1/2+y,1/2+z
1/2+x,1/2-y,1/2+z
loop_
_atom_site_type_symbol
_atom_site_label
_atom_site_fract_x
_atom_site_fract_y
_atom_site_fract_z
Si Si1 0.000000 0.266738 0.250000
Si Si2 0.183751 0.213593 0.233992
Si Si3 0.913339 0.119463 0.346239
Si Si4 0.398343 0.812478 0.166863
Si Si5 0.935079 0.426418 0.567385
O O1 0.958965 0.156175 0.294434
O O2 0.954289 0.361281 0.206098
O O3 0.250000 0.250000 0.224738
O O4 0.143509 0.223357 0.177095
O O5 0.155622 0.322536 0.288847
O O6 0.177824 0.000000 0.250000
O O7 0.933362 0.223969 0.404267
O O8 0.904661 0.901869 0.351285
O O9 0.399278 0.939892 0.110112
O O10 0.915667 0.427373 0.500000
O O11 0.000000 0.500000 0.569226
#
# Coordination Sequence:
#
# PCOD9495140 Si02
#       5
#     8  16  16  16  16
#     4  10  17  31  54  79 109 138 173 205 286 347
#     4   9  20  34  55  89 111 135 175 221 286 341
#     4  10  20  35  54  79 113 144 173 225 275 336
#     4  10  20  35  54  79 113 144 173 225 275 336
#     4  11  24  36  52  82 110 148 198 222 257 320
#
# _framework density 18.558646
#
# number of rings (size 3 to 8) (size 9 to 14) (size 15 to 20)
#    0.000    2.000    2.222    3.333    3.111    4.444 
#    0.000    2.222    0.000    1.333    0.000    0.000 
#    0.000    0.000    0.000    0.000    0.000    0.000 
#
# Total GULP energy -200976.346847 kJ/mol
# GULP energy per Si atom -5582.676301 kJ/mol
# Density = 1.851641 g / cm^3
# Si number density = 18.558646 Si / 1000 Ang^3
#
#
#
# Elastic Constant Matrix: (Units=GPa)
#
#
# Indices 1 2 3 4 5 6 
#
# 1 110.8571 14.0069 33.3354 0.0000 0.0000 0.0000
# 2 14.0069 93.6306 61.3811 0.0000 0.0000 0.0000
# 3 33.3354 61.3811 131.9508 0.0000 0.0000 0.0000
# 4 0.0000 0.0000 0.0000 15.5858 0.0000 0.0000
# 5 0.0000 0.0000 0.0000 0.0000 13.1510 0.0000
# 6 0.0000 0.0000 0.0000 0.0000 0.0000 26.5163
#
#
#
# Elastic Compliance Matrix: (Units=1/GPa)
#
#
# Indices 1 2 3 4 5 6 
#
# 1 0.009766 0.000225 -0.002572 0.000000 0.000000 0.000000
# 2 0.000225 0.015372 -0.007207 0.000000 0.000000 0.000000
# 3 -0.002572 -0.007207 0.011581 0.000000 0.000000 0.000000
# 4 0.000000 0.000000 0.000000 0.064161 0.000000 0.000000
# 5 0.000000 0.000000 0.000000 0.000000 0.076040 0.000000
# 6 0.000000 0.000000 0.000000 0.000000 0.000000 0.037713
#
#
# Mechanical properties :
#
#
# Convention : Reuss Voigt Hill
#
# Bulk Modulus (GPa) = 56.78638 61.54281 59.16459
# Shear Modulus (GPa) = 20.86725 26.23163 23.54944
#
# Velocity S-wave (km/s) = 3.35684 3.76366 3.56605
# Velocity P-wave (km/s) = 6.75938 7.21943 6.99319
#
# Compressibility (1/GPa) = 0.01760986
#
# Stress axis : x y z
#
# Youngs Moduli (GPa) = 102.40087 65.05526 86.34774
#
# Poissons Ratio (x) = -0.01464 0.22207
# Poissons Ratio (y) = -0.02305 0.62235
# Poissons Ratio (z) = 0.26336 0.46888
#
# Static dielectric constant tensor:
#      x y z
#    x 1.696300 0.000000 0.000000 
#    y 0.000000 1.764350 0.000000 
#    z 0.000000 0.000000 1.617820 
# 
# From -- ./inp_files/43423.got.cif
#   From: 2010.05.17/outbox.cif.g08.bks.cpg/sg66_22_cif.got.tgz:43423.got - 2010.06.03 17:51:23.
