data_PCOD9495508
_publ_section_title
;
Structure prediction by ZEFSAII (Michael W. Deem and Ramdas Pophale) SiO2 
 PCOD9495508
Probable space group: C C C M
;
_chemical_formula_sum "Si O2"
_cell_formula_units_Z 112
_cell_length_a 28.100942
_cell_length_b 11.883080
_cell_length_c 15.494867
_cell_angle_alpha 90.000000
_cell_angle_beta 90.000000
_cell_angle_gamma 90.000000
_cell_volume 5174.134958
_symmetry_space_group_name_H-M "C C C M"
_symmetry_group_IT_number 66
_symmetry_cell_setting 'orthorhombic'
loop_
_space_group_symop_operation_xyz
x,y,z
-x,-y,z
x,-y,1/2-z
-x,y,1/2-z
-x,-y,-z
x,y,-z
-x,y,1/2+z
x,-y,1/2+z
1/2+x,1/2+y,z
1/2-x,1/2-y,z
1/2+x,1/2-y,1/2-z
1/2-x,1/2+y,1/2-z
1/2-x,1/2-y,-z
1/2+x,1/2+y,-z
1/2-x,1/2+y,1/2+z
1/2+x,1/2-y,1/2+z
loop_
_atom_site_type_symbol
_atom_site_label
_atom_site_fract_x
_atom_site_fract_y
_atom_site_fract_z
Si Si1 0.573190 0.964383 0.650761
Si Si2 0.232379 0.132740 0.398649
Si Si3 0.044207 0.923949 0.394488
Si Si4 0.676001 0.994544 0.852537
Si Si5 0.352212 0.483317 0.894055
Si Si6 0.513288 0.178648 0.600172
Si Si7 0.696061 0.747144 0.896444
O O1 0.627096 0.943894 0.620012
O O2 0.535768 0.862896 0.643304
O O3 0.576851 0.000000 0.750000
O O4 0.549262 0.073107 0.606020
O O5 0.222910 0.153155 0.500000
O O6 0.250000 0.250000 0.358929
O O7 0.276103 0.045470 0.392440
O O8 0.184009 0.079123 0.362497
O O9 0.045929 0.921311 0.500000
O O10 0.093285 0.981451 0.366158
O O11 0.036122 0.794511 0.366340
O O12 0.000000 0.000000 0.368265
O O13 0.681881 0.000000 0.750000
O O14 0.670912 0.863837 0.875585
O O15 0.330671 0.363542 0.866421
O O16 0.351442 0.486833 0.000000
O O17 0.501497 0.196859 0.500000
O O18 0.750000 0.750000 0.862980
O O19 0.698458 0.738763 0.000000
#
# Coordination Sequence:
#
# PCOD9495508 Si02
#       7
#    16  16  16  16  16  16  16
#     4  10  21  36  54  78 112 151 181 222 285 342
#     4  10  21  37  56  79 111 149 186 229 286 347
#     4   9  18  31  50  80 114 141 173 222 278 331
#     4  11  23  36  53  81 114 147 185 228 279 340
#     4   9  17  32  54  81 109 139 178 227 278 326
#     4  10  19  33  56  84 108 139 185 238 280 322
#     4  10  18  32  58  83 104 137 184 235 278 321
#
# _framework density 21.646131
#
# number of rings (size 3 to 8) (size 9 to 14) (size 15 to 20)
#    0.000    2.143    1.429    3.000    0.000    5.143 
#    0.000    2.857    0.000    1.714    0.000    0.000 
#    0.000    0.000    0.000    0.000    0.000    0.000 
#
# Total GULP energy -312701.160903 kJ/mol
# GULP energy per Si atom -5583.949302 kJ/mol
# Density = 2.159686 g / cm^3
# Si number density = 21.646131 Si / 1000 Ang^3
#
#
#
# Elastic Constant Matrix: (Units=GPa)
#
#
# Indices 1 2 3 4 5 6 
#
# 1 180.6953 62.9277 3.5546 0.0000 0.0000 0.0000
# 2 62.9277 115.5633 -1.6316 0.0000 0.0000 0.0000
# 3 3.5546 -1.6316 23.7897 0.0000 0.0000 0.0000
# 4 0.0000 0.0000 0.0000 -40.9515 0.0000 0.0000
# 5 0.0000 0.0000 0.0000 0.0000 21.9877 0.0000
# 6 0.0000 0.0000 0.0000 0.0000 0.0000 30.4985
#
#
#
# Elastic Compliance Matrix: (Units=1/GPa)
#
#
# Indices 1 2 3 4 5 6 
#
# 1 0.006868 -0.003758 -0.001284 0.000000 0.000000 0.000000
# 2 -0.003758 0.010718 0.001297 0.000000 0.000000 0.000000
# 3 -0.001284 0.001297 0.042316 0.000000 0.000000 0.000000
# 4 0.000000 0.000000 0.000000 -0.024419 0.000000 0.000000
# 5 0.000000 0.000000 0.000000 0.000000 0.045480 0.000000
# 6 0.000000 0.000000 0.000000 0.000000 0.000000 0.032788
#
#
# Mechanical properties :
#
#
# Convention : Reuss Voigt Hill
#
# Bulk Modulus (GPa) = 19.07997 49.97220 34.52608
# Shear Modulus (GPa) = 36.04579 19.32011 27.68295
#
# Velocity S-wave (km/s) = 4.08515 2.99079 3.58003
# Velocity P-wave (km/s) = 5.57538 5.92136 5.75097
#
# Compressibility (1/GPa) = 0.05241098
#
# Stress axis : x y z
#
# Youngs Moduli (GPa) = 145.59867 93.30142 23.63187
#
# Poissons Ratio (x) = 0.35063 0.03034
# Poissons Ratio (y) = 0.54717 -0.03064
# Poissons Ratio (z) = 0.18694 -0.12097
#
# Static dielectric constant tensor:
#      x y z
#    x 1.809960 0.000000 0.000000 
#    y 0.000000 1.793820 0.000000 
#    z 0.000000 0.000000 1.794350 
# 
# From -- ./inp_files/33839.got.cif
#   From: 2010.05.17/outbox.cif.g08.bks.cpg/sg66_17_cif.got.tgz:33839.got - 2010.06.03 17:51:23.
