data_PCOD9495788
_publ_section_title
;
Structure prediction by ZEFSAII (Michael W. Deem and Ramdas Pophale) SiO2 
 PCOD9495788
Probable space group: C C C M
;
_chemical_formula_sum "Si O2"
_cell_formula_units_Z 84
_cell_length_a 15.656630
_cell_length_b 31.517961
_cell_length_c 8.971786
_cell_angle_alpha 90.000000
_cell_angle_beta 90.000000
_cell_angle_gamma 90.000000
_cell_volume 4427.262861
_symmetry_space_group_name_H-M "C C C M"
_symmetry_group_IT_number 66
_symmetry_cell_setting 'orthorhombic'
loop_
_space_group_symop_operation_xyz
x,y,z
-x,-y,z
x,-y,1/2-z
-x,y,1/2-z
-x,-y,-z
x,y,-z
-x,y,1/2+z
x,-y,1/2+z
1/2+x,1/2+y,z
1/2-x,1/2-y,z
1/2+x,1/2-y,1/2-z
1/2-x,1/2+y,1/2-z
1/2-x,1/2-y,-z
1/2+x,1/2+y,-z
1/2-x,1/2+y,1/2+z
1/2+x,1/2-y,1/2+z
loop_
_atom_site_type_symbol
_atom_site_label
_atom_site_fract_x
_atom_site_fract_y
_atom_site_fract_z
Si Si1 0.907277 0.364340 0.819614
Si Si2 0.328110 0.956278 0.179917
Si Si3 0.500000 0.500000 0.750000
Si Si4 0.261054 0.202069 0.680067
Si Si5 0.915215 0.844993 0.321872
Si Si6 0.639609 0.434795 0.830819
O O1 0.874971 0.412109 0.781321
O O2 0.838522 0.328527 0.769623
O O3 0.000000 0.356938 0.750000
O O4 0.911871 0.362676 0.000000
O O5 0.229251 0.950713 0.233663
O O6 0.362268 0.000000 0.250000
O O7 0.330016 0.960792 0.000000
O O8 0.565859 0.469625 0.834477
O O9 0.271140 0.204670 0.500000
O O10 0.250000 0.250000 0.737552
O O11 0.171334 0.179562 0.709698
O O12 0.928284 0.846148 0.500000
O O13 0.898816 0.892493 0.260016
O O14 0.000000 0.826457 0.250000
O O15 0.662670 0.422359 0.000000
#
# Coordination Sequence:
#
# PCOD9495788 Si02
#       6
#    16  16   4  16  16  16
#     4  10  21  38  60  83 112 146 187 235 282 331
#     4  10  20  36  55  77 107 146 185 225 271 325
#     4  12  18  28  48  74 106 136 182 220 262 316
#     4   9  18  35  60  84 108 144 185 223 272 336
#     4  10  19  34  54  78 108 140 177 217 264 321
#     4  10  19  30  46  71 104 140 175 215 261 313
#
# _framework density 18.973347
#
# number of rings (size 3 to 8) (size 9 to 14) (size 15 to 20)
#    0.000    2.095    3.810    0.286    0.000    1.905 
#    0.000    3.810    0.000    1.143    0.000    0.000 
#    0.000    0.000    0.000    0.000    0.000    0.000 
#
# Total GULP energy -233955.950247 kJ/mol
# GULP energy per Si atom -5570.379768 kJ/mol
# Density = 1.893016 g / cm^3
# Si number density = 18.973347 Si / 1000 Ang^3
#
#
#
# Elastic Constant Matrix: (Units=GPa)
#
#
# Indices 1 2 3 4 5 6 
#
# 1 144.3264 76.6628 30.7697 0.0000 0.0000 0.0000
# 2 76.6628 149.9239 27.3814 0.0000 0.0000 0.0000
# 3 30.7697 27.3814 12.6250 0.0000 0.0000 0.0000
# 4 0.0000 0.0000 0.0000 17.2679 0.0000 0.0000
# 5 0.0000 0.0000 0.0000 0.0000 20.6050 0.0000
# 6 0.0000 0.0000 0.0000 0.0000 0.0000 -6.8296
#
#
#
# Elastic Compliance Matrix: (Units=1/GPa)
#
#
# Indices 1 2 3 4 5 6 
#
# 1 0.014653 -0.001607 -0.032227 0.000000 0.000000 0.000000
# 2 -0.001607 0.011221 -0.020421 0.000000 0.000000 0.000000
# 3 -0.032227 -0.020421 0.202042 0.000000 0.000000 0.000000
# 4 0.000000 0.000000 0.000000 0.057911 0.000000 0.000000
# 5 0.000000 0.000000 0.000000 0.000000 0.048532 0.000000
# 6 0.000000 0.000000 0.000000 0.000000 0.000000 -0.146422
#
#
# Mechanical properties :
#
#
# Convention : Reuss Voigt Hill
#
# Bulk Modulus (GPa) = 8.37475 64.05590 36.21533
# Shear Modulus (GPa) = 14.86988 17.67942 16.27465
#
# Velocity S-wave (km/s) = 2.80255 3.05586 2.93194
# Velocity P-wave (km/s) = 3.85952 6.80333 5.53088
#
# Compressibility (1/GPa) = 0.11940656
#
# Stress axis : x y z
#
# Youngs Moduli (GPa) = 68.24531 89.11650 4.94945
#
# Poissons Ratio (x) = 0.14320 0.15951
# Poissons Ratio (y) = 0.10966 0.10107
# Poissons Ratio (z) = 2.19937 1.81982
#
# Static dielectric constant tensor:
#      x y z
#    x 1.660430 0.000000 0.000000 
#    y 0.000000 1.695930 0.000000 
#    z 0.000000 0.000000 1.671660 
# 
# From -- ./inp_files/15069.got.cif
#   From: 2010.05.17/outbox.cif.g08.bks.cpg/sg66_8_cif.got.tgz:15069.got - 2010.06.03 17:51:23.
