data_PCOD9495482
_publ_section_title
;
Structure prediction by ZEFSAII (Michael W. Deem and Ramdas Pophale) SiO2 
 PCOD9495482
Probable space group: C C C M
;
_chemical_formula_sum "Si O2"
_cell_formula_units_Z 104
_cell_length_a 16.391725
_cell_length_b 15.994160
_cell_length_c 21.914307
_cell_angle_alpha 90.000000
_cell_angle_beta 90.000000
_cell_angle_gamma 90.000000
_cell_volume 5745.314897
_symmetry_space_group_name_H-M "C C C M"
_symmetry_group_IT_number 66
_symmetry_cell_setting 'orthorhombic'
loop_
_space_group_symop_operation_xyz
x,y,z
-x,-y,z
x,-y,1/2-z
-x,y,1/2-z
-x,-y,-z
x,y,-z
-x,y,1/2+z
x,-y,1/2+z
1/2+x,1/2+y,z
1/2-x,1/2-y,z
1/2+x,1/2-y,1/2-z
1/2-x,1/2+y,1/2-z
1/2-x,1/2-y,-z
1/2+x,1/2+y,-z
1/2-x,1/2+y,1/2+z
1/2+x,1/2-y,1/2+z
loop_
_atom_site_type_symbol
_atom_site_label
_atom_site_fract_x
_atom_site_fract_y
_atom_site_fract_z
Si Si1 0.284881 0.053303 0.312517
Si Si2 0.034483 0.182103 0.832868
Si Si3 0.657055 0.757870 0.928511
Si Si4 0.957652 0.638284 0.687075
Si Si5 0.606141 0.408396 0.780867
Si Si6 0.828635 0.544996 0.933586
Si Si7 0.000000 0.500000 0.594696
O O1 0.361841 0.116143 0.314136
O O2 0.196695 0.096621 0.307828
O O3 0.294414 0.000000 0.250000
O O4 0.287584 0.993811 0.372862
O O5 0.094270 0.203235 0.888910
O O6 0.089918 0.157139 0.774344
O O7 0.982360 0.266480 0.823845
O O8 0.964858 0.110172 0.830322
O O9 0.750000 0.750000 0.906117
O O10 0.647179 0.857960 0.925575
O O11 0.652833 0.733295 0.000000
O O12 0.000000 0.612931 0.750000
O O13 0.999591 0.580884 0.637007
O O14 0.598346 0.500000 0.750000
O O15 0.914594 0.497724 0.938408
O O16 0.785256 0.537689 0.000000
#
# Coordination Sequence:
#
# PCOD9495482 Si02
#       7
#    16  16  16  16  16  16   8
#     4  10  23  36  57  86 119 154 195 245 292 348
#     4  11  21  38  60  81 116 153 191 243 297 353
#     4  10  23  39  60  90 120 154 198 247 301 359
#     4  11  19  32  53  87 120 149 185 241 297 349
#     4  10  23  41  58  83 113 156 203 244 298 355
#     4  10  20  37  58  87 121 157 193 235 293 356
#     4  10  18  32  54  86 119 154 187 226 289 358
#
# _framework density 18.101707000000001
#
# number of rings (size 3 to 8) (size 9 to 14) (size 15 to 20)
#    0.000    1.692    3.077    3.231    4.308    0.615 
#    0.000    0.769    0.000    1.846    0.000    3.231 
#    0.000    0.000    0.000    0.000    0.000    0.000 
#
# Total GULP energy -289480.945619 kJ/mol
# GULP energy per Si atom -5566.941262 kJ/mol
# Density = 1.806051 g / cm^3
# Si number density = 18.101707 Si / 1000 Ang^3
#
#
#
# Elastic Constant Matrix: (Units=GPa)
#
#
# Indices 1 2 3 4 5 6 
#
# 1 132.7205 24.0630 57.1407 0.0000 0.0000 0.0000
# 2 24.0630 70.6370 32.3499 0.0000 0.0000 0.0000
# 3 57.1407 32.3499 104.3682 0.0000 0.0000 0.0000
# 4 0.0000 0.0000 0.0000 127.8877 0.0000 0.0000
# 5 0.0000 0.0000 0.0000 0.0000 14.4512 0.0000
# 6 0.0000 0.0000 0.0000 0.0000 0.0000 29.5947
#
#
#
# Elastic Compliance Matrix: (Units=1/GPa)
#
#
# Indices 1 2 3 4 5 6 
#
# 1 0.009924 -0.001040 -0.005111 0.000000 0.000000 0.000000
# 2 -0.001040 0.016608 -0.004578 0.000000 0.000000 0.000000
# 3 -0.005111 -0.004578 0.013799 0.000000 0.000000 0.000000
# 4 0.000000 0.000000 0.000000 0.007819 0.000000 0.000000
# 5 0.000000 0.000000 0.000000 0.000000 0.069199 0.000000
# 6 0.000000 0.000000 0.000000 0.000000 0.000000 0.033790
#
#
# Mechanical properties :
#
#
# Convention : Reuss Voigt Hill
#
# Bulk Modulus (GPa) = 52.98864 59.42589 56.20727
# Shear Modulus (GPa) = 27.95065 47.33152 37.64108
#
# Velocity S-wave (km/s) = 3.93375 5.11901 4.56501
# Velocity P-wave (km/s) = 7.06886 8.23646 7.67490
#
# Compressibility (1/GPa) = 0.01887197
#
# Stress axis : x y z
#
# Youngs Moduli (GPa) = 100.77079 60.21210 72.47084
#
# Poissons Ratio (x) = 0.06262 0.37038
# Poissons Ratio (y) = 0.10480 0.33180
# Poissons Ratio (z) = 0.51501 0.27568
#
# Static dielectric constant tensor:
#      x y z
#    x 1.647310 0.000000 0.000000 
#    y 0.000000 1.781070 0.000000 
#    z 0.000000 0.000000 1.706710 
# 
# From -- ./inp_files/51097.got.cif
#   From: 2010.05.17/outbox.cif.g08.bks.cpg/sg66_26_cif.got.tgz:51097.got - 2010.06.03 17:51:23.
