data_PCOD9495028
_publ_section_title
;
Structure prediction by ZEFSAII (Michael W. Deem and Ramdas Pophale) SiO2 
 PCOD9495028
Probable space group: C C C M
;
_chemical_formula_sum "Si O2"
_cell_formula_units_Z 64
_cell_length_a 13.851146
_cell_length_b 35.498503
_cell_length_c 8.561754
_cell_angle_alpha 90.000000
_cell_angle_beta 90.000000
_cell_angle_gamma 90.000000
_cell_volume 4209.771186
_symmetry_space_group_name_H-M "C C C M"
_symmetry_group_IT_number 66
_symmetry_cell_setting 'orthorhombic'
loop_
_space_group_symop_operation_xyz
x,y,z
-x,-y,z
x,-y,1/2-z
-x,y,1/2-z
-x,-y,-z
x,y,-z
-x,y,1/2+z
x,-y,1/2+z
1/2+x,1/2+y,z
1/2-x,1/2-y,z
1/2+x,1/2-y,1/2-z
1/2-x,1/2+y,1/2-z
1/2-x,1/2-y,-z
1/2+x,1/2+y,-z
1/2-x,1/2+y,1/2+z
1/2+x,1/2-y,1/2+z
loop_
_atom_site_type_symbol
_atom_site_label
_atom_site_fract_x
_atom_site_fract_y
_atom_site_fract_z
Si Si1 0.394110 0.732192 0.687102
Si Si2 0.390166 0.881760 0.313075
Si Si3 0.794251 0.693332 0.687166
Si Si4 0.389748 0.961000 0.186705
O O1 0.500000 0.723052 0.750000
O O2 0.391846 0.731789 0.500000
O O3 0.312289 0.704418 0.753797
O O4 0.363519 0.773708 0.746986
O O5 0.500000 0.877824 0.250000
O O6 0.392986 0.882313 0.500000
O O7 0.329628 0.846562 0.251111
O O8 0.349322 0.921605 0.250295
O O9 0.797429 0.694065 0.500000
O O10 0.500000 0.960846 0.250000
O O11 0.345375 0.000000 0.250000
O O12 0.391009 0.961216 0.000000
#
# Coordination Sequence:
#
# PCOD9495028 Si02
#       4
#    16  16  16  16
#     4  11  21  35  51  69  91 120 152 188 229 272
#     4  11  20  31  45  65  91 122 155 191 228 269
#     4  11  21  34  49  69  92 119 153 191 228 270
#     4  10  17  27  41  60  85 117 151 185 222 267
#
# _framework density 15.202726
#
# number of rings (size 3 to 8) (size 9 to 14) (size 15 to 20)
#    0.000    1.250    0.000   13.500    0.000    0.000 
#    0.000    0.000    0.000    0.000    0.000    0.000 
#    0.000    1.000    0.000   10.000    0.000    6.000 
#
# Total GULP energy -178690.385379 kJ/mol
# GULP energy per Si atom -5584.074543 kJ/mol
# Density = 1.516812 g / cm^3
# Si number density = 15.202726 Si / 1000 Ang^3
#
#
#
# Elastic Constant Matrix: (Units=GPa)
#
#
# Indices 1 2 3 4 5 6 
#
# 1 61.6267 46.3493 31.7917 0.0000 0.0000 0.0000
# 2 46.3493 160.3698 65.8252 0.0000 0.0000 0.0000
# 3 31.7917 65.8252 191.8742 0.0000 0.0000 0.0000
# 4 0.0000 0.0000 0.0000 30.1801 0.0000 0.0000
# 5 0.0000 0.0000 0.0000 0.0000 21.8787 0.0000
# 6 0.0000 0.0000 0.0000 0.0000 0.0000 19.0327
#
#
#
# Elastic Compliance Matrix: (Units=1/GPa)
#
#
# Indices 1 2 3 4 5 6 
#
# 1 0.021167 -0.005445 -0.001639 0.000000 0.000000 0.000000
# 2 -0.005445 0.008658 -0.002068 0.000000 0.000000 0.000000
# 3 -0.001639 -0.002068 0.006193 0.000000 0.000000 0.000000
# 4 0.000000 0.000000 0.000000 0.033134 0.000000 0.000000
# 5 0.000000 0.000000 0.000000 0.000000 0.045706 0.000000
# 6 0.000000 0.000000 0.000000 0.000000 0.000000 0.052541
#
#
# Mechanical properties :
#
#
# Convention : Reuss Voigt Hill
#
# Bulk Modulus (GPa) = 56.45290 77.97809 67.21550
# Shear Modulus (GPa) = 26.09471 32.21194 29.15333
#
# Velocity S-wave (km/s) = 4.14750 4.60807 4.38384
# Velocity P-wave (km/s) = 7.75562 8.92838 8.36258
#
# Compressibility (1/GPa) = 0.01771388
#
# Stress axis : x y z
#
# Youngs Moduli (GPa) = 47.24226 115.49856 161.47606
#
# Poissons Ratio (x) = 0.62887 0.26471
# Poissons Ratio (y) = 0.25723 0.33395
# Poissons Ratio (z) = 0.07744 0.23887
#
# Static dielectric constant tensor:
#      x y z
#    x 1.486010 0.000000 0.000000 
#    y 0.000000 1.537770 0.000000 
#    z 0.000000 0.000000 1.501990 
# 
# From -- ./inp_files/5469.got.cif
#   From: 2010.05.17/outbox.cif.g08.bks.cpg/sg66_3_cif.got.tgz:5469.got - 2010.06.03 17:51:23.
