data_PCOD9495239
_publ_section_title
;
Structure prediction by ZEFSAII (Michael W. Deem and Ramdas Pophale) SiO2 
 PCOD9495239
Probable space group: C C C M
;
_chemical_formula_sum "Si O2"
_cell_formula_units_Z 68
_cell_length_a 14.320397
_cell_length_b 22.422978
_cell_length_c 9.801680
_cell_angle_alpha 90.000000
_cell_angle_beta 90.000000
_cell_angle_gamma 90.000000
_cell_volume 3147.377737
_symmetry_space_group_name_H-M "C C C M"
_symmetry_group_IT_number 66
_symmetry_cell_setting 'orthorhombic'
loop_
_space_group_symop_operation_xyz
x,y,z
-x,-y,z
x,-y,1/2-z
-x,y,1/2-z
-x,-y,-z
x,y,-z
-x,y,1/2+z
x,-y,1/2+z
1/2+x,1/2+y,z
1/2-x,1/2-y,z
1/2+x,1/2-y,1/2-z
1/2-x,1/2+y,1/2-z
1/2-x,1/2-y,-z
1/2+x,1/2+y,-z
1/2-x,1/2+y,1/2+z
1/2+x,1/2-y,1/2+z
loop_
_atom_site_type_symbol
_atom_site_label
_atom_site_fract_x
_atom_site_fract_y
_atom_site_fract_z
Si Si1 0.361860 0.326326 0.841353
Si Si2 0.356125 0.440930 0.663009
Si Si3 0.500000 0.000000 0.750000
Si Si4 0.864126 0.693701 0.844734
Si Si5 0.639385 0.091300 0.852676
O O1 0.388352 0.380327 0.740893
O O2 0.248948 0.316468 0.843235
O O3 0.392512 0.259886 0.798272
O O4 0.388874 0.338316 0.000000
O O5 0.383371 0.500000 0.750000
O O6 0.380150 0.444011 0.500000
O O7 0.243150 0.434429 0.672248
O O8 0.432644 0.961720 0.844022
O O9 0.894892 0.639771 0.753377
O O10 0.895211 0.687698 0.000000
O O11 0.643437 0.120843 0.000000
#
# Coordination Sequence:
#
# PCOD9495239 Si02
#       5
#    16  16   4  16  16
#     4   8  14  26  43  62  81 105 134 168 215 268
#     4  10  18  28  41  61  85 113 143 179 219 261
#     4  12  22  36  44  58  86 120 158 194 230 254
#     4   8  15  28  45  61  79 103 134 175 221 265
#     4  10  21  32  44  59  78 109 151 191 225 258
#
# _framework density 21.605288000000002
#
# number of rings (size 3 to 8) (size 9 to 14) (size 15 to 20)
#    0.000    2.824    1.176    2.471    0.000    3.765 
#    0.000    4.706    0.000    0.000    0.000    0.000 
#    0.000    0.000    0.000    1.059    0.000   16.000 
#
# Total GULP energy -189569.142906 kJ/mol
# GULP energy per Si atom -5575.563027 kJ/mol
# Density = 2.155611 g / cm^3
# Si number density = 21.605288 Si / 1000 Ang^3
#
#
#
# Elastic Constant Matrix: (Units=GPa)
#
#
# Indices 1 2 3 4 5 6 
#
# 1 51.9681 -0.4601 7.8918 0.0000 0.0000 0.0000
# 2 -0.4601 169.0650 100.0568 0.0000 0.0000 0.0000
# 3 7.8918 100.0568 105.9731 0.0000 0.0000 0.0000
# 4 0.0000 0.0000 0.0000 21.1242 0.0000 0.0000
# 5 0.0000 0.0000 0.0000 0.0000 -0.2447 0.0000
# 6 0.0000 0.0000 0.0000 0.0000 0.0000 -8.1827
#
#
#
# Elastic Compliance Matrix: (Units=1/GPa)
#
#
# Indices 1 2 3 4 5 6 
#
# 1 0.019786 0.002098 -0.003455 0.000000 0.000000 0.000000
# 2 0.002098 0.013628 -0.013024 0.000000 0.000000 0.000000
# 3 -0.003455 -0.013024 0.021990 0.000000 0.000000 0.000000
# 4 0.000000 0.000000 0.000000 0.047339 0.000000 0.000000
# 5 0.000000 0.000000 0.000000 0.000000 -4.086143 0.000000
# 6 0.000000 0.000000 0.000000 0.000000 0.000000 -0.122210
#
#
# Mechanical properties :
#
#
# Convention : Reuss Voigt Hill
#
# Bulk Modulus (GPa) = 37.53148 60.22036 48.87592
# Shear Modulus (GPa) = -1.22912 17.17388 7.97238
#
# Velocity S-wave (km/s) = -0.75507 2.82244 1.92303
# Velocity P-wave (km/s) = 4.08031 6.20927 5.25376
#
# Compressibility (1/GPa) = 0.02664430
#
# Stress axis : x y z
#
# Youngs Moduli (GPa) = 50.54135 73.37607 45.47442
#
# Poissons Ratio (x) = -0.15398 0.15710
# Poissons Ratio (y) = -0.10606 0.59225
# Poissons Ratio (z) = 0.17461 0.95564
#
# Static dielectric constant tensor:
#      x y z
#    x 1.841180 0.000000 0.000000 
#    y 0.000000 1.777590 0.000000 
#    z 0.000000 0.000000 1.797180 
# 
# From -- ./inp_files/6264.got.cif
#   From: 2010.05.17/outbox.cif.g08.bks.cpg/sg66_4_cif.got.tgz:6264.got - 2010.06.03 17:51:23.
