data_PCOD9495836
_publ_section_title
;
Structure prediction by ZEFSAII (Michael W. Deem and Ramdas Pophale) SiO2 
 PCOD9495836
Probable space group: C C C M
;
_chemical_formula_sum "Si O2"
_cell_formula_units_Z 84
_cell_length_a 23.532284
_cell_length_b 12.440536
_cell_length_c 14.901247
_cell_angle_alpha 90.000000
_cell_angle_beta 90.000000
_cell_angle_gamma 90.000000
_cell_volume 4362.403036
_symmetry_space_group_name_H-M "C C C M"
_symmetry_group_IT_number 66
_symmetry_cell_setting 'orthorhombic'
loop_
_space_group_symop_operation_xyz
x,y,z
-x,-y,z
x,-y,1/2-z
-x,y,1/2-z
-x,-y,-z
x,y,-z
-x,y,1/2+z
x,-y,1/2+z
1/2+x,1/2+y,z
1/2-x,1/2-y,z
1/2+x,1/2-y,1/2-z
1/2-x,1/2+y,1/2-z
1/2-x,1/2-y,-z
1/2+x,1/2+y,-z
1/2-x,1/2+y,1/2+z
1/2+x,1/2-y,1/2+z
loop_
_atom_site_type_symbol
_atom_site_label
_atom_site_fract_x
_atom_site_fract_y
_atom_site_fract_z
Si Si1 0.184560 0.242610 0.799092
Si Si2 0.821898 0.531835 0.853897
Si Si3 0.500000 0.000000 0.250000
Si Si4 0.654892 0.708255 0.600802
Si Si5 0.927028 0.387448 0.098243
Si Si6 0.689151 0.535955 0.100128
O O1 0.250000 0.250000 0.827223
O O2 0.157125 0.344059 0.849324
O O3 0.183082 0.253518 0.691493
O O4 0.166881 0.124167 0.829788
O O5 0.817459 0.500000 0.750000
O O6 0.868427 0.456519 0.899015
O O7 0.757655 0.521238 0.890076
O O8 0.537353 0.072644 0.182870
O O9 0.677578 0.735515 0.500000
O O10 0.593145 0.763815 0.604857
O O11 0.660418 0.580254 0.608729
O O12 0.953937 0.403415 0.000000
O O13 0.678654 0.578054 0.000000
#
# Coordination Sequence:
#
# PCOD9495836 Si02
#       6
#    16  16   4  16  16  16
#     4  10  19  31  48  71 111 156 193 221 259 313
#     4  11  19  34  51  78 117 152 186 229 272 329
#     4  12  22  44  60  82 114 140 186 244 306 340
#     4  10  20  34  51  78 109 144 187 230 275 331
#     4  11  23  37  59  84 108 140 182 235 295 344
#     4  10  21  32  49  77 116 159 194 224 262 324
#
# _framework density 19.255441999999999
#
# number of rings (size 3 to 8) (size 9 to 14) (size 15 to 20)
#    0.000    1.524    2.857    3.714    0.000    4.571 
#    0.000    0.000    0.000    0.000    0.000   10.667 
#    0.000   35.048    0.000    0.000    0.000    0.000 
#
# Total GULP energy -234033.083110 kJ/mol
# GULP energy per Si atom -5572.216265 kJ/mol
# Density = 1.921162 g / cm^3
# Si number density = 19.255442 Si / 1000 Ang^3
#
#
#
# Elastic Constant Matrix: (Units=GPa)
#
#
# Indices 1 2 3 4 5 6 
#
# 1 39.7604 39.2398 30.4704 0.0000 0.0000 0.0000
# 2 39.2398 119.9879 39.9742 0.0000 0.0000 0.0000
# 3 30.4704 39.9742 115.0595 0.0000 0.0000 0.0000
# 4 0.0000 0.0000 0.0000 -2.3929 0.0000 0.0000
# 5 0.0000 0.0000 0.0000 0.0000 18.1790 0.0000
# 6 0.0000 0.0000 0.0000 0.0000 0.0000 19.8653
#
#
#
# Elastic Compliance Matrix: (Units=1/GPa)
#
#
# Indices 1 2 3 4 5 6 
#
# 1 0.041749 -0.011275 -0.007139 0.000000 0.000000 0.000000
# 2 -0.011275 0.012470 -0.001347 0.000000 0.000000 0.000000
# 3 -0.007139 -0.001347 0.011050 0.000000 0.000000 0.000000
# 4 0.000000 0.000000 0.000000 -0.417903 0.000000 0.000000
# 5 0.000000 0.000000 0.000000 0.000000 0.055009 0.000000
# 6 0.000000 0.000000 0.000000 0.000000 0.000000 0.050339
#
#
# Mechanical properties :
#
#
# Convention : Reuss Voigt Hill
#
# Bulk Modulus (GPa) = 38.83829 54.90852 46.87341
# Shear Modulus (GPa) = -25.10237 18.13850 -3.48194
#
# Velocity S-wave (km/s) = -3.61453 3.07252 -1.34618
# Velocity P-wave (km/s) = 1.67155 6.41599 4.68823
#
# Compressibility (1/GPa) = 0.02574778
#
# Stress axis : x y z
#
# Youngs Moduli (GPa) = 23.95279 80.19245 90.50176
#
# Poissons Ratio (x) = 0.90416 0.64608
# Poissons Ratio (y) = 0.27006 0.12186
# Poissons Ratio (z) = 0.17100 0.10798
#
# Static dielectric constant tensor:
#      x y z
#    x 1.655290 0.000000 0.000000 
#    y 0.000000 1.748810 0.000000 
#    z 0.000000 0.000000 1.708590 
# 
# From -- ./inp_files/32201.got.cif
#   From: 2010.05.17/outbox.cif.g08.bks.cpg/sg66_17_cif.got.tgz:32201.got - 2010.06.03 17:51:23.
