data_PCOD9495227
_publ_section_title
;
Structure prediction by ZEFSAII (Michael W. Deem and Ramdas Pophale) SiO2 
 PCOD9495227
Probable space group: C C C M
;
_chemical_formula_sum "Si O2"
_cell_formula_units_Z 112
_cell_length_a 22.073366
_cell_length_b 11.178402
_cell_length_c 25.254350
_cell_angle_alpha 90.000000
_cell_angle_beta 90.000000
_cell_angle_gamma 90.000000
_cell_volume 6231.383546
_symmetry_space_group_name_H-M "C C C M"
_symmetry_group_IT_number 66
_symmetry_cell_setting 'orthorhombic'
loop_
_space_group_symop_operation_xyz
x,y,z
-x,-y,z
x,-y,1/2-z
-x,y,1/2-z
-x,-y,-z
x,y,-z
-x,y,1/2+z
x,-y,1/2+z
1/2+x,1/2+y,z
1/2-x,1/2-y,z
1/2+x,1/2-y,1/2-z
1/2-x,1/2+y,1/2-z
1/2-x,1/2-y,-z
1/2+x,1/2+y,-z
1/2-x,1/2+y,1/2+z
1/2+x,1/2-y,1/2+z
loop_
_atom_site_type_symbol
_atom_site_label
_atom_site_fract_x
_atom_site_fract_y
_atom_site_fract_z
Si Si1 0.944862 0.655093 0.106199
Si Si2 0.069362 0.389416 0.561750
Si Si3 0.339647 0.706699 0.438836
Si Si4 0.703731 0.142416 0.060487
Si Si5 0.795490 0.357762 0.265312
Si Si6 0.065981 0.362208 0.768409
Si Si7 0.765057 0.591462 0.886221
O O1 0.925919 0.527831 0.080032
O O2 0.906579 0.760106 0.079727
O O3 0.933366 0.646146 0.168245
O O4 0.015802 0.667268 0.095255
O O5 0.052333 0.388108 0.500000
O O6 0.133566 0.325834 0.567957
O O7 0.336893 0.671404 0.500000
O O8 0.304798 0.615340 0.400526
O O9 0.302347 0.829612 0.428747
O O10 0.750000 0.250000 0.064098
O O11 0.719550 0.044486 0.103756
O O12 0.708328 0.092796 0.000000
O O13 0.785177 0.500000 0.250000
O O14 0.750000 0.250000 0.246463
O O15 0.865572 0.322973 0.251470
O O16 0.785622 0.364348 0.328936
O O17 0.064230 0.500000 0.750000
O O18 0.000000 0.310006 0.750000
#
# Coordination Sequence:
#
# PCOD9495227 Si02
#       7
#    16  16  16  16  16  16  16
#     4  11  18  30  48  75 106 132 173 233 276 325
#     4  10  18  27  43  69 103 137 171 215 276 327
#     4  11  19  30  55  83 111 139 172 223 283 330
#     4  10  20  33  49  72 109 149 183 219 265 333
#     4  11  22  39  58  84 114 149 187 240 290 336
#     4  10  19  32  52  74 104 145 188 229 285 334
#     4  11  19  34  53  79 110 139 182 224 274 325
#
# _framework density 17.973538000000001
#
# number of rings (size 3 to 8) (size 9 to 14) (size 15 to 20)
#    0.000    1.429    4.286    5.143    0.000    1.714 
#    0.000    0.000    0.000    1.286    0.000    8.000 
#    0.000    0.000    0.000    0.000    0.000    0.000 
#
# Total GULP energy -311930.687319 kJ/mol
# GULP energy per Si atom -5570.190845 kJ/mol
# Density = 1.793263 g / cm^3
# Si number density = 17.973538 Si / 1000 Ang^3
#
#
#
# Elastic Constant Matrix: (Units=GPa)
#
#
# Indices 1 2 3 4 5 6 
#
# 1 145.9574 36.8018 14.6143 0.0000 0.0000 0.0000
# 2 36.8018 30.4040 4.7679 0.0000 0.0000 0.0000
# 3 14.6143 4.7679 42.9152 0.0000 0.0000 0.0000
# 4 0.0000 0.0000 0.0000 29.3188 0.0000 0.0000
# 5 0.0000 0.0000 0.0000 0.0000 67.6348 0.0000
# 6 0.0000 0.0000 0.0000 0.0000 0.0000 9.0180
#
#
#
# Elastic Compliance Matrix: (Units=1/GPa)
#
#
# Indices 1 2 3 4 5 6 
#
# 1 0.010044 -0.011828 -0.002106 0.000000 0.000000 0.000000
# 2 -0.011828 0.047401 -0.001238 0.000000 0.000000 0.000000
# 3 -0.002106 -0.001238 0.024157 0.000000 0.000000 0.000000
# 4 0.000000 0.000000 0.000000 0.034108 0.000000 0.000000
# 5 0.000000 0.000000 0.000000 0.000000 0.014785 0.000000
# 6 0.000000 0.000000 0.000000 0.000000 0.000000 0.110890
#
#
# Mechanical properties :
#
#
# Convention : Reuss Voigt Hill
#
# Bulk Modulus (GPa) = 19.50954 36.84940 28.17947
# Shear Modulus (GPa) = 17.31203 32.06716 24.68960
#
# Velocity S-wave (km/s) = 3.10691 4.22848 3.71032
# Velocity P-wave (km/s) = 4.87326 6.66233 5.83675
#
# Compressibility (1/GPa) = 0.05125698
#
# Stress axis : x y z
#
# Youngs Moduli (GPa) = 99.55708 21.09648 41.39643
#
# Poissons Ratio (x) = 0.24952 0.08720
# Poissons Ratio (y) = 1.17754 0.05127
# Poissons Ratio (z) = 0.20971 0.02613
#
# Static dielectric constant tensor:
#      x y z
#    x 1.694320 0.000000 0.000000 
#    y 0.000000 1.608440 0.000000 
#    z 0.000000 0.000000 1.631580 
# 
# From -- ./inp_files/59575.got.cif
#   From: 2010.05.17/outbox.cif.g08.bks.cpg/sg66_30_cif.got.tgz:59575.got - 2010.06.03 17:51:23.
