data_PCOD9495940
_publ_section_title
;
Structure prediction by ZEFSAII (Michael W. Deem and Ramdas Pophale) SiO2 
 PCOD9495940
Probable space group: C C C M
;
_chemical_formula_sum "Si O2"
_cell_formula_units_Z 80
_cell_length_a 21.355578
_cell_length_b 10.335153
_cell_length_c 14.364174
_cell_angle_alpha 90.000000
_cell_angle_beta 90.000000
_cell_angle_gamma 90.000000
_cell_volume 3170.362321
_symmetry_space_group_name_H-M "C C C M"
_symmetry_group_IT_number 66
_symmetry_cell_setting 'orthorhombic'
loop_
_space_group_symop_operation_xyz
x,y,z
-x,-y,z
x,-y,1/2-z
-x,y,1/2-z
-x,-y,-z
x,y,-z
-x,y,1/2+z
x,-y,1/2+z
1/2+x,1/2+y,z
1/2-x,1/2-y,z
1/2+x,1/2-y,1/2-z
1/2-x,1/2+y,1/2-z
1/2-x,1/2-y,-z
1/2+x,1/2+y,-z
1/2-x,1/2+y,1/2+z
1/2+x,1/2-y,1/2+z
loop_
_atom_site_type_symbol
_atom_site_label
_atom_site_fract_x
_atom_site_fract_y
_atom_site_fract_z
Si Si1 0.028510 0.735980 0.146522
Si Si2 0.274152 0.589567 0.108511
Si Si3 0.596129 0.497002 0.638801
Si Si4 0.401849 0.206770 0.900923
Si Si5 0.841369 0.338271 0.202633
O O1 0.058301 0.873681 0.109103
O O2 0.091021 0.648993 0.155634
O O3 0.000000 0.763075 0.250000
O O4 0.972347 0.653289 0.103111
O O5 0.330439 0.489306 0.112331
O O6 0.210610 0.563383 0.163847
O O7 0.310072 0.707046 0.161700
O O8 0.260477 0.614646 0.000000
O O9 0.591915 0.500000 0.750000
O O10 0.575382 0.358099 0.603256
O O11 0.359264 0.178873 0.810989
O O12 0.371149 0.178398 0.000000
#
# Coordination Sequence:
#
# PCOD9495940 Si02
#       5
#    16  16  16  16  16
#     4   9  17  28  46  67 100 136 164 200 240 294
#     4  10  19  32  51  67  86 130 180 216 247 287
#     4  11  18  31  49  69 104 134 170 209 254 291
#     4  11  21  30  46  73 102 137 169 198 253 311
#     4   9  18  32  47  65  97 130 170 212 247 282
#
# _framework density 25.233709000000001
#
# number of rings (size 3 to 8) (size 9 to 14) (size 15 to 20)
#    0.000    2.000    6.000    2.400    0.000    5.600 
#    0.000    2.000    0.000    0.000    0.000    0.000 
#    0.000    7.200    0.000   18.000    2.800    0.000 
#
# Total GULP energy -222830.521367 kJ/mol
# GULP energy per Si atom -5570.763034 kJ/mol
# Density = 2.517628 g / cm^3
# Si number density = 25.233709 Si / 1000 Ang^3
#
#
#
# Elastic Constant Matrix: (Units=GPa)
#
#
# Indices 1 2 3 4 5 6 
#
# 1 191.8001 27.3721 72.5834 0.0000 0.0000 0.0000
# 2 27.3721 44.0371 7.0216 0.0000 0.0000 0.0000
# 3 72.5834 7.0216 217.1205 0.0000 0.0000 0.0000
# 4 0.0000 0.0000 0.0000 -13.9955 0.0000 0.0000
# 5 0.0000 0.0000 0.0000 0.0000 14.4302 0.0000
# 6 0.0000 0.0000 0.0000 0.0000 0.0000 18.4074
#
#
#
# Elastic Compliance Matrix: (Units=1/GPa)
#
#
# Indices 1 2 3 4 5 6 
#
# 1 0.006526 -0.003728 -0.002061 0.000000 0.000000 0.000000
# 2 -0.003728 0.024955 0.000439 0.000000 0.000000 0.000000
# 3 -0.002061 0.000439 0.005281 0.000000 0.000000 0.000000
# 4 0.000000 0.000000 0.000000 -0.071451 0.000000 0.000000
# 5 0.000000 0.000000 0.000000 0.000000 0.069299 0.000000
# 6 0.000000 0.000000 0.000000 0.000000 0.000000 0.054326
#
#
# Mechanical properties :
#
#
# Convention : Reuss Voigt Hill
#
# Bulk Modulus (GPa) = 38.36953 74.10133 56.23543
# Shear Modulus (GPa) = 46.15908 26.83379 36.49644
#
# Velocity S-wave (km/s) = 4.28163 3.26454 3.80720
# Velocity P-wave (km/s) = 6.29935 6.60601 6.45450
#
# Compressibility (1/GPa) = 0.02606234
#
# Stress axis : x y z
#
# Youngs Moduli (GPa) = 153.24096 40.07206 189.37509
#
# Poissons Ratio (x) = 0.14937 0.39030
# Poissons Ratio (y) = 0.57121 -0.08315
# Poissons Ratio (z) = 0.31583 -0.01759
#
# Static dielectric constant tensor:
#      x y z
#    x 2.086590 0.000000 0.000000 
#    y 0.000000 2.105750 0.000000 
#    z 0.000000 0.000000 2.056150 
# 
# From -- ./inp_files/32558.got.cif
#   From: 2010.05.17/outbox.cif.g08.bks.cpg/sg66_17_cif.got.tgz:32558.got - 2010.06.03 17:51:23.
