data_PCOD9495822
_publ_section_title
;
Structure prediction by ZEFSAII (Michael W. Deem and Ramdas Pophale) SiO2 
 PCOD9495822
Probable space group: C C C M
;
_chemical_formula_sum "Si O2"
_cell_formula_units_Z 64
_cell_length_a 11.768274
_cell_length_b 19.254577
_cell_length_c 11.371173
_cell_angle_alpha 90.000000
_cell_angle_beta 90.000000
_cell_angle_gamma 90.000000
_cell_volume 2576.629772
_symmetry_space_group_name_H-M "C C C M"
_symmetry_group_IT_number 66
_symmetry_cell_setting 'orthorhombic'
loop_
_space_group_symop_operation_xyz
x,y,z
-x,-y,z
x,-y,1/2-z
-x,y,1/2-z
-x,-y,-z
x,y,-z
-x,y,1/2+z
x,-y,1/2+z
1/2+x,1/2+y,z
1/2-x,1/2-y,z
1/2+x,1/2-y,1/2-z
1/2-x,1/2+y,1/2-z
1/2-x,1/2-y,-z
1/2+x,1/2+y,-z
1/2-x,1/2+y,1/2+z
1/2+x,1/2-y,1/2+z
loop_
_atom_site_type_symbol
_atom_site_label
_atom_site_fract_x
_atom_site_fract_y
_atom_site_fract_z
Si Si1 0.842662 0.958971 0.628985
Si Si2 0.796343 0.328666 0.625214
Si Si3 0.319552 0.176734 0.626030
Si Si4 0.959750 0.145475 0.629075
O O1 0.825661 0.993612 0.500000
O O2 0.765094 0.889314 0.623030
O O3 0.968603 0.925298 0.630043
O O4 0.819685 0.000000 0.750000
O O5 0.848883 0.347677 0.500000
O O6 0.750000 0.250000 0.618403
O O7 0.869209 0.332542 0.743114
O O8 0.674276 0.366407 0.636441
O O9 0.381775 0.176186 0.500000
O O10 0.250000 0.250000 0.628509
O O11 0.982429 0.178539 0.500000
O O12 0.000000 0.182607 0.750000
#
# Coordination Sequence:
#
# PCOD9495822 Si02
#       4
#    16  16  16  16
#     4  10  21  34  47  68  98 134 170 205 248 297
#     4   9  17  29  45  63  85 118 160 205 249 290
#     4   9  17  31  49  66  87 121 166 208 246 292
#     4  10  19  31  45  64  91 123 164 205 244 293
#
# _framework density 24.838647999999999
#
# number of rings (size 3 to 8) (size 9 to 14) (size 15 to 20)
#    0.000    2.500    2.500    0.000    0.000    2.500 
#    0.000    2.500    0.000    0.000    0.000    0.000 
#    0.000    0.000    0.000   20.250    0.000  348.500 
#
# Total GULP energy -178277.928417 kJ/mol
# GULP energy per Si atom -5571.185263 kJ/mol
# Density = 2.478211 g / cm^3
# Si number density = 24.838648 Si / 1000 Ang^3
#
#
#
# Elastic Constant Matrix: (Units=GPa)
#
#
# Indices 1 2 3 4 5 6 
#
# 1 69.5207 33.6911 31.8485 0.0000 0.0000 0.0000
# 2 33.6911 120.7932 24.0468 0.0000 0.0000 0.0000
# 3 31.8485 24.0468 377.6384 0.0000 0.0000 0.0000
# 4 0.0000 0.0000 0.0000 21.6243 0.0000 0.0000
# 5 0.0000 0.0000 0.0000 0.0000 -6.8435 0.0000
# 6 0.0000 0.0000 0.0000 0.0000 0.0000 20.8517
#
#
#
# Elastic Compliance Matrix: (Units=1/GPa)
#
#
# Indices 1 2 3 4 5 6 
#
# 1 0.017115 -0.004544 -0.001154 0.000000 0.000000 0.000000
# 2 -0.004544 0.009591 -0.000228 0.000000 0.000000 0.000000
# 3 -0.001154 -0.000228 0.002760 0.000000 0.000000 0.000000
# 4 0.000000 0.000000 0.000000 0.046244 0.000000 0.000000
# 5 0.000000 0.000000 0.000000 0.000000 -0.146124 0.000000
# 6 0.000000 0.000000 0.000000 0.000000 0.000000 0.047958
#
#
# Mechanical properties :
#
#
# Convention : Reuss Voigt Hill
#
# Bulk Modulus (GPa) = 56.76939 83.01388 69.89164
# Shear Modulus (GPa) = -1056.33866 39.01756 -508.66055
#
# Velocity S-wave (km/s) = -20.64470 3.96768 -14.32587
# Velocity P-wave (km/s) = 23.35308 7.38132 15.66657
#
# Compressibility (1/GPa) = 0.01761513
#
# Stress axis : x y z
#
# Youngs Moduli (GPa) = 58.42841 104.26150 362.33809
#
# Poissons Ratio (x) = 0.47375 0.41816
# Poissons Ratio (y) = 0.26549 0.08244
# Poissons Ratio (z) = 0.06743 0.02372
#
# Static dielectric constant tensor:
#      x y z
#    x 1.952870 0.000000 0.000000 
#    y 0.000000 2.119300 0.000000 
#    z 0.000000 0.000000 2.166390 
# 
# From -- ./inp_files/15900.got.cif
#   From: 2010.05.17/outbox.cif.g08.bks.cpg/sg66_8_cif.got.tgz:15900.got - 2010.06.03 17:51:23.
