data_PCOD9495487
_publ_section_title
;
Structure prediction by ZEFSAII (Michael W. Deem and Ramdas Pophale) SiO2 
 PCOD9495487
Probable space group: C C C M
;
_chemical_formula_sum "Si O2"
_cell_formula_units_Z 80
_cell_length_a 15.783322
_cell_length_b 27.246208
_cell_length_c 10.358673
_cell_angle_alpha 90.000000
_cell_angle_beta 90.000000
_cell_angle_gamma 90.000000
_cell_volume 4454.598927
_symmetry_space_group_name_H-M "C C C M"
_symmetry_group_IT_number 66
_symmetry_cell_setting 'orthorhombic'
loop_
_space_group_symop_operation_xyz
x,y,z
-x,-y,z
x,-y,1/2-z
-x,y,1/2-z
-x,-y,-z
x,y,-z
-x,y,1/2+z
x,-y,1/2+z
1/2+x,1/2+y,z
1/2-x,1/2-y,z
1/2+x,1/2-y,1/2-z
1/2-x,1/2+y,1/2-z
1/2-x,1/2-y,-z
1/2+x,1/2+y,-z
1/2-x,1/2+y,1/2+z
1/2+x,1/2-y,1/2+z
loop_
_atom_site_type_symbol
_atom_site_label
_atom_site_fract_x
_atom_site_fract_y
_atom_site_fract_z
Si Si1 0.172341 0.382795 0.000000
Si Si2 0.118207 0.406507 0.500000
Si Si3 0.737119 0.500000 0.250000
Si Si4 0.644092 0.988077 0.000000
Si Si5 0.827798 0.212450 0.846716
Si Si6 0.984739 0.681049 0.000000
Si Si7 0.000000 0.252700 0.250000
Si Si8 0.242621 0.893179 0.776111
O O1 0.111010 0.337180 0.000000
O O2 0.226612 0.383665 0.130290
O O3 0.114223 0.432217 0.000000
O O4 0.087425 0.463195 0.500000
O O5 0.177649 0.399790 0.626408
O O6 0.047766 0.365119 0.500000
O O7 0.796408 0.492023 0.374304
O O8 0.695024 0.446459 0.225564
O O9 0.750000 0.250000 0.813482
O O10 0.912372 0.223205 0.765169
O O11 0.803163 0.155764 0.824364
O O12 0.844117 0.219929 0.000000
O O13 0.999091 0.712980 0.125703
#
# Coordination Sequence:
#
# PCOD9495487 Si02
#       8
#     8   8   8   8  16   8   8  16
#     4  10  20  32  49  82 117 146 185 242 299 335
#     4  10  18  32  55  78 105 156 203 228 275 357
#     4   8  16  30  52  82 108 138 188 244 288 337
#     4   8  16  29  46  74 112 143 188 238 276 335
#     4  11  22  40  64  87 116 159 205 241 292 362
#     4  12  22  35  52  74 116 155 190 240 292 344
#     4  12  26  40  56  88 118 148 198 256 292 342
#     4  10  19  35  58  82 110 149 195 241 289 352
#
# _framework density 17.958969
#
# number of rings (size 3 to 8) (size 9 to 14) (size 15 to 20)
#    0.000    1.800    2.000    3.600    0.000    1.200 
#    0.000    2.000    0.000    9.000    0.000    1.400 
#    0.000    0.000    0.000    0.000    0.000    0.000 
#
# Total GULP energy -222816.218783 kJ/mol
# GULP energy per Si atom -5570.405470 kJ/mol
# Density = 1.791809 g / cm^3
# Si number density = 17.958969 Si / 1000 Ang^3
#
#
#
# Elastic Constant Matrix: (Units=GPa)
#
#
# Indices 1 2 3 4 5 6 
#
# 1 55.3825 34.6926 7.4123 0.0000 0.0000 0.0000
# 2 34.6926 123.9428 2.4605 0.0000 0.0000 0.0000
# 3 7.4123 2.4605 108.6836 0.0000 0.0000 0.0000
# 4 0.0000 0.0000 0.0000 96.2813 0.0000 0.0000
# 5 0.0000 0.0000 0.0000 0.0000 34.9049 0.0000
# 6 0.0000 0.0000 0.0000 0.0000 0.0000 30.6456
#
#
#
# Elastic Compliance Matrix: (Units=1/GPa)
#
#
# Indices 1 2 3 4 5 6 
#
# 1 0.022097 -0.006158 -0.001368 0.000000 0.000000 0.000000
# 2 -0.006158 0.009788 0.000198 0.000000 0.000000 0.000000
# 3 -0.001368 0.000198 0.009290 0.000000 0.000000 0.000000
# 4 0.000000 0.000000 0.000000 0.010386 0.000000 0.000000
# 5 0.000000 0.000000 0.000000 0.000000 0.028649 0.000000
# 6 0.000000 0.000000 0.000000 0.000000 0.000000 0.032631
#
#
# Mechanical properties :
#
#
# Convention : Reuss Voigt Hill
#
# Bulk Modulus (GPa) = 37.70708 41.90442 39.80575
# Shear Modulus (GPa) = 36.67427 48.59593 42.63510
#
# Velocity S-wave (km/s) = 4.52388 5.20751 4.87769
# Velocity P-wave (km/s) = 6.95191 7.71632 7.34407
#
# Compressibility (1/GPa) = 0.02652022
#
# Stress axis : x y z
#
# Youngs Moduli (GPa) = 45.25559 102.16647 107.64490
#
# Poissons Ratio (x) = 0.62913 0.14721
# Poissons Ratio (y) = 0.27868 -0.02135
# Poissons Ratio (z) = 0.06189 -0.02027
#
# Static dielectric constant tensor:
#      x y z
#    x 1.595500 0.000000 0.000000 
#    y 0.000000 1.667700 0.000000 
#    z 0.000000 0.000000 1.593590 
# 
# From -- ./inp_files/16432.got.cif
#   From: 2010.05.17/outbox.cif.g08.bks.cpg/sg66_9_cif.got.tgz:16432.got - 2010.06.03 17:51:23.
