data_PCOD9495704
_publ_section_title
;
Structure prediction by ZEFSAII (Michael W. Deem and Ramdas Pophale) SiO2 
 PCOD9495704
Probable space group: C C C M
;
_chemical_formula_sum "Si O2"
_cell_formula_units_Z 104
_cell_length_a 30.173444
_cell_length_b 7.620783
_cell_length_c 22.442307
_cell_angle_alpha 90.000000
_cell_angle_beta 90.000000
_cell_angle_gamma 90.000000
_cell_volume 5160.502322
_symmetry_space_group_name_H-M "C C C M"
_symmetry_group_IT_number 66
_symmetry_cell_setting 'orthorhombic'
loop_
_space_group_symop_operation_xyz
x,y,z
-x,-y,z
x,-y,1/2-z
-x,y,1/2-z
-x,-y,-z
x,y,-z
-x,y,1/2+z
x,-y,1/2+z
1/2+x,1/2+y,z
1/2-x,1/2-y,z
1/2+x,1/2-y,1/2-z
1/2-x,1/2+y,1/2-z
1/2-x,1/2-y,-z
1/2+x,1/2+y,-z
1/2-x,1/2+y,1/2+z
1/2+x,1/2-y,1/2+z
loop_
_atom_site_type_symbol
_atom_site_label
_atom_site_fract_x
_atom_site_fract_y
_atom_site_fract_z
Si Si1 0.356760 0.835233 0.000000
Si Si2 0.139816 0.456604 0.818568
Si Si3 0.118635 0.956491 0.500000
Si Si4 0.049283 0.048736 0.819511
Si Si5 0.197780 0.270026 0.379324
Si Si6 0.142346 0.937994 0.367461
Si Si7 0.047675 0.436094 0.134133
Si Si8 0.431704 0.877283 0.500000
O O1 0.389062 0.664768 0.000000
O O2 0.325965 0.810740 0.057601
O O3 0.385425 0.012591 0.000000
O O4 0.132157 0.500000 0.750000
O O5 0.181917 0.568610 0.839064
O O6 0.146857 0.250318 0.834903
O O7 0.094915 0.525237 0.851769
O O8 0.143682 0.908923 0.438822
O O9 0.076506 0.831115 0.500000
O O10 0.093445 0.982333 0.852529
O O11 0.052737 0.254197 0.831230
O O12 0.051920 0.000000 0.750000
O O13 0.000000 0.000000 0.841692
O O14 0.250000 0.250000 0.385767
O O15 0.177657 0.088277 0.353643
O O16 0.000000 0.500000 0.155072
O O17 0.045908 0.418430 0.062772
#
# Coordination Sequence:
#
# PCOD9495704 Si02
#       8
#     8  16   8  16  16  16  16   8
#     4  10  21  39  73  97 132 169 221 276 341 399
#     4  11  25  43  64  95 131 181 224 274 335 391
#     4  10  18  38  67  95 121 176 212 261 337 395
#     4  10  23  39  62  93 129 174 220 271 321 386
#     4  11  24  43  69 100 131 173 221 281 341 397
#     4  10  23  42  67  95 132 169 224 269 331 401
#     4  11  25  41  68  99 132 176 227 274 339 402
#     4  12  19  45  66  96 142 173 216 286 334 405
#
# _framework density 20.153077
#
# number of rings (size 3 to 8) (size 9 to 14) (size 15 to 20)
#    0.000    1.385    4.615    0.462    6.462    3.385 
#    2.769    1.538    0.000    5.538    0.000    0.000 
#    0.000    0.000    0.000    0.000    0.000    0.000 
#
# Total GULP energy -289921.927579 kJ/mol
# GULP energy per Si atom -5575.421684 kJ/mol
# Density = 2.010721 g / cm^3
# Si number density = 20.153077 Si / 1000 Ang^3
#
#
#
# Elastic Constant Matrix: (Units=GPa)
#
#
# Indices 1 2 3 4 5 6 
#
# 1 132.3696 47.1219 11.9192 0.0000 0.0000 0.0000
# 2 47.1219 82.7149 32.2445 0.0000 0.0000 0.0000
# 3 11.9192 32.2445 99.8314 0.0000 0.0000 0.0000
# 4 0.0000 0.0000 0.0000-1404.5548 0.0000 0.0000
# 5 0.0000 0.0000 0.0000 0.0000 2.8233 0.0000
# 6 0.0000 0.0000 0.0000 0.0000 0.0000 29.4298
#
#
#
# Elastic Compliance Matrix: (Units=1/GPa)
#
#
# Indices 1 2 3 4 5 6 
#
# 1 0.009519 -0.005697 0.000704 0.000000 0.000000 0.000000
# 2 -0.005697 0.017241 -0.004888 0.000000 0.000000 0.000000
# 3 0.000704 -0.004888 0.011512 0.000000 0.000000 0.000000
# 4 0.000000 0.000000 0.000000 -0.000712 0.000000 0.000000
# 5 0.000000 0.000000 0.000000 0.000000 0.354194 0.000000
# 6 0.000000 0.000000 0.000000 0.000000 0.000000 0.033979
#
#
# Mechanical properties :
#
#
# Convention : Reuss Voigt Hill
#
# Bulk Modulus (GPa) = 54.03103 55.27635 54.65369
# Shear Modulus (GPa) = 11.07009 -259.55166 -124.24079
#
# Velocity S-wave (km/s) = 2.34626 -11.36088 -7.86018
# Velocity P-wave (km/s) = 5.84880 12.02519 7.42956
#
# Compressibility (1/GPa) = 0.01850788
#
# Stress axis : x y z
#
# Youngs Moduli (GPa) = 105.04785 58.00072 86.86744
#
# Poissons Ratio (x) = 0.33046 -0.06112
# Poissons Ratio (y) = 0.59851 0.42465
# Poissons Ratio (z) = -0.07392 0.28353
#
# Static dielectric constant tensor:
#      x y z
#    x 1.594510 0.000000 0.000000 
#    y 0.000000 1.925410 0.000000 
#    z 0.000000 0.000000 1.756910 
# 
# From -- ./inp_files/53338.got.cif
#   From: 2010.05.17/outbox.cif.g08.bks.cpg/sg66_27_cif.got.tgz:53338.got - 2010.06.03 17:51:23.
