data_PCOD9495795
_publ_section_title
;
Structure prediction by ZEFSAII (Michael W. Deem and Ramdas Pophale) SiO2 
 PCOD9495795
Probable space group: C C C M
;
_chemical_formula_sum "Si O2"
_cell_formula_units_Z 96
_cell_length_a 24.398302
_cell_length_b 9.593512
_cell_length_c 21.550414
_cell_angle_alpha 90.000000
_cell_angle_beta 90.000000
_cell_angle_gamma 90.000000
_cell_volume 5044.206338
_symmetry_space_group_name_H-M "C C C M"
_symmetry_group_IT_number 66
_symmetry_cell_setting 'orthorhombic'
loop_
_space_group_symop_operation_xyz
x,y,z
-x,-y,z
x,-y,1/2-z
-x,y,1/2-z
-x,-y,-z
x,y,-z
-x,y,1/2+z
x,-y,1/2+z
1/2+x,1/2+y,z
1/2-x,1/2-y,z
1/2+x,1/2-y,1/2-z
1/2-x,1/2+y,1/2-z
1/2-x,1/2-y,-z
1/2+x,1/2+y,-z
1/2-x,1/2+y,1/2+z
1/2+x,1/2-y,1/2+z
loop_
_atom_site_type_symbol
_atom_site_label
_atom_site_fract_x
_atom_site_fract_y
_atom_site_fract_z
Si Si1 0.565483 0.495837 0.176952
Si Si2 0.147457 0.760273 0.854830
Si Si3 0.703118 0.147654 0.730369
Si Si4 0.280023 0.477190 0.429034
Si Si5 0.882269 0.175861 0.430875
Si Si6 0.343824 0.041486 0.109668
O O1 0.500000 0.500000 0.175496
O O2 0.582433 0.500000 0.250000
O O3 0.594091 0.355271 0.152320
O O4 0.586117 0.614574 0.128824
O O5 0.173764 0.716653 0.789082
O O6 0.193366 0.853872 0.888829
O O7 0.134285 0.615562 0.889219
O O8 0.750000 0.250000 0.706574
O O9 0.729658 0.000000 0.750000
O O10 0.659317 0.105857 0.678790
O O11 0.277985 0.429653 0.500000
O O12 0.321842 0.606850 0.425370
O O13 0.219741 0.523201 0.409302
O O14 0.903462 0.134539 0.500000
O O15 0.875372 0.341943 0.428407
#
# Coordination Sequence:
#
# PCOD9495795 Si02
#       6
#    16  16  16  16  16  16
#     4  10  22  42  65  82 100 137 189 241 290 337
#     4  10  21  35  52  78 109 143 185 231 274 322
#     4  10  19  30  47  75 111 147 180 216 263 318
#     4  10  20  34  52  78 115 156 190 215 249 312
#     4  10  21  36  57  85 115 148 184 225 273 325
#     4  11  20  31  51  80 116 150 178 217 268 326
#
# _framework density 19.031735999999999
#
# number of rings (size 3 to 8) (size 9 to 14) (size 15 to 20)
#    0.000    1.833    0.000    5.500    0.000    7.000 
#    0.000    0.833    0.000    3.000    0.000    0.000 
#    0.000    0.000    0.000    0.000    0.000    0.000 
#
# Total GULP energy -267858.558372 kJ/mol
# GULP energy per Si atom -5580.386633 kJ/mol
# Density = 1.898842 g / cm^3
# Si number density = 19.031736 Si / 1000 Ang^3
#
#
#
# Elastic Constant Matrix: (Units=GPa)
#
#
# Indices 1 2 3 4 5 6 
#
# 1 61.8701 41.3352 34.3545 0.0000 0.0000 0.0000
# 2 41.3352 115.8164 33.1504 0.0000 0.0000 0.0000
# 3 34.3545 33.1504 114.5289 0.0000 0.0000 0.0000
# 4 0.0000 0.0000 0.0000 15.4336 0.0000 0.0000
# 5 0.0000 0.0000 0.0000 0.0000 -38.7224 0.0000
# 6 0.0000 0.0000 0.0000 0.0000 0.0000 7.6329
#
#
#
# Elastic Compliance Matrix: (Units=1/GPa)
#
#
# Indices 1 2 3 4 5 6 
#
# 1 0.023647 -0.006988 -0.005071 0.000000 0.000000 0.000000
# 2 -0.006988 0.011480 -0.001226 0.000000 0.000000 0.000000
# 3 -0.005071 -0.001226 0.010607 0.000000 0.000000 0.000000
# 4 0.000000 0.000000 0.000000 0.064794 0.000000 0.000000
# 5 0.000000 0.000000 0.000000 0.000000 -0.025825 0.000000
# 6 0.000000 0.000000 0.000000 0.000000 0.000000 0.131011
#
#
# Mechanical properties :
#
#
# Convention : Reuss Voigt Hill
#
# Bulk Modulus (GPa) = 52.18276 56.65505 54.41891
# Shear Modulus (GPa) = 20.10668 9.09384 14.60026
#
# Velocity S-wave (km/s) = 3.25388 2.18829 2.77276
# Velocity P-wave (km/s) = 6.44945 6.01815 6.23753
#
# Compressibility (1/GPa) = 0.01916342
#
# Stress axis : x y z
#
# Youngs Moduli (GPa) = 42.28793 87.11080 94.27371
#
# Poissons Ratio (x) = 0.60877 0.47802
# Poissons Ratio (y) = 0.29553 0.11563
# Poissons Ratio (z) = 0.21442 0.10684
#
# Static dielectric constant tensor:
#      x y z
#    x 1.614050 0.000000 0.000000 
#    y 0.000000 1.737800 0.000000 
#    z 0.000000 0.000000 1.742590 
# 
# From -- ./inp_files/47272.got.cif
#   From: 2010.05.17/outbox.cif.g08.bks.cpg/sg66_24_cif.got.tgz:47272.got - 2010.06.03 17:51:23.
