data_PCOD9495297
_publ_section_title
;
Structure prediction by ZEFSAII (Michael W. Deem and Ramdas Pophale) SiO2 
 PCOD9495297
Probable space group: C C C M
;
_chemical_formula_sum "Si O2"
_cell_formula_units_Z 112
_cell_length_a 28.348941
_cell_length_b 14.003901
_cell_length_c 14.918423
_cell_angle_alpha 90.000000
_cell_angle_beta 90.000000
_cell_angle_gamma 90.000000
_cell_volume 5922.550725
_symmetry_space_group_name_H-M "C C C M"
_symmetry_group_IT_number 66
_symmetry_cell_setting 'orthorhombic'
loop_
_space_group_symop_operation_xyz
x,y,z
-x,-y,z
x,-y,1/2-z
-x,y,1/2-z
-x,-y,-z
x,y,-z
-x,y,1/2+z
x,-y,1/2+z
1/2+x,1/2+y,z
1/2-x,1/2-y,z
1/2+x,1/2-y,1/2-z
1/2-x,1/2+y,1/2-z
1/2-x,1/2-y,-z
1/2+x,1/2+y,-z
1/2-x,1/2+y,1/2+z
1/2+x,1/2-y,1/2+z
loop_
_atom_site_type_symbol
_atom_site_label
_atom_site_fract_x
_atom_site_fract_y
_atom_site_fract_z
Si Si1 0.287836 0.948237 0.894375
Si Si2 0.305080 0.671043 0.103602
Si Si3 0.446013 0.730926 0.748788
Si Si4 0.607141 0.441592 0.842053
Si Si5 0.786859 0.665385 0.895282
Si Si6 0.350873 0.165722 0.727105
Si Si7 0.464104 0.578871 0.598464
O O1 0.245688 0.873759 0.874417
O O2 0.331946 0.925180 0.829523
O O3 0.268919 0.056363 0.882498
O O4 0.300445 0.938737 0.000000
O O5 0.344175 0.590122 0.115627
O O6 0.325321 0.750382 0.170155
O O7 0.304089 0.703879 0.000000
O O8 0.500000 0.766984 0.750000
O O9 0.427307 0.649071 0.819276
O O10 0.406278 0.811562 0.762145
O O11 0.449686 0.669086 0.657309
O O12 0.614607 0.500000 0.750000
O O13 0.581952 0.514808 0.906518
O O14 0.750000 0.750000 0.875141
O O15 0.829536 0.671168 0.826190
O O16 0.800131 0.675285 0.000000
O O17 0.500000 0.500000 0.640856
O O18 0.482344 0.605167 0.500000
#
# Coordination Sequence:
#
# PCOD9495297 Si02
#       7
#    16  16  16  16  16  16  16
#     4  10  21  38  60  84 114 150 188 238 295 349
#     4  10  20  34  54  85 121 151 189 237 283 342
#     4  10  20  35  49  72 108 146 189 240 290 341
#     4   9  18  29  48  72 108 153 194 238 284 341
#     4  10  22  39  60  85 114 147 185 234 291 352
#     4  11  22  35  58  84 113 154 194 234 286 348
#     4  10  18  29  50  74 104 152 199 237 289 347
#
# _framework density 18.910771
#
# number of rings (size 3 to 8) (size 9 to 14) (size 15 to 20)
#    0.000    2.000    1.429    2.571    0.000    6.286 
#    0.000    2.143    0.000    1.714    0.000    2.000 
#    0.000    0.000    0.000    0.000    0.000    0.000 
#
# Total GULP energy -311771.315445 kJ/mol
# GULP energy per Si atom -5567.344919 kJ/mol
# Density = 1.886773 g / cm^3
# Si number density = 18.910771 Si / 1000 Ang^3
#
#
#
# Elastic Constant Matrix: (Units=GPa)
#
#
# Indices 1 2 3 4 5 6 
#
# 1 129.1076 37.5038 35.2674 0.0000 0.0000 0.0000
# 2 37.5038 69.0195 20.1181 0.0000 0.0000 0.0000
# 3 35.2674 20.1181 69.7821 0.0000 0.0000 0.0000
# 4 0.0000 0.0000 0.0000 115.4812 0.0000 0.0000
# 5 0.0000 0.0000 0.0000 0.0000 44.8617 0.0000
# 6 0.0000 0.0000 0.0000 0.0000 0.0000 30.6759
#
#
#
# Elastic Compliance Matrix: (Units=1/GPa)
#
#
# Indices 1 2 3 4 5 6 
#
# 1 0.010054 -0.004347 -0.003828 0.000000 0.000000 0.000000
# 2 -0.004347 0.017698 -0.002905 0.000000 0.000000 0.000000
# 3 -0.003828 -0.002905 0.017102 0.000000 0.000000 0.000000
# 4 0.000000 0.000000 0.000000 0.008659 0.000000 0.000000
# 5 0.000000 0.000000 0.000000 0.000000 0.022291 0.000000
# 6 0.000000 0.000000 0.000000 0.000000 0.000000 0.032599
#
#
# Mechanical properties :
#
#
# Convention : Reuss Voigt Hill
#
# Bulk Modulus (GPa) = 44.06556 50.40975 47.23766
# Shear Modulus (GPa) = 36.19825 49.87176 43.03500
#
# Velocity S-wave (km/s) = 4.37986 5.14095 4.77559
# Velocity P-wave (km/s) = 6.99500 7.87107 7.44593
#
# Compressibility (1/GPa) = 0.02269346
#
# Stress axis : x y z
#
# Youngs Moduli (GPa) = 99.46347 56.50444 58.47118
#
# Poissons Ratio (x) = 0.24564 0.22382
# Poissons Ratio (y) = 0.43240 0.16987
# Poissons Ratio (z) = 0.38073 0.16415
#
# Static dielectric constant tensor:
#      x y z
#    x 1.674520 0.000000 0.000000 
#    y 0.000000 1.712900 0.000000 
#    z 0.000000 0.000000 1.722770 
# 
# From -- ./inp_files/33336.got.cif
#   From: 2010.05.17/outbox.cif.g08.bks.cpg/sg66_17_cif.got.tgz:33336.got - 2010.06.03 17:51:23.
