data_PCOD9495035
_publ_section_title
;
Structure prediction by ZEFSAII (Michael W. Deem and Ramdas Pophale) SiO2 
 PCOD9495035
Probable space group: C C C M
;
_chemical_formula_sum "Si O2"
_cell_formula_units_Z 80
_cell_length_a 24.197488
_cell_length_b 25.304899
_cell_length_c 8.567035
_cell_angle_alpha 90.000000
_cell_angle_beta 90.000000
_cell_angle_gamma 90.000000
_cell_volume 5245.723949
_symmetry_space_group_name_H-M "C C C M"
_symmetry_group_IT_number 66
_symmetry_cell_setting 'orthorhombic'
loop_
_space_group_symop_operation_xyz
x,y,z
-x,-y,z
x,-y,1/2-z
-x,y,1/2-z
-x,-y,-z
x,y,-z
-x,y,1/2+z
x,-y,1/2+z
1/2+x,1/2+y,z
1/2-x,1/2-y,z
1/2+x,1/2-y,1/2-z
1/2-x,1/2+y,1/2-z
1/2-x,1/2-y,-z
1/2+x,1/2+y,-z
1/2-x,1/2+y,1/2+z
1/2+x,1/2-y,1/2+z
loop_
_atom_site_type_symbol
_atom_site_label
_atom_site_fract_x
_atom_site_fract_y
_atom_site_fract_z
Si Si1 0.560676 0.165632 0.313533
Si Si2 0.115794 0.443885 0.187584
Si Si3 0.338152 0.231137 0.311351
Si Si4 0.273292 0.331185 0.689520
Si Si5 0.758879 0.444033 0.187535
O O1 0.500000 0.176809 0.250000
O O2 0.559566 0.165669 0.500000
O O3 0.580863 0.107081 0.261959
O O4 0.606167 0.207402 0.256525
O O5 0.094007 0.500000 0.250000
O O6 0.178172 0.438189 0.252064
O O7 0.118035 0.445643 0.000000
O O8 0.341516 0.230319 0.500000
O O9 0.320598 0.290213 0.260202
O O10 0.285995 0.194056 0.266245
O O11 0.274300 0.330876 0.500000
O O12 0.274341 0.391952 0.739829
O O13 0.737593 0.500000 0.250000
O O14 0.760376 0.445542 0.000000
#
# Coordination Sequence:
#
# PCOD9495035 Si02
#       5
#    16  16  16  16  16
#     4  11  23  35  47  65  88 117 153 194 234 270
#     4  10  20  32  45  62  85 115 154 193 230 265
#     4   9  16  31  50  67  87 116 152 186 223 269
#     4   8  15  27  48  70  89 117 150 181 221 273
#     4  10  17  27  44  67  93 121 150 182 221 265
#
# _framework density 15.250517
#
# number of rings (size 3 to 8) (size 9 to 14) (size 15 to 20)
#    0.000    2.400    2.000    4.200    0.000    2.800 
#    0.000    6.000    0.000    0.000    0.000    0.000 
#    0.000    0.800    0.000    9.200    0.000    2.800 
#
# Total GULP energy -222975.397568 kJ/mol
# GULP energy per Si atom -5574.384939 kJ/mol
# Density = 1.521581 g / cm^3
# Si number density = 15.250517 Si / 1000 Ang^3
#
#
#
# Elastic Constant Matrix: (Units=GPa)
#
#
# Indices 1 2 3 4 5 6 
#
# 1 84.6395 76.1887 20.9741 0.0000 0.0000 0.0000
# 2 76.1887 152.5471 28.6231 0.0000 0.0000 0.0000
# 3 20.9741 28.6231 31.3288 0.0000 0.0000 0.0000
# 4 0.0000 0.0000 0.0000 -972.1019 0.0000 0.0000
# 5 0.0000 0.0000 0.0000 0.0000 9.0227 0.0000
# 6 0.0000 0.0000 0.0000 0.0000 0.0000 20.2477
#
#
#
# Elastic Compliance Matrix: (Units=1/GPa)
#
#
# Indices 1 2 3 4 5 6 
#
# 1 0.022287 -0.010055 -0.005734 0.000000 0.000000 0.000000
# 2 -0.010055 0.012448 -0.004641 0.000000 0.000000 0.000000
# 3 -0.005734 -0.004641 0.039999 0.000000 0.000000 0.000000
# 4 0.000000 0.000000 0.000000 -0.001029 0.000000 0.000000
# 5 0.000000 0.000000 0.000000 0.000000 0.110832 0.000000
# 6 0.000000 0.000000 0.000000 0.000000 0.000000 0.049388
#
#
# Mechanical properties :
#
#
# Convention : Reuss Voigt Hill
#
# Bulk Modulus (GPa) = 29.52209 57.78746 43.65478
# Shear Modulus (GPa) = 17.47778 -179.05100 -80.78661
#
# Velocity S-wave (km/s) = 3.38900 -10.84718 -7.28615
# Velocity P-wave (km/s) = 5.89185 10.90447 6.48820
#
# Compressibility (1/GPa) = 0.03387294
#
# Stress axis : x y z
#
# Youngs Moduli (GPa) = 44.86933 80.33269 25.00079
#
# Poissons Ratio (x) = 0.80776 0.14335
# Poissons Ratio (y) = 0.45117 0.11604
# Poissons Ratio (z) = 0.25728 0.37285
#
# Static dielectric constant tensor:
#      x y z
#    x 1.469480 0.000000 0.000000 
#    y 0.000000 1.545510 0.000000 
#    z 0.000000 0.000000 1.516240 
# 
# From -- ./inp_files/6728.got.cif
#   From: 2010.05.17/outbox.cif.g08.bks.cpg/sg66_4_cif.got.tgz:6728.got - 2010.06.03 17:51:23.
