data_PCOD9495222
_publ_section_title
;
Structure prediction by ZEFSAII (Michael W. Deem and Ramdas Pophale) SiO2 
 PCOD9495222
Probable space group: C C C M
;
_chemical_formula_sum "Si O2"
_cell_formula_units_Z 96
_cell_length_a 22.874456
_cell_length_b 16.514782
_cell_length_c 15.270345
_cell_angle_alpha 90.000000
_cell_angle_beta 90.000000
_cell_angle_gamma 90.000000
_cell_volume 5768.627139
_symmetry_space_group_name_H-M "C C C M"
_symmetry_group_IT_number 66
_symmetry_cell_setting 'orthorhombic'
loop_
_space_group_symop_operation_xyz
x,y,z
-x,-y,z
x,-y,1/2-z
-x,y,1/2-z
-x,-y,-z
x,y,-z
-x,y,1/2+z
x,-y,1/2+z
1/2+x,1/2+y,z
1/2-x,1/2-y,z
1/2+x,1/2-y,1/2-z
1/2-x,1/2+y,1/2-z
1/2-x,1/2-y,-z
1/2+x,1/2+y,-z
1/2-x,1/2+y,1/2+z
1/2+x,1/2-y,1/2+z
loop_
_atom_site_type_symbol
_atom_site_label
_atom_site_fract_x
_atom_site_fract_y
_atom_site_fract_z
Si Si1 0.285567 0.627498 0.103470
Si Si2 0.339243 0.807812 0.895977
Si Si3 0.933321 0.266072 0.765806
Si Si4 0.539131 0.368523 0.094582
Si Si5 0.903708 0.829949 0.098860
Si Si6 0.378101 0.500172 0.651913
O O1 0.316809 0.714741 0.115584
O O2 0.217643 0.638432 0.126099
O O3 0.321389 0.557167 0.149899
O O4 0.289023 0.610338 0.000000
O O5 0.392227 0.819980 0.828283
O O6 0.352552 0.818866 0.000000
O O7 0.940473 0.184529 0.823767
O O8 0.904274 0.238286 0.674115
O O9 0.000000 0.295963 0.750000
O O10 0.469479 0.367181 0.100197
O O11 0.572164 0.453361 0.097571
O O12 0.554479 0.329956 0.000000
O O13 0.865558 0.908964 0.120977
O O14 0.892332 0.800624 0.000000
O O15 0.401538 0.500000 0.750000
#
# Coordination Sequence:
#
# PCOD9495222 Si02
#       6
#    16  16  16  16  16  16
#     4   9  17  27  43  62  80 110 148 186 227 255
#     4   9  16  29  45  62  83 107 142 190 229 255
#     4  10  18  28  42  61  86 116 147 178 214 258
#     4  10  18  27  38  54  83 119 149 178 210 242
#     4  10  20  28  36  55  86 120 149 176 209 252
#     4  12  19  26  39  57  84 117 146 177 210 250
#
# _framework density 16.641741
#
# number of rings (size 3 to 8) (size 9 to 14) (size 15 to 20)
#    0.000    2.000    3.333    3.500    0.000    2.667 
#    0.000    0.000    0.000    0.000    0.000   11.667 
#    0.000    0.667    0.000    3.667    0.000    0.333 
#
# Total GULP energy -267357.279568 kJ/mol
# GULP energy per Si atom -5569.943324 kJ/mol
# Density = 1.660386 g / cm^3
# Si number density = 16.641741 Si / 1000 Ang^3
#
#
#
# Elastic Constant Matrix: (Units=GPa)
#
#
# Indices 1 2 3 4 5 6 
#
# 1 76.7885 13.8094 26.6146 0.0000 0.0000 0.0000
# 2 13.8094 13.4259 5.3065 0.0000 0.0000 0.0000
# 3 26.6146 5.3065 102.5114 0.0000 0.0000 0.0000
# 4 0.0000 0.0000 0.0000 3.6542 0.0000 0.0000
# 5 0.0000 0.0000 0.0000 0.0000 24.6519 0.0000
# 6 0.0000 0.0000 0.0000 0.0000 0.0000 19.3195
#
#
#
# Elastic Compliance Matrix: (Units=1/GPa)
#
#
# Indices 1 2 3 4 5 6 
#
# 1 0.017204 -0.016262 -0.003625 0.000000 0.000000 0.000000
# 2 -0.016262 0.091412 -0.000510 0.000000 0.000000 0.000000
# 3 -0.003625 -0.000510 0.010722 0.000000 0.000000 0.000000
# 4 0.000000 0.000000 0.000000 0.273660 0.000000 0.000000
# 5 0.000000 0.000000 0.000000 0.000000 0.040565 0.000000
# 6 0.000000 0.000000 0.000000 0.000000 0.000000 0.051761
#
#
# Mechanical properties :
#
#
# Convention : Reuss Voigt Hill
#
# Bulk Modulus (GPa) = 12.73174 31.57629 22.15401
# Shear Modulus (GPa) = 9.05307 19.32480 14.18894
#
# Velocity S-wave (km/s) = 2.33491 3.41137 2.92312
# Velocity P-wave (km/s) = 3.86473 5.87639 4.97333
#
# Compressibility (1/GPa) = 0.07854388
#
# Stress axis : x y z
#
# Youngs Moduli (GPa) = 58.12710 10.93954 93.26213
#
# Poissons Ratio (x) = 0.17790 0.33805
# Poissons Ratio (y) = 0.94529 0.04754
# Poissons Ratio (z) = 0.21069 0.00558
#
# Static dielectric constant tensor:
#      x y z
#    x 1.614880 0.000000 0.000000 
#    y 0.000000 1.535220 0.000000 
#    z 0.000000 0.000000 1.589210 
# 
# From -- ./inp_files/31461.got.cif
#   From: 2010.05.17/outbox.cif.g08.bks.cpg/sg66_16_cif.got.tgz:31461.got - 2010.06.03 17:51:23.
