data_PCOD9495514
_publ_section_title
;
Structure prediction by ZEFSAII (Michael W. Deem and Ramdas Pophale) SiO2 
 PCOD9495514
Probable space group: C C C M
;
_chemical_formula_sum "Si O2"
_cell_formula_units_Z 116
_cell_length_a 11.503120
_cell_length_b 18.857592
_cell_length_c 26.317478
_cell_angle_alpha 90.000000
_cell_angle_beta 90.000000
_cell_angle_gamma 90.000000
_cell_volume 5708.817427
_symmetry_space_group_name_H-M "C C C M"
_symmetry_group_IT_number 66
_symmetry_cell_setting 'orthorhombic'
loop_
_space_group_symop_operation_xyz
x,y,z
-x,-y,z
x,-y,1/2-z
-x,y,1/2-z
-x,-y,-z
x,y,-z
-x,y,1/2+z
x,-y,1/2+z
1/2+x,1/2+y,z
1/2-x,1/2-y,z
1/2+x,1/2-y,1/2-z
1/2-x,1/2+y,1/2-z
1/2-x,1/2-y,-z
1/2+x,1/2+y,-z
1/2-x,1/2+y,1/2+z
1/2+x,1/2-y,1/2+z
loop_
_atom_site_type_symbol
_atom_site_label
_atom_site_fract_x
_atom_site_fract_y
_atom_site_fract_z
Si Si1 0.092157 0.619625 0.351149
Si Si2 0.500000 0.500000 0.250000
Si Si3 0.382177 0.222021 0.557837
Si Si4 0.630472 0.967413 0.942632
Si Si5 0.181881 0.821880 0.800095
Si Si6 0.457267 0.717166 0.641263
Si Si7 0.824547 0.893233 0.194247
Si Si8 0.840635 0.588552 0.369919
O O1 0.120532 0.604184 0.410482
O O2 0.087443 0.704439 0.343625
O O3 0.193375 0.583641 0.318230
O O4 0.965433 0.584870 0.341509
O O5 0.415476 0.452271 0.214118
O O6 0.420548 0.210360 0.500000
O O7 0.250000 0.250000 0.556866
O O8 0.470880 0.271926 0.588999
O O9 0.369518 0.150531 0.589772
O O10 0.500000 0.000000 0.945584
O O11 0.693545 0.022010 0.904512
O O12 0.675116 0.961892 0.000000
O O13 0.250000 0.750000 0.812258
O O14 0.185871 0.839612 0.741386
O O15 0.241887 0.884650 0.832017
O O16 0.052280 0.808008 0.817924
O O17 0.365154 0.653857 0.645824
#
# Coordination Sequence:
#
# PCOD9495514 Si02
#       8
#    16   4  16  16  16  16  16  16
#     4  10  22  38  61  89 126 158 208 263 310 376
#     4  12  28  48  64  86 114 176 226 252 326 396
#     4  10  18  32  59  95 130 162 205 259 317 371
#     4   9  19  36  59  87 125 171 207 251 323 390
#     4  12  20  38  65  93 126 170 207 262 332 381
#     4  11  20  41  58  92 124 162 209 264 311 375
#     4  12  27  42  64  87 119 168 219 262 319 389
#     4  10  19  35  60  94 132 161 205 263 319 381
#
# _framework density 20.319445999999999
#
# number of rings (size 3 to 8) (size 9 to 14) (size 15 to 20)
#    0.000    1.379    5.517    1.655    1.931    3.862 
#    0.000    0.690    0.000    4.138    0.000    1.931 
#    0.000    0.000    0.000    0.000    0.000    0.000 
#
# Total GULP energy -323591.329272 kJ/mol
# GULP energy per Si atom -5579.160850 kJ/mol
# Density = 2.027320 g / cm^3
# Si number density = 20.319446 Si / 1000 Ang^3
#
#
#
# Elastic Constant Matrix: (Units=GPa)
#
#
# Indices 1 2 3 4 5 6 
#
# 1 75.9599 27.5870 31.6244 0.0000 0.0000 0.0000
# 2 27.5870 73.0659 15.7989 0.0000 0.0000 0.0000
# 3 31.6244 15.7989 78.6104 0.0000 0.0000 0.0000
# 4 0.0000 0.0000 0.0000 26.6408 0.0000 0.0000
# 5 0.0000 0.0000 0.0000 0.0000 8.7131 0.0000
# 6 0.0000 0.0000 0.0000 0.0000 0.0000 16.9255
#
#
#
# Elastic Compliance Matrix: (Units=1/GPa)
#
#
# Indices 1 2 3 4 5 6 
#
# 1 0.017609 -0.005349 -0.006009 0.000000 0.000000 0.000000
# 2 -0.005349 0.015933 -0.001050 0.000000 0.000000 0.000000
# 3 -0.006009 -0.001050 0.015349 0.000000 0.000000 0.000000
# 4 0.000000 0.000000 0.000000 0.037536 0.000000 0.000000
# 5 0.000000 0.000000 0.000000 0.000000 0.114770 0.000000
# 6 0.000000 0.000000 0.000000 0.000000 0.000000 0.059082
#
#
# Mechanical properties :
#
#
# Convention : Reuss Voigt Hill
#
# Bulk Modulus (GPa) = 41.53728 41.96186 41.74957
# Shear Modulus (GPa) = 17.05773 20.63093 18.84433
#
# Velocity S-wave (km/s) = 2.90052 3.18988 3.04863
# Velocity P-wave (km/s) = 5.63062 5.85346 5.74312
#
# Compressibility (1/GPa) = 0.02407476
#
# Stress axis : x y z
#
# Youngs Moduli (GPa) = 56.78809 62.76251 65.14906
#
# Poissons Ratio (x) = 0.33574 0.39148
# Poissons Ratio (y) = 0.30378 0.06842
# Poissons Ratio (z) = 0.34124 0.06591
#
# Static dielectric constant tensor:
#      x y z
#    x 1.798200 0.000000 0.000000 
#    y 0.000000 1.778300 0.000000 
#    z 0.000000 0.000000 1.704880 
# 
# From -- ./inp_files/63862.got.cif
#   From: 2010.05.17/outbox.cif.g08.bks.cpg/sg66_32_cif.got.tgz:63862.got - 2010.06.03 17:51:23.
