data_PCOD9495864
_publ_section_title
;
Structure prediction by ZEFSAII (Michael W. Deem and Ramdas Pophale) SiO2 
 PCOD9495864
Probable space group: C C C M
;
_chemical_formula_sum "Si O2"
_cell_formula_units_Z 112
_cell_length_a 26.316145
_cell_length_b 12.512294
_cell_length_c 20.187666
_cell_angle_alpha 90.000000
_cell_angle_beta 90.000000
_cell_angle_gamma 90.000000
_cell_volume 6647.300650
_symmetry_space_group_name_H-M "C C C M"
_symmetry_group_IT_number 66
_symmetry_cell_setting 'orthorhombic'
loop_
_space_group_symop_operation_xyz
x,y,z
-x,-y,z
x,-y,1/2-z
-x,y,1/2-z
-x,-y,-z
x,y,-z
-x,y,1/2+z
x,-y,1/2+z
1/2+x,1/2+y,z
1/2-x,1/2-y,z
1/2+x,1/2-y,1/2-z
1/2-x,1/2+y,1/2-z
1/2-x,1/2-y,-z
1/2+x,1/2+y,-z
1/2-x,1/2+y,1/2+z
1/2+x,1/2-y,1/2+z
loop_
_atom_site_type_symbol
_atom_site_label
_atom_site_fract_x
_atom_site_fract_y
_atom_site_fract_z
Si Si1 0.271871 0.093519 0.426993
Si Si2 0.153799 0.878991 0.922693
Si Si3 0.341461 0.437080 0.818605
Si Si4 0.442150 0.984664 0.330026
Si Si5 0.133936 0.330718 0.348844
Si Si6 0.764433 0.366684 0.627081
Si Si7 0.870147 0.700635 0.191350
O O1 0.290681 0.126221 0.500000
O O2 0.215118 0.138010 0.417734
O O3 0.310669 0.128009 0.370609
O O4 0.268215 0.964835 0.423184
O O5 0.126347 0.777597 0.890162
O O6 0.145041 0.983898 0.878587
O O7 0.141866 0.892689 0.000000
O O8 0.349163 0.500000 0.750000
O O9 0.282013 0.402153 0.824970
O O10 0.371479 0.326113 0.823982
O O11 0.416083 0.869124 0.338400
O O12 0.500000 0.000000 0.352116
O O13 0.441473 0.000000 0.250000
O O14 0.406430 0.075434 0.361476
O O15 0.131543 0.308055 0.270847
O O16 0.750000 0.250000 0.598755
O O17 0.817693 0.350021 0.664183
#
# Coordination Sequence:
#
# PCOD9495864 Si02
#       7
#    16  16  16  16  16  16  16
#     4  10  20  31  45  70 106 144 180 210 251 312
#     4  10  21  34  49  76 111 147 176 207 257 315
#     4  10  19  31  50  77 108 140 174 216 250 307
#     4   9  19  34  54  80 104 130 167 222 278 317
#     4  11  19  30  53  74 103 136 173 219 261 313
#     4   9  19  29  45  72 103 138 175 211 257 304
#     4  10  19  32  51  78 103 135 176 218 266 308
#
# _framework density 16.848945000000001
#
# number of rings (size 3 to 8) (size 9 to 14) (size 15 to 20)
#    0.000    2.143    2.857    0.857    4.000    2.571 
#    0.000    2.143    0.000    2.571    0.000    1.000 
#    0.000    0.000    0.000    0.000    0.000    0.000 
#
# Total GULP energy -312153.806368 kJ/mol
# GULP energy per Si atom -5574.175114 kJ/mol
# Density = 1.681060 g / cm^3
# Si number density = 16.848945 Si / 1000 Ang^3
#
#
#
# Elastic Constant Matrix: (Units=GPa)
#
#
# Indices 1 2 3 4 5 6 
#
# 1 62.4385 54.2703 31.7489 0.0000 0.0000 0.0000
# 2 54.2703 144.6439 46.3294 0.0000 0.0000 0.0000
# 3 31.7489 46.3294 71.0656 0.0000 0.0000 0.0000
# 4 0.0000 0.0000 0.0000 11.1934 0.0000 0.0000
# 5 0.0000 0.0000 0.0000 0.0000 7.5410 0.0000
# 6 0.0000 0.0000 0.0000 0.0000 0.0000 17.6139
#
#
#
# Elastic Compliance Matrix: (Units=1/GPa)
#
#
# Indices 1 2 3 4 5 6 
#
# 1 0.026038 -0.007638 -0.006653 0.000000 0.000000 0.000000
# 2 -0.007638 0.010979 -0.003745 0.000000 0.000000 0.000000
# 3 -0.006653 -0.003745 0.019485 0.000000 0.000000 0.000000
# 4 0.000000 0.000000 0.000000 0.089338 0.000000 0.000000
# 5 0.000000 0.000000 0.000000 0.000000 0.132609 0.000000
# 6 0.000000 0.000000 0.000000 0.000000 0.000000 0.056773
#
#
# Mechanical properties :
#
#
# Convention : Reuss Voigt Hill
#
# Bulk Modulus (GPa) = 48.94896 60.31612 54.63254
# Shear Modulus (GPa) = 13.22384 16.98961 15.10673
#
# Velocity S-wave (km/s) = 2.80455 3.17890 2.99757
# Velocity P-wave (km/s) = 6.29302 7.02493 6.66902
#
# Compressibility (1/GPa) = 0.02042944
#
# Stress axis : x y z
#
# Youngs Moduli (GPa) = 38.40566 91.08310 51.32125
#
# Poissons Ratio (x) = 0.69574 0.34143
# Poissons Ratio (y) = 0.29336 0.19219
# Poissons Ratio (z) = 0.25551 0.34110
#
# Static dielectric constant tensor:
#      x y z
#    x 1.550620 0.000000 0.000000 
#    y 0.000000 1.606940 0.000000 
#    z 0.000000 0.000000 1.551000 
# 
# From -- ./inp_files/52576.got.cif
#   From: 2010.05.17/outbox.cif.g08.bks.cpg/sg66_27_cif.got.tgz:52576.got - 2010.06.03 17:51:23.
