data_PCOD9495501
_publ_section_title
;
Structure prediction by ZEFSAII (Michael W. Deem and Ramdas Pophale) SiO2 
 PCOD9495501
Probable space group: C C C M
;
_chemical_formula_sum "Si O2"
_cell_formula_units_Z 88
_cell_length_a 24.925631
_cell_length_b 20.263049
_cell_length_c 9.537738
_cell_angle_alpha 90.000000
_cell_angle_beta 90.000000
_cell_angle_gamma 90.000000
_cell_volume 4817.218487
_symmetry_space_group_name_H-M "C C C M"
_symmetry_group_IT_number 66
_symmetry_cell_setting 'orthorhombic'
loop_
_space_group_symop_operation_xyz
x,y,z
-x,-y,z
x,-y,1/2-z
-x,y,1/2-z
-x,-y,-z
x,y,-z
-x,y,1/2+z
x,-y,1/2+z
1/2+x,1/2+y,z
1/2-x,1/2-y,z
1/2+x,1/2-y,1/2-z
1/2-x,1/2+y,1/2-z
1/2-x,1/2-y,-z
1/2+x,1/2+y,-z
1/2-x,1/2+y,1/2+z
1/2+x,1/2-y,1/2+z
loop_
_atom_site_type_symbol
_atom_site_label
_atom_site_fract_x
_atom_site_fract_y
_atom_site_fract_z
Si Si1 0.250000 0.750000 0.249139
Si Si2 0.667940 0.438078 0.334435
Si Si3 0.230213 0.395761 0.340389
Si Si4 0.392088 0.935018 0.833837
Si Si5 0.945486 0.704687 0.667530
Si Si6 0.634574 0.708833 0.157561
O O1 0.235957 0.683624 0.164796
O O2 0.303556 0.732446 0.334601
O O3 0.644707 0.500000 0.250000
O O4 0.671853 0.450963 0.500000
O O5 0.726426 0.424452 0.266811
O O6 0.635895 0.369636 0.315917
O O7 0.241302 0.417795 0.500000
O O8 0.170009 0.416753 0.302062
O O9 0.427119 0.870481 0.802418
O O10 0.407995 0.000000 0.750000
O O11 0.395393 0.947586 0.000000
O O12 0.950897 0.712083 0.500000
O O13 0.899593 0.752356 0.728352
O O14 0.000000 0.718804 0.750000
O O15 0.614180 0.721648 0.000000
#
# Coordination Sequence:
#
# PCOD9495501 Si02
#       6
#     8  16  16  16  16  16
#     4  10  18  32  56  88 120 150 192 238 288 346
#     4  10  21  35  53  83 120 157 194 231 282 345
#     4  10  19  32  52  80 116 156 195 237 285 342
#     4  10  22  38  55  81 112 149 195 241 290 343
#     4  11  24  43  63  86 114 149 198 246 295 349
#     4  10  21  37  59  88 119 153 192 238 289 345
#
# _framework density 18.267803000000001
#
# number of rings (size 3 to 8) (size 9 to 14) (size 15 to 20)
#    0.000    1.818    1.818    2.182    0.000    8.364 
#    0.000    1.818    0.000    0.545    0.000    3.818 
#    0.000    0.000    0.000    0.000    0.000    0.000 
#
# Total GULP energy -245645.282510 kJ/mol
# GULP energy per Si atom -5582.847330 kJ/mol
# Density = 1.822622 g / cm^3
# Si number density = 18.267803 Si / 1000 Ang^3
#
#
#
# Elastic Constant Matrix: (Units=GPa)
#
#
# Indices 1 2 3 4 5 6 
#
# 1 65.0042 27.7174 39.2280 0.0000 0.0000 0.0000
# 2 27.7174 117.2975 58.2329 0.0000 0.0000 0.0000
# 3 39.2280 58.2329 98.4990 0.0000 0.0000 0.0000
# 4 0.0000 0.0000 0.0000 25.6530 0.0000 0.0000
# 5 0.0000 0.0000 0.0000 0.0000 -19.2461 0.0000
# 6 0.0000 0.0000 0.0000 0.0000 0.0000 11.6735
#
#
#
# Elastic Compliance Matrix: (Units=1/GPa)
#
#
# Indices 1 2 3 4 5 6 
#
# 1 0.020352 -0.001111 -0.007448 0.000000 0.000000 0.000000
# 2 -0.001111 0.012128 -0.006727 0.000000 0.000000 0.000000
# 3 -0.007448 -0.006727 0.017096 0.000000 0.000000 0.000000
# 4 0.000000 0.000000 0.000000 0.038982 0.000000 0.000000
# 5 0.000000 0.000000 0.000000 0.000000 -0.051959 0.000000
# 6 0.000000 0.000000 0.000000 0.000000 0.000000 0.085664
#
#
# Mechanical properties :
#
#
# Convention : Reuss Voigt Hill
#
# Bulk Modulus (GPa) = 52.62668 59.01750 55.82209
# Shear Modulus (GPa) = 31.41251 13.99089 22.70170
#
# Velocity S-wave (km/s) = 4.15125 2.77045 3.52904
# Velocity P-wave (km/s) = 7.20057 6.52770 6.87237
#
# Compressibility (1/GPa) = 0.01900177
#
# Stress axis : x y z
#
# Youngs Moduli (GPa) = 49.13418 82.45525 58.49320
#
# Poissons Ratio (x) = 0.09165 0.43568
# Poissons Ratio (y) = 0.05461 0.39350
# Poissons Ratio (z) = 0.36597 0.55470
#
# Static dielectric constant tensor:
#      x y z
#    x 1.607130 0.000000 0.000000 
#    y 0.000000 1.642550 0.000000 
#    z 0.000000 0.000000 1.615860 
# 
# From -- ./inp_files/7770.got.cif
#   From: 2010.05.17/outbox.cif.g08.bks.cpg/sg66_4_cif.got.tgz:7770.got - 2010.06.03 17:51:23.
