data_PCOD9495329
_publ_section_title
;
Structure prediction by ZEFSAII (Michael W. Deem and Ramdas Pophale) SiO2 
 PCOD9495329
Probable space group: C C C M
;
_chemical_formula_sum "Si O2"
_cell_formula_units_Z 116
_cell_length_a 25.170666
_cell_length_b 19.100557
_cell_length_c 13.812234
_cell_angle_alpha 90.000000
_cell_angle_beta 90.000000
_cell_angle_gamma 90.000000
_cell_volume 6640.559407
_symmetry_space_group_name_H-M "C C C M"
_symmetry_group_IT_number 66
_symmetry_cell_setting 'orthorhombic'
loop_
_space_group_symop_operation_xyz
x,y,z
-x,-y,z
x,-y,1/2-z
-x,y,1/2-z
-x,-y,-z
x,y,-z
-x,y,1/2+z
x,-y,1/2+z
1/2+x,1/2+y,z
1/2-x,1/2-y,z
1/2+x,1/2-y,1/2-z
1/2-x,1/2+y,1/2-z
1/2-x,1/2-y,-z
1/2+x,1/2+y,-z
1/2-x,1/2+y,1/2+z
1/2+x,1/2-y,1/2+z
loop_
_atom_site_type_symbol
_atom_site_label
_atom_site_fract_x
_atom_site_fract_y
_atom_site_fract_z
Si Si1 0.000000 0.000000 0.250000
Si Si2 0.304299 0.206978 0.383647
Si Si3 0.726535 0.072779 0.773319
Si Si4 0.774298 0.826524 0.115427
Si Si5 0.494711 0.620174 0.115691
Si Si6 0.335904 0.459405 0.382544
Si Si7 0.107778 0.186116 0.383239
Si Si8 0.383250 0.609783 0.383427
O O1 0.973485 0.947238 0.326269
O O2 0.305562 0.200500 0.500000
O O3 0.250000 0.250000 0.360962
O O4 0.302747 0.131122 0.336338
O O5 0.354512 0.252086 0.348456
O O6 0.744694 0.114237 0.677160
O O7 0.778533 0.049217 0.834248
O O8 0.697564 0.000000 0.750000
O O9 0.750000 0.750000 0.135214
O O10 0.836695 0.835585 0.141316
O O11 0.769193 0.839329 0.000000
O O12 0.454698 0.683086 0.139358
O O13 0.556391 0.627615 0.144657
O O14 0.491875 0.607267 0.000000
O O15 0.331136 0.460513 0.500000
O O16 0.367229 0.388785 0.355579
O O17 0.363900 0.532230 0.353143
O O18 0.111387 0.188767 0.500000
O O19 0.385104 0.607441 0.500000
#
# Coordination Sequence:
#
# PCOD9495329 Si02
#       8
#     4  16  16  16  16  16  16  16
#     4  12  22  32  48  74 104 152 184 216 244 292
#     4  10  19  34  54  78 102 130 172 223 276 318
#     4  12  22  32  51  77 100 136 174 216 266 314
#     4  10  22  37  49  68  99 139 178 211 251 301
#     4  10  21  36  49  70 103 140 183 218 253 296
#     4  10  18  30  48  73 104 136 172 213 253 299
#     4   9  18  33  53  72 100 134 168 219 265 301
#     4   9  18  34  53  70 101 143 178 215 249 297
#
# _framework density 17.468406999999999
#
# number of rings (size 3 to 8) (size 9 to 14) (size 15 to 20)
#    0.000    1.931    2.759    1.862    0.000    4.966 
#    1.241    0.000    0.000    0.000    0.000    0.000 
#    0.000    2.207    0.000   10.759    0.000    0.138 
#
# Total GULP energy -323668.252010 kJ/mol
# GULP energy per Si atom -5580.487104 kJ/mol
# Density = 1.742865 g / cm^3
# Si number density = 17.468407 Si / 1000 Ang^3
#
#
#
# Elastic Constant Matrix: (Units=GPa)
#
#
# Indices 1 2 3 4 5 6 
#
# 1 110.8501 78.4479 22.6188 0.0000 0.0000 0.0000
# 2 78.4479 136.8934 35.3213 0.0000 0.0000 0.0000
# 3 22.6188 35.3213 89.6450 0.0000 0.0000 0.0000
# 4 0.0000 0.0000 0.0000 24.1864 0.0000 0.0000
# 5 0.0000 0.0000 0.0000 0.0000 2.3456 0.0000
# 6 0.0000 0.0000 0.0000 0.0000 0.0000 28.7576
#
#
#
# Elastic Compliance Matrix: (Units=1/GPa)
#
#
# Indices 1 2 3 4 5 6 
#
# 1 0.015192 -0.008590 -0.000449 0.000000 0.000000 0.000000
# 2 -0.008590 0.012989 -0.002950 0.000000 0.000000 0.000000
# 3 -0.000449 -0.002950 0.012431 0.000000 0.000000 0.000000
# 4 0.000000 0.000000 0.000000 0.041345 0.000000 0.000000
# 5 0.000000 0.000000 0.000000 0.000000 0.426322 0.000000
# 6 0.000000 0.000000 0.000000 0.000000 0.000000 0.034773
#
#
# Mechanical properties :
#
#
# Convention : Reuss Voigt Hill
#
# Bulk Modulus (GPa) = 60.11964 67.79605 63.95785
# Shear Modulus (GPa) = 8.73248 24.45797 16.59523
#
# Velocity S-wave (km/s) = 2.23827 3.74589 3.08557
# Velocity P-wave (km/s) = 6.41644 7.58972 7.02761
#
# Compressibility (1/GPa) = 0.01663350
#
# Stress axis : x y z
#
# Youngs Moduli (GPa) = 65.82461 76.98919 80.44558
#
# Poissons Ratio (x) = 0.66135 0.03608
# Poissons Ratio (y) = 0.56544 0.23734
# Poissons Ratio (z) = 0.02952 0.22715
#
# Static dielectric constant tensor:
#      x y z
#    x 1.630430 0.000000 0.000000 
#    y 0.000000 1.596430 0.000000 
#    z 0.000000 0.000000 1.661060 
# 
# From -- ./inp_files/32671.got.cif
#   From: 2010.05.17/outbox.cif.g08.bks.cpg/sg66_17_cif.got.tgz:32671.got - 2010.06.03 17:51:23.
