data_PCOD9495805
_publ_section_title
;
Structure prediction by ZEFSAII (Michael W. Deem and Ramdas Pophale) SiO2 
 PCOD9495805
Probable space group: C C C M
;
_chemical_formula_sum "Si O2"
_cell_formula_units_Z 104
_cell_length_a 21.901528
_cell_length_b 10.255006
_cell_length_c 25.942191
_cell_angle_alpha 90.000000
_cell_angle_beta 90.000000
_cell_angle_gamma 90.000000
_cell_volume 5826.623908
_symmetry_space_group_name_H-M "C C C M"
_symmetry_group_IT_number 66
_symmetry_cell_setting 'orthorhombic'
loop_
_space_group_symop_operation_xyz
x,y,z
-x,-y,z
x,-y,1/2-z
-x,y,1/2-z
-x,-y,-z
x,y,-z
-x,y,1/2+z
x,-y,1/2+z
1/2+x,1/2+y,z
1/2-x,1/2-y,z
1/2+x,1/2-y,1/2-z
1/2-x,1/2+y,1/2-z
1/2-x,1/2-y,-z
1/2+x,1/2+y,-z
1/2-x,1/2+y,1/2+z
1/2+x,1/2-y,1/2+z
loop_
_atom_site_type_symbol
_atom_site_label
_atom_site_fract_x
_atom_site_fract_y
_atom_site_fract_z
Si Si1 0.250000 0.750000 0.160010
Si Si2 0.718425 0.434527 0.500000
Si Si3 0.619420 0.679804 0.294057
Si Si4 0.372912 0.852938 0.611999
Si Si5 0.627593 0.600660 0.175221
Si Si6 0.742503 0.525039 0.886880
Si Si7 0.570023 0.956863 0.694268
Si Si8 0.647544 0.158411 0.500000
O O1 0.310860 0.717512 0.191968
O O2 0.236327 0.620426 0.127152
O O3 0.707107 0.485364 0.558188
O O4 0.681672 0.298477 0.500000
O O5 0.792737 0.433890 0.500000
O O6 0.618833 0.653175 0.232984
O O7 0.600964 0.546209 0.323258
O O8 0.578042 0.802162 0.308767
O O9 0.392303 0.715010 0.636602
O O10 0.299345 0.875606 0.610555
O O11 0.390050 0.859555 0.552107
O O12 0.397838 0.966751 0.648178
O O13 0.697402 0.574357 0.157833
O O14 0.500000 0.000000 0.693810
O O15 0.596803 0.000000 0.750000
#
# Coordination Sequence:
#
# PCOD9495805 Si02
#       8
#     8   8  16  16  16  16  16   8
#     4  10  20  31  48  80 116 151 170 224 276 340
#     4   9  16  29  46  76 111 145 182 221 261 332
#     4  10  21  36  49  82 116 140 184 223 278 346
#     4  11  19  35  56  79 108 153 189 228 274 329
#     4  10  20  31  54  79 113 144 175 224 282 331
#     4  10  19  30  50  79 115 149 184 216 275 336
#     4  11  23  39  60  80 107 145 190 232 278 329
#     4   9  18  30  51  78 108 143 192 229 266 332
#
# _framework density 17.8491
#
# number of rings (size 3 to 8) (size 9 to 14) (size 15 to 20)
#    0.000    1.846    4.615    0.462    2.154    0.308 
#    0.000    1.154    0.000    0.923    0.000    1.077 
#    0.000    0.000    0.000    0.000    0.000    0.000 
#
# Total GULP energy -289503.698596 kJ/mol
# GULP energy per Si atom -5567.378819 kJ/mol
# Density = 1.780847 g / cm^3
# Si number density = 17.849100 Si / 1000 Ang^3
#
#
#
# Elastic Constant Matrix: (Units=GPa)
#
#
# Indices 1 2 3 4 5 6 
#
# 1 28.5477 20.2731 17.8035 0.0000 0.0000 0.0000
# 2 20.2731 134.7120 54.7059 0.0000 0.0000 0.0000
# 3 17.8035 54.7059 121.2986 0.0000 0.0000 0.0000
# 4 0.0000 0.0000 0.0000 9.6527 0.0000 0.0000
# 5 0.0000 0.0000 0.0000 0.0000 12.4958 0.0000
# 6 0.0000 0.0000 0.0000 0.0000 0.0000 19.2777
#
#
#
# Elastic Compliance Matrix: (Units=1/GPa)
#
#
# Indices 1 2 3 4 5 6 
#
# 1 0.040696 -0.004528 -0.003931 0.000000 0.000000 0.000000
# 2 -0.004528 0.009591 -0.003661 0.000000 0.000000 0.000000
# 3 -0.003931 -0.003661 0.010472 0.000000 0.000000 0.000000
# 4 0.000000 0.000000 0.000000 0.103598 0.000000 0.000000
# 5 0.000000 0.000000 0.000000 0.000000 0.080027 0.000000
# 6 0.000000 0.000000 0.000000 0.000000 0.000000 0.051874
#
#
# Mechanical properties :
#
#
# Convention : Reuss Voigt Hill
#
# Bulk Modulus (GPa) = 27.38262 52.23590 39.80926
# Shear Modulus (GPa) = 15.02983 21.07029 18.05006
#
# Velocity S-wave (km/s) = 2.90496 3.43952 3.18348
# Velocity P-wave (km/s) = 5.16006 6.71584 5.98869
#
# Compressibility (1/GPa) = 0.03651951
#
# Stress axis : x y z
#
# Youngs Moduli (GPa) = 24.57229 104.25929 95.49024
#
# Poissons Ratio (x) = 0.47210 0.37537
# Poissons Ratio (y) = 0.11127 0.34961
# Poissons Ratio (z) = 0.09659 0.38171
#
# Static dielectric constant tensor:
#      x y z
#    x 1.609030 0.000000 0.000000 
#    y 0.000000 1.645310 0.000000 
#    z 0.000000 0.000000 1.642550 
# 
# From -- ./inp_files/60188.got.cif
#   From: 2010.05.17/outbox.cif.g08.bks.cpg/sg66_31_cif.got.tgz:60188.got - 2010.06.03 17:51:23.
