data_PCOD9495817
_publ_section_title
;
Structure prediction by ZEFSAII (Michael W. Deem and Ramdas Pophale) SiO2 
 PCOD9495817
Probable space group: C C C M
;
_chemical_formula_sum "Si O2"
_cell_formula_units_Z 116
_cell_length_a 23.606333
_cell_length_b 30.866853
_cell_length_c 7.307848
_cell_angle_alpha 90.000000
_cell_angle_beta 90.000000
_cell_angle_gamma 90.000000
_cell_volume 5324.886908
_symmetry_space_group_name_H-M "C C C M"
_symmetry_group_IT_number 66
_symmetry_cell_setting 'orthorhombic'
loop_
_space_group_symop_operation_xyz
x,y,z
-x,-y,z
x,-y,1/2-z
-x,y,1/2-z
-x,-y,-z
x,y,-z
-x,y,1/2+z
x,-y,1/2+z
1/2+x,1/2+y,z
1/2-x,1/2-y,z
1/2+x,1/2-y,1/2-z
1/2-x,1/2+y,1/2-z
1/2-x,1/2-y,-z
1/2+x,1/2+y,-z
1/2-x,1/2+y,1/2+z
1/2+x,1/2-y,1/2+z
loop_
_atom_site_type_symbol
_atom_site_label
_atom_site_fract_x
_atom_site_fract_y
_atom_site_fract_z
Si Si1 0.415207 0.258419 0.708416
Si Si2 0.773152 0.451372 0.783374
Si Si3 0.183857 0.880805 0.224347
Si Si4 0.214303 0.787448 0.208457
Si Si5 0.000000 0.500000 0.250000
Si Si6 0.061602 0.147560 0.281905
Si Si7 0.901137 0.566865 0.275079
Si Si8 0.433947 0.162229 0.283743
O O1 0.438481 0.255008 0.500000
O O2 0.349133 0.269649 0.698718
O O3 0.439239 0.302882 0.792956
O O4 0.421442 0.210535 0.790770
O O5 0.753887 0.500000 0.750000
O O6 0.725224 0.418711 0.713248
O O7 0.838083 0.447335 0.717626
O O8 0.777413 0.443103 0.000000
O O9 0.211209 0.835338 0.284979
O O10 0.117697 0.878004 0.281544
O O11 0.183065 0.881344 0.000000
O O12 0.250000 0.750000 0.299679
O O13 0.236714 0.792876 0.000000
O O14 0.048577 0.463588 0.197706
O O15 0.068961 0.152281 0.500000
O O16 0.000000 0.127478 0.250000
O O17 0.907109 0.563681 0.500000
O O18 0.906160 0.617387 0.220264
O O19 0.500000 0.155468 0.250000
O O20 0.420452 0.164319 0.500000
#
# Coordination Sequence:
#
# PCOD9495817 Si02
#       8
#    16  16  16  16   4  16  16  16
#     4   8  15  25  40  63  96 125 155 191 230 276
#     4  10  20  36  54  74  96 126 161 203 250 295
#     4   8  16  29  47  70 100 127 158 199 245 289
#     4   8  13  21  37  65  94 125 154 189 235 283
#     4  12  18  36  48  66  92 124 164 204 246 288
#     4   9  16  29  48  74 101 131 159 191 233 285
#     4  10  21  32  48  68  92 124 160 200 248 291
#     4  10  19  31  44  65  92 122 155 195 236 279
#
# _framework density 21.784500000000001
#
# number of rings (size 3 to 8) (size 9 to 14) (size 15 to 20)
#    0.000    2.897    1.379    2.276    1.931    0.000 
#    0.000    1.379    0.000    0.414    0.000    2.897 
#    0.000    3.862    0.000    0.000    0.000    0.000 
#
# Total GULP energy -322921.953497 kJ/mol
# GULP energy per Si atom -5567.619888 kJ/mol
# Density = 2.173492 g / cm^3
# Si number density = 21.784500 Si / 1000 Ang^3
#
#
#
# Elastic Constant Matrix: (Units=GPa)
#
#
# Indices 1 2 3 4 5 6 
#
# 1 154.8730 105.5033 6.5833 0.0000 0.0000 0.0000
# 2 105.5033 150.2232 2.6549 0.0000 0.0000 0.0000
# 3 6.5833 2.6549 93.0520 0.0000 0.0000 0.0000
# 4 0.0000 0.0000 0.0000 -75.3473 0.0000 0.0000
# 5 0.0000 0.0000 0.0000 0.0000 -2.0720 0.0000
# 6 0.0000 0.0000 0.0000 0.0000 0.0000 36.1787
#
#
#
# Elastic Compliance Matrix: (Units=1/GPa)
#
#
# Indices 1 2 3 4 5 6 
#
# 1 0.012417 -0.008709 -0.000630 0.000000 0.000000 0.000000
# 2 -0.008709 0.012769 0.000252 0.000000 0.000000 0.000000
# 3 -0.000630 0.000252 0.010784 0.000000 0.000000 0.000000
# 4 0.000000 0.000000 0.000000 -0.013272 0.000000 0.000000
# 5 0.000000 0.000000 0.000000 0.000000 -0.482614 0.000000
# 6 0.000000 0.000000 0.000000 0.000000 0.000000 0.027641
#
#
# Mechanical properties :
#
#
# Convention : Reuss Voigt Hill
#
# Bulk Modulus (GPa) = 56.19583 69.73681 62.96632
# Shear Modulus (GPa) = -12.24980 10.64564 -0.80208
#
# Velocity S-wave (km/s) = -2.37390 2.21301 -0.60744
# Velocity P-wave (km/s) = 4.28234 6.21381 5.33619
#
# Compressibility (1/GPa) = 0.01779492
#
# Stress axis : x y z
#
# Youngs Moduli (GPa) = 80.53753 78.31565 92.72946
#
# Poissons Ratio (x) = 0.68206 0.05842
# Poissons Ratio (y) = 0.70141 -0.02335
# Poissons Ratio (z) = 0.05074 -0.01972
#
# Static dielectric constant tensor:
#      x y z
#    x 1.783720 0.000000 0.000000 
#    y 0.000000 1.794210 0.000000 
#    z 0.000000 0.000000 1.963380 
# 
# From -- ./inp_files/9640.got.cif
#   From: 2010.05.17/outbox.cif.g08.bks.cpg/sg66_5_cif.got.tgz:9640.got - 2010.06.03 17:51:23.
