data_PCOD9495184
_publ_section_title
;
Structure prediction by ZEFSAII (Michael W. Deem and Ramdas Pophale) SiO2 
 PCOD9495184
Probable space group: C C C M
;
_chemical_formula_sum "Si O2"
_cell_formula_units_Z 88
_cell_length_a 19.669430
_cell_length_b 14.104560
_cell_length_c 19.529455
_cell_angle_alpha 90.000000
_cell_angle_beta 90.000000
_cell_angle_gamma 90.000000
_cell_volume 5418.030445
_symmetry_space_group_name_H-M "C C C M"
_symmetry_group_IT_number 66
_symmetry_cell_setting 'orthorhombic'
loop_
_space_group_symop_operation_xyz
x,y,z
-x,-y,z
x,-y,1/2-z
-x,y,1/2-z
-x,-y,-z
x,y,-z
-x,y,1/2+z
x,-y,1/2+z
1/2+x,1/2+y,z
1/2-x,1/2-y,z
1/2+x,1/2-y,1/2-z
1/2-x,1/2+y,1/2-z
1/2-x,1/2-y,-z
1/2+x,1/2+y,-z
1/2-x,1/2+y,1/2+z
1/2+x,1/2-y,1/2+z
loop_
_atom_site_type_symbol
_atom_site_label
_atom_site_fract_x
_atom_site_fract_y
_atom_site_fract_z
Si Si1 0.895647 0.784726 0.425164
Si Si2 0.078709 0.993618 0.578930
Si Si3 0.852984 0.096857 0.294541
Si Si4 0.711782 0.112740 0.243115
Si Si5 0.425411 0.227997 0.274723
Si Si6 0.750000 0.750000 0.377025
O O1 0.925091 0.760244 0.500000
O O2 0.896440 0.898229 0.418507
O O3 0.927848 0.739949 0.357080
O O4 0.817381 0.755267 0.420693
O O5 0.081469 0.960657 0.500000
O O6 0.120063 0.928836 0.630728
O O7 0.000000 0.000000 0.600304
O O8 0.775091 0.134205 0.294016
O O9 0.902655 0.171418 0.257783
O O10 0.853133 0.000000 0.250000
O O11 0.637601 0.160667 0.247384
O O12 0.742356 0.158136 0.172764
O O13 0.702466 0.000000 0.250000
O O14 0.500000 0.199358 0.250000
#
# Coordination Sequence:
#
# PCOD9495184 Si02
#       6
#    16  16  16  16  16   8
#     4  10  18  31  49  75 107 133 164 216 271 313
#     4  10  20  31  46  76 113 141 168 211 269 321
#     4  11  18  31  54  76 103 137 168 215 262 314
#     4  10  19  34  53  75 106 132 173 217 258 305
#     4  11  21  33  51  78 104 139 180 214 257 318
#     4  10  17  34  50  84  99 132 168 214 273 306
#
# _framework density 16.242065
#
# number of rings (size 3 to 8) (size 9 to 14) (size 15 to 20)
#    0.000    1.636    5.455    2.455    0.000    0.364 
#    0.000    0.000    0.000    3.273    0.000    5.091 
#    0.000    0.000    0.000    0.000    0.000    0.000 
#
# Total GULP energy -245016.321199 kJ/mol
# GULP energy per Si atom -5568.552755 kJ/mol
# Density = 1.620510 g / cm^3
# Si number density = 16.242065 Si / 1000 Ang^3
#
#
#
# Elastic Constant Matrix: (Units=GPa)
#
#
# Indices 1 2 3 4 5 6 
#
# 1 98.6724 6.6871 61.3229 0.0000 0.0000 0.0000
# 2 6.6871 54.5004 28.1157 0.0000 0.0000 0.0000
# 3 61.3229 28.1157 106.2230 0.0000 0.0000 0.0000
# 4 0.0000 0.0000 0.0000 23.8876 0.0000 0.0000
# 5 0.0000 0.0000 0.0000 0.0000 21.7861 0.0000
# 6 0.0000 0.0000 0.0000 0.0000 0.0000 4.9307
#
#
#
# Elastic Compliance Matrix: (Units=1/GPa)
#
#
# Indices 1 2 3 4 5 6 
#
# 1 0.016304 0.003307 -0.010288 0.000000 0.000000 0.000000
# 2 0.003307 0.021921 -0.007711 0.000000 0.000000 0.000000
# 3 -0.010288 -0.007711 0.017394 0.000000 0.000000 0.000000
# 4 0.000000 0.000000 0.000000 0.041863 0.000000 0.000000
# 5 0.000000 0.000000 0.000000 0.000000 0.045901 0.000000
# 6 0.000000 0.000000 0.000000 0.000000 0.000000 0.202813
#
#
# Mechanical properties :
#
#
# Convention : Reuss Voigt Hill
#
# Bulk Modulus (GPa) = 38.11697 50.18302 44.15000
# Shear Modulus (GPa) = 13.00985 21.00554 17.00770
#
# Velocity S-wave (km/s) = 2.83326 3.60012 3.23946
# Velocity P-wave (km/s) = 5.84997 6.94588 6.42135
#
# Compressibility (1/GPa) = 0.02623503
#
# Stress axis : x y z
#
# Youngs Moduli (GPa) = 61.33482 45.61888 57.49044
#
# Poissons Ratio (x) = -0.15085 0.59144
# Poissons Ratio (y) = -0.20282 0.44331
# Poissons Ratio (z) = 0.63099 0.35177
#
# Static dielectric constant tensor:
#      x y z
#    x 1.568590 0.000000 0.000000 
#    y 0.000000 1.539950 0.000000 
#    z 0.000000 0.000000 1.563530 
# 
# From -- ./inp_files/40488.got.cif
#   From: 2010.05.17/outbox.cif.g08.bks.cpg/sg66_21_cif.got.tgz:40488.got - 2010.06.03 17:51:23.
