data_PCOD9495548
_publ_section_title
;
Structure prediction by ZEFSAII (Michael W. Deem and Ramdas Pophale) SiO2 
 PCOD9495548
Probable space group: C C C M
;
_chemical_formula_sum "Si O2"
_cell_formula_units_Z 64
_cell_length_a 14.300499
_cell_length_b 9.553456
_cell_length_c 20.059799
_cell_angle_alpha 90.000000
_cell_angle_beta 90.000000
_cell_angle_gamma 90.000000
_cell_volume 2740.553450
_symmetry_space_group_name_H-M "C C C M"
_symmetry_group_IT_number 66
_symmetry_cell_setting 'orthorhombic'
loop_
_space_group_symop_operation_xyz
x,y,z
-x,-y,z
x,-y,1/2-z
-x,y,1/2-z
-x,-y,-z
x,y,-z
-x,y,1/2+z
x,-y,1/2+z
1/2+x,1/2+y,z
1/2-x,1/2-y,z
1/2+x,1/2-y,1/2-z
1/2-x,1/2+y,1/2-z
1/2-x,1/2-y,-z
1/2+x,1/2+y,-z
1/2-x,1/2+y,1/2+z
1/2+x,1/2-y,1/2+z
loop_
_atom_site_type_symbol
_atom_site_label
_atom_site_fract_x
_atom_site_fract_y
_atom_site_fract_z
Si Si1 0.669322 0.897489 0.646577
Si Si2 0.638619 0.645769 0.726485
Si Si3 0.144606 0.283695 0.870283
Si Si4 0.554227 0.783960 0.000000
Si Si5 0.350079 0.088166 0.500000
O O1 0.606998 0.768812 0.674952
O O2 0.761525 0.897462 0.692934
O O3 0.698638 0.879827 0.569584
O O4 0.624665 0.051528 0.643640
O O5 0.594497 0.500000 0.750000
O O6 0.642376 0.720004 0.797391
O O7 0.250000 0.250000 0.894621
O O8 0.080018 0.219663 0.928465
O O9 0.447244 0.827953 0.000000
O O10 0.618832 0.924926 0.000000
#
# Coordination Sequence:
#
# PCOD9495548 Si02
#       5
#    16  16  16   8   8
#     4  10  18  33  56  81 113 138 181 227 277 329
#     4  11  19  32  54  86 111 139 180 232 282 322
#     4  11  18  33  57  85 110 137 178 236 280 323
#     4   9  21  36  55  81 111 145 188 224 274 332
#     4   9  20  37  55  79 111 150 184 225 269 336
#
# _framework density 23.352945999999999
#
# number of rings (size 3 to 8) (size 9 to 14) (size 15 to 20)
#    0.000    1.750    5.000    1.125    0.000    2.000 
#    0.000    2.500    0.000   10.500    0.000    0.000 
#    0.000    0.000    0.000    0.000    0.000    0.000 
#
# Total GULP energy -178186.692626 kJ/mol
# GULP energy per Si atom -5568.334145 kJ/mol
# Density = 2.329979 g / cm^3
# Si number density = 23.352946 Si / 1000 Ang^3
#
#
#
# Elastic Constant Matrix: (Units=GPa)
#
#
# Indices 1 2 3 4 5 6 
#
# 1 22.5231 5.8187 29.0937 0.0000 0.0000 0.0000
# 2 5.8187 113.7428 31.8521 0.0000 0.0000 0.0000
# 3 29.0937 31.8521 219.1939 0.0000 0.0000 0.0000
# 4 0.0000 0.0000 0.0000 9.2514 0.0000 0.0000
# 5 0.0000 0.0000 0.0000 0.0000 26.9210 0.0000
# 6 0.0000 0.0000 0.0000 0.0000 0.0000 -2.7216
#
#
#
# Elastic Compliance Matrix: (Units=1/GPa)
#
#
# Indices 1 2 3 4 5 6 
#
# 1 0.053653 -0.000782 -0.007008 0.000000 0.000000 0.000000
# 2 -0.000782 0.009176 -0.001230 0.000000 0.000000 0.000000
# 3 -0.007008 -0.001230 0.005671 0.000000 0.000000 0.000000
# 4 0.000000 0.000000 0.000000 0.108092 0.000000 0.000000
# 5 0.000000 0.000000 0.000000 0.000000 0.037146 0.000000
# 6 0.000000 0.000000 0.000000 0.000000 0.000000 -0.367432
#
#
# Mechanical properties :
#
#
# Convention : Reuss Voigt Hill
#
# Bulk Modulus (GPa) = 19.81734 54.33210 37.07472
# Shear Modulus (GPa) = -42.07534 25.93650 -8.06942
#
# Velocity S-wave (km/s) = -4.24927 3.33623 -1.86089
# Velocity P-wave (km/s) = 3.94596 6.17711 3.36052
#
# Compressibility (1/GPa) = 0.05046085
#
# Stress axis : x y z
#
# Youngs Moduli (GPa) = 18.63830 108.97857 176.33616
#
# Poissons Ratio (x) = 0.08526 1.23571
# Poissons Ratio (y) = 0.01458 0.21682
# Poissons Ratio (z) = 0.13061 0.13400
#
# Static dielectric constant tensor:
#      x y z
#    x 1.923640 0.000000 0.000000 
#    y 0.000000 2.007250 0.000000 
#    z 0.000000 0.000000 1.873760 
# 
# From -- ./inp_files/42615.got.cif
#   From: 2010.05.17/outbox.cif.g08.bks.cpg/sg66_22_cif.got.tgz:42615.got - 2010.06.03 17:51:23.
