data_PCOD9495892
_publ_section_title
;
Structure prediction by ZEFSAII (Michael W. Deem and Ramdas Pophale) SiO2 
 PCOD9495892
Probable space group: C C C M
;
_chemical_formula_sum "Si O2"
_cell_formula_units_Z 68
_cell_length_a 16.527897
_cell_length_b 9.784252
_cell_length_c 18.154998
_cell_angle_alpha 90.000000
_cell_angle_beta 90.000000
_cell_angle_gamma 90.000000
_cell_volume 2935.901176
_symmetry_space_group_name_H-M "C C C M"
_symmetry_group_IT_number 66
_symmetry_cell_setting 'orthorhombic'
loop_
_space_group_symop_operation_xyz
x,y,z
-x,-y,z
x,-y,1/2-z
-x,y,1/2-z
-x,-y,-z
x,y,-z
-x,y,1/2+z
x,-y,1/2+z
1/2+x,1/2+y,z
1/2-x,1/2-y,z
1/2+x,1/2-y,1/2-z
1/2-x,1/2+y,1/2-z
1/2-x,1/2-y,-z
1/2+x,1/2+y,-z
1/2-x,1/2+y,1/2+z
1/2+x,1/2-y,1/2+z
loop_
_atom_site_type_symbol
_atom_site_label
_atom_site_fract_x
_atom_site_fract_y
_atom_site_fract_z
Si Si1 0.614916 0.501957 0.836479
Si Si2 0.000000 0.500000 0.000000
Si Si3 0.192266 0.461896 0.665770
Si Si4 0.152930 0.272888 0.084131
Si Si5 0.589372 0.759223 0.418325
O O1 0.595061 0.500000 0.750000
O O2 0.711113 0.466831 0.844209
O O3 0.611735 0.654551 0.869081
O O4 0.567566 0.386560 0.882533
O O5 0.974261 0.380878 0.936748
O O6 0.176293 0.500000 0.750000
O O7 0.149430 0.577082 0.616695
O O8 0.153648 0.322520 0.638443
O O9 0.250000 0.250000 0.084001
O O10 0.125056 0.270251 0.000000
O O11 0.625714 0.730870 0.500000
#
# Coordination Sequence:
#
# PCOD9495892 Si02
#       5
#    16   4  16  16  16
#     4  10  19  31  53  88 124 156 191 256 336 402
#     4   8  24  40  56  82 112 164 238 284 292 338
#     4  10  19  31  52  86 122 156 198 252 323 397
#     4   9  17  28  43  73 116 149 181 226 293 379
#     4  10  20  37  58  79 121 166 222 267 310 364
#
# _framework density 23.161541
#
# number of rings (size 3 to 8) (size 9 to 14) (size 15 to 20)
#    0.706    1.647    0.000    3.529    0.000    7.529 
#    0.000    0.588    0.000    2.824    0.000    1.647 
#    0.000    0.000    0.000    0.000    0.000    0.000 
#
# Total GULP energy -189358.158014 kJ/mol
# GULP energy per Si atom -5569.357589 kJ/mol
# Density = 2.310882 g / cm^3
# Si number density = 23.161541 Si / 1000 Ang^3
#
#
#
# Elastic Constant Matrix: (Units=GPa)
#
#
# Indices 1 2 3 4 5 6 
#
# 1 89.7310 19.1275 12.5111 0.0000 0.0000 0.0000
# 2 19.1275 179.9861 57.3599 0.0000 0.0000 0.0000
# 3 12.5111 57.3599 113.6895 0.0000 0.0000 0.0000
# 4 0.0000 0.0000 0.0000 42.4443 0.0000 0.0000
# 5 0.0000 0.0000 0.0000 0.0000 -13.2290 0.0000
# 6 0.0000 0.0000 0.0000 0.0000 0.0000 31.8397
#
#
#
# Elastic Compliance Matrix: (Units=1/GPa)
#
#
# Indices 1 2 3 4 5 6 
#
# 1 0.011459 -0.000972 -0.000771 0.000000 0.000000 0.000000
# 2 -0.000972 0.006703 -0.003275 0.000000 0.000000 0.000000
# 3 -0.000771 -0.003275 0.010533 0.000000 0.000000 0.000000
# 4 0.000000 0.000000 0.000000 0.023560 0.000000 0.000000
# 5 0.000000 0.000000 0.000000 0.000000 -0.075592 0.000000
# 6 0.000000 0.000000 0.000000 0.000000 0.000000 0.031407
#
#
# Mechanical properties :
#
#
# Convention : Reuss Voigt Hill
#
# Bulk Modulus (GPa) = 53.59111 62.37817 57.98464
# Shear Modulus (GPa) = 205.53997 31.83820 118.68908
#
# Velocity S-wave (km/s) = 9.43051 3.71160 7.16626
# Velocity P-wave (km/s) = 11.90662 6.73485 9.67279
#
# Compressibility (1/GPa) = 0.01865981
#
# Stress axis : x y z
#
# Youngs Moduli (GPa) = 87.26686 149.18741 94.94011
#
# Poissons Ratio (x) = 0.14504 0.07315
# Poissons Ratio (y) = 0.08484 0.31092
# Poissons Ratio (z) = 0.06724 0.48857
#
# Static dielectric constant tensor:
#      x y z
#    x 1.953980 0.000000 0.000000 
#    y 0.000000 1.823090 0.000000 
#    z 0.000000 0.000000 1.790440 
# 
# From -- ./inp_files/42480.got.cif
#   From: 2010.05.17/outbox.cif.g08.bks.cpg/sg66_22_cif.got.tgz:42480.got - 2010.06.03 17:51:23.
