data_PCOD9495250
_publ_section_title
;
Structure prediction by ZEFSAII (Michael W. Deem and Ramdas Pophale) SiO2 
 PCOD9495250
Probable space group: C C C M
;
_chemical_formula_sum "Si O2"
_cell_formula_units_Z 80
_cell_length_a 19.737653
_cell_length_b 16.523372
_cell_length_c 14.206351
_cell_angle_alpha 90.000000
_cell_angle_beta 90.000000
_cell_angle_gamma 90.000000
_cell_volume 4633.153946
_symmetry_space_group_name_H-M "C C C M"
_symmetry_group_IT_number 66
_symmetry_cell_setting 'orthorhombic'
loop_
_space_group_symop_operation_xyz
x,y,z
-x,-y,z
x,-y,1/2-z
-x,y,1/2-z
-x,-y,-z
x,y,-z
-x,y,1/2+z
x,-y,1/2+z
1/2+x,1/2+y,z
1/2-x,1/2-y,z
1/2+x,1/2-y,1/2-z
1/2-x,1/2+y,1/2-z
1/2-x,1/2-y,-z
1/2+x,1/2+y,-z
1/2-x,1/2+y,1/2+z
1/2+x,1/2-y,1/2+z
loop_
_atom_site_type_symbol
_atom_site_label
_atom_site_fract_x
_atom_site_fract_y
_atom_site_fract_z
Si Si1 0.654770 0.226826 0.608338
Si Si2 0.403926 0.023671 0.605927
Si Si3 0.723846 0.624387 0.806642
Si Si4 0.253546 0.448317 0.388806
Si Si5 0.474090 0.867225 0.652875
O O1 0.676869 0.228200 0.500000
O O2 0.667662 0.313742 0.655144
O O3 0.704411 0.165763 0.664716
O O4 0.578009 0.195369 0.609370
O O5 0.404131 0.987889 0.500000
O O6 0.328067 0.050945 0.625036
O O7 0.458307 0.096080 0.606196
O O8 0.429755 0.949069 0.668306
O O9 0.719318 0.609737 0.694267
O O10 0.722017 0.538399 0.860106
O O11 0.267129 0.431357 0.500000
O O12 0.500000 0.831916 0.750000
#
# Coordination Sequence:
#
# PCOD9495250 Si02
#       5
#    16  16  16  16  16
#     4  11  20  34  50  71 104 144 187 227 260 315
#     4  10  18  28  45  72 104 139 172 208 258 316
#     4  10  20  31  52  76 101 141 185 221 270 313
#     4  10  19  33  52  78 108 137 176 225 274 324
#     4  11  20  28  45  70 103 139 174 210 260 310
#
# _framework density 17.266856000000001
#
# number of rings (size 3 to 8) (size 9 to 14) (size 15 to 20)
#    0.000    1.600    2.000    7.200    2.800    0.000 
#    0.000    2.000    0.000    3.600    0.000    2.800 
#    0.000    8.000    0.000    0.000    0.000    0.000 
#
# Total GULP energy -222883.700312 kJ/mol
# GULP energy per Si atom -5572.092508 kJ/mol
# Density = 1.722756 g / cm^3
# Si number density = 17.266856 Si / 1000 Ang^3
#
#
#
# Elastic Constant Matrix: (Units=GPa)
#
#
# Indices 1 2 3 4 5 6 
#
# 1 57.5263 34.3775 20.1216 0.0000 0.0000 0.0000
# 2 34.3775 77.6398 44.2131 0.0000 0.0000 0.0000
# 3 20.1216 44.2131 128.6079 0.0000 0.0000 0.0000
# 4 0.0000 0.0000 0.0000 24.3595 0.0000 0.0000
# 5 0.0000 0.0000 0.0000 0.0000 10.6468 0.0000
# 6 0.0000 0.0000 0.0000 0.0000 0.0000 33.1630
#
#
#
# Elastic Compliance Matrix: (Units=1/GPa)
#
#
# Indices 1 2 3 4 5 6 
#
# 1 0.023640 -0.010396 -0.000125 0.000000 0.000000 0.000000
# 2 -0.010396 0.020587 -0.005451 0.000000 0.000000 0.000000
# 3 -0.000125 -0.005451 0.009669 0.000000 0.000000 0.000000
# 4 0.000000 0.000000 0.000000 0.041052 0.000000 0.000000
# 5 0.000000 0.000000 0.000000 0.000000 0.093925 0.000000
# 6 0.000000 0.000000 0.000000 0.000000 0.000000 0.030154
#
#
# Mechanical properties :
#
#
# Convention : Reuss Voigt Hill
#
# Bulk Modulus (GPa) = 45.55299 51.24425 48.39862
# Shear Modulus (GPa) = 19.35823 24.63798 21.99811
#
# Velocity S-wave (km/s) = 3.35195 3.78152 3.57320
# Velocity P-wave (km/s) = 6.43582 6.98633 6.71672
#
# Compressibility (1/GPa) = 0.02195246
#
# Stress axis : x y z
#
# Youngs Moduli (GPa) = 42.30170 48.57332 103.42318
#
# Poissons Ratio (x) = 0.50498 0.01288
# Poissons Ratio (y) = 0.43978 0.56376
# Poissons Ratio (z) = 0.00527 0.26477
#
# Static dielectric constant tensor:
#      x y z
#    x 1.588760 0.000000 0.000000 
#    y 0.000000 1.583210 0.000000 
#    z 0.000000 0.000000 1.649760 
# 
# From -- ./inp_files/29951.got.cif
#   From: 2010.05.17/outbox.cif.g08.bks.cpg/sg66_15_cif.got.tgz:29951.got - 2010.06.03 17:51:23.
