data_PCOD9495964
_publ_section_title
;
Structure prediction by ZEFSAII (Michael W. Deem and Ramdas Pophale) SiO2 
 PCOD9495964
Probable space group: C C C M
;
_chemical_formula_sum "Si O2"
_cell_formula_units_Z 116
_cell_length_a 26.966898
_cell_length_b 26.847314
_cell_length_c 8.987943
_cell_angle_alpha 90.000000
_cell_angle_beta 90.000000
_cell_angle_gamma 90.000000
_cell_volume 6507.169871
_symmetry_space_group_name_H-M "C C C M"
_symmetry_group_IT_number 66
_symmetry_cell_setting 'orthorhombic'
loop_
_space_group_symop_operation_xyz
x,y,z
-x,-y,z
x,-y,1/2-z
-x,y,1/2-z
-x,-y,-z
x,y,-z
-x,y,1/2+z
x,-y,1/2+z
1/2+x,1/2+y,z
1/2-x,1/2-y,z
1/2+x,1/2-y,1/2-z
1/2-x,1/2+y,1/2-z
1/2-x,1/2-y,-z
1/2+x,1/2+y,-z
1/2-x,1/2+y,1/2+z
1/2+x,1/2-y,1/2+z
loop_
_atom_site_type_symbol
_atom_site_label
_atom_site_fract_x
_atom_site_fract_y
_atom_site_fract_z
Si Si1 0.181526 0.053216 0.323005
Si Si2 0.586658 0.312423 0.326334
Si Si3 0.551291 0.202193 0.322901
Si Si4 0.685819 0.288033 0.171317
Si Si5 0.500000 0.500000 0.250000
Si Si6 0.346632 0.173277 0.325568
Si Si7 0.247852 0.636032 0.676291
Si Si8 0.580925 0.422539 0.664895
O O1 0.186808 0.051942 0.500000
O O2 0.217731 0.094535 0.253195
O O3 0.124398 0.065200 0.279982
O O4 0.193054 0.000000 0.250000
O O5 0.603138 0.308052 0.500000
O O6 0.556960 0.261967 0.294730
O O7 0.633840 0.312602 0.218563
O O8 0.561537 0.366232 0.311225
O O9 0.500000 0.185324 0.250000
O O10 0.550896 0.194807 0.500000
O O11 0.599635 0.176772 0.250979
O O12 0.675811 0.229389 0.184533
O O13 0.726095 0.311743 0.279213
O O14 0.699158 0.299254 0.000000
O O15 0.462687 0.537452 0.332100
O O16 0.350987 0.161164 0.500000
O O17 0.307356 0.138065 0.243526
O O18 0.247099 0.629669 0.500000
O O19 0.604485 0.423650 0.500000
#
# Coordination Sequence:
#
# PCOD9495964 Si02
#       8
#    16  16  16  16   4  16  16  16
#     4  12  25  42  63  83 107 141 182 232 288 346
#     4   9  19  34  52  72 101 139 183 229 279 338
#     4  10  20  35  54  78 109 148 187 229 276 328
#     4  10  19  32  52  79 109 142 180 223 275 333
#     4  12  26  36  60  78 106 136 190 252 304 344
#     4  10  21  36  54  80 113 146 185 229 272 331
#     4  12  23  36  56  82 112 145 181 224 278 340
#     4  11  23  40  56  76 104 138 182 238 296 347
#
# _framework density 17.82649
#
# number of rings (size 3 to 8) (size 9 to 14) (size 15 to 20)
#    0.000    1.379    2.069    4.345    0.966    4.414 
#    0.000    0.000    0.000    0.000    0.000    0.000 
#    0.000    0.552    0.000    5.517    0.000    3.310 
#
# Total GULP energy -323861.043182 kJ/mol
# GULP energy per Si atom -5583.811089 kJ/mol
# Density = 1.778592 g / cm^3
# Si number density = 17.826490 Si / 1000 Ang^3
#
#
#
# Elastic Constant Matrix: (Units=GPa)
#
#
# Indices 1 2 3 4 5 6 
#
# 1 124.3155 34.3390 72.8597 0.0000 0.0000 0.0000
# 2 34.3390 38.2617 27.3548 0.0000 0.0000 0.0000
# 3 72.8597 27.3548 131.8189 0.0000 0.0000 0.0000
# 4 0.0000 0.0000 0.0000 -18.7483 0.0000 0.0000
# 5 0.0000 0.0000 0.0000 0.0000 23.7473 0.0000
# 6 0.0000 0.0000 0.0000 0.0000 0.0000 27.0991
#
#
#
# Elastic Compliance Matrix: (Units=1/GPa)
#
#
# Indices 1 2 3 4 5 6 
#
# 1 0.013754 -0.008112 -0.005919 0.000000 0.000000 0.000000
# 2 -0.008112 0.035474 -0.002878 0.000000 0.000000 0.000000
# 3 -0.005919 -0.002878 0.011455 0.000000 0.000000 0.000000
# 4 0.000000 0.000000 0.000000 -0.053338 0.000000 0.000000
# 5 0.000000 0.000000 0.000000 0.000000 0.042110 0.000000
# 6 0.000000 0.000000 0.000000 0.000000 0.000000 0.036902
#
#
# Mechanical properties :
#
#
# Convention : Reuss Voigt Hill
#
# Bulk Modulus (GPa) = 37.22286 62.61146 49.91716
# Shear Modulus (GPa) = 38.72154 17.07578 27.89866
#
# Velocity S-wave (km/s) = 4.66567 3.09833 3.96031
# Velocity P-wave (km/s) = 7.06758 6.92810 6.99818
#
# Compressibility (1/GPa) = 0.02686521
#
# Stress axis : x y z
#
# Youngs Moduli (GPa) = 72.70814 28.19001 87.30068
#
# Poissons Ratio (x) = 0.22868 0.51669
# Poissons Ratio (y) = 0.58982 0.25122
# Poissons Ratio (z) = 0.43033 0.08112
#
# Static dielectric constant tensor:
#      x y z
#    x 1.610870 0.000000 0.000000 
#    y 0.000000 1.623280 0.000000 
#    z 0.000000 0.000000 1.610500 
# 
# From -- ./inp_files/9399.got.cif
#   From: 2010.05.17/outbox.cif.g08.bks.cpg/sg66_5_cif.got.tgz:9399.got - 2010.06.03 17:51:23.
