data_PCOD9495266
_publ_section_title
;
Structure prediction by ZEFSAII (Michael W. Deem and Ramdas Pophale) SiO2 
 PCOD9495266
Probable space group: C C C M
;
_chemical_formula_sum "Si O2"
_cell_formula_units_Z 80
_cell_length_a 25.265599
_cell_length_b 23.176849
_cell_length_c 9.496574
_cell_angle_alpha 90.000000
_cell_angle_beta 90.000000
_cell_angle_gamma 90.000000
_cell_volume 5560.975056
_symmetry_space_group_name_H-M "C C C M"
_symmetry_group_IT_number 66
_symmetry_cell_setting 'orthorhombic'
loop_
_space_group_symop_operation_xyz
x,y,z
-x,-y,z
x,-y,1/2-z
-x,y,1/2-z
-x,-y,-z
x,y,-z
-x,y,1/2+z
x,-y,1/2+z
1/2+x,1/2+y,z
1/2-x,1/2-y,z
1/2+x,1/2-y,1/2-z
1/2-x,1/2+y,1/2-z
1/2-x,1/2-y,-z
1/2+x,1/2+y,-z
1/2-x,1/2+y,1/2+z
1/2+x,1/2-y,1/2+z
loop_
_atom_site_type_symbol
_atom_site_label
_atom_site_fract_x
_atom_site_fract_y
_atom_site_fract_z
Si Si1 0.767841 0.942273 0.661101
Si Si2 0.177598 0.227010 0.168875
Si Si3 0.280577 0.825082 0.170826
Si Si4 0.121395 0.115405 0.256322
Si Si5 0.426460 0.449508 0.000000
Si Si6 0.546913 0.415140 0.000000
O O1 0.762081 0.958980 0.500000
O O2 0.723453 0.893691 0.693688
O O3 0.824611 0.910227 0.677733
O O4 0.765689 0.000000 0.750000
O O5 0.228410 0.197905 0.246383
O O6 0.173703 0.287823 0.252543
O O7 0.132657 0.179321 0.197149
O O8 0.184893 0.234177 0.000000
O O9 0.278301 0.814969 0.000000
O O10 0.105572 0.071569 0.134048
O O11 0.073613 0.114407 0.366090
O O12 0.483776 0.418604 0.000000
O O13 0.434949 0.517789 0.000000
#
# Coordination Sequence:
#
# PCOD9495266 Si02
#       6
#    16  16  16  16   8   8
#     4  10  20  30  44  65  88 115 144 177 212 253
#     4  10  18  29  44  62  83 105 137 178 217 252
#     4   9  18  29  44  63  84 108 138 172 210 252
#     4  11  21  32  46  65  81 108 149 187 220 261
#     4  11  22  36  44  63  82 108 145 190 227 271
#     4  11  22  34  50  57  82 114 143 182 237 265
#
# _framework density 14.385966
#
# number of rings (size 3 to 8) (size 9 to 14) (size 15 to 20)
#    0.000    1.800    2.000    4.800    4.200    3.200 
#    0.000    0.000    0.000    0.000    0.000    0.000 
#    0.000    0.000    0.000    0.000    0.000    6.000 
#
# Total GULP energy -222677.642617 kJ/mol
# GULP energy per Si atom -5566.941065 kJ/mol
# Density = 1.435322 g / cm^3
# Si number density = 14.385966 Si / 1000 Ang^3
#
#
#
# Elastic Constant Matrix: (Units=GPa)
#
#
# Indices 1 2 3 4 5 6 
#
# 1 25.7826 23.0717 11.1449 0.0000 0.0000 0.0000
# 2 23.0717 84.6321 35.2413 0.0000 0.0000 0.0000
# 3 11.1449 35.2413 93.4469 0.0000 0.0000 0.0000
# 4 0.0000 0.0000 0.0000 15.7431 0.0000 0.0000
# 5 0.0000 0.0000 0.0000 0.0000 13.4259 0.0000
# 6 0.0000 0.0000 0.0000 0.0000 0.0000 21.7144
#
#
#
# Elastic Compliance Matrix: (Units=1/GPa)
#
#
# Indices 1 2 3 4 5 6 
#
# 1 0.051380 -0.013589 -0.001003 0.000000 0.000000 0.000000
# 2 -0.013589 0.017611 -0.005021 0.000000 0.000000 0.000000
# 3 -0.001003 -0.005021 0.012714 0.000000 0.000000 0.000000
# 4 0.000000 0.000000 0.000000 0.063520 0.000000 0.000000
# 5 0.000000 0.000000 0.000000 0.000000 0.074483 0.000000
# 6 0.000000 0.000000 0.000000 0.000000 0.000000 0.046052
#
#
# Mechanical properties :
#
#
# Convention : Reuss Voigt Hill
#
# Bulk Modulus (GPa) = 23.54090 38.08637 30.81364
# Shear Modulus (GPa) = 15.66682 19.13693 17.40188
#
# Velocity S-wave (km/s) = 3.30363 3.65122 3.48176
# Velocity P-wave (km/s) = 5.56339 6.65637 6.13427
#
# Compressibility (1/GPa) = 0.04247926
#
# Stress axis : x y z
#
# Youngs Moduli (GPa) = 19.46297 56.78230 78.65087
#
# Poissons Ratio (x) = 0.77162 0.07889
# Poissons Ratio (y) = 0.26448 0.39490
# Poissons Ratio (z) = 0.01952 0.28510
#
# Static dielectric constant tensor:
#      x y z
#    x 1.465310 0.000000 0.000000 
#    y 0.000000 1.523180 0.000000 
#    z 0.000000 0.000000 1.459540 
# 
# From -- ./inp_files/9093.got.cif
#   From: 2010.05.17/outbox.cif.g08.bks.cpg/sg66_5_cif.got.tgz:9093.got - 2010.06.03 17:51:23.
