data_PCOD9495744
_publ_section_title
;
Structure prediction by ZEFSAII (Michael W. Deem and Ramdas Pophale) SiO2 
 PCOD9495744
Probable space group: C C C M
;
_chemical_formula_sum "Si O2"
_cell_formula_units_Z 104
_cell_length_a 14.958254
_cell_length_b 24.505319
_cell_length_c 17.596554
_cell_angle_alpha 90.000000
_cell_angle_beta 90.000000
_cell_angle_gamma 90.000000
_cell_volume 6450.136278
_symmetry_space_group_name_H-M "C C C M"
_symmetry_group_IT_number 66
_symmetry_cell_setting 'orthorhombic'
loop_
_space_group_symop_operation_xyz
x,y,z
-x,-y,z
x,-y,1/2-z
-x,y,1/2-z
-x,-y,-z
x,y,-z
-x,y,1/2+z
x,-y,1/2+z
1/2+x,1/2+y,z
1/2-x,1/2-y,z
1/2+x,1/2-y,1/2-z
1/2-x,1/2+y,1/2-z
1/2-x,1/2-y,-z
1/2+x,1/2+y,-z
1/2-x,1/2+y,1/2+z
1/2+x,1/2-y,1/2+z
loop_
_atom_site_type_symbol
_atom_site_label
_atom_site_fract_x
_atom_site_fract_y
_atom_site_fract_z
Si Si1 0.436923 0.874431 0.683661
Si Si2 0.753044 0.172081 0.172540
Si Si3 0.250000 0.750000 0.312301
Si Si4 0.935235 0.448422 0.915163
Si Si5 0.116840 0.254936 0.409537
Si Si6 0.798264 0.556189 0.714644
Si Si7 0.092803 0.728263 0.409802
O O1 0.500000 0.849180 0.750000
O O2 0.505424 0.904554 0.628283
O O3 0.369232 0.916188 0.725684
O O4 0.392125 0.830218 0.629655
O O5 0.736083 0.200319 0.253761
O O6 0.835168 0.204145 0.132893
O O7 0.667247 0.190967 0.122211
O O8 0.761005 0.107715 0.186939
O O9 0.165687 0.763749 0.365370
O O10 0.853068 0.460873 0.860333
O O11 0.000000 0.500000 0.920420
O O12 0.908803 0.431266 0.000000
O O13 0.131693 0.251213 0.500000
O O14 0.010864 0.256755 0.395749
O O15 0.760371 0.500000 0.750000
O O16 0.107373 0.727635 0.500000
#
# Coordination Sequence:
#
# PCOD9495744 Si02
#       7
#    16  16   8  16  16  16  16
#     4  10  19  29  47  69  99 135 169 208 244 309
#     4  10  20  32  53  75 103 139 176 223 256 304
#     4  10  21  34  49  78 104 134 172 206 269 318
#     4  10  19  29  43  66  95 132 176 211 245 299
#     4   9  19  34  54  80 105 134 174 222 270 316
#     4  11  20  33  47  68 102 142 179 214 254 305
#     4  11  21  34  52  75 105 136 166 208 265 323
#
# _framework density 16.123691000000001
#
# number of rings (size 3 to 8) (size 9 to 14) (size 15 to 20)
#    0.000    2.000    3.077    3.462    2.154    2.462 
#    0.000    0.000    0.000    0.000    0.000    2.154 
#    0.000    2.462    0.000    0.000    0.000    0.000 
#
# Total GULP energy -289598.471893 kJ/mol
# GULP energy per Si atom -5569.201383 kJ/mol
# Density = 1.608699 g / cm^3
# Si number density = 16.123691 Si / 1000 Ang^3
#
#
#
# Elastic Constant Matrix: (Units=GPa)
#
#
# Indices 1 2 3 4 5 6 
#
# 1 59.6783 11.6404 43.4524 0.0000 0.0000 0.0000
# 2 11.6404 74.7396 31.4726 0.0000 0.0000 0.0000
# 3 43.4524 31.4726 122.2382 0.0000 0.0000 0.0000
# 4 0.0000 0.0000 0.0000 23.1832 0.0000 0.0000
# 5 0.0000 0.0000 0.0000 0.0000 45.6035 0.0000
# 6 0.0000 0.0000 0.0000 0.0000 0.0000 14.2555
#
#
#
# Elastic Compliance Matrix: (Units=1/GPa)
#
#
# Indices 1 2 3 4 5 6 
#
# 1 0.022610 -0.000154 -0.007998 0.000000 0.000000 0.000000
# 2 -0.000154 0.015008 -0.003809 0.000000 0.000000 0.000000
# 3 -0.007998 -0.003809 0.012004 0.000000 0.000000 0.000000
# 4 0.000000 0.000000 0.000000 0.043135 0.000000 0.000000
# 5 0.000000 0.000000 0.000000 0.000000 0.021928 0.000000
# 6 0.000000 0.000000 0.000000 0.000000 0.000000 0.070148
#
#
# Mechanical properties :
#
#
# Convention : Reuss Voigt Hill
#
# Bulk Modulus (GPa) = 38.90949 47.75411 43.33180
# Shear Modulus (GPa) = 23.00742 27.94782 25.47762
#
# Velocity S-wave (km/s) = 3.78157 4.16786 3.97940
# Velocity P-wave (km/s) = 6.57657 7.26932 6.93161
#
# Compressibility (1/GPa) = 0.02570067
#
# Stress axis : x y z
#
# Youngs Moduli (GPa) = 44.22905 66.63177 83.30222
#
# Poissons Ratio (x) = 0.01024 0.66621
# Poissons Ratio (y) = 0.00679 0.31734
# Poissons Ratio (z) = 0.35372 0.25383
#
# Static dielectric constant tensor:
#      x y z
#    x 1.565510 0.000000 0.000000 
#    y 0.000000 1.587060 0.000000 
#    z 0.000000 0.000000 1.553290 
# 
# From -- ./inp_files/40660.got.cif
#   From: 2010.05.17/outbox.cif.g08.bks.cpg/sg66_21_cif.got.tgz:40660.got - 2010.06.03 17:51:23.
