data_PCOD9495518
_publ_section_title
;
Structure prediction by ZEFSAII (Michael W. Deem and Ramdas Pophale) SiO2 
 PCOD9495518
Probable space group: C C C M
;
_chemical_formula_sum "Si O2"
_cell_formula_units_Z 80
_cell_length_a 21.620354
_cell_length_b 11.383629
_cell_length_c 14.715858
_cell_angle_alpha 90.000000
_cell_angle_beta 90.000000
_cell_angle_gamma 90.000000
_cell_volume 3621.838846
_symmetry_space_group_name_H-M "C C C M"
_symmetry_group_IT_number 66
_symmetry_cell_setting 'orthorhombic'
loop_
_space_group_symop_operation_xyz
x,y,z
-x,-y,z
x,-y,1/2-z
-x,y,1/2-z
-x,-y,-z
x,y,-z
-x,y,1/2+z
x,-y,1/2+z
1/2+x,1/2+y,z
1/2-x,1/2-y,z
1/2+x,1/2-y,1/2-z
1/2-x,1/2+y,1/2-z
1/2-x,1/2-y,-z
1/2+x,1/2+y,-z
1/2-x,1/2+y,1/2+z
1/2+x,1/2-y,1/2+z
loop_
_atom_site_type_symbol
_atom_site_label
_atom_site_fract_x
_atom_site_fract_y
_atom_site_fract_z
Si Si1 0.862534 0.980364 0.858934
Si Si2 0.387102 0.265409 0.596166
Si Si3 0.477612 0.672102 0.649865
Si Si4 0.107323 0.373585 0.217802
Si Si5 0.758973 0.617956 0.188031
O O1 0.926190 0.917131 0.887878
O O2 0.801464 0.902019 0.874216
O O3 0.869880 0.000000 0.750000
O O4 0.853305 0.109492 0.897800
O O5 0.372403 0.206046 0.500000
O O6 0.459530 0.301647 0.598153
O O7 0.375591 0.192603 0.687510
O O8 0.500000 0.631710 0.750000
O O9 0.442297 0.794313 0.667637
O O10 0.084383 0.500000 0.250000
O O11 0.169606 0.383862 0.158221
O O12 0.756847 0.500000 0.250000
O O13 0.750000 0.750000 0.227843
#
# Coordination Sequence:
#
# PCOD9495518 Si02
#       5
#    16  16  16  16  16
#     4  11  18  33  60  90 122 157 213 257 311 374
#     4  11  24  38  59  94 130 161 198 264 328 373
#     4  10  19  32  56  87 122 163 209 254 303 377
#     4  10  20  37  61  89 120 165 222 259 305 373
#     4  10  18  32  60  92 118 154 213 273 305 358
#
# _framework density 22.088225999999999
#
# number of rings (size 3 to 8) (size 9 to 14) (size 15 to 20)
#    0.000    1.600    6.000    1.800    0.000    5.200 
#    0.000    2.000    0.000   31.200    0.000    0.000 
#    0.000    0.200    0.000    0.000    0.000    0.000 
#
# Total GULP energy -222956.970726 kJ/mol
# GULP energy per Si atom -5573.924268 kJ/mol
# Density = 2.203795 g / cm^3
# Si number density = 22.088226 Si / 1000 Ang^3
#
#
#
# Elastic Constant Matrix: (Units=GPa)
#
#
# Indices 1 2 3 4 5 6 
#
# 1 110.6531 15.0061 -3.5234 0.0000 0.0000 0.0000
# 2 15.0061 144.9350 -10.4444 0.0000 0.0000 0.0000
# 3 -3.5234 -10.4444 56.3004 0.0000 0.0000 0.0000
# 4 0.0000 0.0000 0.0000 3.6051 0.0000 0.0000
# 5 0.0000 0.0000 0.0000 0.0000 -8.2406 0.0000
# 6 0.0000 0.0000 0.0000 0.0000 0.0000 43.0669
#
#
#
# Elastic Compliance Matrix: (Units=1/GPa)
#
#
# Indices 1 2 3 4 5 6 
#
# 1 0.009175 -0.000921 0.000403 0.000000 0.000000 0.000000
# 2 -0.000921 0.007086 0.001257 0.000000 0.000000 0.000000
# 3 0.000403 0.001257 0.018020 0.000000 0.000000 0.000000
# 4 0.000000 0.000000 0.000000 0.277387 0.000000 0.000000
# 5 0.000000 0.000000 0.000000 0.000000 -0.121350 0.000000
# 6 0.000000 0.000000 0.000000 0.000000 0.000000 0.023220
#
#
# Mechanical properties :
#
#
# Convention : Reuss Voigt Hill
#
# Bulk Modulus (GPa) = 27.96466 34.88500 31.42483
# Shear Modulus (GPa) = 22.32360 28.40963 25.36661
#
# Velocity S-wave (km/s) = 3.18253 3.59024 3.39251
# Velocity P-wave (km/s) = 5.11787 5.74580 5.44090
#
# Compressibility (1/GPa) = 0.03575942
#
# Stress axis : x y z
#
# Youngs Moduli (GPa) = 108.99202 141.13206 55.49307
#
# Poissons Ratio (x) = 0.12997 -0.02238
# Poissons Ratio (y) = 0.10037 -0.06975
# Poissons Ratio (z) = -0.04396 -0.17738
#
# Static dielectric constant tensor:
#      x y z
#    x 1.867590 0.000000 0.000000 
#    y 0.000000 1.838190 0.000000 
#    z 0.000000 0.000000 1.915440 
# 
# From -- ./inp_files/32080.got.cif
#   From: 2010.05.17/outbox.cif.g08.bks.cpg/sg66_17_cif.got.tgz:32080.got - 2010.06.03 17:51:23.
