data_PCOD9495211
_publ_section_title
;
Structure prediction by ZEFSAII (Michael W. Deem and Ramdas Pophale) SiO2 
 PCOD9495211
Probable space group: C C C M
;
_chemical_formula_sum "Si O2"
_cell_formula_units_Z 72
_cell_length_a 23.223291
_cell_length_b 10.505407
_cell_length_c 13.665798
_cell_angle_alpha 90.000000
_cell_angle_beta 90.000000
_cell_angle_gamma 90.000000
_cell_volume 3334.046430
_symmetry_space_group_name_H-M "C C C M"
_symmetry_group_IT_number 66
_symmetry_cell_setting 'orthorhombic'
loop_
_space_group_symop_operation_xyz
x,y,z
-x,-y,z
x,-y,1/2-z
-x,y,1/2-z
-x,-y,-z
x,y,-z
-x,y,1/2+z
x,-y,1/2+z
1/2+x,1/2+y,z
1/2-x,1/2-y,z
1/2+x,1/2-y,1/2-z
1/2-x,1/2+y,1/2-z
1/2-x,1/2-y,-z
1/2+x,1/2+y,-z
1/2-x,1/2+y,1/2+z
1/2+x,1/2-y,1/2+z
loop_
_atom_site_type_symbol
_atom_site_label
_atom_site_fract_x
_atom_site_fract_y
_atom_site_fract_z
Si Si1 0.645845 0.439218 0.118670
Si Si2 0.395407 0.151515 0.619138
Si Si3 0.545434 0.385804 0.383687
Si Si4 0.230611 0.398536 0.612955
Si Si5 0.500000 0.834655 0.750000
O O1 0.615878 0.302763 0.139641
O O2 0.606094 0.555893 0.147512
O O3 0.711191 0.459645 0.152141
O O4 0.647846 0.438346 0.000000
O O5 0.403135 0.138559 0.500000
O O6 0.334283 0.089646 0.650848
O O7 0.450123 0.104544 0.681288
O O8 0.500000 0.500000 0.365456
O O9 0.544244 0.362022 0.500000
O O10 0.531365 0.259300 0.326306
O O11 0.225097 0.437762 0.500000
O O12 0.250000 0.250000 0.613673
#
# Coordination Sequence:
#
# PCOD9495211 Si02
#       5
#    16  16  16  16   8
#     4   8  13  22  34  45  60  88 124 158 188 212
#     4   9  16  24  33  47  69  94 124 159 184 212
#     4  10  18  25  31  45  73 103 127 153 179 215
#     4   7  11  21  35  46  57  81 121 163 192 207
#     4  12  19  22  32  50  78 108 124 141 184 233
#
# _framework density 21.595379000000001
#
# number of rings (size 3 to 8) (size 9 to 14) (size 15 to 20)
#    0.000    3.111    2.222    3.667    0.000    0.000 
#    0.000    0.000    0.000    0.000    0.000    0.000 
#    0.000   39.111    0.000    0.000    0.000   42.222 
#
# Total GULP energy -200605.282696 kJ/mol
# GULP energy per Si atom -5572.368964 kJ/mol
# Density = 2.154623 g / cm^3
# Si number density = 21.595379 Si / 1000 Ang^3
#
#
#
# Elastic Constant Matrix: (Units=GPa)
#
#
# Indices 1 2 3 4 5 6 
#
# 1 208.5600 25.9803 44.8422 0.0000 0.0000 0.0000
# 2 25.9803 18.4451 23.2349 0.0000 0.0000 0.0000
# 3 44.8422 23.2349 115.2770 0.0000 0.0000 0.0000
# 4 0.0000 0.0000 0.0000 32.4897 0.0000 0.0000
# 5 0.0000 0.0000 0.0000 0.0000 -13.0609 0.0000
# 6 0.0000 0.0000 0.0000 0.0000 0.0000 11.2810
#
#
#
# Elastic Compliance Matrix: (Units=1/GPa)
#
#
# Indices 1 2 3 4 5 6 
#
# 1 0.005873 -0.007231 -0.000827 0.000000 0.000000 0.000000
# 2 -0.007231 0.081566 -0.013627 0.000000 0.000000 0.000000
# 3 -0.000827 -0.013627 0.011743 0.000000 0.000000 0.000000
# 4 0.000000 0.000000 0.000000 0.030779 0.000000 0.000000
# 5 0.000000 0.000000 0.000000 0.000000 -0.076564 0.000000
# 6 0.000000 0.000000 0.000000 0.000000 0.000000 0.088644
#
#
# Mechanical properties :
#
#
# Convention : Reuss Voigt Hill
#
# Bulk Modulus (GPa) = 17.91747 58.93300 38.42524
# Shear Modulus (GPa) = 24.50787 22.69027 23.59907
#
# Velocity S-wave (km/s) = 3.37243 3.24497 3.30931
# Velocity P-wave (km/s) = 4.84555 6.43340 5.69508
#
# Compressibility (1/GPa) = 0.05581144
#
# Stress axis : x y z
#
# Youngs Moduli (GPa) = 170.25959 12.26007 85.15484
#
# Poissons Ratio (x) = 0.08865 0.07045
# Poissons Ratio (y) = 1.23108 1.16045
# Poissons Ratio (z) = 0.14086 0.16707
#
# Static dielectric constant tensor:
#      x y z
#    x 1.865580 0.000000 0.000000 
#    y 0.000000 1.875270 0.000000 
#    z 0.000000 0.000000 1.811930 
# 
# From -- ./inp_files/32041.got.cif
#   From: 2010.05.17/outbox.cif.g08.bks.cpg/sg66_17_cif.got.tgz:32041.got - 2010.06.03 17:51:23.
