data_PCOD9495930
_publ_section_title
;
Structure prediction by ZEFSAII (Michael W. Deem and Ramdas Pophale) SiO2 
 PCOD9495930
Probable space group: C C C M
;
_chemical_formula_sum "Si O2"
_cell_formula_units_Z 116
_cell_length_a 27.551020
_cell_length_b 27.180442
_cell_length_c 8.824929
_cell_angle_alpha 90.000000
_cell_angle_beta 90.000000
_cell_angle_gamma 90.000000
_cell_volume 6608.538384
_symmetry_space_group_name_H-M "C C C M"
_symmetry_group_IT_number 66
_symmetry_cell_setting 'orthorhombic'
loop_
_space_group_symop_operation_xyz
x,y,z
-x,-y,z
x,-y,1/2-z
-x,y,1/2-z
-x,-y,-z
x,y,-z
-x,y,1/2+z
x,-y,1/2+z
1/2+x,1/2+y,z
1/2-x,1/2-y,z
1/2+x,1/2-y,1/2-z
1/2-x,1/2+y,1/2-z
1/2-x,1/2-y,-z
1/2+x,1/2+y,-z
1/2-x,1/2+y,1/2+z
1/2+x,1/2-y,1/2+z
loop_
_atom_site_type_symbol
_atom_site_label
_atom_site_fract_x
_atom_site_fract_y
_atom_site_fract_z
Si Si1 0.576238 0.082535 0.325249
Si Si2 0.825226 0.290236 0.823462
Si Si3 0.500000 0.000000 0.750000
Si Si4 0.317695 0.052224 0.817738
Si Si5 0.924729 0.311434 0.321076
Si Si6 0.248194 0.143378 0.820239
Si Si7 0.654308 0.325337 0.822490
Si Si8 0.549873 0.706917 0.318750
O O1 0.586701 0.094596 0.500000
O O2 0.537448 0.038691 0.324274
O O3 0.628022 0.065885 0.258480
O O4 0.558029 0.135019 0.262409
O O5 0.867104 0.311655 0.714679
O O6 0.774914 0.313006 0.770152
O O7 0.828334 0.231525 0.810673
O O8 0.834979 0.302612 0.000000
O O9 0.279083 0.094673 0.782103
O O10 0.303584 0.000000 0.750000
O O11 0.320273 0.047881 0.000000
O O12 0.934529 0.304589 0.500000
O O13 0.944132 0.263636 0.234589
O O14 0.192307 0.142430 0.770215
O O15 0.251786 0.151877 0.000000
O O16 0.598289 0.322519 0.770648
O O17 0.655744 0.338877 0.000000
O O18 0.500000 0.687585 0.250000
O O19 0.548487 0.706587 0.500000
#
# Coordination Sequence:
#
# PCOD9495930 Si02
#       8
#    16  16   4  16  16  16  16  16
#     4  10  21  37  51  67  95 125 166 224 277 318
#     4  10  19  32  50  74 103 135 170 210 258 318
#     4  12  22  36  52  70  88 128 178 228 284 320
#     4  10  21  39  55  74 100 131 171 219 270 325
#     4  10  19  34  52  71  99 132 170 222 267 312
#     4  11  21  33  52  76 103 134 171 213 265 320
#     4   9  20  35  50  74 108 136 171 212 250 305
#     4  10  21  37  54  77 106 140 174 209 250 303
#
# _framework density 17.553049000000001
#
# number of rings (size 3 to 8) (size 9 to 14) (size 15 to 20)
#    0.000    1.931    2.069    3.103    0.966    6.069 
#    0.000    2.069    0.000    0.000    0.000    0.000 
#    0.000    0.552    0.000    6.069    0.000    4.414 
#
# Total GULP energy -323409.784688 kJ/mol
# GULP energy per Si atom -5576.030770 kJ/mol
# Density = 1.751310 g / cm^3
# Si number density = 17.553049 Si / 1000 Ang^3
#
#
#
# Elastic Constant Matrix: (Units=GPa)
#
#
# Indices 1 2 3 4 5 6 
#
# 1 132.5836 34.5181 27.5429 0.0000 0.0000 0.0000
# 2 34.5181 36.7598 17.2317 0.0000 0.0000 0.0000
# 3 27.5429 17.2317 34.2500 0.0000 0.0000 0.0000
# 4 0.0000 0.0000 0.0000 18.8144 0.0000 0.0000
# 5 0.0000 0.0000 0.0000 0.0000 21.1211 0.0000
# 6 0.0000 0.0000 0.0000 0.0000 0.0000 21.4073
#
#
#
# Elastic Compliance Matrix: (Units=1/GPa)
#
#
# Indices 1 2 3 4 5 6 
#
# 1 0.010500 -0.007723 -0.004558 0.000000 0.000000 0.000000
# 2 -0.007723 0.041280 -0.014558 0.000000 0.000000 0.000000
# 3 -0.004558 -0.014558 0.040187 0.000000 0.000000 0.000000
# 4 0.000000 0.000000 0.000000 0.053151 0.000000 0.000000
# 5 0.000000 0.000000 0.000000 0.000000 0.047346 0.000000
# 6 0.000000 0.000000 0.000000 0.000000 0.000000 0.046713
#
#
# Mechanical properties :
#
#
# Convention : Reuss Voigt Hill
#
# Bulk Modulus (GPa) = 26.11744 40.24208 33.17976
# Shear Modulus (GPa) = 16.36030 20.55529 18.45780
#
# Velocity S-wave (km/s) = 3.05626 3.42576 3.24627
# Velocity P-wave (km/s) = 5.23123 6.21478 5.74409
#
# Compressibility (1/GPa) = 0.03828858
#
# Stress axis : x y z
#
# Youngs Moduli (GPa) = 95.23800 24.22491 24.88362
#
# Poissons Ratio (x) = 0.18709 0.11343
# Poissons Ratio (y) = 0.73551 0.36225
# Poissons Ratio (z) = 0.43412 0.35266
#
# Static dielectric constant tensor:
#      x y z
#    x 1.645910 0.000000 0.000000 
#    y 0.000000 1.594100 0.000000 
#    z 0.000000 0.000000 1.605070 
# 
# From -- ./inp_files/10631.got.cif
#   From: 2010.05.17/outbox.cif.g08.bks.cpg/sg66_6_cif.got.tgz:10631.got - 2010.06.03 17:51:23.
