data_PCOD9495247
_publ_section_title
;
Structure prediction by ZEFSAII (Michael W. Deem and Ramdas Pophale) SiO2 
 PCOD9495247
Probable space group: C C C M
;
_chemical_formula_sum "Si O2"
_cell_formula_units_Z 52
_cell_length_a 16.156362
_cell_length_b 14.097393
_cell_length_c 9.583413
_cell_angle_alpha 90.000000
_cell_angle_beta 90.000000
_cell_angle_gamma 90.000000
_cell_volume 2182.742914
_symmetry_space_group_name_H-M "C C C M"
_symmetry_group_IT_number 66
_symmetry_cell_setting 'orthorhombic'
loop_
_space_group_symop_operation_xyz
x,y,z
-x,-y,z
x,-y,1/2-z
-x,y,1/2-z
-x,-y,-z
x,y,-z
-x,y,1/2+z
x,-y,1/2+z
1/2+x,1/2+y,z
1/2-x,1/2-y,z
1/2+x,1/2-y,1/2-z
1/2-x,1/2+y,1/2-z
1/2-x,1/2-y,-z
1/2+x,1/2+y,-z
1/2-x,1/2+y,1/2+z
1/2+x,1/2-y,1/2+z
loop_
_atom_site_type_symbol
_atom_site_label
_atom_site_fract_x
_atom_site_fract_y
_atom_site_fract_z
Si Si1 0.581077 0.137653 0.162966
Si Si2 0.000000 0.000000 0.000000
Si Si3 0.741141 0.865145 0.158374
Si Si4 0.385292 0.361083 0.351477
O O1 0.500000 0.109007 0.250000
O O2 0.664207 0.108291 0.244426
O O3 0.585633 0.252989 0.166777
O O4 0.578202 0.109002 0.000000
O O5 0.960628 0.071725 0.883996
O O6 0.750000 0.750000 0.155982
O O7 0.827648 0.894290 0.226242
O O8 0.730967 0.898385 0.000000
O O9 0.334472 0.361233 0.500000
#
# Coordination Sequence:
#
# PCOD9495247 Si02
#       4
#    16   4  16  16
#     4  10  18  28  44  68  98 135 181 237 301 366
#     4   8  16  32  50  64  88 136 198 248 278 356
#     4   9  16  27  45  70  94 124 175 239 298 366
#     4   8  16  30  48  63  92 132 187 237 287 351
#
# _framework density 23.823236999999999
#
# number of rings (size 3 to 8) (size 9 to 14) (size 15 to 20)
#    0.923    2.154    0.000    1.846    0.000    4.923 
#    0.000    1.538    0.000    0.000    0.000    0.000 
#    0.000    0.000    0.000    0.000    0.000   83.077 
#
# Total GULP energy -144776.879411 kJ/mol
# GULP energy per Si atom -5568.341516 kJ/mol
# Density = 2.376901 g / cm^3
# Si number density = 23.823237 Si / 1000 Ang^3
#
#
#
# Elastic Constant Matrix: (Units=GPa)
#
#
# Indices 1 2 3 4 5 6 
#
# 1 79.3678 25.1573 74.7764 0.0000 0.0000 0.0000
# 2 25.1573 107.9119 20.2810 0.0000 0.0000 0.0000
# 3 74.7764 20.2810 223.2923 0.0000 0.0000 0.0000
# 4 0.0000 0.0000 0.0000 62.9527 0.0000 0.0000
# 5 0.0000 0.0000 0.0000 0.0000 52.5466 0.0000
# 6 0.0000 0.0000 0.0000 0.0000 0.0000 1.2419
#
#
#
# Elastic Compliance Matrix: (Units=1/GPa)
#
#
# Indices 1 2 3 4 5 6 
#
# 1 0.019552 -0.003385 -0.006240 0.000000 0.000000 0.000000
# 2 -0.003385 0.010014 0.000224 0.000000 0.000000 0.000000
# 3 -0.006240 0.000224 0.006548 0.000000 0.000000 0.000000
# 4 0.000000 0.000000 0.000000 0.015885 0.000000 0.000000
# 5 0.000000 0.000000 0.000000 0.000000 0.019031 0.000000
# 6 0.000000 0.000000 0.000000 0.000000 0.000000 0.805220
#
#
# Mechanical properties :
#
#
# Convention : Reuss Voigt Hill
#
# Bulk Modulus (GPa) = 57.76685 72.33348 65.05017
# Shear Modulus (GPa) = 5.55049 42.70540 24.12794
#
# Velocity S-wave (km/s) = 1.52804 4.23850 3.18589
# Velocity P-wave (km/s) = 5.23584 7.37439 6.39514
#
# Compressibility (1/GPa) = 0.01731097
#
# Stress axis : x y z
#
# Youngs Moduli (GPa) = 51.14663 99.86120 152.72446
#
# Poissons Ratio (x) = 0.33806 0.95300
# Poissons Ratio (y) = 0.17315 -0.03423
# Poissons Ratio (z) = 0.31916 -0.02238
#
# Static dielectric constant tensor:
#      x y z
#    x 1.884060 0.000000 0.000000 
#    y 0.000000 1.939900 0.000000 
#    z 0.000000 0.000000 1.910870 
# 
# From -- ./inp_files/4734.got.cif
#   From: 2010.05.17/outbox.cif.g08.bks.cpg/sg66_3_cif.got.tgz:4734.got - 2010.06.03 17:51:23.
