data_PCOD9495966
_publ_section_title
;
Structure prediction by ZEFSAII (Michael W. Deem and Ramdas Pophale) SiO2 
 PCOD9495966
Probable space group: C C C M
;
_chemical_formula_sum "Si O2"
_cell_formula_units_Z 116
_cell_length_a 26.088632
_cell_length_b 28.952797
_cell_length_c 8.864884
_cell_angle_alpha 90.000000
_cell_angle_beta 90.000000
_cell_angle_gamma 90.000000
_cell_volume 6695.991430
_symmetry_space_group_name_H-M "C C C M"
_symmetry_group_IT_number 66
_symmetry_cell_setting 'orthorhombic'
loop_
_space_group_symop_operation_xyz
x,y,z
-x,-y,z
x,-y,1/2-z
-x,y,1/2-z
-x,-y,-z
x,y,-z
-x,y,1/2+z
x,-y,1/2+z
1/2+x,1/2+y,z
1/2-x,1/2-y,z
1/2+x,1/2-y,1/2-z
1/2-x,1/2+y,1/2-z
1/2-x,1/2-y,-z
1/2+x,1/2+y,-z
1/2-x,1/2+y,1/2+z
1/2+x,1/2-y,1/2+z
loop_
_atom_site_type_symbol
_atom_site_label
_atom_site_fract_x
_atom_site_fract_y
_atom_site_fract_z
Si Si1 0.000000 0.500000 0.750000
Si Si2 0.556227 0.730711 0.182072
Si Si3 0.748809 0.863706 0.680165
Si Si4 0.943221 0.664752 0.817888
Si Si5 0.654999 0.313886 0.323802
Si Si6 0.407556 0.069885 0.674424
Si Si7 0.199439 0.546694 0.678875
Si Si8 0.806130 0.272333 0.831633
O O1 0.958336 0.536839 0.681191
O O2 0.500000 0.724442 0.250000
O O3 0.574421 0.783187 0.222898
O O4 0.596010 0.690578 0.228609
O O5 0.553370 0.730087 0.000000
O O6 0.750179 0.868655 0.500000
O O7 0.803997 0.844993 0.736144
O O8 0.731016 0.909961 0.759841
O O9 0.705689 0.824591 0.713862
O O10 0.916747 0.620692 0.743024
O O11 0.000000 0.662686 0.750000
O O12 0.942970 0.660085 0.000000
O O13 0.657371 0.325298 0.500000
O O14 0.671278 0.260708 0.294966
O O15 0.392684 0.073671 0.500000
O O16 0.359546 0.050534 0.766813
O O17 0.220979 0.500000 0.750000
O O18 0.200699 0.545017 0.500000
O O19 0.750000 0.250000 0.851540
O O20 0.830818 0.269984 0.000000
#
# Coordination Sequence:
#
# PCOD9495966 Si02
#       8
#     4  16  16  16  16  16  16  16
#     4  12  26  40  64  78 102 136 186 240 292 336
#     4   9  20  35  51  76 110 147 184 223 268 322
#     4  10  21  38  57  80 108 140 181 224 273 332
#     4  10  20  35  52  73 102 138 180 227 275 326
#     4  10  19  32  52  80 110 144 183 224 271 326
#     4  12  25  40  58  79 103 136 181 234 287 340
#     4  12  26  43  61  81 108 140 178 227 284 339
#     4   8  16  30  47  71 102 136 175 219 263 315
#
# _framework density 17.323796000000002
#
# number of rings (size 3 to 8) (size 9 to 14) (size 15 to 20)
#    0.000    1.793    1.379    3.931    1.931    5.793 
#    0.000    0.000    0.000    0.000    0.000    0.000 
#    0.000    0.552    0.000    5.793    0.000    3.172 
#
# Total GULP energy -323222.461983 kJ/mol
# GULP energy per Si atom -5572.801069 kJ/mol
# Density = 1.728437 g / cm^3
# Si number density = 17.323796 Si / 1000 Ang^3
#
#
#
# Elastic Constant Matrix: (Units=GPa)
#
#
# Indices 1 2 3 4 5 6 
#
# 1 67.4717 48.1629 24.7253 0.0000 0.0000 0.0000
# 2 48.1629 104.4011 46.3352 0.0000 0.0000 0.0000
# 3 24.7253 46.3352 75.0216 0.0000 0.0000 0.0000
# 4 0.0000 0.0000 0.0000 12.0277 0.0000 0.0000
# 5 0.0000 0.0000 0.0000 0.0000 -52.8817 0.0000
# 6 0.0000 0.0000 0.0000 0.0000 0.0000 22.7585
#
#
#
# Elastic Compliance Matrix: (Units=1/GPa)
#
#
# Indices 1 2 3 4 5 6 
#
# 1 0.022199 -0.009635 -0.001365 0.000000 0.000000 0.000000
# 2 -0.009635 0.017377 -0.007557 0.000000 0.000000 0.000000
# 3 -0.001365 -0.007557 0.018447 0.000000 0.000000 0.000000
# 4 0.000000 0.000000 0.000000 0.083142 0.000000 0.000000
# 5 0.000000 0.000000 0.000000 0.000000 -0.018910 0.000000
# 6 0.000000 0.000000 0.000000 0.000000 0.000000 0.043940
#
#
# Mechanical properties :
#
#
# Convention : Reuss Voigt Hill
#
# Bulk Modulus (GPa) = 47.82831 53.92679 50.87755
# Shear Modulus (GPa) = 23.77792 4.89231 14.33512
#
# Velocity S-wave (km/s) = 3.70882 1.68231 2.87972
# Velocity P-wave (km/s) = 6.78299 5.91353 6.36313
#
# Compressibility (1/GPa) = 0.02090812
#
# Stress axis : x y z
#
# Youngs Moduli (GPa) = 45.04693 57.54627 54.20926
#
# Poissons Ratio (x) = 0.55446 0.07402
# Poissons Ratio (y) = 0.43403 0.40967
# Poissons Ratio (z) = 0.06151 0.43489
#
# Static dielectric constant tensor:
#      x y z
#    x 1.620470 0.000000 0.000000 
#    y 0.000000 1.614530 0.000000 
#    z 0.000000 0.000000 1.597290 
# 
# From -- ./inp_files/11736.got.cif
#   From: 2010.05.17/outbox.cif.g08.bks.cpg/sg66_6_cif.got.tgz:11736.got - 2010.06.03 17:51:23.
