data_PCOD9495851
_publ_section_title
;
Structure prediction by ZEFSAII (Michael W. Deem and Ramdas Pophale) SiO2 
 PCOD9495851
Probable space group: C C C M
;
_chemical_formula_sum "Si O2"
_cell_formula_units_Z 96
_cell_length_a 24.953848
_cell_length_b 11.485998
_cell_length_c 18.547571
_cell_angle_alpha 90.000000
_cell_angle_beta 90.000000
_cell_angle_gamma 90.000000
_cell_volume 5316.101985
_symmetry_space_group_name_H-M "C C C M"
_symmetry_group_IT_number 66
_symmetry_cell_setting 'orthorhombic'
loop_
_space_group_symop_operation_xyz
x,y,z
-x,-y,z
x,-y,1/2-z
-x,y,1/2-z
-x,-y,-z
x,y,-z
-x,y,1/2+z
x,-y,1/2+z
1/2+x,1/2+y,z
1/2-x,1/2-y,z
1/2+x,1/2-y,1/2-z
1/2-x,1/2+y,1/2-z
1/2-x,1/2-y,-z
1/2+x,1/2+y,-z
1/2-x,1/2+y,1/2+z
1/2+x,1/2-y,1/2+z
loop_
_atom_site_type_symbol
_atom_site_label
_atom_site_fract_x
_atom_site_fract_y
_atom_site_fract_z
Si Si1 0.129982 0.826668 0.700925
Si Si2 0.937958 0.627874 0.272871
Si Si3 0.308805 0.805099 0.422038
Si Si4 0.379288 0.798115 0.084891
Si Si5 0.226887 0.432839 0.582881
Si Si6 0.156016 0.072345 0.649400
O O1 0.084185 0.740722 0.730048
O O2 0.161671 0.749379 0.644607
O O3 0.160398 0.863684 0.773593
O O4 0.123653 0.952101 0.661867
O O5 0.915229 0.500000 0.250000
O O6 0.921147 0.649345 0.356807
O O7 0.000000 0.623705 0.250000
O O8 0.334669 0.778775 0.500000
O O9 0.250000 0.750000 0.423608
O O10 0.301957 0.942536 0.415092
O O11 0.319173 0.842835 0.106118
O O12 0.375453 0.659647 0.096916
O O13 0.388274 0.826899 0.000000
O O14 0.240344 0.403981 0.500000
O O15 0.283248 0.445015 0.622966
#
# Coordination Sequence:
#
# PCOD9495851 Si02
#       6
#    16  16  16  16  16  16
#     4  10  21  36  52  80 114 151 193 239 290 347
#     4  10  22  43  66  86 110 146 197 257 314 352
#     4  10  19  31  49  74 110 150 185 229 280 337
#     4  10  21  37  59  86 117 155 199 243 290 351
#     4  10  19  33  53  80 115 156 193 230 279 339
#     4  10  20  34  50  81 119 156 190 225 281 349
#
# _framework density 18.058344999999999
#
# number of rings (size 3 to 8) (size 9 to 14) (size 15 to 20)
#    0.000    2.000    1.667    2.000    0.000    4.667 
#    3.000    9.167    0.000    1.000    0.000    0.000 
#    0.000    0.000    0.000    0.000    0.000    0.000 
#
# Total GULP energy -267204.867616 kJ/mol
# GULP energy per Si atom -5566.768075 kJ/mol
# Density = 1.801724 g / cm^3
# Si number density = 18.058345 Si / 1000 Ang^3
#
#
#
# Elastic Constant Matrix: (Units=GPa)
#
#
# Indices 1 2 3 4 5 6 
#
# 1 51.3677 30.7694 44.6439 0.0000 0.0000 0.0000
# 2 30.7694 112.4682 42.8839 0.0000 0.0000 0.0000
# 3 44.6439 42.8839 82.3983 0.0000 0.0000 0.0000
# 4 0.0000 0.0000 0.0000 29.7732 0.0000 0.0000
# 5 0.0000 0.0000 0.0000 0.0000 13.2143 0.0000
# 6 0.0000 0.0000 0.0000 0.0000 0.0000 20.3593
#
#
#
# Elastic Compliance Matrix: (Units=1/GPa)
#
#
# Indices 1 2 3 4 5 6 
#
# 1 0.037665 -0.003148 -0.018769 0.000000 0.000000 0.000000
# 2 -0.003148 0.011356 -0.004204 0.000000 0.000000 0.000000
# 3 -0.018769 -0.004204 0.024493 0.000000 0.000000 0.000000
# 4 0.000000 0.000000 0.000000 0.033587 0.000000 0.000000
# 5 0.000000 0.000000 0.000000 0.000000 0.075676 0.000000
# 6 0.000000 0.000000 0.000000 0.000000 0.000000 0.049118
#
#
# Mechanical properties :
#
#
# Convention : Reuss Voigt Hill
#
# Bulk Modulus (GPa) = 47.01064 53.64760 50.32912
# Shear Modulus (GPa) = 17.16865 21.19849 19.18357
#
# Velocity S-wave (km/s) = 3.08674 3.42992 3.26285
# Velocity P-wave (km/s) = 6.22841 6.74227 6.49043
#
# Compressibility (1/GPa) = 0.02127178
#
# Stress axis : x y z
#
# Youngs Moduli (GPa) = 26.54962 88.06074 40.82722
#
# Poissons Ratio (x) = 0.27722 0.76628
# Poissons Ratio (y) = 0.08358 0.17166
# Poissons Ratio (z) = 0.49831 0.37025
#
# Static dielectric constant tensor:
#      x y z
#    x 1.588770 0.000000 0.000000 
#    y 0.000000 1.696100 0.000000 
#    z 0.000000 0.000000 1.660850 
# 
# From -- ./inp_files/43559.got.cif
#   From: 2010.05.17/outbox.cif.g08.bks.cpg/sg66_22_cif.got.tgz:43559.got - 2010.06.03 17:51:23.
