data_PCOD9495566
_publ_section_title
;
Structure prediction by ZEFSAII (Michael W. Deem and Ramdas Pophale) SiO2 
 PCOD9495566
Probable space group: C C C M
;
_chemical_formula_sum "Si O2"
_cell_formula_units_Z 112
_cell_length_a 12.257963
_cell_length_b 29.817024
_cell_length_c 16.285400
_cell_angle_alpha 90.000000
_cell_angle_beta 90.000000
_cell_angle_gamma 90.000000
_cell_volume 5952.248183
_symmetry_space_group_name_H-M "C C C M"
_symmetry_group_IT_number 66
_symmetry_cell_setting 'orthorhombic'
loop_
_space_group_symop_operation_xyz
x,y,z
-x,-y,z
x,-y,1/2-z
-x,y,1/2-z
-x,-y,-z
x,y,-z
-x,y,1/2+z
x,-y,1/2+z
1/2+x,1/2+y,z
1/2-x,1/2-y,z
1/2+x,1/2-y,1/2-z
1/2-x,1/2+y,1/2-z
1/2-x,1/2-y,-z
1/2+x,1/2+y,-z
1/2-x,1/2+y,1/2+z
1/2+x,1/2-y,1/2+z
loop_
_atom_site_type_symbol
_atom_site_label
_atom_site_fract_x
_atom_site_fract_y
_atom_site_fract_z
Si Si1 0.043578 0.949335 0.661351
Si Si2 0.634686 0.396252 0.906399
Si Si3 0.405123 0.204229 0.401957
Si Si4 0.485903 0.887962 0.346485
Si Si5 0.856694 0.200578 0.098933
Si Si6 0.712193 0.944190 0.099534
Si Si7 0.168656 0.544164 0.097359
O O1 0.170809 0.944463 0.644006
O O2 0.000000 0.933011 0.750000
O O3 0.977311 0.922329 0.593900
O O4 0.000000 0.000000 0.655272
O O5 0.611650 0.347934 0.867859
O O6 0.727086 0.428375 0.867708
O O7 0.672567 0.387403 0.000000
O O8 0.422857 0.202684 0.500000
O O9 0.473378 0.162494 0.367115
O O10 0.274436 0.199953 0.388486
O O11 0.420406 0.255356 0.369994
O O12 0.500000 0.893953 0.250000
O O13 0.365468 0.903246 0.373915
O O14 0.565954 0.924095 0.388683
O O15 0.872623 0.202824 0.000000
O O16 0.660101 0.992627 0.125250
O O17 0.724673 0.943063 0.000000
O O18 0.186568 0.539932 0.000000
#
# Coordination Sequence:
#
# PCOD9495566 Si02
#       7
#    16  16  16  16  16  16  16
#     4  11  24  37  56  80 116 153 196 246 296 346
#     4  10  18  33  59  85 110 141 188 247 293 338
#     4   9  16  32  55  83 112 141 184 240 289 340
#     4  12  25  35  55  83 124 159 194 233 297 363
#     4   8  15  28  57  88 106 133 181 241 293 331
#     4  11  24  40  58  83 116 161 204 241 298 362
#     4  10  20  36  58  82 113 150 194 241 289 347
#
# _framework density 18.816420000000001
#
# number of rings (size 3 to 8) (size 9 to 14) (size 15 to 20)
#    0.000    1.857    2.857    3.000    2.000    2.857 
#    0.000    0.714    0.000    0.857    0.000    4.000 
#    0.000    0.000    0.000    0.000    0.000    0.000 
#
# Total GULP energy -311816.211320 kJ/mol
# GULP energy per Si atom -5568.146631 kJ/mol
# Density = 1.877359 g / cm^3
# Si number density = 18.816420 Si / 1000 Ang^3
#
#
#
# Elastic Constant Matrix: (Units=GPa)
#
#
# Indices 1 2 3 4 5 6 
#
# 1 96.7095 46.4097 14.1669 0.0000 0.0000 0.0000
# 2 46.4097 125.5367 20.8939 0.0000 0.0000 0.0000
# 3 14.1669 20.8939 45.6925 0.0000 0.0000 0.0000
# 4 0.0000 0.0000 0.0000 3.9795 0.0000 0.0000
# 5 0.0000 0.0000 0.0000 0.0000 15.4770 0.0000
# 6 0.0000 0.0000 0.0000 0.0000 0.0000 20.3537
#
#
#
# Elastic Compliance Matrix: (Units=1/GPa)
#
#
# Indices 1 2 3 4 5 6 
#
# 1 0.012728 -0.004382 -0.001942 0.000000 0.000000 0.000000
# 2 -0.004382 0.010131 -0.003274 0.000000 0.000000 0.000000
# 3 -0.001942 -0.003274 0.023985 0.000000 0.000000 0.000000
# 4 0.000000 0.000000 0.000000 0.251287 0.000000 0.000000
# 5 0.000000 0.000000 0.000000 0.000000 0.064612 0.000000
# 6 0.000000 0.000000 0.000000 0.000000 0.000000 0.049131
#
#
# Mechanical properties :
#
#
# Convention : Reuss Voigt Hill
#
# Bulk Modulus (GPa) = 36.17091 47.87551 42.02321
# Shear Modulus (GPa) = 11.35627 20.39325 15.87476
#
# Velocity S-wave (km/s) = 2.45935 3.29568 2.90774
# Velocity P-wave (km/s) = 5.22775 6.32303 5.80130
#
# Compressibility (1/GPa) = 0.02764652
#
# Stress axis : x y z
#
# Youngs Moduli (GPa) = 78.56909 98.71017 41.69320
#
# Poissons Ratio (x) = 0.43255 0.08099
# Poissons Ratio (y) = 0.34429 0.13650
# Poissons Ratio (z) = 0.15261 0.32316
#
# Static dielectric constant tensor:
#      x y z
#    x 1.530150 0.000000 0.000000 
#    y 0.000000 1.751100 0.000000 
#    z 0.000000 0.000000 1.683590 
# 
# From -- ./inp_files/27015.got.cif
#   From: 2010.05.17/outbox.cif.g08.bks.cpg/sg66_14_cif.got.tgz:27015.got - 2010.06.03 17:51:23.
