data_PCOD9495156
_publ_section_title
;
Structure prediction by ZEFSAII (Michael W. Deem and Ramdas Pophale) SiO2 
 PCOD9495156
Probable space group: C C C M
;
_chemical_formula_sum "Si O2"
_cell_formula_units_Z 112
_cell_length_a 15.787938
_cell_length_b 17.726514
_cell_length_c 23.672493
_cell_angle_alpha 90.000000
_cell_angle_beta 90.000000
_cell_angle_gamma 90.000000
_cell_volume 6625.104715
_symmetry_space_group_name_H-M "C C C M"
_symmetry_group_IT_number 66
_symmetry_cell_setting 'orthorhombic'
loop_
_space_group_symop_operation_xyz
x,y,z
-x,-y,z
x,-y,1/2-z
-x,y,1/2-z
-x,-y,-z
x,y,-z
-x,y,1/2+z
x,-y,1/2+z
1/2+x,1/2+y,z
1/2-x,1/2-y,z
1/2+x,1/2-y,1/2-z
1/2-x,1/2+y,1/2-z
1/2-x,1/2-y,-z
1/2+x,1/2+y,-z
1/2-x,1/2+y,1/2+z
1/2+x,1/2-y,1/2+z
loop_
_atom_site_type_symbol
_atom_site_label
_atom_site_fract_x
_atom_site_fract_y
_atom_site_fract_z
Si Si1 0.343127 0.286274 0.170162
Si Si2 0.093723 0.339550 0.253770
Si Si3 0.563801 0.561810 0.565243
Si Si4 0.120771 0.703980 0.116236
Si Si5 0.711591 0.635275 0.623855
Si Si6 0.271154 0.588578 0.747059
Si Si7 0.534810 0.721380 0.064373
O O1 0.250000 0.250000 0.164100
O O2 0.395557 0.232849 0.213079
O O3 0.325946 0.366494 0.200570
O O4 0.392210 0.285773 0.111101
O O5 0.103801 0.311796 0.318022
O O6 0.171138 0.394483 0.237536
O O7 0.000000 0.373082 0.250000
O O8 0.500000 0.500000 0.589954
O O9 0.580765 0.541467 0.500000
O O10 0.652318 0.572070 0.596829
O O11 0.515374 0.641803 0.565828
O O12 0.192656 0.642560 0.100375
O O13 0.167092 0.784765 0.111671
O O14 0.033534 0.714448 0.082551
O O15 0.712392 0.624294 0.691203
O O16 0.287896 0.500000 0.750000
O O17 0.563837 0.733782 0.000000
#
# Coordination Sequence:
#
# PCOD9495156 Si02
#       7
#    16  16  16  16  16  16  16
#     4  10  20  34  53  75 103 135 166 207 260 309
#     4  10  17  32  55  73  98 132 167 208 263 310
#     4   9  19  33  47  68 101 139 170 199 246 309
#     4   9  16  30  50  74  97 125 167 211 256 301
#     4   9  17  30  50  71 100 131 162 210 257 300
#     4  10  21  32  48  77 105 132 168 210 253 310
#     4  10  20  32  50  74  99 130 173 215 247 296
#
# _framework density 16.905393
#
# number of rings (size 3 to 8) (size 9 to 14) (size 15 to 20)
#    0.000    2.429    2.857    0.000    2.000    1.143 
#    0.000    2.857    0.000    0.000    0.000    0.000 
#    0.000    5.714    0.000    0.000    0.000    0.000 
#
# Total GULP energy -311796.684912 kJ/mol
# GULP energy per Si atom -5567.797945 kJ/mol
# Density = 1.686692 g / cm^3
# Si number density = 16.905393 Si / 1000 Ang^3
#
#
#
# Elastic Constant Matrix: (Units=GPa)
#
#
# Indices 1 2 3 4 5 6 
#
# 1 96.1845 26.6381 48.1670 0.0000 0.0000 0.0000
# 2 26.6381 56.0074 25.6066 0.0000 0.0000 0.0000
# 3 48.1670 25.6066 83.9058 0.0000 0.0000 0.0000
# 4 0.0000 0.0000 0.0000 11.6884 0.0000 0.0000
# 5 0.0000 0.0000 0.0000 0.0000 20.2653 0.0000
# 6 0.0000 0.0000 0.0000 0.0000 0.0000 17.0728
#
#
#
# Elastic Compliance Matrix: (Units=1/GPa)
#
#
# Indices 1 2 3 4 5 6 
#
# 1 0.015249 -0.003778 -0.007601 0.000000 0.000000 0.000000
# 2 -0.003778 0.021686 -0.004450 0.000000 0.000000 0.000000
# 3 -0.007601 -0.004450 0.017640 0.000000 0.000000 0.000000
# 4 0.000000 0.000000 0.000000 0.085555 0.000000 0.000000
# 5 0.000000 0.000000 0.000000 0.000000 0.049345 0.000000
# 6 0.000000 0.000000 0.000000 0.000000 0.000000 0.058573
#
#
# Mechanical properties :
#
#
# Convention : Reuss Voigt Hill
#
# Bulk Modulus (GPa) = 43.63371 48.54679 46.09025
# Shear Modulus (GPa) = 17.40076 18.85104 18.12590
#
# Velocity S-wave (km/s) = 3.21175 3.34292 3.27799
# Velocity P-wave (km/s) = 6.29447 6.60903 6.45367
#
# Compressibility (1/GPa) = 0.02291806
#
# Stress axis : x y z
#
# Youngs Moduli (GPa) = 65.57642 46.11309 56.69061
#
# Poissons Ratio (x) = 0.17420 0.43092
# Poissons Ratio (y) = 0.24772 0.25225
# Poissons Ratio (z) = 0.49846 0.20518
#
# Static dielectric constant tensor:
#      x y z
#    x 1.605020 0.000000 0.000000 
#    y 0.000000 1.572340 0.000000 
#    z 0.000000 0.000000 1.564970 
# 
# From -- ./inp_files/51190.got.cif
#   From: 2010.05.17/outbox.cif.g08.bks.cpg/sg66_26_cif.got.tgz:51190.got - 2010.06.03 17:51:23.
