data_PCOD9495090
_publ_section_title
;
Structure prediction by ZEFSAII (Michael W. Deem and Ramdas Pophale) SiO2 
 PCOD9495090
Probable space group: C C C M
;
_chemical_formula_sum "Si O2"
_cell_formula_units_Z 112
_cell_length_a 23.085165
_cell_length_b 17.167576
_cell_length_c 17.478661
_cell_angle_alpha 90.000000
_cell_angle_beta 90.000000
_cell_angle_gamma 90.000000
_cell_volume 6927.078687
_symmetry_space_group_name_H-M "C C C M"
_symmetry_group_IT_number 66
_symmetry_cell_setting 'orthorhombic'
loop_
_space_group_symop_operation_xyz
x,y,z
-x,-y,z
x,-y,1/2-z
-x,y,1/2-z
-x,-y,-z
x,y,-z
-x,y,1/2+z
x,-y,1/2+z
1/2+x,1/2+y,z
1/2-x,1/2-y,z
1/2+x,1/2-y,1/2-z
1/2-x,1/2+y,1/2-z
1/2-x,1/2-y,-z
1/2+x,1/2+y,-z
1/2-x,1/2+y,1/2+z
1/2+x,1/2-y,1/2+z
loop_
_atom_site_type_symbol
_atom_site_label
_atom_site_fract_x
_atom_site_fract_y
_atom_site_fract_z
Si Si1 0.271161 0.366392 0.412409
Si Si2 0.549020 0.825678 0.408610
Si Si3 0.168414 0.725941 0.156219
Si Si4 0.223049 0.511466 0.338439
Si Si5 0.300971 0.190234 0.831437
Si Si6 0.102894 0.510388 0.089281
Si Si7 0.421226 0.169827 0.090791
O O1 0.289350 0.359337 0.500000
O O2 0.208402 0.324915 0.401298
O O3 0.312509 0.314934 0.358436
O O4 0.264208 0.455771 0.387659
O O5 0.554487 0.810032 0.500000
O O6 0.601680 0.786919 0.363362
O O7 0.558951 0.918830 0.399391
O O8 0.484578 0.802307 0.383032
O O9 0.186513 0.697983 0.240631
O O10 0.237043 0.500000 0.250000
O O11 0.220367 0.603513 0.353620
O O12 0.158090 0.481263 0.356178
O O13 0.250000 0.250000 0.851653
O O14 0.363436 0.202752 0.870647
O O15 0.079108 0.423922 0.102204
O O16 0.122376 0.513896 0.000000
O O17 0.417483 0.183170 0.000000
#
# Coordination Sequence:
#
# PCOD9495090 Si02
#       7
#    16  16  16  16  16  16  16
#     4  11  20  32  51  77 103 134 172 212 259 314
#     4  10  17  29  47  71 102 134 167 210 257 302
#     4  11  19  32  50  76 104 134 166 212 265 314
#     4  11  18  30  47  71 103 136 171 210 252 303
#     4  11  21  36  52  71 104 141 176 216 262 300
#     4   9  16  27  44  65  94 133 171 204 241 291
#     4   9  20  32  46  68  97 136 180 212 244 304
#
# _framework density 16.168431999999999
#
# number of rings (size 3 to 8) (size 9 to 14) (size 15 to 20)
#    0.000    1.714    4.286    2.571    0.000    3.143 
#    0.000    0.000    0.000    2.571    0.000    1.000 
#    0.000    6.857    0.000    0.000    0.000    0.000 
#
# Total GULP energy -312201.796808 kJ/mol
# GULP energy per Si atom -5575.032086 kJ/mol
# Density = 1.613163 g / cm^3
# Si number density = 16.168432 Si / 1000 Ang^3
#
#
#
# Elastic Constant Matrix: (Units=GPa)
#
#
# Indices 1 2 3 4 5 6 
#
# 1 110.6112 47.3562 23.3292 0.0000 0.0000 0.0000
# 2 47.3562 66.5022 16.9969 0.0000 0.0000 0.0000
# 3 23.3292 16.9969 30.3983 0.0000 0.0000 0.0000
# 4 0.0000 0.0000 0.0000 18.6584 0.0000 0.0000
# 5 0.0000 0.0000 0.0000 0.0000 14.1119 0.0000
# 6 0.0000 0.0000 0.0000 0.0000 0.0000 18.8051
#
#
#
# Elastic Compliance Matrix: (Units=1/GPa)
#
#
# Indices 1 2 3 4 5 6 
#
# 1 0.013879 -0.008355 -0.005980 0.000000 0.000000 0.000000
# 2 -0.008355 0.022574 -0.006210 0.000000 0.000000 0.000000
# 3 -0.005980 -0.006210 0.040958 0.000000 0.000000 0.000000
# 4 0.000000 0.000000 0.000000 0.053595 0.000000 0.000000
# 5 0.000000 0.000000 0.000000 0.000000 0.070862 0.000000
# 6 0.000000 0.000000 0.000000 0.000000 0.000000 0.053177
#
#
# Mechanical properties :
#
#
# Convention : Reuss Voigt Hill
#
# Bulk Modulus (GPa) = 27.53196 42.54180 35.03688
# Shear Modulus (GPa) = 16.22106 18.30370 17.26238
#
# Velocity S-wave (km/s) = 3.17086 3.36827 3.27105
# Velocity P-wave (km/s) = 5.52005 6.44172 5.99861
#
# Compressibility (1/GPa) = 0.03632142
#
# Stress axis : x y z
#
# Youngs Moduli (GPa) = 72.05220 44.29937 24.41526
#
# Poissons Ratio (x) = 0.37011 0.14600
# Poissons Ratio (y) = 0.60198 0.15162
# Poissons Ratio (z) = 0.43086 0.27510
#
# Static dielectric constant tensor:
#      x y z
#    x 1.547560 0.000000 0.000000 
#    y 0.000000 1.564090 0.000000 
#    z 0.000000 0.000000 1.556700 
# 
# From -- ./inp_files/43039.got.cif
#   From: 2010.05.17/outbox.cif.g08.bks.cpg/sg66_22_cif.got.tgz:43039.got - 2010.06.03 17:51:23.
