data_PCOD9495285
_publ_section_title
;
Structure prediction by ZEFSAII (Michael W. Deem and Ramdas Pophale) SiO2 
 PCOD9495285
Probable space group: C C C M
;
_chemical_formula_sum "Si O2"
_cell_formula_units_Z 64
_cell_length_a 7.464772
_cell_length_b 22.550255
_cell_length_c 16.878050
_cell_angle_alpha 90.000000
_cell_angle_beta 90.000000
_cell_angle_gamma 90.000000
_cell_volume 2841.124556
_symmetry_space_group_name_H-M "C C C M"
_symmetry_group_IT_number 66
_symmetry_cell_setting 'orthorhombic'
loop_
_space_group_symop_operation_xyz
x,y,z
-x,-y,z
x,-y,1/2-z
-x,y,1/2-z
-x,-y,-z
x,y,-z
-x,y,1/2+z
x,-y,1/2+z
1/2+x,1/2+y,z
1/2-x,1/2-y,z
1/2+x,1/2-y,1/2-z
1/2-x,1/2+y,1/2-z
1/2-x,1/2-y,-z
1/2+x,1/2+y,-z
1/2-x,1/2+y,1/2+z
1/2+x,1/2-y,1/2+z
loop_
_atom_site_type_symbol
_atom_site_label
_atom_site_fract_x
_atom_site_fract_y
_atom_site_fract_z
Si Si1 0.943745 0.811142 0.904755
Si Si2 0.961057 0.564530 0.909555
Si Si3 0.468156 0.436519 0.090611
Si Si4 0.963306 0.310961 0.658040
O O1 0.034432 0.872987 0.877847
O O2 0.033699 0.748552 0.884624
O O3 0.748649 0.810946 0.863414
O O4 0.918112 0.814466 0.000000
O O5 0.746256 0.569023 0.912881
O O6 0.030343 0.624476 0.869596
O O7 0.000000 0.500000 0.872809
O O8 0.029451 0.563458 0.000000
O O9 0.500000 0.500000 0.130881
O O10 0.538542 0.441137 0.000000
O O11 0.000000 0.304153 0.750000
#
# Coordination Sequence:
#
# PCOD9495285 Si02
#       4
#    16  16  16  16
#     4   9  17  33  55  74  96 133 179 215 252 314
#     4   9  17  30  49  73 101 133 168 207 255 311
#     4   8  14  27  50  76  96 121 165 213 246 285
#     4  10  18  29  48  73  99 127 165 215 260 301
#
# _framework density 22.526292000000002
#
# number of rings (size 3 to 8) (size 9 to 14) (size 15 to 20)
#    0.000    3.000    0.000    4.500    0.000    0.500 
#    0.000    5.000    0.000    3.750    0.000   33.250 
#    0.000    0.000    0.000    0.000    0.000    4.000 
#
# Total GULP energy -178256.409614 kJ/mol
# GULP energy per Si atom -5570.512800 kJ/mol
# Density = 2.247502 g / cm^3
# Si number density = 22.526292 Si / 1000 Ang^3
#
#
#
# Elastic Constant Matrix: (Units=GPa)
#
#
# Indices 1 2 3 4 5 6 
#
# 1 68.2045 13.0870 10.9021 0.0000 0.0000 0.0000
# 2 13.0870 304.4016 48.8167 0.0000 0.0000 0.0000
# 3 10.9021 48.8167 76.6666 0.0000 0.0000 0.0000
# 4 0.0000 0.0000 0.0000 -58.3733 0.0000 0.0000
# 5 0.0000 0.0000 0.0000 0.0000 30.0857 0.0000
# 6 0.0000 0.0000 0.0000 0.0000 0.0000 19.0076
#
#
#
# Elastic Compliance Matrix: (Units=1/GPa)
#
#
# Indices 1 2 3 4 5 6 
#
# 1 0.015034 -0.000338 -0.001923 0.000000 0.000000 0.000000
# 2 -0.000338 0.003666 -0.002286 0.000000 0.000000 0.000000
# 3 -0.001923 -0.002286 0.014773 0.000000 0.000000 0.000000
# 4 0.000000 0.000000 0.000000 -0.017131 0.000000 0.000000
# 5 0.000000 0.000000 0.000000 0.000000 0.033238 0.000000
# 6 0.000000 0.000000 0.000000 0.000000 0.000000 0.052611
#
#
# Mechanical properties :
#
#
# Convention : Reuss Voigt Hill
#
# Bulk Modulus (GPa) = 41.01907 66.09826 53.55866
# Shear Modulus (GPa) = 41.87208 23.24179 32.55694
#
# Velocity S-wave (km/s) = 4.31607 3.21559 3.80582
# Velocity P-wave (km/s) = 6.56406 6.57215 6.56810
#
# Compressibility (1/GPa) = 0.02437891
#
# Stress axis : x y z
#
# Youngs Moduli (GPa) = 66.51601 272.75141 67.69219
#
# Poissons Ratio (x) = 0.09219 0.13015
# Poissons Ratio (y) = 0.02248 0.15477
# Poissons Ratio (z) = 0.12789 0.62363
#
# Static dielectric constant tensor:
#      x y z
#    x 1.896920 0.000000 0.000000 
#    y 0.000000 1.984470 0.000000 
#    z 0.000000 0.000000 1.769390 
# 
# From -- ./inp_files/24145.got.cif
#   From: 2010.05.17/outbox.cif.g08.bks.cpg/sg66_13_cif.got.tgz:24145.got - 2010.06.03 17:51:23.
