data_PCOD9495895
_publ_section_title
;
Structure prediction by ZEFSAII (Michael W. Deem and Ramdas Pophale) SiO2 
 PCOD9495895
Probable space group: C C C M
;
_chemical_formula_sum "Si O2"
_cell_formula_units_Z 116
_cell_length_a 25.957405
_cell_length_b 27.079367
_cell_length_c 8.937171
_cell_angle_alpha 90.000000
_cell_angle_beta 90.000000
_cell_angle_gamma 90.000000
_cell_volume 6282.027729
_symmetry_space_group_name_H-M "C C C M"
_symmetry_group_IT_number 66
_symmetry_cell_setting 'orthorhombic'
loop_
_space_group_symop_operation_xyz
x,y,z
-x,-y,z
x,-y,1/2-z
-x,y,1/2-z
-x,-y,-z
x,y,-z
-x,y,1/2+z
x,-y,1/2+z
1/2+x,1/2+y,z
1/2-x,1/2-y,z
1/2+x,1/2-y,1/2-z
1/2-x,1/2+y,1/2-z
1/2-x,1/2-y,-z
1/2+x,1/2+y,-z
1/2-x,1/2+y,1/2+z
1/2+x,1/2-y,1/2+z
loop_
_atom_site_type_symbol
_atom_site_label
_atom_site_fract_x
_atom_site_fract_y
_atom_site_fract_z
Si Si1 0.500000 0.000000 0.500000
Si Si2 0.947043 0.728928 0.174399
Si Si3 0.552721 0.651377 0.827474
Si Si4 0.276502 0.134028 0.178361
Si Si5 0.663381 0.331464 0.320101
Si Si6 0.340146 0.777173 0.179201
Si Si7 0.950488 0.412157 0.335051
Si Si8 0.150830 0.554598 0.821156
O O1 0.468597 0.967112 0.377491
O O2 0.946903 0.788801 0.181499
O O3 0.897804 0.710026 0.264868
O O4 0.000000 0.713713 0.250000
O O5 0.943915 0.716915 0.000000
O O6 0.500000 0.634174 0.750000
O O7 0.610754 0.640924 0.770086
O O8 0.549836 0.636305 0.000000
O O9 0.215288 0.137894 0.202367
O O10 0.301848 0.183734 0.245590
O O11 0.302370 0.087521 0.259369
O O12 0.286523 0.131842 0.000000
O O13 0.658211 0.321763 0.500000
O O14 0.669144 0.278592 0.238513
O O15 0.336510 0.779002 0.000000
O O16 0.939796 0.389550 0.500000
O O17 0.900736 0.416942 0.232623
O O18 0.000000 0.390459 0.250000
O O19 0.151484 0.500000 0.750000
O O20 0.150867 0.550982 0.000000
#
# Coordination Sequence:
#
# PCOD9495895 Si02
#       8
#     4  16  16  16  16  16  16  16
#     4   8  18  24  50  76 102 120 160 208 256 322
#     4   9  16  28  46  69  97 134 176 219 267 322
#     4   8  14  25  43  71 102 132 169 208 250 300
#     4  11  23  40  57  76 103 141 185 228 273 325
#     4   9  19  35  55  77 107 146 184 224 270 319
#     4  11  21  33  52  78 108 142 182 227 274 325
#     4  10  19  31  53  82 105 131 168 218 274 328
#     4  12  25  40  59  81 108 139 175 221 277 338
#
# _framework density 18.465375000000002
#
# number of rings (size 3 to 8) (size 9 to 14) (size 15 to 20)
#    0.414    1.655    0.000    6.000    1.931    6.069 
#    0.000    0.690    0.000    0.000    0.000    0.000 
#    0.000    0.552    0.000    6.345    0.000    2.069 
#
# Total GULP energy -322950.933921 kJ/mol
# GULP energy per Si atom -5568.119550 kJ/mol
# Density = 1.842335 g / cm^3
# Si number density = 18.465375 Si / 1000 Ang^3
#
#
#
# Elastic Constant Matrix: (Units=GPa)
#
#
# Indices 1 2 3 4 5 6 
#
# 1 159.4493 35.2335 66.8603 0.0000 0.0000 0.0000
# 2 35.2335 38.6941 26.5445 0.0000 0.0000 0.0000
# 3 66.8603 26.5445 139.3146 0.0000 0.0000 0.0000
# 4 0.0000 0.0000 0.0000 10.3256 0.0000 0.0000
# 5 0.0000 0.0000 0.0000 0.0000 31.5919 0.0000
# 6 0.0000 0.0000 0.0000 0.0000 0.0000 33.7490
#
#
#
# Elastic Compliance Matrix: (Units=1/GPa)
#
#
# Indices 1 2 3 4 5 6 
#
# 1 0.008903 -0.005954 -0.003138 0.000000 0.000000 0.000000
# 2 -0.005954 0.033711 -0.003566 0.000000 0.000000 0.000000
# 3 -0.003138 -0.003566 0.009364 0.000000 0.000000 0.000000
# 4 0.000000 0.000000 0.000000 0.096846 0.000000 0.000000
# 5 0.000000 0.000000 0.000000 0.000000 0.031654 0.000000
# 6 0.000000 0.000000 0.000000 0.000000 0.000000 0.029630
#
#
# Mechanical properties :
#
#
# Convention : Reuss Voigt Hill
#
# Bulk Modulus (GPa) = 37.50680 66.08162 51.79421
# Shear Modulus (GPa) = 20.46559 29.05462 24.76010
#
# Velocity S-wave (km/s) = 3.33276 3.97100 3.66579
# Velocity P-wave (km/s) = 5.93007 7.54252 6.78437
#
# Compressibility (1/GPa) = 0.02666183
#
# Stress axis : x y z
#
# Youngs Moduli (GPa) = 112.31868 29.66357 106.79636
#
# Poissons Ratio (x) = 0.17662 0.33517
# Poissons Ratio (y) = 0.66874 0.38081
# Poissons Ratio (z) = 0.35250 0.10577
#
# Static dielectric constant tensor:
#      x y z
#    x 1.673070 0.000000 0.000000 
#    y 0.000000 1.647450 0.000000 
#    z 0.000000 0.000000 1.642400 
# 
# From -- ./inp_files/9627.got.cif
#   From: 2010.05.17/outbox.cif.g08.bks.cpg/sg66_5_cif.got.tgz:9627.got - 2010.06.03 17:51:23.
