data_PCOD9495371
_publ_section_title
;
Structure prediction by ZEFSAII (Michael W. Deem and Ramdas Pophale) SiO2 
 PCOD9495371
Probable space group: C C C M
;
_chemical_formula_sum "Si O2"
_cell_formula_units_Z 80
_cell_length_a 13.511430
_cell_length_b 13.103463
_cell_length_c 17.300017
_cell_angle_alpha 90.000000
_cell_angle_beta 90.000000
_cell_angle_gamma 90.000000
_cell_volume 3062.907859
_symmetry_space_group_name_H-M "C C C M"
_symmetry_group_IT_number 66
_symmetry_cell_setting 'orthorhombic'
loop_
_space_group_symop_operation_xyz
x,y,z
-x,-y,z
x,-y,1/2-z
-x,y,1/2-z
-x,-y,-z
x,y,-z
-x,y,1/2+z
x,-y,1/2+z
1/2+x,1/2+y,z
1/2-x,1/2-y,z
1/2+x,1/2-y,1/2-z
1/2-x,1/2+y,1/2-z
1/2-x,1/2-y,-z
1/2+x,1/2+y,-z
1/2-x,1/2+y,1/2+z
1/2+x,1/2-y,1/2+z
loop_
_atom_site_type_symbol
_atom_site_label
_atom_site_fract_x
_atom_site_fract_y
_atom_site_fract_z
Si Si1 0.904972 0.141720 0.884704
Si Si2 0.616413 0.027482 0.500000
Si Si3 0.855539 0.299972 0.000000
Si Si4 0.105499 0.438221 0.823105
Si Si5 0.636418 0.585082 0.914224
Si Si6 0.113070 0.204361 0.227130
O O1 0.909114 0.250709 0.927527
O O2 0.843485 0.172765 0.808791
O O3 0.019285 0.108294 0.899220
O O4 0.852585 0.036832 0.911023
O O5 0.661160 0.916499 0.500000
O O6 0.500000 0.000000 0.500000
O O7 0.640702 0.070259 0.586163
O O8 0.750000 0.250000 0.000000
O O9 0.154617 0.500000 0.750000
O O10 0.099003 0.321480 0.794578
O O11 0.000000 0.500000 0.830381
O O12 0.673106 0.645658 0.839221
O O13 0.663569 0.621519 0.000000
O O14 0.000000 0.165870 0.250000
#
# Coordination Sequence:
#
# PCOD9495371 Si02
#       6
#    16   8   8  16  16  16
#     4  10  19  35  51  83 121 153 197 247 302 356
#     4  10  24  34  58  86 119 155 202 259 312 354
#     4  12  24  39  62  86 121 168 206 247 301 375
#     4  10  18  31  47  79 116 155 191 241 303 358
#     4  10  18  30  54  86 122 147 187 255 313 350
#     4  10  19  28  52  80 122 158 187 240 314 362
#
# _framework density 26.118970000000001
#
# number of rings (size 3 to 8) (size 9 to 14) (size 15 to 20)
#    0.000    1.800    4.000    2.400    9.800    2.400 
#    0.000    0.000    0.000    7.200    0.000    1.400 
#    0.000    0.000    0.000    0.000    0.000    0.000 
#
# Total GULP energy -222698.527885 kJ/mol
# GULP energy per Si atom -5567.463197 kJ/mol
# Density = 2.605952 g / cm^3
# Si number density = 26.118970 Si / 1000 Ang^3
#
#
#
# Elastic Constant Matrix: (Units=GPa)
#
#
# Indices 1 2 3 4 5 6 
#
# 1 67.0229 5.8966 1.2474 0.0000 0.0000 0.0000
# 2 5.8966 64.2220 82.8636 0.0000 0.0000 0.0000
# 3 1.2474 82.8636 285.8296 0.0000 0.0000 0.0000
# 4 0.0000 0.0000 0.0000 305.6068 0.0000 0.0000
# 5 0.0000 0.0000 0.0000 0.0000 55.9448 0.0000
# 6 0.0000 0.0000 0.0000 0.0000 0.0000 21.6353
#
#
#
# Elastic Compliance Matrix: (Units=1/GPa)
#
#
# Indices 1 2 3 4 5 6 
#
# 1 0.015093 -0.002078 0.000537 0.000000 0.000000 0.000000
# 2 -0.002078 0.025162 -0.007286 0.000000 0.000000 0.000000
# 3 0.000537 -0.007286 0.005608 0.000000 0.000000 0.000000
# 4 0.000000 0.000000 0.000000 0.003272 0.000000 0.000000
# 5 0.000000 0.000000 0.000000 0.000000 0.017875 0.000000
# 6 0.000000 0.000000 0.000000 0.000000 0.000000 0.046221
#
#
# Mechanical properties :
#
#
# Convention : Reuss Voigt Hill
#
# Bulk Modulus (GPa) = 35.44922 66.34332 50.89627
# Shear Modulus (GPa) = 35.64079 98.44183 67.04131
#
# Velocity S-wave (km/s) = 3.69800 6.14586 5.07182
# Velocity P-wave (km/s) = 5.64227 8.70734 7.33665
#
# Compressibility (1/GPa) = 0.02820936
#
# Stress axis : x y z
#
# Youngs Moduli (GPa) = 66.25539 39.74231 178.30498
#
# Poissons Ratio (x) = 0.08259 -0.09568
# Poissons Ratio (y) = 0.13769 1.29905
# Poissons Ratio (z) = -0.03555 0.28954
#
# Static dielectric constant tensor:
#      x y z
#    x 2.508010 0.000000 0.000000 
#    y 0.000000 1.917800 0.000000 
#    z 0.000000 0.000000 -0.820650 
# 
# From -- ./inp_files/42711.got.cif
#   From: 2010.05.17/outbox.cif.g08.bks.cpg/sg66_22_cif.got.tgz:42711.got - 2010.06.03 17:51:23.
