data_PCOD9495604
_publ_section_title
;
Structure prediction by ZEFSAII (Michael W. Deem and Ramdas Pophale) SiO2 
 PCOD9495604
Probable space group: C C C M
;
_chemical_formula_sum "Si O2"
_cell_formula_units_Z 72
_cell_length_a 17.519398
_cell_length_b 11.731923
_cell_length_c 19.863763
_cell_angle_alpha 90.000000
_cell_angle_beta 90.000000
_cell_angle_gamma 90.000000
_cell_volume 4082.722928
_symmetry_space_group_name_H-M "C C C M"
_symmetry_group_IT_number 66
_symmetry_cell_setting 'orthorhombic'
loop_
_space_group_symop_operation_xyz
x,y,z
-x,-y,z
x,-y,1/2-z
-x,y,1/2-z
-x,-y,-z
x,y,-z
-x,y,1/2+z
x,-y,1/2+z
1/2+x,1/2+y,z
1/2-x,1/2-y,z
1/2+x,1/2-y,1/2-z
1/2-x,1/2+y,1/2-z
1/2-x,1/2-y,-z
1/2+x,1/2+y,-z
1/2-x,1/2+y,1/2+z
1/2+x,1/2-y,1/2+z
loop_
_atom_site_type_symbol
_atom_site_label
_atom_site_fract_x
_atom_site_fract_y
_atom_site_fract_z
Si Si1 0.248558 0.622631 0.576925
Si Si2 0.510842 0.813796 0.000000
Si Si3 0.750000 0.250000 0.885435
Si Si4 0.606864 0.579783 0.000000
Si Si5 0.863428 0.828840 0.500000
Si Si6 0.160467 0.545132 0.825049
Si Si7 0.500000 0.000000 0.887438
O O1 0.215498 0.625141 0.500000
O O2 0.250000 0.750000 0.603935
O O3 0.336114 0.588836 0.563894
O O4 0.202443 0.539180 0.623111
O O5 0.524830 0.894752 0.935691
O O6 0.556505 0.694122 0.000000
O O7 0.421603 0.776972 0.000000
O O8 0.800997 0.333521 0.840380
O O9 0.807347 0.181786 0.935681
O O10 0.586601 0.445576 0.000000
O O11 0.172220 0.500000 0.750000
O O12 0.071314 0.541575 0.843685
#
# Coordination Sequence:
#
# PCOD9495604 Si02
#       7
#    16   8   8   8   8  16   8
#     4   9  19  35  59  87 118 153 200 258 292 354
#     4  11  22  35  64  95 124 165 201 258 317 365
#     4  11  22  42  62  92 121 164 204 260 307 378
#     4  10  18  34  58  90 129 151 203 253 314 360
#     4  11  20  37  66  90 127 153 208 256 316 369
#     4  12  25  41  64  87 127 165 204 256 310 371
#     4  11  25  40  60  94 124 164 212 252 308 372
#
# _framework density 17.635289
#
# number of rings (size 3 to 8) (size 9 to 14) (size 15 to 20)
#    0.667    0.667    4.444    2.000    6.222    0.000 
#    0.000    0.000    0.000    0.000    0.000    1.556 
#    0.000    0.000    0.000    0.000    0.000    0.000 
#
# Total GULP energy -200634.902510 kJ/mol
# GULP energy per Si atom -5573.191736 kJ/mol
# Density = 1.759515 g / cm^3
# Si number density = 17.635289 Si / 1000 Ang^3
#
#
#
# Elastic Constant Matrix: (Units=GPa)
#
#
# Indices 1 2 3 4 5 6 
#
# 1 93.5528 44.7974 40.9971 0.0000 0.0000 0.0000
# 2 44.7974 126.7614 40.4287 0.0000 0.0000 0.0000
# 3 40.9971 40.4287 77.5022 0.0000 0.0000 0.0000
# 4 0.0000 0.0000 0.0000 12.8751 0.0000 0.0000
# 5 0.0000 0.0000 0.0000 0.0000 25.6003 0.0000
# 6 0.0000 0.0000 0.0000 0.0000 0.0000 42.9441
#
#
#
# Elastic Compliance Matrix: (Units=1/GPa)
#
#
# Indices 1 2 3 4 5 6 
#
# 1 0.014997 -0.003323 -0.006200 0.000000 0.000000 0.000000
# 2 -0.003323 0.010199 -0.003563 0.000000 0.000000 0.000000
# 3 -0.006200 -0.003563 0.018041 0.000000 0.000000 0.000000
# 4 0.000000 0.000000 0.000000 0.077669 0.000000 0.000000
# 5 0.000000 0.000000 0.000000 0.000000 0.039062 0.000000
# 6 0.000000 0.000000 0.000000 0.000000 0.000000 0.023286
#
#
# Mechanical properties :
#
#
# Convention : Reuss Voigt Hill
#
# Bulk Modulus (GPa) = 58.59360 61.14032 59.86696
# Shear Modulus (GPa) = 23.24339 27.72344 25.48342
#
# Velocity S-wave (km/s) = 3.63437 3.96920 3.80547
# Velocity P-wave (km/s) = 7.13505 7.46664 7.30272
#
# Compressibility (1/GPa) = 0.01706671
#
# Stress axis : x y z
#
# Youngs Moduli (GPa) = 66.67942 98.04527 55.42909
#
# Poissons Ratio (x) = 0.32576 0.34366
# Poissons Ratio (y) = 0.22155 0.19749
# Poissons Ratio (z) = 0.41341 0.34932
#
# Static dielectric constant tensor:
#      x y z
#    x 1.634550 0.000000 0.000000 
#    y 0.000000 1.616020 0.000000 
#    z 0.000000 0.000000 1.566390 
# 
# From -- ./inp_files/50804.got.cif
#   From: 2010.05.17/outbox.cif.g08.bks.cpg/sg66_26_cif.got.tgz:50804.got - 2010.06.03 17:51:23.
