data_PCOD9495660
_publ_section_title
;
Structure prediction by ZEFSAII (Michael W. Deem and Ramdas Pophale) SiO2 
 PCOD9495660
Probable space group: C C C M
;
_chemical_formula_sum "Si O2"
_cell_formula_units_Z 104
_cell_length_a 9.469687
_cell_length_b 25.892245
_cell_length_c 21.747636
_cell_angle_alpha 90.000000
_cell_angle_beta 90.000000
_cell_angle_gamma 90.000000
_cell_volume 5332.334533
_symmetry_space_group_name_H-M "C C C M"
_symmetry_group_IT_number 66
_symmetry_cell_setting 'orthorhombic'
loop_
_space_group_symop_operation_xyz
x,y,z
-x,-y,z
x,-y,1/2-z
-x,y,1/2-z
-x,-y,-z
x,y,-z
-x,y,1/2+z
x,-y,1/2+z
1/2+x,1/2+y,z
1/2-x,1/2-y,z
1/2+x,1/2-y,1/2-z
1/2-x,1/2+y,1/2-z
1/2-x,1/2-y,-z
1/2+x,1/2+y,-z
1/2-x,1/2+y,1/2+z
1/2+x,1/2-y,1/2+z
loop_
_atom_site_type_symbol
_atom_site_label
_atom_site_fract_x
_atom_site_fract_y
_atom_site_fract_z
Si Si1 0.063644 0.558888 0.500000
Si Si2 0.221921 0.309543 0.640175
Si Si3 0.214525 0.311214 0.500000
Si Si4 0.261175 0.536088 0.866930
Si Si5 0.524993 0.107115 0.183205
Si Si6 0.757095 0.417902 0.621779
Si Si7 0.529863 0.382883 0.177866
Si Si8 0.242009 0.079635 0.500000
O O1 0.166570 0.571635 0.556628
O O2 0.000000 0.500000 0.500000
O O3 0.913554 0.588965 0.500000
O O4 0.250000 0.250000 0.653344
O O5 0.159648 0.315869 0.570722
O O6 0.115991 0.340809 0.683848
O O7 0.370041 0.339356 0.648096
O O8 0.250000 0.250000 0.500000
O O9 0.318013 0.361948 0.500000
O O10 0.113061 0.565191 0.855548
O O11 0.253433 0.476204 0.852406
O O12 0.376158 0.565192 0.826055
O O13 0.296282 0.548216 0.938633
O O14 0.500000 0.084813 0.250000
O O15 0.372228 0.116312 0.156109
O O16 0.606703 0.392271 0.635218
O O17 0.500000 0.372028 0.250000
#
# Coordination Sequence:
#
# PCOD9495660 Si02
#       8
#     8  16   8  16  16  16  16   8
#     4  12  20  36  58  93 125 159 207 265 314 365
#     4  10  22  43  67  88 114 156 206 256 319 378
#     4  10  18  35  68  89 101 142 204 251 291 358
#     4  11  22  37  60  83 123 173 204 243 300 374
#     4  11  22  36  58  87 116 161 214 246 296 370
#     4  12  22  36  59  89 126 164 201 260 311 349
#     4  11  25  41  57  88 129 165 208 256 305 370
#     4  12  18  39  62  88 124 155 210 255 301 365
#
# _framework density 19.503651999999999
#
# number of rings (size 3 to 8) (size 9 to 14) (size 15 to 20)
#    0.000    0.923    6.154    2.769    0.000    5.538 
#    0.000    2.308    0.000    0.000    0.000    6.462 
#    0.000    0.000    0.000    0.000    0.000    0.000 
#
# Total GULP energy -289616.415884 kJ/mol
# GULP energy per Si atom -5569.546459 kJ/mol
# Density = 1.945926 g / cm^3
# Si number density = 19.503652 Si / 1000 Ang^3
#
#
#
# Elastic Constant Matrix: (Units=GPa)
#
#
# Indices 1 2 3 4 5 6 
#
# 1 115.1632 39.0827 9.6266 0.0000 0.0000 0.0000
# 2 39.0827 102.9447 1.8464 0.0000 0.0000 0.0000
# 3 9.6266 1.8464 81.2807 0.0000 0.0000 0.0000
# 4 0.0000 0.0000 0.0000 -5.5710 0.0000 0.0000
# 5 0.0000 0.0000 0.0000 0.0000 22.3251 0.0000
# 6 0.0000 0.0000 0.0000 0.0000 0.0000 8.5868
#
#
#
# Elastic Compliance Matrix: (Units=1/GPa)
#
#
# Indices 1 2 3 4 5 6 
#
# 1 0.010066 -0.003802 -0.001106 0.000000 0.000000 0.000000
# 2 -0.003802 0.011154 0.000197 0.000000 0.000000 0.000000
# 3 -0.001106 0.000197 0.012430 0.000000 0.000000 0.000000
# 4 0.000000 0.000000 0.000000 -0.179501 0.000000 0.000000
# 5 0.000000 0.000000 0.000000 0.000000 0.044793 0.000000
# 6 0.000000 0.000000 0.000000 0.000000 0.000000 0.116458
#
#
# Mechanical properties :
#
#
# Convention : Reuss Voigt Hill
#
# Bulk Modulus (GPa) = 41.27457 44.49999 42.88728
# Shear Modulus (GPa) = 151.99569 21.65704 86.82637
#
# Velocity S-wave (km/s) = 8.83748 3.33590 6.67942
# Velocity P-wave (km/s) = 11.19568 6.14031 9.02903
#
# Compressibility (1/GPa) = 0.02422799
#
# Stress axis : x y z
#
# Youngs Moduli (GPa) = 99.34506 89.65626 80.45349
#
# Poissons Ratio (x) = 0.34084 0.08897
# Poissons Ratio (y) = 0.37768 -0.01584
# Poissons Ratio (z) = 0.10986 -0.01765
#
# Static dielectric constant tensor:
#      x y z
#    x 1.694800 0.000000 0.000000 
#    y 0.000000 1.691940 0.000000 
#    z 0.000000 0.000000 1.734110 
# 
# From -- ./inp_files/47430.got.cif
#   From: 2010.05.17/outbox.cif.g08.bks.cpg/sg66_24_cif.got.tgz:47430.got - 2010.06.03 17:51:23.
