data_PCOD9495684
_publ_section_title
;
Structure prediction by ZEFSAII (Michael W. Deem and Ramdas Pophale) SiO2 
 PCOD9495684
Probable space group: C C C M
;
_chemical_formula_sum "Si O2"
_cell_formula_units_Z 52
_cell_length_a 11.028566
_cell_length_b 9.147530
_cell_length_c 21.739036
_cell_angle_alpha 90.000000
_cell_angle_beta 90.000000
_cell_angle_gamma 90.000000
_cell_volume 2193.123915
_symmetry_space_group_name_H-M "C C C M"
_symmetry_group_IT_number 66
_symmetry_cell_setting 'orthorhombic'
loop_
_space_group_symop_operation_xyz
x,y,z
-x,-y,z
x,-y,1/2-z
-x,y,1/2-z
-x,-y,-z
x,y,-z
-x,y,1/2+z
x,-y,1/2+z
1/2+x,1/2+y,z
1/2-x,1/2-y,z
1/2+x,1/2-y,1/2-z
1/2-x,1/2+y,1/2-z
1/2-x,1/2-y,-z
1/2+x,1/2+y,-z
1/2-x,1/2+y,1/2+z
1/2+x,1/2-y,1/2+z
loop_
_atom_site_type_symbol
_atom_site_label
_atom_site_fract_x
_atom_site_fract_y
_atom_site_fract_z
Si Si1 0.350181 0.877621 0.067419
Si Si2 0.699627 0.486248 0.179282
Si Si3 0.000000 0.500000 0.750000
Si Si4 0.485682 0.743024 0.656877
O O1 0.250000 0.750000 0.061673
O O2 0.297494 0.964130 0.125857
O O3 0.475582 0.805745 0.090542
O O4 0.358944 0.947555 0.000000
O O5 0.743054 0.500000 0.250000
O O6 0.620914 0.626404 0.160455
O O7 0.606152 0.347631 0.178961
O O8 0.956210 0.376437 0.701117
#
# Coordination Sequence:
#
# PCOD9495684 Si02
#       4
#    16  16   4  16
#     4   9  20  36  58  90 123 164 214 261 318 394
#     4  10  18  37  60  90 122 162 211 274 325 380
#     4  12  20  34  54  92 116 156 202 272 328 374
#     4  10  20  35  58  86 125 156 210 266 326 384
#
# _framework density 23.710470999999998
#
# number of rings (size 3 to 8) (size 9 to 14) (size 15 to 20)
#    0.000    2.154    3.077    0.923    2.154    1.231 
#    0.000    8.462    0.000    1.846    0.000    0.000 
#    0.000    0.000    0.000    0.000    0.000    0.000 
#
# Total GULP energy -145169.444858 kJ/mol
# GULP energy per Si atom -5583.440187 kJ/mol
# Density = 2.365650 g / cm^3
# Si number density = 23.710471 Si / 1000 Ang^3
#
#
#
# Elastic Constant Matrix: (Units=GPa)
#
#
# Indices 1 2 3 4 5 6 
#
# 1 84.6276 61.3121 84.5495 0.0000 0.0000 0.0000
# 2 61.3121 127.7666 69.8557 0.0000 0.0000 0.0000
# 3 84.5495 69.8557 249.6443 0.0000 0.0000 0.0000
# 4 0.0000 0.0000 0.0000 49.4001 0.0000 0.0000
# 5 0.0000 0.0000 0.0000 0.0000 7.0438 0.0000
# 6 0.0000 0.0000 0.0000 0.0000 0.0000 27.8136
#
#
#
# Elastic Compliance Matrix: (Units=1/GPa)
#
#
# Indices 1 2 3 4 5 6 
#
# 1 0.023315 -0.008112 -0.005626 0.000000 0.000000 0.000000
# 2 -0.008112 0.012063 -0.000628 0.000000 0.000000 0.000000
# 3 -0.005626 -0.000628 0.006087 0.000000 0.000000 0.000000
# 4 0.000000 0.000000 0.000000 0.020243 0.000000 0.000000
# 5 0.000000 0.000000 0.000000 0.000000 0.141968 0.000000
# 6 0.000000 0.000000 0.000000 0.000000 0.000000 0.035954
#
#
# Mechanical properties :
#
#
# Convention : Reuss Voigt Hill
#
# Bulk Modulus (GPa) = 78.54358 99.27478 88.90918
# Shear Modulus (GPa) = 18.34149 33.27290 25.80720
#
# Velocity S-wave (km/s) = 2.78431 3.75013 3.30272
# Velocity P-wave (km/s) = 6.59807 7.79178 7.21964
#
# Compressibility (1/GPa) = 0.01273179
#
# Stress axis : x y z
#
# Youngs Moduli (GPa) = 42.89152 82.89862 164.28551
#
# Poissons Ratio (x) = 0.67247 0.92432
# Poissons Ratio (y) = 0.34794 0.10319
# Poissons Ratio (z) = 0.24132 0.05207
#
# Static dielectric constant tensor:
#      x y z
#    x 2.096850 0.000000 0.000000 
#    y 0.000000 1.895820 0.000000 
#    z 0.000000 0.000000 1.878590 
# 
# From -- ./inp_files/49371.got.cif
#   From: 2010.05.17/outbox.cif.g08.bks.cpg/sg66_25_cif.got.tgz:49371.got - 2010.06.03 17:51:23.
