data_PCOD9495360
_publ_section_title
;
Structure prediction by ZEFSAII (Michael W. Deem and Ramdas Pophale) SiO2 
 PCOD9495360
Probable space group: C C C M
;
_chemical_formula_sum "Si O2"
_cell_formula_units_Z 88
_cell_length_a 8.617799
_cell_length_b 23.888019
_cell_length_c 20.910869
_cell_angle_alpha 90.000000
_cell_angle_beta 90.000000
_cell_angle_gamma 90.000000
_cell_volume 4304.756372
_symmetry_space_group_name_H-M "C C C M"
_symmetry_group_IT_number 66
_symmetry_cell_setting 'orthorhombic'
loop_
_space_group_symop_operation_xyz
x,y,z
-x,-y,z
x,-y,1/2-z
-x,y,1/2-z
-x,-y,-z
x,y,-z
-x,y,1/2+z
x,-y,1/2+z
1/2+x,1/2+y,z
1/2-x,1/2-y,z
1/2+x,1/2-y,1/2-z
1/2-x,1/2+y,1/2-z
1/2-x,1/2-y,-z
1/2+x,1/2+y,-z
1/2-x,1/2+y,1/2+z
1/2+x,1/2-y,1/2+z
loop_
_atom_site_type_symbol
_atom_site_label
_atom_site_fract_x
_atom_site_fract_y
_atom_site_fract_z
Si Si1 0.316739 0.808130 0.240132
Si Si2 0.750458 0.514299 0.000000
Si Si3 0.352495 0.361136 0.000000
Si Si4 0.190942 0.896140 0.141470
Si Si5 0.312817 0.610675 0.000000
Si Si6 0.823882 0.133190 0.641680
Si Si7 0.330707 0.014241 0.143123
O O1 0.500000 0.804264 0.250000
O O2 0.250000 0.750000 0.213991
O O3 0.277111 0.858223 0.192329
O O4 0.226893 0.822120 0.305967
O O5 0.656445 0.456550 0.000000
O O6 0.842073 0.515789 0.065912
O O7 0.656115 0.571372 0.000000
O O8 0.284306 0.346135 0.930696
O O9 0.536031 0.350063 0.000000
O O10 0.259588 0.882806 0.070351
O O11 0.218291 0.961660 0.156614
O O12 0.007794 0.881260 0.141781
O O13 0.736366 0.075077 0.659376
O O14 0.500000 0.000000 0.169977
#
# Coordination Sequence:
#
# PCOD9495360 Si02
#       7
#    16   8   8  16   8  16  16
#     4  12  26  45  64  83 108 146 192 240 290 344
#     4   8  14  24  44  76 119 160 189 220 271 332
#     4   8  15  29  54  85 117 149 187 229 276 332
#     4  10  20  37  60  88 119 154 191 233 282 337
#     4   8  15  29  54  85 117 149 187 229 276 332
#     4  10  20  37  60  88 119 154 191 233 282 337
#     4  10  18  30  51  85 123 157 190 230 278 335
#
# _framework density 20.442504
#
# number of rings (size 3 to 8) (size 9 to 14) (size 15 to 20)
#    0.000    2.182    0.000    3.818    0.000    5.091 
#    0.000    7.273    0.000    0.000    0.000    0.000 
#    0.000    0.000    0.000    0.000    0.000    0.000 
#
# Total GULP energy -245234.412781 kJ/mol
# GULP energy per Si atom -5573.509381 kJ/mol
# Density = 2.039598 g / cm^3
# Si number density = 20.442504 Si / 1000 Ang^3
#
#
#
# Elastic Constant Matrix: (Units=GPa)
#
#
# Indices 1 2 3 4 5 6 
#
# 1 66.0830 -14.7002 -15.4101 0.0000 0.0000 0.0000
# 2 -14.7002 27.9353 -4.0324 0.0000 0.0000 0.0000
# 3 -15.4101 -4.0324 71.9349 0.0000 0.0000 0.0000
# 4 0.0000 0.0000 0.0000 -34.2147 0.0000 0.0000
# 5 0.0000 0.0000 0.0000 0.0000 -119.9333 0.0000
# 6 0.0000 0.0000 0.0000 0.0000 0.0000 24.2192
#
#
#
# Elastic Compliance Matrix: (Units=1/GPa)
#
#
# Indices 1 2 3 4 5 6 
#
# 1 0.018505 0.010394 0.004547 0.000000 0.000000 0.000000
# 2 0.010394 0.041927 0.004577 0.000000 0.000000 0.000000
# 3 0.004547 0.004577 0.015132 0.000000 0.000000 0.000000
# 4 0.000000 0.000000 0.000000 -0.029227 0.000000 0.000000
# 5 0.000000 0.000000 0.000000 0.000000 -0.008338 0.000000
# 6 0.000000 0.000000 0.000000 0.000000 0.000000 0.041290
#
#
# Mechanical properties :
#
#
# Convention : Reuss Voigt Hill
#
# Bulk Modulus (GPa) = 8.72602 10.85199 9.78900
# Shear Modulus (GPa) = 63.73237 -12.64605 25.54316
#
# Velocity S-wave (km/s) = 5.58964 -2.48990 3.53868
# Velocity P-wave (km/s) = 6.77766 1.71641 4.63630
#
# Compressibility (1/GPa) = 0.11459980
#
# Stress axis : x y z
#
# Youngs Moduli (GPa) = 54.03968 23.85084 66.08488
#
# Poissons Ratio (x) = -0.24791 -0.30048
# Poissons Ratio (y) = -0.56169 -0.30247
# Poissons Ratio (z) = -0.24571 -0.10916
#
# Static dielectric constant tensor:
#      x y z
#    x 1.763420 0.000000 0.000000 
#    y 0.000000 1.679780 0.000000 
#    z 0.000000 0.000000 1.781420 
# 
# From -- ./inp_files/47185.got.cif
#   From: 2010.05.17/outbox.cif.g08.bks.cpg/sg66_24_cif.got.tgz:47185.got - 2010.06.03 17:51:23.
