data_PCOD9495039
_publ_section_title
;
Structure prediction by ZEFSAII (Michael W. Deem and Ramdas Pophale) SiO2 
 PCOD9495039
Probable space group: C C C M
;
_chemical_formula_sum "Si O2"
_cell_formula_units_Z 96
_cell_length_a 19.623398
_cell_length_b 32.159826
_cell_length_c 8.762136
_cell_angle_alpha 90.000000
_cell_angle_beta 90.000000
_cell_angle_gamma 90.000000
_cell_volume 5529.653169
_symmetry_space_group_name_H-M "C C C M"
_symmetry_group_IT_number 66
_symmetry_cell_setting 'orthorhombic'
loop_
_space_group_symop_operation_xyz
x,y,z
-x,-y,z
x,-y,1/2-z
-x,y,1/2-z
-x,-y,-z
x,y,-z
-x,y,1/2+z
x,-y,1/2+z
1/2+x,1/2+y,z
1/2-x,1/2-y,z
1/2+x,1/2-y,1/2-z
1/2-x,1/2+y,1/2-z
1/2-x,1/2-y,-z
1/2+x,1/2+y,-z
1/2-x,1/2+y,1/2+z
1/2+x,1/2-y,1/2+z
loop_
_atom_site_type_symbol
_atom_site_label
_atom_site_fract_x
_atom_site_fract_y
_atom_site_fract_z
Si Si1 0.575467 0.701047 0.683479
Si Si2 0.173552 0.458271 0.816698
Si Si3 0.170295 0.366255 0.817337
Si Si4 0.330665 0.370620 0.183063
Si Si5 0.827228 0.042507 0.817589
Si Si6 0.074753 0.296191 0.318184
O O1 0.500000 0.694010 0.750000
O O2 0.574425 0.697271 0.500000
O O3 0.626588 0.667880 0.754785
O O4 0.594594 0.748747 0.723624
O O5 0.139911 0.500000 0.750000
O O6 0.143696 0.412877 0.779188
O O7 0.249423 0.457112 0.745197
O O8 0.179313 0.461537 0.000000
O O9 0.250584 0.364772 0.776853
O O10 0.127818 0.330057 0.740169
O O11 0.165687 0.361720 0.000000
O O12 0.356186 0.413960 0.256311
O O13 0.335086 0.373703 0.000000
O O14 0.858498 0.000000 0.750000
O O15 0.827418 0.041114 0.000000
O O16 0.070202 0.298110 0.500000
O O17 0.000000 0.304175 0.250000
#
# Coordination Sequence:
#
# PCOD9495039 Si02
#       6
#    16  16  16  16  16  16
#     4  10  21  37  55  76 100 132 171 210 252 304
#     4   9  16  27  44  69 100 134 168 205 248 298
#     4   9  19  33  50  75 106 135 168 208 254 300
#     4  10  20  34  52  77 106 136 169 210 255 299
#     4  10  17  27  45  70 101 135 169 207 248 296
#     4  10  21  36  55  75  99 132 171 210 253 305
#
# _framework density 17.360945999999998
#
# number of rings (size 3 to 8) (size 9 to 14) (size 15 to 20)
#    0.000    2.333    0.000    5.500    0.000    6.667 
#    0.000    3.333    0.000    1.000    0.000    7.000 
#    0.000    0.000    0.000    0.000    0.000    0.000 
#
# Total GULP energy -267592.780504 kJ/mol
# GULP energy per Si atom -5574.849594 kJ/mol
# Density = 1.732143 g / cm^3
# Si number density = 17.360946 Si / 1000 Ang^3
#
#
#
# Elastic Constant Matrix: (Units=GPa)
#
#
# Indices 1 2 3 4 5 6 
#
# 1 46.4039 79.4658 34.8273 0.0000 0.0000 0.0000
# 2 79.4658 196.7478 76.2847 0.0000 0.0000 0.0000
# 3 34.8273 76.2847 82.5005 0.0000 0.0000 0.0000
# 4 0.0000 0.0000 0.0000 37.2149 0.0000 0.0000
# 5 0.0000 0.0000 0.0000 0.0000 24.9080 0.0000
# 6 0.0000 0.0000 0.0000 0.0000 0.0000 -14.6031
#
#
#
# Elastic Compliance Matrix: (Units=1/GPa)
#
#
# Indices 1 2 3 4 5 6 
#
# 1 0.071413 -0.026742 -0.005419 0.000000 0.000000 0.000000
# 2 -0.026742 0.017937 -0.005297 0.000000 0.000000 0.000000
# 3 -0.005419 -0.005297 0.019307 0.000000 0.000000 0.000000
# 4 0.000000 0.000000 0.000000 0.026871 0.000000 0.000000
# 5 0.000000 0.000000 0.000000 0.000000 0.040148 0.000000
# 6 0.000000 0.000000 0.000000 0.000000 0.000000 -0.068479
#
#
# Mechanical properties :
#
#
# Convention : Reuss Voigt Hill
#
# Bulk Modulus (GPa) = 29.63831 78.53421 54.08626
# Shear Modulus (GPa) = 25.85850 18.50893 22.18371
#
# Velocity S-wave (km/s) = 3.86354 3.26870 3.57850
# Velocity P-wave (km/s) = 6.08371 7.71882 6.94952
#
# Compressibility (1/GPa) = 0.03374012
#
# Stress axis : x y z
#
# Youngs Moduli (GPa) = 14.00313 55.74926 51.79552
#
# Poissons Ratio (x) = 1.49085 0.28070
# Poissons Ratio (y) = 0.37447 0.27436
# Poissons Ratio (z) = 0.07589 0.29530
#
# Static dielectric constant tensor:
#      x y z
#    x 1.557910 0.000000 0.000000 
#    y 0.000000 1.636780 0.000000 
#    z 0.000000 0.000000 1.578030 
# 
# From -- ./inp_files/7955.got.cif
#   From: 2010.05.17/outbox.cif.g08.bks.cpg/sg66_4_cif.got.tgz:7955.got - 2010.06.03 17:51:23.
