data_PCOD9495856
_publ_section_title
;
Structure prediction by ZEFSAII (Michael W. Deem and Ramdas Pophale) SiO2 
 PCOD9495856
Probable space group: C C C M
;
_chemical_formula_sum "Si O2"
_cell_formula_units_Z 96
_cell_length_a 18.055073
_cell_length_b 17.651601
_cell_length_c 17.066548
_cell_angle_alpha 90.000000
_cell_angle_beta 90.000000
_cell_angle_gamma 90.000000
_cell_volume 5439.124969
_symmetry_space_group_name_H-M "C C C M"
_symmetry_group_IT_number 66
_symmetry_cell_setting 'orthorhombic'
loop_
_space_group_symop_operation_xyz
x,y,z
-x,-y,z
x,-y,1/2-z
-x,y,1/2-z
-x,-y,-z
x,y,-z
-x,y,1/2+z
x,-y,1/2+z
1/2+x,1/2+y,z
1/2-x,1/2-y,z
1/2+x,1/2-y,1/2-z
1/2-x,1/2+y,1/2-z
1/2-x,1/2-y,-z
1/2+x,1/2+y,-z
1/2-x,1/2+y,1/2+z
1/2+x,1/2-y,1/2+z
loop_
_atom_site_type_symbol
_atom_site_label
_atom_site_fract_x
_atom_site_fract_y
_atom_site_fract_z
Si Si1 0.372860 0.921795 0.093437
Si Si2 0.317740 0.808209 0.791214
Si Si3 0.476147 0.844232 0.409047
Si Si4 0.696080 0.322378 0.589280
Si Si5 0.823012 0.417264 0.643404
Si Si6 0.935819 0.789420 0.201369
O O1 0.330758 0.848084 0.125797
O O2 0.459253 0.903853 0.112122
O O3 0.341478 0.994581 0.138632
O O4 0.366046 0.933300 0.000000
O O5 0.250000 0.750000 0.791227
O O6 0.311282 0.876061 0.727083
O O7 0.387905 0.760213 0.762097
O O8 0.486757 0.825617 0.500000
O O9 0.395025 0.878942 0.395897
O O10 0.476388 0.769878 0.356174
O O11 0.670865 0.310475 0.500000
O O12 0.750000 0.250000 0.608867
O O13 0.749682 0.394211 0.596201
O O14 0.626938 0.328539 0.647802
O O15 0.000000 0.831997 0.250000
#
# Coordination Sequence:
#
# PCOD9495856 Si02
#       6
#    16  16  16  16  16  16
#     4  11  23  35  51  79 116 155 187 221 279 355
#     4  11  21  38  54  76 107 147 194 234 279 335
#     4  10  19  31  49  76 116 153 184 220 269 339
#     4  11  19  31  55  82 110 147 194 247 295 331
#     4  11  20  34  55  82 113 146 187 237 287 333
#     4  11  19  33  52  76 109 149 193 238 275 337
#
# _framework density 17.649898
#
# number of rings (size 3 to 8) (size 9 to 14) (size 15 to 20)
#    0.000    1.167    6.667    3.000    0.000    1.667 
#    0.000    1.667    0.000    0.000    0.000    2.333 
#    0.000    2.667    0.000    0.000    0.000    0.000 
#
# Total GULP energy -267621.749921 kJ/mol
# GULP energy per Si atom -5575.453123 kJ/mol
# Density = 1.760973 g / cm^3
# Si number density = 17.649898 Si / 1000 Ang^3
#
#
#
# Elastic Constant Matrix: (Units=GPa)
#
#
# Indices 1 2 3 4 5 6 
#
# 1 114.3146 53.8833 58.5614 0.0000 0.0000 0.0000
# 2 53.8833 48.6968 18.4437 0.0000 0.0000 0.0000
# 3 58.5614 18.4437 38.8366 0.0000 0.0000 0.0000
# 4 0.0000 0.0000 0.0000 15.0619 0.0000 0.0000
# 5 0.0000 0.0000 0.0000 0.0000 45.8649 0.0000
# 6 0.0000 0.0000 0.0000 0.0000 0.0000 30.3435
#
#
#
# Elastic Compliance Matrix: (Units=1/GPa)
#
#
# Indices 1 2 3 4 5 6 
#
# 1 0.111237 -0.072618 -0.133247 0.000000 0.000000 0.000000
# 2 -0.072618 0.072445 0.075095 0.000000 0.000000 0.000000
# 3 -0.133247 0.075095 0.191008 0.000000 0.000000 0.000000
# 4 0.000000 0.000000 0.000000 0.066393 0.000000 0.000000
# 5 0.000000 0.000000 0.000000 0.000000 0.021803 0.000000
# 6 0.000000 0.000000 0.000000 0.000000 0.000000 0.032956
#
#
# Mechanical properties :
#
#
# Convention : Reuss Voigt Hill
#
# Bulk Modulus (GPa) = 8.83773 51.51386 30.17580
# Shear Modulus (GPa) = 6.28854 22.98470 14.63662
#
# Velocity S-wave (km/s) = 1.88962 3.61259 2.88284
# Velocity P-wave (km/s) = 3.12714 6.83015 5.31178
#
# Compressibility (1/GPa) = 0.11315120
#
# Stress axis : x y z
#
# Youngs Moduli (GPa) = 8.98982 13.80350 5.23539
#
# Poissons Ratio (x) = 1.00238 0.69760
# Poissons Ratio (y) = 0.65282 -0.39315
# Poissons Ratio (z) = 1.19786 -1.03658
#
# Static dielectric constant tensor:
#      x y z
#    x 1.631430 0.000000 0.000000 
#    y 0.000000 1.601160 0.000000 
#    z 0.000000 0.000000 1.648120 
# 
# From -- ./inp_files/41695.got.cif
#   From: 2010.05.17/outbox.cif.g08.bks.cpg/sg66_21_cif.got.tgz:41695.got - 2010.06.03 17:51:23.
