data_PCOD9495263
_publ_section_title
;
Structure prediction by ZEFSAII (Michael W. Deem and Ramdas Pophale) SiO2 
 PCOD9495263
Probable space group: C C C M
;
_chemical_formula_sum "Si O2"
_cell_formula_units_Z 96
_cell_length_a 13.669420
_cell_length_b 18.717404
_cell_length_c 19.916208
_cell_angle_alpha 90.000000
_cell_angle_beta 90.000000
_cell_angle_gamma 90.000000
_cell_volume 5095.682441
_symmetry_space_group_name_H-M "C C C M"
_symmetry_group_IT_number 66
_symmetry_cell_setting 'orthorhombic'
loop_
_space_group_symop_operation_xyz
x,y,z
-x,-y,z
x,-y,1/2-z
-x,y,1/2-z
-x,-y,-z
x,y,-z
-x,y,1/2+z
x,-y,1/2+z
1/2+x,1/2+y,z
1/2-x,1/2-y,z
1/2+x,1/2-y,1/2-z
1/2-x,1/2+y,1/2-z
1/2-x,1/2-y,-z
1/2+x,1/2+y,-z
1/2-x,1/2+y,1/2+z
1/2+x,1/2-y,1/2+z
loop_
_atom_site_type_symbol
_atom_site_label
_atom_site_fract_x
_atom_site_fract_y
_atom_site_fract_z
Si Si1 0.108783 0.214721 0.275506
Si Si2 0.298958 0.867597 0.748815
Si Si3 0.623507 0.068515 0.616088
Si Si4 0.348976 0.222892 0.924886
Si Si5 0.074343 0.256334 0.422827
Si Si6 0.391606 0.913839 0.114532
O O1 0.187329 0.157732 0.250118
O O2 0.138009 0.293603 0.247810
O O3 0.120130 0.219029 0.357154
O O4 0.000000 0.198820 0.250000
O O5 0.324305 0.918066 0.686933
O O6 0.331879 0.904448 0.817331
O O7 0.654639 0.137284 0.573852
O O8 0.507348 0.077304 0.628582
O O9 0.639808 0.990423 0.585024
O O10 0.250000 0.250000 0.889386
O O11 0.458647 0.241930 0.902726
O O12 0.346347 0.253261 0.000000
O O13 0.085515 0.229085 0.500000
O O14 0.113333 0.338284 0.423377
#
# Coordination Sequence:
#
# PCOD9495263 Si02
#       6
#    16  16  16  16  16  16
#     4  10  20  32  48  74 102 132 174 213 258 312
#     4  10  19  30  48  71  99 131 167 211 252 306
#     4  10  18  28  52  71 101 135 163 203 263 307
#     4   9  18  29  45  73 101 127 167 205 250 311
#     4   9  18  33  51  71 103 137 168 215 265 312
#     4   9  18  32  46  75 100 130 169 206 250 322
#
# _framework density 18.839478
#
# number of rings (size 3 to 8) (size 9 to 14) (size 15 to 20)
#    0.000    2.500    0.000    4.000    4.667    2.000 
#    0.000   10.000    0.000    2.000    0.000    0.000 
#    0.000    4.000    0.000    0.000    0.000    0.000 
#
# Total GULP energy -267260.271240 kJ/mol
# GULP energy per Si atom -5567.922317 kJ/mol
# Density = 1.879660 g / cm^3
# Si number density = 18.839478 Si / 1000 Ang^3
#
#
#
# Elastic Constant Matrix: (Units=GPa)
#
#
# Indices 1 2 3 4 5 6 
#
# 1 33.7538 11.9394 19.6148 0.0000 0.0000 0.0000
# 2 11.9394 48.0915 5.4328 0.0000 0.0000 0.0000
# 3 19.6148 5.4328 83.3208 0.0000 0.0000 0.0000
# 4 0.0000 0.0000 0.0000 2.7603 0.0000 0.0000
# 5 0.0000 0.0000 0.0000 0.0000 9.4292 0.0000
# 6 0.0000 0.0000 0.0000 0.0000 0.0000 23.6491
#
#
#
# Elastic Compliance Matrix: (Units=1/GPa)
#
#
# Indices 1 2 3 4 5 6 
#
# 1 0.037375 -0.008347 -0.008254 0.000000 0.000000 0.000000
# 2 -0.008347 0.022812 0.000477 0.000000 0.000000 0.000000
# 3 -0.008254 0.000477 0.013914 0.000000 0.000000 0.000000
# 4 0.000000 0.000000 0.000000 0.362277 0.000000 0.000000
# 5 0.000000 0.000000 0.000000 0.000000 0.106053 0.000000
# 6 0.000000 0.000000 0.000000 0.000000 0.000000 0.042285
#
#
# Mechanical properties :
#
#
# Convention : Reuss Voigt Hill
#
# Bulk Modulus (GPa) = 23.89246 26.57114 25.23180
# Shear Modulus (GPa) = 7.92500 15.71299 11.81899
#
# Velocity S-wave (km/s) = 2.05322 2.89112 2.50742
# Velocity P-wave (km/s) = 4.28143 5.02786 4.66958
#
# Compressibility (1/GPa) = 0.04185420
#
# Stress axis : x y z
#
# Youngs Moduli (GPa) = 26.75556 43.83671 71.87071
#
# Poissons Ratio (x) = 0.36588 0.59325
# Poissons Ratio (y) = 0.22332 -0.03432
# Poissons Ratio (z) = 0.22085 -0.02093
#
# Static dielectric constant tensor:
#      x y z
#    x 1.677540 0.000000 0.000000 
#    y 0.000000 1.657010 0.000000 
#    z 0.000000 0.000000 1.705550 
# 
# From -- ./inp_files/48780.got.cif
#   From: 2010.05.17/outbox.cif.g08.bks.cpg/sg66_25_cif.got.tgz:48780.got - 2010.06.03 17:51:23.
