data_PCOD9495269
_publ_section_title
;
Structure prediction by ZEFSAII (Michael W. Deem and Ramdas Pophale) SiO2 
 PCOD9495269
Probable space group: C C C M
;
_chemical_formula_sum "Si O2"
_cell_formula_units_Z 80
_cell_length_a 27.442884
_cell_length_b 19.182598
_cell_length_c 8.534711
_cell_angle_alpha 90.000000
_cell_angle_beta 90.000000
_cell_angle_gamma 90.000000
_cell_volume 4492.892166
_symmetry_space_group_name_H-M "C C C M"
_symmetry_group_IT_number 66
_symmetry_cell_setting 'orthorhombic'
loop_
_space_group_symop_operation_xyz
x,y,z
-x,-y,z
x,-y,1/2-z
-x,y,1/2-z
-x,-y,-z
x,y,-z
-x,y,1/2+z
x,-y,1/2+z
1/2+x,1/2+y,z
1/2-x,1/2-y,z
1/2+x,1/2-y,1/2-z
1/2-x,1/2+y,1/2-z
1/2-x,1/2-y,-z
1/2+x,1/2+y,-z
1/2-x,1/2+y,1/2+z
1/2+x,1/2-y,1/2+z
loop_
_atom_site_type_symbol
_atom_site_label
_atom_site_fract_x
_atom_site_fract_y
_atom_site_fract_z
Si Si1 0.099098 0.218292 0.309873
Si Si2 0.947336 0.362070 0.188042
Si Si3 0.444796 0.573187 0.811627
Si Si4 0.152878 0.575652 0.313510
Si Si5 0.700014 0.786598 0.689725
O O1 0.098147 0.217083 0.500000
O O2 0.063669 0.281760 0.261939
O O3 0.082900 0.142365 0.255887
O O4 0.153426 0.240097 0.262586
O O5 0.901305 0.405500 0.250453
O O6 0.000000 0.384378 0.250000
O O7 0.946912 0.365274 0.000000
O O8 0.424072 0.500000 0.750000
O O9 0.500000 0.578012 0.750000
O O10 0.445436 0.571610 0.000000
O O11 0.166998 0.500000 0.250000
O O12 0.151658 0.575212 0.500000
O O13 0.188815 0.636655 0.254710
O O14 0.700169 0.791152 0.500000
O O15 0.750000 0.750000 0.739647
#
# Coordination Sequence:
#
# PCOD9495269 Si02
#       5
#    16  16  16  16  16
#     4   8  16  30  49  72  99 131 168 208 250 303
#     4  10  19  33  52  77 106 138 176 214 258 310
#     4  10  18  29  44  65  95 129 165 202 244 293
#     4  11  22  37  56  79 108 140 175 215 259 308
#     4   9  18  36  60  81 103 134 170 211 262 314
#
# _framework density 17.805903000000001
#
# number of rings (size 3 to 8) (size 9 to 14) (size 15 to 20)
#    0.000    2.400    0.000    5.400    0.000    0.800 
#    0.000   12.000    0.000    2.400    0.000    0.000 
#    0.000    0.000    0.000    0.000    0.000    0.000 
#
# Total GULP energy -223147.887011 kJ/mol
# GULP energy per Si atom -5578.697175 kJ/mol
# Density = 1.776538 g / cm^3
# Si number density = 17.805903 Si / 1000 Ang^3
#
#
#
# Elastic Constant Matrix: (Units=GPa)
#
#
# Indices 1 2 3 4 5 6 
#
# 1 97.3629 55.4260 28.6092 0.0000 0.0000 0.0000
# 2 55.4260 153.8479 34.2918 0.0000 0.0000 0.0000
# 3 28.6092 34.2918 65.0710 0.0000 0.0000 0.0000
# 4 0.0000 0.0000 0.0000 24.3771 0.0000 0.0000
# 5 0.0000 0.0000 0.0000 0.0000 19.4081 0.0000
# 6 0.0000 0.0000 0.0000 0.0000 0.0000 7.3956
#
#
#
# Elastic Compliance Matrix: (Units=1/GPa)
#
#
# Indices 1 2 3 4 5 6 
#
# 1 0.013737 -0.004082 -0.003888 0.000000 0.000000 0.000000
# 2 -0.004082 0.008578 -0.002726 0.000000 0.000000 0.000000
# 3 -0.003888 -0.002726 0.018514 0.000000 0.000000 0.000000
# 4 0.000000 0.000000 0.000000 0.041022 0.000000 0.000000
# 5 0.000000 0.000000 0.000000 0.000000 0.051525 0.000000
# 6 0.000000 0.000000 0.000000 0.000000 0.000000 0.135216
#
#
# Mechanical properties :
#
#
# Convention : Reuss Voigt Hill
#
# Bulk Modulus (GPa) = 51.45004 61.43731 56.44367
# Shear Modulus (GPa) = 16.86541 23.43314 20.14928
#
# Velocity S-wave (km/s) = 3.08097 3.63165 3.36759
# Velocity P-wave (km/s) = 6.45090 7.22246 6.84756
#
# Compressibility (1/GPa) = 0.01943633
#
# Stress axis : x y z
#
# Youngs Moduli (GPa) = 72.79379 116.57408 54.01353
#
# Poissons Ratio (x) = 0.47590 0.21003
# Poissons Ratio (y) = 0.29717 0.14723
# Poissons Ratio (z) = 0.28305 0.31776
#
# Static dielectric constant tensor:
#      x y z
#    x 1.588020 0.000000 0.000000 
#    y 0.000000 1.620620 0.000000 
#    z 0.000000 0.000000 1.602000 
# 
# From -- ./inp_files/6669.got.cif
#   From: 2010.05.17/outbox.cif.g08.bks.cpg/sg66_4_cif.got.tgz:6669.got - 2010.06.03 17:51:23.
