data_PCOD9495173
_publ_section_title
;
Structure prediction by ZEFSAII (Michael W. Deem and Ramdas Pophale) SiO2 
 PCOD9495173
Probable space group: C C C M
;
_chemical_formula_sum "Si O2"
_cell_formula_units_Z 72
_cell_length_a 14.281128
_cell_length_b 16.200762
_cell_length_c 15.423285
_cell_angle_alpha 90.000000
_cell_angle_beta 90.000000
_cell_angle_gamma 90.000000
_cell_volume 3568.410737
_symmetry_space_group_name_H-M "C C C M"
_symmetry_group_IT_number 66
_symmetry_cell_setting 'orthorhombic'
loop_
_space_group_symop_operation_xyz
x,y,z
-x,-y,z
x,-y,1/2-z
-x,y,1/2-z
-x,-y,-z
x,y,-z
-x,y,1/2+z
x,-y,1/2+z
1/2+x,1/2+y,z
1/2-x,1/2-y,z
1/2+x,1/2-y,1/2-z
1/2-x,1/2+y,1/2-z
1/2-x,1/2-y,-z
1/2+x,1/2+y,-z
1/2-x,1/2+y,1/2+z
1/2+x,1/2-y,1/2+z
loop_
_atom_site_type_symbol
_atom_site_label
_atom_site_fract_x
_atom_site_fract_y
_atom_site_fract_z
Si Si1 0.461733 0.738798 0.850644
Si Si2 0.466123 0.912788 0.352350
Si Si3 0.935572 0.926013 0.099953
Si Si4 0.250000 0.750000 0.811269
Si Si5 0.760668 0.414973 0.697020
O O1 0.500000 0.735567 0.750000
O O2 0.493475 0.827216 0.887188
O O3 0.508313 0.659431 0.893540
O O4 0.349412 0.735842 0.857379
O O5 0.500000 0.913292 0.250000
O O6 0.354457 0.910288 0.359248
O O7 0.500000 0.000000 0.389055
O O8 0.837793 0.917177 0.148709
O O9 0.915822 0.946045 0.000000
O O10 0.000000 0.000000 0.136343
O O11 0.236197 0.667094 0.755241
O O12 0.769016 0.500000 0.750000
#
# Coordination Sequence:
#
# PCOD9495173 Si02
#       5
#    16  16  16   8  16
#     4  11  20  36  61  88 123 154 199 248 299 354
#     4  10  17  33  55  92 123 148 188 258 301 343
#     4  11  26  43  57  85 128 165 199 248 308 363
#     4  12  20  32  58  98 114 146 212 252 284 354
#     4  12  20  33  63  91 113 157 204 247 299 352
#
# _framework density 20.177050000000001
#
# number of rings (size 3 to 8) (size 9 to 14) (size 15 to 20)
#    0.000    0.889    8.889    1.333    0.000    0.000 
#    0.000    5.556    0.000    6.667    0.000    0.000 
#    0.000    0.000    0.000    0.000    0.000    0.000 
#
# Total GULP energy -201013.963005 kJ/mol
# GULP energy per Si atom -5583.721195 kJ/mol
# Density = 2.013113 g / cm^3
# Si number density = 20.177050 Si / 1000 Ang^3
#
#
#
# Elastic Constant Matrix: (Units=GPa)
#
#
# Indices 1 2 3 4 5 6 
#
# 1 188.6152 39.8937 -7.4612 0.0000 0.0000 0.0000
# 2 39.8937 166.6031 -10.8102 0.0000 0.0000 0.0000
# 3 -7.4612 -10.8102 11.8384 0.0000 0.0000 0.0000
# 4 0.0000 0.0000 0.0000 7.1176 0.0000 0.0000
# 5 0.0000 0.0000 0.0000 0.0000 -8.9231 0.0000
# 6 0.0000 0.0000 0.0000 0.0000 0.0000 44.2236
#
#
#
# Elastic Compliance Matrix: (Units=1/GPa)
#
#
# Indices 1 2 3 4 5 6 
#
# 1 0.005652 -0.001193 0.002473 0.000000 0.000000 0.000000
# 2 -0.001193 0.006632 0.005304 0.000000 0.000000 0.000000
# 3 0.002473 0.005304 0.090873 0.000000 0.000000 0.000000
# 4 0.000000 0.000000 0.000000 0.140496 0.000000 0.000000
# 5 0.000000 0.000000 0.000000 0.000000 -0.112069 0.000000
# 6 0.000000 0.000000 0.000000 0.000000 0.000000 0.022612
#
#
# Mechanical properties :
#
#
# Convention : Reuss Voigt Hill
#
# Bulk Modulus (GPa) = 8.59659 45.58904 27.09282
# Shear Modulus (GPa) = 27.80815 31.51259 29.66037
#
# Velocity S-wave (km/s) = 3.71645 3.95625 3.83822
# Velocity P-wave (km/s) = 4.76296 6.59642 5.75320
#
# Compressibility (1/GPa) = 0.11632519
#
# Stress axis : x y z
#
# Youngs Moduli (GPa) = 176.93069 150.78160 11.00439
#
# Poissons Ratio (x) = 0.17987 -0.02721
# Poissons Ratio (y) = 0.21106 -0.05837
# Poissons Ratio (z) = -0.43752 -0.79978
#
# Static dielectric constant tensor:
#      x y z
#    x 1.750050 0.000000 0.000000 
#    y 0.000000 1.706110 0.000000 
#    z 0.000000 0.000000 1.752560 
# 
# From -- ./inp_files/40043.got.cif
#   From: 2010.05.17/outbox.cif.g08.bks.cpg/sg66_21_cif.got.tgz:40043.got - 2010.06.03 17:51:23.
