data_PCOD9495873
_publ_section_title
;
Structure prediction by ZEFSAII (Michael W. Deem and Ramdas Pophale) SiO2 
 PCOD9495873
Probable space group: C C C M
;
_chemical_formula_sum "Si O2"
_cell_formula_units_Z 120
_cell_length_a 26.354753
_cell_length_b 28.842213
_cell_length_c 9.323827
_cell_angle_alpha 90.000000
_cell_angle_beta 90.000000
_cell_angle_gamma 90.000000
_cell_volume 7087.315019
_symmetry_space_group_name_H-M "C C C M"
_symmetry_group_IT_number 66
_symmetry_cell_setting 'orthorhombic'
loop_
_space_group_symop_operation_xyz
x,y,z
-x,-y,z
x,-y,1/2-z
-x,y,1/2-z
-x,-y,-z
x,y,-z
-x,y,1/2+z
x,-y,1/2+z
1/2+x,1/2+y,z
1/2-x,1/2-y,z
1/2+x,1/2-y,1/2-z
1/2-x,1/2+y,1/2-z
1/2-x,1/2-y,-z
1/2+x,1/2+y,-z
1/2-x,1/2+y,1/2+z
1/2+x,1/2-y,1/2+z
loop_
_atom_site_type_symbol
_atom_site_label
_atom_site_fract_x
_atom_site_fract_y
_atom_site_fract_z
Si Si1 0.500000 0.120832 0.250000
Si Si2 0.946441 0.871598 0.671702
Si Si3 0.369734 0.452336 0.670437
Si Si4 0.249769 0.951133 0.828387
Si Si5 0.093462 0.683537 0.338089
Si Si6 0.053678 0.765959 0.169840
Si Si7 0.924790 0.455850 0.162430
Si Si8 0.663349 0.903290 0.170858
O O1 0.541419 0.153384 0.326073
O O2 0.534166 0.085467 0.158445
O O3 0.954018 0.875228 0.500000
O O4 0.905392 0.909861 0.715724
O O5 0.929102 0.818660 0.700093
O O6 0.000000 0.878736 0.750000
O O7 0.382748 0.500000 0.750000
O O8 0.376216 0.459052 0.500000
O O9 0.310117 0.442394 0.694464
O O10 0.284190 0.912715 0.751615
O O11 0.261762 0.000000 0.750000
O O12 0.259245 0.953854 0.000000
O O13 0.097237 0.701359 0.500000
O O14 0.089693 0.725844 0.229038
O O15 0.139203 0.647770 0.310805
O O16 0.000000 0.760114 0.250000
O O17 0.046378 0.760820 0.000000
O O18 0.944031 0.500000 0.250000
O O19 0.876948 0.437137 0.252120
O O20 0.911040 0.468504 0.000000
O O21 0.666707 0.912342 0.000000
#
# Coordination Sequence:
#
# PCOD9495873 Si02
#       8
#     8  16  16  16  16  16  16  16
#     4  10  21  32  48  66  90 122 161 206 254 306
#     4   9  19  35  53  79 112 143 172 203 241 291
#     4   9  19  35  55  80 110 140 172 206 243 290
#     4  10  19  33  54  76  99 131 169 211 255 301
#     4  10  20  33  49  70  96 125 163 212 262 304
#     4  10  19  31  51  74 100 134 170 208 251 299
#     4  11  22  34  47  64  90 126 166 206 255 312
#     4  10  21  35  50  70  96 126 164 214 262 305
#
# _framework density 16.931659
#
# number of rings (size 3 to 8) (size 9 to 14) (size 15 to 20)
#    0.000    2.133    0.667    2.600    0.000    6.667 
#    0.000    1.333    0.000    0.800    0.000    5.600 
#    0.000    0.000    0.000    0.000    0.000    0.000 
#
# Total GULP energy -334636.264824 kJ/mol
# GULP energy per Si atom -5577.271080 kJ/mol
# Density = 1.689312 g / cm^3
# Si number density = 16.931659 Si / 1000 Ang^3
#
#
#
# Elastic Constant Matrix: (Units=GPa)
#
#
# Indices 1 2 3 4 5 6 
#
# 1 67.3946 61.4339 47.8236 0.0000 0.0000 0.0000
# 2 61.4339 115.3140 68.5214 0.0000 0.0000 0.0000
# 3 47.8236 68.5214 104.8448 0.0000 0.0000 0.0000
# 4 0.0000 0.0000 0.0000 24.1545 0.0000 0.0000
# 5 0.0000 0.0000 0.0000 0.0000 16.7124 0.0000
# 6 0.0000 0.0000 0.0000 0.0000 0.0000 21.7002
#
#
#
# Elastic Compliance Matrix: (Units=1/GPa)
#
#
# Indices 1 2 3 4 5 6 
#
# 1 0.030611 -0.013098 -0.005403 0.000000 0.000000 0.000000
# 2 -0.013098 0.019782 -0.006954 0.000000 0.000000 0.000000
# 3 -0.005403 -0.006954 0.016547 0.000000 0.000000 0.000000
# 4 0.000000 0.000000 0.000000 0.041400 0.000000 0.000000
# 5 0.000000 0.000000 0.000000 0.000000 0.059836 0.000000
# 6 0.000000 0.000000 0.000000 0.000000 0.000000 0.046083
#
#
# Mechanical properties :
#
#
# Convention : Reuss Voigt Hill
#
# Bulk Modulus (GPa) = 62.37944 71.45679 66.91812
# Shear Modulus (GPa) = 18.48341 19.83172 19.15756
#
# Velocity S-wave (km/s) = 3.30759 3.42611 3.36737
# Velocity P-wave (km/s) = 7.17696 7.61220 7.39778
#
# Compressibility (1/GPa) = 0.01603092
#
# Stress axis : x y z
#
# Youngs Moduli (GPa) = 32.66776 50.55045 60.43266
#
# Poissons Ratio (x) = 0.66210 0.32651
# Poissons Ratio (y) = 0.42787 0.42027
# Poissons Ratio (z) = 0.17650 0.35154
#
# Static dielectric constant tensor:
#      x y z
#    x 1.568310 0.000000 0.000000 
#    y 0.000000 1.578110 0.000000 
#    z 0.000000 0.000000 1.575090 
# 
# From -- ./inp_files/10808.got.cif
#   From: 2010.05.17/outbox.cif.g08.bks.cpg/sg66_6_cif.got.tgz:10808.got - 2010.06.03 17:51:23.
