data_PCOD9495991
_publ_section_title
;
Structure prediction by ZEFSAII (Michael W. Deem and Ramdas Pophale) SiO2 
 PCOD9495991
Probable space group: C C C M
;
_chemical_formula_sum "Si O2"
_cell_formula_units_Z 112
_cell_length_a 13.667302
_cell_length_b 26.913463
_cell_length_c 14.477109
_cell_angle_alpha 90.000000
_cell_angle_beta 90.000000
_cell_angle_gamma 90.000000
_cell_volume 5325.179089
_symmetry_space_group_name_H-M "C C C M"
_symmetry_group_IT_number 66
_symmetry_cell_setting 'orthorhombic'
loop_
_space_group_symop_operation_xyz
x,y,z
-x,-y,z
x,-y,1/2-z
-x,y,1/2-z
-x,-y,-z
x,y,-z
-x,y,1/2+z
x,-y,1/2+z
1/2+x,1/2+y,z
1/2-x,1/2-y,z
1/2+x,1/2-y,1/2-z
1/2-x,1/2+y,1/2-z
1/2-x,1/2-y,-z
1/2+x,1/2+y,-z
1/2-x,1/2+y,1/2+z
1/2+x,1/2-y,1/2+z
loop_
_atom_site_type_symbol
_atom_site_label
_atom_site_fract_x
_atom_site_fract_y
_atom_site_fract_z
Si Si1 0.795573 0.993998 0.607246
Si Si2 0.055913 0.924835 0.607437
Si Si3 0.662105 0.341232 0.715462
Si Si4 0.133000 0.361834 0.889148
Si Si5 0.369392 0.750084 0.602026
Si Si6 0.667399 0.392927 0.105210
Si Si7 0.411063 0.030593 0.153681
O O1 0.814776 0.983482 0.500000
O O2 0.772215 0.939526 0.647320
O O3 0.889262 0.025124 0.639980
O O4 0.697284 0.025526 0.612577
O O5 0.088568 0.917345 0.500000
O O6 0.091965 0.883081 0.675787
O O7 0.940073 0.918251 0.605457
O O8 0.764644 0.354503 0.664950
O O9 0.616177 0.289550 0.682108
O O10 0.672406 0.347759 0.824511
O O11 0.090668 0.305555 0.881486
O O12 0.074645 0.409602 0.849193
O O13 0.148008 0.369551 0.000000
O O14 0.403355 0.732671 0.500000
O O15 0.250000 0.750000 0.596230
O O16 0.693465 0.379495 0.000000
O O17 0.500000 0.000000 0.106501
O O18 0.402937 0.000000 0.250000
#
# Coordination Sequence:
#
# PCOD9495991 Si02
#       7
#    16  16  16  16  16  16  16
#     4  10  20  35  53  78 112 154 192 236 286 336
#     4  10  19  32  53  81 116 151 193 241 286 343
#     4  11  18  31  55  83 117 150 192 241 300 350
#     4  10  19  35  60  90 117 145 189 250 305 346
#     4   8  16  30  54  87 115 140 183 247 307 348
#     4  10  22  35  49  77 120 163 201 230 274 351
#     4  11  23  37  56  84 119 151 190 232 285 353
#
# _framework density 21.032154999999999
#
# number of rings (size 3 to 8) (size 9 to 14) (size 15 to 20)
#    0.000    2.000    1.429    4.286    0.000    2.857 
#    0.000    1.429    6.286    3.857    0.000    0.000 
#    0.000    0.000    0.000    0.000    0.000    0.000 
#
# Total GULP energy -311829.294450 kJ/mol
# GULP energy per Si atom -5568.380258 kJ/mol
# Density = 2.098429 g / cm^3
# Si number density = 21.032155 Si / 1000 Ang^3
#
#
#
# Elastic Constant Matrix: (Units=GPa)
#
#
# Indices 1 2 3 4 5 6 
#
# 1 31.4697 0.6083 5.1408 0.0000 0.0000 0.0000
# 2 0.6083 153.4139 67.8964 0.0000 0.0000 0.0000
# 3 5.1408 67.8964 112.4350 0.0000 0.0000 0.0000
# 4 0.0000 0.0000 0.0000 14.3213 0.0000 0.0000
# 5 0.0000 0.0000 0.0000 0.0000 -226.0287 0.0000
# 6 0.0000 0.0000 0.0000 0.0000 0.0000 14.8446
#
#
#
# Elastic Compliance Matrix: (Units=1/GPa)
#
#
# Indices 1 2 3 4 5 6 
#
# 1 0.032073 0.000712 -0.001896 0.000000 0.000000 0.000000
# 2 0.000712 0.008912 -0.005414 0.000000 0.000000 0.000000
# 3 -0.001896 -0.005414 0.012250 0.000000 0.000000 0.000000
# 4 0.000000 0.000000 0.000000 0.069826 0.000000 0.000000
# 5 0.000000 0.000000 0.000000 0.000000 -0.004424 0.000000
# 6 0.000000 0.000000 0.000000 0.000000 0.000000 0.067364
#
#
# Mechanical properties :
#
#
# Convention : Reuss Voigt Hill
#
# Bulk Modulus (GPa) = 24.97648 49.40105 37.18876
# Shear Modulus (GPa) = 23.52463 -24.46100 -0.46819
#
# Velocity S-wave (km/s) = 3.34804 -3.41402 -0.47232
# Velocity P-wave (km/s) = 5.18141 2.82818 4.17406
#
# Compressibility (1/GPa) = 0.04003767
#
# Stress axis : x y z
#
# Youngs Moduli (GPa) = 31.17919 112.21371 81.63194
#
# Poissons Ratio (x) = -0.07991 0.15481
# Poissons Ratio (y) = -0.02220 0.44196
# Poissons Ratio (z) = 0.05913 0.60753
#
# Static dielectric constant tensor:
#      x y z
#    x 1.807010 0.000000 0.000000 
#    y 0.000000 1.844820 0.000000 
#    z 0.000000 0.000000 1.815690 
# 
# From -- ./inp_files/28901.got.cif
#   From: 2010.05.17/outbox.cif.g08.bks.cpg/sg66_15_cif.got.tgz:28901.got - 2010.06.03 17:51:23.
