data_PCOD9495749
_publ_section_title
;
Structure prediction by ZEFSAII (Michael W. Deem and Ramdas Pophale) SiO2 
 PCOD9495749
Probable space group: C C C M
;
_chemical_formula_sum "Si O2"
_cell_formula_units_Z 112
_cell_length_a 14.312238
_cell_length_b 30.749339
_cell_length_c 13.839322
_cell_angle_alpha 90.000000
_cell_angle_beta 90.000000
_cell_angle_gamma 90.000000
_cell_volume 6090.572934
_symmetry_space_group_name_H-M "C C C M"
_symmetry_group_IT_number 66
_symmetry_cell_setting 'orthorhombic'
loop_
_space_group_symop_operation_xyz
x,y,z
-x,-y,z
x,-y,1/2-z
-x,y,1/2-z
-x,-y,-z
x,y,-z
-x,y,1/2+z
x,-y,1/2+z
1/2+x,1/2+y,z
1/2-x,1/2-y,z
1/2+x,1/2-y,1/2-z
1/2-x,1/2+y,1/2-z
1/2-x,1/2-y,-z
1/2+x,1/2+y,-z
1/2-x,1/2+y,1/2+z
1/2+x,1/2-y,1/2+z
loop_
_atom_site_type_symbol
_atom_site_label
_atom_site_fract_x
_atom_site_fract_y
_atom_site_fract_z
Si Si1 0.827515 0.073048 0.750936
Si Si2 0.344385 0.780269 0.192861
Si Si3 0.755516 0.139973 0.113223
Si Si4 0.388499 0.497470 0.386762
Si Si5 0.799850 0.297113 0.396462
Si Si6 0.615356 0.645170 0.111964
Si Si7 0.937675 0.199421 0.885165
O O1 0.748092 0.102991 0.803169
O O2 0.867750 0.050222 0.845892
O O3 0.887333 0.106217 0.686922
O O4 0.826757 0.032412 0.674424
O O5 0.250000 0.750000 0.192052
O O6 0.320875 0.822024 0.128083
O O7 0.360591 0.796899 0.301077
O O8 0.420422 0.746223 0.159482
O O9 0.854569 0.164755 0.134817
O O10 0.755748 0.125907 0.000000
O O11 0.500000 0.500000 0.370103
O O12 0.370089 0.502484 0.500000
O O13 0.847293 0.303909 0.500000
O O14 0.750000 0.250000 0.400087
O O15 0.716459 0.331992 0.385486
O O16 0.537469 0.679838 0.140170
O O17 0.598040 0.631491 0.000000
O O18 0.935140 0.205366 0.000000
#
# Coordination Sequence:
#
# PCOD9495749 Si02
#       7
#    16  16  16  16  16  16  16
#     4  11  20  33  49  66  85 117 157 200 251 289
#     4   9  16  31  44  63  87 122 147 185 248 285
#     4  10  19  29  45  66  88 112 150 193 236 293
#     4  10  23  37  46  60  88 120 150 195 253 303
#     4   9  17  31  45  62  90 122 156 194 235 279
#     4  10  20  32  49  72  91 117 166 212 239 275
#     4   9  19  30  45  66  90 116 150 203 246 276
#
# _framework density 18.389074000000001
#
# number of rings (size 3 to 8) (size 9 to 14) (size 15 to 20)
#    0.000    2.286    1.429    2.143    4.000    1.714 
#    0.000    0.000    0.000    0.857    0.000    0.000 
#    0.000    0.000    0.000    0.000    0.000   11.429 
#
# Total GULP energy -311889.061136 kJ/mol
# GULP energy per Si atom -5569.447520 kJ/mol
# Density = 1.834722 g / cm^3
# Si number density = 18.389074 Si / 1000 Ang^3
#
#
#
# Elastic Constant Matrix: (Units=GPa)
#
#
# Indices 1 2 3 4 5 6 
#
# 1 10.3951 21.2521 12.5402 0.0000 0.0000 0.0000
# 2 21.2521 85.3631 46.9608 0.0000 0.0000 0.0000
# 3 12.5402 46.9608 111.0818 0.0000 0.0000 0.0000
# 4 0.0000 0.0000 0.0000 30.9957 0.0000 0.0000
# 5 0.0000 0.0000 0.0000 0.0000 9.4368 0.0000
# 6 0.0000 0.0000 0.0000 0.0000 0.0000 17.3314
#
#
#
# Elastic Compliance Matrix: (Units=1/GPa)
#
#
# Indices 1 2 3 4 5 6 
#
# 1 0.196244 -0.047782 -0.001954 0.000000 0.000000 0.000000
# 2 -0.047782 0.026899 -0.005978 0.000000 0.000000 0.000000
# 3 -0.001954 -0.005978 0.011750 0.000000 0.000000 0.000000
# 4 0.000000 0.000000 0.000000 0.032263 0.000000 0.000000
# 5 0.000000 0.000000 0.000000 0.000000 0.105968 0.000000
# 6 0.000000 0.000000 0.000000 0.000000 0.000000 0.057699
#
#
# Mechanical properties :
#
#
# Convention : Reuss Voigt Hill
#
# Bulk Modulus (GPa) = 8.09941 40.92735 24.51338
# Shear Modulus (GPa) = 8.57036 19.95857 14.26447
#
# Velocity S-wave (km/s) = 2.16118 3.29804 2.78817
# Velocity P-wave (km/s) = 3.26215 6.06691 4.87078
#
# Compressibility (1/GPa) = 0.12346576
#
# Stress axis : x y z
#
# Youngs Moduli (GPa) = 5.09569 37.17596 85.10602
#
# Poissons Ratio (x) = 1.77635 0.16629
# Poissons Ratio (y) = 0.24348 0.50873
# Poissons Ratio (z) = 0.00996 0.22222
#
# Static dielectric constant tensor:
#      x y z
#    x 1.634130 0.000000 0.000000 
#    y 0.000000 1.668990 0.000000 
#    z 0.000000 0.000000 1.713440 
# 
# From -- ./inp_files/29019.got.cif
#   From: 2010.05.17/outbox.cif.g08.bks.cpg/sg66_15_cif.got.tgz:29019.got - 2010.06.03 17:51:23.
