data_PCOD9495051
_publ_section_title
;
Structure prediction by ZEFSAII (Michael W. Deem and Ramdas Pophale) SiO2 
 PCOD9495051
Probable space group: C C C M
;
_chemical_formula_sum "Si O2"
_cell_formula_units_Z 96
_cell_length_a 25.262587
_cell_length_b 16.002769
_cell_length_c 14.664936
_cell_angle_alpha 90.000000
_cell_angle_beta 90.000000
_cell_angle_gamma 90.000000
_cell_volume 5928.613388
_symmetry_space_group_name_H-M "C C C M"
_symmetry_group_IT_number 66
_symmetry_cell_setting 'orthorhombic'
loop_
_space_group_symop_operation_xyz
x,y,z
-x,-y,z
x,-y,1/2-z
-x,y,1/2-z
-x,-y,-z
x,y,-z
-x,y,1/2+z
x,-y,1/2+z
1/2+x,1/2+y,z
1/2-x,1/2-y,z
1/2+x,1/2-y,1/2-z
1/2-x,1/2+y,1/2-z
1/2-x,1/2-y,-z
1/2+x,1/2+y,-z
1/2-x,1/2+y,1/2+z
1/2+x,1/2-y,1/2+z
loop_
_atom_site_type_symbol
_atom_site_label
_atom_site_fract_x
_atom_site_fract_y
_atom_site_fract_z
Si Si1 0.542212 0.327819 0.608894
Si Si2 0.806127 0.070322 0.674737
Si Si3 0.914478 0.999094 0.894997
Si Si4 0.920765 0.188753 0.108359
Si Si5 0.862492 0.759282 0.773958
Si Si6 0.287184 0.832653 0.600814
O O1 0.553635 0.327193 0.500000
O O2 0.547630 0.425174 0.639952
O O3 0.483076 0.294881 0.621886
O O4 0.586380 0.277385 0.663068
O O5 0.855497 0.038301 0.614441
O O6 0.826115 0.157503 0.718518
O O7 0.752965 0.092113 0.620821
O O8 0.797051 0.000000 0.750000
O O9 0.913963 0.092513 0.856707
O O10 0.929783 0.011568 0.000000
O O11 0.883910 0.245871 0.171223
O O12 0.908921 0.193554 0.000000
O O13 0.829152 0.684887 0.819370
O O14 0.311771 0.840271 0.500000
O O15 0.250000 0.750000 0.597822
#
# Coordination Sequence:
#
# PCOD9495051 Si02
#       6
#    16  16  16  16  16  16
#     4   9  17  26  40  61  88 120 156 189 219 261
#     4  10  17  28  44  65  86 112 154 194 237 270
#     4   9  16  26  39  58  88 120 153 187 221 260
#     4  10  18  27  39  60  90 125 155 181 218 269
#     4  10  18  29  43  61  89 122 155 192 227 269
#     4   9  18  31  48  65  84 114 155 200 241 273
#
# _framework density 16.192655999999999
#
# number of rings (size 3 to 8) (size 9 to 14) (size 15 to 20)
#    0.000    2.500    1.667    2.000    0.000    6.000 
#    0.000    1.667    0.000    6.500    0.000    0.000 
#    0.000    2.667    0.000   10.000    0.000    0.500 
#
# Total GULP energy -267345.220067 kJ/mol
# GULP energy per Si atom -5569.692085 kJ/mol
# Density = 1.615580 g / cm^3
# Si number density = 16.192656 Si / 1000 Ang^3
#
#
#
# Elastic Constant Matrix: (Units=GPa)
#
#
# Indices 1 2 3 4 5 6 
#
# 1 64.0713 16.8470 37.2317 0.0000 0.0000 0.0000
# 2 16.8470 15.7739 11.2219 0.0000 0.0000 0.0000
# 3 37.2317 11.2219 81.9798 0.0000 0.0000 0.0000
# 4 0.0000 0.0000 0.0000 13.8201 0.0000 0.0000
# 5 0.0000 0.0000 0.0000 0.0000 27.9624 0.0000
# 6 0.0000 0.0000 0.0000 0.0000 0.0000 17.3383
#
#
#
# Elastic Compliance Matrix: (Units=1/GPa)
#
#
# Indices 1 2 3 4 5 6 
#
# 1 0.026692 -0.022029 -0.009107 0.000000 0.000000 0.000000
# 2 -0.022029 0.088416 -0.002098 0.000000 0.000000 0.000000
# 3 -0.009107 -0.002098 0.016621 0.000000 0.000000 0.000000
# 4 0.000000 0.000000 0.000000 0.072359 0.000000 0.000000
# 5 0.000000 0.000000 0.000000 0.000000 0.035762 0.000000
# 6 0.000000 0.000000 0.000000 0.000000 0.000000 0.057676
#
#
# Mechanical properties :
#
#
# Convention : Reuss Voigt Hill
#
# Bulk Modulus (GPa) = 15.32308 32.49181 23.90744
# Shear Modulus (GPa) = 12.96183 18.25912 15.61047
#
# Velocity S-wave (km/s) = 2.83234 3.36164 3.10828
# Velocity P-wave (km/s) = 4.49218 5.93101 5.26102
#
# Compressibility (1/GPa) = 0.06526105
#
# Stress axis : x y z
#
# Youngs Moduli (GPa) = 37.46451 11.31014 60.16380
#
# Poissons Ratio (x) = 0.24915 0.54790
# Poissons Ratio (y) = 0.82530 0.12625
# Poissons Ratio (z) = 0.34118 0.02373
#
# Static dielectric constant tensor:
#      x y z
#    x 1.555040 0.000000 0.000000 
#    y 0.000000 1.536470 0.000000 
#    z 0.000000 0.000000 1.597010 
# 
# From -- ./inp_files/28972.got.cif
#   From: 2010.05.17/outbox.cif.g08.bks.cpg/sg66_15_cif.got.tgz:28972.got - 2010.06.03 17:51:23.
