data_PCOD9495545
_publ_section_title
;
Structure prediction by ZEFSAII (Michael W. Deem and Ramdas Pophale) SiO2 
 PCOD9495545
Probable space group: C C C M
;
_chemical_formula_sum "Si O2"
_cell_formula_units_Z 56
_cell_length_a 10.685356
_cell_length_b 14.340384
_cell_length_c 15.746170
_cell_angle_alpha 90.000000
_cell_angle_beta 90.000000
_cell_angle_gamma 90.000000
_cell_volume 2412.818825
_symmetry_space_group_name_H-M "C C C M"
_symmetry_group_IT_number 66
_symmetry_cell_setting 'orthorhombic'
loop_
_space_group_symop_operation_xyz
x,y,z
-x,-y,z
x,-y,1/2-z
-x,y,1/2-z
-x,-y,-z
x,y,-z
-x,y,1/2+z
x,-y,1/2+z
1/2+x,1/2+y,z
1/2-x,1/2-y,z
1/2+x,1/2-y,1/2-z
1/2-x,1/2+y,1/2-z
1/2-x,1/2-y,-z
1/2+x,1/2+y,-z
1/2-x,1/2+y,1/2+z
1/2+x,1/2-y,1/2+z
loop_
_atom_site_type_symbol
_atom_site_label
_atom_site_fract_x
_atom_site_fract_y
_atom_site_fract_z
Si Si1 0.092495 0.677825 0.368029
Si Si2 0.175238 0.339609 0.325602
Si Si3 0.656257 0.500000 0.250000
Si Si4 0.140525 0.111997 0.091167
O O1 0.129120 0.689053 0.268891
O O2 0.095746 0.781133 0.405803
O O3 0.207849 0.618535 0.403593
O O4 0.952895 0.638273 0.374857
O O5 0.250000 0.250000 0.360654
O O6 0.261192 0.428655 0.307168
O O7 0.594263 0.564350 0.177710
O O8 0.106162 0.070565 0.000000
#
# Coordination Sequence:
#
# PCOD9495545 Si02
#       4
#    16  16   8  16
#     4   9  17  32  56  86 115 149 202 237 297 356
#     4  10  18  33  55  87 119 157 195 244 292 355
#     4  10  20  37  59  94 118 156 203 243 304 352
#     4  10  19  36  59  86 116 154 204 249 289 354
#
# _framework density 23.20937
#
# number of rings (size 3 to 8) (size 9 to 14) (size 15 to 20)
#    0.000    2.286    5.714    1.714    0.000    9.143 
#    0.000    7.143    0.000    9.429    0.000    0.000 
#    0.000    0.000    0.000    0.000    0.000    0.000 
#
# Total GULP energy -156226.546382 kJ/mol
# GULP energy per Si atom -5579.519514 kJ/mol
# Density = 2.315654 g / cm^3
# Si number density = 23.209370 Si / 1000 Ang^3
#
#
#
# Elastic Constant Matrix: (Units=GPa)
#
#
# Indices 1 2 3 4 5 6 
#
# 1 57.0816 8.9442 -10.2809 0.0000 0.0000 0.0000
# 2 8.9442 86.6427 14.3670 0.0000 0.0000 0.0000
# 3 -10.2809 14.3670 126.6626 0.0000 0.0000 0.0000
# 4 0.0000 0.0000 0.0000 52.4466 0.0000 0.0000
# 5 0.0000 0.0000 0.0000 0.0000 18.5429 0.0000
# 6 0.0000 0.0000 0.0000 0.0000 0.0000 27.2298
#
#
#
# Elastic Compliance Matrix: (Units=1/GPa)
#
#
# Indices 1 2 3 4 5 6 
#
# 1 0.018167 -0.002161 0.001720 0.000000 0.000000 0.000000
# 2 -0.002161 0.012020 -0.001539 0.000000 0.000000 0.000000
# 3 0.001720 -0.001539 0.008209 0.000000 0.000000 0.000000
# 4 0.000000 0.000000 0.000000 0.019067 0.000000 0.000000
# 5 0.000000 0.000000 0.000000 0.000000 0.053929 0.000000
# 6 0.000000 0.000000 0.000000 0.000000 0.000000 0.036724
#
#
# Mechanical properties :
#
#
# Convention : Reuss Voigt Hill
#
# Bulk Modulus (GPa) = 29.03878 32.93861 30.98870
# Shear Modulus (GPa) = 30.57079 36.80096 33.68587
#
# Velocity S-wave (km/s) = 3.63323 3.98629 3.81385
# Velocity P-wave (km/s) = 5.48993 5.95064 5.72492
#
# Compressibility (1/GPa) = 0.03443670
#
# Stress axis : x y z
#
# Youngs Moduli (GPa) = 55.04470 83.19581 121.81598
#
# Poissons Ratio (x) = 0.17975 -0.20948
# Poissons Ratio (y) = 0.11893 0.18744
# Poissons Ratio (z) = -0.09466 0.12802
#
# Static dielectric constant tensor:
#      x y z
#    x 1.953620 0.000000 0.000000 
#    y 0.000000 1.827920 0.000000 
#    z 0.000000 0.000000 1.880730 
# 
# From -- ./inp_files/37835.got.cif
#   From: 2010.05.17/outbox.cif.g08.bks.cpg/sg66_19_cif.got.tgz:37835.got - 2010.06.03 17:51:23.
