data_PCOD9495416
_publ_section_title
;
Structure prediction by ZEFSAII (Michael W. Deem and Ramdas Pophale) SiO2 
 PCOD9495416
Probable space group: C C C M
;
_chemical_formula_sum "Si O2"
_cell_formula_units_Z 96
_cell_length_a 21.200344
_cell_length_b 12.278245
_cell_length_c 14.175331
_cell_angle_alpha 90.000000
_cell_angle_beta 90.000000
_cell_angle_gamma 90.000000
_cell_volume 3689.881436
_symmetry_space_group_name_H-M "C C C M"
_symmetry_group_IT_number 66
_symmetry_cell_setting 'orthorhombic'
loop_
_space_group_symop_operation_xyz
x,y,z
-x,-y,z
x,-y,1/2-z
-x,y,1/2-z
-x,-y,-z
x,y,-z
-x,y,1/2+z
x,-y,1/2+z
1/2+x,1/2+y,z
1/2-x,1/2-y,z
1/2+x,1/2-y,1/2-z
1/2-x,1/2+y,1/2-z
1/2-x,1/2-y,-z
1/2+x,1/2+y,-z
1/2-x,1/2+y,1/2+z
1/2+x,1/2-y,1/2+z
loop_
_atom_site_type_symbol
_atom_site_label
_atom_site_fract_x
_atom_site_fract_y
_atom_site_fract_z
Si Si1 0.368439 0.253033 0.106856
Si Si2 0.997148 0.124237 0.637438
Si Si3 0.365147 0.329666 0.390533
Si Si4 0.432301 0.038872 0.888316
Si Si5 0.815075 0.610297 0.611858
Si Si6 0.299502 0.540921 0.615041
O O1 0.432650 0.323273 0.103354
O O2 0.394375 0.142424 0.153621
O O3 0.317330 0.337772 0.148118
O O4 0.346525 0.223909 0.000000
O O5 0.060226 0.189215 0.610793
O O6 0.000000 0.123475 0.750000
O O7 0.000000 0.000000 0.603843
O O8 0.346835 0.334770 0.500000
O O9 0.323331 0.232225 0.348707
O O10 0.351246 0.450976 0.353986
O O11 0.500000 0.000000 0.852405
O O12 0.383930 0.940855 0.880804
O O13 0.441809 0.065966 0.000000
O O14 0.800897 0.621450 0.500000
O O15 0.764614 0.520308 0.644290
O O16 0.300009 0.551142 0.500000
#
# Coordination Sequence:
#
# PCOD9495416 Si02
#       6
#    16  16  16  16  16  16
#     4  10  19  32  52  77 106 138 176 221 266 317
#     4  11  22  34  50  77 104 138 173 216 270 316
#     4  10  18  31  53  78 108 139 172 217 265 319
#     4   9  17  29  46  72 106 141 173 210 260 315
#     4   9  17  29  48  78 111 136 168 212 265 319
#     4   9  17  28  46  78 108 132 167 216 264 310
#
# _framework density 26.017095999999999
#
# number of rings (size 3 to 8) (size 9 to 14) (size 15 to 20)
#    0.000    2.333    1.667    2.000    0.000    6.000 
#    0.000    3.333    0.000    4.500   13.000    0.000 
#    0.000    0.000    0.000    0.000    0.000    0.000 
#
# Total GULP energy -268213.291974 kJ/mol
# GULP energy per Si atom -5587.776916 kJ/mol
# Density = 2.595788 g / cm^3
# Si number density = 26.017096 Si / 1000 Ang^3
#
#
#
# Elastic Constant Matrix: (Units=GPa)
#
#
# Indices 1 2 3 4 5 6 
#
# 1 122.9324 39.7364 -2.7883 0.0000 0.0000 0.0000
# 2 39.7364 152.9564 25.8139 0.0000 0.0000 0.0000
# 3 -2.7883 25.8139 104.4198 0.0000 0.0000 0.0000
# 4 0.0000 0.0000 0.0000 5.9945 0.0000 0.0000
# 5 0.0000 0.0000 0.0000 0.0000 -206.9300 0.0000
# 6 0.0000 0.0000 0.0000 0.0000 0.0000 52.6766
#
#
#
# Elastic Compliance Matrix: (Units=1/GPa)
#
#
# Indices 1 2 3 4 5 6 
#
# 1 0.008952 -0.002469 0.000849 0.000000 0.000000 0.000000
# 2 -0.002469 0.007503 -0.001921 0.000000 0.000000 0.000000
# 3 0.000849 -0.001921 0.010074 0.000000 0.000000 0.000000
# 4 0.000000 0.000000 0.000000 0.166820 0.000000 0.000000
# 5 0.000000 0.000000 0.000000 0.000000 -0.004833 0.000000
# 6 0.000000 0.000000 0.000000 0.000000 0.000000 0.018984
#
#
# Mechanical properties :
#
#
# Convention : Reuss Voigt Hill
#
# Bulk Modulus (GPa) = 51.41730 56.20363 53.81046
# Shear Modulus (GPa) = 22.61787 -8.48200 7.06794
#
# Velocity S-wave (km/s) = 2.95167 -1.80755 1.65001
# Velocity P-wave (km/s) = 5.60555 4.15850 4.93535
#
# Compressibility (1/GPa) = 0.01944871
#
# Stress axis : x y z
#
# Youngs Moduli (GPa) = 111.70847 133.27307 99.26274
#
# Poissons Ratio (x) = 0.32904 -0.08431
# Poissons Ratio (y) = 0.27580 0.19067
# Poissons Ratio (z) = -0.09488 0.25600
#
# Static dielectric constant tensor:
#      x y z
#    x 2.023740 0.000000 0.000000 
#    y 0.000000 2.058290 0.000000 
#    z 0.000000 0.000000 0.634640 
# 
# From -- ./inp_files/48804.got.cif
#   From: 2010.05.17/outbox.cif.g08.bks.cpg/sg66_25_cif.got.tgz:48804.got - 2010.06.03 17:51:23.
