data_PCOD9495191
_publ_section_title
;
Structure prediction by ZEFSAII (Michael W. Deem and Ramdas Pophale) SiO2 
 PCOD9495191
Probable space group: C C C M
;
_chemical_formula_sum "Si O2"
_cell_formula_units_Z 104
_cell_length_a 23.770131
_cell_length_b 8.439902
_cell_length_c 25.127342
_cell_angle_alpha 90.000000
_cell_angle_beta 90.000000
_cell_angle_gamma 90.000000
_cell_volume 5040.986448
_symmetry_space_group_name_H-M "C C C M"
_symmetry_group_IT_number 66
_symmetry_cell_setting 'orthorhombic'
loop_
_space_group_symop_operation_xyz
x,y,z
-x,-y,z
x,-y,1/2-z
-x,y,1/2-z
-x,-y,-z
x,y,-z
-x,y,1/2+z
x,-y,1/2+z
1/2+x,1/2+y,z
1/2-x,1/2-y,z
1/2+x,1/2-y,1/2-z
1/2-x,1/2+y,1/2-z
1/2-x,1/2-y,-z
1/2+x,1/2+y,-z
1/2-x,1/2+y,1/2+z
1/2+x,1/2-y,1/2+z
loop_
_atom_site_type_symbol
_atom_site_label
_atom_site_fract_x
_atom_site_fract_y
_atom_site_fract_z
Si Si1 0.816677 0.782874 0.061583
Si Si2 0.802556 0.171000 0.763108
Si Si3 0.000000 0.000000 0.916231
Si Si4 0.621597 0.389973 0.941961
Si Si5 0.638410 0.140269 0.330175
Si Si6 0.488839 0.178650 0.848230
Si Si7 0.611363 0.214110 0.833247
O O1 0.750000 0.750000 0.066326
O O2 0.846970 0.687969 0.109121
O O3 0.834588 0.967260 0.068995
O O4 0.832973 0.742679 0.000000
O O5 0.750000 0.250000 0.791921
O O6 0.822143 0.266925 0.710889
O O7 0.856783 0.154906 0.799782
O O8 0.781238 0.000000 0.750000
O O9 0.989215 0.835629 0.884551
O O10 0.059419 0.967944 0.944025
O O11 0.617567 0.263343 0.894692
O O12 0.634593 0.320513 0.000000
O O13 0.572086 0.176559 0.321357
O O14 0.641891 0.951899 0.322761
O O15 0.546629 0.200147 0.815895
O O16 0.500000 0.000000 0.872801
#
# Coordination Sequence:
#
# PCOD9495191 Si02
#       7
#    16  16   8  16  16  16  16
#     4  10  21  37  58  87 122 163 209 255 307 368
#     4  12  26  43  65  90 118 157 208 256 314 378
#     4  10  17  34  62  87 128 164 213 258 313 376
#     4  10  20  36  60  89 123 165 210 258 312 374
#     4  11  21  41  64  88 124 162 207 255 312 372
#     4   9  20  36  60  93 128 165 206 256 316 379
#     4  10  23  40  60  90 126 159 202 260 311 375
#
# _framework density 20.630880999999999
#
# number of rings (size 3 to 8) (size 9 to 14) (size 15 to 20)
#    0.000    1.692    1.538    3.000    2.154    2.462 
#    0.000    3.077    0.000    8.769    0.000    0.000 
#    0.000    0.000    0.000    0.000    0.000    0.000 
#
# Total GULP energy -289749.054591 kJ/mol
# GULP energy per Si atom -5572.097204 kJ/mol
# Density = 2.058392 g / cm^3
# Si number density = 20.630881 Si / 1000 Ang^3
#
#
#
# Elastic Constant Matrix: (Units=GPa)
#
#
# Indices 1 2 3 4 5 6 
#
# 1 106.9338 14.5201 10.7570 0.0000 0.0000 0.0000
# 2 14.5201 53.3215 -6.3644 0.0000 0.0000 0.0000
# 3 10.7570 -6.3644 51.3924 0.0000 0.0000 0.0000
# 4 0.0000 0.0000 0.0000 26.2719 0.0000 0.0000
# 5 0.0000 0.0000 0.0000 0.0000 24.0535 0.0000
# 6 0.0000 0.0000 0.0000 0.0000 0.0000 34.4710
#
#
#
# Elastic Compliance Matrix: (Units=1/GPa)
#
#
# Indices 1 2 3 4 5 6 
#
# 1 0.010010 -0.003021 -0.002469 0.000000 0.000000 0.000000
# 2 -0.003021 0.019947 0.003102 0.000000 0.000000 0.000000
# 3 -0.002469 0.003102 0.020359 0.000000 0.000000 0.000000
# 4 0.000000 0.000000 0.000000 0.038064 0.000000 0.000000
# 5 0.000000 0.000000 0.000000 0.000000 0.041574 0.000000
# 6 0.000000 0.000000 0.000000 0.000000 0.000000 0.029010
#
#
# Mechanical properties :
#
#
# Convention : Reuss Voigt Hill
#
# Bulk Modulus (GPa) = 21.95800 27.71921 24.83860
# Shear Modulus (GPa) = 27.94559 29.80828 28.87693
#
# Velocity S-wave (km/s) = 3.68442 3.80523 3.74531
# Velocity P-wave (km/s) = 5.36342 5.72462 5.54696
#
# Compressibility (1/GPa) = 0.04554150
#
# Stress axis : x y z
#
# Youngs Moduli (GPa) = 99.89878 50.13277 49.11787
#
# Poissons Ratio (x) = 0.15143 0.12129
# Poissons Ratio (y) = 0.30176 -0.15239
# Poissons Ratio (z) = 0.24668 -0.15554
#
# Static dielectric constant tensor:
#      x y z
#    x 1.736350 0.000000 0.000000 
#    y 0.000000 1.746110 0.000000 
#    z 0.000000 0.000000 1.738210 
# 
# From -- ./inp_files/66060.got.cif
#   From: 2010.05.17/outbox.cif.g08.bks.cpg/sg66_34_cif.got.tgz:66060.got - 2010.06.03 17:51:23.
