data_PCOD9495249
_publ_section_title
;
Structure prediction by ZEFSAII (Michael W. Deem and Ramdas Pophale) SiO2 
 PCOD9495249
Probable space group: C C C M
;
_chemical_formula_sum "Si O2"
_cell_formula_units_Z 112
_cell_length_a 13.950685
_cell_length_b 19.463091
_cell_length_c 21.301909
_cell_angle_alpha 90.000000
_cell_angle_beta 90.000000
_cell_angle_gamma 90.000000
_cell_volume 5783.967859
_symmetry_space_group_name_H-M "C C C M"
_symmetry_group_IT_number 66
_symmetry_cell_setting 'orthorhombic'
loop_
_space_group_symop_operation_xyz
x,y,z
-x,-y,z
x,-y,1/2-z
-x,y,1/2-z
-x,-y,-z
x,y,-z
-x,y,1/2+z
x,-y,1/2+z
1/2+x,1/2+y,z
1/2-x,1/2-y,z
1/2+x,1/2-y,1/2-z
1/2-x,1/2+y,1/2-z
1/2-x,1/2-y,-z
1/2+x,1/2+y,-z
1/2-x,1/2+y,1/2+z
1/2+x,1/2-y,1/2+z
loop_
_atom_site_type_symbol
_atom_site_label
_atom_site_fract_x
_atom_site_fract_y
_atom_site_fract_z
Si Si1 0.003758 0.305066 0.573516
Si Si2 0.802929 0.940990 0.891753
Si Si3 0.211972 0.672514 0.928273
Si Si4 0.968691 0.920872 0.184931
Si Si5 0.409677 0.953708 0.573429
Si Si6 0.341149 0.711589 0.572804
Si Si7 0.891376 0.915752 0.573293
O O1 0.026038 0.288298 0.500000
O O2 0.107252 0.323208 0.602285
O O3 0.941380 0.374302 0.575619
O O4 0.939560 0.243057 0.600078
O O5 0.855003 0.923651 0.826035
O O6 0.691613 0.960958 0.891806
O O7 0.819156 0.868899 0.926703
O O8 0.862669 0.003885 0.921858
O O9 0.250000 0.750000 0.930516
O O10 0.297181 0.625202 0.903465
O O11 0.199336 0.645955 0.000000
O O12 0.000000 0.886448 0.250000
O O13 0.023643 0.898192 0.121476
O O14 0.000000 0.000000 0.189013
O O15 0.391807 0.971809 0.500000
O O16 0.500000 0.000000 0.594483
O O17 0.345835 0.733611 0.500000
O O18 0.250000 0.750000 0.602366
O O19 0.912779 0.898675 0.500000
#
# Coordination Sequence:
#
# PCOD9495249 Si02
#       7
#    16  16  16  16  16  16  16
#     4   9  17  28  41  64 104 149 180 212 267 339
#     4  11  20  31  52  77 106 144 187 235 274 329
#     4   9  18  31  46  70 107 145 178 216 273 332
#     4   9  21  39  56  78 109 146 183 224 284 349
#     4  10  18  28  45  73 112 149 181 224 281 332
#     4  10  18  28  44  73 112 147 181 222 277 335
#     4  10  20  33  53  83 111 137 183 239 279 324
#
# _framework density 19.363869999999999
#
# number of rings (size 3 to 8) (size 9 to 14) (size 15 to 20)
#    0.000    2.286    1.429    2.143    2.000    6.000 
#    0.000    0.000    0.000    0.857    0.000   17.000 
#    0.000    0.000    0.000    0.000    0.000    0.000 
#
# Total GULP energy -311793.776049 kJ/mol
# GULP energy per Si atom -5567.746001 kJ/mol
# Density = 1.931980 g / cm^3
# Si number density = 19.363870 Si / 1000 Ang^3
#
#
#
# Elastic Constant Matrix: (Units=GPa)
#
#
# Indices 1 2 3 4 5 6 
#
# 1 156.1630 29.9117 46.4064 0.0000 0.0000 0.0000
# 2 29.9117 89.6778 5.2133 0.0000 0.0000 0.0000
# 3 46.4064 5.2133 54.2201 0.0000 0.0000 0.0000
# 4 0.0000 0.0000 0.0000 -2.5214 0.0000 0.0000
# 5 0.0000 0.0000 0.0000 0.0000 44.7514 0.0000
# 6 0.0000 0.0000 0.0000 0.0000 0.0000 37.1093
#
#
#
# Elastic Compliance Matrix: (Units=1/GPa)
#
#
# Indices 1 2 3 4 5 6 
#
# 1 0.009159 -0.002614 -0.007588 0.000000 0.000000 0.000000
# 2 -0.002614 0.011960 0.001087 0.000000 0.000000 0.000000
# 3 -0.007588 0.001087 0.024833 0.000000 0.000000 0.000000
# 4 0.000000 0.000000 0.000000 -0.396603 0.000000 0.000000
# 5 0.000000 0.000000 0.000000 0.000000 0.022346 0.000000
# 6 0.000000 0.000000 0.000000 0.000000 0.000000 0.026947
#
#
# Mechanical properties :
#
#
# Convention : Reuss Voigt Hill
#
# Bulk Modulus (GPa) = 36.07111 51.45818 43.76465
# Shear Modulus (GPa) = -18.25564 30.43647 6.09042
#
# Velocity S-wave (km/s) = -3.07378 3.96892 1.77541
# Velocity P-wave (km/s) = 2.46393 6.90182 5.18199
#
# Compressibility (1/GPa) = 0.02772302
#
# Stress axis : x y z
#
# Youngs Moduli (GPa) = 109.18127 83.61436 40.26872
#
# Poissons Ratio (x) = 0.21856 0.30555
# Poissons Ratio (y) = 0.28539 -0.04378
# Poissons Ratio (z) = 0.82845 -0.09091
#
# Static dielectric constant tensor:
#      x y z
#    x 1.768470 0.000000 0.000000 
#    y 0.000000 1.701120 0.000000 
#    z 0.000000 0.000000 1.688650 
# 
# From -- ./inp_files/57145.got.cif
#   From: 2010.05.17/outbox.cif.g08.bks.cpg/sg66_29_cif.got.tgz:57145.got - 2010.06.03 17:51:23.
