data_PCOD9495889
_publ_section_title
;
Structure prediction by ZEFSAII (Michael W. Deem and Ramdas Pophale) SiO2 
 PCOD9495889
Probable space group: C C C M
;
_chemical_formula_sum "Si O2"
_cell_formula_units_Z 80
_cell_length_a 16.215688
_cell_length_b 8.784055
_cell_length_c 30.508384
_cell_angle_alpha 90.000000
_cell_angle_beta 90.000000
_cell_angle_gamma 90.000000
_cell_volume 4345.598818
_symmetry_space_group_name_H-M "C C C M"
_symmetry_group_IT_number 66
_symmetry_cell_setting 'orthorhombic'
loop_
_space_group_symop_operation_xyz
x,y,z
-x,-y,z
x,-y,1/2-z
-x,y,1/2-z
-x,-y,-z
x,y,-z
-x,y,1/2+z
x,-y,1/2+z
1/2+x,1/2+y,z
1/2-x,1/2-y,z
1/2+x,1/2-y,1/2-z
1/2-x,1/2+y,1/2-z
1/2-x,1/2-y,-z
1/2+x,1/2+y,-z
1/2-x,1/2+y,1/2+z
1/2+x,1/2-y,1/2+z
loop_
_atom_site_type_symbol
_atom_site_label
_atom_site_fract_x
_atom_site_fract_y
_atom_site_fract_z
Si Si1 0.092956 0.557538 0.608683
Si Si2 0.907388 0.565627 0.793635
Si Si3 0.328827 0.361979 0.882800
Si Si4 0.237762 0.569918 0.948637
Si Si5 0.591445 0.570540 0.795316
O O1 0.125748 0.523134 0.658284
O O2 0.099641 0.740978 0.605287
O O3 0.151740 0.481170 0.573177
O O4 0.000000 0.500000 0.605042
O O5 0.865212 0.500000 0.750000
O O6 0.913147 0.747252 0.789891
O O7 0.000000 0.500000 0.794192
O O8 0.250000 0.250000 0.875668
O O9 0.305705 0.475608 0.921524
O O10 0.353710 0.449692 0.838632
O O11 0.250000 0.750000 0.943672
O O12 0.239982 0.531748 0.000000
O O13 0.500000 0.500000 0.801834
O O14 0.624037 0.500000 0.750000
#
# Coordination Sequence:
#
# PCOD9495889 Si02
#       5
#    16  16  16  16  16
#     4   9  19  35  57  82 105 138 182 221 259 312
#     4   9  16  28  47  74 108 139 170 206 253 306
#     4   9  20  38  55  76 109 144 178 215 264 325
#     4  10  22  39  57  78 105 137 174 220 276 327
#     4  10  19  31  52  81 109 140 179 219 259 302
#
# _framework density 18.409431000000001
#
# number of rings (size 3 to 8) (size 9 to 14) (size 15 to 20)
#    0.000    2.600    0.000    2.400    0.000   10.400 
#    0.000   10.000    0.000    3.000    0.000    0.000 
#    0.000    0.000    0.000    0.000    0.000    0.000 
#
# Total GULP energy -222919.715440 kJ/mol
# GULP energy per Si atom -5572.992886 kJ/mol
# Density = 1.836753 g / cm^3
# Si number density = 18.409431 Si / 1000 Ang^3
#
#
#
# Elastic Constant Matrix: (Units=GPa)
#
#
# Indices 1 2 3 4 5 6 
#
# 1 49.7587 39.2116 56.3988 0.0000 0.0000 0.0000
# 2 39.2116 79.2472 86.7307 0.0000 0.0000 0.0000
# 3 56.3988 86.7307 205.7000 0.0000 0.0000 0.0000
# 4 0.0000 0.0000 0.0000 42.3226 0.0000 0.0000
# 5 0.0000 0.0000 0.0000 0.0000 -13.2878 0.0000
# 6 0.0000 0.0000 0.0000 0.0000 0.0000 21.6487
#
#
#
# Elastic Compliance Matrix: (Units=1/GPa)
#
#
# Indices 1 2 3 4 5 6 
#
# 1 0.034825 -0.012592 -0.004239 0.000000 0.000000 0.000000
# 2 -0.012592 0.027984 -0.008347 0.000000 0.000000 0.000000
# 3 -0.004239 -0.008347 0.009543 0.000000 0.000000 0.000000
# 4 0.000000 0.000000 0.000000 0.023628 0.000000 0.000000
# 5 0.000000 0.000000 0.000000 0.000000 -0.075257 0.000000
# 6 0.000000 0.000000 0.000000 0.000000 0.000000 0.046192
#
#
# Mechanical properties :
#
#
# Convention : Reuss Voigt Hill
#
# Bulk Modulus (GPa) = 45.46191 77.70977 61.58584
# Shear Modulus (GPa) = 40.12774 20.29436 30.21105
#
# Velocity S-wave (km/s) = 4.67383 3.32383 4.05540
# Velocity P-wave (km/s) = 7.33994 7.55209 7.44677
#
# Compressibility (1/GPa) = 0.02199643
#
# Stress axis : x y z
#
# Youngs Moduli (GPa) = 28.71537 35.73460 104.78945
#
# Poissons Ratio (x) = 0.44997 0.44420
# Poissons Ratio (y) = 0.36158 0.87464
# Poissons Ratio (z) = 0.12172 0.29826
#
# Static dielectric constant tensor:
#      x y z
#    x 1.649120 0.000000 0.000000 
#    y 0.000000 1.629900 0.000000 
#    z 0.000000 0.000000 1.670370 
# 
# From -- ./inp_files/65069.got.cif
#   From: 2010.05.17/outbox.cif.g08.bks.cpg/sg66_33_cif.got.tgz:65069.got - 2010.06.03 17:51:23.
