data_PCOD9495710
_publ_section_title
;
Structure prediction by ZEFSAII (Michael W. Deem and Ramdas Pophale) SiO2 
 PCOD9495710
Probable space group: C C C M
;
_chemical_formula_sum "Si O2"
_cell_formula_units_Z 40
_cell_length_a 10.567417
_cell_length_b 10.252518
_cell_length_c 16.190618
_cell_angle_alpha 90.000000
_cell_angle_beta 90.000000
_cell_angle_gamma 90.000000
_cell_volume 1754.134184
_symmetry_space_group_name_H-M "C C C M"
_symmetry_group_IT_number 66
_symmetry_cell_setting 'orthorhombic'
loop_
_space_group_symop_operation_xyz
x,y,z
-x,-y,z
x,-y,1/2-z
-x,y,1/2-z
-x,-y,-z
x,y,-z
-x,y,1/2+z
x,-y,1/2+z
1/2+x,1/2+y,z
1/2-x,1/2-y,z
1/2+x,1/2-y,1/2-z
1/2-x,1/2+y,1/2-z
1/2-x,1/2-y,-z
1/2+x,1/2+y,-z
1/2-x,1/2+y,1/2+z
1/2+x,1/2-y,1/2+z
loop_
_atom_site_type_symbol
_atom_site_label
_atom_site_fract_x
_atom_site_fract_y
_atom_site_fract_z
Si Si1 0.103247 0.791283 0.500000
Si Si2 0.646582 0.869109 0.500000
Si Si3 0.000000 0.000000 0.871906
Si Si4 0.761786 0.596334 0.318900
O O1 0.250000 0.750000 0.500000
O O2 0.998896 0.676657 0.500000
O O3 0.065665 0.885051 0.424483
O O4 0.750000 0.750000 0.500000
O O5 0.676948 0.929225 0.409866
O O6 0.114952 0.937430 0.825721
O O7 0.819177 0.500000 0.250000
O O8 0.750000 0.750000 0.298723
#
# Coordination Sequence:
#
# PCOD9495710 Si02
#       4
#     8   8   8  16
#     4  11  22  40  82 116 146 204 264 316 402 472
#     4  10  18  45  78 114 153 199 266 329 381 468
#     4  11  21  44  74 107 159 198 255 317 398 473
#     4  11  23  44  81 110 155 212 259 324 397 464
#
# _framework density 22.803272
#
# number of rings (size 3 to 8) (size 9 to 14) (size 15 to 20)
#    0.000    1.200    8.000    1.800    0.000    1.600 
#    0.000    5.000   17.600    2.400    0.000    0.000 
#    0.000    0.000    0.000    0.000    0.000    0.000 
#
# Total GULP energy -111617.103108 kJ/mol
# GULP energy per Si atom -5580.855155 kJ/mol
# Density = 2.275137 g / cm^3
# Si number density = 22.803272 Si / 1000 Ang^3
#
#
#
# Elastic Constant Matrix: (Units=GPa)
#
#
# Indices 1 2 3 4 5 6 
#
# 1 188.8705 53.1988 60.1577 0.0000 0.0000 0.0000
# 2 53.1988 113.9803 103.2679 0.0000 0.0000 0.0000
# 3 60.1577 103.2679 178.5045 0.0000 0.0000 0.0000
# 4 0.0000 0.0000 0.0000 -13.0380 0.0000 0.0000
# 5 0.0000 0.0000 0.0000 0.0000 126.8608 0.0000
# 6 0.0000 0.0000 0.0000 0.0000 0.0000 51.9228
#
#
#
# Elastic Compliance Matrix: (Units=1/GPa)
#
#
# Indices 1 2 3 4 5 6 
#
# 1 0.006159 -0.002089 -0.000867 0.000000 0.000000 0.000000
# 2 -0.002089 0.019146 -0.010372 0.000000 0.000000 0.000000
# 3 -0.000867 -0.010372 0.011895 0.000000 0.000000 0.000000
# 4 0.000000 0.000000 0.000000 -0.076699 0.000000 0.000000
# 5 0.000000 0.000000 0.000000 0.000000 0.007883 0.000000
# 6 0.000000 0.000000 0.000000 0.000000 0.000000 0.019259
#
#
# Mechanical properties :
#
#
# Convention : Reuss Voigt Hill
#
# Bulk Modulus (GPa) = 94.84878 101.62268 98.23573
# Shear Modulus (GPa) = 280.67453 50.79785 165.73619
#
# Velocity S-wave (km/s) = 11.10641 4.72493 8.53456
# Velocity P-wave (km/s) = 14.35808 8.62718 11.84447
#
# Compressibility (1/GPa) = 0.01054310
#
# Stress axis : x y z
#
# Youngs Moduli (GPa) = 162.35703 52.23073 84.07041
#
# Poissons Ratio (x) = 0.10912 0.07290
# Poissons Ratio (y) = 0.33918 0.87199
# Poissons Ratio (z) = 0.14079 0.54174
#
# Static dielectric constant tensor:
#      x y z
#    x 1.692380 0.000000 0.000000 
#    y 0.000000 1.939970 0.000000 
#    z 0.000000 0.000000 1.995140 
# 
# From -- ./inp_files/37536.got.cif
#   From: 2010.05.17/outbox.cif.g08.bks.cpg/sg66_19_cif.got.tgz:37536.got - 2010.06.03 17:51:23.
