data_PCOD9495666
_publ_section_title
;
Structure prediction by ZEFSAII (Michael W. Deem and Ramdas Pophale) SiO2 
 PCOD9495666
Probable space group: C C C M
;
_chemical_formula_sum "Si O2"
_cell_formula_units_Z 88
_cell_length_a 7.897753
_cell_length_b 20.621396
_cell_length_c 26.367129
_cell_angle_alpha 90.000000
_cell_angle_beta 90.000000
_cell_angle_gamma 90.000000
_cell_volume 4294.221612
_symmetry_space_group_name_H-M "C C C M"
_symmetry_group_IT_number 66
_symmetry_cell_setting 'orthorhombic'
loop_
_space_group_symop_operation_xyz
x,y,z
-x,-y,z
x,-y,1/2-z
-x,y,1/2-z
-x,-y,-z
x,y,-z
-x,y,1/2+z
x,-y,1/2+z
1/2+x,1/2+y,z
1/2-x,1/2-y,z
1/2+x,1/2-y,1/2-z
1/2-x,1/2+y,1/2-z
1/2-x,1/2-y,-z
1/2+x,1/2+y,-z
1/2-x,1/2+y,1/2+z
1/2+x,1/2-y,1/2+z
loop_
_atom_site_type_symbol
_atom_site_label
_atom_site_fract_x
_atom_site_fract_y
_atom_site_fract_z
Si Si1 0.767364 0.597858 0.595638
Si Si2 0.413416 0.162954 0.941568
Si Si3 0.320682 0.626514 0.357330
Si Si4 0.515093 0.076478 0.189723
Si Si5 0.500000 0.500000 0.886867
Si Si6 0.921080 0.220770 0.122650
O O1 0.941918 0.607808 0.565870
O O2 0.654970 0.534891 0.584238
O O3 0.652067 0.661567 0.588577
O O4 0.824187 0.596963 0.655427
O O5 0.240849 0.140552 0.914885
O O6 0.487028 0.224290 0.910304
O O7 0.391638 0.178515 0.000000
O O8 0.144338 0.617629 0.329418
O O9 0.420301 0.558876 0.354897
O O10 0.441426 0.685639 0.342081
O O11 0.500000 0.082048 0.250000
O O12 0.500000 0.000000 0.177347
O O13 0.750000 0.250000 0.146762
#
# Coordination Sequence:
#
# PCOD9495666 Si02
#       6
#    16  16  16  16   8  16
#     4   9  19  35  57  81 116 148 183 239 288 337
#     4  10  21  37  59  83 107 148 203 241 279 338
#     4  10  20  35  59  82 118 150 185 238 291 335
#     4  10  19  35  59  88 118 148 188 232 278 346
#     4  10  18  36  54  78 116 154 182 228 294 354
#     4   9  19  35  56  82 110 148 191 236 279 329
#
# _framework density 20.492656
#
# number of rings (size 3 to 8) (size 9 to 14) (size 15 to 20)
#    0.000    2.364    1.818    0.545    0.000    4.727 
#    0.000   11.818    0.000   32.727    0.000    0.000 
#    0.000    0.000    0.000    0.000    0.000    0.000 
#
# Total GULP energy -245073.949860 kJ/mol
# GULP energy per Si atom -5569.862497 kJ/mol
# Density = 2.044601 g / cm^3
# Si number density = 20.492656 Si / 1000 Ang^3
#
#
#
# Elastic Constant Matrix: (Units=GPa)
#
#
# Indices 1 2 3 4 5 6 
#
# 1 120.8298 46.7201 14.5546 0.0000 0.0000 0.0000
# 2 46.7201 99.7393 27.1343 0.0000 0.0000 0.0000
# 3 14.5546 27.1343 45.5376 0.0000 0.0000 0.0000
# 4 0.0000 0.0000 0.0000 6.6653 0.0000 0.0000
# 5 0.0000 0.0000 0.0000 0.0000 2.8592 0.0000
# 6 0.0000 0.0000 0.0000 0.0000 0.0000 47.3137
#
#
#
# Elastic Compliance Matrix: (Units=1/GPa)
#
#
# Indices 1 2 3 4 5 6 
#
# 1 0.010116 -0.004605 -0.000489 0.000000 0.000000 0.000000
# 2 -0.004605 0.014063 -0.006907 0.000000 0.000000 0.000000
# 3 -0.000489 -0.006907 0.026232 0.000000 0.000000 0.000000
# 4 0.000000 0.000000 0.000000 0.150032 0.000000 0.000000
# 5 0.000000 0.000000 0.000000 0.000000 0.349746 0.000000
# 6 0.000000 0.000000 0.000000 0.000000 0.000000 0.021136
#
#
# Mechanical properties :
#
#
# Convention : Reuss Voigt Hill
#
# Bulk Modulus (GPa) = 37.86908 49.21386 43.54147
# Shear Modulus (GPa) = 8.27637 23.21414 15.74526
#
# Velocity S-wave (km/s) = 2.01183 3.36937 2.77490
# Velocity P-wave (km/s) = 4.89041 6.26134 5.61785
#
# Compressibility (1/GPa) = 0.02640676
#
# Stress axis : x y z
#
# Youngs Moduli (GPa) = 98.85587 71.11052 38.12129
#
# Poissons Ratio (x) = 0.32749 0.01864
# Poissons Ratio (y) = 0.45527 0.26332
# Poissons Ratio (z) = 0.04833 0.49119
#
# Static dielectric constant tensor:
#      x y z
#    x 1.785050 0.000000 0.000000 
#    y 0.000000 1.778510 0.000000 
#    z 0.000000 0.000000 1.713040 
# 
# From -- ./inp_files/55470.got.cif
#   From: 2010.05.17/outbox.cif.g08.bks.cpg/sg66_28_cif.got.tgz:55470.got - 2010.06.03 17:51:23.
