data_PCOD9495076
_publ_section_title
;
Structure prediction by ZEFSAII (Michael W. Deem and Ramdas Pophale) SiO2 
 PCOD9495076
Probable space group: C C C M
;
_chemical_formula_sum "Si O2"
_cell_formula_units_Z 96
_cell_length_a 20.325361
_cell_length_b 30.181164
_cell_length_c 8.777946
_cell_angle_alpha 90.000000
_cell_angle_beta 90.000000
_cell_angle_gamma 90.000000
_cell_volume 5384.769999
_symmetry_space_group_name_H-M "C C C M"
_symmetry_group_IT_number 66
_symmetry_cell_setting 'orthorhombic'
loop_
_space_group_symop_operation_xyz
x,y,z
-x,-y,z
x,-y,1/2-z
-x,y,1/2-z
-x,-y,-z
x,y,-z
-x,y,1/2+z
x,-y,1/2+z
1/2+x,1/2+y,z
1/2-x,1/2-y,z
1/2+x,1/2-y,1/2-z
1/2-x,1/2+y,1/2-z
1/2-x,1/2-y,-z
1/2+x,1/2+y,-z
1/2-x,1/2+y,1/2+z
1/2+x,1/2-y,1/2+z
loop_
_atom_site_type_symbol
_atom_site_label
_atom_site_fract_x
_atom_site_fract_y
_atom_site_fract_z
Si Si1 0.069365 0.838294 0.681750
Si Si2 0.066769 0.550218 0.682607
Si Si3 0.430431 0.765421 0.683363
Si Si4 0.200803 0.873655 0.819291
Si Si5 0.798211 0.450974 0.182440
Si Si6 0.711709 0.796118 0.182831
O O1 0.066704 0.839522 0.500000
O O2 0.078229 0.786444 0.727630
O O3 0.131227 0.865766 0.739852
O O4 0.000000 0.853371 0.750000
O O5 0.067958 0.500000 0.750000
O O6 0.064365 0.548985 0.500000
O O7 0.135591 0.569338 0.742292
O O8 0.000000 0.571012 0.750000
O O9 0.500000 0.781048 0.750000
O O10 0.433844 0.767060 0.500000
O O11 0.364374 0.790883 0.730539
O O12 0.236392 0.919921 0.783735
O O13 0.250019 0.835193 0.764711
O O14 0.191830 0.870723 0.000000
O O15 0.789029 0.500000 0.250000
O O16 0.807813 0.453702 0.000000
O O17 0.750000 0.750000 0.211487
O O18 0.713771 0.803368 0.000000
#
# Coordination Sequence:
#
# PCOD9495076 Si02
#       6
#    16  16  16  16  16  16
#     4  10  19  34  55  80 110 142 180 222 264 317
#     4  10  17  28  49  75 102 133 172 216 266 317
#     4   9  18  32  51  75 105 143 182 221 262 311
#     4  11  23  36  54  83 112 141 179 225 273 325
#     4  10  21  37  55  78 108 140 183 230 275 327
#     4  10  19  35  54  76 108 145 182 219 264 318
#
# _framework density 17.828060000000001
#
# number of rings (size 3 to 8) (size 9 to 14) (size 15 to 20)
#    0.000    2.000    1.667    4.500    0.000    4.333 
#    0.000    0.833    0.000    2.500    0.000    3.500 
#    0.000    0.000    0.000    0.000    0.000    0.000 
#
# Total GULP energy -267906.087495 kJ/mol
# GULP energy per Si atom -5581.376823 kJ/mol
# Density = 1.778748 g / cm^3
# Si number density = 17.828060 Si / 1000 Ang^3
#
#
#
# Elastic Constant Matrix: (Units=GPa)
#
#
# Indices 1 2 3 4 5 6 
#
# 1 180.8558 45.2980 59.3515 0.0000 0.0000 0.0000
# 2 45.2980 44.1906 28.9240 0.0000 0.0000 0.0000
# 3 59.3515 28.9240 66.6279 0.0000 0.0000 0.0000
# 4 0.0000 0.0000 0.0000 4.7058 0.0000 0.0000
# 5 0.0000 0.0000 0.0000 0.0000 38.5795 0.0000
# 6 0.0000 0.0000 0.0000 0.0000 0.0000 20.2179
#
#
#
# Elastic Compliance Matrix: (Units=1/GPa)
#
#
# Indices 1 2 3 4 5 6 
#
# 1 0.008626 -0.005326 -0.005372 0.000000 0.000000 0.000000
# 2 -0.005326 0.034900 -0.010406 0.000000 0.000000 0.000000
# 3 -0.005372 -0.010406 0.024311 0.000000 0.000000 0.000000
# 4 0.000000 0.000000 0.000000 0.212502 0.000000 0.000000
# 5 0.000000 0.000000 0.000000 0.000000 0.025920 0.000000
# 6 0.000000 0.000000 0.000000 0.000000 0.000000 0.049461
#
#
# Mechanical properties :
#
#
# Convention : Reuss Voigt Hill
#
# Bulk Modulus (GPa) = 39.01788 62.09122 50.55455
# Shear Modulus (GPa) = 12.30095 23.24071 17.77083
#
# Velocity S-wave (km/s) = 2.62959 3.61446 3.16062
# Velocity P-wave (km/s) = 5.58147 7.23343 6.46047
#
# Compressibility (1/GPa) = 0.02562928
#
# Stress axis : x y z
#
# Youngs Moduli (GPa) = 115.92550 28.65330 41.13313
#
# Poissons Ratio (x) = 0.15262 0.22096
# Poissons Ratio (y) = 0.61746 0.42803
# Poissons Ratio (z) = 0.62274 0.29816
#
# Static dielectric constant tensor:
#      x y z
#    x 1.632860 0.000000 0.000000 
#    y 0.000000 1.604980 0.000000 
#    z 0.000000 0.000000 1.597700 
# 
# From -- ./inp_files/8032.got.cif
#   From: 2010.05.17/outbox.cif.g08.bks.cpg/sg66_5_cif.got.tgz:8032.got - 2010.06.03 17:51:23.
