data_PCOD9495472
_publ_section_title
;
Structure prediction by ZEFSAII (Michael W. Deem and Ramdas Pophale) SiO2 
 PCOD9495472
Probable space group: C C C M
;
_chemical_formula_sum "Si O2"
_cell_formula_units_Z 116
_cell_length_a 15.068516
_cell_length_b 22.257244
_cell_length_c 19.134136
_cell_angle_alpha 90.000000
_cell_angle_beta 90.000000
_cell_angle_gamma 90.000000
_cell_volume 6417.276129
_symmetry_space_group_name_H-M "C C C M"
_symmetry_group_IT_number 66
_symmetry_cell_setting 'orthorhombic'
loop_
_space_group_symop_operation_xyz
x,y,z
-x,-y,z
x,-y,1/2-z
-x,y,1/2-z
-x,-y,-z
x,y,-z
-x,y,1/2+z
x,-y,1/2+z
1/2+x,1/2+y,z
1/2-x,1/2-y,z
1/2+x,1/2-y,1/2-z
1/2-x,1/2+y,1/2-z
1/2-x,1/2-y,-z
1/2+x,1/2+y,-z
1/2-x,1/2+y,1/2+z
1/2+x,1/2-y,1/2+z
loop_
_atom_site_type_symbol
_atom_site_label
_atom_site_fract_x
_atom_site_fract_y
_atom_site_fract_z
Si Si1 0.192412 0.311018 0.419745
Si Si2 0.000000 0.000000 0.250000
Si Si3 0.597682 0.166976 0.776585
Si Si4 0.837082 0.089660 0.884742
Si Si5 0.872374 0.959405 0.872515
Si Si6 0.980025 0.151662 0.421247
Si Si7 0.268989 0.601460 0.733526
Si Si8 0.910330 0.795105 0.209544
O O1 0.160030 0.306024 0.500000
O O2 0.250000 0.250000 0.404824
O O3 0.119109 0.320579 0.358841
O O4 0.258715 0.368721 0.414857
O O5 0.939048 0.035637 0.305219
O O6 0.500000 0.149447 0.750000
O O7 0.669539 0.119631 0.750236
O O8 0.613889 0.230451 0.738428
O O9 0.810612 0.075734 0.804787
O O10 0.925384 0.129170 0.892361
O O11 0.860832 0.022764 0.911336
O O12 0.915064 0.906187 0.917184
O O13 0.782213 0.938561 0.834877
O O14 0.991718 0.171991 0.500000
O O15 0.938736 0.201530 0.370953
O O16 0.329039 0.660491 0.721300
O O17 0.000000 0.815291 0.250000
#
# Coordination Sequence:
#
# PCOD9495472 Si02
#       8
#    16   4  16  16  16  16  16  16
#     4  10  22  37  56  84 116 144 179 236 297 348
#     4  12  16  32  50  84 110 160 182 224 264 342
#     4  10  21  36  57  80 107 146 196 242 289 322
#     4  11  18  32  52  80 115 150 177 217 279 337
#     4  11  20  30  53  78 118 149 194 221 273 334
#     4  11  22  32  48  81 122 152 178 215 267 345
#     4  10  18  32  54  79 109 144 192 236 272 324
#     4  10  19  33  54  78 106 149 187 224 276 334
#
# _framework density 18.076205999999999
#
# number of rings (size 3 to 8) (size 9 to 14) (size 15 to 20)
#    0.000    1.517    4.138    2.483    3.862    1.655 
#    0.000    0.000    0.000   16.552    0.000    0.966 
#    0.000    0.000    0.000    0.000    0.000    0.000 
#
# Total GULP energy -323388.927339 kJ/mol
# GULP energy per Si atom -5575.671161 kJ/mol
# Density = 1.803506 g / cm^3
# Si number density = 18.076206 Si / 1000 Ang^3
#
#
#
# Elastic Constant Matrix: (Units=GPa)
#
#
# Indices 1 2 3 4 5 6 
#
# 1 62.0788 13.1493 36.6436 0.0000 0.0000 0.0000
# 2 13.1493 34.0006 24.0875 0.0000 0.0000 0.0000
# 3 36.6436 24.0875 80.2498 0.0000 0.0000 0.0000
# 4 0.0000 0.0000 0.0000 4.2101 0.0000 0.0000
# 5 0.0000 0.0000 0.0000 0.0000 13.4281 0.0000
# 6 0.0000 0.0000 0.0000 0.0000 0.0000 16.8225
#
#
#
# Elastic Compliance Matrix: (Units=1/GPa)
#
#
# Indices 1 2 3 4 5 6 
#
# 1 0.022137 -0.001778 -0.009574 0.000000 0.000000 0.000000
# 2 -0.001778 0.037497 -0.010443 0.000000 0.000000 0.000000
# 3 -0.009574 -0.010443 0.019967 0.000000 0.000000 0.000000
# 4 0.000000 0.000000 0.000000 0.237525 0.000000 0.000000
# 5 0.000000 0.000000 0.000000 0.000000 0.074471 0.000000
# 6 0.000000 0.000000 0.000000 0.000000 0.000000 0.059444
#
#
# Mechanical properties :
#
#
# Convention : Reuss Voigt Hill
#
# Bulk Modulus (GPa) = 27.76989 36.01000 31.88994
# Shear Modulus (GPa) = 9.86901 13.72204 11.79552
#
# Velocity S-wave (km/s) = 2.33913 2.75821 2.55727
# Velocity P-wave (km/s) = 4.76355 5.48708 5.13807
#
# Compressibility (1/GPa) = 0.03601023
#
# Stress axis : x y z
#
# Youngs Moduli (GPa) = 45.17382 26.66857 50.08146
#
# Poissons Ratio (x) = 0.04742 0.47950
# Poissons Ratio (y) = 0.08033 0.52300
# Poissons Ratio (z) = 0.43251 0.27850
#
# Static dielectric constant tensor:
#      x y z
#    x 1.637880 0.000000 0.000000 
#    y 0.000000 1.661430 0.000000 
#    z 0.000000 0.000000 1.643820 
# 
# From -- ./inp_files/40794.got.cif
#   From: 2010.05.17/outbox.cif.g08.bks.cpg/sg66_21_cif.got.tgz:40794.got - 2010.06.03 17:51:23.
