data_PCOD9495089
_publ_section_title
;
Structure prediction by ZEFSAII (Michael W. Deem and Ramdas Pophale) SiO2 
 PCOD9495089
Probable space group: C C C M
;
_chemical_formula_sum "Si O2"
_cell_formula_units_Z 112
_cell_length_a 20.743392
_cell_length_b 18.539400
_cell_length_c 17.437883
_cell_angle_alpha 90.000000
_cell_angle_beta 90.000000
_cell_angle_gamma 90.000000
_cell_volume 6706.087392
_symmetry_space_group_name_H-M "C C C M"
_symmetry_group_IT_number 66
_symmetry_cell_setting 'orthorhombic'
loop_
_space_group_symop_operation_xyz
x,y,z
-x,-y,z
x,-y,1/2-z
-x,y,1/2-z
-x,-y,-z
x,y,-z
-x,y,1/2+z
x,-y,1/2+z
1/2+x,1/2+y,z
1/2-x,1/2-y,z
1/2+x,1/2-y,1/2-z
1/2-x,1/2+y,1/2-z
1/2-x,1/2-y,-z
1/2+x,1/2+y,-z
1/2-x,1/2+y,1/2+z
1/2+x,1/2-y,1/2+z
loop_
_atom_site_type_symbol
_atom_site_label
_atom_site_fract_x
_atom_site_fract_y
_atom_site_fract_z
Si Si1 0.075493 0.421691 0.726798
Si Si2 0.021807 0.917620 0.410328
Si Si3 0.133678 0.841549 0.324468
Si Si4 0.056262 0.805292 0.814684
Si Si5 0.745063 0.162896 0.583724
Si Si6 0.040847 0.338400 0.589266
Si Si7 0.393730 0.176312 0.136445
O O1 0.101749 0.500000 0.750000
O O2 0.074013 0.402821 0.637156
O O3 0.105458 0.358530 0.778725
O O4 0.000000 0.421350 0.750000
O O5 0.030591 0.899294 0.500000
O O6 0.086195 0.899410 0.362859
O O7 0.968419 0.867317 0.370931
O O8 0.000000 0.000000 0.404200
O O9 0.117286 0.830824 0.235102
O O10 0.206215 0.859389 0.349221
O O11 0.114534 0.762896 0.359938
O O12 0.061836 0.733591 0.865003
O O13 0.000000 0.792753 0.750000
O O14 0.767192 0.136623 0.500000
O O15 0.750000 0.250000 0.582701
O O16 0.670069 0.145986 0.596014
O O17 0.056706 0.336857 0.500000
O O18 0.962672 0.341597 0.598825
#
# Coordination Sequence:
#
# PCOD9495089 Si02
#       7
#    16  16  16  16  16  16  16
#     4   9  18  33  50  70 102 134 157 199 249 300
#     4  10  20  31  47  73 102 132 163 209 260 296
#     4  10  18  30  49  71 102 133 168 198 255 302
#     4  10  17  29  47  69  96 132 166 195 245 295
#     4   9  18  29  46  75 102 129 164 213 256 292
#     4  11  18  28  50  78 101 128 163 202 246 300
#     4  10  17  31  50  73 101 134 165 202 252 308
#
# _framework density 16.701243000000002
#
# number of rings (size 3 to 8) (size 9 to 14) (size 15 to 20)
#    0.000    2.143    4.286    1.714    0.000    3.714 
#    0.000    6.429    3.143    0.000    0.000    3.000 
#    0.000    0.000    0.000    0.000    0.000    0.000 
#
# Total GULP energy -311853.844677 kJ/mol
# GULP energy per Si atom -5568.818655 kJ/mol
# Density = 1.666323 g / cm^3
# Si number density = 16.701243 Si / 1000 Ang^3
#
#
#
# Elastic Constant Matrix: (Units=GPa)
#
#
# Indices 1 2 3 4 5 6 
#
# 1 57.5849 9.7570 27.7928 0.0000 0.0000 0.0000
# 2 9.7570 57.5194 36.5683 0.0000 0.0000 0.0000
# 3 27.7928 36.5683 126.1598 0.0000 0.0000 0.0000
# 4 0.0000 0.0000 0.0000 20.1023 0.0000 0.0000
# 5 0.0000 0.0000 0.0000 0.0000 20.6243 0.0000
# 6 0.0000 0.0000 0.0000 0.0000 0.0000 3.9347
#
#
#
# Elastic Compliance Matrix: (Units=1/GPa)
#
#
# Indices 1 2 3 4 5 6 
#
# 1 0.019455 -0.000705 -0.004081 0.000000 0.000000 0.000000
# 2 -0.000705 0.021339 -0.006030 0.000000 0.000000 0.000000
# 3 -0.004081 -0.006030 0.010573 0.000000 0.000000 0.000000
# 4 0.000000 0.000000 0.000000 0.049745 0.000000 0.000000
# 5 0.000000 0.000000 0.000000 0.000000 0.048486 0.000000
# 6 0.000000 0.000000 0.000000 0.000000 0.000000 0.254149
#
#
# Mechanical properties :
#
#
# Convention : Reuss Voigt Hill
#
# Bulk Modulus (GPa) = 33.63172 43.27780 38.45476
# Shear Modulus (GPa) = 11.48655 20.07534 15.78095
#
# Velocity S-wave (km/s) = 2.62537 3.47079 3.07725
# Velocity P-wave (km/s) = 5.41951 6.48313 5.97504
#
# Compressibility (1/GPa) = 0.02973384
#
# Stress axis : x y z
#
# Youngs Moduli (GPa) = 51.40057 46.86354 94.57734
#
# Poissons Ratio (x) = 0.03306 0.38601
# Poissons Ratio (y) = 0.03626 0.57028
# Poissons Ratio (z) = 0.20979 0.28257
#
# Static dielectric constant tensor:
#      x y z
#    x 1.577420 0.000000 0.000000 
#    y 0.000000 1.583530 0.000000 
#    z 0.000000 0.000000 1.588470 
# 
# From -- ./inp_files/41999.got.cif
#   From: 2010.05.17/outbox.cif.g08.bks.cpg/sg66_21_cif.got.tgz:41999.got - 2010.06.03 17:51:23.
