data_PCOD9495388
_publ_section_title
;
Structure prediction by ZEFSAII (Michael W. Deem and Ramdas Pophale) SiO2 
 PCOD9495388
Probable space group: C C C M
;
_chemical_formula_sum "Si O2"
_cell_formula_units_Z 80
_cell_length_a 18.790338
_cell_length_b 11.356282
_cell_length_c 16.182501
_cell_angle_alpha 90.000000
_cell_angle_beta 90.000000
_cell_angle_gamma 90.000000
_cell_volume 3453.157627
_symmetry_space_group_name_H-M "C C C M"
_symmetry_group_IT_number 66
_symmetry_cell_setting 'orthorhombic'
loop_
_space_group_symop_operation_xyz
x,y,z
-x,-y,z
x,-y,1/2-z
-x,y,1/2-z
-x,-y,-z
x,y,-z
-x,y,1/2+z
x,-y,1/2+z
1/2+x,1/2+y,z
1/2-x,1/2-y,z
1/2+x,1/2-y,1/2-z
1/2-x,1/2+y,1/2-z
1/2-x,1/2-y,-z
1/2+x,1/2+y,-z
1/2-x,1/2+y,1/2+z
1/2+x,1/2-y,1/2+z
loop_
_atom_site_type_symbol
_atom_site_label
_atom_site_fract_x
_atom_site_fract_y
_atom_site_fract_z
Si Si1 0.046075 0.787836 0.831342
Si Si2 0.319625 0.830477 0.747656
Si Si3 0.261267 0.107426 0.409408
Si Si4 0.909505 0.284798 0.403683
Si Si5 0.892079 0.985089 0.093183
O O1 0.121234 0.735798 0.804438
O O2 0.060756 0.918601 0.861952
O O3 0.000000 0.791217 0.750000
O O4 0.995515 0.711755 0.892326
O O5 0.250000 0.750000 0.726862
O O6 0.293230 0.919966 0.819153
O O7 0.363553 0.856883 0.663348
O O8 0.295929 0.080888 0.500000
O O9 0.250000 0.250000 0.410098
O O10 0.186778 0.038859 0.408744
O O11 0.890995 0.304398 0.500000
O O12 0.891353 0.149101 0.378201
O O13 0.918629 0.977741 0.000000
#
# Coordination Sequence:
#
# PCOD9495388 Si02
#       5
#    16  16  16  16  16
#     4  10  19  30  46  70 104 138 175 211 247 302
#     4  10  19  34  49  70  98 142 184 212 248 300
#     4   9  16  29  49  70  91 127 175 218 256 286
#     4  10  22  33  47  74 106 142 173 206 257 313
#     4  10  18  31  49  71 102 136 174 212 250 300
#
# _framework density 23.167202
#
# number of rings (size 3 to 8) (size 9 to 14) (size 15 to 20)
#    0.000    2.200    4.000    1.200    0.000    8.400 
#    0.000    0.000    0.000    0.000    0.000    0.000 
#    0.000   28.800    0.000   72.000    0.000    0.000 
#
# Total GULP energy -222947.241759 kJ/mol
# GULP energy per Si atom -5573.681044 kJ/mol
# Density = 2.311447 g / cm^3
# Si number density = 23.167202 Si / 1000 Ang^3
#
#
#
# Elastic Constant Matrix: (Units=GPa)
#
#
# Indices 1 2 3 4 5 6 
#
# 1 123.4771 23.4341 41.7714 0.0000 0.0000 0.0000
# 2 23.4341 24.5351 -2.3303 0.0000 0.0000 0.0000
# 3 41.7714 -2.3303 149.8781 0.0000 0.0000 0.0000
# 4 0.0000 0.0000 0.0000 49.6537 0.0000 0.0000
# 5 0.0000 0.0000 0.0000 0.0000 -49.9518 0.0000
# 6 0.0000 0.0000 0.0000 0.0000 0.0000 22.6949
#
#
#
# Elastic Compliance Matrix: (Units=1/GPa)
#
#
# Indices 1 2 3 4 5 6 
#
# 1 0.011343 -0.011151 -0.003335 0.000000 0.000000 0.000000
# 2 -0.011151 0.051780 0.003913 0.000000 0.000000 0.000000
# 3 -0.003335 0.003913 0.007662 0.000000 0.000000 0.000000
# 4 0.000000 0.000000 0.000000 0.020140 0.000000 0.000000
# 5 0.000000 0.000000 0.000000 0.000000 -0.020019 0.000000
# 6 0.000000 0.000000 0.000000 0.000000 0.000000 0.044063
#
#
# Mechanical properties :
#
#
# Convention : Reuss Voigt Hill
#
# Bulk Modulus (GPa) = 20.14509 47.07118 33.60814
# Shear Modulus (GPa) = 32.75256 20.14703 26.44979
#
# Velocity S-wave (km/s) = 3.76406 2.95216 3.38256
# Velocity P-wave (km/s) = 5.25407 5.65530 5.45838
#
# Compressibility (1/GPa) = 0.04963989
#
# Stress axis : x y z
#
# Youngs Moduli (GPa) = 88.16014 19.31258 130.50893
#
# Poissons Ratio (x) = 0.21535 0.43521
# Poissons Ratio (y) = 0.98304 -0.51065
# Poissons Ratio (z) = 0.29399 -0.07557
#
# Static dielectric constant tensor:
#      x y z
#    x 1.923510 0.000000 0.000000 
#    y 0.000000 2.318260 0.000000 
#    z 0.000000 0.000000 1.922880 
# 
# From -- ./inp_files/40226.got.cif
#   From: 2010.05.17/outbox.cif.g08.bks.cpg/sg66_21_cif.got.tgz:40226.got - 2010.06.03 17:51:23.
