data_PCOD9495447
_publ_section_title
;
Structure prediction by ZEFSAII (Michael W. Deem and Ramdas Pophale) SiO2 
 PCOD9495447
Probable space group: C C C M
;
_chemical_formula_sum "Si O2"
_cell_formula_units_Z 96
_cell_length_a 26.157746
_cell_length_b 29.598038
_cell_length_c 8.944035
_cell_angle_alpha 90.000000
_cell_angle_beta 90.000000
_cell_angle_gamma 90.000000
_cell_volume 6924.632533
_symmetry_space_group_name_H-M "C C C M"
_symmetry_group_IT_number 66
_symmetry_cell_setting 'orthorhombic'
loop_
_space_group_symop_operation_xyz
x,y,z
-x,-y,z
x,-y,1/2-z
-x,y,1/2-z
-x,-y,-z
x,y,-z
-x,y,1/2+z
x,-y,1/2+z
1/2+x,1/2+y,z
1/2-x,1/2-y,z
1/2+x,1/2-y,1/2-z
1/2-x,1/2+y,1/2-z
1/2-x,1/2-y,-z
1/2+x,1/2+y,-z
1/2-x,1/2+y,1/2+z
1/2+x,1/2-y,1/2+z
loop_
_atom_site_type_symbol
_atom_site_label
_atom_site_fract_x
_atom_site_fract_y
_atom_site_fract_z
Si Si1 0.748597 0.856810 0.177587
Si Si2 0.195504 0.276420 0.672055
Si Si3 0.143611 0.804612 0.676011
Si Si4 0.946668 0.139434 0.178505
Si Si5 0.215465 0.952819 0.678825
Si Si6 0.406123 0.452087 0.820731
O O1 0.804646 0.834122 0.196614
O O2 0.708045 0.825426 0.261266
O O3 0.754247 0.908394 0.230094
O O4 0.737963 0.856122 0.000000
O O5 0.179168 0.278752 0.500000
O O6 0.250000 0.250000 0.676514
O O7 0.157392 0.245529 0.767802
O O8 0.131386 0.805266 0.500000
O O9 0.098679 0.827649 0.768890
O O10 0.934178 0.089948 0.245581
O O11 0.000000 0.154693 0.250000
O O12 0.949710 0.137314 0.000000
O O13 0.220166 0.955488 0.500000
O O14 0.154818 0.946685 0.710049
O O15 0.231858 0.000000 0.750000
O O16 0.421924 0.500000 0.750000
O O17 0.413425 0.451949 0.000000
#
# Coordination Sequence:
#
# PCOD9495447 Si02
#       6
#    16  16  16  16  16  16
#     4   9  16  28  44  62  84 111 137 167 207 252
#     4   9  17  27  41  65  87 105 133 167 204 248
#     4  10  18  32  48  62  83 108 134 170 213 257
#     4  12  24  36  49  64  81 106 138 177 220 264
#     4   9  17  28  42  61  84 110 140 171 209 253
#     4  10  19  34  49  64  81 104 137 177 221 264
#
# _framework density 13.863552
#
# number of rings (size 3 to 8) (size 9 to 14) (size 15 to 20)
#    0.000    2.167    1.667    3.000    0.000    4.333 
#    0.000    1.667    0.000    0.000    0.000    0.000 
#    0.000    0.000    0.000    0.000    0.000    0.833 
#
# Total GULP energy -267731.209938 kJ/mol
# GULP energy per Si atom -5577.733540 kJ/mol
# Density = 1.383200 g / cm^3
# Si number density = 13.863552 Si / 1000 Ang^3
#
#
#
# Elastic Constant Matrix: (Units=GPa)
#
#
# Indices 1 2 3 4 5 6 
#
# 1 28.9733 24.7272 26.0173 0.0000 0.0000 0.0000
# 2 24.7272 81.8607 37.3479 0.0000 0.0000 0.0000
# 3 26.0173 37.3479 71.4556 0.0000 0.0000 0.0000
# 4 0.0000 0.0000 0.0000 26.7042 0.0000 0.0000
# 5 0.0000 0.0000 0.0000 0.0000 14.9435 0.0000
# 6 0.0000 0.0000 0.0000 0.0000 0.0000 7.6602
#
#
#
# Elastic Compliance Matrix: (Units=1/GPa)
#
#
# Indices 1 2 3 4 5 6 
#
# 1 0.057098 -0.010193 -0.015462 0.000000 0.000000 0.000000
# 2 -0.010193 0.017861 -0.005624 0.000000 0.000000 0.000000
# 3 -0.015462 -0.005624 0.022564 0.000000 0.000000 0.000000
# 4 0.000000 0.000000 0.000000 0.037447 0.000000 0.000000
# 5 0.000000 0.000000 0.000000 0.000000 0.066919 0.000000
# 6 0.000000 0.000000 0.000000 0.000000 0.000000 0.130545
#
#
# Mechanical properties :
#
#
# Convention : Reuss Voigt Hill
#
# Bulk Modulus (GPa) = 28.60016 39.83049 34.21532
# Shear Modulus (GPa) = 12.29567 16.14138 14.21853
#
# Velocity S-wave (km/s) = 2.98133 3.41589 3.20598
# Velocity P-wave (km/s) = 5.70312 6.65962 6.19984
#
# Compressibility (1/GPa) = 0.03496484
#
# Stress axis : x y z
#
# Youngs Moduli (GPa) = 17.51361 55.98895 44.31825
#
# Poissons Ratio (x) = 0.57069 0.68526
# Poissons Ratio (y) = 0.17852 0.24924
# Poissons Ratio (z) = 0.27080 0.31488
#
# Static dielectric constant tensor:
#      x y z
#    x 1.435180 0.000000 0.000000 
#    y 0.000000 1.459490 0.000000 
#    z 0.000000 0.000000 1.460680 
# 
# From -- ./inp_files/10463.got.cif
#   From: 2010.05.17/outbox.cif.g08.bks.cpg/sg66_6_cif.got.tgz:10463.got - 2010.06.03 17:51:23.
