data_PCOD9495613
_publ_section_title
;
Structure prediction by ZEFSAII (Michael W. Deem and Ramdas Pophale) SiO2 
 PCOD9495613
Probable space group: C C C M
;
_chemical_formula_sum "Si O2"
_cell_formula_units_Z 112
_cell_length_a 26.211983
_cell_length_b 12.486746
_cell_length_c 14.581101
_cell_angle_alpha 90.000000
_cell_angle_beta 90.000000
_cell_angle_gamma 90.000000
_cell_volume 4772.428971
_symmetry_space_group_name_H-M "C C C M"
_symmetry_group_IT_number 66
_symmetry_cell_setting 'orthorhombic'
loop_
_space_group_symop_operation_xyz
x,y,z
-x,-y,z
x,-y,1/2-z
-x,y,1/2-z
-x,-y,-z
x,y,-z
-x,y,1/2+z
x,-y,1/2+z
1/2+x,1/2+y,z
1/2-x,1/2-y,z
1/2+x,1/2-y,1/2-z
1/2-x,1/2+y,1/2-z
1/2-x,1/2-y,-z
1/2+x,1/2+y,-z
1/2-x,1/2+y,1/2+z
1/2+x,1/2-y,1/2+z
loop_
_atom_site_type_symbol
_atom_site_label
_atom_site_fract_x
_atom_site_fract_y
_atom_site_fract_z
Si Si1 0.225632 0.632003 0.102023
Si Si2 0.130347 0.657490 0.216385
Si Si3 0.036825 0.597977 0.894489
Si Si4 0.093963 0.134308 0.606529
Si Si5 0.317368 0.478648 0.142271
Si Si6 0.874524 0.774134 0.892659
Si Si7 0.514449 0.667829 0.106639
O O1 0.250000 0.750000 0.118306
O O2 0.182779 0.613164 0.177160
O O3 0.268776 0.541101 0.103612
O O4 0.202356 0.636268 0.000000
O O5 0.082409 0.594999 0.176951
O O6 0.120596 0.774195 0.167588
O O7 0.131716 0.675040 0.324554
O O8 0.000000 0.500000 0.879365
O O9 0.005190 0.708783 0.885246
O O10 0.055540 0.592645 0.000000
O O11 0.089056 0.171226 0.500000
O O12 0.036609 0.108250 0.641510
O O13 0.131759 0.035762 0.605942
O O14 0.315726 0.500000 0.250000
O O15 0.327052 0.354667 0.120525
O O16 0.927652 0.830717 0.859141
O O17 0.880266 0.747159 0.000000
O O18 0.519271 0.636064 0.000000
#
# Coordination Sequence:
#
# PCOD9495613 Si02
#       7
#    16  16  16  16  16  16  16
#     4  11  21  37  66  98 128 167 221 290 354 402
#     4  11  21  38  64  98 131 172 221 279 340 417
#     4   9  18  36  65 101 137 168 213 281 351 413
#     4  10  18  34  60  93 130 170 215 271 334 395
#     4  12  23  40  60  94 135 176 222 278 334 404
#     4  11  23  41  62  91 135 186 225 266 332 411
#     4   8  18  35  58  89 132 179 219 259 323 406
#
# _framework density 23.468133999999999
#
# number of rings (size 3 to 8) (size 9 to 14) (size 15 to 20)
#    0.000    1.714    2.857    3.429    0.000    2.857 
#    0.000    5.714    0.000    8.571    0.000    0.000 
#    0.000    0.000    0.000    0.000    0.000    0.000 
#
# Total GULP energy -313183.568657 kJ/mol
# GULP energy per Si atom -5592.563726 kJ/mol
# Density = 2.341472 g / cm^3
# Si number density = 23.468134 Si / 1000 Ang^3
#
#
#
# Elastic Constant Matrix: (Units=GPa)
#
#
# Indices 1 2 3 4 5 6 
#
# 1 114.1303 36.2299 48.1956 0.0000 0.0000 0.0000
# 2 36.2299 51.2337 30.2113 0.0000 0.0000 0.0000
# 3 48.1956 30.2113 140.8340 0.0000 0.0000 0.0000
# 4 0.0000 0.0000 0.0000 23.0720 0.0000 0.0000
# 5 0.0000 0.0000 0.0000 0.0000 33.3084 0.0000
# 6 0.0000 0.0000 0.0000 0.0000 0.0000 30.8779
#
#
#
# Elastic Compliance Matrix: (Units=1/GPa)
#
#
# Indices 1 2 3 4 5 6 
#
# 1 0.012098 -0.006999 -0.002639 0.000000 0.000000 0.000000
# 2 -0.006999 0.026394 -0.003267 0.000000 0.000000 0.000000
# 3 -0.002639 -0.003267 0.008704 0.000000 0.000000 0.000000
# 4 0.000000 0.000000 0.000000 0.043343 0.000000 0.000000
# 5 0.000000 0.000000 0.000000 0.000000 0.030022 0.000000
# 6 0.000000 0.000000 0.000000 0.000000 0.000000 0.032386
#
#
# Mechanical properties :
#
#
# Convention : Reuss Voigt Hill
#
# Bulk Modulus (GPa) = 46.75671 59.49685 53.12678
# Shear Modulus (GPa) = 26.89828 30.22241 28.56035
#
# Velocity S-wave (km/s) = 3.38917 3.59250 3.49231
# Velocity P-wave (km/s) = 5.93987 6.52804 6.24089
#
# Compressibility (1/GPa) = 0.02138731
#
# Stress axis : x y z
#
# Youngs Moduli (GPa) = 82.65811 37.88713 114.88511
#
# Poissons Ratio (x) = 0.26518 0.30315
# Poissons Ratio (y) = 0.57854 0.37531
# Poissons Ratio (z) = 0.21811 0.12377
#
# Static dielectric constant tensor:
#      x y z
#    x 1.874520 0.000000 0.000000 
#    y 0.000000 1.950260 0.000000 
#    z 0.000000 0.000000 1.926140 
# 
# From -- ./inp_files/32450.got.cif
#   From: 2010.05.17/outbox.cif.g08.bks.cpg/sg66_17_cif.got.tgz:32450.got - 2010.06.03 17:51:23.
