data_PCOD9495189
_publ_section_title
;
Structure prediction by ZEFSAII (Michael W. Deem and Ramdas Pophale) SiO2 
 PCOD9495189
Probable space group: C C C M
;
_chemical_formula_sum "Si O2"
_cell_formula_units_Z 120
_cell_length_a 21.657048
_cell_length_b 20.246421
_cell_length_c 13.611307
_cell_angle_alpha 90.000000
_cell_angle_beta 90.000000
_cell_angle_gamma 90.000000
_cell_volume 5968.254743
_symmetry_space_group_name_H-M "C C C M"
_symmetry_group_IT_number 66
_symmetry_cell_setting 'orthorhombic'
loop_
_space_group_symop_operation_xyz
x,y,z
-x,-y,z
x,-y,1/2-z
-x,y,1/2-z
-x,-y,-z
x,y,-z
-x,y,1/2+z
x,-y,1/2+z
1/2+x,1/2+y,z
1/2-x,1/2-y,z
1/2+x,1/2-y,1/2-z
1/2-x,1/2+y,1/2-z
1/2-x,1/2-y,-z
1/2+x,1/2+y,-z
1/2-x,1/2+y,1/2+z
1/2+x,1/2-y,1/2+z
loop_
_atom_site_type_symbol
_atom_site_label
_atom_site_fract_x
_atom_site_fract_y
_atom_site_fract_z
Si Si1 0.316935 0.773002 0.284778
Si Si2 0.500000 0.835371 0.250000
Si Si3 0.058187 0.540332 0.349990
Si Si4 0.827063 0.179468 0.885362
Si Si5 0.037075 0.220438 0.613993
Si Si6 0.812616 0.927227 0.778920
Si Si7 0.904276 0.831447 0.116324
Si Si8 0.312650 0.093154 0.888810
O O1 0.250000 0.750000 0.324664
O O2 0.315988 0.748925 0.171626
O O3 0.368711 0.731641 0.340611
O O4 0.326381 0.848187 0.312121
O O5 0.464663 0.885790 0.322600
O O6 0.539364 0.785357 0.317689
O O7 0.067935 0.500000 0.250000
O O8 0.126651 0.547204 0.393353
O O9 0.000000 0.500000 0.396185
O O10 0.901704 0.176427 0.880197
O O11 0.800638 0.121592 0.815029
O O12 0.808460 0.177912 0.000000
O O13 0.030818 0.241759 0.500000
O O14 0.976082 0.178870 0.639938
O O15 0.867774 0.892132 0.837275
O O16 0.751331 0.934801 0.846013
O O17 0.831667 0.000000 0.750000
O O18 0.898003 0.833623 0.000000
O O19 0.302303 0.118443 0.000000
#
# Coordination Sequence:
#
# PCOD9495189 Si02
#       8
#    16   8  16  16  16  16  16  16
#     4  11  21  36  58  94 123 153 193 251 302 369
#     4  10  17  34  60  82 121 156 188 246 302 346
#     4   9  21  39  58  83 119 165 207 250 292 354
#     4  10  22  41  61  85 123 161 194 243 298 361
#     4  10  20  35  60  91 116 149 196 239 301 370
#     4  11  24  40  58  83 116 155 203 244 290 360
#     4  10  20  36  59  88 120 149 185 241 300 357
#     4  12  23  38  62  88 119 156 198 253 309 354
#
# _framework density 20.106380000000001
#
# number of rings (size 3 to 8) (size 9 to 14) (size 15 to 20)
#    0.000    1.733    2.667    4.400    0.000    3.733 
#    0.000    3.333    0.000    6.800    0.000    0.000 
#    0.000    0.000    0.000    0.000    0.000    0.000 
#
# Total GULP energy -334498.484710 kJ/mol
# GULP energy per Si atom -5574.974745 kJ/mol
# Density = 2.006062 g / cm^3
# Si number density = 20.106380 Si / 1000 Ang^3
#
#
#
# Elastic Constant Matrix: (Units=GPa)
#
#
# Indices 1 2 3 4 5 6 
#
# 1 122.2484 23.2607 28.2471 0.0000 0.0000 0.0000
# 2 23.2607 66.7628 31.9349 0.0000 0.0000 0.0000
# 3 28.2471 31.9349 135.6136 0.0000 0.0000 0.0000
# 4 0.0000 0.0000 0.0000 -3.9100 0.0000 0.0000
# 5 0.0000 0.0000 0.0000 0.0000 13.4048 0.0000
# 6 0.0000 0.0000 0.0000 0.0000 0.0000 18.6737
#
#
#
# Elastic Compliance Matrix: (Units=1/GPa)
#
#
# Indices 1 2 3 4 5 6 
#
# 1 0.008952 -0.002510 -0.001274 0.000000 0.000000 0.000000
# 2 -0.002510 0.017583 -0.003618 0.000000 0.000000 0.000000
# 3 -0.001274 -0.003618 0.008491 0.000000 0.000000 0.000000
# 4 0.000000 0.000000 0.000000 -0.255756 0.000000 0.000000
# 5 0.000000 0.000000 0.000000 0.000000 0.074600 0.000000
# 6 0.000000 0.000000 0.000000 0.000000 0.000000 0.053551
#
#
# Mechanical properties :
#
#
# Convention : Reuss Voigt Hill
#
# Bulk Modulus (GPa) = 49.44613 54.61224 52.02918
# Shear Modulus (GPa) = -70.38870 21.71251 -24.33809
#
# Velocity S-wave (km/s) = -5.92319 3.28972 -3.48295
# Velocity P-wave (km/s) = 4.70459 6.45370 3.12387
#
# Compressibility (1/GPa) = 0.02022403
#
# Stress axis : x y z
#
# Youngs Moduli (GPa) = 111.70846 56.87198 117.77001
#
# Poissons Ratio (x) = 0.14273 0.14999
# Poissons Ratio (y) = 0.28035 0.42608
# Poissons Ratio (z) = 0.14227 0.20576
#
# Static dielectric constant tensor:
#      x y z
#    x 1.788220 0.000000 0.000000 
#    y 0.000000 1.698610 0.000000 
#    z 0.000000 0.000000 1.747490 
# 
# From -- ./inp_files/31581.got.cif
#   From: 2010.05.17/outbox.cif.g08.bks.cpg/sg66_16_cif.got.tgz:31581.got - 2010.06.03 17:51:23.
