data_PCOD9495344
_publ_section_title
;
Structure prediction by ZEFSAII (Michael W. Deem and Ramdas Pophale) SiO2 
 PCOD9495344
Probable space group: C C C M
;
_chemical_formula_sum "Si O2"
_cell_formula_units_Z 96
_cell_length_a 12.193537
_cell_length_b 20.570568
_cell_length_c 16.384094
_cell_angle_alpha 90.000000
_cell_angle_beta 90.000000
_cell_angle_gamma 90.000000
_cell_volume 4109.589235
_symmetry_space_group_name_H-M "C C C M"
_symmetry_group_IT_number 66
_symmetry_cell_setting 'orthorhombic'
loop_
_space_group_symop_operation_xyz
x,y,z
-x,-y,z
x,-y,1/2-z
-x,y,1/2-z
-x,-y,-z
x,y,-z
-x,y,1/2+z
x,-y,1/2+z
1/2+x,1/2+y,z
1/2-x,1/2-y,z
1/2+x,1/2-y,1/2-z
1/2-x,1/2+y,1/2-z
1/2-x,1/2-y,-z
1/2+x,1/2+y,-z
1/2-x,1/2+y,1/2+z
1/2+x,1/2-y,1/2+z
loop_
_atom_site_type_symbol
_atom_site_label
_atom_site_fract_x
_atom_site_fract_y
_atom_site_fract_z
Si Si1 0.615536 0.794555 0.747398
Si Si2 0.342592 0.399264 0.906769
Si Si3 0.892175 0.662521 0.087754
Si Si4 0.352348 0.347045 0.725662
Si Si5 0.075125 0.555423 0.095890
Si Si6 0.328402 0.550823 0.904418
O O1 0.500000 0.830991 0.750000
O O2 0.632405 0.784950 0.843799
O O3 0.602854 0.725022 0.705859
O O4 0.721096 0.832995 0.719128
O O5 0.209894 0.387613 0.908600
O O6 0.375967 0.367219 0.819637
O O7 0.365261 0.476178 0.899833
O O8 0.379652 0.379070 0.000000
O O9 0.004984 0.621880 0.096692
O O10 0.893193 0.694425 0.000000
O O11 0.384902 0.400620 0.659372
O O12 0.200346 0.553296 0.122775
O O13 0.000000 0.500000 0.135793
O O14 0.087036 0.538903 0.000000
O O15 0.337727 0.571291 0.000000
#
# Coordination Sequence:
#
# PCOD9495344 Si02
#       6
#    16  16  16  16  16  16
#     4  10  21  37  51  69 102 139 179 222 251 292
#     4   9  17  30  51  76 103 130 161 209 268 316
#     4   9  16  28  48  74 101 133 167 205 259 316
#     4  10  21  35  53  76 103 137 176 216 256 306
#     4   9  14  23  43  74 110 137 159 196 254 327
#     4  10  18  30  50  76 107 139 165 204 262 320
#
# _framework density 23.359999999999999
#
# number of rings (size 3 to 8) (size 9 to 14) (size 15 to 20)
#    0.000    2.500    1.667    1.500    0.000    0.667 
#    0.000    5.833    0.000    2.000    0.000    2.333 
#    0.000    0.000    0.000    0.000    0.000    0.000 
#
# Total GULP energy -267412.401211 kJ/mol
# GULP energy per Si atom -5571.091692 kJ/mol
# Density = 2.330683 g / cm^3
# Si number density = 23.360000 Si / 1000 Ang^3
#
#
#
# Elastic Constant Matrix: (Units=GPa)
#
#
# Indices 1 2 3 4 5 6 
#
# 1 91.0668 -7.8928 -21.2951 0.0000 0.0000 0.0000
# 2 -7.8928 75.6392 46.7858 0.0000 0.0000 0.0000
# 3 -21.2951 46.7858 90.3556 0.0000 0.0000 0.0000
# 4 0.0000 0.0000 0.0000 12.2086 0.0000 0.0000
# 5 0.0000 0.0000 0.0000 0.0000 -8.1174 0.0000
# 6 0.0000 0.0000 0.0000 0.0000 0.0000 0.9299
#
#
#
# Elastic Compliance Matrix: (Units=1/GPa)
#
#
# Indices 1 2 3 4 5 6 
#
# 1 0.011647 -0.000710 0.003113 0.000000 0.000000 0.000000
# 2 -0.000710 0.019493 -0.010261 0.000000 0.000000 0.000000
# 3 0.003113 -0.010261 0.017114 0.000000 0.000000 0.000000
# 4 0.000000 0.000000 0.000000 0.081910 0.000000 0.000000
# 5 0.000000 0.000000 0.000000 0.000000 -0.123193 0.000000
# 6 0.000000 0.000000 0.000000 0.000000 0.000000 1.075424
#
#
# Mechanical properties :
#
#
# Convention : Reuss Voigt Hill
#
# Bulk Modulus (GPa) = 30.73300 32.47303 31.60301
# Shear Modulus (GPa) = 4.50874 16.96846 10.73860
#
# Velocity S-wave (km/s) = 1.39079 2.69809 2.14639
# Velocity P-wave (km/s) = 3.97037 4.86184 4.43855
#
# Compressibility (1/GPa) = 0.03253832
#
# Stress axis : x y z
#
# Youngs Moduli (GPa) = 85.85690 51.29960 58.43162
#
# Poissons Ratio (x) = 0.03642 -0.18188
# Poissons Ratio (y) = 0.06095 0.59956
# Poissons Ratio (z) = -0.26724 0.52638
#
# Static dielectric constant tensor:
#      x y z
#    x 1.969750 0.000000 0.000000 
#    y 0.000000 1.861970 0.000000 
#    z 0.000000 0.000000 1.928480 
# 
# From -- ./inp_files/28341.got.cif
#   From: 2010.05.17/outbox.cif.g08.bks.cpg/sg66_15_cif.got.tgz:28341.got - 2010.06.03 17:51:23.
