data_PCOD9495481
_publ_section_title
;
Structure prediction by ZEFSAII (Michael W. Deem and Ramdas Pophale) SiO2 
 PCOD9495481
Probable space group: C C C M
;
_chemical_formula_sum "Si O2"
_cell_formula_units_Z 120
_cell_length_a 19.719463
_cell_length_b 15.985210
_cell_length_c 19.531593
_cell_angle_alpha 90.000000
_cell_angle_beta 90.000000
_cell_angle_gamma 90.000000
_cell_volume 6156.744002
_symmetry_space_group_name_H-M "C C C M"
_symmetry_group_IT_number 66
_symmetry_cell_setting 'orthorhombic'
loop_
_space_group_symop_operation_xyz
x,y,z
-x,-y,z
x,-y,1/2-z
-x,y,1/2-z
-x,-y,-z
x,y,-z
-x,y,1/2+z
x,-y,1/2+z
1/2+x,1/2+y,z
1/2-x,1/2-y,z
1/2+x,1/2-y,1/2-z
1/2-x,1/2+y,1/2-z
1/2-x,1/2-y,-z
1/2+x,1/2+y,-z
1/2-x,1/2+y,1/2+z
1/2+x,1/2-y,1/2+z
loop_
_atom_site_type_symbol
_atom_site_label
_atom_site_fract_x
_atom_site_fract_y
_atom_site_fract_z
Si Si1 0.658001 0.953233 0.678008
Si Si2 0.974315 0.653431 0.670741
Si Si3 0.855989 0.946351 0.074839
Si Si4 0.187317 0.069707 0.690831
Si Si5 0.449073 0.339354 0.313714
Si Si6 0.097184 0.407030 0.083212
Si Si7 0.326675 0.263572 0.916969
Si Si8 0.000000 0.000000 0.895180
O O1 0.599767 0.885856 0.668447
O O2 0.732528 0.912255 0.685608
O O3 0.645940 0.000000 0.750000
O O4 0.644594 0.021946 0.617928
O O5 0.965025 0.750953 0.650167
O O6 0.000000 0.649003 0.750000
O O7 0.024670 0.601031 0.621510
O O8 0.849169 0.854624 0.107766
O O9 0.935098 0.964082 0.067674
O O10 0.826933 0.019111 0.121185
O O11 0.822584 0.945664 0.000000
O O12 0.131195 0.142840 0.700472
O O13 0.176751 0.000000 0.750000
O O14 0.500000 0.337407 0.250000
O O15 0.471695 0.422343 0.352671
O O16 0.129734 0.316732 0.101397
O O17 0.092524 0.416031 0.000000
O O18 0.250000 0.250000 0.894495
O O19 0.328618 0.266560 0.000000
#
# Coordination Sequence:
#
# PCOD9495481 Si02
#       8
#    16  16  16  16  16  16  16   8
#     4  11  23  41  61  85 119 161 202 259 313 364
#     4  11  23  40  63  86 119 160 203 255 317 362
#     4  10  19  33  55  83 117 157 194 239 295 354
#     4  10  22  38  58  87 123 160 207 250 305 375
#     4  10  20  36  61  90 122 162 201 251 307 369
#     4  11  23  39  64  93 118 159 212 258 309 372
#     4   9  18  33  54  85 122 150 183 240 301 355
#     4  10  18  32  54  84 119 152 193 242 289 356
#
# _framework density 19.490822000000001
#
# number of rings (size 3 to 8) (size 9 to 14) (size 15 to 20)
#    0.000    1.733    1.333    4.000    0.000    4.267 
#    0.000    2.667    0.000    0.000    0.000    5.600 
#    0.000    0.000    0.000    0.000    0.000    0.000 
#
# Total GULP energy -334408.595532 kJ/mol
# GULP energy per Si atom -5573.476592 kJ/mol
# Density = 1.944646 g / cm^3
# Si number density = 19.490822 Si / 1000 Ang^3
#
#
#
# Elastic Constant Matrix: (Units=GPa)
#
#
# Indices 1 2 3 4 5 6 
#
# 1 107.8120 26.3039 12.6918 0.0000 0.0000 0.0000
# 2 26.3039 74.9484 11.3808 0.0000 0.0000 0.0000
# 3 12.6918 11.3808 60.7786 0.0000 0.0000 0.0000
# 4 0.0000 0.0000 0.0000 17.4494 0.0000 0.0000
# 5 0.0000 0.0000 0.0000 0.0000 16.2578 0.0000
# 6 0.0000 0.0000 0.0000 0.0000 0.0000 29.7554
#
#
#
# Elastic Compliance Matrix: (Units=1/GPa)
#
#
# Indices 1 2 3 4 5 6 
#
# 1 0.010278 -0.003377 -0.001514 0.000000 0.000000 0.000000
# 2 -0.003377 0.014843 -0.002074 0.000000 0.000000 0.000000
# 3 -0.001514 -0.002074 0.017158 0.000000 0.000000 0.000000
# 4 0.000000 0.000000 0.000000 0.057309 0.000000 0.000000
# 5 0.000000 0.000000 0.000000 0.000000 0.061509 0.000000
# 6 0.000000 0.000000 0.000000 0.000000 0.000000 0.033607
#
#
# Mechanical properties :
#
#
# Convention : Reuss Voigt Hill
#
# Bulk Modulus (GPa) = 35.27601 38.25465 36.76533
# Shear Modulus (GPa) = 22.92714 25.57002 24.24858
#
# Velocity S-wave (km/s) = 3.43345 3.62595 3.53101
# Velocity P-wave (km/s) = 5.81861 6.09915 5.96053
#
# Compressibility (1/GPa) = 0.02834788
#
# Stress axis : x y z
#
# Youngs Moduli (GPa) = 97.29930 67.37321 58.28305
#
# Poissons Ratio (x) = 0.22753 0.08823
# Poissons Ratio (y) = 0.32859 0.12088
# Poissons Ratio (z) = 0.14729 0.13974
#
# Static dielectric constant tensor:
#      x y z
#    x 1.733300 0.000000 0.000000 
#    y 0.000000 1.724490 0.000000 
#    z 0.000000 0.000000 1.741290 
# 
# From -- ./inp_files/51990.got.cif
#   From: 2010.05.17/outbox.cif.g08.bks.cpg/sg66_26_cif.got.tgz:51990.got - 2010.06.03 17:51:23.
