data_PCOD9495305
_publ_section_title
;
Structure prediction by ZEFSAII (Michael W. Deem and Ramdas Pophale) SiO2 
 PCOD9495305
Probable space group: C C C M
;
_chemical_formula_sum "Si O2"
_cell_formula_units_Z 96
_cell_length_a 13.927336
_cell_length_b 24.143130
_cell_length_c 14.803251
_cell_angle_alpha 90.000000
_cell_angle_beta 90.000000
_cell_angle_gamma 90.000000
_cell_volume 4977.585504
_symmetry_space_group_name_H-M "C C C M"
_symmetry_group_IT_number 66
_symmetry_cell_setting 'orthorhombic'
loop_
_space_group_symop_operation_xyz
x,y,z
-x,-y,z
x,-y,1/2-z
-x,y,1/2-z
-x,-y,-z
x,y,-z
-x,y,1/2+z
x,-y,1/2+z
1/2+x,1/2+y,z
1/2-x,1/2-y,z
1/2+x,1/2-y,1/2-z
1/2-x,1/2+y,1/2-z
1/2-x,1/2-y,-z
1/2+x,1/2+y,-z
1/2-x,1/2+y,1/2+z
1/2+x,1/2-y,1/2+z
loop_
_atom_site_type_symbol
_atom_site_label
_atom_site_fract_x
_atom_site_fract_y
_atom_site_fract_z
Si Si1 0.060141 0.425909 0.500000
Si Si2 0.614340 0.678207 0.245533
Si Si3 0.663092 0.037283 0.500000
Si Si4 0.093026 0.367479 0.311428
Si Si5 0.615003 0.761276 0.396287
Si Si6 0.779683 0.609956 0.164660
Si Si7 0.116042 0.724372 0.397330
O O1 0.144929 0.471653 0.500000
O O2 0.069476 0.392156 0.408030
O O3 0.949257 0.444794 0.500000
O O4 0.500000 0.666515 0.250000
O O5 0.634045 0.704207 0.344566
O O6 0.677748 0.628490 0.205742
O O7 0.637187 0.728180 0.175271
O O8 0.714465 0.064250 0.413094
O O9 0.151169 0.311433 0.333632
O O10 0.156518 0.407709 0.250329
O O11 0.000000 0.355843 0.250000
O O12 0.646097 0.762066 0.500000
O O13 0.500492 0.775173 0.396658
O O14 0.834154 0.665744 0.126484
O O15 0.143352 0.739192 0.500000
#
# Coordination Sequence:
#
# PCOD9495305 Si02
#       7
#     8  16   8  16  16  16  16
#     4  11  24  42  58  88 127 157 203 257 318 379
#     4  10  22  37  51  82 120 160 210 254 296 356
#     4  11  24  40  61  91 117 153 205 262 317 386
#     4  12  20  35  59  85 121 165 197 248 310 370
#     4  10  18  33  53  77 119 164 205 241 289 358
#     4  12  22  35  58  85 121 161 206 251 310 381
#     4  10  18  29  52  81 114 153 196 247 299 359
#
# _framework density 19.286459000000001
#
# number of rings (size 3 to 8) (size 9 to 14) (size 15 to 20)
#    0.000    1.167    6.667    1.000    1.167    1.333 
#    1.500    0.833    0.000    0.000    0.000    3.500 
#    0.000    0.000    0.000    0.000    0.000    0.000 
#
# Total GULP energy -267671.870282 kJ/mol
# GULP energy per Si atom -5576.497298 kJ/mol
# Density = 1.924256 g / cm^3
# Si number density = 19.286459 Si / 1000 Ang^3
#
#
#
# Elastic Constant Matrix: (Units=GPa)
#
#
# Indices 1 2 3 4 5 6 
#
# 1 94.5173 29.5712 27.4294 0.0000 0.0000 0.0000
# 2 29.5712 47.6090 36.0616 0.0000 0.0000 0.0000
# 3 27.4294 36.0616 168.9802 0.0000 0.0000 0.0000
# 4 0.0000 0.0000 0.0000 11.0903 0.0000 0.0000
# 5 0.0000 0.0000 0.0000 0.0000 6.8107 0.0000
# 6 0.0000 0.0000 0.0000 0.0000 0.0000 23.4944
#
#
#
# Elastic Compliance Matrix: (Units=1/GPa)
#
#
# Indices 1 2 3 4 5 6 
#
# 1 0.013163 -0.007822 -0.000467 0.000000 0.000000 0.000000
# 2 -0.007822 0.029702 -0.005069 0.000000 0.000000 0.000000
# 3 -0.000467 -0.005069 0.007075 0.000000 0.000000 0.000000
# 4 0.000000 0.000000 0.000000 0.090169 0.000000 0.000000
# 5 0.000000 0.000000 0.000000 0.000000 0.146829 0.000000
# 6 0.000000 0.000000 0.000000 0.000000 0.000000 0.042563
#
#
# Mechanical properties :
#
#
# Convention : Reuss Voigt Hill
#
# Bulk Modulus (GPa) = 43.05848 55.24788 49.15318
# Shear Modulus (GPa) = 13.73781 22.81537 18.27659
#
# Velocity S-wave (km/s) = 2.67180 3.44317 3.08171
# Velocity P-wave (km/s) = 5.64732 6.67198 6.18092
#
# Compressibility (1/GPa) = 0.02322423
#
# Stress axis : x y z
#
# Youngs Moduli (GPa) = 75.97120 33.66743 141.33281
#
# Poissons Ratio (x) = 0.26334 0.06606
# Poissons Ratio (y) = 0.59423 0.71642
# Poissons Ratio (z) = 0.03551 0.17066
#
# Static dielectric constant tensor:
#      x y z
#    x 1.743440 0.000000 0.000000 
#    y 0.000000 1.680890 0.000000 
#    z 0.000000 0.000000 1.695800 
# 
# From -- ./inp_files/28431.got.cif
#   From: 2010.05.17/outbox.cif.g08.bks.cpg/sg66_15_cif.got.tgz:28431.got - 2010.06.03 17:51:23.
