data_PCOD9495091
_publ_section_title
;
Structure prediction by ZEFSAII (Michael W. Deem and Ramdas Pophale) SiO2 
 PCOD9495091
Probable space group: C C C M
;
_chemical_formula_sum "Si O2"
_cell_formula_units_Z 128
_cell_length_a 19.828921
_cell_length_b 21.654543
_cell_length_c 19.223139
_cell_angle_alpha 90.000000
_cell_angle_beta 90.000000
_cell_angle_gamma 90.000000
_cell_volume 8254.151039
_symmetry_space_group_name_H-M "C C C M"
_symmetry_group_IT_number 66
_symmetry_cell_setting 'orthorhombic'
loop_
_space_group_symop_operation_xyz
x,y,z
-x,-y,z
x,-y,1/2-z
-x,y,1/2-z
-x,-y,-z
x,y,-z
-x,y,1/2+z
x,-y,1/2+z
1/2+x,1/2+y,z
1/2-x,1/2-y,z
1/2+x,1/2-y,1/2-z
1/2-x,1/2+y,1/2-z
1/2-x,1/2-y,-z
1/2+x,1/2+y,-z
1/2-x,1/2+y,1/2+z
1/2+x,1/2-y,1/2+z
loop_
_atom_site_type_symbol
_atom_site_label
_atom_site_fract_x
_atom_site_fract_y
_atom_site_fract_z
Si Si1 0.907852 0.744068 0.156628
Si Si2 0.949300 0.239262 0.082270
Si Si3 0.140991 0.283015 0.698533
Si Si4 0.632502 0.387217 0.918005
Si Si5 0.580118 0.504200 0.166482
Si Si6 0.713658 0.817220 0.920053
Si Si7 0.776182 0.845249 0.695599
Si Si8 0.833003 0.123454 0.661911
O O1 0.909932 0.722056 0.236752
O O2 0.856023 0.696836 0.119415
O O3 0.874969 0.812671 0.156463
O O4 0.978061 0.750392 0.116816
O O5 0.897406 0.281265 0.125713
O O6 0.920987 0.169151 0.092147
O O7 0.950585 0.251351 0.000000
O O8 0.185913 0.220627 0.703331
O O9 0.196684 0.336169 0.704615
O O10 0.609289 0.447018 0.876263
O O11 0.701702 0.367670 0.880156
O O12 0.639385 0.397462 0.000000
O O13 0.500000 0.500000 0.154122
O O14 0.589294 0.500000 0.250000
O O15 0.618416 0.566713 0.143124
O O16 0.750000 0.750000 0.918721
O O17 0.765701 0.864213 0.883551
O O18 0.702203 0.834406 0.000000
O O19 0.807346 0.884306 0.758715
#
# Coordination Sequence:
#
# PCOD9495091 Si02
#       8
#    16  16  16  16  16  16  16  16
#     4  10  17  29  48  70  96 127 160 199 243 299
#     4  10  20  31  44  68 102 132 159 195 241 293
#     4   9  17  28  48  69  91 120 162 198 240 293
#     4  10  21  35  48  66  95 132 169 206 243 285
#     4  11  22  34  49  69  93 128 171 212 247 281
#     4   9  17  28  45  69  93 120 154 195 246 297
#     4   9  16  31  48  68  88 119 161 207 243 286
#     4  10  18  31  49  66  91 124 166 208 246 285
#
# _framework density 15.507349
#
# number of rings (size 3 to 8) (size 9 to 14) (size 15 to 20)
#    0.000    2.250    2.500    1.500    0.000    1.750 
#    0.000    2.500    0.000    0.000    0.000    0.000 
#    0.000    1.000    1.500    3.500    1.250    0.250 
#
# Total GULP energy -356330.399323 kJ/mol
# GULP energy per Si atom -5567.662489 kJ/mol
# Density = 1.547205 g / cm^3
# Si number density = 15.507349 Si / 1000 Ang^3
#
#
#
# Elastic Constant Matrix: (Units=GPa)
#
#
# Indices 1 2 3 4 5 6 
#
# 1 88.0599 35.4176 50.3508 0.0000 0.0000 0.0000
# 2 35.4176 43.2908 27.7993 0.0000 0.0000 0.0000
# 3 50.3508 27.7993 109.9199 0.0000 0.0000 0.0000
# 4 0.0000 0.0000 0.0000 17.6736 0.0000 0.0000
# 5 0.0000 0.0000 0.0000 0.0000 21.5374 0.0000
# 6 0.0000 0.0000 0.0000 0.0000 0.0000 20.6661
#
#
#
# Elastic Compliance Matrix: (Units=1/GPa)
#
#
# Indices 1 2 3 4 5 6 
#
# 1 0.019683 -0.012313 -0.005902 0.000000 0.000000 0.000000
# 2 -0.012313 0.035281 -0.003283 0.000000 0.000000 0.000000
# 3 -0.005902 -0.003283 0.012631 0.000000 0.000000 0.000000
# 4 0.000000 0.000000 0.000000 0.056581 0.000000 0.000000
# 5 0.000000 0.000000 0.000000 0.000000 0.046431 0.000000
# 6 0.000000 0.000000 0.000000 0.000000 0.000000 0.048388
#
#
# Mechanical properties :
#
#
# Convention : Reuss Voigt Hill
#
# Bulk Modulus (GPa) = 40.65057 52.04511 46.34784
# Shear Modulus (GPa) = 18.50537 20.48896 19.49717
#
# Velocity S-wave (km/s) = 3.45821 3.63883 3.54967
# Velocity P-wave (km/s) = 6.49740 7.16165 6.83760
#
# Compressibility (1/GPa) = 0.02459990
#
# Stress axis : x y z
#
# Youngs Moduli (GPa) = 50.80543 28.34361 79.16882
#
# Poissons Ratio (x) = 0.34900 0.46726
# Poissons Ratio (y) = 0.62558 0.25987
# Poissons Ratio (z) = 0.29986 0.09304
#
# Static dielectric constant tensor:
#      x y z
#    x 1.519210 0.000000 0.000000 
#    y 0.000000 1.503410 0.000000 
#    z 0.000000 0.000000 1.535410 
# 
# From -- ./inp_files/43195.got.cif
#   From: 2010.05.17/outbox.cif.g08.bks.cpg/sg66_22_cif.got.tgz:43195.got - 2010.06.03 17:51:23.
