data_PCOD9495443
_publ_section_title
;
Structure prediction by ZEFSAII (Michael W. Deem and Ramdas Pophale) SiO2 
 PCOD9495443
Probable space group: C C C M
;
_chemical_formula_sum "Si O2"
_cell_formula_units_Z 96
_cell_length_a 18.983106
_cell_length_b 14.983338
_cell_length_c 14.021465
_cell_angle_alpha 90.000000
_cell_angle_beta 90.000000
_cell_angle_gamma 90.000000
_cell_volume 3988.129405
_symmetry_space_group_name_H-M "C C C M"
_symmetry_group_IT_number 66
_symmetry_cell_setting 'orthorhombic'
loop_
_space_group_symop_operation_xyz
x,y,z
-x,-y,z
x,-y,1/2-z
-x,y,1/2-z
-x,-y,-z
x,y,-z
-x,y,1/2+z
x,-y,1/2+z
1/2+x,1/2+y,z
1/2-x,1/2-y,z
1/2+x,1/2-y,1/2-z
1/2-x,1/2+y,1/2-z
1/2-x,1/2-y,-z
1/2+x,1/2+y,-z
1/2-x,1/2+y,1/2+z
1/2+x,1/2-y,1/2+z
loop_
_atom_site_type_symbol
_atom_site_label
_atom_site_fract_x
_atom_site_fract_y
_atom_site_fract_z
Si Si1 0.557163 0.424616 0.385377
Si Si2 0.662701 0.186454 0.389143
Si Si3 0.451767 0.274737 0.385243
Si Si4 0.205294 0.158069 0.392520
Si Si5 0.202118 0.878639 0.689854
Si Si6 0.013631 0.400878 0.115314
O O1 0.500000 0.500000 0.362223
O O2 0.565864 0.424530 0.500000
O O3 0.518356 0.333636 0.354313
O O4 0.633907 0.434148 0.340730
O O5 0.658945 0.216084 0.500000
O O6 0.728908 0.120664 0.375626
O O7 0.676095 0.274947 0.326309
O O8 0.591202 0.136266 0.364938
O O9 0.458452 0.271989 0.500000
O O10 0.376653 0.320006 0.371208
O O11 0.458725 0.173985 0.349963
O O12 0.210797 0.119589 0.500000
O O13 0.250000 0.250000 0.393557
O O14 0.226875 0.105122 0.298203
O O15 0.000000 0.500000 0.149205
O O16 0.007710 0.403839 0.000000
#
# Coordination Sequence:
#
# PCOD9495443 Si02
#       6
#    16  16  16  16  16  16
#     4  10  20  36  60  93 132 171 209 254 320 397
#     4  10  18  31  57  94 130 160 199 258 329 390
#     4   9  18  35  57  82 117 165 214 263 315 376
#     4  10  21  38  59  85 116 165 224 268 317 388
#     4  11  19  34  58  92 124 165 210 264 327 380
#     4   9  17  32  57  90 127 167 208 251 314 386
#
# _framework density 24.071435999999999
#
# number of rings (size 3 to 8) (size 9 to 14) (size 15 to 20)
#    0.000    2.167    3.333    2.000    0.000    0.667 
#    0.000    3.333    0.000   11.500    0.000    0.000 
#    0.000    0.667    0.000    0.000    0.000    0.500 
#
# Total GULP energy -268434.629082 kJ/mol
# GULP energy per Si atom -5592.388106 kJ/mol
# Density = 2.401665 g / cm^3
# Si number density = 24.071436 Si / 1000 Ang^3
#
#
#
# Elastic Constant Matrix: (Units=GPa)
#
#
# Indices 1 2 3 4 5 6 
#
# 1 43.0396 -1.4106 12.4725 0.0000 0.0000 0.0000
# 2 -1.4106 73.1029 2.4748 0.0000 0.0000 0.0000
# 3 12.4725 2.4748 150.9501 0.0000 0.0000 0.0000
# 4 0.0000 0.0000 0.0000 7.6516 0.0000 0.0000
# 5 0.0000 0.0000 0.0000 0.0000 10.7818 0.0000
# 6 0.0000 0.0000 0.0000 0.0000 0.0000 34.4908
#
#
#
# Elastic Compliance Matrix: (Units=1/GPa)
#
#
# Indices 1 2 3 4 5 6 
#
# 1 0.023825 0.000527 -0.001977 0.000000 0.000000 0.000000
# 2 0.000527 0.013699 -0.000268 0.000000 0.000000 0.000000
# 3 -0.001977 -0.000268 0.006792 0.000000 0.000000 0.000000
# 4 0.000000 0.000000 0.000000 0.130692 0.000000 0.000000
# 5 0.000000 0.000000 0.000000 0.000000 0.092749 0.000000
# 6 0.000000 0.000000 0.000000 0.000000 0.000000 0.028993
#
#
# Mechanical properties :
#
#
# Convention : Reuss Voigt Hill
#
# Bulk Modulus (GPa) = 24.46276 32.68511 28.57393
# Shear Modulus (GPa) = 15.93307 27.48858 21.71082
#
# Velocity S-wave (km/s) = 2.57555 3.38295 3.00648
# Velocity P-wave (km/s) = 4.36225 5.37280 4.89368
#
# Compressibility (1/GPa) = 0.04087847
#
# Stress axis : x y z
#
# Youngs Moduli (GPa) = 41.97333 73.00020 147.22185
#
# Poissons Ratio (x) = -0.03845 0.29109
# Poissons Ratio (y) = -0.02211 0.03947
# Poissons Ratio (z) = 0.08299 0.01957
#
# Static dielectric constant tensor:
#      x y z
#    x 1.873290 0.000000 0.000000 
#    y 0.000000 1.987850 0.000000 
#    z 0.000000 0.000000 1.928780 
# 
# From -- ./inp_files/31200.got.cif
#   From: 2010.05.17/outbox.cif.g08.bks.cpg/sg66_16_cif.got.tgz:31200.got - 2010.06.03 17:51:23.
