data_PCOD9495449
_publ_section_title
;
Structure prediction by ZEFSAII (Michael W. Deem and Ramdas Pophale) SiO2 
 PCOD9495449
Probable space group: C C C M
;
_chemical_formula_sum "Si O2"
_cell_formula_units_Z 88
_cell_length_a 14.583353
_cell_length_b 15.551808
_cell_length_c 15.807915
_cell_angle_alpha 90.000000
_cell_angle_beta 90.000000
_cell_angle_gamma 90.000000
_cell_volume 3585.195695
_symmetry_space_group_name_H-M "C C C M"
_symmetry_group_IT_number 66
_symmetry_cell_setting 'orthorhombic'
loop_
_space_group_symop_operation_xyz
x,y,z
-x,-y,z
x,-y,1/2-z
-x,y,1/2-z
-x,-y,-z
x,y,-z
-x,y,1/2+z
x,-y,1/2+z
1/2+x,1/2+y,z
1/2-x,1/2-y,z
1/2+x,1/2-y,1/2-z
1/2-x,1/2+y,1/2-z
1/2-x,1/2-y,-z
1/2+x,1/2+y,-z
1/2-x,1/2+y,1/2+z
1/2+x,1/2-y,1/2+z
loop_
_atom_site_type_symbol
_atom_site_label
_atom_site_fract_x
_atom_site_fract_y
_atom_site_fract_z
Si Si1 0.657146 0.442312 0.171099
Si Si2 0.641694 0.993502 0.658345
Si Si3 0.157911 0.309063 0.833720
Si Si4 0.861201 0.252234 0.152803
Si Si5 0.911143 0.378582 0.000000
Si Si6 0.139647 0.769025 0.500000
Si Si7 0.603467 0.530870 0.000000
O O1 0.624411 0.500000 0.250000
O O2 0.767383 0.436611 0.177877
O O3 0.613428 0.348509 0.163087
O O4 0.645264 0.491660 0.084062
O O5 0.673825 0.091898 0.642239
O O6 0.594145 0.000000 0.750000
O O7 0.594432 0.952978 0.576556
O O8 0.250000 0.250000 0.827576
O O9 0.114004 0.296308 0.742233
O O10 0.103439 0.272046 0.913777
O O11 0.750000 0.250000 0.140755
O O12 0.900347 0.303868 0.074254
O O13 0.250000 0.750000 0.500000
O O14 0.118664 0.868390 0.500000
O O15 0.500000 0.500000 0.000000
#
# Coordination Sequence:
#
# PCOD9495449 Si02
#       7
#    16  16  16  16   8   8   8
#     4  11  21  36  56  79 109 159 203 246 304 370
#     4  11  19  31  48  80 118 152 195 242 315 384
#     4  10  18  32  48  75 107 146 196 246 300 364
#     4  11  19  31  48  76 110 147 192 245 303 374
#     4  12  20  29  45  70 114 160 182 245 311 387
#     4  10  19  36  59  81 107 156 203 250 306 361
#     4  12  26  41  56  83 121 161 208 256 297 371
#
# _framework density 24.545383000000001
#
# number of rings (size 3 to 8) (size 9 to 14) (size 15 to 20)
#    0.000    1.091    3.636    8.455    0.000    0.364 
#    0.000    0.000    0.000    0.000    0.000    0.000 
#    0.000   11.636    2.182    0.000    0.000    0.000 
#
# Total GULP energy -245081.605980 kJ/mol
# GULP energy per Si atom -5570.036500 kJ/mol
# Density = 2.448952 g / cm^3
# Si number density = 24.545383 Si / 1000 Ang^3
#
#
#
# Elastic Constant Matrix: (Units=GPa)
#
#
# Indices 1 2 3 4 5 6 
#
# 1 76.6885 16.9191 22.9547 0.0000 0.0000 0.0000
# 2 16.9191 259.6722 95.0435 0.0000 0.0000 0.0000
# 3 22.9547 95.0435 308.9282 0.0000 0.0000 0.0000
# 4 0.0000 0.0000 0.0000 61.3200 0.0000 0.0000
# 5 0.0000 0.0000 0.0000 0.0000 -39.0237 0.0000
# 6 0.0000 0.0000 0.0000 0.0000 0.0000 -8.9837
#
#
#
# Elastic Compliance Matrix: (Units=1/GPa)
#
#
# Indices 1 2 3 4 5 6 
#
# 1 0.013412 -0.000574 -0.000820 0.000000 0.000000 0.000000
# 2 -0.000574 0.004364 -0.001300 0.000000 0.000000 0.000000
# 3 -0.000820 -0.001300 0.003698 0.000000 0.000000 0.000000
# 4 0.000000 0.000000 0.000000 0.016308 0.000000 0.000000
# 5 0.000000 0.000000 0.000000 0.000000 -0.025625 0.000000
# 6 0.000000 0.000000 0.000000 0.000000 0.000000 -0.111312
#
#
# Mechanical properties :
#
#
# Convention : Reuss Voigt Hill
#
# Bulk Modulus (GPa) = 62.16469 101.68041 81.92255
# Shear Modulus (GPa) = -56.55705 36.68729 -9.93488
#
# Velocity S-wave (km/s) = -4.80540 3.87029 -2.01404
# Velocity P-wave (km/s) = 2.32545 7.84140 5.29528
#
# Compressibility (1/GPa) = 0.01608630
#
# Stress axis : x y z
#
# Youngs Moduli (GPa) = 74.56127 229.13578 270.42388
#
# Poissons Ratio (x) = 0.13146 0.22176
# Poissons Ratio (y) = 0.04278 0.35156
# Poissons Ratio (z) = 0.06114 0.29789
#
# Static dielectric constant tensor:
#      x y z
#    x 2.027840 0.000000 0.000000 
#    y 0.000000 3.046470 0.000000 
#    z 0.000000 0.000000 1.962220 
# 
# From -- ./inp_files/31125.got.cif
#   From: 2010.05.17/outbox.cif.g08.bks.cpg/sg66_16_cif.got.tgz:31125.got - 2010.06.03 17:51:23.
