data_PCOD9495430
_publ_section_title
;
Structure prediction by ZEFSAII (Michael W. Deem and Ramdas Pophale) SiO2 
 PCOD9495430
Probable space group: C C C M
;
_chemical_formula_sum "Si O2"
_cell_formula_units_Z 80
_cell_length_a 8.095458
_cell_length_b 32.922147
_cell_length_c 14.358200
_cell_angle_alpha 90.000000
_cell_angle_beta 90.000000
_cell_angle_gamma 90.000000
_cell_volume 3826.745430
_symmetry_space_group_name_H-M "C C C M"
_symmetry_group_IT_number 66
_symmetry_cell_setting 'orthorhombic'
loop_
_space_group_symop_operation_xyz
x,y,z
-x,-y,z
x,-y,1/2-z
-x,y,1/2-z
-x,-y,-z
x,y,-z
-x,y,1/2+z
x,-y,1/2+z
1/2+x,1/2+y,z
1/2-x,1/2-y,z
1/2+x,1/2-y,1/2-z
1/2-x,1/2+y,1/2-z
1/2-x,1/2-y,-z
1/2+x,1/2+y,-z
1/2-x,1/2+y,1/2+z
1/2+x,1/2-y,1/2+z
loop_
_atom_site_type_symbol
_atom_site_label
_atom_site_fract_x
_atom_site_fract_y
_atom_site_fract_z
Si Si1 0.199692 0.066804 0.246324
Si Si2 0.798280 0.997136 0.394931
Si Si3 0.420673 0.196175 0.388141
Si Si4 0.738374 0.160364 0.281252
Si Si5 0.581485 0.277469 0.607319
O O1 0.254448 0.036074 0.164947
O O2 0.256312 0.112230 0.228484
O O3 0.000000 0.067872 0.250000
O O4 0.250674 0.043973 0.341230
O O5 0.739350 0.998018 0.500000
O O6 0.000000 0.000000 0.395358
O O7 0.406554 0.191370 0.500000
O O8 0.582087 0.173272 0.346123
O O9 0.279834 0.178598 0.322321
O O10 0.445593 0.244001 0.367085
O O11 0.888424 0.182830 0.332542
O O12 0.555999 0.289008 0.500000
O O13 0.750000 0.250000 0.611705
#
# Coordination Sequence:
#
# PCOD9495430 Si02
#       5
#    16  16  16  16  16
#     4   9  18  31  47  81 109 126 166 209 252 310
#     4   8  15  30  51  70 102 139 161 199 259 310
#     4   9  19  35  53  73 101 139 178 212 254 304
#     4  10  18  31  54  79  98 135 174 216 254 300
#     4   8  15  31  51  71  94 129 175 211 244 295
#
# _framework density 20.905491999999999
#
# number of rings (size 3 to 8) (size 9 to 14) (size 15 to 20)
#    0.000    3.200    0.000    3.000    0.000    2.400 
#   10.800    0.000    0.000   25.800    0.000   11.200 
#    0.000    0.000    0.000    0.000    0.000    0.000 
#
# Total GULP energy -223233.365927 kJ/mol
# GULP energy per Si atom -5580.834148 kJ/mol
# Density = 2.085791 g / cm^3
# Si number density = 20.905492 Si / 1000 Ang^3
#
#
#
# Elastic Constant Matrix: (Units=GPa)
#
#
# Indices 1 2 3 4 5 6 
#
# 1 42.1313 25.3626 20.7055 0.0000 0.0000 0.0000
# 2 25.3626 206.5433 100.6116 0.0000 0.0000 0.0000
# 3 20.7055 100.6116 169.8120 0.0000 0.0000 0.0000
# 4 0.0000 0.0000 0.0000 -20.9512 0.0000 0.0000
# 5 0.0000 0.0000 0.0000 0.0000 12.1520 0.0000
# 6 0.0000 0.0000 0.0000 0.0000 0.0000 19.1671
#
#
#
# Elastic Compliance Matrix: (Units=1/GPa)
#
#
# Indices 1 2 3 4 5 6 
#
# 1 0.026015 -0.002318 -0.001798 0.000000 0.000000 0.000000
# 2 -0.002318 0.007012 -0.003872 0.000000 0.000000 0.000000
# 3 -0.001798 -0.003872 0.008402 0.000000 0.000000 0.000000
# 4 0.000000 0.000000 0.000000 -0.047730 0.000000 0.000000
# 5 0.000000 0.000000 0.000000 0.000000 0.082291 0.000000
# 6 0.000000 0.000000 0.000000 0.000000 0.000000 0.052173
#
#
# Mechanical properties :
#
#
# Convention : Reuss Voigt Hill
#
# Bulk Modulus (GPa) = 39.29006 79.09401 59.19204
# Shear Modulus (GPa) = 32.76005 20.19406 26.47705
#
# Velocity S-wave (km/s) = 3.96290 3.11138 3.56267
# Velocity P-wave (km/s) = 6.30669 7.12908 6.73046
#
# Compressibility (1/GPa) = 0.02545173
#
# Stress axis : x y z
#
# Youngs Moduli (GPa) = 38.43957 142.60271 119.01469
#
# Poissons Ratio (x) = 0.33062 0.21403
# Poissons Ratio (y) = 0.08912 0.46084
# Poissons Ratio (z) = 0.06913 0.55217
#
# Static dielectric constant tensor:
#      x y z
#    x 1.901070 0.000000 0.000000 
#    y 0.000000 1.702110 0.000000 
#    z 0.000000 0.000000 1.733280 
# 
# From -- ./inp_files/26843.got.cif
#   From: 2010.05.17/outbox.cif.g08.bks.cpg/sg66_14_cif.got.tgz:26843.got - 2010.06.03 17:51:23.
