data_PCOD9495099
_publ_section_title
;
Structure prediction by ZEFSAII (Michael W. Deem and Ramdas Pophale) SiO2 
 PCOD9495099
Probable space group: C C C M
;
_chemical_formula_sum "Si O2"
_cell_formula_units_Z 116
_cell_length_a 24.886671
_cell_length_b 16.394041
_cell_length_c 16.605842
_cell_angle_alpha 90.000000
_cell_angle_beta 90.000000
_cell_angle_gamma 90.000000
_cell_volume 6775.069034
_symmetry_space_group_name_H-M "C C C M"
_symmetry_group_IT_number 66
_symmetry_cell_setting 'orthorhombic'
loop_
_space_group_symop_operation_xyz
x,y,z
-x,-y,z
x,-y,1/2-z
-x,y,1/2-z
-x,-y,-z
x,y,-z
-x,y,1/2+z
x,-y,1/2+z
1/2+x,1/2+y,z
1/2-x,1/2-y,z
1/2+x,1/2-y,1/2-z
1/2-x,1/2+y,1/2-z
1/2-x,1/2-y,-z
1/2+x,1/2+y,-z
1/2-x,1/2+y,1/2+z
1/2+x,1/2-y,1/2+z
loop_
_atom_site_type_symbol
_atom_site_label
_atom_site_fract_x
_atom_site_fract_y
_atom_site_fract_z
Si Si1 0.675296 0.208429 0.643925
Si Si2 0.206820 0.476720 0.839869
Si Si3 0.668589 0.253004 0.827247
Si Si4 0.750000 0.250000 0.500000
Si Si5 0.059892 0.699041 0.095655
Si Si6 0.252990 0.629549 0.906602
Si Si7 0.091569 0.511545 0.905258
Si Si8 0.054910 0.337640 0.903023
O O1 0.704514 0.119472 0.645373
O O2 0.678768 0.247155 0.732179
O O3 0.703482 0.254702 0.571272
O O4 0.612132 0.193847 0.627251
O O5 0.222977 0.500000 0.750000
O O6 0.242888 0.533579 0.896290
O O7 0.145547 0.504881 0.854192
O O8 0.606976 0.241150 0.853628
O O9 0.694976 0.334863 0.862290
O O10 0.702728 0.178907 0.867921
O O11 0.068323 0.601340 0.102186
O O12 0.998437 0.709740 0.124240
O O13 0.065415 0.719615 0.000000
O O14 0.255698 0.650326 0.000000
O O15 0.054442 0.434649 0.883130
O O16 0.106328 0.500310 0.000000
O O17 0.054096 0.332775 0.000000
#
# Coordination Sequence:
#
# PCOD9495099 Si02
#       8
#    16  16  16   4  16  16  16  16
#     4  11  23  37  54  76 106 141 182 223 274 320
#     4  11  20  33  50  76 106 138 179 224 268 314
#     4  11  21  35  49  77 104 140 181 227 271 320
#     4  12  24  40  60  72 104 148 180 222 280 332
#     4  10  17  29  50  72 104 142 179 215 265 310
#     4  11  21  34  53  73 105 139 181 224 268 321
#     4   9  16  27  44  68  98 141 181 214 250 297
#     4   9  18  31  46  72 103 138 181 224 249 313
#
# _framework density 17.121597000000001
#
# number of rings (size 3 to 8) (size 9 to 14) (size 15 to 20)
#    0.000    1.655    3.448    3.310    1.931    2.207 
#    0.000    0.000    0.000    2.483    0.000    0.000 
#    0.000    2.207    0.276    0.000    0.000    0.000 
#
# Total GULP energy -322992.314650 kJ/mol
# GULP energy per Si atom -5568.833011 kJ/mol
# Density = 1.708263 g / cm^3
# Si number density = 17.121597 Si / 1000 Ang^3
#
#
#
# Elastic Constant Matrix: (Units=GPa)
#
#
# Indices 1 2 3 4 5 6 
#
# 1 103.3929 27.9401 47.6120 0.0000 0.0000 0.0000
# 2 27.9401 22.1188 26.3946 0.0000 0.0000 0.0000
# 3 47.6120 26.3946 105.0036 0.0000 0.0000 0.0000
# 4 0.0000 0.0000 0.0000 13.6391 0.0000 0.0000
# 5 0.0000 0.0000 0.0000 0.0000 -180.8635 0.0000
# 6 0.0000 0.0000 0.0000 0.0000 0.0000 24.6362
#
#
#
# Elastic Compliance Matrix: (Units=1/GPa)
#
#
# Indices 1 2 3 4 5 6 
#
# 1 0.015307 -0.015790 -0.002972 0.000000 0.000000 0.000000
# 2 -0.015790 0.080870 -0.013169 0.000000 0.000000 0.000000
# 3 -0.002972 -0.013169 0.014181 0.000000 0.000000 0.000000
# 4 0.000000 0.000000 0.000000 0.073319 0.000000 0.000000
# 5 0.000000 0.000000 0.000000 0.000000 -0.005529 0.000000
# 6 0.000000 0.000000 0.000000 0.000000 0.000000 0.040591
#
#
# Mechanical properties :
#
#
# Convention : Reuss Voigt Hill
#
# Bulk Modulus (GPa) = 21.50617 48.26763 34.88690
# Shear Modulus (GPa) = 16.77301 -19.94641 -1.58670
#
# Velocity S-wave (km/s) = 3.13332 -3.41689 -0.96371
# Velocity P-wave (km/s) = 5.06738 3.56166 4.37971
#
# Compressibility (1/GPa) = 0.04649828
#
# Stress axis : x y z
#
# Youngs Moduli (GPa) = 65.32882 12.36554 70.51603
#
# Poissons Ratio (x) = 0.19525 0.20956
# Poissons Ratio (y) = 1.03151 0.92860
# Poissons Ratio (z) = 0.19414 0.16284
#
# Static dielectric constant tensor:
#      x y z
#    x 1.604350 0.000000 0.000000 
#    y 0.000000 1.578630 0.000000 
#    z 0.000000 0.000000 1.596360 
# 
# From -- ./inp_files/32657.got.cif
#   From: 2010.05.17/outbox.cif.g08.bks.cpg/sg66_17_cif.got.tgz:32657.got - 2010.06.03 17:51:23.
