data_PCOD9495369
_publ_section_title
;
Structure prediction by ZEFSAII (Michael W. Deem and Ramdas Pophale) SiO2 
 PCOD9495369
Probable space group: C C C M
;
_chemical_formula_sum "Si O2"
_cell_formula_units_Z 112
_cell_length_a 11.890314
_cell_length_b 20.158957
_cell_length_c 24.323490
_cell_angle_alpha 90.000000
_cell_angle_beta 90.000000
_cell_angle_gamma 90.000000
_cell_volume 5830.251253
_symmetry_space_group_name_H-M "C C C M"
_symmetry_group_IT_number 66
_symmetry_cell_setting 'orthorhombic'
loop_
_space_group_symop_operation_xyz
x,y,z
-x,-y,z
x,-y,1/2-z
-x,y,1/2-z
-x,-y,-z
x,y,-z
-x,y,1/2+z
x,-y,1/2+z
1/2+x,1/2+y,z
1/2-x,1/2-y,z
1/2+x,1/2-y,1/2-z
1/2-x,1/2+y,1/2-z
1/2-x,1/2-y,-z
1/2+x,1/2+y,-z
1/2-x,1/2+y,1/2+z
1/2+x,1/2-y,1/2+z
loop_
_atom_site_type_symbol
_atom_site_label
_atom_site_fract_x
_atom_site_fract_y
_atom_site_fract_z
Si Si1 0.409550 0.123303 0.710953
Si Si2 0.686347 0.032877 0.562127
Si Si3 0.114488 0.253792 0.440850
Si Si4 0.159962 0.897473 0.759802
Si Si5 0.623140 0.517797 0.844977
Si Si6 0.947678 0.595675 0.587326
Si Si7 0.383723 0.268410 0.322032
O O1 0.500000 0.091147 0.750000
O O2 0.291979 0.118705 0.741891
O O3 0.413061 0.091352 0.651203
O O4 0.438186 0.200444 0.698639
O O5 0.724186 0.050255 0.500000
O O6 0.784580 0.032073 0.608044
O O7 0.579055 0.078655 0.578757
O O8 0.629879 0.959877 0.559919
O O9 0.072183 0.229049 0.500000
O O10 0.250000 0.250000 0.442320
O O11 0.080226 0.330684 0.433373
O O12 0.078802 0.217599 0.384709
O O13 0.117725 0.923777 0.701098
O O14 0.104319 0.831216 0.783449
O O15 0.152098 0.954825 0.805993
O O16 0.500000 0.500000 0.868279
O O17 0.250000 0.250000 0.324638
#
# Coordination Sequence:
#
# PCOD9495369 Si02
#       7
#    16  16  16  16  16  16  16
#     4  10  18  30  53  84 120 147 185 235 293 366
#     4  11  22  37  58  82 116 156 196 243 301 365
#     4   9  16  27  49  81 119 157 189 229 283 351
#     4  10  19  38  54  77 113 150 192 241 300 357
#     4  11  24  39  57  78 105 152 205 250 293 352
#     4  10  19  35  53  88 124 155 190 232 304 374
#     4   8  17  30  49  75 112 148 182 233 283 348
#
# _framework density 19.210149999999999
#
# number of rings (size 3 to 8) (size 9 to 14) (size 15 to 20)
#    0.000    2.143    1.429    4.286    0.000    1.429 
#    0.000    0.000    0.000    0.000    0.000    0.000 
#    0.000   16.571    0.000    0.000    0.000    0.000 
#
# Total GULP energy -312165.588730 kJ/mol
# GULP energy per Si atom -5574.385513 kJ/mol
# Density = 1.916643 g / cm^3
# Si number density = 19.210150 Si / 1000 Ang^3
#
#
#
# Elastic Constant Matrix: (Units=GPa)
#
#
# Indices 1 2 3 4 5 6 
#
# 1 92.0756 26.0226 56.6170 0.0000 0.0000 0.0000
# 2 26.0226 71.2120 29.3442 0.0000 0.0000 0.0000
# 3 56.6170 29.3442 120.9555 0.0000 0.0000 0.0000
# 4 0.0000 0.0000 0.0000 20.5030 0.0000 0.0000
# 5 0.0000 0.0000 0.0000 0.0000 26.3228 0.0000
# 6 0.0000 0.0000 0.0000 0.0000 0.0000 20.0008
#
#
#
# Elastic Compliance Matrix: (Units=1/GPa)
#
#
# Indices 1 2 3 4 5 6 
#
# 1 0.015818 -0.003032 -0.006668 0.000000 0.000000 0.000000
# 2 -0.003032 0.016184 -0.002507 0.000000 0.000000 0.000000
# 3 -0.006668 -0.002507 0.011997 0.000000 0.000000 0.000000
# 4 0.000000 0.000000 0.000000 0.048773 0.000000 0.000000
# 5 0.000000 0.000000 0.000000 0.000000 0.037990 0.000000
# 6 0.000000 0.000000 0.000000 0.000000 0.000000 0.049998
#
#
# Mechanical properties :
#
#
# Convention : Reuss Voigt Hill
#
# Bulk Modulus (GPa) = 51.06364 56.46787 53.76576
# Shear Modulus (GPa) = 23.61794 24.84926 24.23360
#
# Velocity S-wave (km/s) = 3.51016 3.60050 3.55561
# Velocity P-wave (km/s) = 6.56259 6.83691 6.70115
#
# Compressibility (1/GPa) = 0.01958340
#
# Stress axis : x y z
#
# Youngs Moduli (GPa) = 63.21865 61.79071 83.35383
#
# Poissons Ratio (x) = 0.18738 0.55584
# Poissons Ratio (y) = 0.19171 0.20895
# Poissons Ratio (z) = 0.42157 0.15490
#
# Static dielectric constant tensor:
#      x y z
#    x 1.682510 0.000000 0.000000 
#    y 0.000000 1.678660 0.000000 
#    z 0.000000 0.000000 1.700470 
# 
# From -- ./inp_files/57139.got.cif
#   From: 2010.05.17/outbox.cif.g08.bks.cpg/sg66_29_cif.got.tgz:57139.got - 2010.06.03 17:51:23.
