data_PCOD9495705
_publ_section_title
;
Structure prediction by ZEFSAII (Michael W. Deem and Ramdas Pophale) SiO2 
 PCOD9495705
Probable space group: C C C M
;
_chemical_formula_sum "Si O2"
_cell_formula_units_Z 108
_cell_length_a 12.024761
_cell_length_b 29.070925
_cell_length_c 15.476755
_cell_angle_alpha 90.000000
_cell_angle_beta 90.000000
_cell_angle_gamma 90.000000
_cell_volume 5410.223564
_symmetry_space_group_name_H-M "C C C M"
_symmetry_group_IT_number 66
_symmetry_cell_setting 'orthorhombic'
loop_
_space_group_symop_operation_xyz
x,y,z
-x,-y,z
x,-y,1/2-z
-x,y,1/2-z
-x,-y,-z
x,y,-z
-x,y,1/2+z
x,-y,1/2+z
1/2+x,1/2+y,z
1/2-x,1/2-y,z
1/2+x,1/2-y,1/2-z
1/2-x,1/2+y,1/2-z
1/2-x,1/2-y,-z
1/2+x,1/2+y,-z
1/2-x,1/2+y,1/2+z
1/2+x,1/2-y,1/2+z
loop_
_atom_site_type_symbol
_atom_site_label
_atom_site_fract_x
_atom_site_fract_y
_atom_site_fract_z
Si Si1 0.972420 0.122676 0.105405
Si Si2 0.101498 0.965567 0.395174
Si Si3 0.338848 0.004324 0.652068
Si Si4 0.220348 0.606673 0.103317
Si Si5 0.000000 0.500000 0.000000
Si Si6 0.390284 0.809216 0.800240
Si Si7 0.750000 0.250000 0.324664
Si Si8 0.487524 0.273448 0.101925
O O1 0.849304 0.106807 0.130759
O O2 0.063522 0.085387 0.132913
O O3 0.989570 0.174938 0.134117
O O4 0.975861 0.122877 0.000000
O O5 0.113832 0.966538 0.500000
O O6 0.215789 0.982697 0.355037
O O7 0.000000 0.000000 0.374537
O O8 0.332391 0.058351 0.629143
O O9 0.377387 0.000000 0.750000
O O10 0.414203 0.982813 0.577145
O O11 0.158153 0.650632 0.141379
O O12 0.217283 0.609428 0.000000
O O13 0.500000 0.826358 0.750000
O O14 0.294864 0.791153 0.735849
O O15 0.435809 0.764284 0.851209
O O16 0.641826 0.263262 0.379555
O O17 0.509875 0.271339 0.000000
#
# Coordination Sequence:
#
# PCOD9495705 Si02
#       8
#    16  16  16  16   4  16   8  16
#     4   9  19  33  64  97 126 166 217 268 338 406
#     4  10  18  38  67  95 134 174 209 271 343 400
#     4  12  26  44  71  99 131 176 227 278 338 396
#     4  11  21  42  66  93 129 174 217 280 337 392
#     4  12  26  52  66  90 132 184 218 282 324 398
#     4  10  22  37  60  89 125 170 226 275 333 399
#     4  10  21  38  57  84 132 170 204 280 337 379
#     4  10  20  38  60  91 126 174 221 269 332 406
#
# _framework density 19.962206999999999
#
# number of rings (size 3 to 8) (size 9 to 14) (size 15 to 20)
#    0.000    1.630    2.963    1.778    0.000    2.667 
#    0.000    5.926    0.000    0.000    0.000    0.000 
#    0.000    0.000    0.000    0.000    0.000    0.000 
#
# Total GULP energy -301198.738859 kJ/mol
# GULP energy per Si atom -5577.754423 kJ/mol
# Density = 1.991677 g / cm^3
# Si number density = 19.962207 Si / 1000 Ang^3
#
#
#
# Elastic Constant Matrix: (Units=GPa)
#
#
# Indices 1 2 3 4 5 6 
#
# 1 86.1585 18.5875 25.2381 0.0000 0.0000 0.0000
# 2 18.5875 93.9542 11.9931 0.0000 0.0000 0.0000
# 3 25.2381 11.9931 87.9951 0.0000 0.0000 0.0000
# 4 0.0000 0.0000 0.0000 26.7066 0.0000 0.0000
# 5 0.0000 0.0000 0.0000 0.0000 53.2600 0.0000
# 6 0.0000 0.0000 0.0000 0.0000 0.0000 27.6398
#
#
#
# Elastic Compliance Matrix: (Units=1/GPa)
#
#
# Indices 1 2 3 4 5 6 
#
# 1 0.013083 -0.002147 -0.003460 0.000000 0.000000 0.000000
# 2 -0.002147 0.011184 -0.000909 0.000000 0.000000 0.000000
# 3 -0.003460 -0.000909 0.012480 0.000000 0.000000 0.000000
# 4 0.000000 0.000000 0.000000 0.037444 0.000000 0.000000
# 5 0.000000 0.000000 0.000000 0.000000 0.018776 0.000000
# 6 0.000000 0.000000 0.000000 0.000000 0.000000 0.036180
#
#
# Mechanical properties :
#
#
# Convention : Reuss Voigt Hill
#
# Bulk Modulus (GPa) = 42.16305 42.19392 42.17849
# Shear Modulus (GPa) = 33.31485 35.67389 34.49437
#
# Velocity S-wave (km/s) = 4.08964 4.23196 4.16141
# Velocity P-wave (km/s) = 6.59299 6.71283 6.65318
#
# Compressibility (1/GPa) = 0.02371745
#
# Stress axis : x y z
#
# Youngs Moduli (GPa) = 76.43445 89.41222 80.12545
#
# Poissons Ratio (x) = 0.19194 0.27722
# Poissons Ratio (y) = 0.16408 0.07280
# Poissons Ratio (z) = 0.26445 0.08124
#
# Static dielectric constant tensor:
#      x y z
#    x 1.698420 0.000000 0.000000 
#    y 0.000000 1.681060 0.000000 
#    z 0.000000 0.000000 1.705960 
# 
# From -- ./inp_files/27070.got.cif
#   From: 2010.05.17/outbox.cif.g08.bks.cpg/sg66_14_cif.got.tgz:27070.got - 2010.06.03 17:51:23.
