data_PCOD9495790
_publ_section_title
;
Structure prediction by ZEFSAII (Michael W. Deem and Ramdas Pophale) SiO2 
 PCOD9495790
Probable space group: C C C M
;
_chemical_formula_sum "Si O2"
_cell_formula_units_Z 128
_cell_length_a 18.021341
_cell_length_b 25.065989
_cell_length_c 15.306185
_cell_angle_alpha 90.000000
_cell_angle_beta 90.000000
_cell_angle_gamma 90.000000
_cell_volume 6914.151755
_symmetry_space_group_name_H-M "C C C M"
_symmetry_group_IT_number 66
_symmetry_cell_setting 'orthorhombic'
loop_
_space_group_symop_operation_xyz
x,y,z
-x,-y,z
x,-y,1/2-z
-x,y,1/2-z
-x,-y,-z
x,y,-z
-x,y,1/2+z
x,-y,1/2+z
1/2+x,1/2+y,z
1/2-x,1/2-y,z
1/2+x,1/2-y,1/2-z
1/2-x,1/2+y,1/2-z
1/2-x,1/2-y,-z
1/2+x,1/2+y,-z
1/2-x,1/2+y,1/2+z
1/2+x,1/2-y,1/2+z
loop_
_atom_site_type_symbol
_atom_site_label
_atom_site_fract_x
_atom_site_fract_y
_atom_site_fract_z
Si Si1 0.920111 0.241391 0.781241
Si Si2 0.678387 0.056539 0.248363
Si Si3 0.711345 0.581599 0.899341
Si Si4 0.206265 0.799603 0.660130
Si Si5 0.560558 0.636950 0.603943
Si Si6 0.718686 0.413563 0.097957
Si Si7 0.448201 0.451423 0.106607
Si Si8 0.682979 0.834804 0.316893
O O1 0.870716 0.222091 0.698893
O O2 0.931616 0.190605 0.842597
O O3 0.872744 0.286752 0.830267
O O4 0.000000 0.261290 0.750000
O O5 0.719278 0.068067 0.338979
O O6 0.641055 0.112219 0.219773
O O7 0.637630 0.000000 0.250000
O O8 0.742911 0.947903 0.326425
O O9 0.696886 0.645461 0.891677
O O10 0.637261 0.551295 0.866631
O O11 0.724119 0.568247 0.000000
O O12 0.250000 0.750000 0.616570
O O13 0.257879 0.815942 0.743447
O O14 0.556191 0.647170 0.500000
O O15 0.633825 0.600626 0.617311
O O16 0.489392 0.602981 0.631834
O O17 0.766334 0.358367 0.105722
O O18 0.723991 0.435331 0.000000
O O19 0.500000 0.500000 0.136592
O O20 0.447536 0.453499 0.000000
#
# Coordination Sequence:
#
# PCOD9495790 Si02
#       8
#    16  16  16  16  16  16  16  16
#     4  11  19  31  53  73 100 138 169 214 262 311
#     4   9  19  34  52  72 102 127 170 218 253 315
#     4  10  19  32  50  71  99 138 176 214 261 303
#     4   9  17  33  50  70 103 134 167 214 255 302
#     4  10  19  30  47  73 100 134 179 215 251 303
#     4   9  18  32  53  75 102 134 171 215 260 305
#     4   9  19  31  43  64 102 143 178 219 256 298
#     4   8  18  33  49  73 104 130 166 212 261 303
#
# _framework density 18.512754999999999
#
# number of rings (size 3 to 8) (size 9 to 14) (size 15 to 20)
#    0.750    1.875    1.250    0.750    1.750    1.250 
#    0.000    1.250    0.000    3.375    0.000    0.000 
#    0.000    1.000    0.000    0.000    0.000    0.000 
#
# Total GULP energy -356496.237125 kJ/mol
# GULP energy per Si atom -5570.253705 kJ/mol
# Density = 1.847062 g / cm^3
# Si number density = 18.512755 Si / 1000 Ang^3
#
#
#
# Elastic Constant Matrix: (Units=GPa)
#
#
# Indices 1 2 3 4 5 6 
#
# 1 28.4207 1.8082 -3.0542 0.0000 0.0000 0.0000
# 2 1.8082 78.0913 -3.1981 0.0000 0.0000 0.0000
# 3 -3.0542 -3.1981 36.8154 0.0000 0.0000 0.0000
# 4 0.0000 0.0000 0.0000 3.9351 0.0000 0.0000
# 5 0.0000 0.0000 0.0000 0.0000 12.0627 0.0000
# 6 0.0000 0.0000 0.0000 0.0000 0.0000 21.6190
#
#
#
# Elastic Compliance Matrix: (Units=1/GPa)
#
#
# Indices 1 2 3 4 5 6 
#
# 1 0.035541 -0.000705 0.002887 0.000000 0.000000 0.000000
# 2 -0.000705 0.012865 0.001059 0.000000 0.000000 0.000000
# 3 0.002887 0.001059 0.027494 0.000000 0.000000 0.000000
# 4 0.000000 0.000000 0.000000 0.254120 0.000000 0.000000
# 5 0.000000 0.000000 0.000000 0.000000 0.082900 0.000000
# 6 0.000000 0.000000 0.000000 0.000000 0.000000 0.046256
#
#
# Mechanical properties :
#
#
# Convention : Reuss Voigt Hill
#
# Bulk Modulus (GPa) = 12.13840 14.93771 13.53805
# Shear Modulus (GPa) = 10.41333 17.37479 13.89406
#
# Velocity S-wave (km/s) = 2.37427 3.06687 2.74252
# Velocity P-wave (km/s) = 3.75329 4.54173 4.16620
#
# Compressibility (1/GPa) = 0.08238320
#
# Stress axis : x y z
#
# Youngs Moduli (GPa) = 28.13675 77.72894 36.37144
#
# Poissons Ratio (x) = 0.05478 -0.10501
# Poissons Ratio (y) = 0.01983 -0.03852
# Poissons Ratio (z) = -0.08124 -0.08232
#
# Static dielectric constant tensor:
#      x y z
#    x 1.616530 0.000000 0.000000 
#    y 0.000000 1.697550 0.000000 
#    z 0.000000 0.000000 1.646580 
# 
# From -- ./inp_files/42163.got.cif
#   From: 2010.05.17/outbox.cif.g08.bks.cpg/sg66_22_cif.got.tgz:42163.got - 2010.06.03 17:51:23.
