data_PCOD9495058
_publ_section_title
;
Structure prediction by ZEFSAII (Michael W. Deem and Ramdas Pophale) SiO2 
 PCOD9495058
Probable space group: C C C M
;
_chemical_formula_sum "Si O2"
_cell_formula_units_Z 80
_cell_length_a 14.880917
_cell_length_b 30.132289
_cell_length_c 8.600413
_cell_angle_alpha 90.000000
_cell_angle_beta 90.000000
_cell_angle_gamma 90.000000
_cell_volume 3856.391576
_symmetry_space_group_name_H-M "C C C M"
_symmetry_group_IT_number 66
_symmetry_cell_setting 'orthorhombic'
loop_
_space_group_symop_operation_xyz
x,y,z
-x,-y,z
x,-y,1/2-z
-x,y,1/2-z
-x,-y,-z
x,y,-z
-x,y,1/2+z
x,-y,1/2+z
1/2+x,1/2+y,z
1/2-x,1/2-y,z
1/2+x,1/2-y,1/2-z
1/2-x,1/2+y,1/2-z
1/2-x,1/2-y,-z
1/2+x,1/2+y,-z
1/2-x,1/2+y,1/2+z
1/2+x,1/2-y,1/2+z
loop_
_atom_site_type_symbol
_atom_site_label
_atom_site_fract_x
_atom_site_fract_y
_atom_site_fract_z
Si Si1 0.721549 0.637444 0.315371
Si Si2 0.589630 0.049871 0.814446
Si Si3 0.101066 0.319150 0.184885
Si Si4 0.098695 0.222887 0.685609
Si Si5 0.787023 0.048758 0.684766
O O1 0.726704 0.629495 0.500000
O O2 0.821849 0.649572 0.255328
O O3 0.664497 0.681986 0.285733
O O4 0.669800 0.595124 0.239466
O O5 0.500000 0.073383 0.750000
O O6 0.687539 0.059858 0.749584
O O7 0.583067 0.000000 0.750000
O O8 0.588797 0.051252 0.000000
O O9 0.126325 0.268719 0.232307
O O10 0.000000 0.325857 0.250000
O O11 0.099262 0.324430 0.000000
O O12 0.094654 0.231110 0.500000
O O13 0.000000 0.212022 0.750000
O O14 0.786187 0.045231 0.500000
O O15 0.814226 0.000000 0.750000
#
# Coordination Sequence:
#
# PCOD9495058 Si02
#       5
#    16  16  16  16  16
#     4  11  23  39  59  86 118 154 196 241 290 344
#     4  10  17  28  45  66  93 128 172 220 269 322
#     4  11  22  37  59  88 123 160 196 236 284 342
#     4  10  21  38  62  89 120 154 190 237 291 348
#     4  11  22  37  55  77 106 144 189 237 289 341
#
# _framework density 20.744781
#
# number of rings (size 3 to 8) (size 9 to 14) (size 15 to 20)
#    0.000    1.400    0.000   10.200    0.000    6.400 
#    0.000    4.000    0.000    0.600    0.000    4.200 
#    0.000    0.000    0.000    0.000    0.000    0.000 
#
# Total GULP energy -223199.396371 kJ/mol
# GULP energy per Si atom -5579.984909 kJ/mol
# Density = 2.069757 g / cm^3
# Si number density = 20.744781 Si / 1000 Ang^3
#
#
#
# Elastic Constant Matrix: (Units=GPa)
#
#
# Indices 1 2 3 4 5 6 
#
# 1 23.1489 24.1349 12.0740 0.0000 0.0000 0.0000
# 2 24.1349 151.6390 66.6907 0.0000 0.0000 0.0000
# 3 12.0740 66.6907 153.0505 0.0000 0.0000 0.0000
# 4 0.0000 0.0000 0.0000 35.0474 0.0000 0.0000
# 5 0.0000 0.0000 0.0000 0.0000 14.8486 0.0000
# 6 0.0000 0.0000 0.0000 0.0000 0.0000 -0.5123
#
#
#
# Elastic Compliance Matrix: (Units=1/GPa)
#
#
# Indices 1 2 3 4 5 6 
#
# 1 0.051839 -0.007982 -0.000612 0.000000 0.000000 0.000000
# 2 -0.007982 0.009387 -0.003461 0.000000 0.000000 0.000000
# 3 -0.000612 -0.003461 0.008090 0.000000 0.000000 0.000000
# 4 0.000000 0.000000 0.000000 0.028533 0.000000 0.000000
# 5 0.000000 0.000000 0.000000 0.000000 0.067346 0.000000
# 6 0.000000 0.000000 0.000000 0.000000 0.000000 -1.952085
#
#
# Mechanical properties :
#
#
# Convention : Reuss Voigt Hill
#
# Bulk Modulus (GPa) = 22.11979 59.29307 40.70643
# Shear Modulus (GPa) = -2.86088 24.87267 11.00589
#
# Velocity S-wave (km/s) = -1.17562 3.46639 2.30584
# Velocity P-wave (km/s) = 2.97375 6.68322 5.17245
#
# Compressibility (1/GPa) = 0.04520840
#
# Stress axis : x y z
#
# Youngs Moduli (GPa) = 19.29034 106.53056 123.60962
#
# Poissons Ratio (x) = 0.85031 0.07559
# Poissons Ratio (y) = 0.15397 0.42777
# Poissons Ratio (z) = 0.01180 0.36866
#
# Static dielectric constant tensor:
#      x y z
#    x 1.953110 0.000000 0.000000 
#    y 0.000000 1.788570 0.000000 
#    z 0.000000 0.000000 1.702620 
# 
# From -- ./inp_files/6889.got.cif
#   From: 2010.05.17/outbox.cif.g08.bks.cpg/sg66_4_cif.got.tgz:6889.got - 2010.06.03 17:51:23.
