data_PCOD9495959
_publ_section_title
;
Structure prediction by ZEFSAII (Michael W. Deem and Ramdas Pophale) SiO2 
 PCOD9495959
Probable space group: C C C M
;
_chemical_formula_sum "Si O2"
_cell_formula_units_Z 116
_cell_length_a 26.229766
_cell_length_b 27.223852
_cell_length_c 9.100275
_cell_angle_alpha 90.000000
_cell_angle_beta 90.000000
_cell_angle_gamma 90.000000
_cell_volume 6498.281306
_symmetry_space_group_name_H-M "C C C M"
_symmetry_group_IT_number 66
_symmetry_cell_setting 'orthorhombic'
loop_
_space_group_symop_operation_xyz
x,y,z
-x,-y,z
x,-y,1/2-z
-x,y,1/2-z
-x,-y,-z
x,y,-z
-x,y,1/2+z
x,-y,1/2+z
1/2+x,1/2+y,z
1/2-x,1/2-y,z
1/2+x,1/2-y,1/2-z
1/2-x,1/2+y,1/2-z
1/2-x,1/2-y,-z
1/2+x,1/2+y,-z
1/2-x,1/2+y,1/2+z
1/2+x,1/2-y,1/2+z
loop_
_atom_site_type_symbol
_atom_site_label
_atom_site_fract_x
_atom_site_fract_y
_atom_site_fract_z
Si Si1 0.170573 0.150063 0.171206
Si Si2 0.583904 0.076278 0.333117
Si Si3 0.789210 0.679203 0.171538
Si Si4 0.700067 0.550599 0.324621
Si Si5 0.643176 0.744778 0.674370
Si Si6 0.816942 0.420903 0.825612
Si Si7 0.000000 0.500000 0.750000
Si Si8 0.947408 0.322622 0.825361
O O1 0.228854 0.170110 0.177374
O O2 0.172988 0.097753 0.252603
O O3 0.137580 0.191401 0.252820
O O4 0.156841 0.144754 0.000000
O O5 0.595675 0.090027 0.500000
O O6 0.634963 0.056089 0.256390
O O7 0.567573 0.124896 0.244266
O O8 0.538478 0.036774 0.332282
O O9 0.809435 0.727899 0.248613
O O10 0.813480 0.634055 0.260812
O O11 0.804282 0.679043 0.000000
O O12 0.683350 0.500000 0.250000
O O13 0.692840 0.550099 0.500000
O O14 0.761230 0.556355 0.297239
O O15 0.651611 0.740045 0.500000
O O16 0.595644 0.781384 0.699066
O O17 0.825549 0.420105 0.000000
O O18 0.000000 0.307191 0.750000
O O19 0.953830 0.329046 0.000000
#
# Coordination Sequence:
#
# PCOD9495959 Si02
#       8
#    16  16  16  16  16  16   4  16
#     4  10  21  35  53  80 112 144 184 225 264 324
#     4  12  25  41  60  76  99 135 179 235 293 344
#     4  10  19  32  52  78 107 142 179 219 269 327
#     4  10  21  37  56  79 110 148 184 223 270 321
#     4  11  22  35  54  80 110 143 177 221 278 334
#     4  10  21  36  54  77 104 136 179 227 275 332
#     4  12  30  44  56  78 102 132 186 244 304 340
#     4  11  24  41  61  82 107 139 181 229 283 343
#
# _framework density 17.850874000000001
#
# number of rings (size 3 to 8) (size 9 to 14) (size 15 to 20)
#    0.000    1.379    2.069    3.517    0.966    8.276 
#    0.000    0.000    0.000    0.000    0.000    0.000 
#    0.000    0.552    0.000    5.793    0.000    3.172 
#
# Total GULP energy -324027.183274 kJ/mol
# GULP energy per Si atom -5586.675574 kJ/mol
# Density = 1.781024 g / cm^3
# Si number density = 17.850874 Si / 1000 Ang^3
#
#
#
# Elastic Constant Matrix: (Units=GPa)
#
#
# Indices 1 2 3 4 5 6 
#
# 1 34.9323 25.5519 29.5344 0.0000 0.0000 0.0000
# 2 25.5519 150.0533 72.2102 0.0000 0.0000 0.0000
# 3 29.5344 72.2102 107.6313 0.0000 0.0000 0.0000
# 4 0.0000 0.0000 0.0000 1.9664 0.0000 0.0000
# 5 0.0000 0.0000 0.0000 0.0000 812.1862 0.0000
# 6 0.0000 0.0000 0.0000 0.0000 0.0000 18.2151
#
#
#
# Elastic Compliance Matrix: (Units=1/GPa)
#
#
# Indices 1 2 3 4 5 6 
#
# 1 0.037730 -0.002130 -0.008924 0.000000 0.000000 0.000000
# 2 -0.002130 0.009962 -0.006099 0.000000 0.000000 0.000000
# 3 -0.008924 -0.006099 0.015832 0.000000 0.000000 0.000000
# 4 0.000000 0.000000 0.000000 0.508539 0.000000 0.000000
# 5 0.000000 0.000000 0.000000 0.000000 0.001231 0.000000
# 6 0.000000 0.000000 0.000000 0.000000 0.000000 0.054899
#
#
# Mechanical properties :
#
#
# Convention : Reuss Voigt Hill
#
# Bulk Modulus (GPa) = 34.22663 60.80108 47.51385
# Shear Modulus (GPa) = 7.43783 177.49491 92.46637
#
# Velocity S-wave (km/s) = 2.04345 9.98238 7.20498
# Velocity P-wave (km/s) = 4.97824 12.92279 9.79238
#
# Compressibility (1/GPa) = 0.02921702
#
# Stress axis : x y z
#
# Youngs Moduli (GPa) = 26.50405 100.38034 63.16484
#
# Poissons Ratio (x) = 0.21385 0.56368
# Poissons Ratio (y) = 0.05646 0.38524
# Poissons Ratio (z) = 0.23652 0.61222
#
# Static dielectric constant tensor:
#      x y z
#    x 1.637200 0.000000 0.000000 
#    y 0.000000 1.633030 0.000000 
#    z 0.000000 0.000000 1.597170 
# 
# From -- ./inp_files/9452.got.cif
#   From: 2010.05.17/outbox.cif.g08.bks.cpg/sg66_5_cif.got.tgz:9452.got - 2010.06.03 17:51:23.
