data_PCOD9495107
_publ_section_title
;
Structure prediction by ZEFSAII (Michael W. Deem and Ramdas Pophale) SiO2 
 PCOD9495107
Probable space group: C C C M
;
_chemical_formula_sum "Si O2"
_cell_formula_units_Z 116
_cell_length_a 27.331088
_cell_length_b 27.710114
_cell_length_c 9.064733
_cell_angle_alpha 90.000000
_cell_angle_beta 90.000000
_cell_angle_gamma 90.000000
_cell_volume 6865.153458
_symmetry_space_group_name_H-M "C C C M"
_symmetry_group_IT_number 66
_symmetry_cell_setting 'orthorhombic'
loop_
_space_group_symop_operation_xyz
x,y,z
-x,-y,z
x,-y,1/2-z
-x,y,1/2-z
-x,-y,-z
x,y,-z
-x,y,1/2+z
x,-y,1/2+z
1/2+x,1/2+y,z
1/2-x,1/2-y,z
1/2+x,1/2-y,1/2-z
1/2-x,1/2+y,1/2-z
1/2-x,1/2-y,-z
1/2+x,1/2+y,-z
1/2-x,1/2+y,1/2+z
1/2+x,1/2-y,1/2+z
loop_
_atom_site_type_symbol
_atom_site_label
_atom_site_fract_x
_atom_site_fract_y
_atom_site_fract_z
Si Si1 0.870043 0.747372 0.178727
Si Si2 0.178844 0.653842 0.679708
Si Si3 0.447481 0.680875 0.822218
Si Si4 0.818612 0.075623 0.676454
Si Si5 0.000000 0.000000 0.750000
Si Si6 0.084350 0.072493 0.667708
Si Si7 0.213341 0.819271 0.321779
Si Si8 0.708300 0.048751 0.322005
O O1 0.863496 0.691316 0.222151
O O2 0.910873 0.778956 0.258527
O O3 0.818560 0.773341 0.217453
O O4 0.876432 0.750556 0.000000
O O5 0.179632 0.654252 0.500000
O O6 0.231303 0.674975 0.731135
O O7 0.179869 0.597658 0.722843
O O8 0.500000 0.689199 0.750000
O O9 0.431471 0.626080 0.780627
O O10 0.449621 0.683088 0.000000
O O11 0.820496 0.072304 0.500000
O O12 0.868788 0.055432 0.740121
O O13 0.815483 0.132130 0.719751
O O14 0.765759 0.054817 0.722138
O O15 0.961927 0.036569 0.827742
O O16 0.101161 0.076830 0.500000
O O17 0.216509 0.819090 0.500000
O O18 0.707154 0.045769 0.500000
O O19 0.689184 0.000000 0.250000
#
# Coordination Sequence:
#
# PCOD9495107 Si02
#       8
#    16  16  16  16   4  16  16  16
#     4  10  17  29  53  78  98 128 163 203 250 297
#     4   8  15  27  46  74 104 130 167 204 236 288
#     4  11  23  39  55  73  97 127 163 207 258 314
#     4   9  18  32  50  70  95 124 161 204 249 298
#     4  12  26  44  52  66  86 124 168 222 272 304
#     4  11  24  39  54  69  88 118 163 216 265 306
#     4   8  13  24  45  73  98 125 157 194 237 293
#     4   9  18  32  48  71 101 136 170 204 239 283
#
# _framework density 16.896927000000002
#
# number of rings (size 3 to 8) (size 9 to 14) (size 15 to 20)
#    0.000    2.483    2.069    2.690    0.966    3.862 
#    0.000    0.690    0.000    2.483    0.000    0.000 
#    0.000    0.552    0.000    6.345    0.000    1.931 
#
# Total GULP energy -323019.397591 kJ/mol
# GULP energy per Si atom -5569.299958 kJ/mol
# Density = 1.685847 g / cm^3
# Si number density = 16.896927 Si / 1000 Ang^3
#
#
#
# Elastic Constant Matrix: (Units=GPa)
#
#
# Indices 1 2 3 4 5 6 
#
# 1 52.3981 53.1043 17.5839 0.0000 0.0000 0.0000
# 2 53.1043 148.0942 29.6212 0.0000 0.0000 0.0000
# 3 17.5839 29.6212 16.6782 0.0000 0.0000 0.0000
# 4 0.0000 0.0000 0.0000 18.4485 0.0000 0.0000
# 5 0.0000 0.0000 0.0000 0.0000 12.0539 0.0000
# 6 0.0000 0.0000 0.0000 0.0000 0.0000 23.0995
#
#
#
# Elastic Compliance Matrix: (Units=1/GPa)
#
#
# Indices 1 2 3 4 5 6 
#
# 1 0.034664 -0.007941 -0.022443 0.000000 0.000000 0.000000
# 2 -0.007941 0.012292 -0.013459 0.000000 0.000000 0.000000
# 3 -0.022443 -0.013459 0.107524 0.000000 0.000000 0.000000
# 4 0.000000 0.000000 0.000000 0.054205 0.000000 0.000000
# 5 0.000000 0.000000 0.000000 0.000000 0.082961 0.000000
# 6 0.000000 0.000000 0.000000 0.000000 0.000000 0.043291
#
#
# Mechanical properties :
#
#
# Convention : Reuss Voigt Hill
#
# Bulk Modulus (GPa) = 14.97130 46.42102 30.69616
# Shear Modulus (GPa) = 11.23882 18.51113 14.87498
#
# Velocity S-wave (km/s) = 2.58183 3.31347 2.97026
# Velocity P-wave (km/s) = 4.21514 6.49396 5.47444
#
# Compressibility (1/GPa) = 0.06679446
#
# Stress axis : x y z
#
# Youngs Moduli (GPa) = 28.84822 81.35365 9.30027
#
# Poissons Ratio (x) = 0.64604 0.20872
# Poissons Ratio (y) = 0.22909 0.12517
# Poissons Ratio (z) = 0.64743 1.09493
#
# Static dielectric constant tensor:
#      x y z
#    x 1.565870 0.000000 0.000000 
#    y 0.000000 1.625160 0.000000 
#    z 0.000000 0.000000 1.571460 
# 
# From -- ./inp_files/10899.got.cif
#   From: 2010.05.17/outbox.cif.g08.bks.cpg/sg66_6_cif.got.tgz:10899.got - 2010.06.03 17:51:23.
