data_PCOD9495260
_publ_section_title
;
Structure prediction by ZEFSAII (Michael W. Deem and Ramdas Pophale) SiO2 
 PCOD9495260
Probable space group: C C C M
;
_chemical_formula_sum "Si O2"
_cell_formula_units_Z 112
_cell_length_a 27.815277
_cell_length_b 12.231385
_cell_length_c 14.515587
_cell_angle_alpha 90.000000
_cell_angle_beta 90.000000
_cell_angle_gamma 90.000000
_cell_volume 4938.483746
_symmetry_space_group_name_H-M "C C C M"
_symmetry_group_IT_number 66
_symmetry_cell_setting 'orthorhombic'
loop_
_space_group_symop_operation_xyz
x,y,z
-x,-y,z
x,-y,1/2-z
-x,y,1/2-z
-x,-y,-z
x,y,-z
-x,y,1/2+z
x,-y,1/2+z
1/2+x,1/2+y,z
1/2-x,1/2-y,z
1/2+x,1/2-y,1/2-z
1/2-x,1/2+y,1/2-z
1/2-x,1/2-y,-z
1/2+x,1/2+y,-z
1/2-x,1/2+y,1/2+z
1/2+x,1/2-y,1/2+z
loop_
_atom_site_type_symbol
_atom_site_label
_atom_site_fract_x
_atom_site_fract_y
_atom_site_fract_z
Si Si1 0.819176 0.023633 0.892048
Si Si2 0.074770 0.023067 0.859875
Si Si3 0.509057 0.675780 0.640576
Si Si4 0.351532 0.017331 0.387431
Si Si5 0.733561 0.869110 0.113014
Si Si6 0.692686 0.242820 0.892931
Si Si7 0.957774 0.575978 0.609590
O O1 0.870151 0.964657 0.886991
O O2 0.774484 0.954663 0.856237
O O3 0.825726 0.144356 0.849487
O O4 0.807361 0.041508 0.000000
O O5 0.042154 0.125373 0.891290
O O6 0.074162 0.000000 0.750000
O O7 0.048619 0.911890 0.893228
O O8 0.500000 0.670774 0.750000
O O9 0.527508 0.797288 0.621236
O O10 0.351554 0.013873 0.500000
O O11 0.324324 0.127353 0.356074
O O12 0.406050 0.035101 0.355549
O O13 0.318870 0.914059 0.359611
O O14 0.750000 0.750000 0.146054
O O15 0.734185 0.865882 0.000000
O O16 0.750000 0.250000 0.891990
O O17 0.676047 0.240935 0.000000
O O18 0.955204 0.559032 0.500000
O O19 0.000000 0.500000 0.646595
#
# Coordination Sequence:
#
# PCOD9495260 Si02
#       7
#    16  16  16  16  16  16  16
#     4  10  18  28  48  78 101 129 174 213 255 315
#     4   9  19  35  54  76 103 136 171 219 274 317
#     4   9  19  37  56  74 100 137 182 217 258 324
#     4   9  16  28  44  66 102 136 160 202 255 301
#     4   9  17  28  43  68 102 137 171 205 248 310
#     4   9  14  23  42  68  97 123 157 204 242 284
#     4  10  21  34  51  79 111 139 171 219 274 310
#
# _framework density 22.679026
#
# number of rings (size 3 to 8) (size 9 to 14) (size 15 to 20)
#    0.000    2.714    1.429    1.714    0.000    3.714 
#    0.000    4.286    0.000    0.857    3.714    0.000 
#    0.000    0.000    0.000    0.000    0.000    0.000 
#
# Total GULP energy -312374.634643 kJ/mol
# GULP energy per Si atom -5578.118476 kJ/mol
# Density = 2.262741 g / cm^3
# Si number density = 22.679026 Si / 1000 Ang^3
#
#
#
# Elastic Constant Matrix: (Units=GPa)
#
#
# Indices 1 2 3 4 5 6 
#
# 1 147.6250 89.9395 -5.9636 0.0000 0.0000 0.0000
# 2 89.9395 150.7004 7.5179 0.0000 0.0000 0.0000
# 3 -5.9636 7.5179 70.5406 0.0000 0.0000 0.0000
# 4 0.0000 0.0000 0.0000 10.8666 0.0000 0.0000
# 5 0.0000 0.0000 0.0000 0.0000 -4.1976 0.0000
# 6 0.0000 0.0000 0.0000 0.0000 0.0000 29.1289
#
#
#
# Elastic Compliance Matrix: (Units=1/GPa)
#
#
# Indices 1 2 3 4 5 6 
#
# 1 0.010823 -0.006540 0.001612 0.000000 0.000000 0.000000
# 2 -0.006540 0.010623 -0.001685 0.000000 0.000000 0.000000
# 3 0.001612 -0.001685 0.014492 0.000000 0.000000 0.000000
# 4 0.000000 0.000000 0.000000 0.092025 0.000000 0.000000
# 5 0.000000 0.000000 0.000000 0.000000 -0.238232 0.000000
# 6 0.000000 0.000000 0.000000 0.000000 0.000000 0.034330
#
#
# Mechanical properties :
#
#
# Convention : Reuss Voigt Hill
#
# Bulk Modulus (GPa) = 44.02866 61.31708 52.67287
# Shear Modulus (GPa) = -90.67561 25.65107 -32.51227
#
# Velocity S-wave (km/s) = -6.33000 3.36675 -3.79038
# Velocity P-wave (km/s) = 5.82832 6.49684 2.02974
#
# Compressibility (1/GPa) = 0.02271248
#
# Stress axis : x y z
#
# Youngs Moduli (GPa) = 92.39176 94.13655 69.00315
#
# Poissons Ratio (x) = 0.61565 -0.11124
# Poissons Ratio (y) = 0.60424 0.11627
# Poissons Ratio (z) = -0.14894 0.15862
#
# Static dielectric constant tensor:
#      x y z
#    x 1.851420 0.000000 0.000000 
#    y 0.000000 1.853960 0.000000 
#    z 0.000000 0.000000 1.891190 
# 
# From -- ./inp_files/52577.got.cif
#   From: 2010.05.17/outbox.cif.g08.bks.cpg/sg66_27_cif.got.tgz:52577.got - 2010.06.03 17:51:23.
