data_PCOD9495589
_publ_section_title
;
Structure prediction by ZEFSAII (Michael W. Deem and Ramdas Pophale) SiO2 
 PCOD9495589
Probable space group: C C C M
;
_chemical_formula_sum "Si O2"
_cell_formula_units_Z 112
_cell_length_a 24.034378
_cell_length_b 12.803163
_cell_length_c 20.605966
_cell_angle_alpha 90.000000
_cell_angle_beta 90.000000
_cell_angle_gamma 90.000000
_cell_volume 6340.786652
_symmetry_space_group_name_H-M "C C C M"
_symmetry_group_IT_number 66
_symmetry_cell_setting 'orthorhombic'
loop_
_space_group_symop_operation_xyz
x,y,z
-x,-y,z
x,-y,1/2-z
-x,y,1/2-z
-x,-y,-z
x,y,-z
-x,y,1/2+z
x,-y,1/2+z
1/2+x,1/2+y,z
1/2-x,1/2-y,z
1/2+x,1/2-y,1/2-z
1/2-x,1/2+y,1/2-z
1/2-x,1/2-y,-z
1/2+x,1/2+y,-z
1/2-x,1/2+y,1/2+z
1/2+x,1/2-y,1/2+z
loop_
_atom_site_type_symbol
_atom_site_label
_atom_site_fract_x
_atom_site_fract_y
_atom_site_fract_z
Si Si1 0.915754 0.767339 0.806438
Si Si2 0.039757 0.789324 0.836935
Si Si3 0.312568 0.609109 0.925067
Si Si4 0.600415 0.496078 0.827032
Si Si5 0.797431 0.335793 0.294512
Si Si6 0.703469 0.933094 0.652817
Si Si7 0.621946 0.821987 0.573507
O O1 0.924706 0.767558 0.728370
O O2 0.908995 0.882046 0.838018
O O3 0.858712 0.704423 0.815471
O O4 0.978253 0.742477 0.829992
O O5 0.068387 0.734659 0.897378
O O6 0.048504 0.915979 0.838124
O O7 0.352168 0.548251 0.874232
O O8 0.250968 0.597814 0.897881
O O9 0.332382 0.729029 0.924064
O O10 0.317691 0.573065 0.000000
O O11 0.615747 0.500000 0.750000
O O12 0.750000 0.250000 0.308851
O O13 0.787089 0.447066 0.327917
O O14 0.794992 0.362185 0.217536
O O15 0.644307 0.913305 0.619090
O O16 0.614489 0.855994 0.500000
#
# Coordination Sequence:
#
# PCOD9495589 Si02
#       7
#    16  16  16  16  16  16  16
#     4  10  18  34  54  79 115 143 178 229 274 326
#     4   9  18  32  55  83 111 141 181 225 279 323
#     4  10  20  33  54  84 114 148 184 226 278 329
#     4   9  18  30  55  85 112 145 179 225 278 332
#     4  11  23  35  55  83 112 143 182 229 278 326
#     4  11  22  34  54  78 113 147 183 226 275 328
#     4  10  19  35  57  82 111 142 182 229 276 326
#
# _framework density 17.663423999999999
#
# number of rings (size 3 to 8) (size 9 to 14) (size 15 to 20)
#    0.000    2.000    1.429    3.000    6.000    2.857 
#    0.000    1.429    0.000   13.714    0.000    0.000 
#    0.000    0.000    0.000    0.000    0.000    0.000 
#
# Total GULP energy -311820.973349 kJ/mol
# GULP energy per Si atom -5568.231667 kJ/mol
# Density = 1.762322 g / cm^3
# Si number density = 17.663424 Si / 1000 Ang^3
#
#
#
# Elastic Constant Matrix: (Units=GPa)
#
#
# Indices 1 2 3 4 5 6 
#
# 1 82.4885 31.3092 23.2302 0.0000 0.0000 0.0000
# 2 31.3092 51.6055 27.1044 0.0000 0.0000 0.0000
# 3 23.2302 27.1044 82.7514 0.0000 0.0000 0.0000
# 4 0.0000 0.0000 0.0000 14.7560 0.0000 0.0000
# 5 0.0000 0.0000 0.0000 0.0000 3.4806 0.0000
# 6 0.0000 0.0000 0.0000 0.0000 0.0000 21.0712
#
#
#
# Elastic Compliance Matrix: (Units=1/GPa)
#
#
# Indices 1 2 3 4 5 6 
#
# 1 0.015918 -0.008830 -0.001577 0.000000 0.000000 0.000000
# 2 -0.008830 0.028302 -0.006791 0.000000 0.000000 0.000000
# 3 -0.001577 -0.006791 0.014751 0.000000 0.000000 0.000000
# 4 0.000000 0.000000 0.000000 0.067769 0.000000 0.000000
# 5 0.000000 0.000000 0.000000 0.000000 0.287308 0.000000
# 6 0.000000 0.000000 0.000000 0.000000 0.000000 0.047458
#
#
# Mechanical properties :
#
#
# Convention : Reuss Voigt Hill
#
# Bulk Modulus (GPa) = 40.68939 42.23698 41.46319
# Shear Modulus (GPa) = 9.91879 16.87499 13.39689
#
# Velocity S-wave (km/s) = 2.37226 3.09425 2.75699
# Velocity P-wave (km/s) = 5.53078 6.06052 5.80170
#
# Compressibility (1/GPa) = 0.02457643
#
# Stress axis : x y z
#
# Youngs Moduli (GPa) = 62.82104 35.33366 67.79023
#
# Poissons Ratio (x) = 0.31198 0.10688
# Poissons Ratio (y) = 0.55468 0.46038
# Poissons Ratio (z) = 0.09904 0.23996
#
# Static dielectric constant tensor:
#      x y z
#    x 1.635070 0.000000 0.000000 
#    y 0.000000 1.614720 0.000000 
#    z 0.000000 0.000000 1.595390 
# 
# From -- ./inp_files/52574.got.cif
#   From: 2010.05.17/outbox.cif.g08.bks.cpg/sg66_27_cif.got.tgz:52574.got - 2010.06.03 17:51:23.
