data_PCOD9495384
_publ_section_title
;
Structure prediction by ZEFSAII (Michael W. Deem and Ramdas Pophale) SiO2 
 PCOD9495384
Probable space group: C C C M
;
_chemical_formula_sum "Si O2"
_cell_formula_units_Z 96
_cell_length_a 26.750871
_cell_length_b 12.182673
_cell_length_c 14.338432
_cell_angle_alpha 90.000000
_cell_angle_beta 90.000000
_cell_angle_gamma 90.000000
_cell_volume 4672.853606
_symmetry_space_group_name_H-M "C C C M"
_symmetry_group_IT_number 66
_symmetry_cell_setting 'orthorhombic'
loop_
_space_group_symop_operation_xyz
x,y,z
-x,-y,z
x,-y,1/2-z
-x,y,1/2-z
-x,-y,-z
x,y,-z
-x,y,1/2+z
x,-y,1/2+z
1/2+x,1/2+y,z
1/2-x,1/2-y,z
1/2+x,1/2-y,1/2-z
1/2-x,1/2+y,1/2-z
1/2-x,1/2-y,-z
1/2+x,1/2+y,-z
1/2-x,1/2+y,1/2+z
1/2+x,1/2-y,1/2+z
loop_
_atom_site_type_symbol
_atom_site_label
_atom_site_fract_x
_atom_site_fract_y
_atom_site_fract_z
Si Si1 0.789675 0.937634 0.652199
Si Si2 0.553115 0.550373 0.614212
Si Si3 0.363690 0.386687 0.896808
Si Si4 0.875057 0.763438 0.385974
Si Si5 0.197891 0.693533 0.385244
Si Si6 0.820687 0.552980 0.390042
O O1 0.829178 0.840161 0.646246
O O2 0.735309 0.899612 0.620802
O O3 0.786150 0.000000 0.750000
O O4 0.814719 0.036646 0.593912
O O5 0.500000 0.500000 0.642027
O O6 0.553678 0.552033 0.500000
O O7 0.594466 0.462344 0.647359
O O8 0.574303 0.670746 0.641790
O O9 0.345970 0.274356 0.852607
O O10 0.382403 0.358621 0.000000
O O11 0.873873 0.763492 0.500000
O O12 0.861861 0.639588 0.355144
O O13 0.199305 0.693742 0.500000
O O14 0.250000 0.750000 0.354440
O O15 0.186389 0.570795 0.352013
O O16 0.830820 0.538969 0.500000
#
# Coordination Sequence:
#
# PCOD9495384 Si02
#       6
#    16  16  16  16  16  16
#     4  11  20  29  41  66  98 125 156 196 236 280
#     4   8  14  26  48  74  93 114 150 201 251 282
#     4   9  16  29  47  65  88 123 162 191 228 282
#     4   9  18  32  50  68  92 127 165 198 236 288
#     4   9  15  25  44  64  84 117 161 196 218 263
#     4  10  18  31  48  65  90 130 170 196 226 281
#
# _framework density 20.544191000000001
#
# number of rings (size 3 to 8) (size 9 to 14) (size 15 to 20)
#    0.000    2.667    1.667    3.000    0.000    1.333 
#    6.000    0.000    0.000    9.000    0.000    7.000 
#    0.000    0.000    0.000    0.000    0.000    0.000 
#
# Total GULP energy -267505.591919 kJ/mol
# GULP energy per Si atom -5573.033165 kJ/mol
# Density = 2.049743 g / cm^3
# Si number density = 20.544191 Si / 1000 Ang^3
#
#
#
# Elastic Constant Matrix: (Units=GPa)
#
#
# Indices 1 2 3 4 5 6 
#
# 1 111.9215 68.9724 2.8931 0.0000 0.0000 0.0000
# 2 68.9724 165.0785 15.5126 0.0000 0.0000 0.0000
# 3 2.8931 15.5126 52.0471 0.0000 0.0000 0.0000
# 4 0.0000 0.0000 0.0000 11.1896 0.0000 0.0000
# 5 0.0000 0.0000 0.0000 0.0000 -19.3318 0.0000
# 6 0.0000 0.0000 0.0000 0.0000 0.0000 30.9258
#
#
#
# Elastic Compliance Matrix: (Units=1/GPa)
#
#
# Indices 1 2 3 4 5 6 
#
# 1 0.012070 -0.005124 0.000856 0.000000 0.000000 0.000000
# 2 -0.005124 0.008407 -0.002221 0.000000 0.000000 0.000000
# 3 0.000856 -0.002221 0.019828 0.000000 0.000000 0.000000
# 4 0.000000 0.000000 0.000000 0.089369 0.000000 0.000000
# 5 0.000000 0.000000 0.000000 0.000000 -0.051728 0.000000
# 6 0.000000 0.000000 0.000000 0.000000 0.000000 0.032335
#
#
# Mechanical properties :
#
#
# Convention : Reuss Voigt Hill
#
# Bulk Modulus (GPa) = 36.59211 55.97812 46.28511
# Shear Modulus (GPa) = 37.77376 20.66798 29.22087
#
# Velocity S-wave (km/s) = 4.29261 3.17523 3.77549
# Velocity P-wave (km/s) = 6.51297 6.38354 6.44858
#
# Compressibility (1/GPa) = 0.02732829
#
# Stress axis : x y z
#
# Youngs Moduli (GPa) = 82.84920 118.94675 50.43441
#
# Poissons Ratio (x) = 0.60943 -0.04318
# Poissons Ratio (y) = 0.42448 0.11201
# Poissons Ratio (z) = -0.07093 0.26417
#
# Static dielectric constant tensor:
#      x y z
#    x 1.725770 0.000000 0.000000 
#    y 0.000000 1.777470 0.000000 
#    z 0.000000 0.000000 1.842910 
# 
# From -- ./inp_files/44253.got.cif
#   From: 2010.05.17/outbox.cif.g08.bks.cpg/sg66_23_cif.got.tgz:44253.got - 2010.06.03 17:51:23.
