data_PCOD9495942
_publ_section_title
;
Structure prediction by ZEFSAII (Michael W. Deem and Ramdas Pophale) SiO2 
 PCOD9495942
Probable space group: C C C M
;
_chemical_formula_sum "Si O2"
_cell_formula_units_Z 80
_cell_length_a 18.337482
_cell_length_b 28.653782
_cell_length_c 8.826051
_cell_angle_alpha 90.000000
_cell_angle_beta 90.000000
_cell_angle_gamma 90.000000
_cell_volume 4637.544453
_symmetry_space_group_name_H-M "C C C M"
_symmetry_group_IT_number 66
_symmetry_cell_setting 'orthorhombic'
loop_
_space_group_symop_operation_xyz
x,y,z
-x,-y,z
x,-y,1/2-z
-x,y,1/2-z
-x,-y,-z
x,y,-z
-x,y,1/2+z
x,-y,1/2+z
1/2+x,1/2+y,z
1/2-x,1/2-y,z
1/2+x,1/2-y,1/2-z
1/2-x,1/2+y,1/2-z
1/2-x,1/2-y,-z
1/2+x,1/2+y,-z
1/2-x,1/2+y,1/2+z
1/2+x,1/2-y,1/2+z
loop_
_atom_site_type_symbol
_atom_site_label
_atom_site_fract_x
_atom_site_fract_y
_atom_site_fract_z
Si Si1 0.927691 0.447759 0.818723
Si Si2 0.810396 0.708757 0.827707
Si Si3 0.802691 0.855224 0.319790
Si Si4 0.735512 0.051385 0.817787
Si Si5 0.080032 0.785384 0.317847
O O1 0.926892 0.500000 0.750000
O O2 0.846543 0.430584 0.779674
O O3 0.000000 0.424071 0.750000
O O4 0.935006 0.449644 0.000000
O O5 0.750000 0.750000 0.835846
O O6 0.773034 0.670644 0.722501
O O7 0.882259 0.735930 0.773524
O O8 0.820532 0.691126 0.000000
O O9 0.813366 0.853415 0.500000
O O10 0.792728 0.908943 0.270907
O O11 0.867290 0.826715 0.240263
O O12 0.746537 0.000000 0.750000
O O13 0.737857 0.047307 0.000000
O O14 0.078668 0.786491 0.500000
O O15 0.000000 0.789746 0.250000
#
# Coordination Sequence:
#
# PCOD9495942 Si02
#       5
#    16  16  16  16  16
#     4   9  15  25  40  59  83 112 149 192 236 279
#     4   8  16  31  49  71  98 126 158 195 238 292
#     4  10  19  32  51  75 102 132 167 206 249 296
#     4   9  19  32  47  69  97 131 172 213 250 293
#     4  10  20  34  53  77 103 131 164 202 247 300
#
# _framework density 17.250508
#
# number of rings (size 3 to 8) (size 9 to 14) (size 15 to 20)
#    0.000    2.800    0.000    3.600    0.000    6.800 
#    0.000    1.000    0.000    5.400    0.000    4.200 
#    0.000    0.000    0.000    0.000    0.000    0.000 
#
# Total GULP energy -222678.129386 kJ/mol
# GULP energy per Si atom -5566.953235 kJ/mol
# Density = 1.721125 g / cm^3
# Si number density = 17.250508 Si / 1000 Ang^3
#
#
#
# Elastic Constant Matrix: (Units=GPa)
#
#
# Indices 1 2 3 4 5 6 
#
# 1 111.6547 47.4836 30.8839 0.0000 0.0000 0.0000
# 2 47.4836 69.4399 20.6553 0.0000 0.0000 0.0000
# 3 30.8839 20.6553 39.2485 0.0000 0.0000 0.0000
# 4 0.0000 0.0000 0.0000 16.8170 0.0000 0.0000
# 5 0.0000 0.0000 0.0000 0.0000 33.5596 0.0000
# 6 0.0000 0.0000 0.0000 0.0000 0.0000 19.5523
#
#
#
# Elastic Compliance Matrix: (Units=1/GPa)
#
#
# Indices 1 2 3 4 5 6 
#
# 1 0.014144 -0.007542 -0.007161 0.000000 0.000000 0.000000
# 2 -0.007542 0.021095 -0.005167 0.000000 0.000000 0.000000
# 3 -0.007161 -0.005167 0.033833 0.000000 0.000000 0.000000
# 4 0.000000 0.000000 0.000000 0.059464 0.000000 0.000000
# 5 0.000000 0.000000 0.000000 0.000000 0.029798 0.000000
# 6 0.000000 0.000000 0.000000 0.000000 0.000000 0.051145
#
#
# Mechanical properties :
#
#
# Convention : Reuss Voigt Hill
#
# Bulk Modulus (GPa) = 34.09198 46.48763 40.28980
# Shear Modulus (GPa) = 19.30535 22.07380 20.68958
#
# Velocity S-wave (km/s) = 3.34895 3.58103 3.46694
# Velocity P-wave (km/s) = 5.89574 6.64119 6.27954
#
# Compressibility (1/GPa) = 0.02933241
#
# Stress axis : x y z
#
# Youngs Moduli (GPa) = 70.70025 47.40417 29.55727
#
# Poissons Ratio (x) = 0.35752 0.21165
# Poissons Ratio (y) = 0.53322 0.15273
# Poissons Ratio (z) = 0.50627 0.24494
#
# Static dielectric constant tensor:
#      x y z
#    x 1.617760 0.000000 0.000000 
#    y 0.000000 1.587400 0.000000 
#    z 0.000000 0.000000 1.579110 
# 
# From -- ./inp_files/6712.got.cif
#   From: 2010.05.17/outbox.cif.g08.bks.cpg/sg66_4_cif.got.tgz:6712.got - 2010.06.03 17:51:23.
