data_PCOD9495807
_publ_section_title
;
Structure prediction by ZEFSAII (Michael W. Deem and Ramdas Pophale) SiO2 
 PCOD9495807
Probable space group: C C C M
;
_chemical_formula_sum "Si O2"
_cell_formula_units_Z 80
_cell_length_a 16.225876
_cell_length_b 9.282168
_cell_length_c 26.271802
_cell_angle_alpha 90.000000
_cell_angle_beta 90.000000
_cell_angle_gamma 90.000000
_cell_volume 3956.830436
_symmetry_space_group_name_H-M "C C C M"
_symmetry_group_IT_number 66
_symmetry_cell_setting 'orthorhombic'
loop_
_space_group_symop_operation_xyz
x,y,z
-x,-y,z
x,-y,1/2-z
-x,y,1/2-z
-x,-y,-z
x,y,-z
-x,y,1/2+z
x,-y,1/2+z
1/2+x,1/2+y,z
1/2-x,1/2-y,z
1/2+x,1/2-y,1/2-z
1/2-x,1/2+y,1/2-z
1/2-x,1/2-y,-z
1/2+x,1/2+y,-z
1/2-x,1/2+y,1/2+z
1/2+x,1/2-y,1/2+z
loop_
_atom_site_type_symbol
_atom_site_label
_atom_site_fract_x
_atom_site_fract_y
_atom_site_fract_z
Si Si1 0.099162 0.651584 0.654025
Si Si2 0.340850 0.687042 0.443974
Si Si3 0.398737 0.666065 0.751231
Si Si4 0.081120 0.100481 0.559051
Si Si5 0.403888 0.172312 0.351657
O O1 0.114538 0.737785 0.602445
O O2 0.130444 0.739822 0.703002
O O3 0.132032 0.489025 0.647450
O O4 0.000707 0.648824 0.659854
O O5 0.378643 0.716096 0.500000
O O6 0.250000 0.750000 0.444382
O O7 0.345370 0.515637 0.437045
O O8 0.372543 0.500000 0.750000
O O9 0.500000 0.664686 0.750000
O O10 0.370948 0.738336 0.803786
O O11 0.073693 0.146046 0.500000
O O12 0.096825 0.231241 0.597389
O O13 0.000000 0.000000 0.571315
#
# Coordination Sequence:
#
# PCOD9495807 Si02
#       5
#    16  16  16  16  16
#     4  10  19  32  50  79 112 140 178 231 283 331
#     4  10  21  37  56  77 107 148 188 227 277 341
#     4   9  17  28  49  77 107 141 178 222 272 329
#     4  10  19  33  54  80 109 143 189 235 281 341
#     4  10  19  30  52  81 111 138 175 233 287 329
#
# _framework density 20.218201000000001
#
# number of rings (size 3 to 8) (size 9 to 14) (size 15 to 20)
#    0.000    2.200    2.000    1.800    2.800    3.200 
#    0.000    3.000    0.000   10.800    0.000    0.000 
#    0.000    0.000    0.000    0.000    0.000    0.000 
#
# Total GULP energy -223002.197418 kJ/mol
# GULP energy per Si atom -5575.054935 kJ/mol
# Density = 2.017218 g / cm^3
# Si number density = 20.218201 Si / 1000 Ang^3
#
#
#
# Elastic Constant Matrix: (Units=GPa)
#
#
# Indices 1 2 3 4 5 6 
#
# 1 15.1664 8.5768 -2.1823 0.0000 0.0000 0.0000
# 2 8.5768 195.1505 124.7797 0.0000 0.0000 0.0000
# 3 -2.1823 124.7797 180.5316 0.0000 0.0000 0.0000
# 4 0.0000 0.0000 0.0000 34.9888 0.0000 0.0000
# 5 0.0000 0.0000 0.0000 0.0000 -116.6610 0.0000
# 6 0.0000 0.0000 0.0000 0.0000 0.0000 17.7755
#
#
#
# Elastic Compliance Matrix: (Units=1/GPa)
#
#
# Indices 1 2 3 4 5 6 
#
# 1 0.070392 -0.006519 0.005356 0.000000 0.000000 0.000000
# 2 -0.006519 0.009786 -0.006843 0.000000 0.000000 0.000000
# 3 0.005356 -0.006843 0.010333 0.000000 0.000000 0.000000
# 4 0.000000 0.000000 0.000000 0.028581 0.000000 0.000000
# 5 0.000000 0.000000 0.000000 0.000000 -0.008572 0.000000
# 6 0.000000 0.000000 0.000000 0.000000 0.000000 0.056257
#
#
# Mechanical properties :
#
#
# Convention : Reuss Voigt Hill
#
# Bulk Modulus (GPa) = 13.42242 72.57743 42.99993
# Shear Modulus (GPa) = 24.08228 4.53227 14.30727
#
# Velocity S-wave (km/s) = 3.45500 1.49885 2.66304
# Velocity P-wave (km/s) = 4.75071 6.24263 5.54706
#
# Compressibility (1/GPa) = 0.07450220
#
# Stress axis : x y z
#
# Youngs Moduli (GPa) = 14.20606 102.18736 96.77320
#
# Poissons Ratio (x) = 0.66612 -0.51836
# Poissons Ratio (y) = 0.09260 0.66218
# Poissons Ratio (z) = -0.07609 0.69923
#
# Static dielectric constant tensor:
#      x y z
#    x 1.984980 0.000000 0.000000 
#    y 0.000000 1.725380 0.000000 
#    z 0.000000 0.000000 1.711950 
# 
# From -- ./inp_files/65027.got.cif
#   From: 2010.05.17/outbox.cif.g08.bks.cpg/sg66_33_cif.got.tgz:65027.got - 2010.06.03 17:51:23.
