data_PCOD9495745
_publ_section_title
;
Structure prediction by ZEFSAII (Michael W. Deem and Ramdas Pophale) SiO2 
 PCOD9495745
Probable space group: C C C M
;
_chemical_formula_sum "Si O2"
_cell_formula_units_Z 96
_cell_length_a 21.420629
_cell_length_b 31.539428
_cell_length_c 8.877025
_cell_angle_alpha 90.000000
_cell_angle_beta 90.000000
_cell_angle_gamma 90.000000
_cell_volume 5997.268255
_symmetry_space_group_name_H-M "C C C M"
_symmetry_group_IT_number 66
_symmetry_cell_setting 'orthorhombic'
loop_
_space_group_symop_operation_xyz
x,y,z
-x,-y,z
x,-y,1/2-z
-x,y,1/2-z
-x,-y,-z
x,y,-z
-x,y,1/2+z
x,-y,1/2+z
1/2+x,1/2+y,z
1/2-x,1/2-y,z
1/2+x,1/2-y,1/2-z
1/2-x,1/2+y,1/2-z
1/2-x,1/2-y,-z
1/2+x,1/2+y,-z
1/2-x,1/2+y,1/2+z
1/2+x,1/2-y,1/2+z
loop_
_atom_site_type_symbol
_atom_site_label
_atom_site_fract_x
_atom_site_fract_y
_atom_site_fract_z
Si Si1 0.797685 0.456513 0.180415
Si Si2 0.738004 0.869806 0.824105
Si Si3 0.564619 0.249243 0.318966
Si Si4 0.563160 0.066003 0.177320
Si Si5 0.801840 0.784785 0.815905
Si Si6 0.592743 0.152445 0.674976
O O1 0.772573 0.500000 0.250000
O O2 0.763435 0.413948 0.235528
O O3 0.870342 0.451856 0.233165
O O4 0.797237 0.458368 0.000000
O O5 0.782319 0.832038 0.768160
O O6 0.667854 0.850690 0.818210
O O7 0.751614 0.878550 0.000000
O O8 0.500000 0.265321 0.250000
O O9 0.561773 0.252284 0.500000
O O10 0.628563 0.271808 0.268723
O O11 0.571983 0.199351 0.281919
O O12 0.500000 0.048910 0.250000
O O13 0.567172 0.115780 0.218682
O O14 0.560076 0.059824 0.000000
O O15 0.750000 0.750000 0.768142
O O16 0.800406 0.784531 0.000000
O O17 0.574830 0.143984 0.500000
#
# Coordination Sequence:
#
# PCOD9495745 Si02
#       6
#    16  16  16  16  16  16
#     4  10  21  35  49  66  89 115 147 191 241 288
#     4   9  16  29  51  72  89 116 157 200 237 274
#     4  10  19  29  43  66  96 128 162 199 236 275
#     4  10  20  31  43  60  84 115 152 193 235 280
#     4   9  15  28  50  72  93 124 167 203 231 275
#     4   9  16  27  44  64  87 118 156 197 236 273
#
# _framework density 16.007287999999999
#
# number of rings (size 3 to 8) (size 9 to 14) (size 15 to 20)
#    0.000    2.500    1.667    1.500    0.000    4.333 
#    0.000    2.500    0.000    1.000    0.000    0.000 
#    0.000    0.667    0.000    7.667    0.000    2.333 
#
# Total GULP energy -267659.575966 kJ/mol
# GULP energy per Si atom -5576.241166 kJ/mol
# Density = 1.597085 g / cm^3
# Si number density = 16.007288 Si / 1000 Ang^3
#
#
#
# Elastic Constant Matrix: (Units=GPa)
#
#
# Indices 1 2 3 4 5 6 
#
# 1 82.3013 53.3375 15.7989 0.0000 0.0000 0.0000
# 2 53.3375 114.6901 27.8085 0.0000 0.0000 0.0000
# 3 15.7989 27.8085 15.2729 0.0000 0.0000 0.0000
# 4 0.0000 0.0000 0.0000 12.4439 0.0000 0.0000
# 5 0.0000 0.0000 0.0000 0.0000 -1.6951 0.0000
# 6 0.0000 0.0000 0.0000 0.0000 0.0000 -0.1198
#
#
#
# Elastic Compliance Matrix: (Units=1/GPa)
#
#
# Indices 1 2 3 4 5 6 
#
# 1 0.017689 -0.006785 -0.005944 0.000000 0.000000 0.000000
# 2 -0.006785 0.018214 -0.026145 0.000000 0.000000 0.000000
# 3 -0.005944 -0.026145 0.119227 0.000000 0.000000 0.000000
# 4 0.000000 0.000000 0.000000 0.080361 0.000000 0.000000
# 5 0.000000 0.000000 0.000000 0.000000 -0.589953 0.000000
# 6 0.000000 0.000000 0.000000 0.000000 0.000000 -8.344594
#
#
# Mechanical properties :
#
#
# Convention : Reuss Voigt Hill
#
# Bulk Modulus (GPa) = 12.92271 45.12824 29.02548
# Shear Modulus (GPa) = -0.58170 9.81376 4.61603
#
# Velocity S-wave (km/s) = -0.60348 2.47873 1.69999
# Velocity P-wave (km/s) = 2.75771 6.03702 4.69311
#
# Compressibility (1/GPa) = 0.07738318
#
# Stress axis : x y z
#
# Youngs Moduli (GPa) = 56.53320 54.90343 8.38734
#
# Poissons Ratio (x) = 0.37253 0.04985
# Poissons Ratio (y) = 0.38358 0.21928
# Poissons Ratio (z) = 0.33602 1.43542
#
# Static dielectric constant tensor:
#      x y z
#    x 1.547410 0.000000 0.000000 
#    y 0.000000 1.542820 0.000000 
#    z 0.000000 0.000000 1.544640 
# 
# From -- ./inp_files/9293.got.cif
#   From: 2010.05.17/outbox.cif.g08.bks.cpg/sg66_5_cif.got.tgz:9293.got - 2010.06.03 17:51:23.
