data_PCOD9495338
_publ_section_title
;
Structure prediction by ZEFSAII (Michael W. Deem and Ramdas Pophale) SiO2 
 PCOD9495338
Probable space group: C C C M
;
_chemical_formula_sum "Si O2"
_cell_formula_units_Z 80
_cell_length_a 18.183780
_cell_length_b 13.408496
_cell_length_c 18.295972
_cell_angle_alpha 90.000000
_cell_angle_beta 90.000000
_cell_angle_gamma 90.000000
_cell_volume 4460.871592
_symmetry_space_group_name_H-M "C C C M"
_symmetry_group_IT_number 66
_symmetry_cell_setting 'orthorhombic'
loop_
_space_group_symop_operation_xyz
x,y,z
-x,-y,z
x,-y,1/2-z
-x,y,1/2-z
-x,-y,-z
x,y,-z
-x,y,1/2+z
x,-y,1/2+z
1/2+x,1/2+y,z
1/2-x,1/2-y,z
1/2+x,1/2-y,1/2-z
1/2-x,1/2+y,1/2-z
1/2-x,1/2-y,-z
1/2+x,1/2+y,-z
1/2-x,1/2+y,1/2+z
1/2+x,1/2-y,1/2+z
loop_
_atom_site_type_symbol
_atom_site_label
_atom_site_fract_x
_atom_site_fract_y
_atom_site_fract_z
Si Si1 0.392678 0.808100 0.584040
Si Si2 0.181172 0.474277 0.582545
Si Si3 0.143178 0.717285 0.259520
Si Si4 0.218244 0.095484 0.290650
Si Si5 0.536737 0.892463 0.655801
O O1 0.388401 0.770430 0.500000
O O2 0.345075 0.910530 0.586590
O O3 0.635334 0.749439 0.843973
O O4 0.476332 0.834704 0.607449
O O5 0.200040 0.451276 0.500000
O O6 0.247886 0.443051 0.634101
O O7 0.109124 0.414112 0.607757
O O8 0.163490 0.811601 0.209509
O O9 0.210235 0.638771 0.252721
O O10 0.071955 0.662218 0.226565
O O11 0.186407 0.000000 0.250000
O O12 0.500000 0.000000 0.671524
#
# Coordination Sequence:
#
# PCOD9495338 Si02
#       5
#    16  16  16  16  16
#     4  10  18  30  49  77 107 130 168 223 272 313
#     4   9  17  30  50  77 105 138 172 212 269 312
#     4  10  20  32  51  79 101 140 181 209 265 316
#     4  10  19  35  51  70 106 144 179 216 248 314
#     4   9  18  30  50  76 106 135 169 218 268 320
#
# _framework density 17.933714999999999
#
# number of rings (size 3 to 8) (size 9 to 14) (size 15 to 20)
#    0.000    2.400    2.000    1.200    0.000    4.800 
#    0.000   12.000    0.000    2.400    0.000    1.400 
#    0.000    0.000    0.000    0.000    0.000    0.000 
#
# Total GULP energy -222782.381382 kJ/mol
# GULP energy per Si atom -5569.559535 kJ/mol
# Density = 1.789290 g / cm^3
# Si number density = 17.933715 Si / 1000 Ang^3
#
#
#
# Elastic Constant Matrix: (Units=GPa)
#
#
# Indices 1 2 3 4 5 6 
#
# 1 51.2155 18.1058 18.2978 0.0000 0.0000 0.0000
# 2 18.1058 46.8462 7.5383 0.0000 0.0000 0.0000
# 3 18.2978 7.5383 127.5498 0.0000 0.0000 0.0000
# 4 0.0000 0.0000 0.0000 15.8264 0.0000 0.0000
# 5 0.0000 0.0000 0.0000 0.0000 13.3832 0.0000
# 6 0.0000 0.0000 0.0000 0.0000 0.0000 18.7522
#
#
#
# Elastic Compliance Matrix: (Units=1/GPa)
#
#
# Indices 1 2 3 4 5 6 
#
# 1 0.023616 -0.008665 -0.002876 0.000000 0.000000 0.000000
# 2 -0.008665 0.024730 -0.000219 0.000000 0.000000 0.000000
# 3 -0.002876 -0.000219 0.008266 0.000000 0.000000 0.000000
# 4 0.000000 0.000000 0.000000 0.063186 0.000000 0.000000
# 5 0.000000 0.000000 0.000000 0.000000 0.074721 0.000000
# 6 0.000000 0.000000 0.000000 0.000000 0.000000 0.053327
#
#
# Mechanical properties :
#
#
# Convention : Reuss Voigt Hill
#
# Bulk Modulus (GPa) = 30.21705 34.83282 32.52494
# Shear Modulus (GPa) = 17.70571 21.70364 19.70468
#
# Velocity S-wave (km/s) = 3.14552 3.48259 3.31834
# Velocity P-wave (km/s) = 5.48437 5.96963 5.73214
#
# Compressibility (1/GPa) = 0.03309390
#
# Stress axis : x y z
#
# Youngs Moduli (GPa) = 42.34431 40.43597 120.98423
#
# Poissons Ratio (x) = 0.35036 0.34792
# Poissons Ratio (y) = 0.36690 0.02645
# Poissons Ratio (z) = 0.12177 0.00884
#
# Static dielectric constant tensor:
#      x y z
#    x 1.608550 0.000000 0.000000 
#    y 0.000000 1.609160 0.000000 
#    z 0.000000 0.000000 1.660870 
# 
# From -- ./inp_files/42863.got.cif
#   From: 2010.05.17/outbox.cif.g08.bks.cpg/sg66_22_cif.got.tgz:42863.got - 2010.06.03 17:51:23.
