data_PCOD9495134
_publ_section_title
;
Structure prediction by ZEFSAII (Michael W. Deem and Ramdas Pophale) SiO2 
 PCOD9495134
Probable space group: C C C M
;
_chemical_formula_sum "Si O2"
_cell_formula_units_Z 88
_cell_length_a 25.344651
_cell_length_b 21.124467
_cell_length_c 8.704856
_cell_angle_alpha 90.000000
_cell_angle_beta 90.000000
_cell_angle_gamma 90.000000
_cell_volume 4660.512385
_symmetry_space_group_name_H-M "C C C M"
_symmetry_group_IT_number 66
_symmetry_cell_setting 'orthorhombic'
loop_
_space_group_symop_operation_xyz
x,y,z
-x,-y,z
x,-y,1/2-z
-x,y,1/2-z
-x,-y,-z
x,y,-z
-x,y,1/2+z
x,-y,1/2+z
1/2+x,1/2+y,z
1/2-x,1/2-y,z
1/2+x,1/2-y,1/2-z
1/2-x,1/2+y,1/2-z
1/2-x,1/2-y,-z
1/2+x,1/2+y,-z
1/2-x,1/2+y,1/2+z
1/2+x,1/2-y,1/2+z
loop_
_atom_site_type_symbol
_atom_site_label
_atom_site_fract_x
_atom_site_fract_y
_atom_site_fract_z
Si Si1 0.162584 0.566569 0.817036
Si Si2 0.613098 0.566652 0.185175
Si Si3 0.721874 0.383180 0.814055
Si Si4 0.942929 0.196041 0.317770
Si Si5 0.250000 0.750000 0.768893
Si Si6 0.366447 0.202129 0.673403
O O1 0.144872 0.500000 0.750000
O O2 0.225097 0.576853 0.789100
O O3 0.134661 0.630964 0.759956
O O4 0.155688 0.565829 0.000000
O O5 0.593236 0.500000 0.250000
O O6 0.670109 0.580630 0.260464
O O7 0.576812 0.626214 0.230063
O O8 0.617610 0.564206 0.000000
O O9 0.727924 0.318416 0.714080
O O10 0.718750 0.367796 0.000000
O O11 0.946293 0.196358 0.500000
O O12 0.899937 0.247416 0.265965
O O13 0.000000 0.210369 0.250000
O O14 0.305103 0.776367 0.837451
O O15 0.387498 0.200502 0.500000
#
# Coordination Sequence:
#
# PCOD9495134 Si02
#       6
#    16  16  16  16   8  16
#     4   9  19  32  51  82 118 156 193 227 275 338
#     4  11  24  39  56  82 113 148 193 240 291 341
#     4  10  18  31  53  81 116 156 195 232 277 336
#     4  11  25  43  62  86 113 147 193 243 294 344
#     4  10  17  30  57  88 117 154 193 230 283 346
#     4  10  19  35  60  87 115 152 194 235 282 342
#
# _framework density 18.882044
#
# number of rings (size 3 to 8) (size 9 to 14) (size 15 to 20)
#    0.000    1.818    1.818    4.364    0.000    5.455 
#    0.000    5.455    0.000    0.545    0.000    3.818 
#    0.000    0.000    0.000    0.000    0.000    0.000 
#
# Total GULP energy -245066.189672 kJ/mol
# GULP energy per Si atom -5569.686129 kJ/mol
# Density = 1.883907 g / cm^3
# Si number density = 18.882044 Si / 1000 Ang^3
#
#
#
# Elastic Constant Matrix: (Units=GPa)
#
#
# Indices 1 2 3 4 5 6 
#
# 1 77.7938 40.7780 22.0395 0.0000 0.0000 0.0000
# 2 40.7780 166.2757 28.2528 0.0000 0.0000 0.0000
# 3 22.0395 28.2528 24.8620 0.0000 0.0000 0.0000
# 4 0.0000 0.0000 0.0000 31.5200 0.0000 0.0000
# 5 0.0000 0.0000 0.0000 0.0000 -6.7991 0.0000
# 6 0.0000 0.0000 0.0000 0.0000 0.0000 13.3115
#
#
#
# Elastic Compliance Matrix: (Units=1/GPa)
#
#
# Indices 1 2 3 4 5 6 
#
# 1 0.017727 -0.002079 -0.013352 0.000000 0.000000 0.000000
# 2 -0.002079 0.007697 -0.006904 0.000000 0.000000 0.000000
# 3 -0.013352 -0.006904 0.059904 0.000000 0.000000 0.000000
# 4 0.000000 0.000000 0.000000 0.031726 0.000000 0.000000
# 5 0.000000 0.000000 0.000000 0.000000 -0.147078 0.000000
# 6 0.000000 0.000000 0.000000 0.000000 0.000000 0.075123
#
#
# Mechanical properties :
#
#
# Convention : Reuss Voigt Hill
#
# Bulk Modulus (GPa) = 24.59543 50.11912 37.35727
# Shear Modulus (GPa) = 48.39276 19.46389 33.92832
#
# Velocity S-wave (km/s) = 5.06800 3.21411 4.24353
# Velocity P-wave (km/s) = 6.87752 6.35413 6.62100
#
# Compressibility (1/GPa) = 0.04065796
#
# Stress axis : x y z
#
# Youngs Moduli (GPa) = 56.41156 129.92099 16.69339
#
# Poissons Ratio (x) = 0.27006 0.22289
# Poissons Ratio (y) = 0.11726 0.11525
# Poissons Ratio (z) = 0.75322 0.89698
#
# Static dielectric constant tensor:
#      x y z
#    x 1.608720 0.000000 0.000000 
#    y 0.000000 1.697800 0.000000 
#    z 0.000000 0.000000 1.664200 
# 
# From -- ./inp_files/7769.got.cif
#   From: 2010.05.17/outbox.cif.g08.bks.cpg/sg66_4_cif.got.tgz:7769.got - 2010.06.03 17:51:23.
