data_PCOD9495808
_publ_section_title
;
Structure prediction by ZEFSAII (Michael W. Deem and Ramdas Pophale) SiO2 
 PCOD9495808
Probable space group: C C C M
;
_chemical_formula_sum "Si O2"
_cell_formula_units_Z 112
_cell_length_a 21.226172
_cell_length_b 17.622269
_cell_length_c 17.104404
_cell_angle_alpha 90.000000
_cell_angle_beta 90.000000
_cell_angle_gamma 90.000000
_cell_volume 6397.958980
_symmetry_space_group_name_H-M "C C C M"
_symmetry_group_IT_number 66
_symmetry_cell_setting 'orthorhombic'
loop_
_space_group_symop_operation_xyz
x,y,z
-x,-y,z
x,-y,1/2-z
-x,y,1/2-z
-x,-y,-z
x,y,-z
-x,y,1/2+z
x,-y,1/2+z
1/2+x,1/2+y,z
1/2-x,1/2-y,z
1/2+x,1/2-y,1/2-z
1/2-x,1/2+y,1/2-z
1/2-x,1/2-y,-z
1/2+x,1/2+y,-z
1/2-x,1/2+y,1/2+z
1/2+x,1/2-y,1/2+z
loop_
_atom_site_type_symbol
_atom_site_label
_atom_site_fract_x
_atom_site_fract_y
_atom_site_fract_z
Si Si1 0.414891 0.876697 0.694189
Si Si2 0.233335 0.503214 0.411989
Si Si3 0.019269 0.676594 0.086942
Si Si4 0.344359 0.239908 0.407450
Si Si5 0.726542 0.167488 0.347297
Si Si6 0.263763 0.361367 0.328909
Si Si7 0.092508 0.458167 0.362923
O O1 0.469749 0.823908 0.658419
O O2 0.348736 0.840352 0.667562
O O3 0.405948 0.906091 0.783547
O O4 0.431681 0.958252 0.656357
O O5 0.251472 0.482638 0.500000
O O6 0.241750 0.592680 0.397925
O O7 0.267406 0.449617 0.349512
O O8 0.160512 0.479401 0.397964
O O9 0.081441 0.726733 0.103007
O O10 0.050101 0.592889 0.082696
O O11 0.992831 0.694634 0.000000
O O12 0.331852 0.239978 0.500000
O O13 0.321107 0.316385 0.367152
O O14 0.298816 0.175979 0.369284
O O15 0.750000 0.250000 0.376277
O O16 0.757959 0.154999 0.262385
#
# Coordination Sequence:
#
# PCOD9495808 Si02
#       7
#    16  16  16  16  16  16  16
#     4  10  21  34  50  71 105 148 186 221 265 324
#     4  11  21  34  56  81 108 144 187 236 281 328
#     4  11  21  32  48  76 111 144 180 220 271 331
#     4  10  19  30  52  83 112 139 177 230 282 331
#     4  11  22  37  55  78 110 150 192 230 280 341
#     4  11  18  34  56  79 108 141 180 231 287 333
#     4  10  19  33  50  72 103 143 187 225 255 315
#
# _framework density 17.505582
#
# number of rings (size 3 to 8) (size 9 to 14) (size 15 to 20)
#    0.000    1.429    4.286    3.429    0.000    4.857 
#    0.000    0.000    0.000    0.000    0.000    1.000 
#    0.000    5.714    0.000    0.000    0.000    0.000 
#
# Total GULP energy -311946.493671 kJ/mol
# GULP energy per Si atom -5570.473101 kJ/mol
# Density = 1.746574 g / cm^3
# Si number density = 17.505582 Si / 1000 Ang^3
#
#
#
# Elastic Constant Matrix: (Units=GPa)
#
#
# Indices 1 2 3 4 5 6 
#
# 1 55.0463 18.4491 10.9574 0.0000 0.0000 0.0000
# 2 18.4491 70.2042 3.0763 0.0000 0.0000 0.0000
# 3 10.9574 3.0763 35.4785 0.0000 0.0000 0.0000
# 4 0.0000 0.0000 0.0000 23.7121 0.0000 0.0000
# 5 0.0000 0.0000 0.0000 0.0000 23.6546 0.0000
# 6 0.0000 0.0000 0.0000 0.0000 0.0000 28.1143
#
#
#
# Elastic Compliance Matrix: (Units=1/GPa)
#
#
# Indices 1 2 3 4 5 6 
#
# 1 0.021149 -0.005292 -0.006073 0.000000 0.000000 0.000000
# 2 -0.005292 0.015623 0.000280 0.000000 0.000000 0.000000
# 3 -0.006073 0.000280 0.030037 0.000000 0.000000 0.000000
# 4 0.000000 0.000000 0.000000 0.042173 0.000000 0.000000
# 5 0.000000 0.000000 0.000000 0.000000 0.042275 0.000000
# 6 0.000000 0.000000 0.000000 0.000000 0.000000 0.035569
#
#
# Mechanical properties :
#
#
# Convention : Reuss Voigt Hill
#
# Bulk Modulus (GPa) = 22.40188 25.07717 23.73953
# Shear Modulus (GPa) = 22.33389 23.64595 22.98992
#
# Velocity S-wave (km/s) = 3.57573 3.67926 3.62787
# Velocity P-wave (km/s) = 5.46558 5.69260 5.58024
#
# Compressibility (1/GPa) = 0.04463910
#
# Stress axis : x y z
#
# Youngs Moduli (GPa) = 47.28375 64.01022 33.29180
#
# Poissons Ratio (x) = 0.33872 0.20218
# Poissons Ratio (y) = 0.25021 -0.00931
# Poissons Ratio (z) = 0.28715 -0.01790
#
# Static dielectric constant tensor:
#      x y z
#    x 1.628770 0.000000 0.000000 
#    y 0.000000 1.620640 0.000000 
#    z 0.000000 0.000000 1.651300 
# 
# From -- ./inp_files/43151.got.cif
#   From: 2010.05.17/outbox.cif.g08.bks.cpg/sg66_22_cif.got.tgz:43151.got - 2010.06.03 17:51:23.
