data_PCOD9495975
_publ_section_title
;
Structure prediction by ZEFSAII (Michael W. Deem and Ramdas Pophale) SiO2 
 PCOD9495975
Probable space group: C C C M
;
_chemical_formula_sum "Si O2"
_cell_formula_units_Z 80
_cell_length_a 14.479684
_cell_length_b 17.330567
_cell_length_c 17.999089
_cell_angle_alpha 90.000000
_cell_angle_beta 90.000000
_cell_angle_gamma 90.000000
_cell_volume 4516.711799
_symmetry_space_group_name_H-M "C C C M"
_symmetry_group_IT_number 66
_symmetry_cell_setting 'orthorhombic'
loop_
_space_group_symop_operation_xyz
x,y,z
-x,-y,z
x,-y,1/2-z
-x,y,1/2-z
-x,-y,-z
x,y,-z
-x,y,1/2+z
x,-y,1/2+z
1/2+x,1/2+y,z
1/2-x,1/2-y,z
1/2+x,1/2-y,1/2-z
1/2-x,1/2+y,1/2-z
1/2-x,1/2-y,-z
1/2+x,1/2+y,-z
1/2-x,1/2+y,1/2+z
1/2+x,1/2-y,1/2+z
loop_
_atom_site_type_symbol
_atom_site_label
_atom_site_fract_x
_atom_site_fract_y
_atom_site_fract_z
Si Si1 0.510786 0.207838 0.585872
Si Si2 0.245546 0.931263 0.197623
Si Si3 0.591118 0.048661 0.086712
Si Si4 0.427551 0.670765 0.190938
Si Si5 0.836011 0.700671 0.796518
O O1 0.536347 0.216259 0.500000
O O2 0.435679 0.139323 0.590695
O O3 0.475424 0.288059 0.621045
O O4 0.595115 0.181220 0.637477
O O5 0.317939 0.961451 0.136349
O O6 0.156225 0.884882 0.168840
O O7 0.300888 0.872196 0.250804
O O8 0.212784 0.000000 0.250000
O O9 0.500000 0.000000 0.110959
O O10 0.607323 0.028591 0.000000
O O11 0.500000 0.634319 0.250000
O O12 0.386130 0.742324 0.238414
O O13 0.750000 0.750000 0.826304
#
# Coordination Sequence:
#
# PCOD9495975 Si02
#       5
#    16  16  16  16  16
#     4  10  19  32  53  77 107 145 178 223 280 327
#     4  11  21  33  55  80 104 144 186 227 281 331
#     4  10  21  34  50  80 117 147 178 221 278 341
#     4   9  19  36  54  74 105 138 182 234 271 323
#     4   9  18  33  51  75 103 136 181 229 266 322
#
# _framework density 17.712
#
# number of rings (size 3 to 8) (size 9 to 14) (size 15 to 20)
#    0.000    2.200    2.000    1.200    0.000    3.600 
#    0.000    2.000    0.000    4.800    0.000   14.000 
#    0.000    0.000    0.000    0.000    0.000    0.000 
#
# Total GULP energy -223002.552646 kJ/mol
# GULP energy per Si atom -5575.063816 kJ/mol
# Density = 1.767169 g / cm^3
# Si number density = 17.712000 Si / 1000 Ang^3
#
#
#
# Elastic Constant Matrix: (Units=GPa)
#
#
# Indices 1 2 3 4 5 6 
#
# 1 61.2873 15.6528 18.0532 0.0000 0.0000 0.0000
# 2 15.6528 37.3274 12.0316 0.0000 0.0000 0.0000
# 3 18.0532 12.0316 53.9290 0.0000 0.0000 0.0000
# 4 0.0000 0.0000 0.0000 18.5702 0.0000 0.0000
# 5 0.0000 0.0000 0.0000 0.0000 7.1405 0.0000
# 6 0.0000 0.0000 0.0000 0.0000 0.0000 31.2852
#
#
#
# Elastic Compliance Matrix: (Units=1/GPa)
#
#
# Indices 1 2 3 4 5 6 
#
# 1 0.019477 -0.006536 -0.005062 0.000000 0.000000 0.000000
# 2 -0.006536 0.031059 -0.004741 0.000000 0.000000 0.000000
# 3 -0.005062 -0.004741 0.021295 0.000000 0.000000 0.000000
# 4 0.000000 0.000000 0.000000 0.053850 0.000000 0.000000
# 5 0.000000 0.000000 0.000000 0.000000 0.140047 0.000000
# 6 0.000000 0.000000 0.000000 0.000000 0.000000 0.031964
#
#
# Mechanical properties :
#
#
# Convention : Reuss Voigt Hill
#
# Bulk Modulus (GPa) = 25.54088 27.11320 26.32704
# Shear Modulus (GPa) = 14.55941 18.51958 16.53949
#
# Velocity S-wave (km/s) = 2.87018 3.23707 3.05913
# Velocity P-wave (km/s) = 5.04334 5.41411 5.23201
#
# Compressibility (1/GPa) = 0.03915292
#
# Stress axis : x y z
#
# Youngs Moduli (GPa) = 51.34284 32.19686 46.95888
#
# Poissons Ratio (x) = 0.21043 0.23770
# Poissons Ratio (y) = 0.33557 0.22265
# Poissons Ratio (z) = 0.25989 0.15266
#
# Static dielectric constant tensor:
#      x y z
#    x 1.638480 0.000000 0.000000 
#    y 0.000000 1.605720 0.000000 
#    z 0.000000 0.000000 1.582070 
# 
# From -- ./inp_files/28091.got.cif
#   From: 2010.05.17/outbox.cif.g08.bks.cpg/sg66_15_cif.got.tgz:28091.got - 2010.06.03 17:51:23.
