data_PCOD9495592
_publ_section_title
;
Structure prediction by ZEFSAII (Michael W. Deem and Ramdas Pophale) SiO2 
 PCOD9495592
Probable space group: C C C M
;
_chemical_formula_sum "Si O2"
_cell_formula_units_Z 112
_cell_length_a 9.489693
_cell_length_b 22.408548
_cell_length_c 24.502982
_cell_angle_alpha 90.000000
_cell_angle_beta 90.000000
_cell_angle_gamma 90.000000
_cell_volume 5210.565030
_symmetry_space_group_name_H-M "C C C M"
_symmetry_group_IT_number 66
_symmetry_cell_setting 'orthorhombic'
loop_
_space_group_symop_operation_xyz
x,y,z
-x,-y,z
x,-y,1/2-z
-x,y,1/2-z
-x,-y,-z
x,y,-z
-x,y,1/2+z
x,-y,1/2+z
1/2+x,1/2+y,z
1/2-x,1/2-y,z
1/2+x,1/2-y,1/2-z
1/2-x,1/2+y,1/2-z
1/2-x,1/2-y,-z
1/2+x,1/2+y,-z
1/2-x,1/2+y,1/2+z
1/2+x,1/2-y,1/2+z
loop_
_atom_site_type_symbol
_atom_site_label
_atom_site_fract_x
_atom_site_fract_y
_atom_site_fract_z
Si Si1 0.339154 0.994601 0.349089
Si Si2 0.880690 0.950224 0.938007
Si Si3 0.861897 0.829257 0.891726
Si Si4 0.841837 0.631415 0.674295
Si Si5 0.330736 0.870507 0.701731
Si Si6 0.773461 0.321252 0.939475
Si Si7 0.425697 0.212634 0.939924
O O1 0.308066 0.060851 0.328826
O O2 0.500000 0.000000 0.368112
O O3 0.242027 0.972061 0.398102
O O4 0.326712 0.942699 0.303717
O O5 0.937337 0.887021 0.915554
O O6 0.831879 0.942804 0.000000
O O7 0.000000 0.000000 0.936661
O O8 0.795335 0.842965 0.833410
O O9 0.720265 0.819357 0.927767
O O10 0.943115 0.767366 0.897930
O O11 0.811241 0.650373 0.736414
O O12 0.752620 0.657602 0.623246
O O13 0.014012 0.642594 0.674898
O O14 0.750000 0.250000 0.940926
O O15 0.942598 0.330749 0.941068
O O16 0.718773 0.343577 0.000000
O O17 0.421490 0.241096 0.000000
#
# Coordination Sequence:
#
# PCOD9495592 Si02
#       7
#    16  16  16  16  16  16  16
#     4   9  19  34  56  83 110 143 190 232 277 341
#     4  10  21  35  53  82 118 152 185 235 296 345
#     4  10  18  34  55  81 108 139 189 233 276 335
#     4  10  18  35  55  80 109 147 183 226 284 335
#     4   9  18  33  56  83 109 138 181 236 280 330
#     4  10  22  38  53  76 112 150 189 233 284 341
#     4  10  19  33  56  80 105 145 190 234 278 330
#
# _framework density 21.494789000000001
#
# number of rings (size 3 to 8) (size 9 to 14) (size 15 to 20)
#    0.000    2.286    1.429    2.143    0.000    3.714 
#    2.571    2.857    0.000   10.286    0.000    0.000 
#    0.000    0.000    0.000    0.000    0.000    0.000 
#
# Total GULP energy -311906.504313 kJ/mol
# GULP energy per Si atom -5569.759006 kJ/mol
# Density = 2.144587 g / cm^3
# Si number density = 21.494789 Si / 1000 Ang^3
#
#
#
# Elastic Constant Matrix: (Units=GPa)
#
#
# Indices 1 2 3 4 5 6 
#
# 1 20.5175 -6.7446 16.3004 0.0000 0.0000 0.0000
# 2 -6.7446 54.4052 34.2290 0.0000 0.0000 0.0000
# 3 16.3004 34.2290 167.4857 0.0000 0.0000 0.0000
# 4 0.0000 0.0000 0.0000 19.8091 0.0000 0.0000
# 5 0.0000 0.0000 0.0000 0.0000 23.9773 0.0000
# 6 0.0000 0.0000 0.0000 0.0000 0.0000 21.7769
#
#
#
# Elastic Compliance Matrix: (Units=1/GPa)
#
#
# Indices 1 2 3 4 5 6 
#
# 1 0.059560 0.012658 -0.008384 0.000000 0.000000 0.000000
# 2 0.012658 0.023783 -0.006092 0.000000 0.000000 0.000000
# 3 -0.008384 -0.006092 0.008032 0.000000 0.000000 0.000000
# 4 0.000000 0.000000 0.000000 0.050482 0.000000 0.000000
# 5 0.000000 0.000000 0.000000 0.000000 0.041706 0.000000
# 6 0.000000 0.000000 0.000000 0.000000 0.000000 0.045920
#
#
# Mechanical properties :
#
#
# Convention : Reuss Voigt Hill
#
# Bulk Modulus (GPa) = 11.39740 36.66423 24.03082
# Shear Modulus (GPa) = 19.05738 26.35421 22.70580
#
# Velocity S-wave (km/s) = 2.98082 3.50533 3.25366
# Velocity P-wave (km/s) = 4.14258 5.78597 5.03182
#
# Compressibility (1/GPa) = 0.08773931
#
# Stress axis : x y z
#
# Youngs Moduli (GPa) = 16.78968 42.04702 124.50651
#
# Poissons Ratio (x) = -0.53224 1.04382
# Poissons Ratio (y) = -0.21253 0.75855
# Poissons Ratio (z) = 0.14076 0.25617
#
# Static dielectric constant tensor:
#      x y z
#    x 1.843760 0.000000 0.000000 
#    y 0.000000 1.816020 0.000000 
#    z 0.000000 0.000000 1.819920 
# 
# From -- ./inp_files/57305.got.cif
#   From: 2010.05.17/outbox.cif.g08.bks.cpg/sg66_29_cif.got.tgz:57305.got - 2010.06.03 17:51:23.
