data_PCOD9495079
_publ_section_title
;
Structure prediction by ZEFSAII (Michael W. Deem and Ramdas Pophale) SiO2 
 PCOD9495079
Probable space group: C C C M
;
_chemical_formula_sum "Si O2"
_cell_formula_units_Z 88
_cell_length_a 12.970254
_cell_length_b 19.583126
_cell_length_c 14.755485
_cell_angle_alpha 90.000000
_cell_angle_beta 90.000000
_cell_angle_gamma 90.000000
_cell_volume 3747.865425
_symmetry_space_group_name_H-M "C C C M"
_symmetry_group_IT_number 66
_symmetry_cell_setting 'orthorhombic'
loop_
_space_group_symop_operation_xyz
x,y,z
-x,-y,z
x,-y,1/2-z
-x,y,1/2-z
-x,-y,-z
x,y,-z
-x,y,1/2+z
x,-y,1/2+z
1/2+x,1/2+y,z
1/2-x,1/2-y,z
1/2+x,1/2-y,1/2-z
1/2-x,1/2+y,1/2-z
1/2-x,1/2-y,-z
1/2+x,1/2+y,-z
1/2-x,1/2+y,1/2+z
1/2+x,1/2-y,1/2+z
loop_
_atom_site_type_symbol
_atom_site_label
_atom_site_fract_x
_atom_site_fract_y
_atom_site_fract_z
Si Si1 0.546338 0.136523 0.889717
Si Si2 0.464628 0.428484 0.351898
Si Si3 0.309382 0.108379 0.111090
Si Si4 0.734799 0.044483 0.109726
Si Si5 0.515679 0.276983 0.598815
Si Si6 0.250000 0.250000 0.862227
O O1 0.432405 0.106747 0.874191
O O2 0.637511 0.088208 0.856270
O O3 0.543856 0.214621 0.851858
O O4 0.555720 0.138873 0.000000
O O5 0.500000 0.500000 0.397766
O O6 0.500000 0.434637 0.250000
O O7 0.342633 0.423231 0.363164
O O8 0.511776 0.355827 0.377742
O O9 0.260780 0.170779 0.168419
O O10 0.266189 0.034795 0.137719
O O11 0.291180 0.119244 0.000000
O O12 0.728515 0.043351 0.000000
O O13 0.467828 0.275848 0.500000
O O14 0.635258 0.254721 0.595244
#
# Coordination Sequence:
#
# PCOD9495079 Si02
#       6
#    16  16  16  16  16   8
#     4   8  16  30  52  88 122 140 167 221 278 327
#     4  11  25  41  53  72 105 144 185 229 277 324
#     4   9  15  25  47  83 122 149 175 215 264 320
#     4  10  19  33  57  84 111 147 184 221 273 333
#     4  10  19  34  57  82 109 140 179 223 268 326
#     4  10  17  28  50  82 114 144 179 224 265 296
#
# _framework density 23.480031
#
# number of rings (size 3 to 8) (size 9 to 14) (size 15 to 20)
#    0.000    2.364    0.000    4.909    0.000    5.818 
#    0.000    4.545    0.000    0.000    0.000   15.273 
#    0.000    0.000    0.000    0.000    0.000    0.727 
#
# Total GULP energy -245103.616389 kJ/mol
# GULP energy per Si atom -5570.536736 kJ/mol
# Density = 2.342659 g / cm^3
# Si number density = 23.480031 Si / 1000 Ang^3
#
#
#
# Elastic Constant Matrix: (Units=GPa)
#
#
# Indices 1 2 3 4 5 6 
#
# 1 77.1298 37.9365 -9.3452 0.0000 0.0000 0.0000
# 2 37.9365 171.5551 20.2609 0.0000 0.0000 0.0000
# 3 -9.3452 20.2609 32.7831 0.0000 0.0000 0.0000
# 4 0.0000 0.0000 0.0000 25.3924 0.0000 0.0000
# 5 0.0000 0.0000 0.0000 0.0000 40.5246 0.0000
# 6 0.0000 0.0000 0.0000 0.0000 0.0000 48.3900
#
#
#
# Elastic Compliance Matrix: (Units=1/GPa)
#
#
# Indices 1 2 3 4 5 6 
#
# 1 0.016013 -0.004401 0.007285 0.000000 0.000000 0.000000
# 2 -0.004401 0.007498 -0.005888 0.000000 0.000000 0.000000
# 3 0.007285 -0.005888 0.036219 0.000000 0.000000 0.000000
# 4 0.000000 0.000000 0.000000 0.039382 0.000000 0.000000
# 5 0.000000 0.000000 0.000000 0.000000 0.024676 0.000000
# 6 0.000000 0.000000 0.000000 0.000000 0.000000 0.020665
#
#
# Mechanical properties :
#
#
# Convention : Reuss Voigt Hill
#
# Bulk Modulus (GPa) = 18.61519 42.13025 30.37272
# Shear Modulus (GPa) = 29.69654 38.36912 34.03283
#
# Velocity S-wave (km/s) = 3.56020 4.04681 3.81128
# Velocity P-wave (km/s) = 4.98451 6.31011 5.68607
#
# Compressibility (1/GPa) = 0.05371957
#
# Stress axis : x y z
#
# Youngs Moduli (GPa) = 62.45111 133.37398 27.60957
#
# Poissons Ratio (x) = 0.58701 -0.20113
# Poissons Ratio (y) = 0.27486 0.16258
# Poissons Ratio (z) = -0.45493 0.78536
#
# Static dielectric constant tensor:
#      x y z
#    x 1.811390 0.000000 0.000000 
#    y 0.000000 2.057330 0.000000 
#    z 0.000000 0.000000 1.953950 
# 
# From -- ./inp_files/48570.got.cif
#   From: 2010.05.17/outbox.cif.g08.bks.cpg/sg66_25_cif.got.tgz:48570.got - 2010.06.03 17:51:23.
