data_PCOD9495037
_publ_section_title
;
Structure prediction by ZEFSAII (Michael W. Deem and Ramdas Pophale) SiO2 
 PCOD9495037
Probable space group: C C C M
;
_chemical_formula_sum "Si O2"
_cell_formula_units_Z 96
_cell_length_a 7.486334
_cell_length_b 25.569803
_cell_length_c 18.702672
_cell_angle_alpha 90.000000
_cell_angle_beta 90.000000
_cell_angle_gamma 90.000000
_cell_volume 3580.141885
_symmetry_space_group_name_H-M "C C C M"
_symmetry_group_IT_number 66
_symmetry_cell_setting 'orthorhombic'
loop_
_space_group_symop_operation_xyz
x,y,z
-x,-y,z
x,-y,1/2-z
-x,y,1/2-z
-x,-y,-z
x,y,-z
-x,y,1/2+z
x,-y,1/2+z
1/2+x,1/2+y,z
1/2-x,1/2-y,z
1/2+x,1/2-y,1/2-z
1/2-x,1/2+y,1/2-z
1/2-x,1/2-y,-z
1/2+x,1/2+y,-z
1/2-x,1/2+y,1/2+z
1/2+x,1/2-y,1/2+z
loop_
_atom_site_type_symbol
_atom_site_label
_atom_site_fract_x
_atom_site_fract_y
_atom_site_fract_z
Si Si1 0.803901 0.193532 0.280195
Si Si2 0.689850 0.560933 0.078353
Si Si3 0.977852 0.224311 0.415832
Si Si4 0.783205 0.084823 0.260973
Si Si5 0.860017 0.330941 0.917163
Si Si6 0.238098 0.054225 0.611456
O O1 0.750000 0.250000 0.255275
O O2 0.708386 0.143386 0.247635
O O3 0.000000 0.186817 0.250000
O O4 0.834951 0.195981 0.365559
O O5 0.758889 0.578324 0.155895
O O6 0.472853 0.563616 0.090829
O O7 0.764429 0.501587 0.075578
O O8 0.725760 0.585455 0.000000
O O9 0.931405 0.224571 0.500000
O O10 0.022698 0.282794 0.385624
O O11 0.158476 0.190718 0.409117
O O12 0.728107 0.047518 0.196596
O O13 0.000000 0.082778 0.250000
O O14 0.848112 0.393260 0.905160
O O15 0.908069 0.326125 0.000000
#
# Coordination Sequence:
#
# PCOD9495037 Si02
#       6
#    16  16  16  16  16  16
#     4  11  24  37  56  81 112 149 189 232 284 341
#     4  10  18  28  44  71 106 142 183 225 278 344
#     4   9  19  33  51  76 107 144 186 232 280 336
#     4   9  19  32  46  70 102 144 175 224 281 332
#     4   9  16  28  51  78 106 144 185 228 279 332
#     4  10  17  27  45  69 104 141 183 226 278 329
#
# _framework density 26.814581
#
# number of rings (size 3 to 8) (size 9 to 14) (size 15 to 20)
#    0.000    2.333    0.000    6.500    4.667    4.333 
#    0.000    0.000    0.000    0.000    0.000    1.167 
#    0.000    4.000    0.000    0.000    0.000    0.000 
#
# Total GULP energy -267757.328558 kJ/mol
# GULP energy per Si atom -5578.277678 kJ/mol
# Density = 2.675355 g / cm^3
# Si number density = 26.814581 Si / 1000 Ang^3
#
#
#
# Elastic Constant Matrix: (Units=GPa)
#
#
# Indices 1 2 3 4 5 6 
#
# 1 68.4803 -2.1677 11.7417 0.0000 0.0000 0.0000
# 2 -2.1677 93.5167 29.9092 0.0000 0.0000 0.0000
# 3 11.7417 29.9092 184.7515 0.0000 0.0000 0.0000
# 4 0.0000 0.0000 0.0000 31.2056 0.0000 0.0000
# 5 0.0000 0.0000 0.0000 0.0000 -14.0203 0.0000
# 6 0.0000 0.0000 0.0000 0.0000 0.0000 10.7920
#
#
#
# Elastic Compliance Matrix: (Units=1/GPa)
#
#
# Indices 1 2 3 4 5 6 
#
# 1 0.014804 0.000679 -0.001051 0.000000 0.000000 0.000000
# 2 0.000679 0.011308 -0.001874 0.000000 0.000000 0.000000
# 3 -0.001051 -0.001874 0.005783 0.000000 0.000000 0.000000
# 4 0.000000 0.000000 0.000000 0.032046 0.000000 0.000000
# 5 0.000000 0.000000 0.000000 0.000000 -0.071325 0.000000
# 6 0.000000 0.000000 0.000000 0.000000 0.000000 0.092662
#
#
# Mechanical properties :
#
#
# Convention : Reuss Voigt Hill
#
# Bulk Modulus (GPa) = 36.49014 47.30167 41.89590
# Shear Modulus (GPa) = 50.55431 26.07980 38.31705
#
# Velocity S-wave (km/s) = 4.34675 3.12203 3.78426
# Velocity P-wave (km/s) = 6.23138 5.53847 5.89512
#
# Compressibility (1/GPa) = 0.02740466
#
# Stress axis : x y z
#
# Youngs Moduli (GPa) = 67.54743 88.43037 172.92603
#
# Poissons Ratio (x) = -0.06007 0.18172
# Poissons Ratio (y) = -0.04588 0.32404
# Poissons Ratio (z) = 0.07098 0.16571
#
# Static dielectric constant tensor:
#      x y z
#    x 2.138900 0.000000 0.000000 
#    y 0.000000 2.158560 0.000000 
#    z 0.000000 0.000000 2.106240 
# 
# From -- ./inp_files/48939.got.cif
#   From: 2010.05.17/outbox.cif.g08.bks.cpg/sg66_25_cif.got.tgz:48939.got - 2010.06.03 17:51:23.
