data_PCOD9495378
_publ_section_title
;
Structure prediction by ZEFSAII (Michael W. Deem and Ramdas Pophale) SiO2 
 PCOD9495378
Probable space group: C C C M
;
_chemical_formula_sum "Si O2"
_cell_formula_units_Z 56
_cell_length_a 5.775244
_cell_length_b 14.052709
_cell_length_c 30.077077
_cell_angle_alpha 90.000000
_cell_angle_beta 90.000000
_cell_angle_gamma 90.000000
_cell_volume 2440.990102
_symmetry_space_group_name_H-M "C C C M"
_symmetry_group_IT_number 66
_symmetry_cell_setting 'orthorhombic'
loop_
_space_group_symop_operation_xyz
x,y,z
-x,-y,z
x,-y,1/2-z
-x,y,1/2-z
-x,-y,-z
x,y,-z
-x,y,1/2+z
x,-y,1/2+z
1/2+x,1/2+y,z
1/2-x,1/2-y,z
1/2+x,1/2-y,1/2-z
1/2-x,1/2+y,1/2-z
1/2-x,1/2-y,-z
1/2+x,1/2+y,-z
1/2-x,1/2+y,1/2+z
1/2+x,1/2-y,1/2+z
loop_
_atom_site_type_symbol
_atom_site_label
_atom_site_fract_x
_atom_site_fract_y
_atom_site_fract_z
Si Si1 0.848360 0.904034 0.368262
Si Si2 0.121800 0.849944 0.547266
Si Si3 0.000000 0.500000 0.928087
Si Si4 0.748652 0.610942 0.733197
O O1 0.618824 0.925581 0.395529
O O2 0.772261 0.873303 0.319597
O O3 0.992669 0.847691 0.405445
O O4 0.000000 0.000000 0.360905
O O5 0.984365 0.859111 0.500000
O O6 0.250000 0.750000 0.544819
O O7 0.298243 0.940082 0.548206
O O8 0.748800 0.500000 0.750000
O O9 0.500000 0.648340 0.750000
O O10 0.000000 0.646087 0.750000
#
# Coordination Sequence:
#
# PCOD9495378 Si02
#       4
#    16  16   8  16
#     4  10  20  35  58  95 127 165 219 273 331 407
#     4  10  23  41  61  92 133 176 226 282 342 416
#     4  10  21  36  65  90 124 170 217 274 339 406
#     4  10  18  30  56  92 132 163 215 273 337 411
#
# _framework density 22.941510000000001
#
# number of rings (size 3 to 8) (size 9 to 14) (size 15 to 20)
#    0.000    2.000    2.857    2.143    4.000    7.429 
#    0.000    2.857    0.000    0.000    7.429    0.000 
#    0.000    0.000    0.000    0.000    0.000    0.000 
#
# Total GULP energy -155934.557078 kJ/mol
# GULP energy per Si atom -5569.091324 kJ/mol
# Density = 2.288929 g / cm^3
# Si number density = 22.941510 Si / 1000 Ang^3
#
#
#
# Elastic Constant Matrix: (Units=GPa)
#
#
# Indices 1 2 3 4 5 6 
#
# 1 135.6798 11.8209 78.3342 0.0000 0.0000 0.0000
# 2 11.8209 79.6849 39.6373 0.0000 0.0000 0.0000
# 3 78.3342 39.6373 258.2901 0.0000 0.0000 0.0000
# 4 0.0000 0.0000 0.0000 14.4559 0.0000 0.0000
# 5 0.0000 0.0000 0.0000 0.0000 50.2193 0.0000
# 6 0.0000 0.0000 0.0000 0.0000 0.0000 -3.9811
#
#
#
# Elastic Compliance Matrix: (Units=1/GPa)
#
#
# Indices 1 2 3 4 5 6 
#
# 1 0.008935 0.000024 -0.002713 0.000000 0.000000 0.000000
# 2 0.000024 0.013587 -0.002092 0.000000 0.000000 0.000000
# 3 -0.002713 -0.002092 0.005016 0.000000 0.000000 0.000000
# 4 0.000000 0.000000 0.000000 0.069176 0.000000 0.000000
# 5 0.000000 0.000000 0.000000 0.000000 0.019913 0.000000
# 6 0.000000 0.000000 0.000000 0.000000 0.000000 -0.251187
#
#
# Mechanical properties :
#
#
# Convention : Reuss Voigt Hill
#
# Bulk Modulus (GPa) = 55.63597 81.47106 68.55351
# Shear Modulus (GPa) = -42.01433 35.06298 -3.47568
#
# Velocity S-wave (km/s) = -4.28409 3.91367 -1.23220
# Velocity P-wave (km/s) = 0.40911 7.48412 5.28416
#
# Compressibility (1/GPa) = 0.01797398
#
# Stress axis : x y z
#
# Youngs Moduli (GPa) = 111.92202 73.60184 199.37578
#
# Poissons Ratio (x) = -0.00179 0.54100
# Poissons Ratio (y) = -0.00272 0.41717
# Poissons Ratio (z) = 0.30370 0.15400
#
# Static dielectric constant tensor:
#      x y z
#    x 1.917250 0.000000 0.000000 
#    y 0.000000 1.881990 0.000000 
#    z 0.000000 0.000000 1.881390 
# 
# From -- ./inp_files/64887.got.cif
#   From: 2010.05.17/outbox.cif.g08.bks.cpg/sg66_33_cif.got.tgz:64887.got - 2010.06.03 17:51:23.
