data_PCOD9495879
_publ_section_title
;
Structure prediction by ZEFSAII (Michael W. Deem and Ramdas Pophale) SiO2 
 PCOD9495879
Probable space group: C C C M
;
_chemical_formula_sum "Si O2"
_cell_formula_units_Z 88
_cell_length_a 13.476827
_cell_length_b 24.331453
_cell_length_c 15.353425
_cell_angle_alpha 90.000000
_cell_angle_beta 90.000000
_cell_angle_gamma 90.000000
_cell_volume 5034.553609
_symmetry_space_group_name_H-M "C C C M"
_symmetry_group_IT_number 66
_symmetry_cell_setting 'orthorhombic'
loop_
_space_group_symop_operation_xyz
x,y,z
-x,-y,z
x,-y,1/2-z
-x,y,1/2-z
-x,-y,-z
x,y,-z
-x,y,1/2+z
x,-y,1/2+z
1/2+x,1/2+y,z
1/2-x,1/2-y,z
1/2+x,1/2-y,1/2-z
1/2-x,1/2+y,1/2-z
1/2-x,1/2-y,-z
1/2+x,1/2+y,-z
1/2-x,1/2+y,1/2+z
1/2+x,1/2-y,1/2+z
loop_
_atom_site_type_symbol
_atom_site_label
_atom_site_fract_x
_atom_site_fract_y
_atom_site_fract_z
Si Si1 0.620112 0.935892 0.746677
Si Si2 0.402247 0.682296 0.789202
Si Si3 0.233635 0.369037 0.397556
Si Si4 0.750000 0.750000 0.833741
Si Si5 0.629620 0.147377 0.600822
Si Si6 0.062284 0.713701 0.900012
O O1 0.500000 0.933038 0.750000
O O2 0.669090 0.911120 0.659557
O O3 0.657053 0.898960 0.828631
O O4 0.646997 0.000000 0.750000
O O5 0.500000 0.653925 0.750000
O O6 0.337325 0.642999 0.850552
O O7 0.327213 0.713700 0.723342
O O8 0.447387 0.732608 0.843952
O O9 0.241278 0.382951 0.500000
O O10 0.171003 0.312251 0.391510
O O11 0.692392 0.796735 0.887429
O O12 0.633781 0.128948 0.500000
O O13 0.517876 0.167366 0.622603
O O14 0.044850 0.728019 0.000000
#
# Coordination Sequence:
#
# PCOD9495879 Si02
#       6
#    16  16  16   8  16  16
#     4  11  23  39  61  90 121 154 199 249 296 353
#     4  12  21  32  55  83 117 154 196 241 291 351
#     4  11  22  38  58  83 116 156 199 242 293 353
#     4  12  21  34  57  82 120 160 195 236 299 364
#     4  11  22  37  56  85 123 161 195 236 292 357
#     4  10  19  31  51  81 118 156 191 229 280 346
#
# _framework density 17.479206000000001
#
# number of rings (size 3 to 8) (size 9 to 14) (size 15 to 20)
#    0.000    0.909    7.273    0.818    0.000    2.182 
#    0.000    1.818    0.000    0.545    0.000    1.273 
#    0.000    0.000    0.000    0.000    0.000    0.000 
#
# Total GULP energy -245445.156321 kJ/mol
# GULP energy per Si atom -5578.299007 kJ/mol
# Density = 1.743942 g / cm^3
# Si number density = 17.479206 Si / 1000 Ang^3
#
#
#
# Elastic Constant Matrix: (Units=GPa)
#
#
# Indices 1 2 3 4 5 6 
#
# 1 94.1406 23.5178 53.5773 0.0000 0.0000 0.0000
# 2 23.5178 72.0007 63.0901 0.0000 0.0000 0.0000
# 3 53.5773 63.0901 87.9060 0.0000 0.0000 0.0000
# 4 0.0000 0.0000 0.0000 3.2088 0.0000 0.0000
# 5 0.0000 0.0000 0.0000 0.0000 28.0267 0.0000
# 6 0.0000 0.0000 0.0000 0.0000 0.0000 60.0463
#
#
#
# Elastic Compliance Matrix: (Units=1/GPa)
#
#
# Indices 1 2 3 4 5 6 
#
# 1 0.018819 0.010518 -0.019018 0.000000 0.000000 0.000000
# 2 0.010518 0.043302 -0.037488 0.000000 0.000000 0.000000
# 3 -0.019018 -0.037488 0.049873 0.000000 0.000000 0.000000
# 4 0.000000 0.000000 0.000000 0.311643 0.000000 0.000000
# 5 0.000000 0.000000 0.000000 0.000000 0.035680 0.000000
# 6 0.000000 0.000000 0.000000 0.000000 0.000000 0.016654
#
#
# Mechanical properties :
#
#
# Convention : Reuss Voigt Hill
#
# Bulk Modulus (GPa) = 49.96096 59.37975 54.67035
# Shear Modulus (GPa) = 8.70140 25.84717 17.27428
#
# Velocity S-wave (km/s) = 2.23360 3.84961 3.14710
# Velocity P-wave (km/s) = 5.94113 7.33517 6.67465
#
# Compressibility (1/GPa) = 0.02001563
#
# Stress axis : x y z
#
# Youngs Moduli (GPa) = 53.13911 23.09346 20.05111
#
# Poissons Ratio (x) = -0.24289 0.38134
# Poissons Ratio (y) = -0.55891 0.75169
# Poissons Ratio (z) = 1.01061 0.86574
#
# Static dielectric constant tensor:
#      x y z
#    x 1.867920 0.000000 0.000000 
#    y 0.000000 1.568270 0.000000 
#    z 0.000000 0.000000 1.629100 
# 
# From -- ./inp_files/26541.got.cif
#   From: 2010.05.17/outbox.cif.g08.bks.cpg/sg66_14_cif.got.tgz:26541.got - 2010.06.03 17:51:23.
