data_PCOD9495067
_publ_section_title
;
Structure prediction by ZEFSAII (Michael W. Deem and Ramdas Pophale) SiO2 
 PCOD9495067
Probable space group: C C C M
;
_chemical_formula_sum "Si O2"
_cell_formula_units_Z 112
_cell_length_a 14.209226
_cell_length_b 15.346628
_cell_length_c 31.213855
_cell_angle_alpha 90.000000
_cell_angle_beta 90.000000
_cell_angle_gamma 90.000000
_cell_volume 6806.608887
_symmetry_space_group_name_H-M "C C C M"
_symmetry_group_IT_number 66
_symmetry_cell_setting 'orthorhombic'
loop_
_space_group_symop_operation_xyz
x,y,z
-x,-y,z
x,-y,1/2-z
-x,y,1/2-z
-x,-y,-z
x,y,-z
-x,y,1/2+z
x,-y,1/2+z
1/2+x,1/2+y,z
1/2-x,1/2-y,z
1/2+x,1/2-y,1/2-z
1/2-x,1/2+y,1/2-z
1/2-x,1/2-y,-z
1/2+x,1/2+y,-z
1/2-x,1/2+y,1/2+z
1/2+x,1/2-y,1/2+z
loop_
_atom_site_type_symbol
_atom_site_label
_atom_site_fract_x
_atom_site_fract_y
_atom_site_fract_z
Si Si1 0.360650 0.274581 0.317550
Si Si2 0.896145 0.976376 0.699741
Si Si3 0.113830 0.494684 0.500000
Si Si4 0.386886 0.004599 0.594080
Si Si5 0.894026 0.616701 0.260441
Si Si6 0.696507 0.962431 0.817507
Si Si7 0.144313 0.711519 0.000000
Si Si8 0.356144 0.211733 0.592577
O O1 0.250000 0.250000 0.318738
O O2 0.376910 0.374411 0.306760
O O3 0.400169 0.210724 0.281696
O O4 0.400509 0.251253 0.364565
O O5 0.893071 0.000000 0.750000
O O6 0.808250 0.026852 0.679394
O O7 0.000000 0.000000 0.683465
O O8 0.143334 0.529546 0.546828
O O9 0.145113 0.393556 0.500000
O O10 0.000000 0.500000 0.500000
O O11 0.356815 0.106734 0.597109
O O12 0.500000 0.000000 0.596137
O O13 0.346588 0.956036 0.635423
O O14 0.834097 0.610621 0.216753
O O15 0.845991 0.550036 0.294394
O O16 0.000000 0.589934 0.250000
O O17 0.250000 0.750000 0.000000
O O18 0.100224 0.735076 0.953886
O O19 0.250000 0.250000 0.591103
#
# Coordination Sequence:
#
# PCOD9495067 Si02
#       8
#    16  16   8  16  16  16   8  16
#     4  11  19  35  53  73  98 135 176 210 250 311
#     4  11  23  38  53  70  98 140 174 214 262 305
#     4   8  16  26  40  68 106 137 162 195 252 315
#     4  10  17  28  47  74 106 137 165 206 258 309
#     4  11  21  30  48  75 102 131 168 210 251 295
#     4  11  18  35  49  71 104 133 170 209 255 305
#     4   8  14  24  40  66  98 123 156 205 248 285
#     4   9  16  27  45  70  97 129 165 203 246 296
#
# _framework density 16.454595999999999
#
# number of rings (size 3 to 8) (size 9 to 14) (size 15 to 20)
#    0.000    1.857    4.286    2.571    2.000    0.000 
#    0.000    0.000    0.000    0.000    0.000    2.000 
#    0.000    0.000    0.000   15.071    0.000    1.429 
#
# Total GULP energy -311743.166678 kJ/mol
# GULP energy per Si atom -5566.842262 kJ/mol
# Density = 1.641714 g / cm^3
# Si number density = 16.454596 Si / 1000 Ang^3
#
#
#
# Elastic Constant Matrix: (Units=GPa)
#
#
# Indices 1 2 3 4 5 6 
#
# 1 83.2325 11.3521 22.8927 0.0000 0.0000 0.0000
# 2 11.3521 51.6760 30.4902 0.0000 0.0000 0.0000
# 3 22.8927 30.4902 165.8860 0.0000 0.0000 0.0000
# 4 0.0000 0.0000 0.0000 15.1763 0.0000 0.0000
# 5 0.0000 0.0000 0.0000 0.0000 13.4153 0.0000
# 6 0.0000 0.0000 0.0000 0.0000 0.0000 14.0252
#
#
#
# Elastic Compliance Matrix: (Units=1/GPa)
#
#
# Indices 1 2 3 4 5 6 
#
# 1 0.012664 -0.001964 -0.001387 0.000000 0.000000 0.000000
# 2 -0.001964 0.022010 -0.003774 0.000000 0.000000 0.000000
# 3 -0.001387 -0.003774 0.006913 0.000000 0.000000 0.000000
# 4 0.000000 0.000000 0.000000 0.065892 0.000000 0.000000
# 5 0.000000 0.000000 0.000000 0.000000 0.074542 0.000000
# 6 0.000000 0.000000 0.000000 0.000000 0.000000 0.071300
#
#
# Mechanical properties :
#
#
# Convention : Reuss Voigt Hill
#
# Bulk Modulus (GPa) = 36.58034 47.80718 42.19376
# Shear Modulus (GPa) = 18.07122 24.26067 21.16595
#
# Velocity S-wave (km/s) = 3.31758 3.84396 3.59043
# Velocity P-wave (km/s) = 6.07902 6.98702 6.54877
#
# Compressibility (1/GPa) = 0.02733709
#
# Stress axis : x y z
#
# Youngs Moduli (GPa) = 78.96541 45.43434 144.64769
#
# Poissons Ratio (x) = 0.08922 0.20058
# Poissons Ratio (y) = 0.15507 0.54596
# Poissons Ratio (z) = 0.10950 0.17149
#
# Static dielectric constant tensor:
#      x y z
#    x 1.565990 0.000000 0.000000 
#    y 0.000000 1.565630 0.000000 
#    z 0.000000 0.000000 1.619690 
# 
# From -- ./inp_files/69684.got.cif
#   From: 2010.05.17/outbox.cif.g08.bks.cpg/sg66_35_cif.got.tgz:69684.got - 2010.06.03 17:51:23.
