data_PCOD9495452
_publ_section_title
;
Structure prediction by ZEFSAII (Michael W. Deem and Ramdas Pophale) SiO2 
 PCOD9495452
Probable space group: C C C M
;
_chemical_formula_sum "Si O2"
_cell_formula_units_Z 88
_cell_length_a 28.326267
_cell_length_b 18.194353
_cell_length_c 9.638357
_cell_angle_alpha 90.000000
_cell_angle_beta 90.000000
_cell_angle_gamma 90.000000
_cell_volume 4967.398127
_symmetry_space_group_name_H-M "C C C M"
_symmetry_group_IT_number 66
_symmetry_cell_setting 'orthorhombic'
loop_
_space_group_symop_operation_xyz
x,y,z
-x,-y,z
x,-y,1/2-z
-x,y,1/2-z
-x,-y,-z
x,y,-z
-x,y,1/2+z
x,-y,1/2+z
1/2+x,1/2+y,z
1/2-x,1/2-y,z
1/2+x,1/2-y,1/2-z
1/2-x,1/2+y,1/2-z
1/2-x,1/2-y,-z
1/2+x,1/2+y,-z
1/2-x,1/2+y,1/2+z
1/2+x,1/2-y,1/2+z
loop_
_atom_site_type_symbol
_atom_site_label
_atom_site_fract_x
_atom_site_fract_y
_atom_site_fract_z
Si Si1 0.687302 0.626895 0.154390
Si Si2 0.622789 0.500000 0.250000
Si Si3 0.541534 0.600958 0.650570
Si Si4 0.452128 0.775870 0.834318
Si Si5 0.770225 0.666519 0.340722
Si Si6 0.358170 0.787966 0.334598
O O1 0.654798 0.555524 0.163150
O O2 0.728139 0.621800 0.268748
O O3 0.656624 0.701282 0.177700
O O4 0.708257 0.634792 0.000000
O O5 0.588088 0.552992 0.334843
O O6 0.500000 0.578664 0.750000
O O7 0.520618 0.592824 0.500000
O O8 0.551901 0.687009 0.672046
O O9 0.500000 0.795767 0.750000
O O10 0.406296 0.802851 0.749754
O O11 0.453271 0.795239 0.000000
O O12 0.780124 0.645095 0.500000
O O13 0.750000 0.750000 0.343618
O O14 0.815957 0.668831 0.242451
O O15 0.361993 0.803221 0.500000
#
# Coordination Sequence:
#
# PCOD9495452 Si02
#       6
#    16   8  16  16  16  16
#     4  10  21  33  47  67  90 118 155 197 241 286
#     4  12  21  34  48  68  90 124 161 204 242 284
#     4  10  22  35  47  61  85 121 163 205 241 279
#     4  10  19  32  47  67  92 121 157 197 239 281
#     4   9  18  32  50  69  88 112 146 191 238 287
#     4  10  18  32  51  69  89 117 152 193 239 287
#
# _framework density 17.715512
#
# number of rings (size 3 to 8) (size 9 to 14) (size 15 to 20)
#    0.000    2.000    1.818    2.455    0.000    7.273 
#    0.000    0.000    0.000    0.000    0.000    0.000 
#    0.000    0.000    0.000    0.818    0.000   12.182 
#
# Total GULP energy -245253.847605 kJ/mol
# GULP energy per Si atom -5573.951082 kJ/mol
# Density = 1.767519 g / cm^3
# Si number density = 17.715512 Si / 1000 Ang^3
#
#
#
# Elastic Constant Matrix: (Units=GPa)
#
#
# Indices 1 2 3 4 5 6 
#
# 1 130.7552 11.8683 84.8325 0.0000 0.0000 0.0000
# 2 11.8683 8.8156 8.3007 0.0000 0.0000 0.0000
# 3 84.8325 8.3007 150.8017 0.0000 0.0000 0.0000
# 4 0.0000 0.0000 0.0000 12.8638 0.0000 0.0000
# 5 0.0000 0.0000 0.0000 0.0000 33.1323 0.0000
# 6 0.0000 0.0000 0.0000 0.0000 0.0000 -9.1689
#
#
#
# Elastic Compliance Matrix: (Units=1/GPa)
#
#
# Indices 1 2 3 4 5 6 
#
# 1 0.013015 -0.011209 -0.006705 0.000000 0.000000 0.000000
# 2 -0.011209 0.129290 -0.000811 0.000000 0.000000 0.000000
# 3 -0.006705 -0.000811 0.010448 0.000000 0.000000 0.000000
# 4 0.000000 0.000000 0.000000 0.077737 0.000000 0.000000
# 5 0.000000 0.000000 0.000000 0.000000 0.030182 0.000000
# 6 0.000000 0.000000 0.000000 0.000000 0.000000 -0.109065
#
#
# Mechanical properties :
#
#
# Convention : Reuss Voigt Hill
#
# Bulk Modulus (GPa) = 8.67281 55.59729 32.13505
# Shear Modulus (GPa) = 21.97892 19.72351 20.85122
#
# Velocity S-wave (km/s) = 3.52612 3.34031 3.43447
# Velocity P-wave (km/s) = 4.63511 6.80650 5.82291
#
# Compressibility (1/GPa) = 0.11530283
#
# Stress axis : x y z
#
# Youngs Moduli (GPa) = 76.83344 7.73458 95.71668
#
# Poissons Ratio (x) = 0.08670 0.64174
# Poissons Ratio (y) = 0.86123 0.07763
# Poissons Ratio (z) = 0.51514 0.00627
#
# Static dielectric constant tensor:
#      x y z
#    x 1.602230 0.000000 0.000000 
#    y 0.000000 1.599990 0.000000 
#    z 0.000000 0.000000 1.623310 
# 
# From -- ./inp_files/8009.got.cif
#   From: 2010.05.17/outbox.cif.g08.bks.cpg/sg66_5_cif.got.tgz:8009.got - 2010.06.03 17:51:23.
