data_PCOD9495295
_publ_section_title
;
Structure prediction by ZEFSAII (Michael W. Deem and Ramdas Pophale) SiO2 
 PCOD9495295
Probable space group: C C C M
;
_chemical_formula_sum "Si O2"
_cell_formula_units_Z 52
_cell_length_a 8.796817
_cell_length_b 31.177461
_cell_length_c 8.912122
_cell_angle_alpha 90.000000
_cell_angle_beta 90.000000
_cell_angle_gamma 90.000000
_cell_volume 2444.260138
_symmetry_space_group_name_H-M "C C C M"
_symmetry_group_IT_number 66
_symmetry_cell_setting 'orthorhombic'
loop_
_space_group_symop_operation_xyz
x,y,z
-x,-y,z
x,-y,1/2-z
-x,y,1/2-z
-x,-y,-z
x,y,-z
-x,y,1/2+z
x,-y,1/2+z
1/2+x,1/2+y,z
1/2-x,1/2-y,z
1/2+x,1/2-y,1/2-z
1/2-x,1/2+y,1/2-z
1/2-x,1/2-y,-z
1/2+x,1/2+y,-z
1/2-x,1/2+y,1/2+z
1/2+x,1/2-y,1/2+z
loop_
_atom_site_type_symbol
_atom_site_label
_atom_site_fract_x
_atom_site_fract_y
_atom_site_fract_z
Si Si1 0.166671 0.204368 0.677889
Si Si2 0.289822 0.457502 0.334007
Si Si3 0.500000 0.000000 0.750000
Si Si4 0.831486 0.623304 0.820563
O O1 0.156669 0.194554 0.500000
O O2 0.250000 0.250000 0.694705
O O3 0.262416 0.167676 0.760822
O O4 0.000000 0.206419 0.750000
O O5 0.348798 0.500000 0.250000
O O6 0.354243 0.451317 0.500000
O O7 0.281249 0.414653 0.236383
O O8 0.111699 0.470689 0.344884
O O9 0.000000 0.618632 0.750000
O O10 0.841842 0.622142 0.000000
#
# Coordination Sequence:
#
# PCOD9495295 Si02
#       4
#    16  16   4  16
#     4  11  25  45  68  93 122 156 197 246 301 362
#     4  10  18  29  49  79 118 159 203 251 300 351
#     4   8  18  24  46  72 116 156 198 248 296 340
#     4  12  23  36  59  90 125 163 205 252 304 358
#
# _framework density 21.274329999999999
#
# number of rings (size 3 to 8) (size 9 to 14) (size 15 to 20)
#    0.923    0.308    1.538    6.000    0.000    4.923 
#    0.000    0.000    0.000    0.923    0.000    6.462 
#    0.000    0.000    0.000    0.000    0.000    0.000 
#
# Total GULP energy -145118.571418 kJ/mol
# GULP energy per Si atom -5581.483516 kJ/mol
# Density = 2.122591 g / cm^3
# Si number density = 21.274330 Si / 1000 Ang^3
#
#
#
# Elastic Constant Matrix: (Units=GPa)
#
#
# Indices 1 2 3 4 5 6 
#
# 1 90.4250 36.1759 47.5822 0.0000 0.0000 0.0000
# 2 36.1759 157.7849 100.8471 0.0000 0.0000 0.0000
# 3 47.5822 100.8471 230.3089 0.0000 0.0000 0.0000
# 4 0.0000 0.0000 0.0000 -231.7031 0.0000 0.0000
# 5 0.0000 0.0000 0.0000 0.0000 -1.6976 0.0000
# 6 0.0000 0.0000 0.0000 0.0000 0.0000 -118.1746
#
#
#
# Elastic Compliance Matrix: (Units=1/GPa)
#
#
# Indices 1 2 3 4 5 6 
#
# 1 0.012735 -0.001719 -0.001878 0.000000 0.000000 0.000000
# 2 -0.001719 0.009033 -0.003600 0.000000 0.000000 0.000000
# 3 -0.001878 -0.003600 0.006306 0.000000 0.000000 0.000000
# 4 0.000000 0.000000 0.000000 -0.004316 0.000000 0.000000
# 5 0.000000 0.000000 0.000000 0.000000 -0.589079 0.000000
# 6 0.000000 0.000000 0.000000 0.000000 0.000000 -0.008462
#
#
# Mechanical properties :
#
#
# Convention : Reuss Voigt Hill
#
# Bulk Modulus (GPa) = 73.10429 94.19214 83.64822
# Shear Modulus (GPa) = -9.01180 -50.72083 -29.86632
#
# Velocity S-wave (km/s) = -2.06039 -4.88806 -3.75089
# Velocity P-wave (km/s) = 5.36442 3.53747 4.54372
#
# Compressibility (1/GPa) = 0.01367909
#
# Stress axis : x y z
#
# Youngs Moduli (GPa) = 78.52331 110.70615 158.56819
#
# Poissons Ratio (x) = 0.19034 0.29783
# Poissons Ratio (y) = 0.13501 0.57086
# Poissons Ratio (z) = 0.14748 0.39855
#
# Static dielectric constant tensor:
#      x y z
#    x 1.808160 0.000000 0.000000 
#    y 0.000000 1.757610 0.000000 
#    z 0.000000 0.000000 1.772700 
# 
# From -- ./inp_files/3845.got.cif
#   From: 2010.05.17/outbox.cif.g08.bks.cpg/sg66_2_cif.got.tgz:3845.got - 2010.06.03 17:51:23.
