data_PCOD9495179
_publ_section_title
;
Structure prediction by ZEFSAII (Michael W. Deem and Ramdas Pophale) SiO2 
 PCOD9495179
Probable space group: C C C M
;
_chemical_formula_sum "Si O2"
_cell_formula_units_Z 84
_cell_length_a 19.427808
_cell_length_b 9.290569
_cell_length_c 20.781394
_cell_angle_alpha 90.000000
_cell_angle_beta 90.000000
_cell_angle_gamma 90.000000
_cell_volume 3750.945830
_symmetry_space_group_name_H-M "C C C M"
_symmetry_group_IT_number 66
_symmetry_cell_setting 'orthorhombic'
loop_
_space_group_symop_operation_xyz
x,y,z
-x,-y,z
x,-y,1/2-z
-x,y,1/2-z
-x,-y,-z
x,y,-z
-x,y,1/2+z
x,-y,1/2+z
1/2+x,1/2+y,z
1/2-x,1/2-y,z
1/2+x,1/2-y,1/2-z
1/2-x,1/2+y,1/2-z
1/2-x,1/2-y,-z
1/2+x,1/2+y,-z
1/2-x,1/2+y,1/2+z
1/2+x,1/2-y,1/2+z
loop_
_atom_site_type_symbol
_atom_site_label
_atom_site_fract_x
_atom_site_fract_y
_atom_site_fract_z
Si Si1 0.351323 0.658682 0.925982
Si Si2 0.213728 0.882310 0.705126
Si Si3 0.043598 0.145808 0.000000
Si Si4 0.700239 0.956146 0.394927
Si Si5 0.000000 0.000000 0.250000
Si Si6 0.825138 0.684415 0.000000
Si Si7 0.418762 0.620312 0.366255
O O1 0.345456 0.812705 0.891216
O O2 0.273563 0.594813 0.925507
O O3 0.399405 0.539965 0.893056
O O4 0.372446 0.683253 0.000000
O O5 0.250000 0.750000 0.740100
O O6 0.157490 0.825288 0.654216
O O7 0.178430 0.000000 0.750000
O O8 0.273939 0.970739 0.670034
O O9 0.126339 0.175366 0.000000
O O10 0.037881 0.195522 0.075805
O O11 0.000000 0.000000 0.000000
O O12 0.666702 0.076393 0.440143
O O13 0.040629 0.898266 0.300116
O O14 0.750000 0.750000 0.000000
#
# Coordination Sequence:
#
# PCOD9495179 Si02
#       7
#    16  16   8  16   4   8  16
#     4  10  17  33  60  93 124 164 205 255 326 396
#     4  11  24  37  57  92 130 172 211 265 329 396
#     4  12  24  39  63  91 119 162 215 279 323 384
#     4  10  19  32  55  90 132 163 199 257 329 399
#     4  12  24  42  60  88 118 166 212 262 314 366
#     4  12  20  34  59  95 131 160 199 271 344 384
#     4  11  23  40  62  87 123 161 218 262 316 384
#
# _framework density 22.394352000000001
#
# number of rings (size 3 to 8) (size 9 to 14) (size 15 to 20)
#    0.000    1.143    4.762    4.571    5.333    0.000 
#    0.000    0.000    0.000    2.286    0.000    8.667 
#    0.000    0.000    0.000    0.000    0.000    0.000 
#
# Total GULP energy -233921.354736 kJ/mol
# GULP energy per Si atom -5569.556065 kJ/mol
# Density = 2.234338 g / cm^3
# Si number density = 22.394352 Si / 1000 Ang^3
#
#
#
# Elastic Constant Matrix: (Units=GPa)
#
#
# Indices 1 2 3 4 5 6 
#
# 1 42.4661 19.3568 8.3542 0.0000 0.0000 0.0000
# 2 19.3568 85.7535 19.3093 0.0000 0.0000 0.0000
# 3 8.3542 19.3093 114.7453 0.0000 0.0000 0.0000
# 4 0.0000 0.0000 0.0000 31.5601 0.0000 0.0000
# 5 0.0000 0.0000 0.0000 0.0000 41.0777 0.0000
# 6 0.0000 0.0000 0.0000 0.0000 0.0000 22.9773
#
#
#
# Elastic Compliance Matrix: (Units=1/GPa)
#
#
# Indices 1 2 3 4 5 6 
#
# 1 0.026349 -0.005733 -0.000954 0.000000 0.000000 0.000000
# 2 -0.005733 0.013368 -0.001832 0.000000 0.000000 0.000000
# 3 -0.000954 -0.001832 0.009093 0.000000 0.000000 0.000000
# 4 0.000000 0.000000 0.000000 0.031686 0.000000 0.000000
# 5 0.000000 0.000000 0.000000 0.000000 0.024344 0.000000
# 6 0.000000 0.000000 0.000000 0.000000 0.000000 0.043521
#
#
# Mechanical properties :
#
#
# Convention : Reuss Voigt Hill
#
# Bulk Modulus (GPa) = 31.47407 37.44505 34.45956
# Shear Modulus (GPa) = 28.41092 32.18600 30.29846
#
# Velocity S-wave (km/s) = 3.56570 3.79520 3.68224
# Velocity P-wave (km/s) = 5.57111 5.99682 5.78788
#
# Compressibility (1/GPa) = 0.03177218
#
# Stress axis : x y z
#
# Youngs Moduli (GPa) = 37.95215 74.80579 109.97831
#
# Poissons Ratio (x) = 0.42886 0.10488
# Poissons Ratio (y) = 0.21758 0.20150
# Poissons Ratio (z) = 0.03619 0.13706
#
# Static dielectric constant tensor:
#      x y z
#    x 1.882030 0.000000 0.000000 
#    y 0.000000 1.855900 0.000000 
#    z 0.000000 0.000000 1.943550 
# 
# From -- ./inp_files/59342.got.cif
#   From: 2010.05.17/outbox.cif.g08.bks.cpg/sg66_30_cif.got.tgz:59342.got - 2010.06.03 17:51:23.
