data_PCOD9495441
_publ_section_title
;
Structure prediction by ZEFSAII (Michael W. Deem and Ramdas Pophale) SiO2 
 PCOD9495441
Probable space group: C C C M
;
_chemical_formula_sum "Si O2"
_cell_formula_units_Z 104
_cell_length_a 18.161034
_cell_length_b 16.802983
_cell_length_c 17.541750
_cell_angle_alpha 90.000000
_cell_angle_beta 90.000000
_cell_angle_gamma 90.000000
_cell_volume 5353.032458
_symmetry_space_group_name_H-M "C C C M"
_symmetry_group_IT_number 66
_symmetry_cell_setting 'orthorhombic'
loop_
_space_group_symop_operation_xyz
x,y,z
-x,-y,z
x,-y,1/2-z
-x,y,1/2-z
-x,-y,-z
x,y,-z
-x,y,1/2+z
x,-y,1/2+z
1/2+x,1/2+y,z
1/2-x,1/2-y,z
1/2+x,1/2-y,1/2-z
1/2-x,1/2+y,1/2-z
1/2-x,1/2-y,-z
1/2+x,1/2+y,-z
1/2-x,1/2+y,1/2+z
1/2+x,1/2-y,1/2+z
loop_
_atom_site_type_symbol
_atom_site_label
_atom_site_fract_x
_atom_site_fract_y
_atom_site_fract_z
Si Si1 0.074589 0.455954 0.592459
Si Si2 0.362406 0.602753 0.630279
Si Si3 0.381508 0.777849 0.587437
Si Si4 0.073934 0.145513 0.289833
Si Si5 0.294723 0.929831 0.592440
Si Si6 0.500000 0.500000 0.627229
Si Si7 0.946703 0.725896 0.407848
O O1 0.071607 0.459186 0.500000
O O2 0.146117 0.504510 0.616563
O O3 0.078738 0.363126 0.611476
O O4 0.000000 0.500000 0.619593
O O5 0.351422 0.688764 0.591693
O O6 0.374465 0.624458 0.719123
O O7 0.287564 0.555039 0.620406
O O8 0.435080 0.558473 0.595609
O O9 0.388925 0.803004 0.500000
O O10 0.328267 0.845134 0.621042
O O11 0.466225 0.773713 0.613080
O O12 0.093054 0.207014 0.356866
O O13 0.000000 0.178386 0.250000
O O14 0.049142 0.062196 0.326233
O O15 0.290348 0.929435 0.500000
O O16 0.939845 0.739867 0.500000
#
# Coordination Sequence:
#
# PCOD9495441 Si02
#       7
#    16  16  16  16  16   8  16
#     4   9  16  30  56  87 119 158 193 228 286 357
#     4  11  20  34  57  79 115 158 195 238 302 347
#     4  10  18  31  55  90 123 147 182 234 293 354
#     4  10  19  36  57  77 110 151 194 248 292 353
#     4  10  20  34  56  90 128 155 186 240 298 357
#     4  10  21  38  59  78 105 152 197 248 293 348
#     4  10  18  32  58  88 116 153 200 243 292 355
#
# _framework density 19.428241
#
# number of rings (size 3 to 8) (size 9 to 14) (size 15 to 20)
#    0.000    2.000    4.615    3.000    0.000    1.231 
#    0.000    3.462   13.538    2.308    0.000    3.231 
#    0.000    0.000    0.000    0.000    0.000    0.769 
#
# Total GULP energy -289485.759596 kJ/mol
# GULP energy per Si atom -5567.033838 kJ/mol
# Density = 1.938402 g / cm^3
# Si number density = 19.428241 Si / 1000 Ang^3
#
#
#
# Elastic Constant Matrix: (Units=GPa)
#
#
# Indices 1 2 3 4 5 6 
#
# 1 97.3655 24.0942 20.0206 0.0000 0.0000 0.0000
# 2 24.0942 99.8729 28.5272 0.0000 0.0000 0.0000
# 3 20.0206 28.5272 48.6991 0.0000 0.0000 0.0000
# 4 0.0000 0.0000 0.0000 15.0058 0.0000 0.0000
# 5 0.0000 0.0000 0.0000 0.0000 18.0432 0.0000
# 6 0.0000 0.0000 0.0000 0.0000 0.0000 22.0089
#
#
#
# Elastic Compliance Matrix: (Units=1/GPa)
#
#
# Indices 1 2 3 4 5 6 
#
# 1 0.011455 -0.001703 -0.003712 0.000000 0.000000 0.000000
# 2 -0.001703 0.012278 -0.006492 0.000000 0.000000 0.000000
# 3 -0.003712 -0.006492 0.025863 0.000000 0.000000 0.000000
# 4 0.000000 0.000000 0.000000 0.066641 0.000000 0.000000
# 5 0.000000 0.000000 0.000000 0.000000 0.055423 0.000000
# 6 0.000000 0.000000 0.000000 0.000000 0.000000 0.045436
#
#
# Mechanical properties :
#
#
# Convention : Reuss Voigt Hill
#
# Bulk Modulus (GPa) = 38.78609 43.46906 41.12757
# Shear Modulus (GPa) = 20.03975 22.56460 21.30218
#
# Velocity S-wave (km/s) = 3.21514 3.41168 3.31487
# Velocity P-wave (km/s) = 5.81291 6.15972 5.98883
#
# Compressibility (1/GPa) = 0.02578244
#
# Stress axis : x y z
#
# Youngs Moduli (GPa) = 87.29594 81.44644 38.66529
#
# Poissons Ratio (x) = 0.13874 0.14351
# Poissons Ratio (y) = 0.14870 0.25101
# Poissons Ratio (z) = 0.32400 0.52875
#
# Static dielectric constant tensor:
#      x y z
#    x 1.703500 0.000000 0.000000 
#    y 0.000000 1.718300 0.000000 
#    z 0.000000 0.000000 1.723940 
# 
# From -- ./inp_files/51123.got.cif
#   From: 2010.05.17/outbox.cif.g08.bks.cpg/sg66_26_cif.got.tgz:51123.got - 2010.06.03 17:51:23.
