data_PCOD9495503
_publ_section_title
;
Structure prediction by ZEFSAII (Michael W. Deem and Ramdas Pophale) SiO2 
 PCOD9495503
Probable space group: C C C M
;
_chemical_formula_sum "Si O2"
_cell_formula_units_Z 68
_cell_length_a 17.549284
_cell_length_b 9.223221
_cell_length_c 19.972208
_cell_angle_alpha 90.000000
_cell_angle_beta 90.000000
_cell_angle_gamma 90.000000
_cell_volume 3232.720056
_symmetry_space_group_name_H-M "C C C M"
_symmetry_group_IT_number 66
_symmetry_cell_setting 'orthorhombic'
loop_
_space_group_symop_operation_xyz
x,y,z
-x,-y,z
x,-y,1/2-z
-x,y,1/2-z
-x,-y,-z
x,y,-z
-x,y,1/2+z
x,-y,1/2+z
1/2+x,1/2+y,z
1/2-x,1/2-y,z
1/2+x,1/2-y,1/2-z
1/2-x,1/2+y,1/2-z
1/2-x,1/2-y,-z
1/2+x,1/2+y,-z
1/2-x,1/2+y,1/2+z
1/2+x,1/2-y,1/2+z
loop_
_atom_site_type_symbol
_atom_site_label
_atom_site_fract_x
_atom_site_fract_y
_atom_site_fract_z
Si Si1 0.685832 0.628437 0.420764
Si Si2 0.000000 0.500000 0.000000
Si Si3 0.985046 0.828841 0.576831
Si Si4 0.259371 0.920999 0.318449
Si Si5 0.570364 0.923891 0.864987
O O1 0.680699 0.594695 0.500000
O O2 0.750000 0.750000 0.410335
O O3 0.602205 0.685532 0.400794
O O4 0.710005 0.489587 0.378198
O O5 0.065198 0.493122 0.060615
O O6 0.992480 0.764655 0.500000
O O7 0.044515 0.742401 0.621979
O O8 0.000000 0.000000 0.573683
O O9 0.250000 0.750000 0.312819
O O10 0.348400 0.946522 0.333572
O O11 0.237360 0.000000 0.250000
O O12 0.500000 0.000000 0.827688
#
# Coordination Sequence:
#
# PCOD9495503 Si02
#       5
#    16   4  16  16  16
#     4  10  22  38  65  97 130 166 207 259 326 386
#     4   8  20  36  66 102 128 148 208 274 320 372
#     4  10  18  32  56  93 127 153 191 252 314 369
#     4  12  27  45  63  91 132 178 222 270 320 381
#     4  10  20  38  66  89 125 161 210 254 318 378
#
# _framework density 21.034915999999999
#
# number of rings (size 3 to 8) (size 9 to 14) (size 15 to 20)
#    0.706    0.941    1.176    3.529    1.647    0.941 
#    0.000    0.000    0.000    4.941    0.000    0.000 
#    0.000    0.000    0.000    0.000    0.000    0.000 
#
# Total GULP energy -189524.791550 kJ/mol
# GULP energy per Si atom -5574.258575 kJ/mol
# Density = 2.098704 g / cm^3
# Si number density = 21.034916 Si / 1000 Ang^3
#
#
#
# Elastic Constant Matrix: (Units=GPa)
#
#
# Indices 1 2 3 4 5 6 
#
# 1 67.2157 -9.8210 -5.6487 0.0000 0.0000 0.0000
# 2 -9.8210 93.2216 28.3080 0.0000 0.0000 0.0000
# 3 -5.6487 28.3080 55.8418 0.0000 0.0000 0.0000
# 4 0.0000 0.0000 0.0000 18.1598 0.0000 0.0000
# 5 0.0000 0.0000 0.0000 0.0000 3.1858 0.0000
# 6 0.0000 0.0000 0.0000 0.0000 0.0000 35.8050
#
#
#
# Elastic Compliance Matrix: (Units=1/GPa)
#
#
# Indices 1 2 3 4 5 6 
#
# 1 0.015145 0.001336 0.000855 0.000000 0.000000 0.000000
# 2 0.001336 0.012797 -0.006352 0.000000 0.000000 0.000000
# 3 0.000855 -0.006352 0.021214 0.000000 0.000000 0.000000
# 4 0.000000 0.000000 0.000000 0.055067 0.000000 0.000000
# 5 0.000000 0.000000 0.000000 0.000000 0.313897 0.000000
# 6 0.000000 0.000000 0.000000 0.000000 0.000000 0.027929
#
#
# Mechanical properties :
#
#
# Convention : Reuss Voigt Hill
#
# Bulk Modulus (GPa) = 24.49006 26.88395 25.68701
# Shear Modulus (GPa) = 10.68418 24.99284 17.83851
#
# Velocity S-wave (km/s) = 2.25617 3.45071 2.91528
# Velocity P-wave (km/s) = 4.29592 5.35583 4.85488
#
# Compressibility (1/GPa) = 0.04083289
#
# Stress axis : x y z
#
# Youngs Moduli (GPa) = 66.03052 78.14506 47.13832
#
# Poissons Ratio (x) = -0.10440 -0.04029
# Poissons Ratio (y) = -0.08821 0.29942
# Poissons Ratio (z) = -0.05644 0.49637
#
# Static dielectric constant tensor:
#      x y z
#    x 1.763640 0.000000 0.000000 
#    y 0.000000 1.675030 0.000000 
#    z 0.000000 0.000000 1.746390 
# 
# From -- ./inp_files/50632.got.cif
#   From: 2010.05.17/outbox.cif.g08.bks.cpg/sg66_26_cif.got.tgz:50632.got - 2010.06.03 17:51:23.
