data_PCOD9495397
_publ_section_title
;
Structure prediction by ZEFSAII (Michael W. Deem and Ramdas Pophale) SiO2 
 PCOD9495397
Probable space group: C C C M
;
_chemical_formula_sum "Si O2"
_cell_formula_units_Z 64
_cell_length_a 14.804440
_cell_length_b 7.811083
_cell_length_c 22.365193
_cell_angle_alpha 90.000000
_cell_angle_beta 90.000000
_cell_angle_gamma 90.000000
_cell_volume 2586.282059
_symmetry_space_group_name_H-M "C C C M"
_symmetry_group_IT_number 66
_symmetry_cell_setting 'orthorhombic'
loop_
_space_group_symop_operation_xyz
x,y,z
-x,-y,z
x,-y,1/2-z
-x,y,1/2-z
-x,-y,-z
x,y,-z
-x,y,1/2+z
x,-y,1/2+z
1/2+x,1/2+y,z
1/2-x,1/2-y,z
1/2+x,1/2-y,1/2-z
1/2-x,1/2+y,1/2-z
1/2-x,1/2-y,-z
1/2+x,1/2+y,-z
1/2-x,1/2+y,1/2+z
1/2+x,1/2-y,1/2+z
loop_
_atom_site_type_symbol
_atom_site_label
_atom_site_fract_x
_atom_site_fract_y
_atom_site_fract_z
Si Si1 0.878424 0.175178 0.385761
Si Si2 0.282157 0.014388 0.430669
Si Si3 0.054474 0.316499 0.633684
Si Si4 0.648017 0.205662 0.750408
O O1 0.815840 0.014939 0.401287
O O2 0.833207 0.332505 0.421756
O O3 0.867167 0.217802 0.315215
O O4 0.984341 0.191255 0.398510
O O5 0.272640 0.053467 0.500000
O O6 0.351641 0.141370 0.398584
O O7 0.078577 0.241056 0.698500
O O8 0.000000 0.500000 0.639641
O O9 0.750000 0.250000 0.768088
O O10 0.640928 0.000000 0.750000
#
# Coordination Sequence:
#
# PCOD9495397 Si02
#       4
#    16  16  16  16
#     4  10  18  31  51  83 117 148 201 249 314 354
#     4  10  19  32  51  86 123 153 200 258 304 356
#     4  10  20  32  56  84 113 156 200 249 310 372
#     4  12  20  35  58  88 117 152 193 250 312 371
#
# _framework density 24.745947999999999
#
# number of rings (size 3 to 8) (size 9 to 14) (size 15 to 20)
#    0.000    1.500    7.500    2.250    0.000    5.500 
#    0.000    0.000    0.000   11.250    0.000    1.750 
#    0.000    0.000    0.000    0.000    0.000    0.000 
#
# Total GULP energy -179136.187143 kJ/mol
# GULP energy per Si atom -5598.005848 kJ/mol
# Density = 2.468963 g / cm^3
# Si number density = 24.745948 Si / 1000 Ang^3
#
#
#
# Elastic Constant Matrix: (Units=GPa)
#
#
# Indices 1 2 3 4 5 6 
#
# 1 197.1803 44.6719 63.5016 0.0000 0.0000 0.0000
# 2 44.6719 103.6067 32.5113 0.0000 0.0000 0.0000
# 3 63.5016 32.5113 167.7176 0.0000 0.0000 0.0000
# 4 0.0000 0.0000 0.0000 -52.0149 0.0000 0.0000
# 5 0.0000 0.0000 0.0000 0.0000 31.6709 0.0000
# 6 0.0000 0.0000 0.0000 0.0000 0.0000 35.0470
#
#
#
# Elastic Compliance Matrix: (Units=1/GPa)
#
#
# Indices 1 2 3 4 5 6 
#
# 1 0.006159 -0.002048 -0.001935 0.000000 0.000000 0.000000
# 2 -0.002048 0.010958 -0.001349 0.000000 0.000000 0.000000
# 3 -0.001935 -0.001349 0.006956 0.000000 0.000000 0.000000
# 4 0.000000 0.000000 0.000000 -0.019225 0.000000 0.000000
# 5 0.000000 0.000000 0.000000 0.000000 0.031575 0.000000
# 6 0.000000 0.000000 0.000000 0.000000 0.000000 0.028533
#
#
# Mechanical properties :
#
#
# Convention : Reuss Voigt Hill
#
# Bulk Modulus (GPa) = 74.57214 83.31935 78.94575
# Shear Modulus (GPa) = 62.43036 24.79524 43.61280
#
# Velocity S-wave (km/s) = 5.02825 3.16886 4.20268
# Velocity P-wave (km/s) = 7.99447 6.86527 7.45129
#
# Compressibility (1/GPa) = 0.01340983
#
# Stress axis : x y z
#
# Youngs Moduli (GPa) = 162.37381 91.25542 143.75304
#
# Poissons Ratio (x) = 0.18692 0.27812
# Poissons Ratio (y) = 0.33259 0.19388
# Poissons Ratio (z) = 0.31415 0.12307
#
# Static dielectric constant tensor:
#      x y z
#    x 2.006440 0.000000 0.000000 
#    y 0.000000 1.993270 0.000000 
#    z 0.000000 0.000000 1.901830 
# 
# From -- ./inp_files/55144.got.cif
#   From: 2010.05.17/outbox.cif.g08.bks.cpg/sg66_28_cif.got.tgz:55144.got - 2010.06.03 17:51:23.
