data_PCOD9495262
_publ_section_title
;
Structure prediction by ZEFSAII (Michael W. Deem and Ramdas Pophale) SiO2 
 PCOD9495262
Probable space group: C C C M
;
_chemical_formula_sum "Si O2"
_cell_formula_units_Z 48
_cell_length_a 7.857791
_cell_length_b 14.654922
_cell_length_c 16.778285
_cell_angle_alpha 90.000000
_cell_angle_beta 90.000000
_cell_angle_gamma 90.000000
_cell_volume 1932.108681
_symmetry_space_group_name_H-M "C C C M"
_symmetry_group_IT_number 66
_symmetry_cell_setting 'orthorhombic'
loop_
_space_group_symop_operation_xyz
x,y,z
-x,-y,z
x,-y,1/2-z
-x,y,1/2-z
-x,-y,-z
x,y,-z
-x,y,1/2+z
x,-y,1/2+z
1/2+x,1/2+y,z
1/2-x,1/2-y,z
1/2+x,1/2-y,1/2-z
1/2-x,1/2+y,1/2-z
1/2-x,1/2-y,-z
1/2+x,1/2+y,-z
1/2-x,1/2+y,1/2+z
1/2+x,1/2-y,1/2+z
loop_
_atom_site_type_symbol
_atom_site_label
_atom_site_fract_x
_atom_site_fract_y
_atom_site_fract_z
Si Si1 0.239551 0.521981 0.908808
Si Si2 0.940909 0.872128 0.156959
Si Si3 0.929011 0.309565 0.163314
O O1 0.413110 0.580073 0.895410
O O2 0.273958 0.432712 0.855457
O O3 0.102214 0.597279 0.883285
O O4 0.218906 0.495543 0.000000
O O5 0.000000 0.877528 0.250000
O O6 0.942368 0.767228 0.131306
O O7 0.750000 0.250000 0.169462
O O8 0.000000 0.332128 0.250000
#
# Coordination Sequence:
#
# PCOD9495262 Si02
#       3
#    16  16  16
#     4  10  18  28  51  88 122 154 199 255 311 365
#     4   9  17  31  52  81 119 160 204 251 300 363
#     4   9  19  34  55  83 117 161 209 252 304 368
#
# _framework density 24.843323000000002
#
# number of rings (size 3 to 8) (size 9 to 14) (size 15 to 20)
#    0.000    2.667    0.000    4.000    0.000    8.667 
#    0.000    0.000    0.000   37.000    0.000   74.667 
#    0.000    0.000    0.000    0.000    0.000    0.000 
#
# Total GULP energy -134097.010894 kJ/mol
# GULP energy per Si atom -5587.375454 kJ/mol
# Density = 2.478678 g / cm^3
# Si number density = 24.843323 Si / 1000 Ang^3
#
#
#
# Elastic Constant Matrix: (Units=GPa)
#
#
# Indices 1 2 3 4 5 6 
#
# 1 112.4760 46.9911 21.8320 0.0000 0.0000 0.0000
# 2 46.9911 219.7740 58.9359 0.0000 0.0000 0.0000
# 3 21.8320 58.9359 93.6523 0.0000 0.0000 0.0000
# 4 0.0000 0.0000 0.0000 35.4082 0.0000 0.0000
# 5 0.0000 0.0000 0.0000 0.0000 29.6008 0.0000
# 6 0.0000 0.0000 0.0000 0.0000 0.0000 33.1638
#
#
#
# Elastic Compliance Matrix: (Units=1/GPa)
#
#
# Indices 1 2 3 4 5 6 
#
# 1 0.009868 -0.001796 -0.001170 0.000000 0.000000 0.000000
# 2 -0.001796 0.005801 -0.003232 0.000000 0.000000 0.000000
# 3 -0.001170 -0.003232 0.012984 0.000000 0.000000 0.000000
# 4 0.000000 0.000000 0.000000 0.028242 0.000000 0.000000
# 5 0.000000 0.000000 0.000000 0.000000 0.033783 0.000000
# 6 0.000000 0.000000 0.000000 0.000000 0.000000 0.030153
#
#
# Mechanical properties :
#
#
# Convention : Reuss Voigt Hill
#
# Bulk Modulus (GPa) = 61.51077 75.71337 68.61207
# Shear Modulus (GPa) = 36.06278 39.51078 37.78678
#
# Velocity S-wave (km/s) = 3.81413 3.99231 3.90424
# Velocity P-wave (km/s) = 6.64906 7.19679 6.92834
#
# Compressibility (1/GPa) = 0.01625731
#
# Stress axis : x y z
#
# Youngs Moduli (GPa) = 101.33404 172.38893 77.01586
#
# Poissons Ratio (x) = 0.30965 0.09012
# Poissons Ratio (y) = 0.18202 0.24890
# Poissons Ratio (z) = 0.11857 0.55712
#
# Static dielectric constant tensor:
#      x y z
#    x 2.217300 0.000000 0.000000 
#    y 0.000000 2.007640 0.000000 
#    z 0.000000 0.000000 1.875480 
# 
# From -- ./inp_files/23397.got.cif
#   From: 2010.05.17/outbox.cif.g08.bks.cpg/sg66_12_cif.got.tgz:23397.got - 2010.06.03 17:51:23.
