data_PCOD9495309
_publ_section_title
;
Structure prediction by ZEFSAII (Michael W. Deem and Ramdas Pophale) SiO2 
 PCOD9495309
Probable space group: C C C M
;
_chemical_formula_sum "Si O2"
_cell_formula_units_Z 96
_cell_length_a 27.473834
_cell_length_b 29.172966
_cell_length_c 8.978305
_cell_angle_alpha 90.000000
_cell_angle_beta 90.000000
_cell_angle_gamma 90.000000
_cell_volume 7196.050631
_symmetry_space_group_name_H-M "C C C M"
_symmetry_group_IT_number 66
_symmetry_cell_setting 'orthorhombic'
loop_
_space_group_symop_operation_xyz
x,y,z
-x,-y,z
x,-y,1/2-z
-x,y,1/2-z
-x,-y,-z
x,y,-z
-x,y,1/2+z
x,-y,1/2+z
1/2+x,1/2+y,z
1/2-x,1/2-y,z
1/2+x,1/2-y,1/2-z
1/2-x,1/2+y,1/2-z
1/2-x,1/2-y,-z
1/2+x,1/2+y,-z
1/2-x,1/2+y,1/2+z
1/2+x,1/2-y,1/2+z
loop_
_atom_site_type_symbol
_atom_site_label
_atom_site_fract_x
_atom_site_fract_y
_atom_site_fract_z
Si Si1 0.710452 0.548369 0.821839
Si Si2 0.148828 0.803234 0.679836
Si Si3 0.703072 0.783979 0.828489
Si Si4 0.595065 0.452164 0.678187
Si Si5 0.761977 0.140931 0.177006
Si Si6 0.051065 0.855607 0.320747
O O1 0.724899 0.500000 0.750000
O O2 0.652558 0.554584 0.788385
O O3 0.738449 0.591069 0.751289
O O4 0.715779 0.547567 0.000000
O O5 0.155847 0.808257 0.500000
O O6 0.159409 0.750027 0.716063
O O7 0.189593 0.833916 0.759922
O O8 0.095706 0.822030 0.717666
O O9 0.750000 0.750000 0.825193
O O10 0.717241 0.826892 0.728044
O O11 0.696786 0.798693 0.000000
O O12 0.579081 0.500000 0.750000
O O13 0.590708 0.455753 0.500000
O O14 0.566195 0.407106 0.728151
O O15 0.764398 0.137674 0.000000
O O16 0.047158 0.856092 0.500000
O O17 0.000000 0.842472 0.250000
#
# Coordination Sequence:
#
# PCOD9495309 Si02
#       6
#    16  16  16  16  16  16
#     4  10  18  30  44  59  80 106 136 166 201 243
#     4   9  17  32  46  56  77 105 132 163 202 246
#     4   8  15  27  44  60  76 103 130 156 196 241
#     4   9  18  31  45  56  72  96 128 168 208 246
#     4  11  19  26  41  64  85 103 127 162 201 240
#     4  10  20  33  45  59  76 100 131 169 211 252
#
# _framework density 13.340650999999999
#
# number of rings (size 3 to 8) (size 9 to 14) (size 15 to 20)
#    0.000    2.500    1.667    3.000    0.000    5.333 
#    0.000    1.667    0.000    0.000    0.000    0.000 
#    0.000    0.000    0.000    0.000    0.000    0.833 
#
# Total GULP energy -267515.984964 kJ/mol
# GULP energy per Si atom -5573.249687 kJ/mol
# Density = 1.331029 g / cm^3
# Si number density = 13.340651 Si / 1000 Ang^3
#
#
#
# Elastic Constant Matrix: (Units=GPa)
#
#
# Indices 1 2 3 4 5 6 
#
# 1 58.9835 51.4968 23.6471 0.0000 0.0000 0.0000
# 2 51.4968 96.9203 47.0216 0.0000 0.0000 0.0000
# 3 23.6471 47.0216 45.1709 0.0000 0.0000 0.0000
# 4 0.0000 0.0000 0.0000 19.6755 0.0000 0.0000
# 5 0.0000 0.0000 0.0000 0.0000 8.6961 0.0000
# 6 0.0000 0.0000 0.0000 0.0000 0.0000 17.2247
#
#
#
# Elastic Compliance Matrix: (Units=1/GPa)
#
#
# Indices 1 2 3 4 5 6 
#
# 1 0.031704 -0.017765 0.001896 0.000000 0.000000 0.000000
# 2 -0.017765 0.030800 -0.022762 0.000000 0.000000 0.000000
# 3 0.001896 -0.022762 0.044840 0.000000 0.000000 0.000000
# 4 0.000000 0.000000 0.000000 0.050825 0.000000 0.000000
# 5 0.000000 0.000000 0.000000 0.000000 0.114994 0.000000
# 6 0.000000 0.000000 0.000000 0.000000 0.000000 0.058056
#
#
# Mechanical properties :
#
#
# Convention : Reuss Voigt Hill
#
# Bulk Modulus (GPa) = 33.24251 49.48953 41.36602
# Shear Modulus (GPa) = 11.94718 14.37988 13.16353
#
# Velocity S-wave (km/s) = 2.99582 3.28670 3.14462
# Velocity P-wave (km/s) = 6.07773 7.18196 6.65280
#
# Compressibility (1/GPa) = 0.03008196
#
# Stress axis : x y z
#
# Youngs Moduli (GPa) = 31.54168 32.46744 22.30142
#
# Poissons Ratio (x) = 0.57679 -0.04228
# Poissons Ratio (y) = 0.56034 0.50762
# Poissons Ratio (z) = -0.05980 0.73902
#
# Static dielectric constant tensor:
#      x y z
#    x 1.423270 0.000000 0.000000 
#    y 0.000000 1.447890 0.000000 
#    z 0.000000 0.000000 1.443320 
# 
# From -- ./inp_files/9313.got.cif
#   From: 2010.05.17/outbox.cif.g08.bks.cpg/sg66_5_cif.got.tgz:9313.got - 2010.06.03 17:51:23.
