data_PCOD9495009
_publ_section_title
;
Structure prediction by ZEFSAII (Michael W. Deem and Ramdas Pophale) SiO2 
 PCOD9495009
Probable space group: C C C M
;
_chemical_formula_sum "Si O2"
_cell_formula_units_Z 96
_cell_length_a 18.532368
_cell_length_b 13.463075
_cell_length_c 19.835005
_cell_angle_alpha 90.000000
_cell_angle_beta 90.000000
_cell_angle_gamma 90.000000
_cell_volume 4948.886515
_symmetry_space_group_name_H-M "C C C M"
_symmetry_group_IT_number 66
_symmetry_cell_setting 'orthorhombic'
loop_
_space_group_symop_operation_xyz
x,y,z
-x,-y,z
x,-y,1/2-z
-x,y,1/2-z
-x,-y,-z
x,y,-z
-x,y,1/2+z
x,-y,1/2+z
1/2+x,1/2+y,z
1/2-x,1/2-y,z
1/2+x,1/2-y,1/2-z
1/2-x,1/2+y,1/2-z
1/2-x,1/2-y,-z
1/2+x,1/2+y,-z
1/2-x,1/2+y,1/2+z
1/2+x,1/2-y,1/2+z
loop_
_atom_site_type_symbol
_atom_site_label
_atom_site_fract_x
_atom_site_fract_y
_atom_site_fract_z
Si Si1 0.768658 0.867197 0.783952
Si Si2 0.443876 0.090320 0.574334
Si Si3 0.927126 0.737669 0.924764
Si Si4 0.877240 0.400473 0.784054
Si Si5 0.922900 0.187879 0.722506
Si Si6 0.220567 0.636435 0.426394
O O1 0.750000 0.750000 0.791997
O O2 0.707445 0.900175 0.732695
O O3 0.850768 0.873350 0.759676
O O4 0.754305 0.909543 0.859119
O O5 0.410333 0.081960 0.500000
O O6 0.495075 0.186890 0.576340
O O7 0.391319 0.095050 0.636948
O O8 0.500000 0.000000 0.582095
O O9 0.921343 0.805131 0.858955
O O10 0.865295 0.652792 0.917199
O O11 0.915107 0.781370 0.000000
O O12 0.908602 0.500000 0.750000
O O13 0.910858 0.300355 0.751493
O O14 0.000000 0.152541 0.750000
O O15 0.234582 0.590618 0.500000
O O16 0.250000 0.750000 0.430280
#
# Coordination Sequence:
#
# PCOD9495009 Si02
#       6
#    16  16  16  16  16  16
#     4   9  18  31  43  67  94 123 164 195 235 289
#     4  10  21  32  43  66 101 133 160 190 232 289
#     4  10  17  26  40  63  95 125 152 187 229 282
#     4  11  21  31  49  70  98 127 161 196 236 290
#     4  11  19  31  49  70  94 126 162 199 244 286
#     4   9  14  23  40  61  89 121 145 181 231 277
#
# _framework density 19.398302999999999
#
# number of rings (size 3 to 8) (size 9 to 14) (size 15 to 20)
#    0.000    2.000    6.667    1.000    0.000    0.000 
#    0.000    0.000    0.000    6.000    0.000    0.000 
#    0.000    0.000    0.000    4.500    0.000    0.000 
#
# Total GULP energy -267629.501119 kJ/mol
# GULP energy per Si atom -5575.614607 kJ/mol
# Density = 1.935415 g / cm^3
# Si number density = 19.398303 Si / 1000 Ang^3
#
#
#
# Elastic Constant Matrix: (Units=GPa)
#
#
# Indices 1 2 3 4 5 6 
#
# 1 134.3109 4.1234 70.3464 0.0000 0.0000 0.0000
# 2 4.1234 19.0280 16.3594 0.0000 0.0000 0.0000
# 3 70.3464 16.3594 165.0469 0.0000 0.0000 0.0000
# 4 0.0000 0.0000 0.0000 9.8685 0.0000 0.0000
# 5 0.0000 0.0000 0.0000 0.0000 28.7643 0.0000
# 6 0.0000 0.0000 0.0000 0.0000 0.0000 9.5594
#
#
#
# Elastic Compliance Matrix: (Units=1/GPa)
#
#
# Indices 1 2 3 4 5 6 
#
# 1 0.009628 0.001576 -0.004260 0.000000 0.000000 0.000000
# 2 0.001576 0.057708 -0.006392 0.000000 0.000000 0.000000
# 3 -0.004260 -0.006392 0.008508 0.000000 0.000000 0.000000
# 4 0.000000 0.000000 0.000000 0.101332 0.000000 0.000000
# 5 0.000000 0.000000 0.000000 0.000000 0.034765 0.000000
# 6 0.000000 0.000000 0.000000 0.000000 0.000000 0.104609
#
#
# Mechanical properties :
#
#
# Convention : Reuss Voigt Hill
#
# Bulk Modulus (GPa) = 17.33309 55.56045 36.44677
# Shear Modulus (GPa) = 14.12697 24.80889 19.46793
#
# Velocity S-wave (km/s) = 2.70155 3.58008 3.17138
# Velocity P-wave (km/s) = 4.32272 6.76708 5.67800
#
# Compressibility (1/GPa) = 0.05769312
#
# Stress axis : x y z
#
# Youngs Moduli (GPa) = 103.86137 17.32860 117.53479
#
# Poissons Ratio (x) = -0.02731 0.50069
# Poissons Ratio (y) = -0.16369 0.75126
# Poissons Ratio (z) = 0.44245 0.11076
#
# Static dielectric constant tensor:
#      x y z
#    x 1.723360 0.000000 0.000000 
#    y 0.000000 1.735500 0.000000 
#    z 0.000000 0.000000 1.714840 
# 
# From -- ./inp_files/51165.got.cif
#   From: 2010.05.17/outbox.cif.g08.bks.cpg/sg66_26_cif.got.tgz:51165.got - 2010.06.03 17:51:23.
