data_PCOD9495948
_publ_section_title
;
Structure prediction by ZEFSAII (Michael W. Deem and Ramdas Pophale) SiO2 
 PCOD9495948
Probable space group: C C C M
;
_chemical_formula_sum "Si O2"
_cell_formula_units_Z 88
_cell_length_a 6.577524
_cell_length_b 24.665921
_cell_length_c 29.208771
_cell_angle_alpha 90.000000
_cell_angle_beta 90.000000
_cell_angle_gamma 90.000000
_cell_volume 4738.851084
_symmetry_space_group_name_H-M "C C C M"
_symmetry_group_IT_number 66
_symmetry_cell_setting 'orthorhombic'
loop_
_space_group_symop_operation_xyz
x,y,z
-x,-y,z
x,-y,1/2-z
-x,y,1/2-z
-x,-y,-z
x,y,-z
-x,y,1/2+z
x,-y,1/2+z
1/2+x,1/2+y,z
1/2-x,1/2-y,z
1/2+x,1/2-y,1/2-z
1/2-x,1/2+y,1/2-z
1/2-x,1/2-y,-z
1/2+x,1/2+y,-z
1/2-x,1/2+y,1/2+z
1/2+x,1/2-y,1/2+z
loop_
_atom_site_type_symbol
_atom_site_label
_atom_site_fract_x
_atom_site_fract_y
_atom_site_fract_z
Si Si1 0.123471 0.600544 0.553555
Si Si2 0.602711 0.441166 0.370000
Si Si3 0.951276 0.563652 0.801911
Si Si4 0.793230 0.369180 0.874062
Si Si5 0.750000 0.250000 0.117077
Si Si6 0.417222 0.703675 0.451217
O O1 0.095553 0.584875 0.500000
O O2 0.233752 0.558336 0.588015
O O3 0.283766 0.650050 0.554811
O O4 0.916723 0.620515 0.578412
O O5 0.500000 0.500000 0.367193
O O6 0.726557 0.428970 0.323278
O O7 0.431398 0.395063 0.377653
O O8 0.000000 0.500000 0.805187
O O9 0.000000 0.580207 0.750000
O O10 0.096920 0.595768 0.835648
O O11 0.817576 0.305990 0.859348
O O12 0.573282 0.276139 0.086268
O O13 0.971674 0.801158 0.500000
O O14 0.250000 0.750000 0.453690
#
# Coordination Sequence:
#
# PCOD9495948 Si02
#       6
#    16  16  16  16   8  16
#     4  10  22  37  56  86 126 170 212 256 300 350
#     4  11  22  40  63  91 123 156 201 255 309 374
#     4  10  22  43  69  94 116 144 195 261 316 367
#     4  11  23  38  60  91 126 159 206 251 306 370
#     4  12  21  34  58  86 120 166 202 250 313 366
#     4  10  19  32  51  80 113 154 212 261 289 331
#
# _framework density 18.569901000000002
#
# number of rings (size 3 to 8) (size 9 to 14) (size 15 to 20)
#    0.000    1.455    5.455    0.273    0.000    2.545 
#    0.000    0.909    4.000    0.000    0.000    0.000 
#    0.000    0.000    0.000    0.000    0.000    0.000 
#
# Total GULP energy -245078.747484 kJ/mol
# GULP energy per Si atom -5569.971534 kJ/mol
# Density = 1.852764 g / cm^3
# Si number density = 18.569901 Si / 1000 Ang^3
#
#
#
# Elastic Constant Matrix: (Units=GPa)
#
#
# Indices 1 2 3 4 5 6 
#
# 1 77.4674 21.5100 39.0442 0.0000 0.0000 0.0000
# 2 21.5100 48.2294 35.9000 0.0000 0.0000 0.0000
# 3 39.0442 35.9000 119.1436 0.0000 0.0000 0.0000
# 4 0.0000 0.0000 0.0000 31.7193 0.0000 0.0000
# 5 0.0000 0.0000 0.0000 0.0000 -26.3988 0.0000
# 6 0.0000 0.0000 0.0000 0.0000 0.0000 32.1513
#
#
#
# Elastic Compliance Matrix: (Units=1/GPa)
#
#
# Indices 1 2 3 4 5 6 
#
# 1 0.016094 -0.004192 -0.004011 0.000000 0.000000 0.000000
# 2 -0.004192 0.027821 -0.007009 0.000000 0.000000 0.000000
# 3 -0.004011 -0.007009 0.011820 0.000000 0.000000 0.000000
# 4 0.000000 0.000000 0.000000 0.031527 0.000000 0.000000
# 5 0.000000 0.000000 0.000000 0.000000 -0.037880 0.000000
# 6 0.000000 0.000000 0.000000 0.000000 0.000000 0.031103
#
#
# Mechanical properties :
#
#
# Convention : Reuss Voigt Hill
#
# Bulk Modulus (GPa) = 39.50966 48.63876 44.07421
# Shear Modulus (GPa) = 41.89501 17.38678 29.64090
#
# Velocity S-wave (km/s) = 4.75496 3.06320 3.99956
# Velocity P-wave (km/s) = 7.17416 6.22576 6.71672
#
# Compressibility (1/GPa) = 0.02531027
#
# Stress axis : x y z
#
# Youngs Moduli (GPa) = 62.13378 35.94369 84.60482
#
# Poissons Ratio (x) = 0.15069 0.33935
# Poissons Ratio (y) = 0.26048 0.59301
# Poissons Ratio (z) = 0.24922 0.25194
#
# Static dielectric constant tensor:
#      x y z
#    x 1.666020 0.000000 0.000000 
#    y 0.000000 1.645410 0.000000 
#    z 0.000000 0.000000 1.679210 
# 
# From -- ./inp_files/67253.got.cif
#   From: 2010.05.17/outbox.cif.g08.bks.cpg/sg66_34_cif.got.tgz:67253.got - 2010.06.03 17:51:23.
