data_PCOD9495212
_publ_section_title
;
Structure prediction by ZEFSAII (Michael W. Deem and Ramdas Pophale) SiO2 
 PCOD9495212
Probable space group: C C C M
;
_chemical_formula_sum "Si O2"
_cell_formula_units_Z 96
_cell_length_a 23.665396
_cell_length_b 16.656862
_cell_length_c 14.103925
_cell_angle_alpha 90.000000
_cell_angle_beta 90.000000
_cell_angle_gamma 90.000000
_cell_volume 5559.643619
_symmetry_space_group_name_H-M "C C C M"
_symmetry_group_IT_number 66
_symmetry_cell_setting 'orthorhombic'
loop_
_space_group_symop_operation_xyz
x,y,z
-x,-y,z
x,-y,1/2-z
-x,y,1/2-z
-x,-y,-z
x,y,-z
-x,y,1/2+z
x,-y,1/2+z
1/2+x,1/2+y,z
1/2-x,1/2-y,z
1/2+x,1/2-y,1/2-z
1/2-x,1/2+y,1/2-z
1/2-x,1/2-y,-z
1/2+x,1/2+y,-z
1/2-x,1/2+y,1/2+z
1/2+x,1/2-y,1/2+z
loop_
_atom_site_type_symbol
_atom_site_label
_atom_site_fract_x
_atom_site_fract_y
_atom_site_fract_z
Si Si1 0.629141 0.501754 0.115467
Si Si2 0.092039 0.165700 0.890483
Si Si3 0.285818 0.366409 0.614618
Si Si4 0.562774 0.217093 0.766814
Si Si5 0.462373 0.625622 0.890449
Si Si6 0.835587 0.308687 0.114402
O O1 0.631035 0.593812 0.147937
O O2 0.680739 0.445236 0.145057
O O3 0.572443 0.451997 0.141717
O O4 0.628443 0.506773 0.000000
O O5 0.088219 0.246353 0.829884
O O6 0.029971 0.123399 0.888091
O O7 0.104951 0.183701 0.000000
O O8 0.285571 0.367036 0.500000
O O9 0.220453 0.358101 0.642152
O O10 0.319080 0.284138 0.638435
O O11 0.500000 0.181675 0.750000
O O12 0.552559 0.297464 0.828890
O O13 0.608956 0.168552 0.826390
O O14 0.445542 0.640071 0.000000
O O15 0.844038 0.313683 0.000000
#
# Coordination Sequence:
#
# PCOD9495212 Si02
#       6
#    16  16  16  16  16  16
#     4   9  14  23  36  50  70  96 127 165 202 234
#     4   9  18  26  32  46  74 108 136 160 186 221
#     4   8  14  23  40  57  68  88 122 168 220 252
#     4  10  18  25  35  52  76 108 138 162 192 230
#     4   9  15  24  35  48  70 101 132 164 197 224
#     4   9  15  26  40  56  74  91 122 173 217 243
#
# _framework density 17.267294
#
# number of rings (size 3 to 8) (size 9 to 14) (size 15 to 20)
#    0.000    3.000    1.667    2.000    0.000    3.333 
#    0.000    2.500    0.000    0.000    0.000    2.333 
#    0.000    0.000    0.000    0.000    0.000   13.333 
#
# Total GULP energy -267332.227936 kJ/mol
# GULP energy per Si atom -5569.421415 kJ/mol
# Density = 1.722799 g / cm^3
# Si number density = 17.267294 Si / 1000 Ang^3
#
#
#
# Elastic Constant Matrix: (Units=GPa)
#
#
# Indices 1 2 3 4 5 6 
#
# 1 83.7930 7.9828 23.3802 0.0000 0.0000 0.0000
# 2 7.9828 10.7822 2.7883 0.0000 0.0000 0.0000
# 3 23.3802 2.7883 60.3925 0.0000 0.0000 0.0000
# 4 0.0000 0.0000 0.0000 0.9311 0.0000 0.0000
# 5 0.0000 0.0000 0.0000 0.0000 24.4127 0.0000
# 6 0.0000 0.0000 0.0000 0.0000 0.0000 14.3285
#
#
#
# Elastic Compliance Matrix: (Units=1/GPa)
#
#
# Indices 1 2 3 4 5 6 
#
# 1 0.014231 -0.009222 -0.005084 0.000000 0.000000 0.000000
# 2 -0.009222 0.099842 -0.001040 0.000000 0.000000 0.000000
# 3 -0.005084 -0.001040 0.018574 0.000000 0.000000 0.000000
# 4 0.000000 0.000000 0.000000 1.073955 0.000000 0.000000
# 5 0.000000 0.000000 0.000000 0.000000 0.040962 0.000000
# 6 0.000000 0.000000 0.000000 0.000000 0.000000 0.069791
#
#
# Mechanical properties :
#
#
# Convention : Reuss Voigt Hill
#
# Bulk Modulus (GPa) = 9.80797 24.80780 17.30788
# Shear Modulus (GPa) = 3.61786 15.98890 9.80338
#
# Velocity S-wave (km/s) = 1.44905 3.04627 2.38532
# Velocity P-wave (km/s) = 2.91412 5.17408 4.19900
#
# Compressibility (1/GPa) = 0.10195787
#
# Stress axis : x y z
#
# Youngs Moduli (GPa) = 70.26835 10.01582 53.83746
#
# Poissons Ratio (x) = 0.09236 0.27369
# Poissons Ratio (y) = 0.64799 0.05597
# Poissons Ratio (z) = 0.35722 0.01041
#
# Static dielectric constant tensor:
#      x y z
#    x 1.653500 0.000000 0.000000 
#    y 0.000000 1.561580 0.000000 
#    z 0.000000 0.000000 1.647660 
# 
# From -- ./inp_files/31468.got.cif
#   From: 2010.05.17/outbox.cif.g08.bks.cpg/sg66_16_cif.got.tgz:31468.got - 2010.06.03 17:51:23.
