data_PCOD9495644
_publ_section_title
;
Structure prediction by ZEFSAII (Michael W. Deem and Ramdas Pophale) SiO2 
 PCOD9495644
Probable space group: C C C M
;
_chemical_formula_sum "Si O2"
_cell_formula_units_Z 120
_cell_length_a 20.678899
_cell_length_b 11.912304
_cell_length_c 24.156428
_cell_angle_alpha 90.000000
_cell_angle_beta 90.000000
_cell_angle_gamma 90.000000
_cell_volume 5950.533381
_symmetry_space_group_name_H-M "C C C M"
_symmetry_group_IT_number 66
_symmetry_cell_setting 'orthorhombic'
loop_
_space_group_symop_operation_xyz
x,y,z
-x,-y,z
x,-y,1/2-z
-x,y,1/2-z
-x,-y,-z
x,y,-z
-x,y,1/2+z
x,-y,1/2+z
1/2+x,1/2+y,z
1/2-x,1/2-y,z
1/2+x,1/2-y,1/2-z
1/2-x,1/2+y,1/2-z
1/2-x,1/2-y,-z
1/2+x,1/2+y,-z
1/2-x,1/2+y,1/2+z
1/2+x,1/2-y,1/2+z
loop_
_atom_site_type_symbol
_atom_site_label
_atom_site_fract_x
_atom_site_fract_y
_atom_site_fract_z
Si Si1 0.672963 0.229953 0.657078
Si Si2 0.077301 0.214745 0.938913
Si Si3 0.050324 0.353874 0.435799
Si Si4 0.747107 0.614150 0.437158
Si Si5 0.172775 0.264438 0.718175
Si Si6 0.500000 0.500000 0.093196
Si Si7 0.642098 0.969012 0.644996
Si Si8 0.382880 0.361890 0.614484
O O1 0.750000 0.250000 0.649009
O O2 0.630402 0.285228 0.608955
O O3 0.655311 0.267730 0.719316
O O4 0.654442 0.098396 0.656693
O O5 0.023321 0.311830 0.928890
O O6 0.105732 0.232750 0.000000
O O7 0.036722 0.098895 0.939109
O O8 0.059250 0.389781 0.500000
O O9 0.077180 0.439911 0.389920
O O10 0.093018 0.241828 0.423741
O O11 0.759647 0.580029 0.500000
O O12 0.750000 0.750000 0.434114
O O13 0.800416 0.568035 0.396169
O O14 0.675746 0.579665 0.417622
O O15 0.250000 0.250000 0.714091
O O16 0.150043 0.388690 0.698626
O O17 0.143096 0.185542 0.671638
O O18 0.556326 0.439149 0.126101
#
# Coordination Sequence:
#
# PCOD9495644 Si02
#       8
#    16  16  16  16  16   8  16  16
#     4  11  27  42  59  87 125 165 209 252 311 379
#     4  10  23  44  63  87 123 164 206 248 304 373
#     4   9  18  35  62  89 117 154 201 253 299 358
#     4  11  19  30  58  97 129 156 205 264 308 352
#     4  10  19  40  65  88 117 159 211 265 301 356
#     4  10  23  40  67  94 122 166 204 246 310 388
#     4  11  20  37  60  91 121 159 206 254 314 359
#     4  10  18  35  59  93 126 155 200 253 314 354
#
# _framework density 20.166259
#
# number of rings (size 3 to 8) (size 9 to 14) (size 15 to 20)
#    0.000    1.733    4.000    1.400    1.867    3.467 
#    0.000    8.667    0.000    4.800    0.000    0.000 
#    0.000    0.000    0.000    0.000    0.000    0.000 
#
# Total GULP energy -334996.660163 kJ/mol
# GULP energy per Si atom -5583.277669 kJ/mol
# Density = 2.012036 g / cm^3
# Si number density = 20.166259 Si / 1000 Ang^3
#
#
#
# Elastic Constant Matrix: (Units=GPa)
#
#
# Indices 1 2 3 4 5 6 
#
# 1 73.3717 5.2882 51.0441 0.0000 0.0000 0.0000
# 2 5.2882 37.6958 4.3425 0.0000 0.0000 0.0000
# 3 51.0441 4.3425 135.9325 0.0000 0.0000 0.0000
# 4 0.0000 0.0000 0.0000 2.0824 0.0000 0.0000
# 5 0.0000 0.0000 0.0000 0.0000 16.7489 0.0000
# 6 0.0000 0.0000 0.0000 0.0000 0.0000 29.9627
#
#
#
# Elastic Compliance Matrix: (Units=1/GPa)
#
#
# Indices 1 2 3 4 5 6 
#
# 1 0.018571 -0.001809 -0.006916 0.000000 0.000000 0.000000
# 2 -0.001809 0.026802 -0.000177 0.000000 0.000000 0.000000
# 3 -0.006916 -0.000177 0.009959 0.000000 0.000000 0.000000
# 4 0.000000 0.000000 0.000000 0.480205 0.000000 0.000000
# 5 0.000000 0.000000 0.000000 0.000000 0.059705 0.000000
# 6 0.000000 0.000000 0.000000 0.000000 0.000000 0.033375
#
#
# Mechanical properties :
#
#
# Convention : Reuss Voigt Hill
#
# Bulk Modulus (GPa) = 26.64573 40.92773 33.78673
# Shear Modulus (GPa) = 7.58806 22.18049 14.88427
#
# Velocity S-wave (km/s) = 1.94188 3.32004 2.71971
# Velocity P-wave (km/s) = 4.27430 5.91913 5.16264
#
# Compressibility (1/GPa) = 0.03752947
#
# Stress axis : x y z
#
# Youngs Moduli (GPa) = 53.84794 37.31024 100.40982
#
# Poissons Ratio (x) = 0.06748 0.69441
# Poissons Ratio (y) = 0.09739 0.01778
# Poissons Ratio (z) = 0.37240 0.00661
#
# Static dielectric constant tensor:
#      x y z
#    x 1.719460 0.000000 0.000000 
#    y 0.000000 1.760910 0.000000 
#    z 0.000000 0.000000 1.683010 
# 
# From -- ./inp_files/59607.got.cif
#   From: 2010.05.17/outbox.cif.g08.bks.cpg/sg66_30_cif.got.tgz:59607.got - 2010.06.03 17:51:23.
