data_PCOD9495597
_publ_section_title
;
Structure prediction by ZEFSAII (Michael W. Deem and Ramdas Pophale) SiO2 
 PCOD9495597
Probable space group: C C C M
;
_chemical_formula_sum "Si O2"
_cell_formula_units_Z 52
_cell_length_a 11.438143
_cell_length_b 10.095040
_cell_length_c 20.415706
_cell_angle_alpha 90.000000
_cell_angle_beta 90.000000
_cell_angle_gamma 90.000000
_cell_volume 2357.371175
_symmetry_space_group_name_H-M "C C C M"
_symmetry_group_IT_number 66
_symmetry_cell_setting 'orthorhombic'
loop_
_space_group_symop_operation_xyz
x,y,z
-x,-y,z
x,-y,1/2-z
-x,y,1/2-z
-x,-y,-z
x,y,-z
-x,y,1/2+z
x,-y,1/2+z
1/2+x,1/2+y,z
1/2-x,1/2-y,z
1/2+x,1/2-y,1/2-z
1/2-x,1/2+y,1/2-z
1/2-x,1/2-y,-z
1/2+x,1/2+y,-z
1/2-x,1/2+y,1/2+z
1/2+x,1/2-y,1/2+z
loop_
_atom_site_type_symbol
_atom_site_label
_atom_site_fract_x
_atom_site_fract_y
_atom_site_fract_z
Si Si1 0.072836 0.800644 0.422639
Si Si2 0.855097 0.087210 0.132856
Si Si3 0.000000 0.000000 0.750000
Si Si4 0.860621 0.517450 0.076887
O O1 0.088687 0.800972 0.500000
O O2 0.140138 0.670436 0.398804
O O3 0.933807 0.810496 0.408139
O O4 0.117069 0.938503 0.393637
O O5 0.716738 0.081957 0.120869
O O6 0.912942 0.086606 0.204751
O O7 0.000000 0.500000 0.076734
O O8 0.822390 0.506463 0.000000
#
# Coordination Sequence:
#
# PCOD9495597 Si02
#       4
#    16  16   4  16
#     4   9  17  30  54  83 104 135 178 221 276 329
#     4  10  18  34  57  72 107 141 185 232 266 312
#     4   8  20  36  56  72  94 140 188 232 256 314
#     4  10  20  32  52  84 117 141 169 218 285 346
#
# _framework density 22.058468999999999
#
# number of rings (size 3 to 8) (size 9 to 14) (size 15 to 20)
#    0.000    2.769    0.000    4.615    0.000    3.692 
#    0.000    5.385   54.154    0.000    0.000    0.000 
#    0.000    0.000    0.000    0.000    0.000    0.000 
#
# Total GULP energy -144769.874781 kJ/mol
# GULP energy per Si atom -5568.072107 kJ/mol
# Density = 2.200826 g / cm^3
# Si number density = 22.058469 Si / 1000 Ang^3
#
#
#
# Elastic Constant Matrix: (Units=GPa)
#
#
# Indices 1 2 3 4 5 6 
#
# 1 146.9004 26.4334 23.7703 0.0000 0.0000 0.0000
# 2 26.4334 32.7678 -7.4923 0.0000 0.0000 0.0000
# 3 23.7703 -7.4923 62.2187 0.0000 0.0000 0.0000
# 4 0.0000 0.0000 0.0000 -5.1217 0.0000 0.0000
# 5 0.0000 0.0000 0.0000 0.0000 30.3541 0.0000
# 6 0.0000 0.0000 0.0000 0.0000 0.0000 42.7804
#
#
#
# Elastic Compliance Matrix: (Units=1/GPa)
#
#
# Indices 1 2 3 4 5 6 
#
# 1 0.009018 -0.008291 -0.004444 0.000000 0.000000 0.000000
# 2 -0.008291 0.039004 0.007864 0.000000 0.000000 0.000000
# 3 -0.004444 0.007864 0.018717 0.000000 0.000000 0.000000
# 4 0.000000 0.000000 0.000000 -0.195249 0.000000 0.000000
# 5 0.000000 0.000000 0.000000 0.000000 0.032945 0.000000
# 6 0.000000 0.000000 0.000000 0.000000 0.000000 0.023375
#
#
# Mechanical properties :
#
#
# Convention : Reuss Voigt Hill
#
# Bulk Modulus (GPa) = 17.54429 36.36775 26.95602
# Shear Modulus (GPa) = -115.07564 26.88094 -44.09735
#
# Velocity S-wave (km/s) = -7.23061 3.49466 -4.47599
# Velocity P-wave (km/s) = 7.85736 5.72768 3.80341
#
# Compressibility (1/GPa) = 0.05699859
#
# Stress axis : x y z
#
# Youngs Moduli (GPa) = 110.88604 25.63834 53.42722
#
# Poissons Ratio (x) = 0.21257 0.23742
# Poissons Ratio (y) = 0.91935 -0.42017
# Poissons Ratio (z) = 0.49275 -0.20163
#
# Static dielectric constant tensor:
#      x y z
#    x 2.152990 0.000000 0.000000 
#    y 0.000000 1.918230 0.000000 
#    z 0.000000 0.000000 1.782850 
# 
# From -- ./inp_files/47892.got.cif
#   From: 2010.05.17/outbox.cif.g08.bks.cpg/sg66_24_cif.got.tgz:47892.got - 2010.06.03 17:51:23.
