data_PCOD9495595
_publ_section_title
;
Structure prediction by ZEFSAII (Michael W. Deem and Ramdas Pophale) SiO2 
 PCOD9495595
Probable space group: C C C M
;
_chemical_formula_sum "Si O2"
_cell_formula_units_Z 104
_cell_length_a 7.924163
_cell_length_b 26.936937
_cell_length_c 21.063619
_cell_angle_alpha 90.000000
_cell_angle_beta 90.000000
_cell_angle_gamma 90.000000
_cell_volume 4496.085916
_symmetry_space_group_name_H-M "C C C M"
_symmetry_group_IT_number 66
_symmetry_cell_setting 'orthorhombic'
loop_
_space_group_symop_operation_xyz
x,y,z
-x,-y,z
x,-y,1/2-z
-x,y,1/2-z
-x,-y,-z
x,y,-z
-x,y,1/2+z
x,-y,1/2+z
1/2+x,1/2+y,z
1/2-x,1/2-y,z
1/2+x,1/2-y,1/2-z
1/2-x,1/2+y,1/2-z
1/2-x,1/2-y,-z
1/2+x,1/2+y,-z
1/2-x,1/2+y,1/2+z
1/2+x,1/2-y,1/2+z
loop_
_atom_site_type_symbol
_atom_site_label
_atom_site_fract_x
_atom_site_fract_y
_atom_site_fract_z
Si Si1 0.163305 0.857711 0.500000
Si Si2 0.920020 0.886814 0.860198
Si Si3 0.220875 0.331530 0.639830
Si Si4 0.492457 0.899775 0.000000
Si Si5 0.731299 0.515984 0.179696
Si Si6 0.708471 0.677776 0.500000
Si Si7 0.549455 0.067646 0.867503
Si Si8 0.307632 0.300168 0.772697
O O1 0.133423 0.884337 0.566735
O O2 0.369744 0.854439 0.500000
O O3 0.997311 0.820774 0.500000
O O4 0.906913 0.944077 0.841131
O O5 0.807985 0.849885 0.815569
O O6 0.103443 0.862076 0.855708
O O7 0.229306 0.304953 0.570543
O O8 0.083389 0.374518 0.640816
O O9 0.204728 0.303492 0.706483
O O10 0.301925 0.876755 0.000000
O O11 0.515401 0.934043 0.939161
O O12 0.694617 0.500000 0.250000
O O13 0.787824 0.467391 0.140651
O O14 0.904259 0.548195 0.178040
O O15 0.500000 0.294133 0.750000
O O16 0.250000 0.250000 0.808002
#
# Coordination Sequence:
#
# PCOD9495595 Si02
#       8
#     8  16  16   8  16   8  16  16
#     4  10  18  37  61  86 115 160 198 245 308 338
#     4  10  21  38  60  83 114 153 196 240 296 355
#     4   9  19  38  60  82 116 154 190 243 294 344
#     4  10  18  34  56  84 117 156 202 241 291 348
#     4  11  22  34  50  80 116 153 195 238 290 339
#     4   8  18  34  60  88 118 152 201 248 290 357
#     4  10  20  33  51  80 114 149 191 237 280 339
#     4  10  22  40  60  86 115 148 189 240 303 359
#
# _framework density 23.131232000000001
#
# number of rings (size 3 to 8) (size 9 to 14) (size 15 to 20)
#    0.000    2.154    1.538    1.846    0.000    3.692 
#    0.000    2.308    0.000    5.538    0.000    0.000 
#    0.000    0.000    0.000    0.000    0.000    0.000 
#
# Total GULP energy -289723.124866 kJ/mol
# GULP energy per Si atom -5571.598555 kJ/mol
# Density = 2.307858 g / cm^3
# Si number density = 23.131232 Si / 1000 Ang^3
#
#
#
# Elastic Constant Matrix: (Units=GPa)
#
#
# Indices 1 2 3 4 5 6 
#
# 1 79.2459 16.0228 9.6258 0.0000 0.0000 0.0000
# 2 16.0228 80.2513 20.7034 0.0000 0.0000 0.0000
# 3 9.6258 20.7034 126.1615 0.0000 0.0000 0.0000
# 4 0.0000 0.0000 0.0000 50.3886 0.0000 0.0000
# 5 0.0000 0.0000 0.0000 0.0000 39.1566 0.0000
# 6 0.0000 0.0000 0.0000 0.0000 0.0000 19.0047
#
#
#
# Elastic Compliance Matrix: (Units=1/GPa)
#
#
# Indices 1 2 3 4 5 6 
#
# 1 0.013193 -0.002479 -0.000600 0.000000 0.000000 0.000000
# 2 -0.002479 0.013478 -0.002023 0.000000 0.000000 0.000000
# 3 -0.000600 -0.002023 0.008304 0.000000 0.000000 0.000000
# 4 0.000000 0.000000 0.000000 0.019846 0.000000 0.000000
# 5 0.000000 0.000000 0.000000 0.000000 0.025538 0.000000
# 6 0.000000 0.000000 0.000000 0.000000 0.000000 0.052619
#
#
# Mechanical properties :
#
#
# Convention : Reuss Voigt Hill
#
# Bulk Modulus (GPa) = 40.36905 42.04032 41.20468
# Shear Modulus (GPa) = 33.01681 37.66376 35.34029
#
# Velocity S-wave (km/s) = 3.78215 4.03955 3.91297
# Velocity P-wave (km/s) = 6.04673 6.32230 6.18605
#
# Compressibility (1/GPa) = 0.02477145
#
# Stress axis : x y z
#
# Youngs Moduli (GPa) = 75.79715 74.19680 120.42373
#
# Poissons Ratio (x) = 0.18396 0.07222
# Poissons Ratio (y) = 0.18793 0.24356
# Poissons Ratio (z) = 0.04546 0.15007
#
# Static dielectric constant tensor:
#      x y z
#    x 1.964600 0.000000 0.000000 
#    y 0.000000 1.863370 0.000000 
#    z 0.000000 0.000000 1.883040 
# 
# From -- ./inp_files/47441.got.cif
#   From: 2010.05.17/outbox.cif.g08.bks.cpg/sg66_24_cif.got.tgz:47441.got - 2010.06.03 17:51:23.
