data_PCOD9495154
_publ_section_title
;
Structure prediction by ZEFSAII (Michael W. Deem and Ramdas Pophale) SiO2 
 PCOD9495154
Probable space group: C C C M
;
_chemical_formula_sum "Si O2"
_cell_formula_units_Z 80
_cell_length_a 9.888074
_cell_length_b 16.709754
_cell_length_c 25.922161
_cell_angle_alpha 90.000000
_cell_angle_beta 90.000000
_cell_angle_gamma 90.000000
_cell_volume 4283.048259
_symmetry_space_group_name_H-M "C C C M"
_symmetry_group_IT_number 66
_symmetry_cell_setting 'orthorhombic'
loop_
_space_group_symop_operation_xyz
x,y,z
-x,-y,z
x,-y,1/2-z
-x,y,1/2-z
-x,-y,-z
x,y,-z
-x,y,1/2+z
x,-y,1/2+z
1/2+x,1/2+y,z
1/2-x,1/2-y,z
1/2+x,1/2-y,1/2-z
1/2-x,1/2+y,1/2-z
1/2-x,1/2-y,-z
1/2+x,1/2+y,-z
1/2-x,1/2+y,1/2+z
1/2+x,1/2-y,1/2+z
loop_
_atom_site_type_symbol
_atom_site_label
_atom_site_fract_x
_atom_site_fract_y
_atom_site_fract_z
Si Si1 0.336870 0.010043 0.809816
Si Si2 0.024291 0.403769 0.441272
Si Si3 0.306397 0.568446 0.903645
Si Si4 0.415903 0.395802 0.060184
Si Si5 0.195994 0.330079 0.128474
O O1 0.296479 0.096878 0.831432
O O2 0.500000 0.000000 0.814615
O O3 0.302323 0.000000 0.750000
O O4 0.256364 0.949708 0.847530
O O5 0.979008 0.389203 0.500000
O O6 0.184533 0.393434 0.435530
O O7 0.000000 0.500000 0.431081
O O8 0.945408 0.348159 0.400770
O O9 0.447143 0.614496 0.907146
O O10 0.349693 0.483304 0.929227
O O11 0.303994 0.337656 0.082150
O O12 0.444662 0.387544 0.000000
O O13 0.250000 0.250000 0.155210
#
# Coordination Sequence:
#
# PCOD9495154 Si02
#       5
#    16  16  16  16  16
#     4  10  19  37  66  86 102 143 202 247 290 343
#     4  11  18  30  54  82 112 153 201 231 265 339
#     4  10  17  32  53  83 110 143 196 245 277 322
#     4  10  19  31  52  83 119 154 183 230 287 335
#     4  11  22  37  55  84 119 148 188 242 297 343
#
# _framework density 18.678284999999999
#
# number of rings (size 3 to 8) (size 9 to 14) (size 15 to 20)
#    0.000    1.600    6.000    3.000    0.000    1.600 
#    0.000    9.000    8.800    2.400    0.000    0.000 
#    0.000    0.000    0.000    0.000    0.000    0.000 
#
# Total GULP energy -222843.921197 kJ/mol
# GULP energy per Si atom -5571.098030 kJ/mol
# Density = 1.863577 g / cm^3
# Si number density = 18.678285 Si / 1000 Ang^3
#
#
#
# Elastic Constant Matrix: (Units=GPa)
#
#
# Indices 1 2 3 4 5 6 
#
# 1 126.0134 19.4610 27.4518 0.0000 0.0000 0.0000
# 2 19.4610 43.4548 11.2568 0.0000 0.0000 0.0000
# 3 27.4518 11.2568 136.5678 0.0000 0.0000 0.0000
# 4 0.0000 0.0000 0.0000 7.0252 0.0000 0.0000
# 5 0.0000 0.0000 0.0000 0.0000 26.2073 0.0000
# 6 0.0000 0.0000 0.0000 0.0000 0.0000 12.9262
#
#
#
# Elastic Compliance Matrix: (Units=1/GPa)
#
#
# Indices 1 2 3 4 5 6 
#
# 1 0.008807 -0.003562 -0.001477 0.000000 0.000000 0.000000
# 2 -0.003562 0.024955 -0.001341 0.000000 0.000000 0.000000
# 3 -0.001477 -0.001341 0.007730 0.000000 0.000000 0.000000
# 4 0.000000 0.000000 0.000000 0.142344 0.000000 0.000000
# 5 0.000000 0.000000 0.000000 0.000000 0.038157 0.000000
# 6 0.000000 0.000000 0.000000 0.000000 0.000000 0.077362
#
#
# Mechanical properties :
#
#
# Convention : Reuss Voigt Hill
#
# Bulk Modulus (GPa) = 34.80325 46.93057 40.86691
# Shear Modulus (GPa) = 15.54279 25.75619 20.64949
#
# Velocity S-wave (km/s) = 2.88780 3.71743 3.32857
# Velocity P-wave (km/s) = 5.45826 6.60349 6.05800
#
# Compressibility (1/GPa) = 0.02873295
#
# Stress axis : x y z
#
# Youngs Moduli (GPa) = 113.54020 40.07223 129.37013
#
# Poissons Ratio (x) = 0.14273 0.19106
# Poissons Ratio (y) = 0.40441 0.17348
# Poissons Ratio (z) = 0.16768 0.05374
#
# Static dielectric constant tensor:
#      x y z
#    x 1.673460 0.000000 0.000000 
#    y 0.000000 1.810940 0.000000 
#    z 0.000000 0.000000 1.642530 
# 
# From -- ./inp_files/68136.got.cif
#   From: 2010.05.17/outbox.cif.g08.bks.cpg/sg66_35_cif.got.tgz:68136.got - 2010.06.03 17:51:23.
