data_PCOD9495973
_publ_section_title
;
Structure prediction by ZEFSAII (Michael W. Deem and Ramdas Pophale) SiO2 
 PCOD9495973
Probable space group: C C C M
;
_chemical_formula_sum "Si O2"
_cell_formula_units_Z 96
_cell_length_a 9.489921
_cell_length_b 21.487631
_cell_length_c 25.092090
_cell_angle_alpha 90.000000
_cell_angle_beta 90.000000
_cell_angle_gamma 90.000000
_cell_volume 5116.676634
_symmetry_space_group_name_H-M "C C C M"
_symmetry_group_IT_number 66
_symmetry_cell_setting 'orthorhombic'
loop_
_space_group_symop_operation_xyz
x,y,z
-x,-y,z
x,-y,1/2-z
-x,y,1/2-z
-x,-y,-z
x,y,-z
-x,y,1/2+z
x,-y,1/2+z
1/2+x,1/2+y,z
1/2-x,1/2-y,z
1/2+x,1/2-y,1/2-z
1/2-x,1/2+y,1/2-z
1/2-x,1/2-y,-z
1/2+x,1/2+y,-z
1/2-x,1/2+y,1/2+z
1/2+x,1/2-y,1/2+z
loop_
_atom_site_type_symbol
_atom_site_label
_atom_site_fract_x
_atom_site_fract_y
_atom_site_fract_z
Si Si1 0.313213 0.979619 0.127947
Si Si2 0.085453 0.236007 0.438753
Si Si3 0.858694 0.696021 0.133980
Si Si4 0.576696 0.586867 0.562118
Si Si5 0.560468 0.080899 0.691671
Si Si6 0.752697 0.914593 0.938996
O O1 0.181577 0.939566 0.107024
O O2 0.436154 0.935051 0.149219
O O3 0.313939 0.032716 0.175180
O O4 0.338347 0.025915 0.078167
O O5 0.047361 0.253478 0.500000
O O6 0.250000 0.250000 0.431035
O O7 0.069237 0.161740 0.434130
O O8 0.988754 0.272895 0.397315
O O9 0.750000 0.750000 0.147874
O O10 0.899968 0.652380 0.183320
O O11 0.786143 0.645793 0.094739
O O12 0.618273 0.571809 0.500000
O O13 0.415431 0.565820 0.570000
O O14 0.500000 0.069772 0.750000
O O15 0.735253 0.898986 0.000000
#
# Coordination Sequence:
#
# PCOD9495973 Si02
#       6
#    16  16  16  16  16  16
#     4  10  19  35  59  82 108 151 199 234 294 364
#     4  10  20  33  53  87 129 168 198 231 282 351
#     4  11  21  38  63  87 116 159 210 242 293 365
#     4  10  19  32  52  86 129 161 186 229 288 353
#     4  10  23  43  63  80 106 150 201 264 318 346
#     4  10  20  33  56  88 125 163 193 231 284 353
#
# _framework density 18.762177999999999
#
# number of rings (size 3 to 8) (size 9 to 14) (size 15 to 20)
#    0.000    1.833    1.667    3.500    0.000    2.000 
#    0.000   20.833    0.000   16.000    0.000    0.000 
#    0.000    0.000    0.000    0.000    0.000    0.000 
#
# Total GULP energy -267412.049961 kJ/mol
# GULP energy per Si atom -5571.084374 kJ/mol
# Density = 1.871947 g / cm^3
# Si number density = 18.762178 Si / 1000 Ang^3
#
#
#
# Elastic Constant Matrix: (Units=GPa)
#
#
# Indices 1 2 3 4 5 6 
#
# 1 71.3495 31.0570 46.3679 0.0000 0.0000 0.0000
# 2 31.0570 91.1613 22.6309 0.0000 0.0000 0.0000
# 3 46.3679 22.6309 76.3507 0.0000 0.0000 0.0000
# 4 0.0000 0.0000 0.0000 18.8798 0.0000 0.0000
# 5 0.0000 0.0000 0.0000 0.0000 21.1384 0.0000
# 6 0.0000 0.0000 0.0000 0.0000 0.0000 34.1667
#
#
#
# Elastic Compliance Matrix: (Units=1/GPa)
#
#
# Indices 1 2 3 4 5 6 
#
# 1 0.025226 -0.005172 -0.013787 0.000000 0.000000 0.000000
# 2 -0.005172 0.012901 -0.000683 0.000000 0.000000 0.000000
# 3 -0.013787 -0.000683 0.021673 0.000000 0.000000 0.000000
# 4 0.000000 0.000000 0.000000 0.052967 0.000000 0.000000
# 5 0.000000 0.000000 0.000000 0.000000 0.047307 0.000000
# 6 0.000000 0.000000 0.000000 0.000000 0.000000 0.029268
#
#
# Mechanical properties :
#
#
# Convention : Reuss Voigt Hill
#
# Bulk Modulus (GPa) = 48.74134 48.77480 48.75807
# Shear Modulus (GPa) = 21.23452 24.09068 22.66260
#
# Velocity S-wave (km/s) = 3.36783 3.58719 3.47924
# Velocity P-wave (km/s) = 6.41545 6.57343 6.49492
#
# Compressibility (1/GPa) = 0.02051647
#
# Stress axis : x y z
#
# Youngs Moduli (GPa) = 39.64093 77.51314 46.14034
#
# Poissons Ratio (x) = 0.40086 0.63615
# Poissons Ratio (y) = 0.20500 0.03153
# Poissons Ratio (z) = 0.54654 0.05297
#
# Static dielectric constant tensor:
#      x y z
#    x 1.696190 0.000000 0.000000 
#    y 0.000000 1.706940 0.000000 
#    z 0.000000 0.000000 1.637650 
# 
# From -- ./inp_files/55619.got.cif
#   From: 2010.05.17/outbox.cif.g08.bks.cpg/sg66_28_cif.got.tgz:55619.got - 2010.06.03 17:51:23.
