data_PCOD9495252
_publ_section_title
;
Structure prediction by ZEFSAII (Michael W. Deem and Ramdas Pophale) SiO2 
 PCOD9495252
Probable space group: C C C M
;
_chemical_formula_sum "Si O2"
_cell_formula_units_Z 128
_cell_length_a 17.650822
_cell_length_b 16.793985
_cell_length_c 23.219263
_cell_angle_alpha 90.000000
_cell_angle_beta 90.000000
_cell_angle_gamma 90.000000
_cell_volume 6882.831331
_symmetry_space_group_name_H-M "C C C M"
_symmetry_group_IT_number 66
_symmetry_cell_setting 'orthorhombic'
loop_
_space_group_symop_operation_xyz
x,y,z
-x,-y,z
x,-y,1/2-z
-x,y,1/2-z
-x,-y,-z
x,y,-z
-x,y,1/2+z
x,-y,1/2+z
1/2+x,1/2+y,z
1/2-x,1/2-y,z
1/2+x,1/2-y,1/2-z
1/2-x,1/2+y,1/2-z
1/2-x,1/2-y,-z
1/2+x,1/2+y,-z
1/2-x,1/2+y,1/2+z
1/2+x,1/2-y,1/2+z
loop_
_atom_site_type_symbol
_atom_site_label
_atom_site_fract_x
_atom_site_fract_y
_atom_site_fract_z
Si Si1 0.180952 0.429584 0.566090
Si Si2 0.637877 0.741914 0.563273
Si Si3 0.490626 0.762619 0.623558
Si Si4 0.839356 0.261083 0.680960
Si Si5 0.927056 0.159423 0.778756
Si Si6 0.170347 0.594342 0.758877
Si Si7 0.797720 0.882266 0.651181
Si Si8 0.949998 0.570423 0.352224
O O1 0.189024 0.454546 0.500000
O O2 0.161525 0.334404 0.566646
O O3 0.255187 0.439862 0.605950
O O4 0.108304 0.463060 0.599799
O O5 0.659526 0.711458 0.500000
O O6 0.547285 0.734054 0.573026
O O7 0.679825 0.694176 0.613201
O O8 0.401449 0.745795 0.630705
O O9 0.532820 0.724642 0.679485
O O10 0.501529 0.857322 0.623575
O O11 0.750000 0.250000 0.668480
O O12 0.872021 0.205413 0.733408
O O13 0.843249 0.352418 0.703161
O O14 0.876028 0.099568 0.816377
O O15 0.000000 0.119477 0.750000
O O16 0.184404 0.500000 0.750000
O O17 0.237863 0.630174 0.797709
O O18 0.098501 0.602832 0.799719
O O19 0.000000 0.500000 0.329695
#
# Coordination Sequence:
#
# PCOD9495252 Si02
#       8
#    16  16  16  16  16  16  16  16
#     4   9  18  28  43  69  97 125 164 204 239 275
#     4   9  17  29  48  71  95 121 154 208 256 281
#     4   9  18  29  44  69  94 118 166 200 234 284
#     4  11  19  29  47  67  91 130 162 195 238 282
#     4   9  17  28  45  68  90 121 157 197 233 284
#     4  11  22  30  42  67 101 132 163 195 233 283
#     4  10  18  28  46  67  95 125 156 191 245 292
#     4  10  19  30  44  60  94 141 170 192 222 277
#
# _framework density 18.596997999999999
#
# number of rings (size 3 to 8) (size 9 to 14) (size 15 to 20)
#    0.000    2.250    2.500    1.500    3.500    2.500 
#    0.000    0.000    0.000    0.750    0.000    0.000 
#    0.000    1.000    0.250    0.000    0.000    0.000 
#
# Total GULP energy -356280.952204 kJ/mol
# GULP energy per Si atom -5566.889878 kJ/mol
# Density = 1.855467 g / cm^3
# Si number density = 18.596998 Si / 1000 Ang^3
#
#
#
# Elastic Constant Matrix: (Units=GPa)
#
#
# Indices 1 2 3 4 5 6 
#
# 1 139.9719 5.0810 30.8001 0.0000 0.0000 0.0000
# 2 5.0810 8.0136 0.7367 0.0000 0.0000 0.0000
# 3 30.8001 0.7367 49.2926 0.0000 0.0000 0.0000
# 4 0.0000 0.0000 0.0000 6.9640 0.0000 0.0000
# 5 0.0000 0.0000 0.0000 0.0000 6.5512 0.0000
# 6 0.0000 0.0000 0.0000 0.0000 0.0000 11.4973
#
#
#
# Elastic Compliance Matrix: (Units=1/GPa)
#
#
# Indices 1 2 3 4 5 6 
#
# 1 0.008470 -0.004891 -0.005220 0.000000 0.000000 0.000000
# 2 -0.004891 0.127784 0.001146 0.000000 0.000000 0.000000
# 3 -0.005220 0.001146 0.023531 0.000000 0.000000 0.000000
# 4 0.000000 0.000000 0.000000 0.143596 0.000000 0.000000
# 5 0.000000 0.000000 0.000000 0.000000 0.152644 0.000000
# 6 0.000000 0.000000 0.000000 0.000000 0.000000 0.086977
#
#
# Mechanical properties :
#
#
# Convention : Reuss Voigt Hill
#
# Bulk Modulus (GPa) = 7.04935 30.05708 18.55321
# Shear Modulus (GPa) = 8.22076 15.71319 11.96697
#
# Velocity S-wave (km/s) = 2.10477 2.90992 2.53946
# Velocity P-wave (km/s) = 3.11538 5.24286 4.31238
#
# Compressibility (1/GPa) = 0.14185710
#
# Stress axis : x y z
#
# Youngs Moduli (GPa) = 118.05873 7.82572 42.49665
#
# Poissons Ratio (x) = 0.03827 0.22181
# Poissons Ratio (y) = 0.57739 -0.04871
# Poissons Ratio (z) = 0.61621 -0.00897
#
# Static dielectric constant tensor:
#      x y z
#    x 1.704220 0.000000 0.000000 
#    y 0.000000 1.628870 0.000000 
#    z 0.000000 0.000000 1.666390 
# 
# From -- ./inp_files/59068.got.cif
#   From: 2010.05.17/outbox.cif.g08.bks.cpg/sg66_30_cif.got.tgz:59068.got - 2010.06.03 17:51:23.
