data_PCOD9495347
_publ_section_title
;
Structure prediction by ZEFSAII (Michael W. Deem and Ramdas Pophale) SiO2 
 PCOD9495347
Probable space group: C C C M
;
_chemical_formula_sum "Si O2"
_cell_formula_units_Z 104
_cell_length_a 23.822110
_cell_length_b 13.141857
_cell_length_c 17.276892
_cell_angle_alpha 90.000000
_cell_angle_beta 90.000000
_cell_angle_gamma 90.000000
_cell_volume 5408.820654
_symmetry_space_group_name_H-M "C C C M"
_symmetry_group_IT_number 66
_symmetry_cell_setting 'orthorhombic'
loop_
_space_group_symop_operation_xyz
x,y,z
-x,-y,z
x,-y,1/2-z
-x,y,1/2-z
-x,-y,-z
x,y,-z
-x,y,1/2+z
x,-y,1/2+z
1/2+x,1/2+y,z
1/2-x,1/2-y,z
1/2+x,1/2-y,1/2-z
1/2-x,1/2+y,1/2-z
1/2-x,1/2-y,-z
1/2+x,1/2+y,-z
1/2-x,1/2+y,1/2+z
1/2+x,1/2-y,1/2+z
loop_
_atom_site_type_symbol
_atom_site_label
_atom_site_fract_x
_atom_site_fract_y
_atom_site_fract_z
Si Si1 0.140164 0.193922 0.140644
Si Si2 0.841461 0.138893 0.091691
Si Si3 0.132942 0.578932 0.588803
Si Si4 0.186954 0.285299 0.712696
Si Si5 0.861875 0.500000 0.750000
Si Si6 0.934538 0.996990 0.156767
Si Si7 0.265629 0.454801 0.908995
O O1 0.128854 0.298534 0.095850
O O2 0.145331 0.224754 0.230145
O O3 0.094260 0.107124 0.127754
O O4 0.199786 0.141336 0.121796
O O5 0.828876 0.248281 0.127531
O O6 0.899443 0.089059 0.119807
O O7 0.793604 0.059038 0.121740
O O8 0.839918 0.144081 0.000000
O O9 0.116713 0.548593 0.500000
O O10 0.107135 0.529355 0.668070
O O11 0.199310 0.554420 0.599154
O O12 0.250000 0.250000 0.728653
O O13 0.175622 0.402144 0.729784
O O14 0.928394 0.000000 0.250000
O O15 0.000000 0.000000 0.137739
O O16 0.277434 0.455715 0.000000
#
# Coordination Sequence:
#
# PCOD9495347 Si02
#       7
#    16  16  16  16   8  16  16
#     4  10  18  30  50  78 106 142 184 232 279 335
#     4  10  21  35  52  80 116 154 192 233 288 346
#     4  10  19  32  49  73 109 151 191 232 276 332
#     4  11  21  33  51  76 110 152 195 238 279 341
#     4  10  22  34  48  76 105 144 195 232 276 332
#     4  10  20  37  60  85 115 149 189 237 291 344
#     4   9  17  28  46  74 109 146 187 227 271 331
#
# _framework density 19.227853
#
# number of rings (size 3 to 8) (size 9 to 14) (size 15 to 20)
#    0.000    2.000    1.538    3.692    0.000    4.308 
#    0.000    0.000    0.000    0.000    0.000    8.615 
#    0.000    6.154    0.000    0.000    0.000    0.000 
#
# Total GULP energy -289955.542587 kJ/mol
# GULP energy per Si atom -5576.068127 kJ/mol
# Density = 1.918409 g / cm^3
# Si number density = 19.227853 Si / 1000 Ang^3
#
#
#
# Elastic Constant Matrix: (Units=GPa)
#
#
# Indices 1 2 3 4 5 6 
#
# 1 47.3833 14.5777 12.0435 0.0000 0.0000 0.0000
# 2 14.5777 90.7525 30.3631 0.0000 0.0000 0.0000
# 3 12.0435 30.3631 107.3783 0.0000 0.0000 0.0000
# 4 0.0000 0.0000 0.0000 31.2241 0.0000 0.0000
# 5 0.0000 0.0000 0.0000 0.0000 14.8509 0.0000
# 6 0.0000 0.0000 0.0000 0.0000 0.0000 8.0561
#
#
#
# Elastic Compliance Matrix: (Units=1/GPa)
#
#
# Indices 1 2 3 4 5 6 
#
# 1 0.022465 -0.003055 -0.001656 0.000000 0.000000 0.000000
# 2 -0.003055 0.012586 -0.003216 0.000000 0.000000 0.000000
# 3 -0.001656 -0.003216 0.010408 0.000000 0.000000 0.000000
# 4 0.000000 0.000000 0.000000 0.032027 0.000000 0.000000
# 5 0.000000 0.000000 0.000000 0.000000 0.067336 0.000000
# 6 0.000000 0.000000 0.000000 0.000000 0.000000 0.124130
#
#
# Mechanical properties :
#
#
# Convention : Reuss Voigt Hill
#
# Bulk Modulus (GPa) = 33.77766 39.94254 36.86010
# Shear Modulus (GPa) = 16.96796 23.39487 20.18142
#
# Velocity S-wave (km/s) = 2.97386 3.49193 3.24326
# Velocity P-wave (km/s) = 5.42190 6.08905 5.76513
#
# Compressibility (1/GPa) = 0.02960537
#
# Stress axis : x y z
#
# Youngs Moduli (GPa) = 44.51344 79.45529 96.07950
#
# Poissons Ratio (x) = 0.24270 0.15910
# Poissons Ratio (y) = 0.13597 0.30901
# Poissons Ratio (z) = 0.07371 0.25555
#
# Static dielectric constant tensor:
#      x y z
#    x 1.635940 0.000000 0.000000 
#    y 0.000000 1.692290 0.000000 
#    z 0.000000 0.000000 1.742800 
# 
# From -- ./inp_files/39068.got.cif
#   From: 2010.05.17/outbox.cif.g08.bks.cpg/sg66_20_cif.got.tgz:39068.got - 2010.06.03 17:51:23.
