data_PCOD9495188
_publ_section_title
;
Structure prediction by ZEFSAII (Michael W. Deem and Ramdas Pophale) SiO2 
 PCOD9495188
Probable space group: C C C M
;
_chemical_formula_sum "Si O2"
_cell_formula_units_Z 40
_cell_length_a 17.630015
_cell_length_b 7.259966
_cell_length_c 13.334437
_cell_angle_alpha 90.000000
_cell_angle_beta 90.000000
_cell_angle_gamma 90.000000
_cell_volume 1706.718722
_symmetry_space_group_name_H-M "C C C M"
_symmetry_group_IT_number 66
_symmetry_cell_setting 'orthorhombic'
loop_
_space_group_symop_operation_xyz
x,y,z
-x,-y,z
x,-y,1/2-z
-x,y,1/2-z
-x,-y,-z
x,y,-z
-x,y,1/2+z
x,-y,1/2+z
1/2+x,1/2+y,z
1/2-x,1/2-y,z
1/2+x,1/2-y,1/2-z
1/2-x,1/2+y,1/2-z
1/2-x,1/2-y,-z
1/2+x,1/2+y,-z
1/2-x,1/2+y,1/2+z
1/2+x,1/2-y,1/2+z
loop_
_atom_site_type_symbol
_atom_site_label
_atom_site_fract_x
_atom_site_fract_y
_atom_site_fract_z
Si Si1 0.083293 0.784886 0.218697
Si Si2 0.729138 0.538858 0.000000
Si Si3 0.250000 0.250000 0.678592
Si Si4 0.926180 0.120449 0.000000
O O1 0.171509 0.734883 0.242176
O O2 0.000000 0.708933 0.250000
O O3 0.080191 0.000000 0.250000
O O4 0.081581 0.762459 0.099154
O O5 0.750000 0.750000 0.000000
O O6 0.750193 0.422997 0.899540
O O7 0.638940 0.530142 0.000000
O O8 0.000000 0.000000 0.000000
#
# Coordination Sequence:
#
# PCOD9495188 Si02
#       4
#    16   8   8   8
#     4  10  19  35  62  92 124 174 212 264 330 382
#     4   9  19  38  68  93 120 167 212 273 331 382
#     4   9  20  38  62  97 126 162 226 263 320 407
#     4  10  17  34  59  89 118 163 218 245 312 411
#
# _framework density 23.436785
#
# number of rings (size 3 to 8) (size 9 to 14) (size 15 to 20)
#    0.000    2.400    4.000    1.200    0.000    0.000 
#   14.400    0.000    0.000   39.600    0.000    0.000 
#    0.000    0.000    0.000    0.000    0.000    0.000 
#
# Total GULP energy -111372.810141 kJ/mol
# GULP energy per Si atom -5568.640507 kJ/mol
# Density = 2.338344 g / cm^3
# Si number density = 23.436785 Si / 1000 Ang^3
#
#
#
# Elastic Constant Matrix: (Units=GPa)
#
#
# Indices 1 2 3 4 5 6 
#
# 1 298.2959 48.3799 32.0082 0.0000 0.0000 0.0000
# 2 48.3799 122.8849 12.5063 0.0000 0.0000 0.0000
# 3 32.0082 12.5063 72.3302 0.0000 0.0000 0.0000
# 4 0.0000 0.0000 0.0000 11.8344 0.0000 0.0000
# 5 0.0000 0.0000 0.0000 0.0000 40.8699 0.0000
# 6 0.0000 0.0000 0.0000 0.0000 0.0000 20.3122
#
#
#
# Elastic Compliance Matrix: (Units=1/GPa)
#
#
# Indices 1 2 3 4 5 6 
#
# 1 0.003719 -0.001320 -0.001417 0.000000 0.000000 0.000000
# 2 -0.001320 0.008752 -0.000929 0.000000 0.000000 0.000000
# 3 -0.001417 -0.000929 0.014613 0.000000 0.000000 0.000000
# 4 0.000000 0.000000 0.000000 0.084500 0.000000 0.000000
# 5 0.000000 0.000000 0.000000 0.000000 0.024468 0.000000
# 6 0.000000 0.000000 0.000000 0.000000 0.000000 0.049232
#
#
# Mechanical properties :
#
#
# Convention : Reuss Voigt Hill
#
# Bulk Modulus (GPa) = 50.63009 75.47775 63.05392
# Shear Modulus (GPa) = 25.10051 41.31108 33.20579
#
# Velocity S-wave (km/s) = 3.27615 4.20296 3.76816
# Velocity P-wave (km/s) = 5.99671 7.47181 6.77453
#
# Compressibility (1/GPa) = 0.01975110
#
# Stress axis : x y z
#
# Youngs Moduli (GPa) = 268.92516 114.26167 68.43049
#
# Poissons Ratio (x) = 0.15079 0.09699
# Poissons Ratio (y) = 0.35491 0.06359
# Poissons Ratio (z) = 0.38116 0.10617
#
# Static dielectric constant tensor:
#      x y z
#    x 2.023980 0.000000 0.000000 
#    y 0.000000 1.870880 0.000000 
#    z 0.000000 0.000000 1.954590 
# 
# From -- ./inp_files/29260.got.cif
#   From: 2010.05.17/outbox.cif.g08.bks.cpg/sg66_15_cif.got.tgz:29260.got - 2010.06.03 17:51:23.
