data_PCOD9495453
_publ_section_title
;
Structure prediction by ZEFSAII (Michael W. Deem and Ramdas Pophale) SiO2 
 PCOD9495453
Probable space group: C C C M
;
_chemical_formula_sum "Si O2"
_cell_formula_units_Z 128
_cell_length_a 22.174334
_cell_length_b 22.153655
_cell_length_c 17.190929
_cell_angle_alpha 90.000000
_cell_angle_beta 90.000000
_cell_angle_gamma 90.000000
_cell_volume 8444.915718
_symmetry_space_group_name_H-M "C C C M"
_symmetry_group_IT_number 66
_symmetry_cell_setting 'orthorhombic'
loop_
_space_group_symop_operation_xyz
x,y,z
-x,-y,z
x,-y,1/2-z
-x,y,1/2-z
-x,-y,-z
x,y,-z
-x,y,1/2+z
x,-y,1/2+z
1/2+x,1/2+y,z
1/2-x,1/2-y,z
1/2+x,1/2-y,1/2-z
1/2-x,1/2+y,1/2-z
1/2-x,1/2-y,-z
1/2+x,1/2+y,-z
1/2-x,1/2+y,1/2+z
1/2+x,1/2-y,1/2+z
loop_
_atom_site_type_symbol
_atom_site_label
_atom_site_fract_x
_atom_site_fract_y
_atom_site_fract_z
Si Si1 0.848056 0.732807 0.761088
Si Si2 0.701971 0.429096 0.909899
Si Si3 0.076602 0.236806 0.911078
Si Si4 0.066134 0.890092 0.091963
Si Si5 0.235338 0.849531 0.234835
Si Si6 0.180797 0.041475 0.825601
Si Si7 0.539595 0.266828 0.173763
Si Si8 0.435348 0.590441 0.409821
O O1 0.875668 0.740244 0.847602
O O2 0.812568 0.794721 0.740502
O O3 0.800169 0.679550 0.751637
O O4 0.905127 0.726844 0.703446
O O5 0.629343 0.423046 0.898191
O O6 0.731167 0.382510 0.848980
O O7 0.715067 0.498132 0.886409
O O8 0.715372 0.416306 0.000000
O O9 0.071809 0.163488 0.905802
O O10 0.009637 0.258851 0.886216
O O11 0.090995 0.252241 0.000000
O O12 0.066862 0.827661 0.138148
O O13 0.004138 0.923314 0.114697
O O14 0.058994 0.876811 0.000000
O O15 0.216989 0.899795 0.298000
O O16 0.116742 0.061910 0.859005
O O17 0.172051 0.000000 0.750000
O O18 0.500000 0.282753 0.250000
O O19 0.427573 0.571680 0.500000
#
# Coordination Sequence:
#
# PCOD9495453 Si02
#       8
#    16  16  16  16  16  16  16  16
#     4  10  18  32  51  69  96 127 159 199 238 284
#     4  10  20  34  48  64  91 126 167 211 243 273
#     4   9  17  30  49  73  98 122 153 195 238 284
#     4   9  17  28  43  62  89 121 158 202 239 270
#     4  10  20  34  47  67  94 127 166 204 235 280
#     4  10  20  32  46  61  87 125 166 206 243 274
#     4   9  16  26  47  69  92 123 153 188 239 284
#     4   9  16  28  44  63  89 121 159 202 240 273
#
# _framework density 15.157049000000001
#
# number of rings (size 3 to 8) (size 9 to 14) (size 15 to 20)
#    0.000    2.500    2.500    1.500    0.000    0.500 
#    0.000    8.750    0.000    0.000    0.000    0.000 
#    0.000   40.500    0.000   20.250    0.000    0.000 
#
# Total GULP energy -356621.231186 kJ/mol
# GULP energy per Si atom -5572.206737 kJ/mol
# Density = 1.512255 g / cm^3
# Si number density = 15.157049 Si / 1000 Ang^3
#
#
#
# Elastic Constant Matrix: (Units=GPa)
#
#
# Indices 1 2 3 4 5 6 
#
# 1 74.4429 38.3881 35.8740 0.0000 0.0000 0.0000
# 2 38.3881 59.2996 29.7497 0.0000 0.0000 0.0000
# 3 35.8740 29.7497 65.0058 0.0000 0.0000 0.0000
# 4 0.0000 0.0000 0.0000 4.7779 0.0000 0.0000
# 5 0.0000 0.0000 0.0000 0.0000 16.0551 0.0000
# 6 0.0000 0.0000 0.0000 0.0000 0.0000 13.8813
#
#
#
# Elastic Compliance Matrix: (Units=1/GPa)
#
#
# Indices 1 2 3 4 5 6 
#
# 1 0.022686 -0.010910 -0.007527 0.000000 0.000000 0.000000
# 2 -0.010910 0.027136 -0.006398 0.000000 0.000000 0.000000
# 3 -0.007527 -0.006398 0.022465 0.000000 0.000000 0.000000
# 4 0.000000 0.000000 0.000000 0.209299 0.000000 0.000000
# 5 0.000000 0.000000 0.000000 0.000000 0.062286 0.000000
# 6 0.000000 0.000000 0.000000 0.000000 0.000000 0.072040
#
#
# Mechanical properties :
#
#
# Convention : Reuss Voigt Hill
#
# Bulk Modulus (GPa) = 44.21281 45.19685 44.70483
# Shear Modulus (GPa) = 10.56815 13.25861 11.91338
#
# Velocity S-wave (km/s) = 2.64340 2.96082 2.80660
# Velocity P-wave (km/s) = 6.20886 6.44767 6.32939
#
# Compressibility (1/GPa) = 0.02261788
#
# Stress axis : x y z
#
# Youngs Moduli (GPa) = 44.07955 36.85140 44.51408
#
# Poissons Ratio (x) = 0.40206 0.33504
# Poissons Ratio (y) = 0.48092 0.28479
# Poissons Ratio (z) = 0.33177 0.23577
#
# Static dielectric constant tensor:
#      x y z
#    x 1.502490 0.000000 0.000000 
#    y 0.000000 1.495360 0.000000 
#    z 0.000000 0.000000 1.532880 
# 
# From -- ./inp_files/43194.got.cif
#   From: 2010.05.17/outbox.cif.g08.bks.cpg/sg66_22_cif.got.tgz:43194.got - 2010.06.03 17:51:23.
