data_PCOD9495703
_publ_section_title
;
Structure prediction by ZEFSAII (Michael W. Deem and Ramdas Pophale) SiO2 
 PCOD9495703
Probable space group: C C C M
;
_chemical_formula_sum "Si O2"
_cell_formula_units_Z 72
_cell_length_a 11.642577
_cell_length_b 9.719748
_cell_length_c 30.809155
_cell_angle_alpha 90.000000
_cell_angle_beta 90.000000
_cell_angle_gamma 90.000000
_cell_volume 3486.453773
_symmetry_space_group_name_H-M "C C C M"
_symmetry_group_IT_number 66
_symmetry_cell_setting 'orthorhombic'
loop_
_space_group_symop_operation_xyz
x,y,z
-x,-y,z
x,-y,1/2-z
-x,y,1/2-z
-x,-y,-z
x,y,-z
-x,y,1/2+z
x,-y,1/2+z
1/2+x,1/2+y,z
1/2-x,1/2-y,z
1/2+x,1/2-y,1/2-z
1/2-x,1/2+y,1/2-z
1/2-x,1/2-y,-z
1/2+x,1/2+y,-z
1/2-x,1/2+y,1/2+z
1/2+x,1/2-y,1/2+z
loop_
_atom_site_type_symbol
_atom_site_label
_atom_site_fract_x
_atom_site_fract_y
_atom_site_fract_z
Si Si1 0.250000 0.250000 0.158675
Si Si2 0.712832 0.563091 0.921106
Si Si3 0.617341 0.287557 0.112141
Si Si4 0.934034 0.323317 0.451394
Si Si5 0.485660 0.665579 0.700471
O O1 0.247442 0.379696 0.126030
O O2 0.362042 0.277851 0.186348
O O3 0.630219 0.434497 0.912481
O O4 0.835228 0.559881 0.945696
O O5 0.637523 0.681745 0.943782
O O6 0.750000 0.250000 0.113808
O O7 0.533198 0.189621 0.084537
O O8 0.569236 0.292056 0.161024
O O9 0.980264 0.328524 0.500000
O O10 0.500000 0.500000 0.700989
O O11 0.500000 0.713541 0.750000
#
# Coordination Sequence:
#
# PCOD9495703 Si02
#       5
#     8  16  16  16  16
#     4  10  18  38  67  84 114 154 201 258 294 350
#     4  10  19  38  63  84 116 152 205 249 302 352
#     4  12  24  38  56  89 127 162 192 251 311 367
#     4  10  21  39  64  88 112 156 209 253 299 361
#     4  11  22  40  64  91 119 159 210 253 303 366
#
# _framework density 20.651356
#
# number of rings (size 3 to 8) (size 9 to 14) (size 15 to 20)
#    0.000    1.556    6.667    2.000    1.556    4.000 
#    0.000    1.111    0.000    1.333    0.000    0.000 
#    0.000    0.000    0.000    0.000    0.000    0.000 
#
# Total GULP energy -200647.049654 kJ/mol
# GULP energy per Si atom -5573.529157 kJ/mol
# Density = 2.060435 g / cm^3
# Si number density = 20.651356 Si / 1000 Ang^3
#
#
#
# Elastic Constant Matrix: (Units=GPa)
#
#
# Indices 1 2 3 4 5 6 
#
# 1 142.6106 13.1437 57.4694 0.0000 0.0000 0.0000
# 2 13.1437 33.3678 -5.1926 0.0000 0.0000 0.0000
# 3 57.4694 -5.1926 165.0277 0.0000 0.0000 0.0000
# 4 0.0000 0.0000 0.0000 134.3316 0.0000 0.0000
# 5 0.0000 0.0000 0.0000 0.0000 27.6455 0.0000
# 6 0.0000 0.0000 0.0000 0.0000 0.0000 23.2305
#
#
#
# Elastic Compliance Matrix: (Units=1/GPa)
#
#
# Indices 1 2 3 4 5 6 
#
# 1 0.008631 -0.003886 -0.003128 0.000000 0.000000 0.000000
# 2 -0.003886 0.031867 0.002356 0.000000 0.000000 0.000000
# 3 -0.003128 0.002356 0.007223 0.000000 0.000000 0.000000
# 4 0.000000 0.000000 0.000000 0.007444 0.000000 0.000000
# 5 0.000000 0.000000 0.000000 0.000000 0.036172 0.000000
# 6 0.000000 0.000000 0.000000 0.000000 0.000000 0.043047
#
#
# Mechanical properties :
#
#
# Convention : Reuss Voigt Hill
#
# Bulk Modulus (GPa) = 26.03905 52.42746 39.23325
# Shear Modulus (GPa) = 31.94859 55.41390 43.68125
#
# Velocity S-wave (km/s) = 3.93752 5.18568 4.60409
# Velocity P-wave (km/s) = 5.77134 7.82925 6.87770
#
# Compressibility (1/GPa) = 0.03840385
#
# Stress axis : x y z
#
# Youngs Moduli (GPa) = 115.86455 31.38087 138.44708
#
# Poissons Ratio (x) = 0.12196 0.43304
# Poissons Ratio (y) = 0.45030 -0.32620
# Poissons Ratio (z) = 0.36241 -0.07394
#
# Static dielectric constant tensor:
#      x y z
#    x 1.759120 0.000000 0.000000 
#    y 0.000000 1.862380 0.000000 
#    z 0.000000 0.000000 1.730200 
# 
# From -- ./inp_files/63379.got.cif
#   From: 2010.05.17/outbox.cif.g08.bks.cpg/sg66_32_cif.got.tgz:63379.got - 2010.06.03 17:51:23.
