data_PCOD9495894
_publ_section_title
;
Structure prediction by ZEFSAII (Michael W. Deem and Ramdas Pophale) SiO2 
 PCOD9495894
Probable space group: C C C M
;
_chemical_formula_sum "Si O2"
_cell_formula_units_Z 56
_cell_length_a 25.538896
_cell_length_b 17.415332
_cell_length_c 5.553997
_cell_angle_alpha 90.000000
_cell_angle_beta 90.000000
_cell_angle_gamma 90.000000
_cell_volume 2470.242097
_symmetry_space_group_name_H-M "C C C M"
_symmetry_group_IT_number 66
_symmetry_cell_setting 'orthorhombic'
loop_
_space_group_symop_operation_xyz
x,y,z
-x,-y,z
x,-y,1/2-z
-x,y,1/2-z
-x,-y,-z
x,y,-z
-x,y,1/2+z
x,-y,1/2+z
1/2+x,1/2+y,z
1/2-x,1/2-y,z
1/2+x,1/2-y,1/2-z
1/2-x,1/2+y,1/2-z
1/2-x,1/2-y,-z
1/2+x,1/2+y,-z
1/2-x,1/2+y,1/2+z
1/2+x,1/2-y,1/2+z
loop_
_atom_site_type_symbol
_atom_site_label
_atom_site_fract_x
_atom_site_fract_y
_atom_site_fract_z
Si Si1 0.805205 0.001428 0.500000
Si Si2 0.306790 0.337135 0.500000
Si Si3 0.970788 0.401358 0.500000
Si Si4 0.349479 0.671599 0.500000
Si Si5 0.352498 0.924829 0.500000
Si Si6 0.030089 0.783241 0.500000
Si Si7 0.688012 0.900623 0.500000
O O1 0.836473 0.080077 0.500000
O O2 0.774728 0.000000 0.250000
O O3 0.835976 0.921243 0.500000
O O4 0.323165 0.299390 0.248992
O O5 0.245905 0.362603 0.500000
O O6 0.914111 0.439568 0.500000
O O7 0.964090 0.309030 0.500000
O O8 0.000000 0.418920 0.250000
O O9 0.411141 0.684446 0.500000
O O10 0.337923 0.879866 0.256090
O O11 0.323146 0.006852 0.500000
O O12 0.000000 0.804248 0.750000
#
# Coordination Sequence:
#
# PCOD9495894 Si02
#       7
#     8   8   8   8   8   8   8
#     4   8  16  25  44  69  99 129 176 205 243 310
#     4  10  19  31  53  78 109 150 184 207 259 341
#     4  10  21  40  62  80 105 147 189 223 280 329
#     4  10  19  31  53  81 105 135 190 226 262 322
#     4  10  21  34  55  84 115 141 181 233 260 318
#     4  10  21  38  61  81 102 139 189 240 279 319
#     4  10  21  33  53  83 116 149 178 214 272 322
#
# _framework density 22.669844000000001
#
# number of rings (size 3 to 8) (size 9 to 14) (size 15 to 20)
#    0.000    2.286    0.000    2.571   12.000    0.000 
#    0.000    8.571    0.000   28.286    0.000    0.000 
#    0.000    0.000    0.000    0.000    0.000    0.000 
#
# Total GULP energy -156085.378037 kJ/mol
# GULP energy per Si atom -5574.477787 kJ/mol
# Density = 2.261825 g / cm^3
# Si number density = 22.669844 Si / 1000 Ang^3
#
#
#
# Elastic Constant Matrix: (Units=GPa)
#
#
# Indices 1 2 3 4 5 6 
#
# 1 200.6884 32.3725 109.2624 0.0000 0.0000 0.0000
# 2 32.3725 80.5615 21.4365 0.0000 0.0000 0.0000
# 3 109.2624 21.4365 308.6995 0.0000 0.0000 0.0000
# 4 0.0000 0.0000 0.0000 2.8163 0.0000 0.0000
# 5 0.0000 0.0000 0.0000 0.0000 42.2871 0.0000
# 6 0.0000 0.0000 0.0000 0.0000 0.0000 93.5016
#
#
#
# Elastic Compliance Matrix: (Units=1/GPa)
#
#
# Indices 1 2 3 4 5 6 
#
# 1 0.006483 -0.002032 -0.002154 0.000000 0.000000 0.000000
# 2 -0.002032 0.013284 -0.000203 0.000000 0.000000 0.000000
# 3 -0.002154 -0.000203 0.004016 0.000000 0.000000 0.000000
# 4 0.000000 0.000000 0.000000 0.355080 0.000000 0.000000
# 5 0.000000 0.000000 0.000000 0.000000 0.023648 0.000000
# 6 0.000000 0.000000 0.000000 0.000000 0.000000 0.010695
#
#
# Mechanical properties :
#
#
# Convention : Reuss Voigt Hill
#
# Bulk Modulus (GPa) = 66.64574 101.78801 84.21688
# Shear Modulus (GPa) = 11.71003 56.17953 33.94478
#
# Velocity S-wave (km/s) = 2.27523 4.98351 3.87376
# Velocity P-wave (km/s) = 6.03030 8.83807 7.56558
#
# Compressibility (1/GPa) = 0.01500471
#
# Stress axis : x y z
#
# Youngs Moduli (GPa) = 154.24670 75.28129 249.01999
#
# Poissons Ratio (x) = 0.15298 0.53628
# Poissons Ratio (y) = 0.31345 0.05059
# Poissons Ratio (z) = 0.33218 0.01529
#
# Static dielectric constant tensor:
#      x y z
#    x 1.771600 0.000000 0.000000 
#    y 0.000000 1.930580 0.000000 
#    z 0.000000 0.000000 1.979180 
# 
# From -- ./inp_files/1197.got.cif
#   From: 2010.05.17/outbox.cif.g08.bks.cpg/sg66_1_cif.got.tgz:1197.got - 2010.06.03 17:51:23.
