data_PCOD9495038
_publ_section_title
;
Structure prediction by ZEFSAII (Michael W. Deem and Ramdas Pophale) SiO2 
 PCOD9495038
Probable space group: C C C M
;
_chemical_formula_sum "Si O2"
_cell_formula_units_Z 64
_cell_length_a 42.989908
_cell_length_b 9.663135
_cell_length_c 8.669836
_cell_angle_alpha 90.000000
_cell_angle_beta 90.000000
_cell_angle_gamma 90.000000
_cell_volume 3601.599729
_symmetry_space_group_name_H-M "C C C M"
_symmetry_group_IT_number 66
_symmetry_cell_setting 'orthorhombic'
loop_
_space_group_symop_operation_xyz
x,y,z
-x,-y,z
x,-y,1/2-z
-x,y,1/2-z
-x,-y,-z
x,y,-z
-x,y,1/2+z
x,-y,1/2+z
1/2+x,1/2+y,z
1/2-x,1/2-y,z
1/2+x,1/2-y,1/2-z
1/2-x,1/2+y,1/2-z
1/2-x,1/2-y,-z
1/2+x,1/2+y,-z
1/2-x,1/2+y,1/2+z
1/2+x,1/2-y,1/2+z
loop_
_atom_site_type_symbol
_atom_site_label
_atom_site_fract_x
_atom_site_fract_y
_atom_site_fract_z
Si Si1 0.968128 0.842667 0.684349
Si Si2 0.278906 0.154369 0.685049
Si Si3 0.844929 0.345770 0.315293
Si Si4 0.596453 0.344736 0.314847
O O1 0.969056 0.846225 0.500000
O O2 0.935470 0.783541 0.744323
O O3 0.000000 0.778410 0.750000
O O4 0.967659 0.000000 0.750000
O O5 0.280380 0.148623 0.500000
O O6 0.250000 0.250000 0.730978
O O7 0.312054 0.206115 0.748515
O O8 0.274626 0.000000 0.750000
O O9 0.849779 0.500000 0.250000
O O10 0.842580 0.353337 0.500000
O O11 0.873753 0.247655 0.274903
O O12 0.600504 0.500000 0.250000
O O13 0.593293 0.351800 0.500000
#
# Coordination Sequence:
#
# PCOD9495038 Si02
#       4
#    16  16  16  16
#     4  10  17  27  45  69  99 133 166 206 253 299
#     4  10  21  36  55  78 103 133 169 208 251 300
#     4  10  21  36  55  76 102 136 171 207 250 302
#     4  10  20  33  50  76 104 132 169 211 253 298
#
# _framework density 17.769883
#
# number of rings (size 3 to 8) (size 9 to 14) (size 15 to 20)
#    0.000    2.000    0.000    8.250    0.000    7.000 
#    0.000    5.000    0.000    0.750    0.000    5.250 
#    0.000    0.000    0.000    0.000    0.000    0.000 
#
# Total GULP energy -178551.746585 kJ/mol
# GULP energy per Si atom -5579.742081 kJ/mol
# Density = 1.772944 g / cm^3
# Si number density = 17.769883 Si / 1000 Ang^3
#
#
#
# Elastic Constant Matrix: (Units=GPa)
#
#
# Indices 1 2 3 4 5 6 
#
# 1 226.1797 74.1420 80.6360 0.0000 0.0000 0.0000
# 2 74.1420 39.2102 29.6149 0.0000 0.0000 0.0000
# 3 80.6360 29.6149 98.3810 0.0000 0.0000 0.0000
# 4 0.0000 0.0000 0.0000 -12.4758 0.0000 0.0000
# 5 0.0000 0.0000 0.0000 0.0000 39.6124 0.0000
# 6 0.0000 0.0000 0.0000 0.0000 0.0000 23.9036
#
#
#
# Elastic Compliance Matrix: (Units=1/GPa)
#
#
# Indices 1 2 3 4 5 6 
#
# 1 0.012821 -0.021104 -0.004155 0.000000 0.000000 0.000000
# 2 -0.021104 0.067746 -0.003096 0.000000 0.000000 0.000000
# 3 -0.004155 -0.003096 0.014502 0.000000 0.000000 0.000000
# 4 0.000000 0.000000 0.000000 -0.080155 0.000000 0.000000
# 5 0.000000 0.000000 0.000000 0.000000 0.025245 0.000000
# 6 0.000000 0.000000 0.000000 0.000000 0.000000 0.041835
#
#
# Mechanical properties :
#
#
# Convention : Reuss Voigt Hill
#
# Bulk Modulus (GPa) = 26.06933 81.39521 53.73227
# Shear Modulus (GPa) = 33.00547 22.16658 27.58603
#
# Velocity S-wave (km/s) = 4.31441 3.53572 3.94433
# Velocity P-wave (km/s) = 6.28659 7.91031 7.14473
#
# Compressibility (1/GPa) = 0.03835925
#
# Stress axis : x y z
#
# Youngs Moduli (GPa) = 78.00002 14.76092 68.95386
#
# Poissons Ratio (x) = 0.31151 0.28653
# Poissons Ratio (y) = 1.64608 0.21349
# Poissons Ratio (z) = 0.32412 0.04570
#
# Static dielectric constant tensor:
#      x y z
#    x 1.652010 0.000000 0.000000 
#    y 0.000000 1.584220 0.000000 
#    z 0.000000 0.000000 1.595750 
# 
# From -- ./inp_files/11192.got.cif
#   From: 2010.05.17/outbox.cif.g08.bks.cpg/sg66_6_cif.got.tgz:11192.got - 2010.06.03 17:51:23.
