data_PCOD9495802
_publ_section_title
;
Structure prediction by ZEFSAII (Michael W. Deem and Ramdas Pophale) SiO2 
 PCOD9495802
Probable space group: C C C M
;
_chemical_formula_sum "Si O2"
_cell_formula_units_Z 116
_cell_length_a 22.778857
_cell_length_b 28.486323
_cell_length_c 9.390258
_cell_angle_alpha 90.000000
_cell_angle_beta 90.000000
_cell_angle_gamma 90.000000
_cell_volume 6093.205808
_symmetry_space_group_name_H-M "C C C M"
_symmetry_group_IT_number 66
_symmetry_cell_setting 'orthorhombic'
loop_
_space_group_symop_operation_xyz
x,y,z
-x,-y,z
x,-y,1/2-z
-x,y,1/2-z
-x,-y,-z
x,y,-z
-x,y,1/2+z
x,-y,1/2+z
1/2+x,1/2+y,z
1/2-x,1/2-y,z
1/2+x,1/2-y,1/2-z
1/2-x,1/2+y,1/2-z
1/2-x,1/2-y,-z
1/2+x,1/2+y,-z
1/2-x,1/2+y,1/2+z
1/2+x,1/2-y,1/2+z
loop_
_atom_site_type_symbol
_atom_site_label
_atom_site_fract_x
_atom_site_fract_y
_atom_site_fract_z
Si Si1 0.304675 0.045705 0.331241
Si Si2 0.085681 0.808283 0.662046
Si Si3 0.057512 0.294691 0.172459
Si Si4 0.833732 0.638368 0.164033
Si Si5 0.750000 0.250000 0.000000
Si Si6 0.941677 0.914107 0.828039
Si Si7 0.328509 0.428165 0.339098
Si Si8 0.711083 0.675587 0.739454
O O1 0.314713 0.043610 0.500000
O O2 0.331116 0.093061 0.264706
O O3 0.234005 0.048096 0.308369
O O4 0.327386 0.000000 0.250000
O O5 0.064664 0.807427 0.500000
O O6 0.066183 0.758906 0.727573
O O7 0.064702 0.858774 0.717985
O O8 0.156238 0.808412 0.666351
O O9 0.114874 0.325562 0.204722
O O10 0.000000 0.313964 0.250000
O O11 0.051058 0.294372 0.000000
O O12 0.770742 0.663579 0.178193
O O13 0.842316 0.623951 0.000000
O O14 0.725513 0.285945 0.876915
O O15 0.881431 0.936998 0.770211
O O16 0.000000 0.932435 0.750000
O O17 0.945139 0.916948 0.000000
O O18 0.347358 0.439627 0.500000
O O19 0.311276 0.373081 0.330139
#
# Coordination Sequence:
#
# PCOD9495802 Si02
#       8
#    16  16  16  16   4  16  16  16
#     4  10  21  37  62  91 117 138 170 215 279 347
#     4   9  18  33  50  71 101 140 191 235 275 315
#     4  10  21  37  51  73 103 145 189 229 270 321
#     4  10  21  37  59  80 111 146 184 229 281 333
#     4  12  20  28  42  72 112 144 182 220 272 326
#     4  10  19  30  49  73 103 146 193 237 272 314
#     4   9  18  34  50  73 109 141 175 220 265 322
#     4  10  19  31  49  76 107 140 184 227 276 322
#
# _framework density 19.037597000000002
#
# number of rings (size 3 to 8) (size 9 to 14) (size 15 to 20)
#    0.000    2.207    0.690    2.483    0.966    4.414 
#    3.724    2.759    0.000    0.828    0.000    5.793 
#    0.000    0.000    0.000    0.000    0.000    0.000 
#
# Total GULP energy -322892.587952 kJ/mol
# GULP energy per Si atom -5567.113585 kJ/mol
# Density = 1.899427 g / cm^3
# Si number density = 19.037597 Si / 1000 Ang^3
#
#
#
# Elastic Constant Matrix: (Units=GPa)
#
#
# Indices 1 2 3 4 5 6 
#
# 1 72.7433 4.2101 10.3407 0.0000 0.0000 0.0000
# 2 4.2101 29.9747 17.0951 0.0000 0.0000 0.0000
# 3 10.3407 17.0951 43.8376 0.0000 0.0000 0.0000
# 4 0.0000 0.0000 0.0000 38.1259 0.0000 0.0000
# 5 0.0000 0.0000 0.0000 0.0000 11.8163 0.0000
# 6 0.0000 0.0000 0.0000 0.0000 0.0000 5.8063
#
#
#
# Elastic Compliance Matrix: (Units=1/GPa)
#
#
# Indices 1 2 3 4 5 6 
#
# 1 0.014224 -0.000108 -0.003313 0.000000 0.000000 0.000000
# 2 -0.000108 0.042904 -0.016706 0.000000 0.000000 0.000000
# 3 -0.003313 -0.016706 0.030108 0.000000 0.000000 0.000000
# 4 0.000000 0.000000 0.000000 0.026229 0.000000 0.000000
# 5 0.000000 0.000000 0.000000 0.000000 0.084629 0.000000
# 6 0.000000 0.000000 0.000000 0.000000 0.000000 0.172226
#
#
# Mechanical properties :
#
#
# Convention : Reuss Voigt Hill
#
# Bulk Modulus (GPa) = 21.28474 23.31638 22.30056
# Shear Modulus (GPa) = 11.73064 18.81034 15.27049
#
# Velocity S-wave (km/s) = 2.48500 3.14676 2.83525
# Velocity P-wave (km/s) = 4.40888 5.04746 4.73894
#
# Compressibility (1/GPa) = 0.04698202
#
# Stress axis : x y z
#
# Youngs Moduli (GPa) = 70.30273 23.30772 33.21423
#
# Poissons Ratio (x) = 0.00253 0.11004
# Poissons Ratio (y) = 0.00762 0.55486
# Poissons Ratio (z) = 0.23292 0.38937
#
# Static dielectric constant tensor:
#      x y z
#    x 1.648210 0.000000 0.000000 
#    y 0.000000 1.688870 0.000000 
#    z 0.000000 0.000000 1.659750 
# 
# From -- ./inp_files/9430.got.cif
#   From: 2010.05.17/outbox.cif.g08.bks.cpg/sg66_5_cif.got.tgz:9430.got - 2010.06.03 17:51:23.
