data_PCOD9495877
_publ_section_title
;
Structure prediction by ZEFSAII (Michael W. Deem and Ramdas Pophale) SiO2 
 PCOD9495877
Probable space group: C C C M
;
_chemical_formula_sum "Si O2"
_cell_formula_units_Z 64
_cell_length_a 29.348154
_cell_length_b 8.809250
_cell_length_c 11.120137
_cell_angle_alpha 90.000000
_cell_angle_beta 90.000000
_cell_angle_gamma 90.000000
_cell_volume 2874.947128
_symmetry_space_group_name_H-M "C C C M"
_symmetry_group_IT_number 66
_symmetry_cell_setting 'orthorhombic'
loop_
_space_group_symop_operation_xyz
x,y,z
-x,-y,z
x,-y,1/2-z
-x,y,1/2-z
-x,-y,-z
x,y,-z
-x,y,1/2+z
x,-y,1/2+z
1/2+x,1/2+y,z
1/2-x,1/2-y,z
1/2+x,1/2-y,1/2-z
1/2-x,1/2+y,1/2-z
1/2-x,1/2-y,-z
1/2+x,1/2+y,-z
1/2-x,1/2+y,1/2+z
1/2+x,1/2-y,1/2+z
loop_
_atom_site_type_symbol
_atom_site_label
_atom_site_fract_x
_atom_site_fract_y
_atom_site_fract_z
Si Si1 0.520762 0.329164 0.869342
Si Si2 0.628325 0.604126 0.635295
Si Si3 0.757899 0.571749 0.128599
Si Si4 0.859068 0.555789 0.369502
O O1 0.500000 0.500000 0.873382
O O2 0.500000 0.254971 0.750000
O O3 0.574866 0.349986 0.856917
O O4 0.510762 0.258537 0.000000
O O5 0.638071 0.500000 0.750000
O O6 0.634801 0.537836 0.500000
O O7 0.653101 0.766500 0.642033
O O8 0.738936 0.500000 0.250000
O O9 0.750000 0.750000 0.132069
O O10 0.811863 0.536852 0.127903
O O11 0.739905 0.511730 0.000000
O O12 0.884568 0.500000 0.250000
O O13 0.881912 0.535782 0.500000
#
# Coordination Sequence:
#
# PCOD9495877 Si02
#       4
#    16  16  16  16
#     4   9  15  25  43  71 104 136 176 221 261 310
#     4  10  19  31  51  80 110 143 182 227 275 321
#     4   9  18  35  59  84 109 141 180 221 269 327
#     4   9  19  36  55  77 109 145 181 225 273 324
#
# _framework density 22.261278000000001
#
# number of rings (size 3 to 8) (size 9 to 14) (size 15 to 20)
#    0.000    2.750    2.500    0.000    0.000    1.500 
#    0.000    5.000    0.000   27.750    0.000    5.250 
#    0.000    0.000    0.000    0.000    0.000    0.000 
#
# Total GULP energy -178398.848230 kJ/mol
# GULP energy per Si atom -5574.964007 kJ/mol
# Density = 2.221061 g / cm^3
# Si number density = 22.261278 Si / 1000 Ang^3
#
#
#
# Elastic Constant Matrix: (Units=GPa)
#
#
# Indices 1 2 3 4 5 6 
#
# 1 49.7492 -1.1539 -15.1843 0.0000 0.0000 0.0000
# 2 -1.1539 60.8209 42.8330 0.0000 0.0000 0.0000
# 3 -15.1843 42.8330 307.5312 0.0000 0.0000 0.0000
# 4 0.0000 0.0000 0.0000 18.8704 0.0000 0.0000
# 5 0.0000 0.0000 0.0000 0.0000 -2.2128 0.0000
# 6 0.0000 0.0000 0.0000 0.0000 0.0000 1.2531
#
#
#
# Elastic Compliance Matrix: (Units=1/GPa)
#
#
# Indices 1 2 3 4 5 6 
#
# 1 0.020415 -0.000358 0.001058 0.000000 0.000000 0.000000
# 2 -0.000358 0.018236 -0.002558 0.000000 0.000000 0.000000
# 3 0.001058 -0.002558 0.003660 0.000000 0.000000 0.000000
# 4 0.000000 0.000000 0.000000 0.052993 0.000000 0.000000
# 5 0.000000 0.000000 0.000000 0.000000 -0.451921 0.000000
# 6 0.000000 0.000000 0.000000 0.000000 0.000000 0.798011
#
#
# Mechanical properties :
#
#
# Convention : Reuss Voigt Hill
#
# Bulk Modulus (GPa) = 25.90884 52.34343 39.12613
# Shear Modulus (GPa) = 10.91761 29.68924 20.30342
#
# Velocity S-wave (km/s) = 2.21697 3.65591 3.02329
# Velocity P-wave (km/s) = 4.26814 6.43313 5.45904
#
# Compressibility (1/GPa) = 0.03859687
#
# Stress axis : x y z
#
# Youngs Moduli (GPa) = 48.98262 54.83622 273.21257
#
# Poissons Ratio (x) = 0.01961 -0.28901
# Poissons Ratio (y) = 0.01752 0.69877
# Poissons Ratio (z) = -0.05181 0.14025
#
# Static dielectric constant tensor:
#      x y z
#    x 1.811080 0.000000 0.000000 
#    y 0.000000 1.789340 0.000000 
#    z 0.000000 0.000000 1.941250 
# 
# From -- ./inp_files/13578.got.cif
#   From: 2010.05.17/outbox.cif.g08.bks.cpg/sg66_7_cif.got.tgz:13578.got - 2010.06.03 17:51:23.
