data_PCOD9495827
_publ_section_title
;
Structure prediction by ZEFSAII (Michael W. Deem and Ramdas Pophale) SiO2 
 PCOD9495827
Probable space group: C C C M
;
_chemical_formula_sum "Si O2"
_cell_formula_units_Z 96
_cell_length_a 32.637790
_cell_length_b 21.220406
_cell_length_c 9.100474
_cell_angle_alpha 90.000000
_cell_angle_beta 90.000000
_cell_angle_gamma 90.000000
_cell_volume 6302.871394
_symmetry_space_group_name_H-M "C C C M"
_symmetry_group_IT_number 66
_symmetry_cell_setting 'orthorhombic'
loop_
_space_group_symop_operation_xyz
x,y,z
-x,-y,z
x,-y,1/2-z
-x,y,1/2-z
-x,-y,-z
x,y,-z
-x,y,1/2+z
x,-y,1/2+z
1/2+x,1/2+y,z
1/2-x,1/2-y,z
1/2+x,1/2-y,1/2-z
1/2-x,1/2+y,1/2-z
1/2-x,1/2-y,-z
1/2+x,1/2+y,-z
1/2-x,1/2+y,1/2+z
1/2+x,1/2-y,1/2+z
loop_
_atom_site_type_symbol
_atom_site_label
_atom_site_fract_x
_atom_site_fract_y
_atom_site_fract_z
Si Si1 0.122098 0.081186 0.335074
Si Si2 0.373877 0.732571 0.833500
Si Si3 0.289410 0.292231 0.823540
Si Si4 0.458800 0.414924 0.167752
Si Si5 0.957527 0.238429 0.331203
Si Si6 0.705648 0.436907 0.674494
O O1 0.129088 0.056438 0.500000
O O2 0.121231 0.156982 0.344761
O O3 0.079104 0.064481 0.265536
O O4 0.158276 0.064454 0.224367
O O5 0.330398 0.736758 0.749443
O O6 0.414939 0.756178 0.750513
O O7 0.371677 0.757782 0.000000
O O8 0.250000 0.250000 0.789241
O O9 0.281068 0.365661 0.779900
O O10 0.295779 0.292944 0.000000
O O11 0.500000 0.432236 0.250000
O O12 0.457824 0.338155 0.163667
O O13 0.456803 0.437238 0.000000
O O14 0.957432 0.260601 0.500000
O O15 0.000000 0.257049 0.250000
O O16 0.723821 0.500000 0.750000
O O17 0.710102 0.442400 0.500000
#
# Coordination Sequence:
#
# PCOD9495827 Si02
#       6
#    16  16  16  16  16  16
#     4   9  16  26  39  55  75  99 129 166 207 249
#     4   9  16  25  38  57  80 105 135 172 213 255
#     4   9  18  32  48  65  86 113 144 177 214 256
#     4   9  15  22  33  50  71  96 127 164 207 251
#     4   9  15  22  33  50  74 103 135 171 210 252
#     4  10  19  31  47  65  84 106 134 169 208 250
#
# _framework density 15.231154
#
# number of rings (size 3 to 8) (size 9 to 14) (size 15 to 20)
#    0.000    2.833    0.000    2.500    0.000    9.000 
#    0.000    0.000    0.000    0.500    0.000    3.500 
#    0.000    0.000    0.000    0.000    0.000    0.833 
#
# Total GULP energy -267317.044062 kJ/mol
# GULP energy per Si atom -5569.105085 kJ/mol
# Density = 1.519649 g / cm^3
# Si number density = 15.231154 Si / 1000 Ang^3
#
#
#
# Elastic Constant Matrix: (Units=GPa)
#
#
# Indices 1 2 3 4 5 6 
#
# 1 108.9740 33.6677 48.5410 0.0000 0.0000 0.0000
# 2 33.6677 38.5070 13.7755 0.0000 0.0000 0.0000
# 3 48.5410 13.7755 75.1658 0.0000 0.0000 0.0000
# 4 0.0000 0.0000 0.0000 13.9722 0.0000 0.0000
# 5 0.0000 0.0000 0.0000 0.0000 20.0256 0.0000
# 6 0.0000 0.0000 0.0000 0.0000 0.0000 -5.8359
#
#
#
# Elastic Compliance Matrix: (Units=1/GPa)
#
#
# Indices 1 2 3 4 5 6 
#
# 1 0.016509 -0.011365 -0.008578 0.000000 0.000000 0.000000
# 2 -0.011365 0.035616 0.000812 0.000000 0.000000 0.000000
# 3 -0.008578 0.000812 0.018695 0.000000 0.000000 0.000000
# 4 0.000000 0.000000 0.000000 0.071571 0.000000 0.000000
# 5 0.000000 0.000000 0.000000 0.000000 0.049936 0.000000
# 6 0.000000 0.000000 0.000000 0.000000 0.000000 -0.171354
#
#
# Mechanical properties :
#
#
# Convention : Reuss Voigt Hill
#
# Bulk Modulus (GPa) = 30.71553 46.06836 38.39195
# Shear Modulus (GPa) = 71.33968 14.07655 42.70812
#
# Velocity S-wave (km/s) = 6.85125 3.04336 5.30102
# Velocity P-wave (km/s) = 9.09925 6.53155 7.92015
#
# Compressibility (1/GPa) = 0.03255682
#
# Stress axis : x y z
#
# Youngs Moduli (GPa) = 60.57302 28.07746 53.49076
#
# Poissons Ratio (x) = 0.31911 0.45886
# Poissons Ratio (y) = 0.68844 -0.04346
# Poissons Ratio (z) = 0.51962 -0.02281
#
# Static dielectric constant tensor:
#      x y z
#    x 1.487040 0.000000 0.000000 
#    y 0.000000 1.524430 0.000000 
#    z 0.000000 0.000000 1.535660 
# 
# From -- ./inp_files/10490.got.cif
#   From: 2010.05.17/outbox.cif.g08.bks.cpg/sg66_6_cif.got.tgz:10490.got - 2010.06.03 17:51:23.
