data_PCOD9495898
_publ_section_title
;
Structure prediction by ZEFSAII (Michael W. Deem and Ramdas Pophale) SiO2 
 PCOD9495898
Probable space group: C C C M
;
_chemical_formula_sum "Si O2"
_cell_formula_units_Z 68
_cell_length_a 7.289004
_cell_length_b 19.690182
_cell_length_c 20.968474
_cell_angle_alpha 90.000000
_cell_angle_beta 90.000000
_cell_angle_gamma 90.000000
_cell_volume 3009.433454
_symmetry_space_group_name_H-M "C C C M"
_symmetry_group_IT_number 66
_symmetry_cell_setting 'orthorhombic'
loop_
_space_group_symop_operation_xyz
x,y,z
-x,-y,z
x,-y,1/2-z
-x,y,1/2-z
-x,-y,-z
x,y,-z
-x,y,1/2+z
x,-y,1/2+z
1/2+x,1/2+y,z
1/2-x,1/2-y,z
1/2+x,1/2-y,1/2-z
1/2-x,1/2+y,1/2-z
1/2-x,1/2-y,-z
1/2+x,1/2+y,-z
1/2-x,1/2+y,1/2+z
1/2+x,1/2-y,1/2+z
loop_
_atom_site_type_symbol
_atom_site_label
_atom_site_fract_x
_atom_site_fract_y
_atom_site_fract_z
Si Si1 0.250000 0.250000 0.500000
Si Si2 0.328430 0.625963 0.424774
Si Si3 0.593860 0.157812 0.887416
Si Si4 0.785819 0.522490 0.427556
Si Si5 0.544619 0.722157 0.182701
O O1 0.318961 0.197513 0.554835
O O2 0.364966 0.640310 0.500000
O O3 0.331944 0.544868 0.413016
O O4 0.450751 0.671888 0.378140
O O5 0.117041 0.644251 0.408998
O O6 0.701733 0.086795 0.880860
O O7 0.578256 0.210606 0.829421
O O8 0.735300 0.544033 0.500000
O O9 0.000000 0.500000 0.430864
O O10 0.500000 0.688376 0.250000
O O11 0.750000 0.750000 0.186768
#
# Coordination Sequence:
#
# PCOD9495898 Si02
#       5
#     4  16  16  16  16
#     4  12  20  28  52  94 120 152 180 254 284 364
#     4   9  17  33  60  87 114 145 190 248 306 346
#     4  10  19  31  54  87 121 147 191 240 295 349
#     4   8  13  27  52  85 113 135 178 236 285 335
#     4  10  23  38  56  86 117 155 200 251 299 355
#
# _framework density 22.595614999999999
#
# number of rings (size 3 to 8) (size 9 to 14) (size 15 to 20)
#    0.000    2.588    2.353    1.412    3.294    1.412 
#    0.000    0.000    0.000   20.471   12.235    0.000 
#    0.000    0.000    0.000    0.000    0.000    2.118 
#
# Total GULP energy -189342.634692 kJ/mol
# GULP energy per Si atom -5568.901020 kJ/mol
# Density = 2.254419 g / cm^3
# Si number density = 22.595615 Si / 1000 Ang^3
#
#
#
# Elastic Constant Matrix: (Units=GPa)
#
#
# Indices 1 2 3 4 5 6 
#
# 1 49.8162 38.6207 28.7280 0.0000 0.0000 0.0000
# 2 38.6207 148.8077 64.7825 0.0000 0.0000 0.0000
# 3 28.7280 64.7825 117.2456 0.0000 0.0000 0.0000
# 4 0.0000 0.0000 0.0000 -9.1041 0.0000 0.0000
# 5 0.0000 0.0000 0.0000 0.0000 30.4449 0.0000
# 6 0.0000 0.0000 0.0000 0.0000 0.0000 44.0141
#
#
#
# Elastic Compliance Matrix: (Units=1/GPa)
#
#
# Indices 1 2 3 4 5 6 
#
# 1 0.026179 -0.005269 -0.003503 0.000000 0.000000 0.000000
# 2 -0.005269 0.009909 -0.004184 0.000000 0.000000 0.000000
# 3 -0.003503 -0.004184 0.011699 0.000000 0.000000 0.000000
# 4 0.000000 0.000000 0.000000 -0.109841 0.000000 0.000000
# 5 0.000000 0.000000 0.000000 0.000000 0.032846 0.000000
# 6 0.000000 0.000000 0.000000 0.000000 0.000000 0.022720
#
#
# Mechanical properties :
#
#
# Convention : Reuss Voigt Hill
#
# Bulk Modulus (GPa) = 45.71497 64.45912 55.08704
# Shear Modulus (GPa) = 187.14287 25.32019 106.23153
#
# Velocity S-wave (km/s) = 9.11057 3.35114 6.86413
# Velocity P-wave (km/s) = 11.44315 6.60020 9.34099
#
# Compressibility (1/GPa) = 0.02187467
#
# Stress axis : x y z
#
# Youngs Moduli (GPa) = 38.19847 100.91664 85.47546
#
# Poissons Ratio (x) = 0.53177 0.29942
# Poissons Ratio (y) = 0.20128 0.35763
# Poissons Ratio (z) = 0.13381 0.42224
#
# Static dielectric constant tensor:
#      x y z
#    x 1.931220 0.000000 0.000000 
#    y 0.000000 1.883420 0.000000 
#    z 0.000000 0.000000 1.767580 
# 
# From -- ./inp_files/36483.got.cif
#   From: 2010.05.17/outbox.cif.g08.bks.cpg/sg66_19_cif.got.tgz:36483.got - 2010.06.03 17:51:23.
