data_PCOD9495059
_publ_section_title
;
Structure prediction by ZEFSAII (Michael W. Deem and Ramdas Pophale) SiO2 
 PCOD9495059
Probable space group: C C C M
;
_chemical_formula_sum "Si O2"
_cell_formula_units_Z 80
_cell_length_a 18.302775
_cell_length_b 28.113908
_cell_length_c 8.672389
_cell_angle_alpha 90.000000
_cell_angle_beta 90.000000
_cell_angle_gamma 90.000000
_cell_volume 4462.486447
_symmetry_space_group_name_H-M "C C C M"
_symmetry_group_IT_number 66
_symmetry_cell_setting 'orthorhombic'
loop_
_space_group_symop_operation_xyz
x,y,z
-x,-y,z
x,-y,1/2-z
-x,y,1/2-z
-x,-y,-z
x,y,-z
-x,y,1/2+z
x,-y,1/2+z
1/2+x,1/2+y,z
1/2-x,1/2-y,z
1/2+x,1/2-y,1/2-z
1/2-x,1/2+y,1/2-z
1/2-x,1/2-y,-z
1/2+x,1/2+y,-z
1/2-x,1/2+y,1/2+z
1/2+x,1/2-y,1/2+z
loop_
_atom_site_type_symbol
_atom_site_label
_atom_site_fract_x
_atom_site_fract_y
_atom_site_fract_z
Si Si1 0.418859 0.786739 0.314297
Si Si2 0.301221 0.860126 0.818733
Si Si3 0.271648 0.553001 0.316564
Si Si4 0.689755 0.292068 0.325225
Si Si5 0.925543 0.054009 0.815338
O O1 0.500000 0.790759 0.250000
O O2 0.417565 0.789339 0.500000
O O3 0.366996 0.828267 0.248150
O O4 0.382419 0.735683 0.272167
O O5 0.290720 0.910435 0.734916
O O6 0.227156 0.830464 0.783150
O O7 0.310342 0.866706 0.000000
O O8 0.260023 0.500000 0.250000
O O9 0.277865 0.550274 0.500000
O O10 0.348377 0.572378 0.246933
O O11 0.680378 0.311176 0.500000
O O12 0.750000 0.250000 0.335264
O O13 0.000000 0.076898 0.750000
O O14 0.925861 0.000000 0.750000
O O15 0.926920 0.053435 0.000000
#
# Coordination Sequence:
#
# PCOD9495059 Si02
#       5
#    16  16  16  16  16
#     4  10  20  35  56  82 111 142 176 217 266 319
#     4  11  21  34  54  80 108 141 181 221 266 319
#     4  11  21  35  53  75 104 140 184 230 273 317
#     4   8  16  32  52  75 104 136 169 208 258 311
#     4  10  17  28  45  67  93 124 163 207 256 306
#
# _framework density 17.927225
#
# number of rings (size 3 to 8) (size 9 to 14) (size 15 to 20)
#    0.000    2.000    0.000    9.000    0.000    4.400 
#    0.000    1.000    0.000    3.000    0.000    4.200 
#    0.000    0.000    0.000    0.000    0.000    0.000 
#
# Total GULP energy -223098.355595 kJ/mol
# GULP energy per Si atom -5577.458890 kJ/mol
# Density = 1.788642 g / cm^3
# Si number density = 17.927225 Si / 1000 Ang^3
#
#
#
# Elastic Constant Matrix: (Units=GPa)
#
#
# Indices 1 2 3 4 5 6 
#
# 1 112.5495 43.0600 40.2386 0.0000 0.0000 0.0000
# 2 43.0600 61.1985 33.8346 0.0000 0.0000 0.0000
# 3 40.2386 33.8346 140.7411 0.0000 0.0000 0.0000
# 4 0.0000 0.0000 0.0000 12.8769 0.0000 0.0000
# 5 0.0000 0.0000 0.0000 0.0000 30.4395 0.0000
# 6 0.0000 0.0000 0.0000 0.0000 0.0000 22.5101
#
#
#
# Elastic Compliance Matrix: (Units=1/GPa)
#
#
# Indices 1 2 3 4 5 6 
#
# 1 0.012494 -0.007861 -0.001682 0.000000 0.000000 0.000000
# 2 -0.007861 0.023791 -0.003472 0.000000 0.000000 0.000000
# 3 -0.001682 -0.003472 0.008421 0.000000 0.000000 0.000000
# 4 0.000000 0.000000 0.000000 0.077658 0.000000 0.000000
# 5 0.000000 0.000000 0.000000 0.000000 0.032852 0.000000
# 6 0.000000 0.000000 0.000000 0.000000 0.000000 0.044425
#
#
# Mechanical properties :
#
#
# Convention : Reuss Voigt Hill
#
# Bulk Modulus (GPa) = 53.54613 60.97282 57.25948
# Shear Modulus (GPa) = 21.56143 26.32236 23.94189
#
# Velocity S-wave (km/s) = 3.47179 3.83598 3.65842
# Velocity P-wave (km/s) = 6.78266 7.32836 7.06078
#
# Compressibility (1/GPa) = 0.01867548
#
# Stress axis : x y z
#
# Youngs Moduli (GPa) = 80.03932 42.03318 118.75225
#
# Poissons Ratio (x) = 0.33041 0.19978
# Poissons Ratio (y) = 0.62917 0.41230
# Poissons Ratio (z) = 0.13465 0.14594
#
# Static dielectric constant tensor:
#      x y z
#    x 1.643650 0.000000 0.000000 
#    y 0.000000 1.654520 0.000000 
#    z 0.000000 0.000000 1.600660 
# 
# From -- ./inp_files/6726.got.cif
#   From: 2010.05.17/outbox.cif.g08.bks.cpg/sg66_4_cif.got.tgz:6726.got - 2010.06.03 17:51:23.
