data_PCOD9495580
_publ_section_title
;
Structure prediction by ZEFSAII (Michael W. Deem and Ramdas Pophale) SiO2 
 PCOD9495580
Probable space group: C C C M
;
_chemical_formula_sum "Si O2"
_cell_formula_units_Z 72
_cell_length_a 23.211008
_cell_length_b 7.370133
_cell_length_c 21.479571
_cell_angle_alpha 90.000000
_cell_angle_beta 90.000000
_cell_angle_gamma 90.000000
_cell_volume 3674.471892
_symmetry_space_group_name_H-M "C C C M"
_symmetry_group_IT_number 66
_symmetry_cell_setting 'orthorhombic'
loop_
_space_group_symop_operation_xyz
x,y,z
-x,-y,z
x,-y,1/2-z
-x,y,1/2-z
-x,-y,-z
x,y,-z
-x,y,1/2+z
x,-y,1/2+z
1/2+x,1/2+y,z
1/2-x,1/2-y,z
1/2+x,1/2-y,1/2-z
1/2-x,1/2+y,1/2-z
1/2-x,1/2-y,-z
1/2+x,1/2+y,-z
1/2-x,1/2+y,1/2+z
1/2+x,1/2-y,1/2+z
loop_
_atom_site_type_symbol
_atom_site_label
_atom_site_fract_x
_atom_site_fract_y
_atom_site_fract_z
Si Si1 0.696667 0.973625 0.573340
Si Si2 0.819984 0.065783 0.881951
Si Si3 0.861840 0.000000 0.750000
Si Si4 0.966891 0.193539 0.307692
Si Si5 0.404355 0.257061 0.073351
O O1 0.707162 0.983438 0.500000
O O2 0.757734 0.020317 0.604129
O O3 0.680877 0.767891 0.590913
O O4 0.644016 0.106022 0.587383
O O5 0.827237 0.075554 0.807925
O O6 0.871494 0.947151 0.911721
O O7 0.904109 0.150302 0.720504
O O8 0.955789 0.268966 0.376650
O O9 0.000000 0.287296 0.250000
O O10 0.000000 0.000000 0.316212
O O11 0.420039 0.249401 0.000000
#
# Coordination Sequence:
#
# PCOD9495580 Si02
#       5
#    16  16   8  16  16
#     4  10  20  33  51  78 111 147 181 217 268 331
#     4  10  18  34  50  75 113 151 176 217 272 323
#     4   8  17  32  52  74 102 140 185 218 260 332
#     4   8  16  34  56  74 103 142 181 231 293 334
#     4  10  19  32  55  82 104 136 188 235 271 329
#
# _framework density 19.594653000000001
#
# number of rings (size 3 to 8) (size 9 to 14) (size 15 to 20)
#    0.000    2.889    0.000    3.333    0.000    2.222 
#   16.000    0.000    0.000   24.000    0.000   29.556 
#    0.000    0.000    0.000    0.000    0.000    0.000 
#
# Total GULP energy -200600.474960 kJ/mol
# GULP energy per Si atom -5572.235416 kJ/mol
# Density = 1.955006 g / cm^3
# Si number density = 19.594653 Si / 1000 Ang^3
#
#
#
# Elastic Constant Matrix: (Units=GPa)
#
#
# Indices 1 2 3 4 5 6 
#
# 1 61.3113 11.5822 64.3924 0.0000 0.0000 0.0000
# 2 11.5822 37.4665 8.6897 0.0000 0.0000 0.0000
# 3 64.3924 8.6897 139.2841 0.0000 0.0000 0.0000
# 4 0.0000 0.0000 0.0000 -12.1111 0.0000 0.0000
# 5 0.0000 0.0000 0.0000 0.0000 76.5675 0.0000
# 6 0.0000 0.0000 0.0000 0.0000 0.0000 -3.3002
#
#
#
# Elastic Compliance Matrix: (Units=1/GPa)
#
#
# Indices 1 2 3 4 5 6 
#
# 1 0.033342 -0.006831 -0.014988 0.000000 0.000000 0.000000
# 2 -0.006831 0.028482 0.001381 0.000000 0.000000 0.000000
# 3 -0.014988 0.001381 0.014023 0.000000 0.000000 0.000000
# 4 0.000000 0.000000 0.000000 -0.082569 0.000000 0.000000
# 5 0.000000 0.000000 0.000000 0.000000 0.013060 0.000000
# 6 0.000000 0.000000 0.000000 0.000000 0.000000 -0.303013
#
#
# Mechanical properties :
#
#
# Convention : Reuss Voigt Hill
#
# Bulk Modulus (GPa) = 28.59560 45.26560 36.93060
# Shear Modulus (GPa) = -20.47987 22.45773 0.98893
#
# Velocity S-wave (km/s) = -3.23643 3.38911 0.71119
# Velocity P-wave (km/s) = 0.81198 6.20208 4.42296
#
# Compressibility (1/GPa) = 0.03497041
#
# Stress axis : x y z
#
# Youngs Moduli (GPa) = 29.99218 35.11004 71.31349
#
# Poissons Ratio (x) = 0.23983 1.06886
# Poissons Ratio (y) = 0.20487 -0.09849
# Poissons Ratio (z) = 0.44953 -0.04849
#
# Static dielectric constant tensor:
#      x y z
#    x 1.722720 0.000000 0.000000 
#    y 0.000000 1.718720 0.000000 
#    z 0.000000 0.000000 1.714290 
# 
# From -- ./inp_files/36881.got.cif
#   From: 2010.05.17/outbox.cif.g08.bks.cpg/sg66_19_cif.got.tgz:36881.got - 2010.06.03 17:51:23.
