data_PCOD9495816
_publ_section_title
;
Structure prediction by ZEFSAII (Michael W. Deem and Ramdas Pophale) SiO2 
 PCOD9495816
Probable space group: C C C M
;
_chemical_formula_sum "Si O2"
_cell_formula_units_Z 80
_cell_length_a 13.926554
_cell_length_b 29.425069
_cell_length_c 8.113965
_cell_angle_alpha 90.000000
_cell_angle_beta 90.000000
_cell_angle_gamma 90.000000
_cell_volume 3325.020195
_symmetry_space_group_name_H-M "C C C M"
_symmetry_group_IT_number 66
_symmetry_cell_setting 'orthorhombic'
loop_
_space_group_symop_operation_xyz
x,y,z
-x,-y,z
x,-y,1/2-z
-x,y,1/2-z
-x,-y,-z
x,y,-z
-x,y,1/2+z
x,-y,1/2+z
1/2+x,1/2+y,z
1/2-x,1/2-y,z
1/2+x,1/2-y,1/2-z
1/2-x,1/2+y,1/2-z
1/2-x,1/2-y,-z
1/2+x,1/2+y,-z
1/2-x,1/2+y,1/2+z
1/2+x,1/2-y,1/2+z
loop_
_atom_site_type_symbol
_atom_site_label
_atom_site_fract_x
_atom_site_fract_y
_atom_site_fract_z
Si Si1 0.181774 0.450772 0.193677
Si Si2 0.362196 0.243283 0.799342
Si Si3 0.896747 0.937677 0.315079
Si Si4 0.372195 0.341545 0.190657
Si Si5 0.859005 0.353728 0.310189
O O1 0.146065 0.500000 0.250000
O O2 0.297401 0.449292 0.223485
O O3 0.134133 0.404345 0.266406
O O4 0.167355 0.447520 0.000000
O O5 0.250000 0.250000 0.761609
O O6 0.401293 0.292026 0.744866
O O7 0.394897 0.194047 0.733658
O O8 0.370816 0.242142 0.000000
O O9 0.884430 0.954036 0.500000
O O10 0.901927 0.883059 0.303566
O O11 0.000000 0.953087 0.250000
O O12 0.256012 0.345282 0.182451
O O13 0.403713 0.347972 0.000000
O O14 0.894593 0.355615 0.500000
#
# Coordination Sequence:
#
# PCOD9495816 Si02
#       5
#    16  16  16  16  16
#     4  10  19  31  44  57  73  94 124 159 194 225
#     4   7   9  16  34  57  75  91 112 137 167 208
#     4  11  21  32  43  54  70  93 124 159 195 228
#     4   8  13  23  39  57  74  91 114 144 178 215
#     4   7  11  20  36  56  74  92 115 143 173 212
#
# _framework density 24.060005
#
# number of rings (size 3 to 8) (size 9 to 14) (size 15 to 20)
#    0.000    3.400    0.000    6.000    0.000    0.400 
#    0.000    2.000    0.000   16.200    0.000    0.000 
#    0.000    0.000    0.000    0.000    0.000    1.000 
#
# Total GULP energy -222800.756702 kJ/mol
# GULP energy per Si atom -5570.018918 kJ/mol
# Density = 2.400524 g / cm^3
# Si number density = 24.060005 Si / 1000 Ang^3
#
#
#
# Elastic Constant Matrix: (Units=GPa)
#
#
# Indices 1 2 3 4 5 6 
#
# 1 44.9924 -0.5946 -10.1105 0.0000 0.0000 0.0000
# 2 -0.5946 261.3266 15.9446 0.0000 0.0000 0.0000
# 3 -10.1105 15.9446 29.7134 0.0000 0.0000 0.0000
# 4 0.0000 0.0000 0.0000 24.9758 0.0000 0.0000
# 5 0.0000 0.0000 0.0000 0.0000 -10.3323 0.0000
# 6 0.0000 0.0000 0.0000 0.0000 0.0000 -38.1693
#
#
#
# Elastic Compliance Matrix: (Units=1/GPa)
#
#
# Indices 1 2 3 4 5 6 
#
# 1 0.024120 -0.000461 0.008454 0.000000 0.000000 0.000000
# 2 -0.000461 0.003965 -0.002284 0.000000 0.000000 0.000000
# 3 0.008454 -0.002284 0.037758 0.000000 0.000000 0.000000
# 4 0.000000 0.000000 0.000000 0.040039 0.000000 0.000000
# 5 0.000000 0.000000 0.000000 0.000000 -0.096784 0.000000
# 6 0.000000 0.000000 0.000000 0.000000 0.000000 -0.026199
#
#
# Mechanical properties :
#
#
# Convention : Reuss Voigt Hill
#
# Bulk Modulus (GPa) = 12.94326 38.50126 25.72226
# Shear Modulus (GPa) = -1807.22855 17.34770 -894.94042
#
# Velocity S-wave (km/s) = -27.43655 2.68809 -19.30724
# Velocity P-wave (km/s) = 31.59580 5.06669 22.05248
#
# Compressibility (1/GPa) = 0.07726027
#
# Stress axis : x y z
#
# Youngs Moduli (GPa) = 41.45986 252.20893 26.48477
#
# Poissons Ratio (x) = 0.11626 -0.22391
# Poissons Ratio (y) = 0.01911 0.06050
# Poissons Ratio (z) = -0.35052 0.57617
#
# Static dielectric constant tensor:
#      x y z
#    x 1.980440 0.000000 0.000000 
#    y 0.000000 2.052850 0.000000 
#    z 0.000000 0.000000 1.839090 
# 
# From -- ./inp_files/6912.got.cif
#   From: 2010.05.17/outbox.cif.g08.bks.cpg/sg66_4_cif.got.tgz:6912.got - 2010.06.03 17:51:23.
