data_PCOD9495634
_publ_section_title
;
Structure prediction by ZEFSAII (Michael W. Deem and Ramdas Pophale) SiO2 
 PCOD9495634
Probable space group: C C C M
;
_chemical_formula_sum "Si O2"
_cell_formula_units_Z 116
_cell_length_a 26.143552
_cell_length_b 15.275060
_cell_length_c 15.691051
_cell_angle_alpha 90.000000
_cell_angle_beta 90.000000
_cell_angle_gamma 90.000000
_cell_volume 6266.132177
_symmetry_space_group_name_H-M "C C C M"
_symmetry_group_IT_number 66
_symmetry_cell_setting 'orthorhombic'
loop_
_space_group_symop_operation_xyz
x,y,z
-x,-y,z
x,-y,1/2-z
-x,y,1/2-z
-x,-y,-z
x,y,-z
-x,y,1/2+z
x,-y,1/2+z
1/2+x,1/2+y,z
1/2-x,1/2-y,z
1/2+x,1/2-y,1/2-z
1/2-x,1/2+y,1/2-z
1/2-x,1/2-y,-z
1/2+x,1/2+y,-z
1/2-x,1/2+y,1/2+z
1/2+x,1/2-y,1/2+z
loop_
_atom_site_type_symbol
_atom_site_label
_atom_site_fract_x
_atom_site_fract_y
_atom_site_fract_z
Si Si1 0.250000 0.250000 0.000000
Si Si2 0.195096 0.203907 0.333744
Si Si3 0.004054 0.398333 0.645801
Si Si4 0.384903 0.847966 0.162645
Si Si5 0.397755 0.821936 0.635824
Si Si6 0.170950 0.512537 0.404307
Si Si7 0.712813 0.507797 0.647808
Si Si8 0.329698 0.331053 0.866369
O O1 0.286115 0.293359 0.073844
O O2 0.250000 0.250000 0.342870
O O3 0.151590 0.269547 0.368328
O O4 0.198252 0.107195 0.373600
O O5 0.184172 0.189242 0.232665
O O6 0.954786 0.348322 0.610226
O O7 0.000000 0.500000 0.620937
O O8 0.000000 0.396419 0.750000
O O9 0.059299 0.360129 0.621595
O O10 0.394740 0.830227 0.262072
O O11 0.354894 0.940008 0.155399
O O12 0.380015 0.724858 0.612586
O O13 0.356531 0.893653 0.603810
O O14 0.162376 0.480228 0.500000
O O15 0.231418 0.517294 0.388311
O O16 0.718416 0.500000 0.750000
O O17 0.671385 0.435261 0.622047
#
# Coordination Sequence:
#
# PCOD9495634 Si02
#       8
#     4  16  16  16  16  16  16  16
#     4  12  20  32  52  76 124 134 174 208 276 330
#     4  10  18  35  54  75  95 137 183 213 255 301
#     4   9  16  30  53  78  97 128 173 218 256 305
#     4  10  19  35  55  74 100 135 179 215 252 309
#     4  10  20  34  53  73 104 139 174 206 260 315
#     4  12  23  30  46  78 108 139 166 211 259 302
#     4  10  21  36  52  70 103 142 180 207 251 315
#     4  10  22  31  49  76 106 140 168 216 256 318
#
# _framework density 18.512217
#
# number of rings (size 3 to 8) (size 9 to 14) (size 15 to 20)
#    0.000    1.793    3.448    2.069    7.724    0.000 
#    0.000    2.759    0.000    0.828    0.000    5.793 
#    0.000    1.103    0.000    0.138    0.000    0.000 
#
# Total GULP energy -323155.014529 kJ/mol
# GULP energy per Si atom -5571.638182 kJ/mol
# Density = 1.847008 g / cm^3
# Si number density = 18.512217 Si / 1000 Ang^3
#
#
#
# Elastic Constant Matrix: (Units=GPa)
#
#
# Indices 1 2 3 4 5 6 
#
# 1 130.4403 100.2484 6.1644 0.0000 0.0000 0.0000
# 2 100.2484 148.3559 4.1045 0.0000 0.0000 0.0000
# 3 6.1644 4.1045 18.5830 0.0000 0.0000 0.0000
# 4 0.0000 0.0000 0.0000 -9.5172 0.0000 0.0000
# 5 0.0000 0.0000 0.0000 0.0000 2.1314 0.0000
# 6 0.0000 0.0000 0.0000 0.0000 0.0000 8.7240
#
#
#
# Elastic Compliance Matrix: (Units=1/GPa)
#
#
# Indices 1 2 3 4 5 6 
#
# 1 0.016109 -0.010804 -0.002957 0.000000 0.000000 0.000000
# 2 -0.010804 0.014027 0.000485 0.000000 0.000000 0.000000
# 3 -0.002957 0.000485 0.054686 0.000000 0.000000 0.000000
# 4 0.000000 0.000000 0.000000 -0.105073 0.000000 0.000000
# 5 0.000000 0.000000 0.000000 0.000000 0.469170 0.000000
# 6 0.000000 0.000000 0.000000 0.000000 0.000000 0.114626
#
#
# Mechanical properties :
#
#
# Convention : Reuss Voigt Hill
#
# Bulk Modulus (GPa) = 17.16097 57.60153 37.38125
# Shear Modulus (GPa) = 8.20316 12.72511 10.46414
#
# Velocity S-wave (km/s) = 2.10733 2.62466 2.38009
# Velocity P-wave (km/s) = 3.90017 6.35359 5.27159
#
# Compressibility (1/GPa) = 0.05827178
#
# Stress axis : x y z
#
# Youngs Moduli (GPa) = 62.07702 71.28921 18.28606
#
# Poissons Ratio (x) = 0.77017 0.05408
# Poissons Ratio (y) = 0.67065 -0.00888
# Poissons Ratio (z) = 0.18359 -0.03461
#
# Static dielectric constant tensor:
#      x y z
#    x 1.631040 0.000000 0.000000 
#    y 0.000000 1.653380 0.000000 
#    z 0.000000 0.000000 1.654280 
# 
# From -- ./inp_files/44395.got.cif
#   From: 2010.05.17/outbox.cif.g08.bks.cpg/sg66_23_cif.got.tgz:44395.got - 2010.06.03 17:51:23.
