data_PCOD9495304
_publ_section_title
;
Structure prediction by ZEFSAII (Michael W. Deem and Ramdas Pophale) SiO2 
 PCOD9495304
Probable space group: C C C M
;
_chemical_formula_sum "Si O2"
_cell_formula_units_Z 72
_cell_length_a 13.156512
_cell_length_b 20.197417
_cell_length_c 13.529635
_cell_angle_alpha 90.000000
_cell_angle_beta 90.000000
_cell_angle_gamma 90.000000
_cell_volume 3595.196884
_symmetry_space_group_name_H-M "C C C M"
_symmetry_group_IT_number 66
_symmetry_cell_setting 'orthorhombic'
loop_
_space_group_symop_operation_xyz
x,y,z
-x,-y,z
x,-y,1/2-z
-x,y,1/2-z
-x,-y,-z
x,y,-z
-x,y,1/2+z
x,-y,1/2+z
1/2+x,1/2+y,z
1/2-x,1/2-y,z
1/2+x,1/2-y,1/2-z
1/2-x,1/2+y,1/2-z
1/2-x,1/2-y,-z
1/2+x,1/2+y,-z
1/2-x,1/2+y,1/2+z
1/2+x,1/2-y,1/2+z
loop_
_atom_site_type_symbol
_atom_site_label
_atom_site_fract_x
_atom_site_fract_y
_atom_site_fract_z
Si Si1 0.870371 0.836260 0.111290
Si Si2 0.439235 0.432184 0.394574
Si Si3 0.000000 0.250475 0.750000
Si Si4 0.664906 0.808583 0.383264
Si Si5 0.755252 0.923756 0.748756
O O1 0.782248 0.886414 0.148671
O O2 0.976379 0.876255 0.105717
O O3 0.902876 0.785232 0.196733
O O4 0.848684 0.811349 0.000000
O O5 0.500000 0.500000 0.391039
O O6 0.382389 0.428724 0.500000
O O7 0.364662 0.427918 0.304396
O O8 0.943603 0.286324 0.840191
O O9 0.660204 0.822154 0.500000
O O10 0.750000 0.750000 0.371087
O O11 0.694063 0.873106 0.319698
O O12 0.717168 0.000000 0.750000
#
# Coordination Sequence:
#
# PCOD9495304 Si02
#       5
#    16  16   8  16  16
#     4  11  21  33  55  88 123 160 204 261 327 385
#     4  10  18  29  51  85 125 163 197 247 320 392
#     4  12  22  42  66  90 126 168 220 272 316 386
#     4  11  24  44  70  98 130 175 222 266 321 392
#     4  12  22  36  59  91 133 167 209 263 323 388
#
# _framework density 20.026719
#
# number of rings (size 3 to 8) (size 9 to 14) (size 15 to 20)
#    0.000    0.889    6.667    1.333    0.000    4.444 
#    0.000    3.889    0.000    1.333    0.000    0.000 
#    0.000    0.000    0.000    0.000    0.000    0.000 
#
# Total GULP energy -200736.838903 kJ/mol
# GULP energy per Si atom -5576.023303 kJ/mol
# Density = 1.998114 g / cm^3
# Si number density = 20.026719 Si / 1000 Ang^3
#
#
#
# Elastic Constant Matrix: (Units=GPa)
#
#
# Indices 1 2 3 4 5 6 
#
# 1 27.0240 14.7369 11.1511 0.0000 0.0000 0.0000
# 2 14.7369 81.6939 31.7955 0.0000 0.0000 0.0000
# 3 11.1511 31.7955 122.7971 0.0000 0.0000 0.0000
# 4 0.0000 0.0000 0.0000 22.7567 0.0000 0.0000
# 5 0.0000 0.0000 0.0000 0.0000 21.5520 0.0000
# 6 0.0000 0.0000 0.0000 0.0000 0.0000 15.9765
#
#
#
# Elastic Compliance Matrix: (Units=1/GPa)
#
#
# Indices 1 2 3 4 5 6 
#
# 1 0.041494 -0.006693 -0.002035 0.000000 0.000000 0.000000
# 2 -0.006693 0.014692 -0.003196 0.000000 0.000000 0.000000
# 3 -0.002035 -0.003196 0.009156 0.000000 0.000000 0.000000
# 4 0.000000 0.000000 0.000000 0.043943 0.000000 0.000000
# 5 0.000000 0.000000 0.000000 0.000000 0.046400 0.000000
# 6 0.000000 0.000000 0.000000 0.000000 0.000000 0.062592
#
#
# Mechanical properties :
#
#
# Convention : Reuss Voigt Hill
#
# Bulk Modulus (GPa) = 24.10047 38.54245 31.32146
# Shear Modulus (GPa) = 19.53456 23.64580 21.59018
#
# Velocity S-wave (km/s) = 3.12657 3.43988 3.28696
# Velocity P-wave (km/s) = 5.00941 5.92151 5.48445
#
# Compressibility (1/GPa) = 0.04149298
#
# Stress axis : x y z
#
# Youngs Moduli (GPa) = 24.09999 68.06314 109.21858
#
# Poissons Ratio (x) = 0.45555 0.22226
# Poissons Ratio (y) = 0.16130 0.34911
# Poissons Ratio (z) = 0.04904 0.21756
#
# Static dielectric constant tensor:
#      x y z
#    x 1.694880 0.000000 0.000000 
#    y 0.000000 1.998230 0.000000 
#    z 0.000000 0.000000 1.792880 
# 
# From -- ./inp_files/27947.got.cif
#   From: 2010.05.17/outbox.cif.g08.bks.cpg/sg66_14_cif.got.tgz:27947.got - 2010.06.03 17:51:23.
