data_PCOD9495809
_publ_section_title
;
Structure prediction by ZEFSAII (Michael W. Deem and Ramdas Pophale) SiO2 
 PCOD9495809
Probable space group: C C C M
;
_chemical_formula_sum "Si O2"
_cell_formula_units_Z 80
_cell_length_a 15.235802
_cell_length_b 9.207393
_cell_length_c 26.368191
_cell_angle_alpha 90.000000
_cell_angle_beta 90.000000
_cell_angle_gamma 90.000000
_cell_volume 3698.983010
_symmetry_space_group_name_H-M "C C C M"
_symmetry_group_IT_number 66
_symmetry_cell_setting 'orthorhombic'
loop_
_space_group_symop_operation_xyz
x,y,z
-x,-y,z
x,-y,1/2-z
-x,y,1/2-z
-x,-y,-z
x,y,-z
-x,y,1/2+z
x,-y,1/2+z
1/2+x,1/2+y,z
1/2-x,1/2-y,z
1/2+x,1/2-y,1/2-z
1/2-x,1/2+y,1/2-z
1/2-x,1/2-y,-z
1/2+x,1/2+y,-z
1/2-x,1/2+y,1/2+z
1/2+x,1/2-y,1/2+z
loop_
_atom_site_type_symbol
_atom_site_label
_atom_site_fract_x
_atom_site_fract_y
_atom_site_fract_z
Si Si1 0.412814 0.112119 0.000000
Si Si2 0.657260 0.821314 0.500000
Si Si3 0.897398 0.170224 0.594742
Si Si4 0.604309 0.347398 0.098074
Si Si5 0.107324 0.672067 0.806003
Si Si6 0.392578 0.164449 0.807439
O O1 0.400408 0.216068 0.048458
O O2 0.500000 0.000000 0.000000
O O3 0.337587 0.992740 0.000000
O O4 0.750000 0.750000 0.500000
O O5 0.613594 0.760864 0.449085
O O6 0.859592 0.241121 0.645667
O O7 0.000144 0.144550 0.605701
O O8 0.860610 0.008374 0.585102
O O9 0.640496 0.276751 0.149591
O O10 0.132771 0.504111 0.814382
O O11 0.133777 0.714556 0.748908
O O12 0.999963 0.669931 0.807572
#
# Coordination Sequence:
#
# PCOD9495809 Si02
#       6
#     8   8  16  16  16  16
#     4  12  21  35  57  79 102 144 191 230 276 347
#     4  12  25  39  55  77 106 145 187 228 273 334
#     4  10  19  30  53  81 108 137 177 226 282 331
#     4  10  19  33  50  77 111 141 175 228 280 327
#     4   8  14  25  44  69 109 142 172 214 267 327
#     4   8  14  24  42  75 106 140 173 214 270 324
#
# _framework density 21.627566000000002
#
# number of rings (size 3 to 8) (size 9 to 14) (size 15 to 20)
#    0.000    2.400    2.000    3.000    2.800    2.400 
#    0.000    6.000    0.000    0.000    0.000   11.200 
#    0.000    0.000    0.000    0.000    0.000    0.000 
#
# Total GULP energy -222970.747193 kJ/mol
# GULP energy per Si atom -5574.268680 kJ/mol
# Density = 2.157834 g / cm^3
# Si number density = 21.627566 Si / 1000 Ang^3
#
#
#
# Elastic Constant Matrix: (Units=GPa)
#
#
# Indices 1 2 3 4 5 6 
#
# 1 22.8293 3.6512 -3.4349 0.0000 0.0000 0.0000
# 2 3.6512 174.2034 119.8831 0.0000 0.0000 0.0000
# 3 -3.4349 119.8831 188.6911 0.0000 0.0000 0.0000
# 4 0.0000 0.0000 0.0000 57.1953 0.0000 0.0000
# 5 0.0000 0.0000 0.0000 0.0000 -41.3457 0.0000
# 6 0.0000 0.0000 0.0000 0.0000 0.0000 7.1159
#
#
#
# Elastic Compliance Matrix: (Units=1/GPa)
#
#
# Indices 1 2 3 4 5 6 
#
# 1 0.044604 -0.002654 0.002498 0.000000 0.000000 0.000000
# 2 -0.002654 0.010358 -0.006629 0.000000 0.000000 0.000000
# 3 0.002498 -0.006629 0.009557 0.000000 0.000000 0.000000
# 4 0.000000 0.000000 0.000000 0.017484 0.000000 0.000000
# 5 0.000000 0.000000 0.000000 0.000000 -0.024186 0.000000
# 6 0.000000 0.000000 0.000000 0.000000 0.000000 0.140531
#
#
# Mechanical properties :
#
#
# Convention : Reuss Voigt Hill
#
# Bulk Modulus (GPa) = 19.62763 69.54694 44.58729
# Shear Modulus (GPa) = 21.84355 22.30137 22.07246
#
# Velocity S-wave (km/s) = 3.18148 3.21464 3.19810
# Velocity P-wave (km/s) = 4.75297 6.78270 5.85644
#
# Compressibility (1/GPa) = 0.05094858
#
# Stress axis : x y z
#
# Youngs Moduli (GPa) = 22.41965 96.54215 104.63543
#
# Poissons Ratio (x) = 0.25623 -0.26140
# Poissons Ratio (y) = 0.05950 0.69366
# Poissons Ratio (z) = -0.05601 0.64000
#
# Static dielectric constant tensor:
#      x y z
#    x 1.819700 0.000000 0.000000 
#    y 0.000000 1.794120 0.000000 
#    z 0.000000 0.000000 1.695950 
# 
# From -- ./inp_files/65139.got.cif
#   From: 2010.05.17/outbox.cif.g08.bks.cpg/sg66_33_cif.got.tgz:65139.got - 2010.06.03 17:51:23.
