data_PCOD9495258
_publ_section_title
;
Structure prediction by ZEFSAII (Michael W. Deem and Ramdas Pophale) SiO2 
 PCOD9495258
Probable space group: C C C M
;
_chemical_formula_sum "Si O2"
_cell_formula_units_Z 88
_cell_length_a 27.255261
_cell_length_b 14.726733
_cell_length_c 13.484910
_cell_angle_alpha 90.000000
_cell_angle_beta 90.000000
_cell_angle_gamma 90.000000
_cell_volume 5412.586008
_symmetry_space_group_name_H-M "C C C M"
_symmetry_group_IT_number 66
_symmetry_cell_setting 'orthorhombic'
loop_
_space_group_symop_operation_xyz
x,y,z
-x,-y,z
x,-y,1/2-z
-x,y,1/2-z
-x,-y,-z
x,y,-z
-x,y,1/2+z
x,-y,1/2+z
1/2+x,1/2+y,z
1/2-x,1/2-y,z
1/2+x,1/2-y,1/2-z
1/2-x,1/2+y,1/2-z
1/2-x,1/2-y,-z
1/2+x,1/2+y,-z
1/2-x,1/2+y,1/2+z
1/2+x,1/2-y,1/2+z
loop_
_atom_site_type_symbol
_atom_site_label
_atom_site_fract_x
_atom_site_fract_y
_atom_site_fract_z
Si Si1 0.194058 0.423783 0.615600
Si Si2 0.081047 0.316157 0.882491
Si Si3 0.265559 0.120044 0.181407
Si Si4 0.918390 0.532405 0.384474
Si Si5 0.825110 0.788799 0.113977
Si Si6 0.000000 0.366589 0.750000
O O1 0.203672 0.401433 0.500000
O O2 0.218415 0.367022 0.704225
O O3 0.215286 0.524467 0.639407
O O4 0.135092 0.423430 0.630844
O O5 0.091205 0.424600 0.867635
O O6 0.122953 0.247507 0.846442
O O7 0.031114 0.305364 0.824062
O O8 0.076533 0.304032 0.000000
O O9 0.207556 0.136622 0.169668
O O10 0.292994 0.196803 0.118612
O O11 0.932513 0.542417 0.500000
O O12 0.961584 0.575138 0.317733
O O13 0.830714 0.817539 0.000000
#
# Coordination Sequence:
#
# PCOD9495258 Si02
#       6
#    16  16  16  16  16   8
#     4  10  19  31  46  67  94 119 151 192 231 277
#     4  10  19  29  42  61  86 117 154 191 221 255
#     4  10  18  28  48  66  84 118 156 189 234 272
#     4  10  19  29  41  62  89 120 155 187 221 261
#     4  10  18  30  46  65  87 115 158 201 228 261
#     4  12  21  28  44  62  92 125 154 185 224 266
#
# _framework density 16.258403000000001
#
# number of rings (size 3 to 8) (size 9 to 14) (size 15 to 20)
#    0.000    1.818    1.818    5.455    2.545    1.455 
#    0.000    1.818    0.000    2.182    0.000    0.000 
#    0.000    2.909    0.000   18.000    0.000    0.000 
#
# Total GULP energy -245059.219148 kJ/mol
# GULP energy per Si atom -5569.527708 kJ/mol
# Density = 1.622140 g / cm^3
# Si number density = 16.258403 Si / 1000 Ang^3
#
#
#
# Elastic Constant Matrix: (Units=GPa)
#
#
# Indices 1 2 3 4 5 6 
#
# 1 122.2435 24.6276 50.5687 0.0000 0.0000 0.0000
# 2 24.6276 14.7506 6.0739 0.0000 0.0000 0.0000
# 3 50.5687 6.0739 100.8276 0.0000 0.0000 0.0000
# 4 0.0000 0.0000 0.0000 8.3213 0.0000 0.0000
# 5 0.0000 0.0000 0.0000 0.0000 22.4636 0.0000
# 6 0.0000 0.0000 0.0000 0.0000 0.0000 33.1580
#
#
#
# Elastic Compliance Matrix: (Units=1/GPa)
#
#
# Indices 1 2 3 4 5 6 
#
# 1 0.015503 -0.023259 -0.006374 0.000000 0.000000 0.000000
# 2 -0.023259 0.104415 0.005375 0.000000 0.000000 0.000000
# 3 -0.006374 0.005375 0.012791 0.000000 0.000000 0.000000
# 4 0.000000 0.000000 0.000000 0.120173 0.000000 0.000000
# 5 0.000000 0.000000 0.000000 0.000000 0.044516 0.000000
# 6 0.000000 0.000000 0.000000 0.000000 0.000000 0.030159
#
#
# Mechanical properties :
#
#
# Convention : Reuss Voigt Hill
#
# Bulk Modulus (GPa) = 11.87757 44.48467 28.18112
# Shear Modulus (GPa) = 12.37204 23.22536 17.79870
#
# Velocity S-wave (km/s) = 2.76155 3.78367 3.31227
# Velocity P-wave (km/s) = 4.18205 6.81972 5.65677
#
# Compressibility (1/GPa) = 0.08419233
#
# Stress axis : x y z
#
# Youngs Moduli (GPa) = 64.50306 9.57721 78.17993
#
# Poissons Ratio (x) = 0.22276 0.49834
# Poissons Ratio (y) = 1.50030 -0.42025
# Poissons Ratio (z) = 0.41116 -0.05148
#
# Static dielectric constant tensor:
#      x y z
#    x 1.609150 0.000000 0.000000 
#    y 0.000000 1.535010 0.000000 
#    z 0.000000 0.000000 1.606430 
# 
# From -- ./inp_files/33255.got.cif
#   From: 2010.05.17/outbox.cif.g08.bks.cpg/sg66_17_cif.got.tgz:33255.got - 2010.06.03 17:51:23.
