data_PCOD9495012
_publ_section_title
;
Structure prediction by ZEFSAII (Michael W. Deem and Ramdas Pophale) SiO2 
 PCOD9495012
Probable space group: C C C M
;
_chemical_formula_sum "Si O2"
_cell_formula_units_Z 80
_cell_length_a 17.970190
_cell_length_b 26.989863
_cell_length_c 8.517930
_cell_angle_alpha 90.000000
_cell_angle_beta 90.000000
_cell_angle_gamma 90.000000
_cell_volume 4131.306495
_symmetry_space_group_name_H-M "C C C M"
_symmetry_group_IT_number 66
_symmetry_cell_setting 'orthorhombic'
loop_
_space_group_symop_operation_xyz
x,y,z
-x,-y,z
x,-y,1/2-z
-x,y,1/2-z
-x,-y,-z
x,y,-z
-x,y,1/2+z
x,-y,1/2+z
1/2+x,1/2+y,z
1/2-x,1/2-y,z
1/2+x,1/2-y,1/2-z
1/2-x,1/2+y,1/2-z
1/2-x,1/2-y,-z
1/2+x,1/2+y,-z
1/2-x,1/2+y,1/2+z
1/2+x,1/2-y,1/2+z
loop_
_atom_site_type_symbol
_atom_site_label
_atom_site_fract_x
_atom_site_fract_y
_atom_site_fract_z
Si Si1 0.874121 0.156091 0.189653
Si Si2 0.421611 0.236121 0.689786
Si Si3 0.292594 0.949447 0.812119
Si Si4 0.299189 0.158774 0.690507
Si Si5 0.377482 0.448391 0.813871
O O1 0.912711 0.206814 0.240998
O O2 0.787151 0.162070 0.238563
O O3 0.906532 0.104695 0.254783
O O4 0.875630 0.152866 0.000000
O O5 0.500000 0.216325 0.750000
O O6 0.420690 0.235891 0.500000
O O7 0.352883 0.202343 0.745711
O O8 0.326977 0.896471 0.766924
O O9 0.208370 0.948154 0.745850
O O10 0.328339 0.000000 0.750000
O O11 0.287695 0.951831 0.000000
O O12 0.298244 0.161475 0.500000
O O13 0.410544 0.500000 0.750000
O O14 0.379391 0.449911 0.000000
#
# Coordination Sequence:
#
# PCOD9495012 Si02
#       5
#    16  16  16  16  16
#     4   9  17  31  51  72  94 124 162 199 234 276
#     4  10  20  34  51  70  95 126 160 198 241 287
#     4   9  15  25  43  68  97 125 156 193 236 281
#     4   8  15  29  50  72  93 124 163 197 230 277
#     4  10  17  26  43  69 100 127 153 189 235 282
#
# _framework density 19.364335000000001
#
# number of rings (size 3 to 8) (size 9 to 14) (size 15 to 20)
#    0.000    2.800    0.000    5.400    0.000    3.200 
#    0.000    5.000    0.000    7.200    0.000    8.400 
#    0.000    0.000    0.000    0.000    0.000    0.000 
#
# Total GULP energy -222904.681834 kJ/mol
# GULP energy per Si atom -5572.617046 kJ/mol
# Density = 1.932026 g / cm^3
# Si number density = 19.364335 Si / 1000 Ang^3
#
#
#
# Elastic Constant Matrix: (Units=GPa)
#
#
# Indices 1 2 3 4 5 6 
#
# 1 56.8211 41.2175 6.6772 0.0000 0.0000 0.0000
# 2 41.2175 144.0429 30.9398 0.0000 0.0000 0.0000
# 3 6.6772 30.9398 47.9038 0.0000 0.0000 0.0000
# 4 0.0000 0.0000 0.0000 31.3555 0.0000 0.0000
# 5 0.0000 0.0000 0.0000 0.0000 13.7957 0.0000
# 6 0.0000 0.0000 0.0000 0.0000 0.0000 -13.2371
#
#
#
# Elastic Compliance Matrix: (Units=1/GPa)
#
#
# Indices 1 2 3 4 5 6 
#
# 1 0.022266 -0.006624 0.001174 0.000000 0.000000 0.000000
# 2 -0.006624 0.010031 -0.005556 0.000000 0.000000 0.000000
# 3 0.001174 -0.005556 0.024300 0.000000 0.000000 0.000000
# 4 0.000000 0.000000 0.000000 0.031892 0.000000 0.000000
# 5 0.000000 0.000000 0.000000 0.000000 0.072486 0.000000
# 6 0.000000 0.000000 0.000000 0.000000 0.000000 -0.075545
#
#
# Mechanical properties :
#
#
# Convention : Reuss Voigt Hill
#
# Bulk Modulus (GPa) = 28.91256 45.15965 37.03611
# Shear Modulus (GPa) = 42.02816 17.71173 29.86994
#
# Velocity S-wave (km/s) = 4.66380 3.02761 3.93176
# Velocity P-wave (km/s) = 6.63058 5.96603 6.30707
#
# Compressibility (1/GPa) = 0.03458704
#
# Stress axis : x y z
#
# Youngs Moduli (GPa) = 44.91209 99.69119 41.15292
#
# Poissons Ratio (x) = 0.66031 -0.04833
# Poissons Ratio (y) = 0.29748 0.22863
# Poissons Ratio (z) = -0.05274 0.55383
#
# Static dielectric constant tensor:
#      x y z
#    x 1.643850 0.000000 0.000000 
#    y 0.000000 1.743250 0.000000 
#    z 0.000000 0.000000 1.661470 
# 
# From -- ./inp_files/6646.got.cif
#   From: 2010.05.17/outbox.cif.g08.bks.cpg/sg66_4_cif.got.tgz:6646.got - 2010.06.03 17:51:23.
