data_PCOD9495097
_publ_section_title
;
Structure prediction by ZEFSAII (Michael W. Deem and Ramdas Pophale) SiO2 
 PCOD9495097
Probable space group: C C C M
;
_chemical_formula_sum "Si O2"
_cell_formula_units_Z 96
_cell_length_a 24.579942
_cell_length_b 9.957732
_cell_length_c 19.652609
_cell_angle_alpha 90.000000
_cell_angle_beta 90.000000
_cell_angle_gamma 90.000000
_cell_volume 4810.181914
_symmetry_space_group_name_H-M "C C C M"
_symmetry_group_IT_number 66
_symmetry_cell_setting 'orthorhombic'
loop_
_space_group_symop_operation_xyz
x,y,z
-x,-y,z
x,-y,1/2-z
-x,y,1/2-z
-x,-y,-z
x,y,-z
-x,y,1/2+z
x,-y,1/2+z
1/2+x,1/2+y,z
1/2-x,1/2-y,z
1/2+x,1/2-y,1/2-z
1/2-x,1/2+y,1/2-z
1/2-x,1/2-y,-z
1/2+x,1/2+y,-z
1/2-x,1/2+y,1/2+z
1/2+x,1/2-y,1/2+z
loop_
_atom_site_type_symbol
_atom_site_label
_atom_site_fract_x
_atom_site_fract_y
_atom_site_fract_z
Si Si1 0.842795 0.845682 0.077810
Si Si2 0.427724 0.876979 0.401043
Si Si3 0.949394 0.673866 0.604076
Si Si4 0.940588 0.028130 0.078034
Si Si5 0.397321 0.849255 0.249299
Si Si6 0.798909 0.847668 0.222133
O O1 0.876101 0.706135 0.074651
O O2 0.800228 0.847544 0.139163
O O3 0.889760 0.946644 0.105228
O O4 0.825150 0.878855 0.000000
O O5 0.487921 0.828417 0.420336
O O6 0.429202 0.854300 0.319904
O O7 0.423806 0.033319 0.419234
O O8 0.927324 0.815328 0.579562
O O9 0.936911 0.669047 0.685091
O O10 0.944606 0.979873 0.000000
O O11 0.000000 0.000000 0.110162
O O12 0.353434 0.730306 0.253197
O O13 0.370873 0.000000 0.250000
O O14 0.750000 0.750000 0.244491
O O15 0.795414 0.000000 0.250000
#
# Coordination Sequence:
#
# PCOD9495097 Si02
#       6
#    16  16  16  16  16  16
#     4  10  21  38  57  82 117 151 189 234 286 348
#     4   9  18  29  48  77 109 148 187 226 273 330
#     4  10  17  29  49  74 109 150 190 228 271 326
#     4  10  19  31  47  70 106 150 188 222 266 325
#     4   9  18  33  52  77 108 140 180 233 288 339
#     4  11  23  40  63  86 108 141 189 243 300 349
#
# _framework density 19.957664000000001
#
# number of rings (size 3 to 8) (size 9 to 14) (size 15 to 20)
#    0.000    2.167    1.667    2.000    0.000    3.000 
#    0.000    1.667    0.000    0.500    0.000    0.000 
#    0.000    0.000    0.000    0.000    0.000    0.000 
#
# Total GULP energy -267375.822453 kJ/mol
# GULP energy per Si atom -5570.329634 kJ/mol
# Density = 1.991224 g / cm^3
# Si number density = 19.957664 Si / 1000 Ang^3
#
#
#
# Elastic Constant Matrix: (Units=GPa)
#
#
# Indices 1 2 3 4 5 6 
#
# 1 48.6630 36.3632 14.5218 0.0000 0.0000 0.0000
# 2 36.3632 146.8406 10.9661 0.0000 0.0000 0.0000
# 3 14.5218 10.9661 101.1427 0.0000 0.0000 0.0000
# 4 0.0000 0.0000 0.0000 14.1984 0.0000 0.0000
# 5 0.0000 0.0000 0.0000 0.0000 17.4218 0.0000
# 6 0.0000 0.0000 0.0000 0.0000 0.0000 25.4297
#
#
#
# Elastic Compliance Matrix: (Units=1/GPa)
#
#
# Indices 1 2 3 4 5 6 
#
# 1 0.026131 -0.006241 -0.003075 0.000000 0.000000 0.000000
# 2 -0.006241 0.008356 -0.000010 0.000000 0.000000 0.000000
# 3 -0.003075 -0.000010 0.010330 0.000000 0.000000 0.000000
# 4 0.000000 0.000000 0.000000 0.070430 0.000000 0.000000
# 5 0.000000 0.000000 0.000000 0.000000 0.057399 0.000000
# 6 0.000000 0.000000 0.000000 0.000000 0.000000 0.039324
#
#
# Mechanical properties :
#
#
# Convention : Reuss Voigt Hill
#
# Bulk Modulus (GPa) = 38.22005 46.70540 42.46272
# Shear Modulus (GPa) = 20.89034 27.06300 23.97667
#
# Velocity S-wave (km/s) = 3.23884 3.68641 3.46985
# Velocity P-wave (km/s) = 5.76011 6.44768 6.11357
#
# Compressibility (1/GPa) = 0.02616428
#
# Stress axis : x y z
#
# Youngs Moduli (GPa) = 38.26874 119.66817 96.80911
#
# Poissons Ratio (x) = 0.74689 0.29770
# Poissons Ratio (y) = 0.23885 0.00096
# Poissons Ratio (z) = 0.11768 0.00119
#
# Static dielectric constant tensor:
#      x y z
#    x 1.703540 0.000000 0.000000 
#    y 0.000000 1.741480 0.000000 
#    z 0.000000 0.000000 1.745260 
# 
# From -- ./inp_files/52928.got.cif
#   From: 2010.05.17/outbox.cif.g08.bks.cpg/sg66_27_cif.got.tgz:52928.got - 2010.06.03 17:51:23.
