data_PCOD9495291
_publ_section_title
;
Structure prediction by ZEFSAII (Michael W. Deem and Ramdas Pophale) SiO2 
 PCOD9495291
Probable space group: C C C M
;
_chemical_formula_sum "Si O2"
_cell_formula_units_Z 104
_cell_length_a 20.300377
_cell_length_b 17.405976
_cell_length_c 17.213544
_cell_angle_alpha 90.000000
_cell_angle_beta 90.000000
_cell_angle_gamma 90.000000
_cell_volume 6082.369191
_symmetry_space_group_name_H-M "C C C M"
_symmetry_group_IT_number 66
_symmetry_cell_setting 'orthorhombic'
loop_
_space_group_symop_operation_xyz
x,y,z
-x,-y,z
x,-y,1/2-z
-x,y,1/2-z
-x,-y,-z
x,y,-z
-x,y,1/2+z
x,-y,1/2+z
1/2+x,1/2+y,z
1/2-x,1/2-y,z
1/2+x,1/2-y,1/2-z
1/2-x,1/2+y,1/2-z
1/2-x,1/2-y,-z
1/2+x,1/2+y,-z
1/2-x,1/2+y,1/2+z
1/2+x,1/2-y,1/2+z
loop_
_atom_site_type_symbol
_atom_site_label
_atom_site_fract_x
_atom_site_fract_y
_atom_site_fract_z
Si Si1 0.075681 0.664386 0.776414
Si Si2 0.639222 0.000000 0.750000
Si Si3 0.019005 0.084371 0.159771
Si Si4 0.845820 0.881878 0.087266
Si Si5 0.874821 0.285881 0.379854
Si Si6 0.300502 0.943090 0.588384
Si Si7 0.474689 0.743265 0.088006
O O1 0.096841 0.576070 0.768814
O O2 0.119581 0.709229 0.713546
O O3 0.073461 0.705485 0.859264
O O4 0.000000 0.670863 0.750000
O O5 0.677933 0.014469 0.668364
O O6 0.096911 0.095185 0.146441
O O7 0.000000 0.087947 0.250000
O O8 0.983417 0.156562 0.119382
O O9 0.000000 0.000000 0.129609
O O10 0.836932 0.790310 0.095174
O O11 0.776722 0.923886 0.096116
O O12 0.871583 0.896724 0.000000
O O13 0.841092 0.363123 0.409151
O O14 0.950586 0.277581 0.408076
O O15 0.311060 0.976191 0.500000
O O16 0.452556 0.742493 0.000000
#
# Coordination Sequence:
#
# PCOD9495291 Si02
#       7
#    16   8  16  16  16  16  16
#     4   9  18  32  48  69  98 131 168 205 246 294
#     4  10  21  34  50  70  99 138 170 208 250 292
#     4  10  20  33  50  73 101 130 161 201 249 302
#     4  10  19  31  50  75  99 123 154 198 250 300
#     4   9  16  30  50  72  98 124 157 202 251 298
#     4  10  20  33  50  73  99 128 164 205 249 296
#     4  10  18  29  49  74 100 131 166 205 249 300
#
# _framework density 17.098600000000001
#
# number of rings (size 3 to 8) (size 9 to 14) (size 15 to 20)
#    0.000    2.308    0.000    5.769    0.000    4.308 
#    0.000    0.000    0.000    5.538    0.000    0.000 
#    0.000   11.077    0.000    0.000    0.000    0.000 
#
# Total GULP energy -289609.261965 kJ/mol
# GULP energy per Si atom -5569.408884 kJ/mol
# Density = 1.705968 g / cm^3
# Si number density = 17.098600 Si / 1000 Ang^3
#
#
#
# Elastic Constant Matrix: (Units=GPa)
#
#
# Indices 1 2 3 4 5 6 
#
# 1 27.1473 9.0396 27.6861 0.0000 0.0000 0.0000
# 2 9.0396 60.3011 35.5357 0.0000 0.0000 0.0000
# 3 27.6861 35.5357 135.8624 0.0000 0.0000 0.0000
# 4 0.0000 0.0000 0.0000 12.0435 0.0000 0.0000
# 5 0.0000 0.0000 0.0000 0.0000 24.0099 0.0000
# 6 0.0000 0.0000 0.0000 0.0000 0.0000 11.7700
#
#
#
# Elastic Compliance Matrix: (Units=1/GPa)
#
#
# Indices 1 2 3 4 5 6 
#
# 1 0.046637 -0.001644 -0.009074 0.000000 0.000000 0.000000
# 2 -0.001644 0.019663 -0.004808 0.000000 0.000000 0.000000
# 3 -0.009074 -0.004808 0.010467 0.000000 0.000000 0.000000
# 4 0.000000 0.000000 0.000000 0.083032 0.000000 0.000000
# 5 0.000000 0.000000 0.000000 0.000000 0.041649 0.000000
# 6 0.000000 0.000000 0.000000 0.000000 0.000000 0.084962
#
#
# Mechanical properties :
#
#
# Convention : Reuss Voigt Hill
#
# Bulk Modulus (GPa) = 21.87423 40.87039 31.37231
# Shear Modulus (GPa) = 15.02847 19.63464 17.33155
#
# Velocity S-wave (km/s) = 2.96789 3.39236 3.18720
# Velocity P-wave (km/s) = 4.95634 6.26888 5.65084
#
# Compressibility (1/GPa) = 0.04571590
#
# Stress axis : x y z
#
# Youngs Moduli (GPa) = 21.44204 50.85610 95.53828
#
# Poissons Ratio (x) = 0.08361 0.86689
# Poissons Ratio (y) = 0.03525 0.45935
# Poissons Ratio (z) = 0.19456 0.24452
#
# Static dielectric constant tensor:
#      x y z
#    x 1.555530 0.000000 0.000000 
#    y 0.000000 1.581610 0.000000 
#    z 0.000000 0.000000 1.622530 
# 
# From -- ./inp_files/31368.got.cif
#   From: 2010.05.17/outbox.cif.g08.bks.cpg/sg66_16_cif.got.tgz:31368.got - 2010.06.03 17:51:23.
