data_PCOD9495488
_publ_section_title
;
Structure prediction by ZEFSAII (Michael W. Deem and Ramdas Pophale) SiO2 
 PCOD9495488
Probable space group: C C C M
;
_chemical_formula_sum "Si O2"
_cell_formula_units_Z 48
_cell_length_a 13.824578
_cell_length_b 5.287403
_cell_length_c 26.927630
_cell_angle_alpha 90.000000
_cell_angle_beta 90.000000
_cell_angle_gamma 90.000000
_cell_volume 1968.305144
_symmetry_space_group_name_H-M "C C C M"
_symmetry_group_IT_number 66
_symmetry_cell_setting 'orthorhombic'
loop_
_space_group_symop_operation_xyz
x,y,z
-x,-y,z
x,-y,1/2-z
-x,y,1/2-z
-x,-y,-z
x,y,-z
-x,y,1/2+z
x,-y,1/2+z
1/2+x,1/2+y,z
1/2-x,1/2-y,z
1/2+x,1/2-y,1/2-z
1/2-x,1/2+y,1/2-z
1/2-x,1/2-y,-z
1/2+x,1/2+y,-z
1/2-x,1/2+y,1/2+z
1/2+x,1/2-y,1/2+z
loop_
_atom_site_type_symbol
_atom_site_label
_atom_site_fract_x
_atom_site_fract_y
_atom_site_fract_z
Si Si1 0.183380 0.001492 0.195173
Si Si2 0.610639 0.817548 0.443150
Si Si3 0.606083 0.678101 0.094840
O O1 0.250000 0.750000 0.189313
O O2 0.136284 0.000000 0.250000
O O3 0.250000 0.250000 0.195639
O O4 0.112886 0.054461 0.149134
O O5 0.611768 0.903253 0.500000
O O6 0.654364 0.536971 0.439311
O O7 0.501188 0.747278 0.425287
O O8 0.650143 0.040752 0.408381
#
# Coordination Sequence:
#
# PCOD9495488 Si02
#       3
#    16  16  16
#     4  10  21  37  56  76 103 142 183 223 267 316
#     4  10  19  33  56  81 108 140 171 214 269 322
#     4  10  18  32  55  79 103 138 178 215 262 320
#
# _framework density 24.386465000000001
#
# number of rings (size 3 to 8) (size 9 to 14) (size 15 to 20)
#    0.000    2.000    0.000    7.000    0.000    0.000 
#    0.000    3.333    0.000   42.000    0.000    0.000 
#    0.000    0.000    0.000    0.000    0.000    0.000 
#
# Total GULP energy -133823.595485 kJ/mol
# GULP energy per Si atom -5575.983145 kJ/mol
# Density = 2.433096 g / cm^3
# Si number density = 24.386465 Si / 1000 Ang^3
#
#
#
# Elastic Constant Matrix: (Units=GPa)
#
#
# Indices 1 2 3 4 5 6 
#
# 1 70.2419 4.5954 14.7708 0.0000 0.0000 0.0000
# 2 4.5954 245.2600 44.3712 0.0000 0.0000 0.0000
# 3 14.7708 44.3712 207.6159 0.0000 0.0000 0.0000
# 4 0.0000 0.0000 0.0000 35.2261 0.0000 0.0000
# 5 0.0000 0.0000 0.0000 0.0000 26.0750 0.0000
# 6 0.0000 0.0000 0.0000 0.0000 0.0000 12.2178
#
#
#
# Elastic Compliance Matrix: (Units=1/GPa)
#
#
# Indices 1 2 3 4 5 6 
#
# 1 0.014455 -0.000088 -0.001010 0.000000 0.000000 0.000000
# 2 -0.000088 0.004242 -0.000900 0.000000 0.000000 0.000000
# 3 -0.001010 -0.000900 0.005081 0.000000 0.000000 0.000000
# 4 0.000000 0.000000 0.000000 0.028388 0.000000 0.000000
# 5 0.000000 0.000000 0.000000 0.000000 0.038351 0.000000
# 6 0.000000 0.000000 0.000000 0.000000 0.000000 0.081848
#
#
# Mechanical properties :
#
#
# Convention : Reuss Voigt Hill
#
# Bulk Modulus (GPa) = 50.55298 72.28807 61.42052
# Shear Modulus (GPa) = 27.32931 45.32915 36.32923
#
# Velocity S-wave (km/s) = 3.35128 4.31604 3.86389
# Velocity P-wave (km/s) = 5.97911 7.38543 6.71916
#
# Compressibility (1/GPa) = 0.01978123
#
# Stress axis : x y z
#
# Youngs Moduli (GPa) = 69.18224 235.74724 196.81879
#
# Poissons Ratio (x) = 0.02079 0.19869
# Poissons Ratio (y) = 0.00610 0.17719
# Poissons Ratio (z) = 0.06984 0.21224
#
# Static dielectric constant tensor:
#      x y z
#    x 2.372100 0.000000 0.000000 
#    y 0.000000 2.249150 0.000000 
#    z 0.000000 0.000000 1.963280 
# 
# From -- ./inp_files/51404.got.cif
#   From: 2010.05.17/outbox.cif.g08.bks.cpg/sg66_26_cif.got.tgz:51404.got - 2010.06.03 17:51:23.
