data_PCOD9495175
_publ_section_title
;
Structure prediction by ZEFSAII (Michael W. Deem and Ramdas Pophale) SiO2 
 PCOD9495175
Probable space group: C C C M
;
_chemical_formula_sum "Si O2"
_cell_formula_units_Z 88
_cell_length_a 17.187820
_cell_length_b 13.540125
_cell_length_c 21.324218
_cell_angle_alpha 90.000000
_cell_angle_beta 90.000000
_cell_angle_gamma 90.000000
_cell_volume 4962.683566
_symmetry_space_group_name_H-M "C C C M"
_symmetry_group_IT_number 66
_symmetry_cell_setting 'orthorhombic'
loop_
_space_group_symop_operation_xyz
x,y,z
-x,-y,z
x,-y,1/2-z
-x,y,1/2-z
-x,-y,-z
x,y,-z
-x,y,1/2+z
x,-y,1/2+z
1/2+x,1/2+y,z
1/2-x,1/2-y,z
1/2+x,1/2-y,1/2-z
1/2-x,1/2+y,1/2-z
1/2-x,1/2-y,-z
1/2+x,1/2+y,-z
1/2-x,1/2+y,1/2+z
1/2+x,1/2-y,1/2+z
loop_
_atom_site_type_symbol
_atom_site_label
_atom_site_fract_x
_atom_site_fract_y
_atom_site_fract_z
Si Si1 0.261871 0.086537 0.801582
Si Si2 0.500000 0.000000 0.132255
Si Si3 0.377691 0.729537 0.712059
Si Si4 0.336369 0.019042 0.070294
Si Si5 0.533427 0.781859 0.336789
Si Si6 0.169236 0.716675 0.070494
O O1 0.322826 0.174290 0.788224
O O2 0.176652 0.134915 0.796369
O O3 0.271437 0.000000 0.750000
O O4 0.282375 0.054380 0.872566
O O5 0.426434 0.033984 0.090647
O O6 0.473726 0.901866 0.169769
O O7 0.446032 0.740997 0.660939
O O8 0.422646 0.735039 0.777731
O O9 0.326924 0.901234 0.067389
O O10 0.321674 0.059138 0.000000
O O11 0.589699 0.759503 0.394501
O O12 0.250000 0.750000 0.102398
O O13 0.167949 0.758291 0.000000
#
# Coordination Sequence:
#
# PCOD9495175 Si02
#       6
#    16   8  16  16  16  16
#     4  11  22  39  58  81 113 156 188 234 285 340
#     4  10  17  33  58  84 115 144 175 232 311 332
#     4  10  23  36  55  84 113 143 199 227 281 343
#     4  10  20  34  56  86 116 147 186 232 285 349
#     4  10  20  35  55  82 115 142 182 241 280 343
#     4   9  19  34  57  86 111 144 186 231 283 335
#
# _framework density 17.732341999999999
#
# number of rings (size 3 to 8) (size 9 to 14) (size 15 to 20)
#    0.000    2.000    1.818    2.455    5.091    1.455 
#    0.000    4.545    0.000    0.000    0.000    3.818 
#    0.000    0.000    0.000    0.000    0.000    0.000 
#
# Total GULP energy -245158.848184 kJ/mol
# GULP energy per Si atom -5571.792004 kJ/mol
# Density = 1.769198 g / cm^3
# Si number density = 17.732342 Si / 1000 Ang^3
#
#
#
# Elastic Constant Matrix: (Units=GPa)
#
#
# Indices 1 2 3 4 5 6 
#
# 1 138.0064 38.6974 54.5435 0.0000 0.0000 0.0000
# 2 38.6974 39.1295 37.6026 0.0000 0.0000 0.0000
# 3 54.5435 37.6026 100.7550 0.0000 0.0000 0.0000
# 4 0.0000 0.0000 0.0000 8.7130 0.0000 0.0000
# 5 0.0000 0.0000 0.0000 0.0000 19.7720 0.0000
# 6 0.0000 0.0000 0.0000 0.0000 0.0000 31.2174
#
#
#
# Elastic Compliance Matrix: (Units=1/GPa)
#
#
# Indices 1 2 3 4 5 6 
#
# 1 0.010518 -0.007687 -0.002825 0.000000 0.000000 0.000000
# 2 -0.007687 0.045465 -0.012807 0.000000 0.000000 0.000000
# 3 -0.002825 -0.012807 0.016234 0.000000 0.000000 0.000000
# 4 0.000000 0.000000 0.000000 0.114771 0.000000 0.000000
# 5 0.000000 0.000000 0.000000 0.000000 0.050577 0.000000
# 6 0.000000 0.000000 0.000000 0.000000 0.000000 0.032033
#
#
# Mechanical properties :
#
#
# Convention : Reuss Voigt Hill
#
# Bulk Modulus (GPa) = 39.09348 59.95312 49.52330
# Shear Modulus (GPa) = 15.39587 21.74364 18.56976
#
# Velocity S-wave (km/s) = 2.94978 3.50553 3.23960
# Velocity P-wave (km/s) = 5.80482 7.09002 6.47937
#
# Compressibility (1/GPa) = 0.02557971
#
# Stress axis : x y z
#
# Youngs Moduli (GPa) = 95.07461 21.99484 61.59944
#
# Poissons Ratio (x) = 0.16908 0.17402
# Poissons Ratio (y) = 0.73085 0.78888
# Poissons Ratio (z) = 0.26859 0.28168
#
# Static dielectric constant tensor:
#      x y z
#    x 1.639880 0.000000 0.000000 
#    y 0.000000 1.603910 0.000000 
#    z 0.000000 0.000000 1.667320 
# 
# From -- ./inp_files/50945.got.cif
#   From: 2010.05.17/outbox.cif.g08.bks.cpg/sg66_26_cif.got.tgz:50945.got - 2010.06.03 17:51:23.
