data_PCOD9495990
_publ_section_title
;
Structure prediction by ZEFSAII (Michael W. Deem and Ramdas Pophale) SiO2 
 PCOD9495990
Probable space group: C C C M
;
_chemical_formula_sum "Si O2"
_cell_formula_units_Z 96
_cell_length_a 9.480427
_cell_length_b 21.343420
_cell_length_c 26.046566
_cell_angle_alpha 90.000000
_cell_angle_beta 90.000000
_cell_angle_gamma 90.000000
_cell_volume 5270.385501
_symmetry_space_group_name_H-M "C C C M"
_symmetry_group_IT_number 66
_symmetry_cell_setting 'orthorhombic'
loop_
_space_group_symop_operation_xyz
x,y,z
-x,-y,z
x,-y,1/2-z
-x,y,1/2-z
-x,-y,-z
x,y,-z
-x,y,1/2+z
x,-y,1/2+z
1/2+x,1/2+y,z
1/2-x,1/2-y,z
1/2+x,1/2-y,1/2-z
1/2-x,1/2+y,1/2-z
1/2-x,1/2-y,-z
1/2+x,1/2+y,-z
1/2-x,1/2+y,1/2+z
1/2+x,1/2-y,1/2+z
loop_
_atom_site_type_symbol
_atom_site_label
_atom_site_fract_x
_atom_site_fract_y
_atom_site_fract_z
Si Si1 0.427861 0.184954 0.399300
Si Si2 0.419864 0.933917 0.440078
Si Si3 0.663615 0.514165 0.442224
Si Si4 0.407611 0.730067 0.800421
Si Si5 0.379923 0.361225 0.386417
Si Si6 0.110130 0.785136 0.557467
O O1 0.509473 0.119346 0.405633
O O2 0.454917 0.221045 0.345252
O O3 0.260125 0.176554 0.404348
O O4 0.494073 0.230386 0.441434
O O5 0.430938 0.914866 0.500000
O O6 0.500000 0.000000 0.433940
O O7 0.258761 0.954020 0.429352
O O8 0.500000 0.500000 0.446527
O O9 0.712174 0.535678 0.500000
O O10 0.666646 0.568775 0.400149
O O11 0.500000 0.731021 0.750000
O O12 0.250000 0.750000 0.786621
O O13 0.402723 0.662353 0.828408
O O14 0.524435 0.340824 0.414872
O O15 0.148180 0.805425 0.500000
O O16 0.250000 0.750000 0.579762
#
# Coordination Sequence:
#
# PCOD9495990 Si02
#       6
#    16  16  16  16  16  16
#     4  10  20  35  55  78 105 140 183 223 271 334
#     4  10  19  32  53  81 112 150 186 215 254 317
#     4  10  21  34  51  79 117 153 184 219 259 314
#     4   9  20  38  59  82 102 131 178 234 292 336
#     4  10  20  36  55  76 105 143 183 223 271 331
#     4  10  21  31  45  74 110 142 176 221 267 315
#
# _framework density 18.214987000000001
#
# number of rings (size 3 to 8) (size 9 to 14) (size 15 to 20)
#    0.000    2.167    1.667    2.500    2.333    5.333 
#    0.000    0.000    0.000    1.000    0.000    0.000 
#    0.000    0.000    0.000    0.000    0.000    0.000 
#
# Total GULP energy -267268.710894 kJ/mol
# GULP energy per Si atom -5568.098144 kJ/mol
# Density = 1.817353 g / cm^3
# Si number density = 18.214987 Si / 1000 Ang^3
#
#
#
# Elastic Constant Matrix: (Units=GPa)
#
#
# Indices 1 2 3 4 5 6 
#
# 1 103.0837 20.9397 38.3522 0.0000 0.0000 0.0000
# 2 20.9397 73.4323 37.2147 0.0000 0.0000 0.0000
# 3 38.3522 37.2147 83.6136 0.0000 0.0000 0.0000
# 4 0.0000 0.0000 0.0000 12.7294 0.0000 0.0000
# 5 0.0000 0.0000 0.0000 0.0000 22.5178 0.0000
# 6 0.0000 0.0000 0.0000 0.0000 0.0000 35.3501
#
#
#
# Elastic Compliance Matrix: (Units=1/GPa)
#
#
# Indices 1 2 3 4 5 6 
#
# 1 0.011733 -0.000798 -0.005026 0.000000 0.000000 0.000000
# 2 -0.000798 0.017639 -0.007484 0.000000 0.000000 0.000000
# 3 -0.005026 -0.007484 0.017596 0.000000 0.000000 0.000000
# 4 0.000000 0.000000 0.000000 0.078558 0.000000 0.000000
# 5 0.000000 0.000000 0.000000 0.000000 0.044409 0.000000
# 6 0.000000 0.000000 0.000000 0.000000 0.000000 0.028288
#
#
# Mechanical properties :
#
#
# Convention : Reuss Voigt Hill
#
# Bulk Modulus (GPa) = 49.14062 50.34921 49.74491
# Shear Modulus (GPa) = 21.58653 25.02767 23.30710
#
# Velocity S-wave (km/s) = 3.44626 3.71079 3.58097
# Velocity P-wave (km/s) = 6.54769 6.78687 6.66835
#
# Compressibility (1/GPa) = 0.02034976
#
# Stress axis : x y z
#
# Youngs Moduli (GPa) = 85.22882 56.69359 56.82953
#
# Poissons Ratio (x) = 0.04527 0.28565
# Poissons Ratio (y) = 0.06805 0.42533
# Poissons Ratio (z) = 0.42840 0.42432
#
# Static dielectric constant tensor:
#      x y z
#    x 1.680540 0.000000 0.000000 
#    y 0.000000 1.681300 0.000000 
#    z 0.000000 0.000000 1.607820 
# 
# From -- ./inp_files/62599.got.cif
#   From: 2010.05.17/outbox.cif.g08.bks.cpg/sg66_32_cif.got.tgz:62599.got - 2010.06.03 17:51:23.
