data_PCOD9495530
_publ_section_title
;
Structure prediction by ZEFSAII (Michael W. Deem and Ramdas Pophale) SiO2 
 PCOD9495530
Probable space group: C C C M
;
_chemical_formula_sum "Si O2"
_cell_formula_units_Z 68
_cell_length_a 16.779892
_cell_length_b 5.451408
_cell_length_c 32.152814
_cell_angle_alpha 90.000000
_cell_angle_beta 90.000000
_cell_angle_gamma 90.000000
_cell_volume 2941.147713
_symmetry_space_group_name_H-M "C C C M"
_symmetry_group_IT_number 66
_symmetry_cell_setting 'orthorhombic'
loop_
_space_group_symop_operation_xyz
x,y,z
-x,-y,z
x,-y,1/2-z
-x,y,1/2-z
-x,-y,-z
x,y,-z
-x,y,1/2+z
x,-y,1/2+z
1/2+x,1/2+y,z
1/2-x,1/2-y,z
1/2+x,1/2-y,1/2-z
1/2-x,1/2+y,1/2-z
1/2-x,1/2-y,-z
1/2+x,1/2+y,-z
1/2-x,1/2+y,1/2+z
1/2+x,1/2-y,1/2+z
loop_
_atom_site_type_symbol
_atom_site_label
_atom_site_fract_x
_atom_site_fract_y
_atom_site_fract_z
Si Si1 0.171332 0.003334 0.831243
Si Si2 0.150955 0.498365 0.298407
Si Si3 0.750000 0.750000 0.500000
Si Si4 0.833468 0.978447 0.074223
Si Si5 0.593669 0.962979 0.547055
O O1 0.125834 0.753283 0.820519
O O2 0.252403 0.000848 0.804100
O O3 0.198590 0.014312 0.879037
O O4 0.124310 0.250148 0.820096
O O5 0.130825 0.500000 0.250000
O O6 0.773069 0.952548 0.462143
O O7 0.892775 0.212153 0.071669
O O8 0.872495 0.715302 0.065195
O O9 0.629218 0.908380 0.500000
O O10 0.500000 0.000000 0.542656
#
# Coordination Sequence:
#
# PCOD9495530 Si02
#       5
#    16  16   4  16  16
#     4  10  19  31  49  79 113 147 184 240 268 338
#     4  10  18  33  52  77 116 163 190 215 277 359
#     4  12  24  38  54  86 128 166 184 224 300 390
#     4  12  24  38  58  89 120 157 196 237 309 349
#     4  11  23  44  63  79 105 155 220 261 283 328
#
# _framework density 23.120225999999999
#
# number of rings (size 3 to 8) (size 9 to 14) (size 15 to 20)
#    0.000    1.176    2.353    7.059    0.000    5.647 
#    0.000    0.000    0.000    0.000    0.000    0.000 
#    0.000  109.176    0.000    0.000    0.000    0.000 
#
# Total GULP energy -189689.336046 kJ/mol
# GULP energy per Si atom -5579.098119 kJ/mol
# Density = 2.306760 g / cm^3
# Si number density = 23.120226 Si / 1000 Ang^3
#
#
#
# Elastic Constant Matrix: (Units=GPa)
#
#
# Indices 1 2 3 4 5 6 
#
# 1 34.4897 22.3403 7.4828 0.0000 0.0000 0.0000
# 2 22.3403 255.2324 52.4267 0.0000 0.0000 0.0000
# 3 7.4828 52.4267 174.9554 0.0000 0.0000 0.0000
# 4 0.0000 0.0000 0.0000 72.1235 0.0000 0.0000
# 5 0.0000 0.0000 0.0000 0.0000 -4.5426 0.0000
# 6 0.0000 0.0000 0.0000 0.0000 0.0000 21.9720
#
#
#
# Elastic Compliance Matrix: (Units=1/GPa)
#
#
# Indices 1 2 3 4 5 6 
#
# 1 0.030785 -0.002583 -0.000543 0.000000 0.000000 0.000000
# 2 -0.002583 0.004392 -0.001206 0.000000 0.000000 0.000000
# 3 -0.000543 -0.001206 0.006100 0.000000 0.000000 0.000000
# 4 0.000000 0.000000 0.000000 0.013865 0.000000 0.000000
# 5 0.000000 0.000000 0.000000 0.000000 -0.220139 0.000000
# 6 0.000000 0.000000 0.000000 0.000000 0.000000 0.045513
#
#
# Mechanical properties :
#
#
# Convention : Reuss Voigt Hill
#
# Bulk Modulus (GPa) = 30.66124 69.90856 50.28490
# Shear Modulus (GPa) = -50.02473 43.40576 -3.30949
#
# Velocity S-wave (km/s) = -4.65658 4.33759 -1.19772
# Velocity P-wave (km/s) = 3.95237 7.44237 4.45913
#
# Compressibility (1/GPa) = 0.03261446
#
# Stress axis : x y z
#
# Youngs Moduli (GPa) = 32.48321 227.70100 163.92911
#
# Poissons Ratio (x) = 0.58818 0.08895
# Poissons Ratio (y) = 0.08391 0.19762
# Poissons Ratio (z) = 0.01763 0.27450
#
# Static dielectric constant tensor:
#      x y z
#    x 1.613520 0.000000 0.000000 
#    y 0.000000 1.986250 0.000000 
#    z 0.000000 0.000000 1.822120 
# 
# From -- ./inp_files/65519.got.cif
#   From: 2010.05.17/outbox.cif.g08.bks.cpg/sg66_33_cif.got.tgz:65519.got - 2010.06.03 17:51:23.
