data_PCOD9495135
_publ_section_title
;
Structure prediction by ZEFSAII (Michael W. Deem and Ramdas Pophale) SiO2 
 PCOD9495135
Probable space group: C C C M
;
_chemical_formula_sum "Si O2"
_cell_formula_units_Z 80
_cell_length_a 17.807662
_cell_length_b 9.840464
_cell_length_c 23.357832
_cell_angle_alpha 90.000000
_cell_angle_beta 90.000000
_cell_angle_gamma 90.000000
_cell_volume 4093.125033
_symmetry_space_group_name_H-M "C C C M"
_symmetry_group_IT_number 66
_symmetry_cell_setting 'orthorhombic'
loop_
_space_group_symop_operation_xyz
x,y,z
-x,-y,z
x,-y,1/2-z
-x,y,1/2-z
-x,-y,-z
x,y,-z
-x,y,1/2+z
x,-y,1/2+z
1/2+x,1/2+y,z
1/2-x,1/2-y,z
1/2+x,1/2-y,1/2-z
1/2-x,1/2+y,1/2-z
1/2-x,1/2-y,-z
1/2+x,1/2+y,-z
1/2-x,1/2+y,1/2+z
1/2+x,1/2-y,1/2+z
loop_
_atom_site_type_symbol
_atom_site_label
_atom_site_fract_x
_atom_site_fract_y
_atom_site_fract_z
Si Si1 0.136194 0.065006 0.174479
Si Si2 0.750000 0.750000 0.243242
Si Si3 0.448153 0.874342 0.065532
Si Si4 0.057972 0.118223 0.935443
Si Si5 0.126273 0.737663 0.828324
Si Si6 0.500000 0.686439 0.750000
O O1 0.205036 0.140055 0.205455
O O2 0.122353 0.123308 0.111352
O O3 0.062122 0.106094 0.211837
O O4 0.141092 0.901559 0.168529
O O5 0.810168 0.682059 0.286211
O O6 0.506500 0.750146 0.064143
O O7 0.383880 0.833548 0.110642
O O8 0.500000 0.000000 0.083655
O O9 0.421198 0.897532 0.000000
O O10 0.084536 0.089816 0.000000
O O11 0.000000 0.000000 0.917837
O O12 0.047377 0.727501 0.795301
#
# Coordination Sequence:
#
# PCOD9495135 Si02
#       6
#    16   8  16  16  16   8
#     4  11  19  36  59  87 117 157 203 259 300 361
#     4  10  24  36  52  84 126 166 210 244 300 356
#     4  10  21  38  61  94 126 153 195 257 317 371
#     4  10  18  33  64  97 115 144 201 260 310 366
#     4  11  20  38  58  86 118 165 199 251 305 368
#     4  10  17  30  61  88 111 148 203 250 307 358
#
# _framework density 19.544967
#
# number of rings (size 3 to 8) (size 9 to 14) (size 15 to 20)
#    0.000    1.600    4.000    3.600    0.000    0.000 
#    7.200    1.500    0.000    0.000    0.000    0.000 
#    0.000    0.000    0.000    0.000    0.000    0.000 
#
# Total GULP energy -223142.892254 kJ/mol
# GULP energy per Si atom -5578.572306 kJ/mol
# Density = 1.950048 g / cm^3
# Si number density = 19.544967 Si / 1000 Ang^3
#
#
#
# Elastic Constant Matrix: (Units=GPa)
#
#
# Indices 1 2 3 4 5 6 
#
# 1 96.7427 29.7689 55.1613 0.0000 0.0000 0.0000
# 2 29.7689 70.9619 18.3899 0.0000 0.0000 0.0000
# 3 55.1613 18.3899 142.6803 0.0000 0.0000 0.0000
# 4 0.0000 0.0000 0.0000 19.0464 0.0000 0.0000
# 5 0.0000 0.0000 0.0000 0.0000 45.5097 0.0000
# 6 0.0000 0.0000 0.0000 0.0000 0.0000 17.5640
#
#
#
# Elastic Compliance Matrix: (Units=1/GPa)
#
#
# Indices 1 2 3 4 5 6 
#
# 1 0.014721 -0.004863 -0.005064 0.000000 0.000000 0.000000
# 2 -0.004863 0.016186 -0.000206 0.000000 0.000000 0.000000
# 3 -0.005064 -0.000206 0.008993 0.000000 0.000000 0.000000
# 4 0.000000 0.000000 0.000000 0.052503 0.000000 0.000000
# 5 0.000000 0.000000 0.000000 0.000000 0.021973 0.000000
# 6 0.000000 0.000000 0.000000 0.000000 0.000000 0.056935
#
#
# Mechanical properties :
#
#
# Convention : Reuss Voigt Hill
#
# Bulk Modulus (GPa) = 50.93573 57.44722 54.19147
# Shear Modulus (GPa) = 25.23702 30.22835 27.73269
#
# Velocity S-wave (km/s) = 3.59727 3.93696 3.77094
# Velocity P-wave (km/s) = 6.58568 7.07971 6.83716
#
# Compressibility (1/GPa) = 0.01963258
#
# Stress axis : x y z
#
# Youngs Moduli (GPa) = 67.93143 61.78363 111.19563
#
# Poissons Ratio (x) = 0.30045 0.56314
# Poissons Ratio (y) = 0.33035 0.02291
# Poissons Ratio (z) = 0.34403 0.01273
#
# Static dielectric constant tensor:
#      x y z
#    x 1.686010 0.000000 0.000000 
#    y 0.000000 1.660440 0.000000 
#    z 0.000000 0.000000 1.752430 
# 
# From -- ./inp_files/65127.got.cif
#   From: 2010.05.17/outbox.cif.g08.bks.cpg/sg66_33_cif.got.tgz:65127.got - 2010.06.03 17:51:23.
