data_PCOD9495459
_publ_section_title
;
Structure prediction by ZEFSAII (Michael W. Deem and Ramdas Pophale) SiO2 
 PCOD9495459
Probable space group: C C C M
;
_chemical_formula_sum "Si O2"
_cell_formula_units_Z 116
_cell_length_a 12.628682
_cell_length_b 21.250658
_cell_length_c 16.983106
_cell_angle_alpha 90.000000
_cell_angle_beta 90.000000
_cell_angle_gamma 90.000000
_cell_volume 4557.718831
_symmetry_space_group_name_H-M "C C C M"
_symmetry_group_IT_number 66
_symmetry_cell_setting 'orthorhombic'
loop_
_space_group_symop_operation_xyz
x,y,z
-x,-y,z
x,-y,1/2-z
-x,y,1/2-z
-x,-y,-z
x,y,-z
-x,y,1/2+z
x,-y,1/2+z
1/2+x,1/2+y,z
1/2-x,1/2-y,z
1/2+x,1/2-y,1/2-z
1/2-x,1/2+y,1/2-z
1/2-x,1/2-y,-z
1/2+x,1/2+y,-z
1/2-x,1/2+y,1/2+z
1/2+x,1/2-y,1/2+z
loop_
_atom_site_type_symbol
_atom_site_label
_atom_site_fract_x
_atom_site_fract_y
_atom_site_fract_z
Si Si1 0.404500 0.257734 0.358299
Si Si2 0.750000 0.750000 0.500000
Si Si3 0.063190 0.618643 0.911565
Si Si4 0.663093 0.572396 0.754806
Si Si5 0.286153 0.438394 0.412728
Si Si6 0.366722 0.247649 0.181633
Si Si7 0.399663 0.901467 0.695703
Si Si8 0.586729 0.556679 0.087177
O O1 0.329656 0.276791 0.429619
O O2 0.404956 0.180793 0.362844
O O3 0.366403 0.276313 0.270348
O O4 0.529906 0.272096 0.363866
O O5 0.162039 0.572951 0.904056
O O6 0.952544 0.587005 0.889147
O O7 0.060486 0.643402 0.000000
O O8 0.627323 0.500000 0.750000
O O9 0.656971 0.592964 0.663137
O O10 0.787800 0.573505 0.776190
O O11 0.599320 0.596145 0.831945
O O12 0.317993 0.415427 0.500000
O O13 0.308891 0.512650 0.412684
O O14 0.250000 0.250000 0.145165
O O15 0.385329 0.173622 0.194226
O O16 0.500000 0.919417 0.750000
O O17 0.500000 0.500000 0.091177
O O18 0.576613 0.586643 0.000000
#
# Coordination Sequence:
#
# PCOD9495459 Si02
#       8
#    16   4  16  16  16  16  16  16
#     4  10  19  32  56  85 110 149 193 239 299 353
#     4  12  20  32  58  88 112 138 208 246 274 374
#     4  10  18  32  52  77 108 143 186 231 288 350
#     4  10  20  33  54  80 110 149 187 233 282 336
#     4   9  17  30  50  76 102 137 184 230 274 329
#     4  10  19  36  59  81 115 158 192 240 300 367
#     4  11  19  34  55  82 112 146 194 229 290 359
#     4   9  19  36  56  75 105 148 194 236 283 344
#
# _framework density 25.451329000000001
#
# number of rings (size 3 to 8) (size 9 to 14) (size 15 to 20)
#    0.000    2.069    5.517    0.000    0.000    3.310 
#    0.000    0.345    3.034    5.793    0.000    0.000 
#    0.000    0.000    0.000    0.000    0.000    0.000 
#
# Total GULP energy -322971.825784 kJ/mol
# GULP energy per Si atom -5568.479755 kJ/mol
# Density = 2.539340 g / cm^3
# Si number density = 25.451329 Si / 1000 Ang^3
#
#
#
# Elastic Constant Matrix: (Units=GPa)
#
#
# Indices 1 2 3 4 5 6 
#
# 1 120.1572 11.7186 49.3959 0.0000 0.0000 0.0000
# 2 11.7186 48.7636 3.6814 0.0000 0.0000 0.0000
# 3 49.3959 3.6814 212.4382 0.0000 0.0000 0.0000
# 4 0.0000 0.0000 0.0000 22.4231 0.0000 0.0000
# 5 0.0000 0.0000 0.0000 0.0000 33.9225 0.0000
# 6 0.0000 0.0000 0.0000 0.0000 0.0000 -0.7773
#
#
#
# Elastic Compliance Matrix: (Units=1/GPa)
#
#
# Indices 1 2 3 4 5 6 
#
# 1 0.009412 -0.002099 -0.002152 0.000000 0.000000 0.000000
# 2 -0.002099 0.021002 0.000124 0.000000 0.000000 0.000000
# 3 -0.002152 0.000124 0.005205 0.000000 0.000000 0.000000
# 4 0.000000 0.000000 0.000000 0.044597 0.000000 0.000000
# 5 0.000000 0.000000 0.000000 0.000000 0.029479 0.000000
# 6 0.000000 0.000000 0.000000 0.000000 0.000000 -1.286429
#
#
# Mechanical properties :
#
#
# Convention : Reuss Voigt Hill
#
# Bulk Modulus (GPa) = 36.54285 56.77233 46.65759
# Shear Modulus (GPa) = -4.31273 32.21784 13.95255
#
# Velocity S-wave (km/s) = -1.30314 3.56175 2.34392
# Velocity P-wave (km/s) = 3.48208 6.26653 5.06924
#
# Compressibility (1/GPa) = 0.02736514
#
# Stress axis : x y z
#
# Youngs Moduli (GPa) = 106.24872 47.61403 192.10467
#
# Poissons Ratio (x) = 0.09996 0.41342
# Poissons Ratio (y) = 0.22305 -0.02386
# Poissons Ratio (z) = 0.22865 -0.00591
#
# Static dielectric constant tensor:
#      x y z
#    x 2.075890 0.000000 0.000000 
#    y 0.000000 2.053780 0.000000 
#    z 0.000000 0.000000 2.063050 
# 
# From -- ./inp_files/39224.got.cif
#   From: 2010.05.17/outbox.cif.g08.bks.cpg/sg66_20_cif.got.tgz:39224.got - 2010.06.03 17:51:23.
