data_PCOD9495421
_publ_section_title
;
Structure prediction by ZEFSAII (Michael W. Deem and Ramdas Pophale) SiO2 
 PCOD9495421
Probable space group: C C C M
;
_chemical_formula_sum "Si O2"
_cell_formula_units_Z 64
_cell_length_a 23.110962
_cell_length_b 22.903450
_cell_length_c 7.506940
_cell_angle_alpha 90.000000
_cell_angle_beta 90.000000
_cell_angle_gamma 90.000000
_cell_volume 3973.579206
_symmetry_space_group_name_H-M "C C C M"
_symmetry_group_IT_number 66
_symmetry_cell_setting 'orthorhombic'
loop_
_space_group_symop_operation_xyz
x,y,z
-x,-y,z
x,-y,1/2-z
-x,y,1/2-z
-x,-y,-z
x,y,-z
-x,y,1/2+z
x,-y,1/2+z
1/2+x,1/2+y,z
1/2-x,1/2-y,z
1/2+x,1/2-y,1/2-z
1/2-x,1/2+y,1/2-z
1/2-x,1/2-y,-z
1/2+x,1/2+y,-z
1/2-x,1/2+y,1/2+z
1/2+x,1/2-y,1/2+z
loop_
_atom_site_type_symbol
_atom_site_label
_atom_site_fract_x
_atom_site_fract_y
_atom_site_fract_z
Si Si1 0.734958 0.153087 0.500000
Si Si2 0.845462 0.768273 0.000000
Si Si3 0.936462 0.399865 0.211544
Si Si4 0.810922 0.434643 0.788168
Si Si5 0.434899 0.235854 0.711479
O O1 0.798836 0.180218 0.500000
O O2 0.690816 0.207764 0.500000
O O3 0.722349 0.113218 0.672298
O O4 0.886910 0.767977 0.827761
O O5 0.878429 0.431197 0.274517
O O6 0.934519 0.332348 0.273131
O O7 0.000000 0.424745 0.250000
O O8 0.932575 0.398112 0.000000
O O9 0.789903 0.500000 0.750000
O O10 0.807829 0.422949 0.000000
O O11 0.500000 0.257275 0.750000
O O12 0.423725 0.237984 0.500000
#
# Coordination Sequence:
#
# PCOD9495421 Si02
#       5
#     8   8  16  16  16
#     4  11  24  38  54  78 112 148 188 221 270 325
#     4  11  22  36  56  81 113 149 177 223 274 327
#     4   9  19  29  46  73 103 139 184 227 264 303
#     4  11  22  37  55  75 103 145 191 232 267 312
#     4  10  18  31  53  80 110 143 179 219 268 322
#
# _framework density 16.106383999999998
#
# number of rings (size 3 to 8) (size 9 to 14) (size 15 to 20)
#    0.000    1.750    5.000    0.000    3.500    1.500 
#    0.000    5.000    0.000    0.000    0.000    0.000 
#    0.000    3.000    0.000    0.000    0.000    0.000 
#
# Total GULP energy -178523.922159 kJ/mol
# GULP energy per Si atom -5578.872567 kJ/mol
# Density = 1.606973 g / cm^3
# Si number density = 16.106384 Si / 1000 Ang^3
#
#
#
# Elastic Constant Matrix: (Units=GPa)
#
#
# Indices 1 2 3 4 5 6 
#
# 1 110.3585 55.7424 48.2617 0.0000 0.0000 0.0000
# 2 55.7424 77.6386 38.1046 0.0000 0.0000 0.0000
# 3 48.2617 38.1046 112.2521 0.0000 0.0000 0.0000
# 4 0.0000 0.0000 0.0000 -3.1873 0.0000 0.0000
# 5 0.0000 0.0000 0.0000 0.0000 21.5935 0.0000
# 6 0.0000 0.0000 0.0000 0.0000 0.0000 19.7796
#
#
#
# Elastic Compliance Matrix: (Units=1/GPa)
#
#
# Indices 1 2 3 4 5 6 
#
# 1 0.015229 -0.009264 -0.003403 0.000000 0.000000 0.000000
# 2 -0.009264 0.021090 -0.003176 0.000000 0.000000 0.000000
# 3 -0.003403 -0.003176 0.011450 0.000000 0.000000 0.000000
# 4 0.000000 0.000000 0.000000 -0.313748 0.000000 0.000000
# 5 0.000000 0.000000 0.000000 0.000000 0.046310 0.000000
# 6 0.000000 0.000000 0.000000 0.000000 0.000000 0.050557
#
#
# Mechanical properties :
#
#
# Convention : Reuss Voigt Hill
#
# Bulk Modulus (GPa) = 62.17777 64.94075 63.55926
# Shear Modulus (GPa) = -37.86004 18.17986 -9.84009
#
# Velocity S-wave (km/s) = -4.85358 3.36331 -2.47441
# Velocity P-wave (km/s) = 2.69788 7.44915 5.60216
#
# Compressibility (1/GPa) = 0.01608292
#
# Stress axis : x y z
#
# Youngs Moduli (GPa) = 65.66603 47.41542 87.33815
#
# Poissons Ratio (x) = 0.43924 0.29719
# Poissons Ratio (y) = 0.60831 0.27742
# Poissons Ratio (z) = 0.22345 0.15061
#
# Static dielectric constant tensor:
#      x y z
#    x 1.551480 0.000000 0.000000 
#    y 0.000000 1.526040 0.000000 
#    z 0.000000 0.000000 1.567410 
# 
# From -- ./inp_files/6201.got.cif
#   From: 2010.05.17/outbox.cif.g08.bks.cpg/sg66_4_cif.got.tgz:6201.got - 2010.06.03 17:51:23.
