data_PCOD9495493
_publ_section_title
;
Structure prediction by ZEFSAII (Michael W. Deem and Ramdas Pophale) SiO2 
 PCOD9495493
Probable space group: C C C M
;
_chemical_formula_sum "Si O2"
_cell_formula_units_Z 116
_cell_length_a 27.310970
_cell_length_b 27.455018
_cell_length_c 8.848549
_cell_angle_alpha 90.000000
_cell_angle_beta 90.000000
_cell_angle_gamma 90.000000
_cell_volume 6634.847087
_symmetry_space_group_name_H-M "C C C M"
_symmetry_group_IT_number 66
_symmetry_cell_setting 'orthorhombic'
loop_
_space_group_symop_operation_xyz
x,y,z
-x,-y,z
x,-y,1/2-z
-x,y,1/2-z
-x,-y,-z
x,y,-z
-x,y,1/2+z
x,-y,1/2+z
1/2+x,1/2+y,z
1/2-x,1/2-y,z
1/2+x,1/2-y,1/2-z
1/2-x,1/2+y,1/2-z
1/2-x,1/2-y,-z
1/2+x,1/2+y,-z
1/2-x,1/2+y,1/2+z
1/2+x,1/2-y,1/2+z
loop_
_atom_site_type_symbol
_atom_site_label
_atom_site_fract_x
_atom_site_fract_y
_atom_site_fract_z
Si Si1 0.155558 0.682190 0.817168
Si Si2 0.575646 0.582398 0.671815
Si Si3 0.000000 0.000000 0.750000
Si Si4 0.424688 0.681419 0.321753
Si Si5 0.178895 0.947803 0.320005
Si Si6 0.049939 0.714411 0.181234
Si Si7 0.826262 0.792234 0.676469
Si Si8 0.753522 0.627467 0.322555
O O1 0.098765 0.685004 0.771109
O O2 0.176463 0.735814 0.779250
O O3 0.192119 0.640059 0.763925
O O4 0.156469 0.678938 0.000000
O O5 0.587471 0.595938 0.500000
O O6 0.537234 0.537868 0.670778
O O7 0.556309 0.630490 0.756246
O O8 0.625745 0.566659 0.753614
O O9 0.433109 0.684381 0.500000
O O10 0.444192 0.730137 0.241171
O O11 0.366892 0.682547 0.280633
O O12 0.175328 0.950022 0.500000
O O13 0.220804 0.910420 0.268377
O O14 0.191100 0.000000 0.250000
O O15 0.000000 0.694311 0.250000
O O16 0.047831 0.715480 0.000000
O O17 0.843192 0.793731 0.500000
O O18 0.776311 0.821688 0.683034
O O19 0.755170 0.612730 0.500000
#
# Coordination Sequence:
#
# PCOD9495493 Si02
#       8
#    16  16   4  16  16  16  16  16
#     4   8  16  30  51  80 109 142 181 217 257 320
#     4  12  25  43  61  77 100 131 174 231 287 334
#     4  12  30  44  64  78  98 124 186 236 296 328
#     4  11  22  35  53  76 104 137 177 221 271 328
#     4  12  25  41  60  81 106 138 179 223 276 332
#     4  10  20  36  55  77 108 145 185 222 262 311
#     4   9  16  29  51  77 107 140 175 213 259 317
#     4  10  18  32  56  81 108 141 176 217 270 323
#
# _framework density 17.483447000000002
#
# number of rings (size 3 to 8) (size 9 to 14) (size 15 to 20)
#    0.000    1.655    2.069    4.759    0.966    3.310 
#    0.000    3.448    0.000    4.138    0.000    0.000 
#    0.000    0.552    0.000    6.345    0.000    1.931 
#
# Total GULP energy -323686.643156 kJ/mol
# GULP energy per Si atom -5580.804192 kJ/mol
# Density = 1.744365 g / cm^3
# Si number density = 17.483447 Si / 1000 Ang^3
#
#
#
# Elastic Constant Matrix: (Units=GPa)
#
#
# Indices 1 2 3 4 5 6 
#
# 1 124.2026 54.5180 43.0048 0.0000 0.0000 0.0000
# 2 54.5180 56.6876 24.6465 0.0000 0.0000 0.0000
# 3 43.0048 24.6465 94.8540 0.0000 0.0000 0.0000
# 4 0.0000 0.0000 0.0000 -41.8335 0.0000 0.0000
# 5 0.0000 0.0000 0.0000 0.0000 20.0636 0.0000
# 6 0.0000 0.0000 0.0000 0.0000 0.0000 9.0231
#
#
#
# Elastic Compliance Matrix: (Units=1/GPa)
#
#
# Indices 1 2 3 4 5 6 
#
# 1 0.014849 -0.012800 -0.003406 0.000000 0.000000 0.000000
# 2 -0.012800 0.030921 -0.002231 0.000000 0.000000 0.000000
# 3 -0.003406 -0.002231 0.012667 0.000000 0.000000 0.000000
# 4 0.000000 0.000000 0.000000 -0.023904 0.000000 0.000000
# 5 0.000000 0.000000 0.000000 0.000000 0.049842 0.000000
# 6 0.000000 0.000000 0.000000 0.000000 0.000000 0.110827
#
#
# Mechanical properties :
#
#
# Convention : Reuss Voigt Hill
#
# Bulk Modulus (GPa) = 46.37870 57.78696 52.08283
# Shear Modulus (GPa) = 20.89752 7.68895 14.29324
#
# Velocity S-wave (km/s) = 3.46102 2.09938 2.86235
# Velocity P-wave (km/s) = 6.52353 6.24505 6.38581
#
# Compressibility (1/GPa) = 0.02156162
#
# Stress axis : x y z
#
# Youngs Moduli (GPa) = 67.34328 32.34088 78.94741
#
# Poissons Ratio (x) = 0.41396 0.26893
# Poissons Ratio (y) = 0.86199 0.17614
# Poissons Ratio (z) = 0.22940 0.07216
#
# Static dielectric constant tensor:
#      x y z
#    x 1.646170 0.000000 0.000000 
#    y 0.000000 1.620670 0.000000 
#    z 0.000000 0.000000 1.595900 
# 
# From -- ./inp_files/10918.got.cif
#   From: 2010.05.17/outbox.cif.g08.bks.cpg/sg66_6_cif.got.tgz:10918.got - 2010.06.03 17:51:23.
