data_PCOD9495428
_publ_section_title
;
Structure prediction by ZEFSAII (Michael W. Deem and Ramdas Pophale) SiO2 
 PCOD9495428
Probable space group: C C C M
;
_chemical_formula_sum "Si O2"
_cell_formula_units_Z 72
_cell_length_a 22.497239
_cell_length_b 8.058523
_cell_length_c 19.322363
_cell_angle_alpha 90.000000
_cell_angle_beta 90.000000
_cell_angle_gamma 90.000000
_cell_volume 3503.038485
_symmetry_space_group_name_H-M "C C C M"
_symmetry_group_IT_number 66
_symmetry_cell_setting 'orthorhombic'
loop_
_space_group_symop_operation_xyz
x,y,z
-x,-y,z
x,-y,1/2-z
-x,y,1/2-z
-x,-y,-z
x,y,-z
-x,y,1/2+z
x,-y,1/2+z
1/2+x,1/2+y,z
1/2-x,1/2-y,z
1/2+x,1/2-y,1/2-z
1/2-x,1/2+y,1/2-z
1/2-x,1/2-y,-z
1/2+x,1/2+y,-z
1/2-x,1/2+y,1/2+z
1/2+x,1/2-y,1/2+z
loop_
_atom_site_type_symbol
_atom_site_label
_atom_site_fract_x
_atom_site_fract_y
_atom_site_fract_z
Si Si1 0.730338 0.440487 0.671523
Si Si2 0.632749 0.581868 0.424983
Si Si3 0.541624 0.839863 0.083306
Si Si4 0.000000 0.000000 0.106654
Si Si5 0.339211 0.966291 0.080052
O O1 0.727432 0.500000 0.750000
O O2 0.750000 0.250000 0.669311
O O3 0.669043 0.484616 0.633091
O O4 0.782741 0.529283 0.629212
O O5 0.659474 0.539666 0.500000
O O6 0.563560 0.539762 0.426388
O O7 0.636399 0.779355 0.415598
O O8 0.518464 0.687891 0.130803
O O9 0.500000 0.000000 0.092097
O O10 0.608766 0.902007 0.097343
O O11 0.537836 0.795503 0.000000
O O12 0.322229 0.997117 0.000000
#
# Coordination Sequence:
#
# PCOD9495428 Si02
#       5
#    16  16  16   8  16
#     4  12  26  44  64  87 121 166 215 265 318 376
#     4  11  22  38  64  96 129 164 206 257 314 377
#     4  10  18  31  53  87 128 162 198 249 306 364
#     4  12  21  34  59  94 131 168 207 252 315 380
#     4  10  21  39  64  95 129 163 205 260 317 372
#
# _framework density 20.553585000000002
#
# number of rings (size 3 to 8) (size 9 to 14) (size 15 to 20)
#    0.000    1.111    2.222    6.000    0.000    5.333 
#    0.000    0.556    0.000    0.667    0.000    0.000 
#    0.000    0.000    0.000    0.000    0.000    0.000 
#
# Total GULP energy -200695.658741 kJ/mol
# GULP energy per Si atom -5574.879409 kJ/mol
# Density = 2.050680 g / cm^3
# Si number density = 20.553585 Si / 1000 Ang^3
#
#
#
# Elastic Constant Matrix: (Units=GPa)
#
#
# Indices 1 2 3 4 5 6 
#
# 1 140.2398 38.1422 60.8774 0.0000 0.0000 0.0000
# 2 38.1422 113.5699 39.8999 0.0000 0.0000 0.0000
# 3 60.8774 39.8999 81.8485 0.0000 0.0000 0.0000
# 4 0.0000 0.0000 0.0000 59.3339 0.0000 0.0000
# 5 0.0000 0.0000 0.0000 0.0000 -7.4812 0.0000
# 6 0.0000 0.0000 0.0000 0.0000 0.0000 46.3141
#
#
#
# Elastic Compliance Matrix: (Units=1/GPa)
#
#
# Indices 1 2 3 4 5 6 
#
# 1 0.010616 -0.000955 -0.007430 0.000000 0.000000 0.000000
# 2 -0.000955 0.010711 -0.004511 0.000000 0.000000 0.000000
# 3 -0.007430 -0.004511 0.019943 0.000000 0.000000 0.000000
# 4 0.000000 0.000000 0.000000 0.016854 0.000000 0.000000
# 5 0.000000 0.000000 0.000000 0.000000 -0.133668 0.000000
# 6 0.000000 0.000000 0.000000 0.000000 0.000000 0.021592
#
#
# Mechanical properties :
#
#
# Convention : Reuss Voigt Hill
#
# Bulk Modulus (GPa) = 64.61102 68.16636 66.38869
# Shear Modulus (GPa) = -217.38115 32.74927 -92.31594
#
# Velocity S-wave (km/s) = -10.29528 3.99602 -6.70912
# Velocity P-wave (km/s) = 10.47950 7.38432 5.25794
#
# Compressibility (1/GPa) = 0.01547724
#
# Stress axis : x y z
#
# Youngs Moduli (GPa) = 94.19884 93.36468 50.14188
#
# Poissons Ratio (x) = 0.08915 0.37257
# Poissons Ratio (y) = 0.08994 0.22620
# Poissons Ratio (z) = 0.69994 0.42118
#
# Static dielectric constant tensor:
#      x y z
#    x 1.704620 0.000000 0.000000 
#    y 0.000000 1.825080 0.000000 
#    z 0.000000 0.000000 1.691920 
# 
# From -- ./inp_files/51620.got.cif
#   From: 2010.05.17/outbox.cif.g08.bks.cpg/sg66_26_cif.got.tgz:51620.got - 2010.06.03 17:51:23.
