data_PCOD9495032
_publ_section_title
;
Structure prediction by ZEFSAII (Michael W. Deem and Ramdas Pophale) SiO2 
 PCOD9495032
Probable space group: C C C M
;
_chemical_formula_sum "Si O2"
_cell_formula_units_Z 80
_cell_length_a 28.977648
_cell_length_b 18.154499
_cell_length_c 8.749972
_cell_angle_alpha 90.000000
_cell_angle_beta 90.000000
_cell_angle_gamma 90.000000
_cell_volume 4603.138734
_symmetry_space_group_name_H-M "C C C M"
_symmetry_group_IT_number 66
_symmetry_cell_setting 'orthorhombic'
loop_
_space_group_symop_operation_xyz
x,y,z
-x,-y,z
x,-y,1/2-z
-x,y,1/2-z
-x,-y,-z
x,y,-z
-x,y,1/2+z
x,-y,1/2+z
1/2+x,1/2+y,z
1/2-x,1/2-y,z
1/2+x,1/2-y,1/2-z
1/2-x,1/2+y,1/2-z
1/2-x,1/2-y,-z
1/2+x,1/2+y,-z
1/2-x,1/2+y,1/2+z
1/2+x,1/2-y,1/2+z
loop_
_atom_site_type_symbol
_atom_site_label
_atom_site_fract_x
_atom_site_fract_y
_atom_site_fract_z
Si Si1 0.447826 0.074417 0.683228
Si Si2 0.050917 0.729234 0.316698
Si Si3 0.643515 0.701587 0.815642
Si Si4 0.288155 0.581086 0.818993
Si Si5 0.214212 0.681441 0.326079
O O1 0.500000 0.074072 0.750000
O O2 0.448615 0.072215 0.500000
O O3 0.430688 0.152508 0.745383
O O4 0.425256 0.000000 0.750000
O O5 0.047458 0.720609 0.500000
O O6 0.089381 0.790788 0.282245
O O7 0.000000 0.744056 0.250000
O O8 0.671036 0.633939 0.743326
O O9 0.668582 0.777948 0.766575
O O10 0.649353 0.697512 0.000000
O O11 0.291846 0.500000 0.750000
O O12 0.239877 0.619043 0.768951
O O13 0.290771 0.577898 0.000000
O O14 0.206826 0.655215 0.500000
O O15 0.250000 0.750000 0.332076
#
# Coordination Sequence:
#
# PCOD9495032 Si02
#       5
#    16  16  16  16  16
#     4  10  17  27  43  63  88 119 158 202 248 294
#     4  10  19  32  50  73 101 135 175 216 258 301
#     4   9  19  35  54  75 103 137 170 208 254 302
#     4  11  21  33  53  79 106 134 167 206 251 304
#     4   8  15  31  52  73  99 129 160 197 245 298
#
# _framework density 17.379446000000002
#
# number of rings (size 3 to 8) (size 9 to 14) (size 15 to 20)
#    0.000    2.400    0.000    7.200    0.000    5.200 
#    0.000    1.000    0.000    0.600    0.000    4.200 
#    0.000    0.000    0.000    0.000    0.000    0.000 
#
# Total GULP energy -222842.169192 kJ/mol
# GULP energy per Si atom -5571.054230 kJ/mol
# Density = 1.733989 g / cm^3
# Si number density = 17.379446 Si / 1000 Ang^3
#
#
#
# Elastic Constant Matrix: (Units=GPa)
#
#
# Indices 1 2 3 4 5 6 
#
# 1 94.7599 54.8282 40.6830 0.0000 0.0000 0.0000
# 2 54.8282 116.6603 60.4879 0.0000 0.0000 0.0000
# 3 40.6830 60.4879 107.4359 0.0000 0.0000 0.0000
# 4 0.0000 0.0000 0.0000 43.2443 0.0000 0.0000
# 5 0.0000 0.0000 0.0000 0.0000 12.1735 0.0000
# 6 0.0000 0.0000 0.0000 0.0000 0.0000 19.3222
#
#
#
# Elastic Compliance Matrix: (Units=1/GPa)
#
#
# Indices 1 2 3 4 5 6 
#
# 1 0.014921 -0.005767 -0.002404 0.000000 0.000000 0.000000
# 2 -0.005767 0.014334 -0.005887 0.000000 0.000000 0.000000
# 3 -0.002404 -0.005887 0.013532 0.000000 0.000000 0.000000
# 4 0.000000 0.000000 0.000000 0.023124 0.000000 0.000000
# 5 0.000000 0.000000 0.000000 0.000000 0.082145 0.000000
# 6 0.000000 0.000000 0.000000 0.000000 0.000000 0.051754
#
#
# Mechanical properties :
#
#
# Convention : Reuss Voigt Hill
#
# Bulk Modulus (GPa) = 68.14688 70.09493 69.12091
# Shear Modulus (GPa) = 21.47604 25.80514 23.64059
#
# Velocity S-wave (km/s) = 3.51909 3.85750 3.69217
# Velocity P-wave (km/s) = 7.47049 7.76274 7.61802
#
# Compressibility (1/GPa) = 0.01467419
#
# Stress axis : x y z
#
# Youngs Moduli (GPa) = 67.01744 69.76253 73.89644
#
# Poissons Ratio (x) = 0.40229 0.17763
# Poissons Ratio (y) = 0.38646 0.43501
# Poissons Ratio (z) = 0.16109 0.41068
#
# Static dielectric constant tensor:
#      x y z
#    x 1.630870 0.000000 0.000000 
#    y 0.000000 1.604570 0.000000 
#    z 0.000000 0.000000 1.584320 
# 
# From -- ./inp_files/6908.got.cif
#   From: 2010.05.17/outbox.cif.g08.bks.cpg/sg66_4_cif.got.tgz:6908.got - 2010.06.03 17:51:23.
