data_PCOD9495174
_publ_section_title
;
Structure prediction by ZEFSAII (Michael W. Deem and Ramdas Pophale) SiO2 
 PCOD9495174
Probable space group: C C C M
;
_chemical_formula_sum "Si O2"
_cell_formula_units_Z 128
_cell_length_a 25.585339
_cell_length_b 9.690343
_cell_length_c 23.671988
_cell_angle_alpha 90.000000
_cell_angle_beta 90.000000
_cell_angle_gamma 90.000000
_cell_volume 5869.012808
_symmetry_space_group_name_H-M "C C C M"
_symmetry_group_IT_number 66
_symmetry_cell_setting 'orthorhombic'
loop_
_space_group_symop_operation_xyz
x,y,z
-x,-y,z
x,-y,1/2-z
-x,y,1/2-z
-x,-y,-z
x,y,-z
-x,y,1/2+z
x,-y,1/2+z
1/2+x,1/2+y,z
1/2-x,1/2-y,z
1/2+x,1/2-y,1/2-z
1/2-x,1/2+y,1/2-z
1/2-x,1/2-y,-z
1/2+x,1/2+y,-z
1/2-x,1/2+y,1/2+z
1/2+x,1/2-y,1/2+z
loop_
_atom_site_type_symbol
_atom_site_label
_atom_site_fract_x
_atom_site_fract_y
_atom_site_fract_z
Si Si1 0.941922 0.510442 0.854560
Si Si2 0.053614 0.807874 0.827052
Si Si3 0.436349 0.299838 0.198410
Si Si4 0.153085 0.489911 0.562530
Si Si5 0.775232 0.047577 0.434261
Si Si6 0.825957 0.128924 0.671428
Si Si7 0.358363 0.691133 0.902382
Si Si8 0.805046 0.812861 0.707502
O O1 0.940380 0.358030 0.828985
O O2 0.939253 0.633993 0.809241
O O3 0.892459 0.538745 0.895282
O O4 0.000000 0.500000 0.883152
O O5 0.072222 0.845876 0.763519
O O6 0.084551 0.861188 0.882500
O O7 0.992454 0.844921 0.824926
O O8 0.387708 0.358912 0.164074
O O9 0.146533 0.551231 0.500000
O O10 0.214551 0.509756 0.578093
O O11 0.142662 0.325493 0.559872
O O12 0.778552 0.089708 0.500000
O O13 0.816089 0.919080 0.424899
O O14 0.796361 0.153423 0.386957
O O15 0.814925 0.219608 0.726955
O O16 0.809370 0.975694 0.692634
O O17 0.341293 0.748399 0.840531
O O18 0.750000 0.750000 0.693777
#
# Coordination Sequence:
#
# PCOD9495174 Si02
#       8
#    16  16  16  16  16  16  16  16
#     4   9  19  34  56  85 117 153 191 241 296 348
#     4   9  18  32  58  87 118 150 189 239 296 366
#     4  10  18  35  57  83 118 155 195 234 289 365
#     4  10  20  34  56  84 110 151 207 246 291 345
#     4  10  21  37  55  76 112 156 198 242 291 356
#     4  10  21  36  57  82 116 149 199 238 293 360
#     4  10  17  33  57  84 115 142 188 247 301 349
#     4  10  20  35  54  80 115 148 179 240 302 357
#
# _framework density 21.809460000000001
#
# number of rings (size 3 to 8) (size 9 to 14) (size 15 to 20)
#    0.000    2.250    1.250    2.625    0.000    3.750 
#    0.000    4.375    0.000    6.375    0.000    0.000 
#    0.000    0.000    0.000    0.000    0.000    0.000 
#
# Total GULP energy -356451.460429 kJ/mol
# GULP energy per Si atom -5569.554069 kJ/mol
# Density = 2.175982 g / cm^3
# Si number density = 21.809460 Si / 1000 Ang^3
#
#
#
# Elastic Constant Matrix: (Units=GPa)
#
#
# Indices 1 2 3 4 5 6 
#
# 1 151.2888 17.4299 54.4016 0.0000 0.0000 0.0000
# 2 17.4299 67.2738 0.8572 0.0000 0.0000 0.0000
# 3 54.4016 0.8572 132.1595 0.0000 0.0000 0.0000
# 4 0.0000 0.0000 0.0000 14.5412 0.0000 0.0000
# 5 0.0000 0.0000 0.0000 0.0000 29.0112 0.0000
# 6 0.0000 0.0000 0.0000 0.0000 0.0000 39.3571
#
#
#
# Elastic Compliance Matrix: (Units=1/GPa)
#
#
# Indices 1 2 3 4 5 6 
#
# 1 0.008028 -0.002038 -0.003292 0.000000 0.000000 0.000000
# 2 -0.002038 0.015383 0.000739 0.000000 0.000000 0.000000
# 3 -0.003292 0.000739 0.008917 0.000000 0.000000 0.000000
# 4 0.000000 0.000000 0.000000 0.068770 0.000000 0.000000
# 5 0.000000 0.000000 0.000000 0.000000 0.034469 0.000000
# 6 0.000000 0.000000 0.000000 0.000000 0.000000 0.025408
#
#
# Mechanical properties :
#
#
# Convention : Reuss Voigt Hill
#
# Bulk Modulus (GPa) = 43.20138 55.12214 49.16176
# Shear Modulus (GPa) = 28.10998 35.11746 31.61372
#
# Velocity S-wave (km/s) = 3.59401 4.01708 3.81142
# Velocity P-wave (km/s) = 6.08885 6.84435 6.47762
#
# Compressibility (1/GPa) = 0.02314741
#
# Stress axis : x y z
#
# Youngs Moduli (GPa) = 124.55991 65.00574 112.14885
#
# Poissons Ratio (x) = 0.13249 0.36914
# Poissons Ratio (y) = 0.25386 -0.08290
# Poissons Ratio (z) = 0.40999 -0.04805
#
# Static dielectric constant tensor:
#      x y z
#    x 1.178530 0.000000 0.000000 
#    y 0.000000 1.836880 0.000000 
#    z 0.000000 0.000000 1.731660 
# 
# From -- ./inp_files/66182.got.cif
#   From: 2010.05.17/outbox.cif.g08.bks.cpg/sg66_34_cif.got.tgz:66182.got - 2010.06.03 17:51:23.
