data_PCOD9495143
_publ_section_title
;
Structure prediction by ZEFSAII (Michael W. Deem and Ramdas Pophale) SiO2 
 PCOD9495143
Probable space group: C C C M
;
_chemical_formula_sum "Si O2"
_cell_formula_units_Z 52
_cell_length_a 21.789720
_cell_length_b 7.328672
_cell_length_c 17.704819
_cell_angle_alpha 90.000000
_cell_angle_beta 90.000000
_cell_angle_gamma 90.000000
_cell_volume 2827.277427
_symmetry_space_group_name_H-M "C C C M"
_symmetry_group_IT_number 66
_symmetry_cell_setting 'orthorhombic'
loop_
_space_group_symop_operation_xyz
x,y,z
-x,-y,z
x,-y,1/2-z
-x,y,1/2-z
-x,-y,-z
x,y,-z
-x,y,1/2+z
x,-y,1/2+z
1/2+x,1/2+y,z
1/2-x,1/2-y,z
1/2+x,1/2-y,1/2-z
1/2-x,1/2+y,1/2-z
1/2-x,1/2-y,-z
1/2+x,1/2+y,-z
1/2-x,1/2+y,1/2+z
1/2+x,1/2-y,1/2+z
loop_
_atom_site_type_symbol
_atom_site_label
_atom_site_fract_x
_atom_site_fract_y
_atom_site_fract_z
Si Si1 0.677342 0.214952 0.587506
Si Si2 0.000000 0.500000 0.250000
Si Si3 0.694039 0.874007 0.320438
Si Si4 0.592616 0.690999 0.218549
O O1 0.663298 0.243988 0.500000
O O2 0.750000 0.250000 0.599457
O O3 0.634130 0.329276 0.643555
O O4 0.669922 0.006364 0.614655
O O5 0.955981 0.644465 0.206771
O O6 0.750000 0.750000 0.346181
O O7 0.639227 0.761350 0.283219
O O8 0.716870 0.000000 0.250000
O O9 0.567846 0.500000 0.250000
#
# Coordination Sequence:
#
# PCOD9495143 Si02
#       4
#    16   4  16  16
#     4  10  20  35  56  88 127 154 185 240 299 352
#     4  12  22  40  62  90 108 152 208 246 280 334
#     4  10  17  31  54  84 115 152 194 240 288 339
#     4  11  21  38  62  85 114 152 201 243 285 342
#
# _framework density 18.392251999999999
#
# number of rings (size 3 to 8) (size 9 to 14) (size 15 to 20)
#    0.000    1.538    4.615    6.923    0.000    0.615 
#    0.000    2.308    0.000    1.846    0.000    0.000 
#    0.000    0.000    0.000    0.000    0.000    0.000 
#
# Total GULP energy -144917.410694 kJ/mol
# GULP energy per Si atom -5573.746565 kJ/mol
# Density = 1.835039 g / cm^3
# Si number density = 18.392252 Si / 1000 Ang^3
#
#
#
# Elastic Constant Matrix: (Units=GPa)
#
#
# Indices 1 2 3 4 5 6 
#
# 1 84.2684 31.5195 46.5153 0.0000 0.0000 0.0000
# 2 31.5195 97.7980 38.9393 0.0000 0.0000 0.0000
# 3 46.5153 38.9393 96.3190 0.0000 0.0000 0.0000
# 4 0.0000 0.0000 0.0000 4.7280 0.0000 0.0000
# 5 0.0000 0.0000 0.0000 0.0000 3.2293 0.0000
# 6 0.0000 0.0000 0.0000 0.0000 0.0000 34.1760
#
#
#
# Elastic Compliance Matrix: (Units=1/GPa)
#
#
# Indices 1 2 3 4 5 6 
#
# 1 0.016713 -0.002590 -0.007024 0.000000 0.000000 0.000000
# 2 -0.002590 0.012588 -0.003838 0.000000 0.000000 0.000000
# 3 -0.007024 -0.003838 0.015326 0.000000 0.000000 0.000000
# 4 0.000000 0.000000 0.000000 0.211504 0.000000 0.000000
# 5 0.000000 0.000000 0.000000 0.000000 0.309666 0.000000
# 6 0.000000 0.000000 0.000000 0.000000 0.000000 0.029260
#
#
# Mechanical properties :
#
#
# Convention : Reuss Voigt Hill
#
# Bulk Modulus (GPa) = 56.42545 56.92596 56.67570
# Shear Modulus (GPa) = 7.96345 19.18743 13.57544
#
# Velocity S-wave (km/s) = 2.08307 3.23342 2.71976
# Velocity P-wave (km/s) = 6.04410 6.70509 6.38315
#
# Compressibility (1/GPa) = 0.01772250
#
# Stress axis : x y z
#
# Youngs Moduli (GPa) = 59.83473 79.44024 65.24815
#
# Poissons Ratio (x) = 0.20572 0.45831
# Poissons Ratio (y) = 0.15495 0.25045
# Poissons Ratio (z) = 0.42029 0.30493
#
# Static dielectric constant tensor:
#      x y z
#    x 1.672210 0.000000 0.000000 
#    y 0.000000 1.695280 0.000000 
#    z 0.000000 0.000000 1.605570 
# 
# From -- ./inp_files/42314.got.cif
#   From: 2010.05.17/outbox.cif.g08.bks.cpg/sg66_22_cif.got.tgz:42314.got - 2010.06.03 17:51:23.
