data_PCOD9495588
_publ_section_title
;
Structure prediction by ZEFSAII (Michael W. Deem and Ramdas Pophale) SiO2 
 PCOD9495588
Probable space group: C C C M
;
_chemical_formula_sum "Si O2"
_cell_formula_units_Z 80
_cell_length_a 16.360529
_cell_length_b 15.474549
_cell_length_c 15.758132
_cell_angle_alpha 90.000000
_cell_angle_beta 90.000000
_cell_angle_gamma 90.000000
_cell_volume 3989.514764
_symmetry_space_group_name_H-M "C C C M"
_symmetry_group_IT_number 66
_symmetry_cell_setting 'orthorhombic'
loop_
_space_group_symop_operation_xyz
x,y,z
-x,-y,z
x,-y,1/2-z
-x,y,1/2-z
-x,-y,-z
x,y,-z
-x,y,1/2+z
x,-y,1/2+z
1/2+x,1/2+y,z
1/2-x,1/2-y,z
1/2+x,1/2-y,1/2-z
1/2-x,1/2+y,1/2-z
1/2-x,1/2-y,-z
1/2+x,1/2+y,-z
1/2-x,1/2+y,1/2+z
1/2+x,1/2-y,1/2+z
loop_
_atom_site_type_symbol
_atom_site_label
_atom_site_fract_x
_atom_site_fract_y
_atom_site_fract_z
Si Si1 0.009924 0.800008 0.096241
Si Si2 0.121963 0.911731 0.799387
Si Si3 0.080756 0.357857 0.709619
Si Si4 0.769396 0.353003 0.900009
Si Si5 0.159185 0.766769 0.339945
O O1 0.912578 0.791201 0.095932
O O2 0.040196 0.879894 0.153172
O O3 0.044927 0.719122 0.149809
O O4 0.041941 0.802065 0.000000
O O5 0.190970 0.907600 0.871910
O O6 0.154239 0.841704 0.731025
O O7 0.113234 0.000000 0.750000
O O8 0.152932 0.392653 0.650104
O O9 0.129075 0.317642 0.789075
O O10 0.000000 0.401784 0.750000
O O11 0.750000 0.250000 0.879119
O O12 0.783836 0.355652 0.000000
O O13 0.250000 0.750000 0.372230
#
# Coordination Sequence:
#
# PCOD9495588 Si02
#       5
#    16  16  16  16  16
#     4  10  20  33  53  82 111 144 191 242 291 337
#     4  11  21  35  53  81 119 158 191 231 293 365
#     4   9  16  29  54  84 110 134 176 240 300 346
#     4  11  18  31  59  89 113 139 196 264 300 332
#     4  10  18  34  54  78 112 147 196 238 287 351
#
# _framework density 20.052564
#
# number of rings (size 3 to 8) (size 9 to 14) (size 15 to 20)
#    0.000    1.800    6.000    3.000    0.000    2.000 
#    0.000    3.000    0.000    0.600    0.000    1.400 
#    0.000    0.000    0.000    0.000    0.000    0.000 
#
# Total GULP energy -222900.063856 kJ/mol
# GULP energy per Si atom -5572.501596 kJ/mol
# Density = 2.000692 g / cm^3
# Si number density = 20.052564 Si / 1000 Ang^3
#
#
#
# Elastic Constant Matrix: (Units=GPa)
#
#
# Indices 1 2 3 4 5 6 
#
# 1 154.2452 25.0490 33.1806 0.0000 0.0000 0.0000
# 2 25.0490 42.2504 22.1947 0.0000 0.0000 0.0000
# 3 33.1806 22.1947 94.5785 0.0000 0.0000 0.0000
# 4 0.0000 0.0000 0.0000 12.8711 0.0000 0.0000
# 5 0.0000 0.0000 0.0000 0.0000 30.8959 0.0000
# 6 0.0000 0.0000 0.0000 0.0000 0.0000 7.9829
#
#
#
# Elastic Compliance Matrix: (Units=1/GPa)
#
#
# Indices 1 2 3 4 5 6 
#
# 1 0.007432 -0.003463 -0.001794 0.000000 0.000000 0.000000
# 2 -0.003463 0.028610 -0.005499 0.000000 0.000000 0.000000
# 3 -0.001794 -0.005499 0.012493 0.000000 0.000000 0.000000
# 4 0.000000 0.000000 0.000000 0.077693 0.000000 0.000000
# 5 0.000000 0.000000 0.000000 0.000000 0.032367 0.000000
# 6 0.000000 0.000000 0.000000 0.000000 0.000000 0.125267
#
#
# Mechanical properties :
#
#
# Convention : Reuss Voigt Hill
#
# Bulk Modulus (GPa) = 37.00727 50.21362 43.61045
# Shear Modulus (GPa) = 15.90416 24.39332 20.14874
#
# Velocity S-wave (km/s) = 2.81930 3.49158 3.17329
# Velocity P-wave (km/s) = 5.39381 6.43041 5.93478
#
# Compressibility (1/GPa) = 0.02702171
#
# Stress axis : x y z
#
# Youngs Moduli (GPa) = 134.55989 34.95235 80.04345
#
# Poissons Ratio (x) = 0.12105 0.14364
# Poissons Ratio (y) = 0.46602 0.44016
# Poissons Ratio (z) = 0.24146 0.19220
#
# Static dielectric constant tensor:
#      x y z
#    x 1.798490 0.000000 0.000000 
#    y 0.000000 1.718780 0.000000 
#    z 0.000000 0.000000 1.685980 
# 
# From -- ./inp_files/40242.got.cif
#   From: 2010.05.17/outbox.cif.g08.bks.cpg/sg66_21_cif.got.tgz:40242.got - 2010.06.03 17:51:23.
