data_PCOD9495928
_publ_section_title
;
Structure prediction by ZEFSAII (Michael W. Deem and Ramdas Pophale) SiO2 
 PCOD9495928
Probable space group: C C C M
;
_chemical_formula_sum "Si O2"
_cell_formula_units_Z 96
_cell_length_a 27.265517
_cell_length_b 23.399391
_cell_length_c 8.953478
_cell_angle_alpha 90.000000
_cell_angle_beta 90.000000
_cell_angle_gamma 90.000000
_cell_volume 5712.287565
_symmetry_space_group_name_H-M "C C C M"
_symmetry_group_IT_number 66
_symmetry_cell_setting 'orthorhombic'
loop_
_space_group_symop_operation_xyz
x,y,z
-x,-y,z
x,-y,1/2-z
-x,y,1/2-z
-x,-y,-z
x,y,-z
-x,y,1/2+z
x,-y,1/2+z
1/2+x,1/2+y,z
1/2-x,1/2-y,z
1/2+x,1/2-y,1/2-z
1/2-x,1/2+y,1/2-z
1/2-x,1/2-y,-z
1/2+x,1/2+y,-z
1/2-x,1/2+y,1/2+z
1/2+x,1/2-y,1/2+z
loop_
_atom_site_type_symbol
_atom_site_label
_atom_site_fract_x
_atom_site_fract_y
_atom_site_fract_z
Si Si1 0.877358 0.661832 0.826589
Si Si2 0.946406 0.232828 0.320676
Si Si3 0.370438 0.652265 0.169836
Si Si4 0.788940 0.062769 0.819463
Si Si5 0.822827 0.562569 0.678145
Si Si6 0.805764 0.734330 0.664290
O O1 0.918799 0.707549 0.775463
O O2 0.865479 0.604165 0.737747
O O3 0.827812 0.697516 0.796306
O O4 0.885125 0.649396 0.000000
O O5 0.948227 0.232347 0.500000
O O6 0.915345 0.177856 0.264462
O O7 0.000000 0.231794 0.250000
O O8 0.334616 0.602411 0.229308
O O9 0.334925 0.706798 0.158996
O O10 0.386601 0.637711 0.000000
O O11 0.733180 0.083465 0.783079
O O12 0.793726 0.000000 0.750000
O O13 0.791198 0.060390 0.000000
O O14 0.827586 0.500000 0.750000
O O15 0.825342 0.558148 0.500000
O O16 0.812391 0.705401 0.500000
O O17 0.750000 0.750000 0.682718
#
# Coordination Sequence:
#
# PCOD9495928 Si02
#       6
#    16  16  16  16  16  16
#     4  10  20  32  47  71  99 126 160 201 245 294
#     4  10  21  36  54  75  97 123 159 204 255 304
#     4   9  17  30  48  70  97 128 162 199 241 289
#     4   9  18  31  48  72 102 137 172 202 234 279
#     4  10  19  32  50  73 103 139 174 203 235 279
#     4   9  16  27  44  66  94 128 162 195 235 287
#
# _framework density 16.805876000000001
#
# number of rings (size 3 to 8) (size 9 to 14) (size 15 to 20)
#    0.000    2.500    0.000    2.500    0.000    6.333 
#    0.000    3.333    0.000    1.000    0.000    7.000 
#    0.000    0.000    0.000    0.000    0.000    0.000 
#
# Total GULP energy -267220.531202 kJ/mol
# GULP energy per Si atom -5567.094400 kJ/mol
# Density = 1.676762 g / cm^3
# Si number density = 16.805876 Si / 1000 Ang^3
#
#
#
# Elastic Constant Matrix: (Units=GPa)
#
#
# Indices 1 2 3 4 5 6 
#
# 1 78.3002 22.2126 29.8519 0.0000 0.0000 0.0000
# 2 22.2126 59.5637 20.4678 0.0000 0.0000 0.0000
# 3 29.8519 20.4678 34.1073 0.0000 0.0000 0.0000
# 4 0.0000 0.0000 0.0000 26.9274 0.0000 0.0000
# 5 0.0000 0.0000 0.0000 0.0000 15.7861 0.0000
# 6 0.0000 0.0000 0.0000 0.0000 0.0000 23.8221
#
#
#
# Elastic Compliance Matrix: (Units=1/GPa)
#
#
# Indices 1 2 3 4 5 6 
#
# 1 0.019312 -0.001756 -0.015849 0.000000 0.000000 0.000000
# 2 -0.001756 0.021310 -0.011251 0.000000 0.000000 0.000000
# 3 -0.015849 -0.011251 0.049943 0.000000 0.000000 0.000000
# 4 0.000000 0.000000 0.000000 0.037137 0.000000 0.000000
# 5 0.000000 0.000000 0.000000 0.000000 0.063347 0.000000
# 6 0.000000 0.000000 0.000000 0.000000 0.000000 0.041978
#
#
# Mechanical properties :
#
#
# Convention : Reuss Voigt Hill
#
# Bulk Modulus (GPa) = 30.43908 35.22620 32.83264
# Shear Modulus (GPa) = 16.57341 19.93638 18.25490
#
# Velocity S-wave (km/s) = 3.14374 3.44797 3.29936
# Velocity P-wave (km/s) = 5.59723 6.07104 5.83894
#
# Compressibility (1/GPa) = 0.03285251
#
# Stress axis : x y z
#
# Youngs Moduli (GPa) = 51.78205 46.92677 20.02298
#
# Poissons Ratio (x) = 0.08239 0.31734
# Poissons Ratio (y) = 0.09091 0.22529
# Poissons Ratio (z) = 0.82068 0.52799
#
# Static dielectric constant tensor:
#      x y z
#    x 1.586730 0.000000 0.000000 
#    y 0.000000 1.607270 0.000000 
#    z 0.000000 0.000000 1.589090 
# 
# From -- ./inp_files/7940.got.cif
#   From: 2010.05.17/outbox.cif.g08.bks.cpg/sg66_4_cif.got.tgz:7940.got - 2010.06.03 17:51:23.
