data_PCOD9495171
_publ_section_title
;
Structure prediction by ZEFSAII (Michael W. Deem and Ramdas Pophale) SiO2 
 PCOD9495171
Probable space group: C C C M
;
_chemical_formula_sum "Si O2"
_cell_formula_units_Z 80
_cell_length_a 23.958609
_cell_length_b 10.653953
_cell_length_c 16.342939
_cell_angle_alpha 90.000000
_cell_angle_beta 90.000000
_cell_angle_gamma 90.000000
_cell_volume 4171.598823
_symmetry_space_group_name_H-M "C C C M"
_symmetry_group_IT_number 66
_symmetry_cell_setting 'orthorhombic'
loop_
_space_group_symop_operation_xyz
x,y,z
-x,-y,z
x,-y,1/2-z
-x,y,1/2-z
-x,-y,-z
x,y,-z
-x,y,1/2+z
x,-y,1/2+z
1/2+x,1/2+y,z
1/2-x,1/2-y,z
1/2+x,1/2-y,1/2-z
1/2-x,1/2+y,1/2-z
1/2-x,1/2-y,-z
1/2+x,1/2+y,-z
1/2-x,1/2+y,1/2+z
1/2+x,1/2-y,1/2+z
loop_
_atom_site_type_symbol
_atom_site_label
_atom_site_fract_x
_atom_site_fract_y
_atom_site_fract_z
Si Si1 0.793111 0.644932 0.158099
Si Si2 0.378713 0.455611 0.339247
Si Si3 0.750312 0.615294 0.655711
Si Si4 0.982930 0.144544 0.097932
Si Si5 0.900656 0.225532 0.595511
O O1 0.750000 0.750000 0.125125
O O2 0.778978 0.634789 0.254993
O O3 0.779876 0.508477 0.120487
O O4 0.855350 0.693401 0.143426
O O5 0.397301 0.500000 0.250000
O O6 0.314662 0.417130 0.333044
O O7 0.420729 0.346544 0.367424
O O8 0.383433 0.578586 0.396289
O O9 0.750000 0.750000 0.612027
O O10 0.035032 0.228895 0.125961
O O11 0.980562 0.155556 0.000000
O O12 0.000000 0.000000 0.116997
O O13 0.899131 0.260142 0.500000
#
# Coordination Sequence:
#
# PCOD9495171 Si02
#       5
#    16  16  16  16  16
#     4  10  17  33  52  77 105 144 183 223 278 328
#     4  11  17  31  52  80 114 145 183 231 290 337
#     4  10  19  32  51  77 114 142 177 230 287 334
#     4   8  17  31  48  75 109 142 176 227 280 324
#     4  10  20  34  54  81 110 143 191 233 272 334
#
# _framework density 19.177299000000001
#
# number of rings (size 3 to 8) (size 9 to 14) (size 15 to 20)
#    0.000    2.200    4.000    3.000    0.000    4.000 
#    0.000    0.000    0.000    6.600    0.000    8.400 
#    0.000    0.000    0.000    0.000    0.000    0.000 
#
# Total GULP energy -222790.876869 kJ/mol
# GULP energy per Si atom -5569.771922 kJ/mol
# Density = 1.913365 g / cm^3
# Si number density = 19.177299 Si / 1000 Ang^3
#
#
#
# Elastic Constant Matrix: (Units=GPa)
#
#
# Indices 1 2 3 4 5 6 
#
# 1 179.0580 41.2237 35.0017 0.0000 0.0000 0.0000
# 2 41.2237 103.7315 0.4861 0.0000 0.0000 0.0000
# 3 35.0017 0.4861 12.6210 0.0000 0.0000 0.0000
# 4 0.0000 0.0000 0.0000 9.5555 0.0000 0.0000
# 5 0.0000 0.0000 0.0000 0.0000 -39.2490 0.0000
# 6 0.0000 0.0000 0.0000 0.0000 0.0000 28.6001
#
#
#
# Elastic Compliance Matrix: (Units=1/GPa)
#
#
# Indices 1 2 3 4 5 6 
#
# 1 0.015002 -0.005768 -0.041384 0.000000 0.000000 0.000000
# 2 -0.005768 0.011860 0.015540 0.000000 0.000000 0.000000
# 3 -0.041384 0.015540 0.193404 0.000000 0.000000 0.000000
# 4 0.000000 0.000000 0.000000 0.104652 0.000000 0.000000
# 5 0.000000 0.000000 0.000000 0.000000 -0.025478 0.000000
# 6 0.000000 0.000000 0.000000 0.000000 0.000000 0.034965
#
#
# Mechanical properties :
#
#
# Convention : Reuss Voigt Hill
#
# Bulk Modulus (GPa) = 6.36772 49.87039 28.11906
# Shear Modulus (GPa) = 11.11173 14.36125 12.73649
#
# Velocity S-wave (km/s) = 2.40973 2.73951 2.57990
# Velocity P-wave (km/s) = 3.32717 6.00566 4.85479
#
# Compressibility (1/GPa) = 0.15704196
#
# Stress axis : x y z
#
# Youngs Moduli (GPa) = 66.65648 84.31893 5.17053
#
# Poissons Ratio (x) = 0.48636 0.21398
# Poissons Ratio (y) = 0.38448 -0.08035
# Poissons Ratio (z) = 2.75849 -1.31030
#
# Static dielectric constant tensor:
#      x y z
#    x 1.712960 0.000000 0.000000 
#    y 0.000000 1.718130 0.000000 
#    z 0.000000 0.000000 1.691700 
# 
# From -- ./inp_files/32086.got.cif
#   From: 2010.05.17/outbox.cif.g08.bks.cpg/sg66_17_cif.got.tgz:32086.got - 2010.06.03 17:51:23.
