data_PCOD9495301
_publ_section_title
;
Structure prediction by ZEFSAII (Michael W. Deem and Ramdas Pophale) SiO2 
 PCOD9495301
Probable space group: C C C M
;
_chemical_formula_sum "Si O2"
_cell_formula_units_Z 128
_cell_length_a 21.165252
_cell_length_b 19.228258
_cell_length_c 19.677574
_cell_angle_alpha 90.000000
_cell_angle_beta 90.000000
_cell_angle_gamma 90.000000
_cell_volume 8008.200514
_symmetry_space_group_name_H-M "C C C M"
_symmetry_group_IT_number 66
_symmetry_cell_setting 'orthorhombic'
loop_
_space_group_symop_operation_xyz
x,y,z
-x,-y,z
x,-y,1/2-z
-x,y,1/2-z
-x,-y,-z
x,y,-z
-x,y,1/2+z
x,-y,1/2+z
1/2+x,1/2+y,z
1/2-x,1/2-y,z
1/2+x,1/2-y,1/2-z
1/2-x,1/2+y,1/2-z
1/2-x,1/2-y,-z
1/2+x,1/2+y,-z
1/2-x,1/2+y,1/2+z
1/2+x,1/2-y,1/2+z
loop_
_atom_site_type_symbol
_atom_site_label
_atom_site_fract_x
_atom_site_fract_y
_atom_site_fract_z
Si Si1 0.073438 0.203980 0.184132
Si Si2 0.767141 0.547864 0.185781
Si Si3 0.063676 0.207325 0.651593
Si Si4 0.616347 0.546716 0.815546
Si Si5 0.309465 0.203356 0.804416
Si Si6 0.813361 0.291682 0.140278
Si Si7 0.115880 0.926765 0.919647
Si Si8 0.764983 0.570114 0.420451
O O1 0.069868 0.206785 0.266529
O O2 0.086021 0.121972 0.173753
O O3 0.129563 0.257012 0.167043
O O4 0.009872 0.225821 0.144942
O O5 0.787275 0.500000 0.250000
O O6 0.691601 0.559909 0.194730
O O7 0.800232 0.622265 0.179413
O O8 0.776403 0.500682 0.119821
O O9 0.119994 0.255565 0.622882
O O10 0.077015 0.132377 0.619018
O O11 0.595668 0.500000 0.750000
O O12 0.605356 0.499374 0.881480
O O13 0.250000 0.250000 0.826081
O O14 0.311032 0.205403 0.722067
O O15 0.750000 0.250000 0.117869
O O16 0.806365 0.368046 0.109978
O O17 0.190776 0.911159 0.909623
O O18 0.103061 0.928822 0.000000
O O19 0.775401 0.562480 0.500000
#
# Coordination Sequence:
#
# PCOD9495301 Si02
#       8
#    16  16  16  16  16  16  16  16
#     4  10  20  33  50  75 104 140 176 219 257 303
#     4  10  18  30  53  80 104 136 177 219 260 307
#     4  10  20  33  48  74 108 140 175 210 258 313
#     4  10  18  30  51  74 105 141 181 211 249 309
#     4  10  18  30  53  80 103 132 173 222 265 298
#     4  10  18  29  51  76 107 137 169 209 262 318
#     4  10  20  33  49  74 110 144 172 212 260 312
#     4  10  20  32  51  81 111 138 168 214 269 317
#
# _framework density 15.983616
#
# number of rings (size 3 to 8) (size 9 to 14) (size 15 to 20)
#    0.000    2.000    5.000    0.000    0.000    1.250 
#    0.000    1.250    0.000    2.625    0.000    0.875 
#    0.000    0.000    0.000    0.000    0.000    0.000 
#
# Total GULP energy -356553.866860 kJ/mol
# GULP energy per Si atom -5571.154170 kJ/mol
# Density = 1.594724 g / cm^3
# Si number density = 15.983616 Si / 1000 Ang^3
#
#
#
# Elastic Constant Matrix: (Units=GPa)
#
#
# Indices 1 2 3 4 5 6 
#
# 1 105.3820 67.1718 34.7004 0.0000 0.0000 0.0000
# 2 67.1718 104.6455 20.1465 0.0000 0.0000 0.0000
# 3 34.7004 20.1465 26.9703 0.0000 0.0000 0.0000
# 4 0.0000 0.0000 0.0000 14.0324 0.0000 0.0000
# 5 0.0000 0.0000 0.0000 0.0000 11.4053 0.0000
# 6 0.0000 0.0000 0.0000 0.0000 0.0000 14.0867
#
#
#
# Elastic Compliance Matrix: (Units=1/GPa)
#
#
# Indices 1 2 3 4 5 6 
#
# 1 0.023956 -0.011029 -0.022583 0.000000 0.000000 0.000000
# 2 -0.011029 0.016239 0.002060 0.000000 0.000000 0.000000
# 3 -0.022583 0.002060 0.064594 0.000000 0.000000 0.000000
# 4 0.000000 0.000000 0.000000 0.071264 0.000000 0.000000
# 5 0.000000 0.000000 0.000000 0.000000 0.087678 0.000000
# 6 0.000000 0.000000 0.000000 0.000000 0.000000 0.070989
#
#
# Mechanical properties :
#
#
# Convention : Reuss Voigt Hill
#
# Bulk Modulus (GPa) = 23.98952 53.44833 38.71893
# Shear Modulus (GPa) = 12.14420 15.57018 13.85719
#
# Velocity S-wave (km/s) = 2.75942 3.12450 2.94762
# Velocity P-wave (km/s) = 5.01936 6.82119 5.98843
#
# Compressibility (1/GPa) = 0.04168487
#
# Stress axis : x y z
#
# Youngs Moduli (GPa) = 41.74375 61.57928 15.48126
#
# Poissons Ratio (x) = 0.67918 0.34961
# Poissons Ratio (y) = 0.46041 -0.03189
# Poissons Ratio (z) = 0.94269 -0.12686
#
# Static dielectric constant tensor:
#      x y z
#    x 1.566830 0.000000 0.000000 
#    y 0.000000 1.523350 0.000000 
#    z 0.000000 0.000000 1.519820 
# 
# From -- ./inp_files/42169.got.cif
#   From: 2010.05.17/outbox.cif.g08.bks.cpg/sg66_22_cif.got.tgz:42169.got - 2010.06.03 17:51:23.
