data_PCOD9495115
_publ_section_title
;
Structure prediction by ZEFSAII (Michael W. Deem and Ramdas Pophale) SiO2 
 PCOD9495115
Probable space group: C C C M
;
_chemical_formula_sum "Si O2"
_cell_formula_units_Z 88
_cell_length_a 8.097773
_cell_length_b 16.620694
_cell_length_c 31.150158
_cell_angle_alpha 90.000000
_cell_angle_beta 90.000000
_cell_angle_gamma 90.000000
_cell_volume 4192.518677
_symmetry_space_group_name_H-M "C C C M"
_symmetry_group_IT_number 66
_symmetry_cell_setting 'orthorhombic'
loop_
_space_group_symop_operation_xyz
x,y,z
-x,-y,z
x,-y,1/2-z
-x,y,1/2-z
-x,-y,-z
x,y,-z
-x,y,1/2+z
x,-y,1/2+z
1/2+x,1/2+y,z
1/2-x,1/2-y,z
1/2+x,1/2-y,1/2-z
1/2-x,1/2+y,1/2-z
1/2-x,1/2-y,-z
1/2+x,1/2+y,-z
1/2-x,1/2+y,1/2+z
1/2+x,1/2-y,1/2+z
loop_
_atom_site_type_symbol
_atom_site_label
_atom_site_fract_x
_atom_site_fract_y
_atom_site_fract_z
Si Si1 0.500000 0.660032 0.250000
Si Si2 0.195743 0.440333 0.712465
Si Si3 0.869802 0.320281 0.910791
Si Si4 0.195045 0.013951 0.620114
Si Si5 0.374634 0.924639 0.546622
Si Si6 0.059714 0.718468 0.183319
O O1 0.640003 0.604953 0.270550
O O2 0.549438 0.720693 0.211158
O O3 0.157672 0.500000 0.750000
O O4 0.232097 0.486890 0.668095
O O5 0.063123 0.371103 0.702086
O O6 0.750000 0.250000 0.926427
O O7 0.757724 0.398374 0.897434
O O8 0.960398 0.288458 0.867558
O O9 0.008806 0.349295 0.943389
O O10 0.263389 0.947003 0.587362
O O11 0.000000 0.000000 0.622657
O O12 0.290762 0.918021 0.500000
O O13 0.500000 0.000000 0.544460
O O14 0.250000 0.750000 0.188097
#
# Coordination Sequence:
#
# PCOD9495115 Si02
#       6
#     8  16  16  16  16  16
#     4  10  17  30  49  68  98 138 178 214 263 324
#     4  10  19  31  48  74 105 138 181 226 267 322
#     4   9  18  35  57  79 107 142 185 234 286 349
#     4  10  20  35  55  80 111 147 185 231 285 338
#     4   9  19  36  58  83 111 147 190 236 292 351
#     4   8  17  30  45  68 100 136 171 215 272 329
#
# _framework density 20.989768999999999
#
# number of rings (size 3 to 8) (size 9 to 14) (size 15 to 20)
#    0.000    2.727    0.000    2.455    0.000    2.182 
#    0.000    5.000    0.000    1.091    0.000    0.000 
#    0.000    0.000    0.000    0.000    0.000    0.000 
#
# Total GULP energy -245473.835156 kJ/mol
# GULP energy per Si atom -5578.950799 kJ/mol
# Density = 2.094200 g / cm^3
# Si number density = 20.989769 Si / 1000 Ang^3
#
#
#
# Elastic Constant Matrix: (Units=GPa)
#
#
# Indices 1 2 3 4 5 6 
#
# 1 44.0055 26.9778 43.0113 0.0000 0.0000 0.0000
# 2 26.9778 83.5527 58.4511 0.0000 0.0000 0.0000
# 3 43.0113 58.4511 138.2063 0.0000 0.0000 0.0000
# 4 0.0000 0.0000 0.0000 15.5350 0.0000 0.0000
# 5 0.0000 0.0000 0.0000 0.0000 17.2479 0.0000
# 6 0.0000 0.0000 0.0000 0.0000 0.0000 17.1381
#
#
#
# Elastic Compliance Matrix: (Units=1/GPa)
#
#
# Indices 1 2 3 4 5 6 
#
# 1 0.034121 -0.005096 -0.008463 0.000000 0.000000 0.000000
# 2 -0.005096 0.017759 -0.005925 0.000000 0.000000 0.000000
# 3 -0.008463 -0.005925 0.012375 0.000000 0.000000 0.000000
# 4 0.000000 0.000000 0.000000 0.064371 0.000000 0.000000
# 5 0.000000 0.000000 0.000000 0.000000 0.057978 0.000000
# 6 0.000000 0.000000 0.000000 0.000000 0.000000 0.058350
#
#
# Mechanical properties :
#
#
# Convention : Reuss Voigt Hill
#
# Bulk Modulus (GPa) = 39.54739 58.07165 48.80952
# Shear Modulus (GPa) = 17.10274 19.13914 18.12094
#
# Velocity S-wave (km/s) = 2.85759 3.02293 2.94142
# Velocity P-wave (km/s) = 5.45618 6.31750 5.90258
#
# Compressibility (1/GPa) = 0.02528612
#
# Stress axis : x y z
#
# Youngs Moduli (GPa) = 29.30745 56.31051 80.80702
#
# Poissons Ratio (x) = 0.28697 0.68391
# Poissons Ratio (y) = 0.14936 0.47875
# Poissons Ratio (z) = 0.24804 0.33362
#
# Static dielectric constant tensor:
#      x y z
#    x 1.827070 0.000000 0.000000 
#    y 0.000000 1.860130 0.000000 
#    z 0.000000 0.000000 1.783060 
# 
# From -- ./inp_files/68175.got.cif
#   From: 2010.05.17/outbox.cif.g08.bks.cpg/sg66_35_cif.got.tgz:68175.got - 2010.06.03 17:51:23.
