data_PCOD9495316
_publ_section_title
;
Structure prediction by ZEFSAII (Michael W. Deem and Ramdas Pophale) SiO2 
 PCOD9495316
Probable space group: C C C M
;
_chemical_formula_sum "Si O2"
_cell_formula_units_Z 88
_cell_length_a 23.264547
_cell_length_b 24.442279
_cell_length_c 9.282019
_cell_angle_alpha 90.000000
_cell_angle_beta 90.000000
_cell_angle_gamma 90.000000
_cell_volume 5278.113812
_symmetry_space_group_name_H-M "C C C M"
_symmetry_group_IT_number 66
_symmetry_cell_setting 'orthorhombic'
loop_
_space_group_symop_operation_xyz
x,y,z
-x,-y,z
x,-y,1/2-z
-x,y,1/2-z
-x,-y,-z
x,y,-z
-x,y,1/2+z
x,-y,1/2+z
1/2+x,1/2+y,z
1/2-x,1/2-y,z
1/2+x,1/2-y,1/2-z
1/2-x,1/2+y,1/2-z
1/2-x,1/2-y,-z
1/2+x,1/2+y,-z
1/2-x,1/2+y,1/2+z
1/2+x,1/2-y,1/2+z
loop_
_atom_site_type_symbol
_atom_site_label
_atom_site_fract_x
_atom_site_fract_y
_atom_site_fract_z
Si Si1 0.750000 0.250000 0.267196
Si Si2 0.655279 0.661820 0.835570
Si Si3 0.438548 0.731846 0.825276
Si Si4 0.646598 0.173972 0.830109
Si Si5 0.835571 0.553841 0.666370
Si Si6 0.696626 0.554764 0.332679
O O1 0.705978 0.292424 0.340851
O O2 0.705342 0.208779 0.189121
O O3 0.603651 0.686128 0.740304
O O4 0.677621 0.607886 0.755655
O O5 0.637648 0.650573 0.000000
O O6 0.500000 0.728504 0.750000
O O7 0.406316 0.788410 0.782938
O O8 0.441677 0.728378 0.000000
O O9 0.647943 0.112873 0.767365
O O10 0.640713 0.166281 0.000000
O O11 0.855327 0.500000 0.750000
O O12 0.854361 0.549938 0.500000
O O13 0.766063 0.553965 0.665987
O O14 0.677140 0.500000 0.250000
O O15 0.677743 0.556378 0.500000
#
# Coordination Sequence:
#
# PCOD9495316 Si02
#       6
#     8  16  16  16  16  16
#     4  10  18  30  46  74 107 138 169 210 257 308
#     4  11  21  33  51  77 108 139 172 213 257 309
#     4  10  21  37  56  76 100 134 174 218 264 309
#     4   9  17  30  51  74 101 135 171 212 258 313
#     4   9  17  30  46  71 102 136 171 207 249 305
#     4  10  19  32  50  74 106 142 176 211 254 305
#
# _framework density 16.672622
#
# number of rings (size 3 to 8) (size 9 to 14) (size 15 to 20)
#    0.000    2.182    1.818    2.182    0.000    2.182 
#    0.000    1.818    0.000    1.091    0.000    7.636 
#    0.000    0.000    0.000    0.000    0.000    0.000 
#
# Total GULP energy -244941.184700 kJ/mol
# GULP energy per Si atom -5566.845107 kJ/mol
# Density = 1.663467 g / cm^3
# Si number density = 16.672622 Si / 1000 Ang^3
#
#
#
# Elastic Constant Matrix: (Units=GPa)
#
#
# Indices 1 2 3 4 5 6 
#
# 1 67.8959 17.7856 28.1585 0.0000 0.0000 0.0000
# 2 17.7856 131.1958 55.4081 0.0000 0.0000 0.0000
# 3 28.1585 55.4081 92.4816 0.0000 0.0000 0.0000
# 4 0.0000 0.0000 0.0000 23.4566 0.0000 0.0000
# 5 0.0000 0.0000 0.0000 0.0000 13.0266 0.0000
# 6 0.0000 0.0000 0.0000 0.0000 0.0000 13.4505
#
#
#
# Elastic Compliance Matrix: (Units=1/GPa)
#
#
# Indices 1 2 3 4 5 6 
#
# 1 0.016859 -0.000157 -0.005039 0.000000 0.000000 0.000000
# 2 -0.000157 0.010206 -0.006067 0.000000 0.000000 0.000000
# 3 -0.005039 -0.006067 0.015982 0.000000 0.000000 0.000000
# 4 0.000000 0.000000 0.000000 0.042632 0.000000 0.000000
# 5 0.000000 0.000000 0.000000 0.000000 0.076766 0.000000
# 6 0.000000 0.000000 0.000000 0.000000 0.000000 0.074347
#
#
# Mechanical properties :
#
#
# Convention : Reuss Voigt Hill
#
# Bulk Modulus (GPa) = 48.73046 54.91973 51.82510
# Shear Modulus (GPa) = 18.78582 22.66814 20.72698
#
# Velocity S-wave (km/s) = 3.36035 3.69128 3.52969
# Velocity P-wave (km/s) = 6.65937 7.15395 6.91108
#
# Compressibility (1/GPa) = 0.02052104
#
# Stress axis : x y z
#
# Youngs Moduli (GPa) = 59.31377 97.98531 62.57116
#
# Poissons Ratio (x) = 0.01543 0.31530
# Poissons Ratio (y) = 0.00934 0.37959
# Poissons Ratio (z) = 0.29888 0.59443
#
# Static dielectric constant tensor:
#      x y z
#    x 1.533190 0.000000 0.000000 
#    y 0.000000 1.595740 0.000000 
#    z 0.000000 0.000000 1.571040 
# 
# From -- ./inp_files/7775.got.cif
#   From: 2010.05.17/outbox.cif.g08.bks.cpg/sg66_4_cif.got.tgz:7775.got - 2010.06.03 17:51:23.
