data_PCOD9495520
_publ_section_title
;
Structure prediction by ZEFSAII (Michael W. Deem and Ramdas Pophale) SiO2 
 PCOD9495520
Probable space group: C C C M
;
_chemical_formula_sum "Si O2"
_cell_formula_units_Z 64
_cell_length_a 7.257472
_cell_length_b 15.372767
_cell_length_c 24.667340
_cell_angle_alpha 90.000000
_cell_angle_beta 90.000000
_cell_angle_gamma 90.000000
_cell_volume 2752.071632
_symmetry_space_group_name_H-M "C C C M"
_symmetry_group_IT_number 66
_symmetry_cell_setting 'orthorhombic'
loop_
_space_group_symop_operation_xyz
x,y,z
-x,-y,z
x,-y,1/2-z
-x,y,1/2-z
-x,-y,-z
x,y,-z
-x,y,1/2+z
x,-y,1/2+z
1/2+x,1/2+y,z
1/2-x,1/2-y,z
1/2+x,1/2-y,1/2-z
1/2-x,1/2+y,1/2-z
1/2-x,1/2-y,-z
1/2+x,1/2+y,-z
1/2-x,1/2+y,1/2+z
1/2+x,1/2-y,1/2+z
loop_
_atom_site_type_symbol
_atom_site_label
_atom_site_fract_x
_atom_site_fract_y
_atom_site_fract_z
Si Si1 0.041095 0.283498 0.000000
Si Si2 0.032414 0.261984 0.186258
Si Si3 0.431800 0.901288 0.602338
Si Si4 0.007067 0.094622 0.619688
Si Si5 0.892761 0.092208 0.000000
O O1 0.250000 0.250000 0.000000
O O2 0.008461 0.344230 0.948883
O O3 0.931952 0.194901 0.000000
O O4 0.250000 0.250000 0.178687
O O5 0.992875 0.351820 0.155311
O O6 0.945972 0.177319 0.156980
O O7 0.000000 0.264756 0.250000
O O8 0.207153 0.894639 0.600632
O O9 0.500000 0.000000 0.599415
O O10 0.137686 0.088514 0.566794
O O11 0.000000 0.000000 0.648139
O O12 0.000000 0.000000 0.000000
#
# Coordination Sequence:
#
# PCOD9495520 Si02
#       5
#     8  16  16  16   8
#     4  12  17  36  63  85 116 156 189 224 283 358
#     4  10  22  40  60  81 110 154 196 237 285 339
#     4  11  22  36  58  90 117 148 188 237 289 335
#     4  10  20  37  61  85 114 152 191 229 284 349
#     4  10  18  32  62  88 113 145 188 228 278 338
#
# _framework density 23.255208
#
# number of rings (size 3 to 8) (size 9 to 14) (size 15 to 20)
#    0.000    1.500    5.000    1.125    0.000    3.000 
#    0.000    5.000    0.000    3.000    0.000    0.000 
#    0.000    0.000    0.000    0.000    0.000    0.000 
#
# Total GULP energy -178300.133493 kJ/mol
# GULP energy per Si atom -5571.879172 kJ/mol
# Density = 2.320228 g / cm^3
# Si number density = 23.255208 Si / 1000 Ang^3
#
#
#
# Elastic Constant Matrix: (Units=GPa)
#
#
# Indices 1 2 3 4 5 6 
#
# 1 89.2672 22.6112 3.5929 0.0000 0.0000 0.0000
# 2 22.6112 241.3382 94.4172 0.0000 0.0000 0.0000
# 3 3.5929 94.4172 162.1563 0.0000 0.0000 0.0000
# 4 0.0000 0.0000 0.0000 35.0474 0.0000 0.0000
# 5 0.0000 0.0000 0.0000 0.0000 -8.4214 0.0000
# 6 0.0000 0.0000 0.0000 0.0000 0.0000 34.9274
#
#
#
# Elastic Compliance Matrix: (Units=1/GPa)
#
#
# Indices 1 2 3 4 5 6 
#
# 1 0.011504 -0.001267 0.000483 0.000000 0.000000 0.000000
# 2 -0.001267 0.005505 -0.003177 0.000000 0.000000 0.000000
# 3 0.000483 -0.003177 0.008006 0.000000 0.000000 0.000000
# 4 0.000000 0.000000 0.000000 0.028533 0.000000 0.000000
# 5 0.000000 0.000000 0.000000 0.000000 -0.118744 0.000000
# 6 0.000000 0.000000 0.000000 0.000000 0.000000 0.028631
#
#
# Mechanical properties :
#
#
# Convention : Reuss Voigt Hill
#
# Bulk Modulus (GPa) = 58.50543 81.55603 70.03073
# Shear Modulus (GPa) = -217.91126 37.12004 -90.39561
#
# Velocity S-wave (km/s) = -9.69060 3.99959 -6.24144
# Velocity P-wave (km/s) = 9.99988 7.51499 4.66490
#
# Compressibility (1/GPa) = 0.01709243
#
# Stress axis : x y z
#
# Youngs Moduli (GPa) = 86.92837 181.64205 124.90149
#
# Poissons Ratio (x) = 0.23007 -0.06028
# Poissons Ratio (y) = 0.11010 0.39687
# Poissons Ratio (z) = -0.04195 0.57716
#
# Static dielectric constant tensor:
#      x y z
#    x 1.763120 0.000000 0.000000 
#    y 0.000000 1.745630 0.000000 
#    z 0.000000 0.000000 1.868090 
# 
# From -- ./inp_files/54991.got.cif
#   From: 2010.05.17/outbox.cif.g08.bks.cpg/sg66_28_cif.got.tgz:54991.got - 2010.06.03 17:51:23.
