data_PCOD9495775
_publ_section_title
;
Structure prediction by ZEFSAII (Michael W. Deem and Ramdas Pophale) SiO2 
 PCOD9495775
Probable space group: C C C M
;
_chemical_formula_sum "Si O2"
_cell_formula_units_Z 96
_cell_length_a 31.967298
_cell_length_b 21.128957
_cell_length_c 7.428816
_cell_angle_alpha 90.000000
_cell_angle_beta 90.000000
_cell_angle_gamma 90.000000
_cell_volume 5017.687274
_symmetry_space_group_name_H-M "C C C M"
_symmetry_group_IT_number 66
_symmetry_cell_setting 'orthorhombic'
loop_
_space_group_symop_operation_xyz
x,y,z
-x,-y,z
x,-y,1/2-z
-x,y,1/2-z
-x,-y,-z
x,y,-z
-x,y,1/2+z
x,-y,1/2+z
1/2+x,1/2+y,z
1/2-x,1/2-y,z
1/2+x,1/2-y,1/2-z
1/2-x,1/2+y,1/2-z
1/2-x,1/2-y,-z
1/2+x,1/2+y,-z
1/2-x,1/2+y,1/2+z
1/2+x,1/2-y,1/2+z
loop_
_atom_site_type_symbol
_atom_site_label
_atom_site_fract_x
_atom_site_fract_y
_atom_site_fract_z
Si Si1 0.134924 0.745106 0.281369
Si Si2 0.272921 0.430250 0.214838
Si Si3 0.455120 0.747060 0.285399
Si Si4 0.636359 0.605189 0.781321
Si Si5 0.954371 0.101613 0.715008
Si Si6 0.221375 0.309725 0.780188
O O1 0.136153 0.742802 0.500000
O O2 0.088618 0.724073 0.221285
O O3 0.138884 0.819793 0.236464
O O4 0.174380 0.704958 0.217765
O O5 0.256162 0.500000 0.250000
O O6 0.320662 0.425342 0.285332
O O7 0.243514 0.373864 0.282517
O O8 0.275684 0.421476 0.000000
O O9 0.500000 0.777771 0.250000
O O10 0.451738 0.742241 0.500000
O O11 0.456755 0.674442 0.216231
O O12 0.591191 0.578364 0.718772
O O13 0.636347 0.601118 0.000000
O O14 0.951268 0.102987 0.500000
O O15 0.000000 0.072203 0.750000
O O16 0.250000 0.250000 0.730458
O O17 0.220509 0.311468 0.000000
#
# Coordination Sequence:
#
# PCOD9495775 Si02
#       6
#    16  16  16  16  16  16
#     4   8  12  20  37  62  83 100 134 180 209 227
#     4  10  19  30  45  64  86 111 138 172 212 254
#     4   8  13  20  32  52  81 108 127 156 200 245
#     4   8  13  23  39  58  79 104 135 171 207 240
#     4   8  13  21  34  53  75  99 129 165 204 242
#     4   9  14  23  43  68  85 102 140 185 211 235
#
# _framework density 19.13232
#
# number of rings (size 3 to 8) (size 9 to 14) (size 15 to 20)
#    0.000    3.500    1.667    2.000    0.000    0.000 
#    0.000    0.833    0.000    3.000    0.000    3.500 
#    0.000    0.667    0.000    8.333    0.000    0.333 
#
# Total GULP energy -267300.711146 kJ/mol
# GULP energy per Si atom -5568.764816 kJ/mol
# Density = 1.908877 g / cm^3
# Si number density = 19.132320 Si / 1000 Ang^3
#
#
#
# Elastic Constant Matrix: (Units=GPa)
#
#
# Indices 1 2 3 4 5 6 
#
# 1 201.2411 76.8930 5.0801 0.0000 0.0000 0.0000
# 2 76.8930 87.8283 -0.7349 0.0000 0.0000 0.0000
# 3 5.0801 -0.7349 58.7138 0.0000 0.0000 0.0000
# 4 0.0000 0.0000 0.0000 2.9437 0.0000 0.0000
# 5 0.0000 0.0000 0.0000 0.0000 6.3975 0.0000
# 6 0.0000 0.0000 0.0000 0.0000 0.0000 2.0706
#
#
#
# Elastic Compliance Matrix: (Units=1/GPa)
#
#
# Indices 1 2 3 4 5 6 
#
# 1 0.007498 -0.006571 -0.000731 0.000000 0.000000 0.000000
# 2 -0.006571 0.017145 0.000783 0.000000 0.000000 0.000000
# 3 -0.000731 0.000783 0.017105 0.000000 0.000000 0.000000
# 4 0.000000 0.000000 0.000000 0.339708 0.000000 0.000000
# 5 0.000000 0.000000 0.000000 0.000000 0.156312 0.000000
# 6 0.000000 0.000000 0.000000 0.000000 0.000000 0.482941
#
#
# Mechanical properties :
#
#
# Convention : Reuss Voigt Hill
#
# Bulk Modulus (GPa) = 34.83009 56.69552 45.76281
# Shear Modulus (GPa) = 4.79241 20.05202 12.42222
#
# Velocity S-wave (km/s) = 1.58440 3.24090 2.55086
# Velocity P-wave (km/s) = 4.64666 6.61077 5.71375
#
# Compressibility (1/GPa) = 0.02871081
#
# Stress axis : x y z
#
# Youngs Moduli (GPa) = 133.36385 58.32568 58.46302
#
# Poissons Ratio (x) = 0.38325 0.04274
# Poissons Ratio (y) = 0.87631 -0.04578
# Poissons Ratio (z) = 0.09749 -0.04568
#
# Static dielectric constant tensor:
#      x y z
#    x 1.751200 0.000000 0.000000 
#    y 0.000000 1.626110 0.000000 
#    z 0.000000 0.000000 1.795230 
# 
# From -- ./inp_files/17972.got.cif
#   From: 2010.05.17/outbox.cif.g08.bks.cpg/sg66_9_cif.got.tgz:17972.got - 2010.06.03 17:51:23.
