data_PCOD9495064
_publ_section_title
;
Structure prediction by ZEFSAII (Michael W. Deem and Ramdas Pophale) SiO2 
 PCOD9495064
Probable space group: C C C M
;
_chemical_formula_sum "Si O2"
_cell_formula_units_Z 80
_cell_length_a 26.553091
_cell_length_b 5.336148
_cell_length_c 33.589036
_cell_angle_alpha 90.000000
_cell_angle_beta 90.000000
_cell_angle_gamma 90.000000
_cell_volume 4759.271605
_symmetry_space_group_name_H-M "C C C M"
_symmetry_group_IT_number 66
_symmetry_cell_setting 'orthorhombic'
loop_
_space_group_symop_operation_xyz
x,y,z
-x,-y,z
x,-y,1/2-z
-x,y,1/2-z
-x,-y,-z
x,y,-z
-x,y,1/2+z
x,-y,1/2+z
1/2+x,1/2+y,z
1/2-x,1/2-y,z
1/2+x,1/2-y,1/2-z
1/2-x,1/2+y,1/2-z
1/2-x,1/2-y,-z
1/2+x,1/2+y,-z
1/2-x,1/2+y,1/2+z
1/2+x,1/2-y,1/2+z
loop_
_atom_site_type_symbol
_atom_site_label
_atom_site_fract_x
_atom_site_fract_y
_atom_site_fract_z
Si Si1 0.807751 0.496120 0.797511
Si Si2 0.970965 0.751271 0.548462
Si Si3 0.856867 0.351859 0.953040
Si Si4 0.193258 0.989923 0.331870
Si Si5 0.304869 0.647011 0.575388
O O1 0.806302 0.500000 0.750000
O O2 0.830463 0.249478 0.817631
O O3 0.750069 0.501957 0.813816
O O4 0.832719 0.749930 0.812583
O O5 0.971219 0.758671 0.500000
O O6 0.912683 0.731619 0.560309
O O7 0.000000 0.500000 0.560567
O O8 0.000000 0.000000 0.562206
O O9 0.839682 0.607565 0.931262
O O10 0.822086 0.105835 0.946989
O O11 0.858209 0.413170 0.000000
O O12 0.196849 0.941675 0.378652
O O13 0.250000 0.750000 0.563400
#
# Coordination Sequence:
#
# PCOD9495064 Si02
#       5
#    16  16  16  16  16
#     4  10  17  28  47  67  85 112 169 221 234 269
#     4   9  17  33  56  75  91 110 143 211 286 327
#     4  11  24  37  51  73  94 124 180 223 255 300
#     4  10  18  29  43  64  88 123 164 202 232 290
#     4  12  23  35  50  65 100 146 176 209 237 285
#
# _framework density 16.809294000000001
#
# number of rings (size 3 to 8) (size 9 to 14) (size 15 to 20)
#    0.000    1.600    2.000    6.600    2.800    5.600 
#    0.000    0.000    0.000    0.000    0.000    0.000 
#    0.000    0.000    0.000    0.000    0.000  337.000 
#
# Total GULP energy -222898.955180 kJ/mol
# GULP energy per Si atom -5572.473880 kJ/mol
# Density = 1.677104 g / cm^3
# Si number density = 16.809294 Si / 1000 Ang^3
#
#
#
# Elastic Constant Matrix: (Units=GPa)
#
#
# Indices 1 2 3 4 5 6 
#
# 1 47.8331 25.4729 14.5540 0.0000 0.0000 0.0000
# 2 25.4729 164.0248 15.3726 0.0000 0.0000 0.0000
# 3 14.5540 15.3726 34.4913 0.0000 0.0000 0.0000
# 4 0.0000 0.0000 0.0000 37.2667 0.0000 0.0000
# 5 0.0000 0.0000 0.0000 0.0000 -6.4550 0.0000
# 6 0.0000 0.0000 0.0000 0.0000 0.0000 22.0700
#
#
#
# Elastic Compliance Matrix: (Units=1/GPa)
#
#
# Indices 1 2 3 4 5 6 
#
# 1 0.025382 -0.003066 -0.009344 0.000000 0.000000 0.000000
# 2 -0.003066 0.006733 -0.001707 0.000000 0.000000 0.000000
# 3 -0.009344 -0.001707 0.033696 0.000000 0.000000 0.000000
# 4 0.000000 0.000000 0.000000 0.026834 0.000000 0.000000
# 5 0.000000 0.000000 0.000000 0.000000 -0.154918 0.000000
# 6 0.000000 0.000000 0.000000 0.000000 0.000000 0.045310
#
#
# Mechanical properties :
#
#
# Convention : Reuss Voigt Hill
#
# Bulk Modulus (GPa) = 26.61169 39.68314 33.14742
# Shear Modulus (GPa) = 210.11943 23.30632 116.71288
#
# Velocity S-wave (km/s) = 11.19256 3.72763 8.34172
# Velocity P-wave (km/s) = 13.52394 6.49508 10.60856
#
# Compressibility (1/GPa) = 0.03757747
#
# Stress axis : x y z
#
# Youngs Moduli (GPa) = 39.39840 148.52712 29.67687
#
# Poissons Ratio (x) = 0.45539 0.27729
# Poissons Ratio (y) = 0.12080 0.05066
# Poissons Ratio (z) = 0.36812 0.25354
#
# Static dielectric constant tensor:
#      x y z
#    x 1.542000 0.000000 0.000000 
#    y 0.000000 1.873910 0.000000 
#    z 0.000000 0.000000 1.572630 
# 
# From -- ./inp_files/70310.got.cif
#   From: 2010.05.17/outbox.cif.g08.bks.cpg/sg66_36_cif.got.tgz:70310.got - 2010.06.03 17:51:23.
