data_PCOD9495594
_publ_section_title
;
Structure prediction by ZEFSAII (Michael W. Deem and Ramdas Pophale) SiO2 
 PCOD9495594
Probable space group: C C C M
;
_chemical_formula_sum "Si O2"
_cell_formula_units_Z 104
_cell_length_a 20.889689
_cell_length_b 11.893962
_cell_length_c 18.881266
_cell_angle_alpha 90.000000
_cell_angle_beta 90.000000
_cell_angle_gamma 90.000000
_cell_volume 4691.261388
_symmetry_space_group_name_H-M "C C C M"
_symmetry_group_IT_number 66
_symmetry_cell_setting 'orthorhombic'
loop_
_space_group_symop_operation_xyz
x,y,z
-x,-y,z
x,-y,1/2-z
-x,y,1/2-z
-x,-y,-z
x,y,-z
-x,y,1/2+z
x,-y,1/2+z
1/2+x,1/2+y,z
1/2-x,1/2-y,z
1/2+x,1/2-y,1/2-z
1/2-x,1/2+y,1/2-z
1/2-x,1/2-y,-z
1/2+x,1/2+y,-z
1/2-x,1/2+y,1/2+z
1/2+x,1/2-y,1/2+z
loop_
_atom_site_type_symbol
_atom_site_label
_atom_site_fract_x
_atom_site_fract_y
_atom_site_fract_z
Si Si1 0.317858 0.727928 0.330105
Si Si2 0.955204 0.768583 0.188996
Si Si3 0.383713 0.353064 0.581108
Si Si4 0.223896 0.994203 0.584897
Si Si5 0.000000 0.000000 0.375705
Si Si6 0.364989 0.947399 0.583864
Si Si7 0.962610 0.359271 0.914150
O O1 0.250000 0.750000 0.293128
O O2 0.382385 0.717590 0.285800
O O3 0.302193 0.619234 0.378024
O O4 0.340574 0.832715 0.379068
O O5 0.972465 0.688227 0.122004
O O6 0.000000 0.722000 0.250000
O O7 0.975708 0.894352 0.168785
O O8 0.367874 0.326853 0.500000
O O9 0.320762 0.406474 0.613741
O O10 0.439730 0.447819 0.582754
O O11 0.413642 0.239017 0.609109
O O12 0.214162 0.980403 0.500000
O O13 0.298966 0.018299 0.594712
O O14 0.372467 0.926509 0.500000
O O15 0.426194 0.024879 0.605148
O O16 0.970555 0.359266 0.000000
#
# Coordination Sequence:
#
# PCOD9495594 Si02
#       7
#    16  16  16  16   8  16  16
#     4  10  20  36  58  82 114 149 192 239 289 341
#     4  11  23  39  62  86 115 151 195 245 294 348
#     4   9  16  27  49  83 117 147 184 234 290 342
#     4   9  16  28  52  85 117 149 188 237 291 336
#     4  10  18  34  56  82 111 146 185 236 291 348
#     4   9  18  33  53  82 119 157 196 235 280 343
#     4   9  20  36  55  84 119 156 195 235 289 348
#
# _framework density 22.168879
#
# number of rings (size 3 to 8) (size 9 to 14) (size 15 to 20)
#    0.000    2.462    1.538    0.923    0.000    4.923 
#    0.000    6.154    6.769    0.000    0.000    0.000 
#    0.000    0.000    0.000    0.000    0.000    0.000 
#
# Total GULP energy -289549.550165 kJ/mol
# GULP energy per Si atom -5568.260580 kJ/mol
# Density = 2.211842 g / cm^3
# Si number density = 22.168879 Si / 1000 Ang^3
#
#
#
# Elastic Constant Matrix: (Units=GPa)
#
#
# Indices 1 2 3 4 5 6 
#
# 1 147.2978 13.9559 11.8473 0.0000 0.0000 0.0000
# 2 13.9559 102.4122 1.9384 0.0000 0.0000 0.0000
# 3 11.8473 1.9384 25.0487 0.0000 0.0000 0.0000
# 4 0.0000 0.0000 0.0000 -14.9943 0.0000 0.0000
# 5 0.0000 0.0000 0.0000 0.0000 12.6839 0.0000
# 6 0.0000 0.0000 0.0000 0.0000 0.0000 34.1903
#
#
#
# Elastic Compliance Matrix: (Units=1/GPa)
#
#
# Indices 1 2 3 4 5 6 
#
# 1 0.007141 -0.000911 -0.003307 0.000000 0.000000 0.000000
# 2 -0.000911 0.009895 -0.000335 0.000000 0.000000 0.000000
# 3 -0.003307 -0.000335 0.041512 0.000000 0.000000 0.000000
# 4 0.000000 0.000000 0.000000 -0.066692 0.000000 0.000000
# 5 0.000000 0.000000 0.000000 0.000000 0.078840 0.000000
# 6 0.000000 0.000000 0.000000 0.000000 0.000000 0.029248
#
#
# Mechanical properties :
#
#
# Convention : Reuss Voigt Hill
#
# Bulk Modulus (GPa) = 20.22534 36.69354 28.45944
# Shear Modulus (GPa) = 39.83086 22.84380 31.33733
#
# Velocity S-wave (km/s) = 4.24335 3.21354 3.76383
# Velocity P-wave (km/s) = 5.75770 5.50970 5.63507
#
# Compressibility (1/GPa) = 0.04944294
#
# Stress axis : x y z
#
# Youngs Moduli (GPa) = 140.03181 101.06233 24.08927
#
# Poissons Ratio (x) = 0.09202 0.07967
# Poissons Ratio (y) = 0.12751 0.00807
# Poissons Ratio (z) = 0.46310 0.03386
#
# Static dielectric constant tensor:
#      x y z
#    x 1.924850 0.000000 0.000000 
#    y 0.000000 1.831150 0.000000 
#    z 0.000000 0.000000 1.825810 
# 
# From -- ./inp_files/58356.got.cif
#   From: 2010.05.17/outbox.cif.g08.bks.cpg/sg66_30_cif.got.tgz:58356.got - 2010.06.03 17:51:23.
