data_PCOD9495662
_publ_section_title
;
Structure prediction by ZEFSAII (Michael W. Deem and Ramdas Pophale) SiO2 
 PCOD9495662
Probable space group: C C C M
;
_chemical_formula_sum "Si O2"
_cell_formula_units_Z 84
_cell_length_a 5.181757
_cell_length_b 33.423323
_cell_length_c 26.456238
_cell_angle_alpha 90.000000
_cell_angle_beta 90.000000
_cell_angle_gamma 90.000000
_cell_volume 4581.996547
_symmetry_space_group_name_H-M "C C C M"
_symmetry_group_IT_number 66
_symmetry_cell_setting 'orthorhombic'
loop_
_space_group_symop_operation_xyz
x,y,z
-x,-y,z
x,-y,1/2-z
-x,y,1/2-z
-x,-y,-z
x,y,-z
-x,y,1/2+z
x,-y,1/2+z
1/2+x,1/2+y,z
1/2-x,1/2-y,z
1/2+x,1/2-y,1/2-z
1/2-x,1/2+y,1/2-z
1/2-x,1/2-y,-z
1/2+x,1/2+y,-z
1/2-x,1/2+y,1/2+z
1/2+x,1/2-y,1/2+z
loop_
_atom_site_type_symbol
_atom_site_label
_atom_site_fract_x
_atom_site_fract_y
_atom_site_fract_z
Si Si1 0.434955 0.628756 0.057502
Si Si2 0.000000 0.500000 0.750000
Si Si3 0.894427 0.555617 0.841972
Si Si4 0.440699 0.143668 0.124649
Si Si5 0.001319 0.276845 0.190036
Si Si6 0.398436 0.458818 0.591683
O O1 0.175679 0.642729 0.085086
O O2 0.409046 0.580356 0.057355
O O3 0.677336 0.641199 0.092190
O O4 0.461183 0.642980 0.000000
O O5 0.121611 0.468638 0.789847
O O6 0.617020 0.549524 0.866696
O O7 0.948176 0.603245 0.841159
O O8 0.124378 0.539605 0.879078
O O9 0.473882 0.182648 0.158604
O O10 0.250000 0.250000 0.179362
O O11 0.000000 0.286019 0.250000
O O12 0.750000 0.250000 0.178522
O O13 0.500000 0.500000 0.567231
#
# Coordination Sequence:
#
# PCOD9495662 Si02
#       6
#    16   4  16  16  16  16
#     4  10  21  36  59  82 109 150 190 234 285 331
#     4  12  20  34  52  78 110 154 192 226 272 326
#     4  10  22  31  52  75 110 150 182 225 267 330
#     4  10  21  39  58  85 115 147 186 232 281 337
#     4  10  21  38  63  89 116 147 184 226 276 335
#     4  10  18  36  48  73 107 140 189 234 276 313
#
# _framework density 18.332619000000001
#
# number of rings (size 3 to 8) (size 9 to 14) (size 15 to 20)
#    0.000    1.905    1.905    1.714    1.333    1.905 
#    0.000    0.000    0.000   18.286    0.000    0.000 
#    0.000    0.000    0.000    0.000    0.000    0.000 
#
# Total GULP energy -234081.044399 kJ/mol
# GULP energy per Si atom -5573.358200 kJ/mol
# Density = 1.829089 g / cm^3
# Si number density = 18.332619 Si / 1000 Ang^3
#
#
#
# Elastic Constant Matrix: (Units=GPa)
#
#
# Indices 1 2 3 4 5 6 
#
# 1 123.8332 37.2429 30.4435 0.0000 0.0000 0.0000
# 2 37.2429 136.3885 51.9444 0.0000 0.0000 0.0000
# 3 30.4435 51.9444 86.1737 0.0000 0.0000 0.0000
# 4 0.0000 0.0000 0.0000 17.1876 0.0000 0.0000
# 5 0.0000 0.0000 0.0000 0.0000 14.3366 0.0000
# 6 0.0000 0.0000 0.0000 0.0000 0.0000 6.1112
#
#
#
# Elastic Compliance Matrix: (Units=1/GPa)
#
#
# Indices 1 2 3 4 5 6 
#
# 1 0.009117 -0.001639 -0.002233 0.000000 0.000000 0.000000
# 2 -0.001639 0.009812 -0.005335 0.000000 0.000000 0.000000
# 3 -0.002233 -0.005335 0.015609 0.000000 0.000000 0.000000
# 4 0.000000 0.000000 0.000000 0.058182 0.000000 0.000000
# 5 0.000000 0.000000 0.000000 0.000000 0.069751 0.000000
# 6 0.000000 0.000000 0.000000 0.000000 0.000000 0.163634
#
#
# Mechanical properties :
#
#
# Convention : Reuss Voigt Hill
#
# Bulk Modulus (GPa) = 62.02084 65.07301 63.54693
# Shear Modulus (GPa) = 14.29002 22.64472 18.46737
#
# Velocity S-wave (km/s) = 2.79496 3.51837 3.17732
# Velocity P-wave (km/s) = 6.65733 7.21652 6.94255
#
# Compressibility (1/GPa) = 0.01612361
#
# Stress axis : x y z
#
# Youngs Moduli (GPa) = 109.68154 101.92073 64.06451
#
# Poissons Ratio (x) = 0.16707 0.14305
# Poissons Ratio (y) = 0.17979 0.34180
# Poissons Ratio (z) = 0.24490 0.54376
#
# Static dielectric constant tensor:
#      x y z
#    x 1.617260 0.000000 0.000000 
#    y 0.000000 1.669610 0.000000 
#    z 0.000000 0.000000 1.614900 
# 
# From -- ./inp_files/54428.got.cif
#   From: 2010.05.17/outbox.cif.g08.bks.cpg/sg66_28_cif.got.tgz:54428.got - 2010.06.03 17:51:23.
