data_PCOD9495333
_publ_section_title
;
Structure prediction by ZEFSAII (Michael W. Deem and Ramdas Pophale) SiO2 
 PCOD9495333
Probable space group: C C C M
;
_chemical_formula_sum "Si O2"
_cell_formula_units_Z 112
_cell_length_a 12.682035
_cell_length_b 21.608810
_cell_length_c 15.661690
_cell_angle_alpha 90.000000
_cell_angle_beta 90.000000
_cell_angle_gamma 90.000000
_cell_volume 4291.987237
_symmetry_space_group_name_H-M "C C C M"
_symmetry_group_IT_number 66
_symmetry_cell_setting 'orthorhombic'
loop_
_space_group_symop_operation_xyz
x,y,z
-x,-y,z
x,-y,1/2-z
-x,y,1/2-z
-x,-y,-z
x,y,-z
-x,y,1/2+z
x,-y,1/2+z
1/2+x,1/2+y,z
1/2-x,1/2-y,z
1/2+x,1/2-y,1/2-z
1/2-x,1/2+y,1/2-z
1/2-x,1/2-y,-z
1/2+x,1/2+y,-z
1/2-x,1/2+y,1/2+z
1/2+x,1/2-y,1/2+z
loop_
_atom_site_type_symbol
_atom_site_label
_atom_site_fract_x
_atom_site_fract_y
_atom_site_fract_z
Si Si1 0.601776 0.624619 0.406335
Si Si2 0.329683 0.482342 0.901850
Si Si3 0.393196 0.028642 0.398577
Si Si4 0.335998 0.826879 0.092708
Si Si5 0.114040 0.657524 0.264193
Si Si6 0.636975 0.628068 0.213231
Si Si7 0.875408 0.245259 0.404673
O O1 0.548424 0.635819 0.500000
O O2 0.622686 0.550627 0.407491
O O3 0.711036 0.663634 0.412798
O O4 0.583547 0.634066 0.305299
O O5 0.211424 0.494777 0.867153
O O6 0.384453 0.435101 0.838257
O O7 0.326696 0.457674 0.000000
O O8 0.392563 0.015528 0.500000
O O9 0.378416 0.102440 0.394020
O O10 0.500000 0.000000 0.363110
O O11 0.368364 0.796623 0.182058
O O12 0.370888 0.803578 0.000000
O O13 0.232709 0.629340 0.273413
O O14 0.093103 0.695445 0.350155
O O15 0.000000 0.624417 0.250000
O O16 0.607499 0.683607 0.149458
O O17 0.917673 0.245559 0.500000
O O18 0.750000 0.250000 0.410917
#
# Coordination Sequence:
#
# PCOD9495333 Si02
#       7
#    16  16  16  16  16  16  16
#     4   8  15  28  43  62  92 123 150 191 237 277
#     4   9  16  25  41  66  94 126 162 196 232 280
#     4   8  14  23  36  57  89 125 156 191 236 279
#     4   8  15  28  42  57  85 120 153 191 237 284
#     4  10  21  32  45  67  91 120 168 214 255 295
#     4  10  18  30  49  67  91 127 170 205 242 292
#     4   9  19  36  52  68  93 123 160 213 264 300
#
# _framework density 26.095137999999999
#
# number of rings (size 3 to 8) (size 9 to 14) (size 15 to 20)
#    0.000    3.143    0.000    2.571    2.000    1.143 
#    0.000    0.714    0.000    4.286    0.000    0.000 
#    0.000    2.286    0.000    8.571    0.000    2.571 
#
# Total GULP energy -312480.785998 kJ/mol
# GULP energy per Si atom -5580.014036 kJ/mol
# Density = 2.603574 g / cm^3
# Si number density = 26.095138 Si / 1000 Ang^3
#
#
#
# Elastic Constant Matrix: (Units=GPa)
#
#
# Indices 1 2 3 4 5 6 
#
# 1 111.0538 29.7188 37.0734 0.0000 0.0000 0.0000
# 2 29.7188 52.7767 40.0874 0.0000 0.0000 0.0000
# 3 37.0734 40.0874 250.2363 0.0000 0.0000 0.0000
# 4 0.0000 0.0000 0.0000 -471.1466 0.0000 0.0000
# 5 0.0000 0.0000 0.0000 0.0000 19.5490 0.0000
# 6 0.0000 0.0000 0.0000 0.0000 0.0000 23.7411
#
#
#
# Elastic Compliance Matrix: (Units=1/GPa)
#
#
# Indices 1 2 3 4 5 6 
#
# 1 0.010711 -0.005495 -0.000707 0.000000 0.000000 0.000000
# 2 -0.005495 0.024391 -0.003093 0.000000 0.000000 0.000000
# 3 -0.000707 -0.003093 0.004596 0.000000 0.000000 0.000000
# 4 0.000000 0.000000 0.000000 -0.002122 0.000000 0.000000
# 5 0.000000 0.000000 0.000000 0.000000 0.051153 0.000000
# 6 0.000000 0.000000 0.000000 0.000000 0.000000 0.042121
#
#
# Mechanical properties :
#
#
# Convention : Reuss Voigt Hill
#
# Bulk Modulus (GPa) = 47.37205 69.75844 58.56524
# Shear Modulus (GPa) = 31.95360 -65.09217 -16.56928
#
# Velocity S-wave (km/s) = 3.50309 -4.99983 -2.52257
# Velocity P-wave (km/s) = 5.87836 2.55748 3.74262
#
# Compressibility (1/GPa) = 0.02110950
#
# Stress axis : x y z
#
# Youngs Moduli (GPa) = 93.36243 40.99795 217.55807
#
# Poissons Ratio (x) = 0.22527 0.15373
# Poissons Ratio (y) = 0.51299 0.67300
# Poissons Ratio (z) = 0.06597 0.12682
#
# Static dielectric constant tensor:
#      x y z
#    x 2.136150 0.000000 0.000000 
#    y 0.000000 2.023840 0.000000 
#    z 0.000000 0.000000 2.104030 
# 
# From -- ./inp_files/28725.got.cif
#   From: 2010.05.17/outbox.cif.g08.bks.cpg/sg66_15_cif.got.tgz:28725.got - 2010.06.03 17:51:23.
