data_PCOD9495814
_publ_section_title
;
Structure prediction by ZEFSAII (Michael W. Deem and Ramdas Pophale) SiO2 
 PCOD9495814
Probable space group: C C C M
;
_chemical_formula_sum "Si O2"
_cell_formula_units_Z 96
_cell_length_a 33.185327
_cell_length_b 27.511619
_cell_length_c 8.848618
_cell_angle_alpha 90.000000
_cell_angle_beta 90.000000
_cell_angle_gamma 90.000000
_cell_volume 8078.629603
_symmetry_space_group_name_H-M "C C C M"
_symmetry_group_IT_number 66
_symmetry_cell_setting 'orthorhombic'
loop_
_space_group_symop_operation_xyz
x,y,z
-x,-y,z
x,-y,1/2-z
-x,y,1/2-z
-x,-y,-z
x,y,-z
-x,y,1/2+z
x,-y,1/2+z
1/2+x,1/2+y,z
1/2-x,1/2-y,z
1/2+x,1/2-y,1/2-z
1/2-x,1/2+y,1/2-z
1/2-x,1/2-y,-z
1/2+x,1/2+y,-z
1/2-x,1/2+y,1/2+z
1/2+x,1/2-y,1/2+z
loop_
_atom_site_type_symbol
_atom_site_label
_atom_site_fract_x
_atom_site_fract_y
_atom_site_fract_z
Si Si1 0.710032 0.715624 0.826747
Si Si2 0.044074 0.553036 0.317708
Si Si3 0.743039 0.865545 0.327420
Si Si4 0.163285 0.703055 0.826489
Si Si5 0.194331 0.552958 0.320025
Si Si6 0.617812 0.890357 0.316887
O O1 0.750000 0.750000 0.819245
O O2 0.720697 0.668132 0.730147
O O3 0.673868 0.749335 0.768032
O O4 0.704158 0.701934 0.000000
O O5 0.055134 0.500000 0.250000
O O6 0.042924 0.550944 0.500000
O O7 0.077016 0.590714 0.257490
O O8 0.000000 0.564258 0.250000
O O9 0.748943 0.881279 0.500000
O O10 0.703658 0.830385 0.324903
O O11 0.730737 0.910832 0.224132
O O12 0.128915 0.665400 0.775899
O O13 0.155930 0.717023 0.000000
O O14 0.200623 0.500000 0.250000
O O15 0.189374 0.550551 0.500000
O O16 0.154198 0.576216 0.245309
O O17 0.616769 0.893755 0.500000
#
# Coordination Sequence:
#
# PCOD9495814 Si02
#       6
#    16  16  16  16  16  16
#     4   9  15  22  34  51  69  87 108 133 160 194
#     4  11  21  33  46  58  71  88 111 139 172 210
#     4   9  16  26  37  49  66  88 112 136 165 199
#     4   8  15  25  37  51  68  88 107 130 162 200
#     4  11  20  29  39  52  69  89 114 142 174 208
#     4  10  19  31  43  56  72  89 110 137 172 210
#
# _framework density 11.883203
#
# number of rings (size 3 to 8) (size 9 to 14) (size 15 to 20)
#    0.000    2.333    0.000    6.500    0.000    6.667 
#    0.000    0.000    0.000    0.000    0.000    0.000 
#    0.000    0.000    0.000    0.000    0.000    0.000 
#
# Total GULP energy -267419.205797 kJ/mol
# GULP energy per Si atom -5571.233454 kJ/mol
# Density = 1.185616 g / cm^3
# Si number density = 11.883203 Si / 1000 Ang^3
#
#
#
# Elastic Constant Matrix: (Units=GPa)
#
#
# Indices 1 2 3 4 5 6 
#
# 1 46.0960 31.4760 25.4084 0.0000 0.0000 0.0000
# 2 31.4760 39.9442 25.4423 0.0000 0.0000 0.0000
# 3 25.4084 25.4423 81.8301 0.0000 0.0000 0.0000
# 4 0.0000 0.0000 0.0000 19.5993 0.0000 0.0000
# 5 0.0000 0.0000 0.0000 0.0000 13.6147 0.0000
# 6 0.0000 0.0000 0.0000 0.0000 0.0000 22.4950
#
#
#
# Elastic Compliance Matrix: (Units=1/GPa)
#
#
# Indices 1 2 3 4 5 6 
#
# 1 0.047950 -0.035290 -0.003916 0.000000 0.000000 0.000000
# 2 -0.035290 0.057190 -0.006824 0.000000 0.000000 0.000000
# 3 -0.003916 -0.006824 0.015558 0.000000 0.000000 0.000000
# 4 0.000000 0.000000 0.000000 0.051022 0.000000 0.000000
# 5 0.000000 0.000000 0.000000 0.000000 0.073450 0.000000
# 6 0.000000 0.000000 0.000000 0.000000 0.000000 0.044454
#
#
# Mechanical properties :
#
#
# Convention : Reuss Voigt Hill
#
# Bulk Modulus (GPa) = 34.91889 36.94710 35.93300
# Shear Modulus (GPa) = 12.78020 16.84471 14.81245
#
# Velocity S-wave (km/s) = 3.28302 3.76908 3.53442
# Velocity P-wave (km/s) = 6.61965 7.07818 6.85275
#
# Compressibility (1/GPa) = 0.02863779
#
# Stress axis : x y z
#
# Youngs Moduli (GPa) = 20.85508 17.48562 64.27554
#
# Poissons Ratio (x) = 0.61707 0.25172
# Poissons Ratio (y) = 0.73598 0.43859
# Poissons Ratio (z) = 0.08167 0.11931
#
# Static dielectric constant tensor:
#      x y z
#    x 1.372050 0.000000 0.000000 
#    y 0.000000 1.382850 0.000000 
#    z 0.000000 0.000000 1.397810 
# 
# From -- ./inp_files/10645.got.cif
#   From: 2010.05.17/outbox.cif.g08.bks.cpg/sg66_6_cif.got.tgz:10645.got - 2010.06.03 17:51:23.
