data_PCOD9495096
_publ_section_title
;
Structure prediction by ZEFSAII (Michael W. Deem and Ramdas Pophale) SiO2 
 PCOD9495096
Probable space group: C C C M
;
_chemical_formula_sum "Si O2"
_cell_formula_units_Z 96
_cell_length_a 18.942280
_cell_length_b 13.052002
_cell_length_c 20.313563
_cell_angle_alpha 90.000000
_cell_angle_beta 90.000000
_cell_angle_gamma 90.000000
_cell_volume 5022.217176
_symmetry_space_group_name_H-M "C C C M"
_symmetry_group_IT_number 66
_symmetry_cell_setting 'orthorhombic'
loop_
_space_group_symop_operation_xyz
x,y,z
-x,-y,z
x,-y,1/2-z
-x,y,1/2-z
-x,-y,-z
x,y,-z
-x,y,1/2+z
x,-y,1/2+z
1/2+x,1/2+y,z
1/2-x,1/2-y,z
1/2+x,1/2-y,1/2-z
1/2-x,1/2+y,1/2-z
1/2-x,1/2-y,-z
1/2+x,1/2+y,-z
1/2-x,1/2+y,1/2+z
1/2+x,1/2-y,1/2+z
loop_
_atom_site_type_symbol
_atom_site_label
_atom_site_fract_x
_atom_site_fract_y
_atom_site_fract_z
Si Si1 0.405962 0.599849 0.293950
Si Si2 0.762665 0.590876 0.199736
Si Si3 0.189675 0.335733 0.927397
Si Si4 0.547330 0.299146 0.424946
Si Si5 0.511665 0.886765 0.639680
Si Si6 0.602311 0.180244 0.251262
O O1 0.422031 0.500000 0.250000
O O2 0.321363 0.600703 0.307214
O O3 0.444393 0.620108 0.364557
O O4 0.419477 0.700987 0.250268
O O5 0.774650 0.500000 0.250000
O O6 0.795855 0.580347 0.127453
O O7 0.815512 0.676198 0.229782
O O8 0.250000 0.250000 0.918766
O O9 0.118486 0.270222 0.922312
O O10 0.193986 0.380194 0.000000
O O11 0.540200 0.339069 0.500000
O O12 0.490123 0.211214 0.408120
O O13 0.446881 0.869217 0.691722
O O14 0.581077 0.877159 0.684838
O O15 0.500000 0.000000 0.610632
#
# Coordination Sequence:
#
# PCOD9495096 Si02
#       6
#    16  16  16  16  16  16
#     4  10  20  32  51  78 104 133 178 227 271 312
#     4  11  18  28  50  78 108 139 173 216 269 326
#     4  10  17  29  49  74 109 140 167 210 267 319
#     4  10  20  34  53  76 109 141 173 222 270 314
#     4  10  19  31  50  74 102 139 175 207 257 315
#     4  10  18  31  47  69 106 137 172 217 258 309
#
# _framework density 19.115064
#
# number of rings (size 3 to 8) (size 9 to 14) (size 15 to 20)
#    0.000    1.833    5.000    2.500    0.000    0.333 
#    0.000    6.667    0.000    2.000    0.000    0.000 
#    0.000    7.667    0.000    0.000    0.000    0.000 
#
# Total GULP energy -267270.875401 kJ/mol
# GULP energy per Si atom -5568.143238 kJ/mol
# Density = 1.907156 g / cm^3
# Si number density = 19.115064 Si / 1000 Ang^3
#
#
#
# Elastic Constant Matrix: (Units=GPa)
#
#
# Indices 1 2 3 4 5 6 
#
# 1 59.1241 -3.6342 11.5239 0.0000 0.0000 0.0000
# 2 -3.6342 101.0294 50.0751 0.0000 0.0000 0.0000
# 3 11.5239 50.0751 133.7279 0.0000 0.0000 0.0000
# 4 0.0000 0.0000 0.0000 26.6513 0.0000 0.0000
# 5 0.0000 0.0000 0.0000 0.0000 8.2684 0.0000
# 6 0.0000 0.0000 0.0000 0.0000 0.0000 19.2479
#
#
#
# Elastic Compliance Matrix: (Units=1/GPa)
#
#
# Indices 1 2 3 4 5 6 
#
# 1 0.017433 0.001684 -0.002133 0.000000 0.000000 0.000000
# 2 0.001684 0.012317 -0.004757 0.000000 0.000000 0.000000
# 3 -0.002133 -0.004757 0.009443 0.000000 0.000000 0.000000
# 4 0.000000 0.000000 0.000000 0.037522 0.000000 0.000000
# 5 0.000000 0.000000 0.000000 0.000000 0.120942 0.000000
# 6 0.000000 0.000000 0.000000 0.000000 0.000000 0.051954
#
#
# Mechanical properties :
#
#
# Convention : Reuss Voigt Hill
#
# Bulk Modulus (GPa) = 34.74539 45.53457 40.13998
# Shear Modulus (GPa) = 18.54493 26.56129 22.55311
#
# Velocity S-wave (km/s) = 3.11814 3.73171 3.43864
# Velocity P-wave (km/s) = 5.58392 6.51464 6.06715
#
# Compressibility (1/GPa) = 0.02878080
#
# Stress axis : x y z
#
# Youngs Moduli (GPa) = 57.36298 81.19145 105.89838
#
# Poissons Ratio (x) = -0.13675 0.22588
# Poissons Ratio (y) = -0.09662 0.50377
# Poissons Ratio (z) = 0.12235 0.38624
#
# Static dielectric constant tensor:
#      x y z
#    x 1.715780 0.000000 0.000000 
#    y 0.000000 1.697550 0.000000 
#    z 0.000000 0.000000 1.706620 
# 
# From -- ./inp_files/59501.got.cif
#   From: 2010.05.17/outbox.cif.g08.bks.cpg/sg66_30_cif.got.tgz:59501.got - 2010.06.03 17:51:23.
