data_PCOD9495126
_publ_section_title
;
Structure prediction by ZEFSAII (Michael W. Deem and Ramdas Pophale) SiO2 
 PCOD9495126
Probable space group: C C C M
;
_chemical_formula_sum "Si O2"
_cell_formula_units_Z 60
_cell_length_a 14.493709
_cell_length_b 13.032869
_cell_length_c 13.478342
_cell_angle_alpha 90.000000
_cell_angle_beta 90.000000
_cell_angle_gamma 90.000000
_cell_volume 2545.986165
_symmetry_space_group_name_H-M "C C C M"
_symmetry_group_IT_number 66
_symmetry_cell_setting 'orthorhombic'
loop_
_space_group_symop_operation_xyz
x,y,z
-x,-y,z
x,-y,1/2-z
-x,y,1/2-z
-x,-y,-z
x,y,-z
-x,y,1/2+z
x,-y,1/2+z
1/2+x,1/2+y,z
1/2-x,1/2-y,z
1/2+x,1/2-y,1/2-z
1/2-x,1/2+y,1/2-z
1/2-x,1/2-y,-z
1/2+x,1/2+y,-z
1/2-x,1/2+y,1/2+z
1/2+x,1/2-y,1/2+z
loop_
_atom_site_type_symbol
_atom_site_label
_atom_site_fract_x
_atom_site_fract_y
_atom_site_fract_z
Si Si1 0.652169 0.130073 0.385151
Si Si2 0.500000 0.858956 0.750000
Si Si3 0.141004 0.219550 0.613729
Si Si4 0.151050 0.868747 0.684808
Si Si5 0.500000 0.500000 0.250000
O O1 0.636494 0.116412 0.500000
O O2 0.571875 0.083910 0.319743
O O3 0.753090 0.090309 0.356556
O O4 0.647964 0.252469 0.357708
O O5 0.567131 0.794122 0.671986
O O6 0.111317 0.202406 0.500000
O O7 0.250000 0.250000 0.608719
O O8 0.151520 0.130685 0.695220
O O9 0.057458 0.929037 0.673030
#
# Coordination Sequence:
#
# PCOD9495126 Si02
#       5
#    16   8  16  16   4
#     4  10  19  36  63  88 117 164 220 261 295 367
#     4  10  17  30  52  88 109 138 200 260 307 342
#     4  10  18  32  56  84 117 155 203 258 301 351
#     4  10  19  38  53  85 123 166 206 246 309 374
#     4  12  26  36  62  90 142 168 188 256 332 378
#
# _framework density 23.566506
#
# number of rings (size 3 to 8) (size 9 to 14) (size 15 to 20)
#    0.000    1.867    5.333    5.600    0.000    0.000 
#    0.000    7.333    0.000    0.800    0.000    1.867 
#    0.000    0.000    0.000    0.000    0.000    0.000 
#
# Total GULP energy -167043.743456 kJ/mol
# GULP energy per Si atom -5568.124782 kJ/mol
# Density = 2.351287 g / cm^3
# Si number density = 23.566506 Si / 1000 Ang^3
#
#
#
# Elastic Constant Matrix: (Units=GPa)
#
#
# Indices 1 2 3 4 5 6 
#
# 1 176.3963 32.1095 66.4753 0.0000 0.0000 0.0000
# 2 32.1095 46.0439 13.1851 0.0000 0.0000 0.0000
# 3 66.4753 13.1851 222.4253 0.0000 0.0000 0.0000
# 4 0.0000 0.0000 0.0000 1.0594 0.0000 0.0000
# 5 0.0000 0.0000 0.0000 0.0000 11.0864 0.0000
# 6 0.0000 0.0000 0.0000 0.0000 0.0000 32.4613
#
#
#
# Elastic Compliance Matrix: (Units=1/GPa)
#
#
# Indices 1 2 3 4 5 6 
#
# 1 0.007194 -0.004477 -0.001885 0.000000 0.000000 0.000000
# 2 -0.004477 0.024880 -0.000137 0.000000 0.000000 0.000000
# 3 -0.001885 -0.000137 0.005067 0.000000 0.000000 0.000000
# 4 0.000000 0.000000 0.000000 0.943933 0.000000 0.000000
# 5 0.000000 0.000000 0.000000 0.000000 0.090201 0.000000
# 6 0.000000 0.000000 0.000000 0.000000 0.000000 0.030806
#
#
# Mechanical properties :
#
#
# Convention : Reuss Voigt Hill
#
# Bulk Modulus (GPa) = 41.41834 74.26728 57.84281
# Shear Modulus (GPa) = 4.45186 31.12779 17.78982
#
# Velocity S-wave (km/s) = 1.37592 3.63829 2.75048
# Velocity P-wave (km/s) = 4.48748 7.01654 5.88937
#
# Compressibility (1/GPa) = 0.02414389
#
# Stress axis : x y z
#
# Youngs Moduli (GPa) = 138.99819 40.19301 197.34472
#
# Poissons Ratio (x) = 0.17996 0.37194
# Poissons Ratio (y) = 0.62235 0.02698
# Poissons Ratio (z) = 0.26197 0.00550
#
# Static dielectric constant tensor:
#      x y z
#    x 2.179630 0.000000 0.000000 
#    y 0.000000 2.130880 0.000000 
#    z 0.000000 0.000000 1.876180 
# 
# From -- ./inp_files/27762.got.cif
#   From: 2010.05.17/outbox.cif.g08.bks.cpg/sg66_14_cif.got.tgz:27762.got - 2010.06.03 17:51:23.
