data_PCOD9495757
_publ_section_title
;
Structure prediction by ZEFSAII (Michael W. Deem and Ramdas Pophale) SiO2 
 PCOD9495757
Probable space group: C C C M
;
_chemical_formula_sum "Si O2"
_cell_formula_units_Z 96
_cell_length_a 25.760948
_cell_length_b 18.393980
_cell_length_c 14.042253
_cell_angle_alpha 90.000000
_cell_angle_beta 90.000000
_cell_angle_gamma 90.000000
_cell_volume 6653.870502
_symmetry_space_group_name_H-M "C C C M"
_symmetry_group_IT_number 66
_symmetry_cell_setting 'orthorhombic'
loop_
_space_group_symop_operation_xyz
x,y,z
-x,-y,z
x,-y,1/2-z
-x,y,1/2-z
-x,-y,-z
x,y,-z
-x,y,1/2+z
x,-y,1/2+z
1/2+x,1/2+y,z
1/2-x,1/2-y,z
1/2+x,1/2-y,1/2-z
1/2-x,1/2+y,1/2-z
1/2-x,1/2-y,-z
1/2+x,1/2+y,-z
1/2-x,1/2+y,1/2+z
1/2+x,1/2-y,1/2+z
loop_
_atom_site_type_symbol
_atom_site_label
_atom_site_fract_x
_atom_site_fract_y
_atom_site_fract_z
Si Si1 0.240207 0.924733 0.000000
Si Si2 0.661285 0.371117 0.295131
Si Si3 0.843579 0.947526 0.000000
Si Si4 0.772310 0.422398 0.210938
Si Si5 0.425016 0.421362 0.500000
Si Si6 0.658450 0.706838 0.500000
Si Si7 0.051539 0.081504 0.290194
Si Si8 0.689792 0.229581 0.801722
O O1 0.205042 0.997194 0.000000
O O2 0.271309 0.924645 0.097114
O O3 0.205958 0.851123 0.000000
O O4 0.656765 0.400178 0.403144
O O5 0.712689 0.407973 0.247388
O O6 0.608251 0.389010 0.238534
O O7 0.669986 0.285593 0.278058
O O8 0.890887 0.004879 0.000000
O O9 0.789104 0.500000 0.250000
O O10 0.807764 0.352951 0.234476
O O11 0.389748 0.348640 0.500000
O O12 0.455635 0.420810 0.402679
O O13 0.661914 0.753502 0.597241
O O14 0.000000 0.119646 0.250000
O O15 0.052738 0.000000 0.250000
O O16 0.750000 0.250000 0.820116
#
# Coordination Sequence:
#
# PCOD9495757 Si02
#       8
#     8  16   8  16   8   8  16  16
#     4  11  17  26  45  68  85 120 160 192 237 269
#     4  11  19  34  45  66  90 128 161 197 237 275
#     4  11  20  28  50  63  87 132 168 194 229 281
#     4  11  20  31  47  67  95 121 159 196 237 286
#     4  11  20  32  52  72  90 126 169 204 230 278
#     4  11  16  28  50  70  92 113 165 206 236 270
#     4  11  22  33  48  67  97 127 159 200 240 274
#     4  10  19  29  47  69  91 121 158 199 239 281
#
# _framework density 14.427693
#
# number of rings (size 3 to 8) (size 9 to 14) (size 15 to 20)
#    0.000    1.167    8.333    2.250    0.000    2.000 
#    0.000    4.583    0.000    0.000    0.000    0.000 
#    0.000    0.667    0.000    1.500    0.000    0.000 
#
# Total GULP energy -267450.958155 kJ/mol
# GULP energy per Si atom -5571.894962 kJ/mol
# Density = 1.439485 g / cm^3
# Si number density = 14.427693 Si / 1000 Ang^3
#
#
#
# Elastic Constant Matrix: (Units=GPa)
#
#
# Indices 1 2 3 4 5 6 
#
# 1 35.1130 24.6483 26.8729 0.0000 0.0000 0.0000
# 2 24.6483 108.9584 32.6832 0.0000 0.0000 0.0000
# 3 26.8729 32.6832 100.5409 0.0000 0.0000 0.0000
# 4 0.0000 0.0000 0.0000 2.5031 0.0000 0.0000
# 5 0.0000 0.0000 0.0000 0.0000 18.4124 0.0000
# 6 0.0000 0.0000 0.0000 0.0000 0.0000 4.8499
#
#
#
# Elastic Compliance Matrix: (Units=1/GPa)
#
#
# Indices 1 2 3 4 5 6 
#
# 1 0.039440 -0.006382 -0.008467 0.000000 0.000000 0.000000
# 2 -0.006382 0.011202 -0.001936 0.000000 0.000000 0.000000
# 3 -0.008467 -0.001936 0.012838 0.000000 0.000000 0.000000
# 4 0.000000 0.000000 0.000000 0.399509 0.000000 0.000000
# 5 0.000000 0.000000 0.000000 0.000000 0.054311 0.000000
# 6 0.000000 0.000000 0.000000 0.000000 0.000000 0.206192
#
#
# Mechanical properties :
#
#
# Convention : Reuss Voigt Hill
#
# Bulk Modulus (GPa) = 33.43276 45.89120 39.66198
# Shear Modulus (GPa) = 6.51863 15.84693 11.18278
#
# Velocity S-wave (km/s) = 2.12790 3.31776 2.78707
# Velocity P-wave (km/s) = 5.40927 6.82301 6.15685
#
# Compressibility (1/GPa) = 0.02991078
#
# Stress axis : x y z
#
# Youngs Moduli (GPa) = 25.35528 89.26816 77.89075
#
# Poissons Ratio (x) = 0.56973 0.65949
# Poissons Ratio (y) = 0.16182 0.15077
# Poissons Ratio (z) = 0.21468 0.17280
#
# Static dielectric constant tensor:
#      x y z
#    x 1.494650 0.000000 0.000000 
#    y 0.000000 1.499260 0.000000 
#    z 0.000000 0.000000 1.491320 
# 
# From -- ./inp_files/19858.got.cif
#   From: 2010.05.17/outbox.cif.g08.bks.cpg/sg66_10_cif.got.tgz:19858.got - 2010.06.03 17:51:23.
