data_PCOD9495785
_publ_section_title
;
Structure prediction by ZEFSAII (Michael W. Deem and Ramdas Pophale) SiO2 
 PCOD9495785
Probable space group: C C C M
;
_chemical_formula_sum "Si O2"
_cell_formula_units_Z 96
_cell_length_a 22.255704
_cell_length_b 25.913751
_cell_length_c 8.725337
_cell_angle_alpha 90.000000
_cell_angle_beta 90.000000
_cell_angle_gamma 90.000000
_cell_volume 5032.152891
_symmetry_space_group_name_H-M "C C C M"
_symmetry_group_IT_number 66
_symmetry_cell_setting 'orthorhombic'
loop_
_space_group_symop_operation_xyz
x,y,z
-x,-y,z
x,-y,1/2-z
-x,y,1/2-z
-x,-y,-z
x,y,-z
-x,y,1/2+z
x,-y,1/2+z
1/2+x,1/2+y,z
1/2-x,1/2-y,z
1/2+x,1/2-y,1/2-z
1/2-x,1/2+y,1/2-z
1/2-x,1/2-y,-z
1/2+x,1/2+y,-z
1/2-x,1/2+y,1/2+z
1/2+x,1/2-y,1/2+z
loop_
_atom_site_type_symbol
_atom_site_label
_atom_site_fract_x
_atom_site_fract_y
_atom_site_fract_z
Si Si1 0.310592 0.443633 0.684262
Si Si2 0.169575 0.444277 0.683967
Si Si3 0.274893 0.193516 0.329161
Si Si4 0.938165 0.631292 0.317928
Si Si5 0.347417 0.343012 0.183676
Si Si6 0.893085 0.268217 0.319956
O O1 0.325331 0.500000 0.750000
O O2 0.312958 0.442827 0.500000
O O3 0.239547 0.434696 0.728520
O O4 0.356093 0.400266 0.749638
O O5 0.152560 0.500000 0.750000
O O6 0.168227 0.447230 0.500000
O O7 0.120999 0.401110 0.733088
O O8 0.291207 0.171643 0.500000
O O9 0.250000 0.250000 0.357143
O O10 0.219200 0.166937 0.248797
O O11 0.329131 0.204656 0.215149
O O12 0.940378 0.628471 0.500000
O O13 0.934255 0.691491 0.269697
O O14 0.000000 0.609496 0.250000
O O15 0.386576 0.292114 0.229961
O O16 0.347776 0.343919 0.000000
O O17 0.906694 0.268917 0.500000
#
# Coordination Sequence:
#
# PCOD9495785 Si02
#       6
#    16  16  16  16  16  16
#     4  10  19  32  50  73 102 135 170 206 247 295
#     4   9  20  36  53  72  95 128 168 210 253 297
#     4   9  16  26  42  65  92 122 155 190 231 284
#     4  11  23  38  54  73  97 126 166 214 263 309
#     4  10  19  30  46  70  99 130 164 200 242 296
#     4  10  20  33  49  70  96 126 161 203 252 302
#
# _framework density 19.077321999999999
#
# number of rings (size 3 to 8) (size 9 to 14) (size 15 to 20)
#    0.000    2.167    0.000    3.500    0.000    7.667 
#    0.000    1.667    0.000    0.000    0.000    0.000 
#    0.000    0.667    0.000    7.000    0.000    3.000 
#
# Total GULP energy -267212.331312 kJ/mol
# GULP energy per Si atom -5566.923569 kJ/mol
# Density = 1.903390 g / cm^3
# Si number density = 19.077322 Si / 1000 Ang^3
#
#
#
# Elastic Constant Matrix: (Units=GPa)
#
#
# Indices 1 2 3 4 5 6 
#
# 1 10.8584 26.5554 0.7572 0.0000 0.0000 0.0000
# 2 26.5554 157.4982 38.5081 0.0000 0.0000 0.0000
# 3 0.7572 38.5081 46.3685 0.0000 0.0000 0.0000
# 4 0.0000 0.0000 0.0000 29.9588 0.0000 0.0000
# 5 0.0000 0.0000 0.0000 0.0000 17.9219 0.0000
# 6 0.0000 0.0000 0.0000 0.0000 0.0000 2.3700
#
#
#
# Elastic Compliance Matrix: (Units=1/GPa)
#
#
# Indices 1 2 3 4 5 6 
#
# 1 0.182123 -0.037619 0.028268 0.000000 0.000000 0.000000
# 2 -0.037619 0.015737 -0.012455 0.000000 0.000000 0.000000
# 3 0.028268 -0.012455 0.031449 0.000000 0.000000 0.000000
# 4 0.000000 0.000000 0.000000 0.033379 0.000000 0.000000
# 5 0.000000 0.000000 0.000000 0.000000 0.055798 0.000000
# 6 0.000000 0.000000 0.000000 0.000000 0.000000 0.421932
#
#
# Mechanical properties :
#
#
# Convention : Reuss Voigt Hill
#
# Bulk Modulus (GPa) = 5.38513 38.48516 21.93515
# Shear Modulus (GPa) = 5.91065 19.97713 12.94389
#
# Velocity S-wave (km/s) = 1.76210 3.23951 2.60762
# Velocity P-wave (km/s) = 2.63987 5.84889 4.53754
#
# Compressibility (1/GPa) = 0.18569647
#
# Stress axis : x y z
#
# Youngs Moduli (GPa) = 5.49078 63.54298 31.79790
#
# Poissons Ratio (x) = 2.39041 -0.89885
# Poissons Ratio (y) = 0.20656 0.39605
# Poissons Ratio (z) = -0.15521 0.79144
#
# Static dielectric constant tensor:
#      x y z
#    x 1.722440 0.000000 0.000000 
#    y 0.000000 1.788780 0.000000 
#    z 0.000000 0.000000 1.651780 
# 
# From -- ./inp_files/10487.got.cif
#   From: 2010.05.17/outbox.cif.g08.bks.cpg/sg66_6_cif.got.tgz:10487.got - 2010.06.03 17:51:23.
