data_PCOD9495658
_publ_section_title
;
Structure prediction by ZEFSAII (Michael W. Deem and Ramdas Pophale) SiO2 
 PCOD9495658
Probable space group: C C C M
;
_chemical_formula_sum "Si O2"
_cell_formula_units_Z 80
_cell_length_a 14.419804
_cell_length_b 11.215695
_cell_length_c 23.653325
_cell_angle_alpha 90.000000
_cell_angle_beta 90.000000
_cell_angle_gamma 90.000000
_cell_volume 3825.407870
_symmetry_space_group_name_H-M "C C C M"
_symmetry_group_IT_number 66
_symmetry_cell_setting 'orthorhombic'
loop_
_space_group_symop_operation_xyz
x,y,z
-x,-y,z
x,-y,1/2-z
-x,y,1/2-z
-x,-y,-z
x,y,-z
-x,y,1/2+z
x,-y,1/2+z
1/2+x,1/2+y,z
1/2-x,1/2-y,z
1/2+x,1/2-y,1/2-z
1/2-x,1/2+y,1/2-z
1/2-x,1/2-y,-z
1/2+x,1/2+y,-z
1/2-x,1/2+y,1/2+z
1/2+x,1/2-y,1/2+z
loop_
_atom_site_type_symbol
_atom_site_label
_atom_site_fract_x
_atom_site_fract_y
_atom_site_fract_z
Si Si1 0.649213 0.200061 0.764665
Si Si2 0.595979 0.430518 0.176067
Si Si3 0.301398 0.970154 0.328934
Si Si4 0.148265 0.199922 0.563872
Si Si5 0.599369 0.033106 0.064786
O O1 0.750000 0.250000 0.779431
O O2 0.589892 0.312410 0.784365
O O3 0.658572 0.148288 0.701182
O O4 0.640734 0.081516 0.802589
O O5 0.500000 0.500000 0.181805
O O6 0.692161 0.506622 0.185937
O O7 0.609545 0.384475 0.111881
O O8 0.320838 0.980842 0.395237
O O9 0.152915 0.149676 0.500000
O O10 0.250000 0.250000 0.579469
O O11 0.094971 0.324201 0.562733
O O12 0.500000 0.000000 0.088972
O O13 0.609457 0.991080 0.000000
#
# Coordination Sequence:
#
# PCOD9495658 Si02
#       5
#    16  16  16  16  16
#     4   9  19  39  61  86 122 167 213 258 322 382
#     4  11  21  37  63  99 139 167 214 276 333 395
#     4  10  19  39  65  89 127 173 215 269 321 395
#     4  10  18  35  65  94 130 178 220 263 321 394
#     4  10  20  36  63  95 125 165 223 272 314 377
#
# _framework density 20.912801999999999
#
# number of rings (size 3 to 8) (size 9 to 14) (size 15 to 20)
#    0.000    2.000    4.000    0.600    0.000    0.400 
#    3.600   14.000    0.000    0.600    0.000    0.000 
#    0.000    0.800    0.000    0.000    0.000    0.000 
#
# Total GULP energy -222988.672648 kJ/mol
# GULP energy per Si atom -5574.716816 kJ/mol
# Density = 2.086520 g / cm^3
# Si number density = 20.912802 Si / 1000 Ang^3
#
#
#
# Elastic Constant Matrix: (Units=GPa)
#
#
# Indices 1 2 3 4 5 6 
#
# 1 106.2463 56.2011 42.8022 0.0000 0.0000 0.0000
# 2 56.2011 92.8403 44.7164 0.0000 0.0000 0.0000
# 3 42.8022 44.7164 137.1103 0.0000 0.0000 0.0000
# 4 0.0000 0.0000 0.0000 39.6608 0.0000 0.0000
# 5 0.0000 0.0000 0.0000 0.0000 20.3377 0.0000
# 6 0.0000 0.0000 0.0000 0.0000 0.0000 34.9465
#
#
#
# Elastic Compliance Matrix: (Units=1/GPa)
#
#
# Indices 1 2 3 4 5 6 
#
# 1 0.014269 -0.007702 -0.001942 0.000000 0.000000 0.000000
# 2 -0.007702 0.016936 -0.003119 0.000000 0.000000 0.000000
# 3 -0.001942 -0.003119 0.008917 0.000000 0.000000 0.000000
# 4 0.000000 0.000000 0.000000 0.025214 0.000000 0.000000
# 5 0.000000 0.000000 0.000000 0.000000 0.049170 0.000000
# 6 0.000000 0.000000 0.000000 0.000000 0.000000 0.028615
#
#
# Mechanical properties :
#
#
# Convention : Reuss Voigt Hill
#
# Bulk Modulus (GPa) = 68.51810 69.29291 68.90550
# Shear Modulus (GPa) = 28.81639 31.82081 30.31860
#
# Velocity S-wave (km/s) = 3.71608 3.90499 3.81171
# Velocity P-wave (km/s) = 7.15871 7.31697 7.23827
#
# Compressibility (1/GPa) = 0.01459468
#
# Stress axis : x y z
#
# Youngs Moduli (GPa) = 70.08308 59.04613 112.14556
#
# Poissons Ratio (x) = 0.45478 0.21783
# Poissons Ratio (y) = 0.53978 0.34978
# Poissons Ratio (z) = 0.13613 0.18416
#
# Static dielectric constant tensor:
#      x y z
#    x 1.870430 0.000000 0.000000 
#    y 0.000000 1.991720 0.000000 
#    z 0.000000 0.000000 1.818790 
# 
# From -- ./inp_files/56547.got.cif
#   From: 2010.05.17/outbox.cif.g08.bks.cpg/sg66_29_cif.got.tgz:56547.got - 2010.06.03 17:51:23.
