data_PCOD9495348
_publ_section_title
;
Structure prediction by ZEFSAII (Michael W. Deem and Ramdas Pophale) SiO2 
 PCOD9495348
Probable space group: C C C M
;
_chemical_formula_sum "Si O2"
_cell_formula_units_Z 96
_cell_length_a 28.523319
_cell_length_b 9.187917
_cell_length_c 16.903609
_cell_angle_alpha 90.000000
_cell_angle_beta 90.000000
_cell_angle_gamma 90.000000
_cell_volume 4429.926910
_symmetry_space_group_name_H-M "C C C M"
_symmetry_group_IT_number 66
_symmetry_cell_setting 'orthorhombic'
loop_
_space_group_symop_operation_xyz
x,y,z
-x,-y,z
x,-y,1/2-z
-x,y,1/2-z
-x,-y,-z
x,y,-z
-x,y,1/2+z
x,-y,1/2+z
1/2+x,1/2+y,z
1/2-x,1/2-y,z
1/2+x,1/2-y,1/2-z
1/2-x,1/2+y,1/2-z
1/2-x,1/2-y,-z
1/2+x,1/2+y,-z
1/2-x,1/2+y,1/2+z
1/2+x,1/2-y,1/2+z
loop_
_atom_site_type_symbol
_atom_site_label
_atom_site_fract_x
_atom_site_fract_y
_atom_site_fract_z
Si Si1 0.267826 0.082541 0.091644
Si Si2 0.512689 0.332467 0.090103
Si Si3 0.597252 0.352390 0.199793
Si Si4 0.951418 0.573609 0.092619
Si Si5 0.666005 0.472263 0.593321
Si Si6 0.860087 0.660591 0.165833
O O1 0.250000 0.250000 0.088389
O O2 0.220174 0.003613 0.118259
O O3 0.311435 0.076201 0.151122
O O4 0.280542 0.043502 0.000000
O O5 0.500000 0.500000 0.095984
O O6 0.551169 0.295646 0.155427
O O7 0.465121 0.243081 0.100357
O O8 0.529583 0.302364 0.000000
O O9 0.585425 0.500000 0.250000
O O10 0.632852 0.412944 0.134797
O O11 0.623061 0.230843 0.252020
O O12 0.902518 0.559700 0.135926
O O13 0.000000 0.500000 0.120418
O O14 0.945951 0.537046 0.000000
O O15 0.664458 0.486397 0.500000
O O16 0.648427 0.308870 0.614353
#
# Coordination Sequence:
#
# PCOD9495348 Si02
#       6
#    16  16  16  16  16  16
#     4   8  14  26  49  77 102 134 177 224 271 325
#     4  10  20  35  55  77 104 145 192 232 277 336
#     4  10  20  30  48  78 111 141 174 227 286 332
#     4  10  21  36  55  79 108 145 188 233 274 322
#     4   9  16  29  52  82 111 138 176 227 280 335
#     4  10  18  30  50  78 111 143 179 224 283 340
#
# _framework density 21.670787000000001
#
# number of rings (size 3 to 8) (size 9 to 14) (size 15 to 20)
#    0.000    2.500    0.000    5.000    0.000    3.667 
#    0.000    1.667    0.000   16.000    0.000    0.000 
#    0.000   60.000    0.000    0.000    0.000    0.000 
#
# Total GULP energy -267864.629528 kJ/mol
# GULP energy per Si atom -5580.513115 kJ/mol
# Density = 2.162146 g / cm^3
# Si number density = 21.670787 Si / 1000 Ang^3
#
#
#
# Elastic Constant Matrix: (Units=GPa)
#
#
# Indices 1 2 3 4 5 6 
#
# 1 129.0685 9.8448 52.9219 0.0000 0.0000 0.0000
# 2 9.8448 30.9857 0.4013 0.0000 0.0000 0.0000
# 3 52.9219 0.4013 61.6886 0.0000 0.0000 0.0000
# 4 0.0000 0.0000 0.0000 14.4799 0.0000 0.0000
# 5 0.0000 0.0000 0.0000 0.0000 20.1249 0.0000
# 6 0.0000 0.0000 0.0000 0.0000 0.0000 19.8425
#
#
#
# Elastic Compliance Matrix: (Units=1/GPa)
#
#
# Indices 1 2 3 4 5 6 
#
# 1 0.012383 -0.003797 -0.010599 0.000000 0.000000 0.000000
# 2 -0.003797 0.033440 0.003040 0.000000 0.000000 0.000000
# 3 -0.010599 0.003040 0.025283 0.000000 0.000000 0.000000
# 4 0.000000 0.000000 0.000000 0.069061 0.000000 0.000000
# 5 0.000000 0.000000 0.000000 0.000000 0.049690 0.000000
# 6 0.000000 0.000000 0.000000 0.000000 0.000000 0.050397
#
#
# Mechanical properties :
#
#
# Convention : Reuss Voigt Hill
#
# Bulk Modulus (GPa) = 20.66347 38.67544 29.66946
# Shear Modulus (GPa) = 17.91488 21.46112 19.68800
#
# Velocity S-wave (km/s) = 2.87833 3.15036 3.01741
# Velocity P-wave (km/s) = 4.53897 5.57840 5.08531
#
# Compressibility (1/GPa) = 0.04839458
#
# Stress axis : x y z
#
# Youngs Moduli (GPa) = 80.75435 29.90434 39.55201
#
# Poissons Ratio (x) = 0.11355 0.41920
# Poissons Ratio (y) = 0.30663 -0.12024
# Poissons Ratio (z) = 0.85589 -0.09091
#
# Static dielectric constant tensor:
#      x y z
#    x 1.799920 0.000000 0.000000 
#    y 0.000000 1.826030 0.000000 
#    z 0.000000 0.000000 1.787350 
# 
# From -- ./inp_files/44237.got.cif
#   From: 2010.05.17/outbox.cif.g08.bks.cpg/sg66_23_cif.got.tgz:44237.got - 2010.06.03 17:51:23.
