data_PCOD9495934
_publ_section_title
;
Structure prediction by ZEFSAII (Michael W. Deem and Ramdas Pophale) SiO2 
 PCOD9495934
Probable space group: C C C M
;
_chemical_formula_sum "Si O2"
_cell_formula_units_Z 96
_cell_length_a 19.886864
_cell_length_b 31.881817
_cell_length_c 8.927133
_cell_angle_alpha 90.000000
_cell_angle_beta 90.000000
_cell_angle_gamma 90.000000
_cell_volume 5660.064411
_symmetry_space_group_name_H-M "C C C M"
_symmetry_group_IT_number 66
_symmetry_cell_setting 'orthorhombic'
loop_
_space_group_symop_operation_xyz
x,y,z
-x,-y,z
x,-y,1/2-z
-x,y,1/2-z
-x,-y,-z
x,y,-z
-x,y,1/2+z
x,-y,1/2+z
1/2+x,1/2+y,z
1/2-x,1/2-y,z
1/2+x,1/2-y,1/2-z
1/2-x,1/2+y,1/2-z
1/2-x,1/2-y,-z
1/2+x,1/2+y,-z
1/2-x,1/2+y,1/2+z
1/2+x,1/2-y,1/2+z
loop_
_atom_site_type_symbol
_atom_site_label
_atom_site_fract_x
_atom_site_fract_y
_atom_site_fract_z
Si Si1 0.426478 0.203404 0.319714
Si Si2 0.927560 0.800051 0.320648
Si Si3 0.181035 0.869708 0.819826
Si Si4 0.171110 0.634677 0.681563
Si Si5 0.338975 0.042370 0.171542
Si Si6 0.324812 0.543020 0.326682
O O1 0.500000 0.195725 0.250000
O O2 0.428103 0.198873 0.500000
O O3 0.408816 0.251929 0.283515
O O4 0.374261 0.171392 0.247257
O O5 0.934209 0.802216 0.500000
O O6 0.871214 0.833451 0.275932
O O7 0.000000 0.809141 0.250000
O O8 0.253320 0.861719 0.744416
O O9 0.156261 0.915096 0.762510
O O10 0.188336 0.870300 0.000000
O O11 0.172574 0.635166 0.500000
O O12 0.143529 0.588635 0.731128
O O13 0.257131 0.041850 0.175284
O O14 0.362759 0.000000 0.250000
O O15 0.360479 0.040402 0.000000
O O16 0.348229 0.500000 0.250000
O O17 0.345402 0.545377 0.500000
#
# Coordination Sequence:
#
# PCOD9495934 Si02
#       6
#    16  16  16  16  16  16
#     4  10  20  36  55  74  97 130 168 207 250 302
#     4   9  20  36  54  74  98 130 169 207 250 303
#     4  10  19  32  50  75 104 133 165 207 253 296
#     4  10  20  33  49  75 105 133 166 206 249 296
#     4   8  15  26  42  65  95 126 159 195 235 283
#     4   9  16  27  44  69  99 132 166 202 244 294
#
# _framework density 16.960937999999999
#
# number of rings (size 3 to 8) (size 9 to 14) (size 15 to 20)
#    0.000    2.667    0.000    3.000    0.000    7.333 
#    0.000    3.333    0.000    1.000    0.000    7.000 
#    0.000    0.000    0.000    0.000    0.000    0.000 
#
# Total GULP energy -267483.269291 kJ/mol
# GULP energy per Si atom -5572.568110 kJ/mol
# Density = 1.692233 g / cm^3
# Si number density = 16.960938 Si / 1000 Ang^3
#
#
#
# Elastic Constant Matrix: (Units=GPa)
#
#
# Indices 1 2 3 4 5 6 
#
# 1 60.3500 88.4935 37.1138 0.0000 0.0000 0.0000
# 2 88.4935 179.4948 67.4809 0.0000 0.0000 0.0000
# 3 37.1138 67.4809 71.3215 0.0000 0.0000 0.0000
# 4 0.0000 0.0000 0.0000 30.9924 0.0000 0.0000
# 5 0.0000 0.0000 0.0000 0.0000 18.8378 0.0000
# 6 0.0000 0.0000 0.0000 0.0000 0.0000 -10.1105
#
#
#
# Elastic Compliance Matrix: (Units=1/GPa)
#
#
# Indices 1 2 3 4 5 6 
#
# 1 0.060976 -0.028144 -0.005102 0.000000 0.000000 0.000000
# 2 -0.028144 0.021637 -0.005827 0.000000 0.000000 0.000000
# 3 -0.005102 -0.005827 0.022189 0.000000 0.000000 0.000000
# 4 0.000000 0.000000 0.000000 0.032266 0.000000 0.000000
# 5 0.000000 0.000000 0.000000 0.000000 0.053085 0.000000
# 6 0.000000 0.000000 0.000000 0.000000 0.000000 -0.098907
#
#
# Mechanical properties :
#
#
# Convention : Reuss Voigt Hill
#
# Bulk Modulus (GPa) = 37.51355 77.48253 57.49804
# Shear Modulus (GPa) = 28.04635 15.81582 21.93108
#
# Velocity S-wave (km/s) = 4.07084 3.05697 3.59978
# Velocity P-wave (km/s) = 6.65292 7.63166 7.15903
#
# Compressibility (1/GPa) = 0.02665704
#
# Stress axis : x y z
#
# Youngs Moduli (GPa) = 16.39983 46.21692 45.06805
#
# Poissons Ratio (x) = 1.30073 0.22993
# Poissons Ratio (y) = 0.46156 0.26259
# Poissons Ratio (z) = 0.08367 0.26928
#
# Static dielectric constant tensor:
#      x y z
#    x 1.539920 0.000000 0.000000 
#    y 0.000000 1.592960 0.000000 
#    z 0.000000 0.000000 1.571700 
# 
# From -- ./inp_files/8050.got.cif
#   From: 2010.05.17/outbox.cif.g08.bks.cpg/sg66_5_cif.got.tgz:8050.got - 2010.06.03 17:51:23.
