data_PCOD9495724
_publ_section_title
;
Structure prediction by ZEFSAII (Michael W. Deem and Ramdas Pophale) SiO2 
 PCOD9495724
Probable space group: C C C M
;
_chemical_formula_sum "Si O2"
_cell_formula_units_Z 96
_cell_length_a 27.408100
_cell_length_b 30.024134
_cell_length_c 8.452146
_cell_angle_alpha 90.000000
_cell_angle_beta 90.000000
_cell_angle_gamma 90.000000
_cell_volume 6955.308700
_symmetry_space_group_name_H-M "C C C M"
_symmetry_group_IT_number 66
_symmetry_cell_setting 'orthorhombic'
loop_
_space_group_symop_operation_xyz
x,y,z
-x,-y,z
x,-y,1/2-z
-x,y,1/2-z
-x,-y,-z
x,y,-z
-x,y,1/2+z
x,-y,1/2+z
1/2+x,1/2+y,z
1/2-x,1/2-y,z
1/2+x,1/2-y,1/2-z
1/2-x,1/2+y,1/2-z
1/2-x,1/2-y,-z
1/2+x,1/2+y,-z
1/2-x,1/2+y,1/2+z
1/2+x,1/2-y,1/2+z
loop_
_atom_site_type_symbol
_atom_site_label
_atom_site_fract_x
_atom_site_fract_y
_atom_site_fract_z
Si Si1 0.212574 0.548035 0.311152
Si Si2 0.646161 0.805494 0.306421
Si Si3 0.400784 0.951725 0.310420
Si Si4 0.257098 0.140157 0.691451
Si Si5 0.053480 0.361255 0.310640
Si Si6 0.800558 0.778382 0.684673
O O1 0.229365 0.500000 0.250000
O O2 0.212547 0.547905 0.500000
O O3 0.155899 0.553599 0.257100
O O4 0.243049 0.589862 0.249802
O O5 0.646477 0.804152 0.500000
O O6 0.691088 0.837694 0.260239
O O7 0.595520 0.827100 0.254741
O O8 0.659362 0.755683 0.248462
O O9 0.401937 0.951362 0.500000
O O10 0.431483 0.910515 0.246287
O O11 0.417675 0.000000 0.250000
O O12 0.255949 0.140686 0.500000
O O13 0.214591 0.173517 0.751019
O O14 0.053629 0.361061 0.500000
O O15 0.000000 0.349696 0.250000
O O16 0.813047 0.785392 0.500000
O O17 0.750000 0.750000 0.687046
#
# Coordination Sequence:
#
# PCOD9495724 Si02
#       6
#    16  16  16  16  16  16
#     4  10  19  28  40  57  79 103 129 158 192 232
#     4   8  14  25  41  59  77  97 122 155 190 227
#     4  10  20  33  46  58  72  94 126 164 204 241
#     4   9  14  24  43  62  78  96 123 155 189 227
#     4  11  21  32  45  59  76  98 127 161 199 239
#     4   7  11  20  38  62  79  93 118 151 184 222
#
# _framework density 13.802406
#
# number of rings (size 3 to 8) (size 9 to 14) (size 15 to 20)
#    0.000    2.833    1.667    3.500    0.000    1.667 
#    0.000    1.667    0.000    6.500    0.000    0.000 
#    0.000    0.000    0.000    0.000    0.000    0.833 
#
# Total GULP energy -267270.415720 kJ/mol
# GULP energy per Si atom -5568.133661 kJ/mol
# Density = 1.377099 g / cm^3
# Si number density = 13.802406 Si / 1000 Ang^3
#
#
#
# Elastic Constant Matrix: (Units=GPa)
#
#
# Indices 1 2 3 4 5 6 
#
# 1 59.2030 61.1552 12.3131 0.0000 0.0000 0.0000
# 2 61.1552 121.5407 17.8782 0.0000 0.0000 0.0000
# 3 12.3131 17.8782 17.0863 0.0000 0.0000 0.0000
# 4 0.0000 0.0000 0.0000 13.4450 0.0000 0.0000
# 5 0.0000 0.0000 0.0000 0.0000 -123.9818 0.0000
# 6 0.0000 0.0000 0.0000 0.0000 0.0000 20.0291
#
#
#
# Elastic Compliance Matrix: (Units=1/GPa)
#
#
# Indices 1 2 3 4 5 6 
#
# 1 0.036140 -0.016964 -0.008293 0.000000 0.000000 0.000000
# 2 -0.016964 0.017688 -0.006282 0.000000 0.000000 0.000000
# 3 -0.008293 -0.006282 0.071076 0.000000 0.000000 0.000000
# 4 0.000000 0.000000 0.000000 0.074377 0.000000 0.000000
# 5 0.000000 0.000000 0.000000 0.000000 -0.008066 0.000000
# 6 0.000000 0.000000 0.000000 0.000000 0.000000 0.049927
#
#
# Mechanical properties :
#
#
# Convention : Reuss Voigt Hill
#
# Bulk Modulus (GPa) = 16.17494 42.28035 29.22764
# Shear Modulus (GPa) = 15.39270 -11.00263 2.19503
#
# Velocity S-wave (km/s) = 3.34311 -2.82645 1.26245
# Velocity P-wave (km/s) = 5.16200 4.47742 4.83185
#
# Compressibility (1/GPa) = 0.06182403
#
# Stress axis : x y z
#
# Youngs Moduli (GPa) = 27.67054 56.53657 14.06943
#
# Poissons Ratio (x) = 0.95910 0.11668
# Poissons Ratio (y) = 0.46941 0.08839
# Poissons Ratio (z) = 0.22947 0.35518
#
# Static dielectric constant tensor:
#      x y z
#    x 1.445620 0.000000 0.000000 
#    y 0.000000 1.474220 0.000000 
#    z 0.000000 0.000000 1.469530 
# 
# From -- ./inp_files/10644.got.cif
#   From: 2010.05.17/outbox.cif.g08.bks.cpg/sg66_6_cif.got.tgz:10644.got - 2010.06.03 17:51:23.
