data_PCOD9495890
_publ_section_title
;
Structure prediction by ZEFSAII (Michael W. Deem and Ramdas Pophale) SiO2 
 PCOD9495890
Probable space group: C C C M
;
_chemical_formula_sum "Si O2"
_cell_formula_units_Z 68
_cell_length_a 10.306987
_cell_length_b 17.897221
_cell_length_c 21.279709
_cell_angle_alpha 90.000000
_cell_angle_beta 90.000000
_cell_angle_gamma 90.000000
_cell_volume 3925.391827
_symmetry_space_group_name_H-M "C C C M"
_symmetry_group_IT_number 66
_symmetry_cell_setting 'orthorhombic'
loop_
_space_group_symop_operation_xyz
x,y,z
-x,-y,z
x,-y,1/2-z
-x,y,1/2-z
-x,-y,-z
x,y,-z
-x,y,1/2+z
x,-y,1/2+z
1/2+x,1/2+y,z
1/2-x,1/2-y,z
1/2+x,1/2-y,1/2-z
1/2-x,1/2+y,1/2-z
1/2-x,1/2-y,-z
1/2+x,1/2+y,-z
1/2-x,1/2+y,1/2+z
1/2+x,1/2-y,1/2+z
loop_
_atom_site_type_symbol
_atom_site_label
_atom_site_fract_x
_atom_site_fract_y
_atom_site_fract_z
Si Si1 0.395848 0.439752 0.372137
Si Si2 0.000000 0.000000 0.750000
Si Si3 0.646739 0.188353 0.576311
Si Si4 0.649196 0.981180 0.075741
Si Si5 0.106184 0.223647 0.424171
O O1 0.500000 0.500000 0.399411
O O2 0.415008 0.450258 0.297452
O O3 0.253424 0.464053 0.393811
O O4 0.424587 0.356707 0.394914
O O5 0.651339 0.187056 0.500000
O O6 0.750000 0.250000 0.597880
O O7 0.676018 0.104088 0.596423
O O8 0.503189 0.216226 0.593572
O O9 0.500000 0.000000 0.090440
O O10 0.662922 0.986380 0.000000
O O11 0.103379 0.215885 0.500000
O O12 0.250000 0.250000 0.406236
#
# Coordination Sequence:
#
# PCOD9495890 Si02
#       5
#    16   4  16  16  16
#     4  10  20  37  58  71 109 145 195 230 262 307
#     4   8  24  40  56  72 100 144 208 250 244 288
#     4   9  17  28  43  73 113 135 157 196 252 326
#     4  10  19  31  52  85 114 136 164 212 279 341
#     4  10  19  31  53  85 113 137 166 215 286 346
#
# _framework density 17.323111000000001
#
# number of rings (size 3 to 8) (size 9 to 14) (size 15 to 20)
#    0.706    1.647    0.000    3.529    0.000    7.529 
#    0.000    0.588    5.176    0.000    0.000    0.000 
#    0.000    0.000    0.000    0.000    0.000    0.000 
#
# Total GULP energy -189472.513600 kJ/mol
# GULP energy per Si atom -5572.720988 kJ/mol
# Density = 1.728368 g / cm^3
# Si number density = 17.323111 Si / 1000 Ang^3
#
#
#
# Elastic Constant Matrix: (Units=GPa)
#
#
# Indices 1 2 3 4 5 6 
#
# 1 56.4727 -23.4547 11.2828 0.0000 0.0000 0.0000
# 2 -23.4547 45.2149 2.1088 0.0000 0.0000 0.0000
# 3 11.2828 2.1088 25.2154 0.0000 0.0000 0.0000
# 4 0.0000 0.0000 0.0000 -7.2036 0.0000 0.0000
# 5 0.0000 0.0000 0.0000 0.0000 5.9229 0.0000
# 6 0.0000 0.0000 0.0000 0.0000 0.0000 33.4807
#
#
#
# Elastic Compliance Matrix: (Units=1/GPa)
#
#
# Indices 1 2 3 4 5 6 
#
# 1 0.026173 0.014179 -0.012897 0.000000 0.000000 0.000000
# 2 0.014179 0.029884 -0.008843 0.000000 0.000000 0.000000
# 3 -0.012897 -0.008843 0.046169 0.000000 0.000000 0.000000
# 4 0.000000 0.000000 0.000000 -0.138819 0.000000 0.000000
# 5 0.000000 0.000000 0.000000 0.000000 0.168837 0.000000
# 6 0.000000 0.000000 0.000000 0.000000 0.000000 0.029868
#
#
# Mechanical properties :
#
#
# Convention : Reuss Voigt Hill
#
# Bulk Modulus (GPa) = 11.48083 11.86409 11.67246
# Shear Modulus (GPa) = 24.24006 15.57106 19.90556
#
# Velocity S-wave (km/s) = 3.74477 3.00135 3.39348
# Velocity P-wave (km/s) = 5.03384 4.34447 4.70181
#
# Compressibility (1/GPa) = 0.08710175
#
# Stress axis : x y z
#
# Youngs Moduli (GPa) = 38.20713 33.46272 21.65969
#
# Poissons Ratio (x) = -0.47445 0.27935
# Poissons Ratio (y) = -0.54172 0.19155
# Poissons Ratio (z) = 0.49276 0.29593
#
# Static dielectric constant tensor:
#      x y z
#    x 1.595940 0.000000 0.000000 
#    y 0.000000 1.581500 0.000000 
#    z 0.000000 0.000000 1.560080 
# 
# From -- ./inp_files/62326.got.cif
#   From: 2010.05.17/outbox.cif.g08.bks.cpg/sg66_32_cif.got.tgz:62326.got - 2010.06.03 17:51:23.
