data_PCOD9495831
_publ_section_title
;
Structure prediction by ZEFSAII (Michael W. Deem and Ramdas Pophale) SiO2 
 PCOD9495831
Probable space group: C C C M
;
_chemical_formula_sum "Si O2"
_cell_formula_units_Z 128
_cell_length_a 28.539516
_cell_length_b 25.915418
_cell_length_c 10.520794
_cell_angle_alpha 90.000000
_cell_angle_beta 90.000000
_cell_angle_gamma 90.000000
_cell_volume 7781.321133
_symmetry_space_group_name_H-M "C C C M"
_symmetry_group_IT_number 66
_symmetry_cell_setting 'orthorhombic'
loop_
_space_group_symop_operation_xyz
x,y,z
-x,-y,z
x,-y,1/2-z
-x,y,1/2-z
-x,-y,-z
x,y,-z
-x,y,1/2+z
x,-y,1/2+z
1/2+x,1/2+y,z
1/2-x,1/2-y,z
1/2+x,1/2-y,1/2-z
1/2-x,1/2+y,1/2-z
1/2-x,1/2-y,-z
1/2+x,1/2+y,-z
1/2-x,1/2+y,1/2+z
1/2+x,1/2-y,1/2+z
loop_
_atom_site_type_symbol
_atom_site_label
_atom_site_fract_x
_atom_site_fract_y
_atom_site_fract_z
Si Si1 0.136902 0.043234 0.648986
Si Si2 0.539517 0.210161 0.851755
Si Si3 0.856941 0.544735 0.350038
Si Si4 0.643161 0.754568 0.654459
Si Si5 0.962254 0.414365 0.855896
Si Si6 0.702544 0.146880 0.845941
Si Si7 0.190112 0.851360 0.154198
Si Si8 0.025446 0.943675 0.135446
O O1 0.147425 0.030896 0.500000
O O2 0.161643 0.096886 0.683203
O O3 0.080483 0.049122 0.656925
O O4 0.151253 0.000000 0.750000
O O5 0.500000 0.224485 0.750000
O O6 0.589031 0.235433 0.815366
O O7 0.544853 0.147717 0.847130
O O8 0.528629 0.222887 0.000000
O O9 0.846042 0.500000 0.250000
O O10 0.848712 0.531713 0.500000
O O11 0.911739 0.559715 0.338096
O O12 0.826008 0.595025 0.317754
O O13 0.645422 0.754705 0.500000
O O14 0.674729 0.802570 0.699141
O O15 0.663999 0.700247 0.699132
O O16 0.000000 0.429727 0.750000
O O17 0.978776 0.425608 0.000000
O O18 0.756181 0.146061 0.801162
O O19 0.703798 0.150015 0.000000
O O20 0.191438 0.848498 0.000000
O O21 0.000000 0.915552 0.250000
O O22 0.018815 0.917567 0.000000
O O23 0.000000 0.000000 0.127605
#
# Coordination Sequence:
#
# PCOD9495831 Si02
#       8
#    16  16  16  16  16  16  16  16
#     4  10  19  31  47  70  99 128 159 197 241 287
#     4   9  16  28  49  74 101 132 163 195 240 296
#     4  10  20  33  49  72 102 132 165 205 247 296
#     4   9  15  28  51  75  99 126 160 205 249 289
#     4   9  17  30  47  69  97 131 166 200 240 290
#     4   9  16  30  50  71  97 129 161 200 253 298
#     4   9  18  29  47  76 100 121 161 211 249 286
#     4   9  15  25  43  64  86 119 160 192 222 272
#
# _framework density 16.449649000000001
#
# number of rings (size 3 to 8) (size 9 to 14) (size 15 to 20)
#    0.000    2.750    2.500    0.375    0.000    2.750 
#    0.000    1.875    0.000    0.750    0.000    0.000 
#    0.000    3.000    0.000    0.000    0.000    0.000 
#
# Total GULP energy -356331.523043 kJ/mol
# GULP energy per Si atom -5567.680048 kJ/mol
# Density = 1.641221 g / cm^3
# Si number density = 16.449649 Si / 1000 Ang^3
#
#
#
# Elastic Constant Matrix: (Units=GPa)
#
#
# Indices 1 2 3 4 5 6 
#
# 1 114.4083 73.4354 43.3319 0.0000 0.0000 0.0000
# 2 73.4354 112.2035 54.1211 0.0000 0.0000 0.0000
# 3 43.3319 54.1211 71.7744 0.0000 0.0000 0.0000
# 4 0.0000 0.0000 0.0000 15.7763 0.0000 0.0000
# 5 0.0000 0.0000 0.0000 0.0000 -1.0130 0.0000
# 6 0.0000 0.0000 0.0000 0.0000 0.0000 5.3876
#
#
#
# Elastic Compliance Matrix: (Units=1/GPa)
#
#
# Indices 1 2 3 4 5 6 
#
# 1 0.015390 -0.008787 -0.002666 0.000000 0.000000 0.000000
# 2 -0.008787 0.019024 -0.009040 0.000000 0.000000 0.000000
# 3 -0.002666 -0.009040 0.022358 0.000000 0.000000 0.000000
# 4 0.000000 0.000000 0.000000 0.063386 0.000000 0.000000
# 5 0.000000 0.000000 0.000000 0.000000 -0.987139 0.000000
# 6 0.000000 0.000000 0.000000 0.000000 0.000000 0.185611
#
#
# Mechanical properties :
#
#
# Convention : Reuss Voigt Hill
#
# Bulk Modulus (GPa) = 63.34196 71.12923 67.23560
# Shear Modulus (GPa) = -7.87249 12.53003 2.32877
#
# Velocity S-wave (km/s) = -2.19002 2.76292 1.19112
# Velocity P-wave (km/s) = 5.67408 7.31524 6.54630
#
# Compressibility (1/GPa) = 0.01578732
#
# Stress axis : x y z
#
# Youngs Moduli (GPa) = 64.97574 52.56633 44.72604
#
# Poissons Ratio (x) = 0.46190 0.11923
# Poissons Ratio (y) = 0.57094 0.40431
# Poissons Ratio (z) = 0.17321 0.47519
#
# Static dielectric constant tensor:
#      x y z
#    x 1.547380 0.000000 0.000000 
#    y 0.000000 1.547320 0.000000 
#    z 0.000000 0.000000 1.571910 
# 
# From -- ./inp_files/20124.got.cif
#   From: 2010.05.17/outbox.cif.g08.bks.cpg/sg66_11_cif.got.tgz:20124.got - 2010.06.03 17:51:23.
