data_PCOD9495642
_publ_section_title
;
Structure prediction by ZEFSAII (Michael W. Deem and Ramdas Pophale) SiO2 
 PCOD9495642
Probable space group: C C C M
;
_chemical_formula_sum "Si O2"
_cell_formula_units_Z 72
_cell_length_a 15.457675
_cell_length_b 9.453120
_cell_length_c 23.706691
_cell_angle_alpha 90.000000
_cell_angle_beta 90.000000
_cell_angle_gamma 90.000000
_cell_volume 3464.098894
_symmetry_space_group_name_H-M "C C C M"
_symmetry_group_IT_number 66
_symmetry_cell_setting 'orthorhombic'
loop_
_space_group_symop_operation_xyz
x,y,z
-x,-y,z
x,-y,1/2-z
-x,y,1/2-z
-x,-y,-z
x,y,-z
-x,y,1/2+z
x,-y,1/2+z
1/2+x,1/2+y,z
1/2-x,1/2-y,z
1/2+x,1/2-y,1/2-z
1/2-x,1/2+y,1/2-z
1/2-x,1/2-y,-z
1/2+x,1/2+y,-z
1/2-x,1/2+y,1/2+z
1/2+x,1/2-y,1/2+z
loop_
_atom_site_type_symbol
_atom_site_label
_atom_site_fract_x
_atom_site_fract_y
_atom_site_fract_z
Si Si1 0.000000 0.763418 0.250000
Si Si2 0.383735 0.871292 0.563988
Si Si3 0.341842 0.265239 0.179146
Si Si4 0.588815 0.200039 0.936506
Si Si5 0.086412 0.934428 0.149204
O O1 0.922835 0.696099 0.212976
O O2 0.948178 0.856729 0.295137
O O3 0.355913 0.833320 0.500000
O O4 0.338177 0.803869 0.617449
O O5 0.484649 0.823033 0.568875
O O6 0.376612 0.040788 0.569712
O O7 0.250000 0.250000 0.209153
O O8 0.358932 0.431343 0.168292
O O9 0.621994 0.314491 0.891992
O O10 0.606967 0.249053 0.000000
O O11 0.000000 0.000000 0.120289
#
# Coordination Sequence:
#
# PCOD9495642 Si02
#       5
#     8  16  16  16  16
#     4  10  21  42  63  80 119 162 201 252 315 366
#     4   9  18  34  56  88 125 156 196 247 300 361
#     4  11  22  38  62  89 118 157 206 256 305 362
#     4   9  17  32  57  86 117 158 202 242 296 364
#     4  10  18  35  59  82 111 154 201 250 298 358
#
# _framework density 20.784625999999999
#
# number of rings (size 3 to 8) (size 9 to 14) (size 15 to 20)
#    0.000    2.222    4.444    4.333    0.000    1.778 
#    0.000    7.778    0.000    2.667    0.000    0.000 
#    0.000    0.889    0.000    0.000    0.000    0.000 
#
# Total GULP energy -200650.453458 kJ/mol
# GULP energy per Si atom -5573.623707 kJ/mol
# Density = 2.073732 g / cm^3
# Si number density = 20.784626 Si / 1000 Ang^3
#
#
#
# Elastic Constant Matrix: (Units=GPa)
#
#
# Indices 1 2 3 4 5 6 
#
# 1 80.2541 13.5783 22.0872 0.0000 0.0000 0.0000
# 2 13.5783 35.8434 25.2428 0.0000 0.0000 0.0000
# 3 22.0872 25.2428 107.2141 0.0000 0.0000 0.0000
# 4 0.0000 0.0000 0.0000 37.7144 0.0000 0.0000
# 5 0.0000 0.0000 0.0000 0.0000 6.8612 0.0000
# 6 0.0000 0.0000 0.0000 0.0000 0.0000 12.8990
#
#
#
# Elastic Compliance Matrix: (Units=1/GPa)
#
#
# Indices 1 2 3 4 5 6 
#
# 1 0.013632 -0.003820 -0.001909 0.000000 0.000000 0.000000
# 2 -0.003820 0.034515 -0.007339 0.000000 0.000000 0.000000
# 3 -0.001909 -0.007339 0.011448 0.000000 0.000000 0.000000
# 4 0.000000 0.000000 0.000000 0.026515 0.000000 0.000000
# 5 0.000000 0.000000 0.000000 0.000000 0.145746 0.000000
# 6 0.000000 0.000000 0.000000 0.000000 0.000000 0.077526
#
#
# Mechanical properties :
#
#
# Convention : Reuss Voigt Hill
#
# Bulk Modulus (GPa) = 29.88721 38.34758 34.11739
# Shear Modulus (GPa) = 14.42288 22.32182 18.37235
#
# Velocity S-wave (km/s) = 2.63710 3.28069 2.97634
# Velocity P-wave (km/s) = 4.86652 5.73067 5.31618
#
# Compressibility (1/GPa) = 0.03345913
#
# Stress axis : x y z
#
# Youngs Moduli (GPa) = 73.35638 28.97303 87.34838
#
# Poissons Ratio (x) = 0.11067 0.16675
# Poissons Ratio (y) = 0.28020 0.64108
# Poissons Ratio (z) = 0.14004 0.21264
#
# Static dielectric constant tensor:
#      x y z
#    x 1.853400 0.000000 0.000000 
#    y 0.000000 1.739020 0.000000 
#    z 0.000000 0.000000 1.754440 
# 
# From -- ./inp_files/64983.got.cif
#   From: 2010.05.17/outbox.cif.g08.bks.cpg/sg66_33_cif.got.tgz:64983.got - 2010.06.03 17:51:23.
