data_PCOD9495847
_publ_section_title
;
Structure prediction by ZEFSAII (Michael W. Deem and Ramdas Pophale) SiO2 
 PCOD9495847
Probable space group: C C C M
;
_chemical_formula_sum "Si O2"
_cell_formula_units_Z 88
_cell_length_a 17.468544
_cell_length_b 30.953265
_cell_length_c 7.749003
_cell_angle_alpha 90.000000
_cell_angle_beta 90.000000
_cell_angle_gamma 90.000000
_cell_volume 4189.951569
_symmetry_space_group_name_H-M "C C C M"
_symmetry_group_IT_number 66
_symmetry_cell_setting 'orthorhombic'
loop_
_space_group_symop_operation_xyz
x,y,z
-x,-y,z
x,-y,1/2-z
-x,y,1/2-z
-x,-y,-z
x,y,-z
-x,y,1/2+z
x,-y,1/2+z
1/2+x,1/2+y,z
1/2-x,1/2-y,z
1/2+x,1/2-y,1/2-z
1/2-x,1/2+y,1/2-z
1/2-x,1/2-y,-z
1/2+x,1/2+y,-z
1/2-x,1/2+y,1/2+z
1/2+x,1/2-y,1/2+z
loop_
_atom_site_type_symbol
_atom_site_label
_atom_site_fract_x
_atom_site_fract_y
_atom_site_fract_z
Si Si1 0.588158 0.763604 0.705230
Si Si2 0.000000 0.118302 0.750000
Si Si3 0.242445 0.604802 0.792400
Si Si4 0.133502 0.173483 0.801628
Si Si5 0.413269 0.138611 0.292332
Si Si6 0.618406 0.450450 0.792008
O O1 0.500000 0.753156 0.750000
O O2 0.596968 0.764349 0.500000
O O3 0.638854 0.724473 0.774152
O O4 0.601060 0.812235 0.771954
O O5 0.064828 0.152601 0.688694
O O6 0.061991 0.081915 0.808195
O O7 0.289691 0.647373 0.737377
O O8 0.155664 0.608482 0.728781
O O9 0.295767 0.564457 0.743024
O O10 0.240461 0.604565 0.000000
O O11 0.109898 0.165793 0.000000
O O12 0.500000 0.125995 0.250000
O O13 0.409298 0.140239 0.500000
O O14 0.604199 0.500000 0.750000
O O15 0.607331 0.443269 0.000000
#
# Coordination Sequence:
#
# PCOD9495847 Si02
#       6
#    16   8  16  16  16  16
#     4  10  19  31  49  73 103 139 179 220 263 307
#     4  10  21  34  52  74 108 148 186 212 255 304
#     4   9  20  38  55  74 104 139 173 212 269 325
#     4  11  21  32  50  75 106 143 184 222 256 300
#     4   9  19  36  57  78 101 134 174 219 268 322
#     4  10  21  36  55  78 105 138 174 216 262 316
#
# _framework density 21.00263
#
# number of rings (size 3 to 8) (size 9 to 14) (size 15 to 20)
#    0.000    2.182    0.909    1.909    0.000    8.000 
#    0.000    3.636    0.000    0.545    0.000    3.818 
#    0.000    0.000    0.000    0.000    0.000    0.000 
#
# Total GULP energy -245003.899319 kJ/mol
# GULP energy per Si atom -5568.270439 kJ/mol
# Density = 2.095483 g / cm^3
# Si number density = 21.002630 Si / 1000 Ang^3
#
#
#
# Elastic Constant Matrix: (Units=GPa)
#
#
# Indices 1 2 3 4 5 6 
#
# 1 126.7913 28.5363 4.7270 0.0000 0.0000 0.0000
# 2 28.5363 45.5146 13.0454 0.0000 0.0000 0.0000
# 3 4.7270 13.0454 58.7805 0.0000 0.0000 0.0000
# 4 0.0000 0.0000 0.0000 18.0710 0.0000 0.0000
# 5 0.0000 0.0000 0.0000 0.0000 11.7644 0.0000
# 6 0.0000 0.0000 0.0000 0.0000 0.0000 17.1021
#
#
#
# Elastic Compliance Matrix: (Units=1/GPa)
#
#
# Indices 1 2 3 4 5 6 
#
# 1 0.009201 -0.005934 0.000577 0.000000 0.000000 0.000000
# 2 -0.005934 0.027291 -0.005580 0.000000 0.000000 0.000000
# 3 0.000577 -0.005580 0.018204 0.000000 0.000000 0.000000
# 4 0.000000 0.000000 0.000000 0.055337 0.000000 0.000000
# 5 0.000000 0.000000 0.000000 0.000000 0.085003 0.000000
# 6 0.000000 0.000000 0.000000 0.000000 0.000000 0.058472
#
#
# Mechanical properties :
#
#
# Convention : Reuss Voigt Hill
#
# Bulk Modulus (GPa) = 30.46662 35.96710 33.21686
# Shear Modulus (GPa) = 17.46284 21.70601 19.58443
#
# Velocity S-wave (km/s) = 2.88663 3.21828 3.05696
# Velocity P-wave (km/s) = 5.06436 5.56525 5.32070
#
# Compressibility (1/GPa) = 0.03282281
#
# Stress axis : x y z
#
# Youngs Moduli (GPa) = 108.68344 36.64246 54.93195
#
# Poissons Ratio (x) = 0.21744 -0.03170
# Poissons Ratio (y) = 0.64495 0.30650
# Poissons Ratio (z) = -0.06272 0.20445
#
# Static dielectric constant tensor:
#      x y z
#    x 1.751260 0.000000 0.000000 
#    y 0.000000 1.724930 0.000000 
#    z 0.000000 0.000000 1.862160 
# 
# From -- ./inp_files/7037.got.cif
#   From: 2010.05.17/outbox.cif.g08.bks.cpg/sg66_4_cif.got.tgz:7037.got - 2010.06.03 17:51:23.
