data_PCOD9495045
_publ_section_title
;
Structure prediction by ZEFSAII (Michael W. Deem and Ramdas Pophale) SiO2 
 PCOD9495045
Probable space group: C C C M
;
_chemical_formula_sum "Si O2"
_cell_formula_units_Z 112
_cell_length_a 20.647734
_cell_length_b 20.608317
_cell_length_c 18.070990
_cell_angle_alpha 90.000000
_cell_angle_beta 90.000000
_cell_angle_gamma 90.000000
_cell_volume 7689.478170
_symmetry_space_group_name_H-M "C C C M"
_symmetry_group_IT_number 66
_symmetry_cell_setting 'orthorhombic'
loop_
_space_group_symop_operation_xyz
x,y,z
-x,-y,z
x,-y,1/2-z
-x,y,1/2-z
-x,-y,-z
x,y,-z
-x,y,1/2+z
x,-y,1/2+z
1/2+x,1/2+y,z
1/2-x,1/2-y,z
1/2+x,1/2-y,1/2-z
1/2-x,1/2+y,1/2-z
1/2-x,1/2-y,-z
1/2+x,1/2+y,-z
1/2-x,1/2+y,1/2+z
1/2+x,1/2-y,1/2+z
loop_
_atom_site_type_symbol
_atom_site_label
_atom_site_fract_x
_atom_site_fract_y
_atom_site_fract_z
Si Si1 0.204961 0.811002 0.702077
Si Si2 0.538019 0.366758 0.912603
Si Si3 0.611390 0.378631 0.588032
Si Si4 0.285420 0.849800 0.085915
Si Si5 0.346331 0.719647 0.137670
Si Si6 0.893551 0.016738 0.168282
Si Si7 0.750038 0.934719 0.288920
O O1 0.250000 0.750000 0.682684
O O2 0.160399 0.835072 0.635346
O O3 0.164363 0.788695 0.774591
O O4 0.244032 0.874111 0.732504
O O5 0.462337 0.355255 0.899179
O O6 0.585699 0.310000 0.886216
O O7 0.560916 0.431830 0.871537
O O8 0.547068 0.376296 0.000000
O O9 0.624189 0.378401 0.500000
O O10 0.614793 0.451750 0.620499
O O11 0.333529 0.792898 0.112028
O O12 0.212866 0.820694 0.099801
O O13 0.289810 0.910562 0.140532
O O14 0.293519 0.864293 0.000000
O O15 0.823094 0.048852 0.183082
O O16 0.918826 0.000000 0.250000
O O17 0.726096 0.000000 0.250000
#
# Coordination Sequence:
#
# PCOD9495045 Si02
#       7
#    16  16  16  16  16  16  16
#     4  11  19  36  53  66  92 128 171 207 248 287
#     4  11  21  32  46  69 102 133 165 203 242 286
#     4  11  24  35  45  67  99 137 176 205 229 280
#     4  10  17  27  47  73  96 120 156 203 254 296
#     4  10  17  29  49  71  92 123 158 202 255 300
#     4  11  19  32  48  66  95 134 170 202 241 285
#     4  10  18  32  47  70  95 129 162 199 246 288
#
# _framework density 14.565358
#
# number of rings (size 3 to 8) (size 9 to 14) (size 15 to 20)
#    0.000    1.429    8.571    2.571    0.000    4.857 
#    0.000    0.000    0.000    0.000    0.000    0.000 
#    0.000    2.286    0.000    4.571    0.000    0.000 
#
# Total GULP energy -312363.556319 kJ/mol
# GULP energy per Si atom -5577.920649 kJ/mol
# Density = 1.453221 g / cm^3
# Si number density = 14.565358 Si / 1000 Ang^3
#
#
#
# Elastic Constant Matrix: (Units=GPa)
#
#
# Indices 1 2 3 4 5 6 
#
# 1 52.9736 50.1122 47.4537 0.0000 0.0000 0.0000
# 2 50.1122 109.2758 71.8252 0.0000 0.0000 0.0000
# 3 47.4537 71.8252 127.6553 0.0000 0.0000 0.0000
# 4 0.0000 0.0000 0.0000 22.9707 0.0000 0.0000
# 5 0.0000 0.0000 0.0000 0.0000 6.7219 0.0000
# 6 0.0000 0.0000 0.0000 0.0000 0.0000 16.9584
#
#
#
# Elastic Compliance Matrix: (Units=1/GPa)
#
#
# Indices 1 2 3 4 5 6 
#
# 1 0.036531 -0.012420 -0.006592 0.000000 0.000000 0.000000
# 2 -0.012420 0.018744 -0.005929 0.000000 0.000000 0.000000
# 3 -0.006592 -0.005929 0.013620 0.000000 0.000000 0.000000
# 4 0.000000 0.000000 0.000000 0.043534 0.000000 0.000000
# 5 0.000000 0.000000 0.000000 0.000000 0.148768 0.000000
# 6 0.000000 0.000000 0.000000 0.000000 0.000000 0.058968
#
#
# Mechanical properties :
#
#
# Convention : Reuss Voigt Hill
#
# Bulk Modulus (GPa) = 52.59521 69.85411 61.22466
# Shear Modulus (GPa) = 13.28426 17.36445 15.32435
#
# Velocity S-wave (km/s) = 3.02328 3.45653 3.24714
# Velocity P-wave (km/s) = 6.95523 7.99958 7.49562
#
# Compressibility (1/GPa) = 0.01901314
#
# Stress axis : x y z
#
# Youngs Moduli (GPa) = 27.37370 53.35014 73.42059
#
# Poissons Ratio (x) = 0.66261 0.48397
# Poissons Ratio (y) = 0.33998 0.43534
# Poissons Ratio (z) = 0.18044 0.31633
#
# Static dielectric constant tensor:
#      x y z
#    x 1.466370 0.000000 0.000000 
#    y 0.000000 1.488270 0.000000 
#    z 0.000000 0.000000 1.492790 
# 
# From -- ./inp_files/41971.got.cif
#   From: 2010.05.17/outbox.cif.g08.bks.cpg/sg66_21_cif.got.tgz:41971.got - 2010.06.03 17:51:23.
