data_PCOD9495870
_publ_section_title
;
Structure prediction by ZEFSAII (Michael W. Deem and Ramdas Pophale) SiO2 
 PCOD9495870
Probable space group: C C C M
;
_chemical_formula_sum "Si O2"
_cell_formula_units_Z 48
_cell_length_a 13.971737
_cell_length_b 7.961118
_cell_length_c 19.085794
_cell_angle_alpha 90.000000
_cell_angle_beta 90.000000
_cell_angle_gamma 90.000000
_cell_volume 2122.925214
_symmetry_space_group_name_H-M "C C C M"
_symmetry_group_IT_number 66
_symmetry_cell_setting 'orthorhombic'
loop_
_space_group_symop_operation_xyz
x,y,z
-x,-y,z
x,-y,1/2-z
-x,y,1/2-z
-x,-y,-z
x,y,-z
-x,y,1/2+z
x,-y,1/2+z
1/2+x,1/2+y,z
1/2-x,1/2-y,z
1/2+x,1/2-y,1/2-z
1/2-x,1/2+y,1/2-z
1/2-x,1/2-y,-z
1/2+x,1/2+y,-z
1/2-x,1/2+y,1/2+z
1/2+x,1/2-y,1/2+z
loop_
_atom_site_type_symbol
_atom_site_label
_atom_site_fract_x
_atom_site_fract_y
_atom_site_fract_z
Si Si1 0.309104 0.073343 0.673847
Si Si2 0.034347 0.731127 0.918803
Si Si3 0.151159 0.916902 0.581063
O O1 0.250000 0.250000 0.679990
O O2 0.405251 0.111680 0.630859
O O3 0.327945 0.000000 0.750000
O O4 0.241107 0.947964 0.630075
O O5 0.926472 0.777634 0.897233
O O6 0.092605 0.907292 0.917884
O O7 0.034606 0.676476 0.000000
O O8 0.178135 0.889353 0.500000
#
# Coordination Sequence:
#
# PCOD9495870 Si02
#       3
#    16  16  16
#     4  10  19  31  50  80 119 158 194 239 300 362
#     4   8  14  27  50  80 111 147 196 249 296 347
#     4   8  14  27  50  79 108 144 197 252 295 343
#
# _framework density 22.610310999999999
#
# number of rings (size 3 to 8) (size 9 to 14) (size 15 to 20)
#    0.000    3.333    0.000    3.000    0.000    4.000 
#    0.000   13.333    0.000    8.000    0.000    4.667 
#    0.000   10.667    0.000   24.000    0.000   28.000 
#
# Total GULP energy -134266.111833 kJ/mol
# GULP energy per Si atom -5594.421326 kJ/mol
# Density = 2.255885 g / cm^3
# Si number density = 22.610311 Si / 1000 Ang^3
#
#
#
# Elastic Constant Matrix: (Units=GPa)
#
#
# Indices 1 2 3 4 5 6 
#
# 1 182.7756 87.9044 144.5665 0.0000 0.0000 0.0000
# 2 87.9044 124.8094 64.6391 0.0000 0.0000 0.0000
# 3 144.5665 64.6391 159.8149 0.0000 0.0000 0.0000
# 4 0.0000 0.0000 0.0000 33.5599 0.0000 0.0000
# 5 0.0000 0.0000 0.0000 0.0000 -169.9210 0.0000
# 6 0.0000 0.0000 0.0000 0.0000 0.0000 15.7136
#
#
#
# Elastic Compliance Matrix: (Units=1/GPa)
#
#
# Indices 1 2 3 4 5 6 
#
# 1 0.023136 -0.006902 -0.018137 0.000000 0.000000 0.000000
# 2 -0.006902 0.012194 0.001311 0.000000 0.000000 0.000000
# 3 -0.018137 0.001311 0.022133 0.000000 0.000000 0.000000
# 4 0.000000 0.000000 0.000000 0.029797 0.000000 0.000000
# 5 0.000000 0.000000 0.000000 0.000000 -0.005885 0.000000
# 6 0.000000 0.000000 0.000000 0.000000 0.000000 0.063639
#
#
# Mechanical properties :
#
#
# Convention : Reuss Voigt Hill
#
# Bulk Modulus (GPa) = 99.91657 117.95774 108.93716
# Shear Modulus (GPa) = 25.53542 -12.77683 6.37929
#
# Velocity S-wave (km/s) = 3.36426 -2.37974 1.68153
# Velocity P-wave (km/s) = 7.70569 6.68822 7.21491
#
# Compressibility (1/GPa) = 0.01000835
#
# Stress axis : x y z
#
# Youngs Moduli (GPa) = 43.22263 82.00688 45.18039
#
# Poissons Ratio (x) = 0.56598 0.81944
# Poissons Ratio (y) = 0.29831 -0.05924
# Poissons Ratio (z) = 0.78393 -0.10752
#
# Static dielectric constant tensor:
#      x y z
#    x 1.799590 0.000000 0.000000 
#    y 0.000000 1.921660 0.000000 
#    z 0.000000 0.000000 1.742630 
# 
# From -- ./inp_files/29282.got.cif
#   From: 2010.05.17/outbox.cif.g08.bks.cpg/sg66_15_cif.got.tgz:29282.got - 2010.06.03 17:51:23.
