data_PCOD9495237
_publ_section_title
;
Structure prediction by ZEFSAII (Michael W. Deem and Ramdas Pophale) SiO2 
 PCOD9495237
Probable space group: C C C M
;
_chemical_formula_sum "Si O2"
_cell_formula_units_Z 96
_cell_length_a 34.692617
_cell_length_b 30.390276
_cell_length_c 8.104705
_cell_angle_alpha 90.000000
_cell_angle_beta 90.000000
_cell_angle_gamma 90.000000
_cell_volume 8544.938034
_symmetry_space_group_name_H-M "C C C M"
_symmetry_group_IT_number 66
_symmetry_cell_setting 'orthorhombic'
loop_
_space_group_symop_operation_xyz
x,y,z
-x,-y,z
x,-y,1/2-z
-x,y,1/2-z
-x,-y,-z
x,y,-z
-x,y,1/2+z
x,-y,1/2+z
1/2+x,1/2+y,z
1/2-x,1/2-y,z
1/2+x,1/2-y,1/2-z
1/2-x,1/2+y,1/2-z
1/2-x,1/2-y,-z
1/2+x,1/2+y,-z
1/2-x,1/2+y,1/2+z
1/2+x,1/2-y,1/2+z
loop_
_atom_site_type_symbol
_atom_site_label
_atom_site_fract_x
_atom_site_fract_y
_atom_site_fract_z
Si Si1 0.239275 0.129815 0.311900
Si Si2 0.885280 0.893314 0.194915
Si Si3 0.813442 0.049986 0.196355
Si Si4 0.660491 0.312280 0.183000
Si Si5 0.043592 0.950021 0.303121
Si Si6 0.266359 0.821593 0.500000
Si Si7 0.313488 0.264826 0.000000
O O1 0.254896 0.130289 0.500000
O O2 0.223113 0.081393 0.269017
O O3 0.200557 0.159966 0.315492
O O4 0.265296 0.149363 0.166363
O O5 0.850635 0.928294 0.218310
O O6 0.872188 0.848812 0.284344
O O7 0.924278 0.916004 0.258577
O O8 0.888782 0.883869 0.000000
O O9 0.808030 0.000000 0.250000
O O10 0.820041 0.052250 0.000000
O O11 0.663876 0.278791 0.334838
O O12 0.656424 0.292745 0.000000
O O13 0.045129 0.949195 0.500000
O O14 0.000000 0.939917 0.250000
O O15 0.052567 0.000000 0.250000
O O16 0.299889 0.785459 0.500000
O O17 0.225983 0.794018 0.500000
#
# Coordination Sequence:
#
# PCOD9495237 Si02
#       7
#    16  16  16  16  16   8   8
#     4   8  16  26  34  49  67  85 110 130 156 193
#     4  10  18  28  40  52  67  85 106 135 170 205
#     4  10  19  26  36  52  66  85 111 139 167 199
#     4   9  16  26  39  52  69  86 101 131 160 190
#     4  10  20  30  40  51  66  85 108 138 165 202
#     4   9  16  24  40  48  66  94 100 128 164 181
#     4   9  16  26  36  56  68  81 112 126 150 201
#
# _framework density 11.234722
#
# number of rings (size 3 to 8) (size 9 to 14) (size 15 to 20)
#    0.000    2.667    0.833    3.500    4.667    4.667 
#    0.000    3.333    0.000    0.000    0.000    0.000 
#    0.000    0.000    0.000    0.000    0.000    0.000 
#
# Total GULP energy -267308.235821 kJ/mol
# GULP energy per Si atom -5568.921580 kJ/mol
# Density = 1.120915 g / cm^3
# Si number density = 11.234722 Si / 1000 Ang^3
#
#
#
# Elastic Constant Matrix: (Units=GPa)
#
#
# Indices 1 2 3 4 5 6 
#
# 1 34.3652 29.7470 27.0240 0.0000 0.0000 0.0000
# 2 29.7470 41.1979 29.2379 0.0000 0.0000 0.0000
# 3 27.0240 29.2379 67.5614 0.0000 0.0000 0.0000
# 4 0.0000 0.0000 0.0000 10.3304 0.0000 0.0000
# 5 0.0000 0.0000 0.0000 0.0000 -0.8405 0.0000
# 6 0.0000 0.0000 0.0000 0.0000 0.0000 18.5519
#
#
#
# Elastic Compliance Matrix: (Units=1/GPa)
#
#
# Indices 1 2 3 4 5 6 
#
# 1 0.082376 -0.052095 -0.010405 0.000000 0.000000 0.000000
# 2 -0.052095 0.067978 -0.008581 0.000000 0.000000 0.000000
# 3 -0.010405 -0.008581 0.022677 0.000000 0.000000 0.000000
# 4 0.000000 0.000000 0.000000 0.096802 0.000000 0.000000
# 5 0.000000 0.000000 0.000000 0.000000 -1.189769 0.000000
# 6 0.000000 0.000000 0.000000 0.000000 0.000000 0.053903
#
#
# Mechanical properties :
#
#
# Convention : Reuss Voigt Hill
#
# Bulk Modulus (GPa) = 32.39493 35.01584 33.70539
# Shear Modulus (GPa) = -7.00690 9.41607 1.20458
#
# Velocity S-wave (km/s) = -2.50007 2.89817 1.03659
# Velocity P-wave (km/s) = 4.53469 6.51417 5.61239
#
# Compressibility (1/GPa) = 0.03086903
#
# Stress axis : x y z
#
# Youngs Moduli (GPa) = 12.13945 14.71059 44.09846
#
# Poissons Ratio (x) = 0.76636 0.45884
# Poissons Ratio (y) = 0.63241 0.37839
# Poissons Ratio (z) = 0.12631 0.12622
#
# Static dielectric constant tensor:
#      x y z
#    x 1.343000 0.000000 0.000000 
#    y 0.000000 1.353700 0.000000 
#    z 0.000000 0.000000 1.397450 
# 
# From -- ./inp_files/11834.got.cif
#   From: 2010.05.17/outbox.cif.g08.bks.cpg/sg66_6_cif.got.tgz:11834.got - 2010.06.03 17:51:23.
