data_PCOD9495121
_publ_section_title
;
Structure prediction by ZEFSAII (Michael W. Deem and Ramdas Pophale) SiO2 
 PCOD9495121
Probable space group: C C C M
;
_chemical_formula_sum "Si O2"
_cell_formula_units_Z 88
_cell_length_a 18.503794
_cell_length_b 12.665129
_cell_length_c 19.598561
_cell_angle_alpha 90.000000
_cell_angle_beta 90.000000
_cell_angle_gamma 90.000000
_cell_volume 4592.980351
_symmetry_space_group_name_H-M "C C C M"
_symmetry_group_IT_number 66
_symmetry_cell_setting 'orthorhombic'
loop_
_space_group_symop_operation_xyz
x,y,z
-x,-y,z
x,-y,1/2-z
-x,y,1/2-z
-x,-y,-z
x,y,-z
-x,y,1/2+z
x,-y,1/2+z
1/2+x,1/2+y,z
1/2-x,1/2-y,z
1/2+x,1/2-y,1/2-z
1/2-x,1/2+y,1/2-z
1/2-x,1/2-y,-z
1/2+x,1/2+y,-z
1/2-x,1/2+y,1/2+z
1/2+x,1/2-y,1/2+z
loop_
_atom_site_type_symbol
_atom_site_label
_atom_site_fract_x
_atom_site_fract_y
_atom_site_fract_z
Si Si1 0.287540 0.395614 0.223326
Si Si2 0.019248 0.118170 0.127317
Si Si3 0.133918 0.816163 0.075358
Si Si4 0.000000 0.719670 0.750000
Si Si5 0.176793 0.057923 0.922495
Si Si6 0.651134 0.189022 0.210431
O O1 0.327965 0.500000 0.250000
O O2 0.277740 0.400952 0.142129
O O3 0.331831 0.292880 0.244164
O O4 0.214257 0.388573 0.267284
O O5 0.095930 0.104849 0.089689
O O6 0.951417 0.155795 0.081756
O O7 0.020092 0.202715 0.187689
O O8 0.000000 0.000000 0.152615
O O9 0.154741 0.733174 0.133617
O O10 0.171474 0.930487 0.084657
O O11 0.150422 0.776095 0.000000
O O12 0.070293 0.654723 0.772225
O O13 0.200217 0.082058 0.000000
#
# Coordination Sequence:
#
# PCOD9495121 Si02
#       6
#    16  16  16   8  16  16
#     4  11  21  37  52  75 108 143 175 219 262 316
#     4   9  16  24  45  77 110 140 165 208 266 319
#     4   9  17  30  49  79 110 135 173 218 269 321
#     4  10  17  30  51  76 102 132 186 220 252 312
#     4  10  18  30  50  77 111 144 172 209 266 326
#     4  10  21  34  55  77 101 143 177 221 265 311
#
# _framework density 19.159672
#
# number of rings (size 3 to 8) (size 9 to 14) (size 15 to 20)
#    0.000    2.182    3.636    0.818    0.000    2.182 
#    0.000    5.000    0.000    0.000    0.000    0.000 
#    0.000    4.727    0.000    0.000    0.000    0.000 
#
# Total GULP energy -245341.760233 kJ/mol
# GULP energy per Si atom -5575.949096 kJ/mol
# Density = 1.911606 g / cm^3
# Si number density = 19.159672 Si / 1000 Ang^3
#
#
#
# Elastic Constant Matrix: (Units=GPa)
#
#
# Indices 1 2 3 4 5 6 
#
# 1 75.2318 0.3625 27.6001 0.0000 0.0000 0.0000
# 2 0.3625 27.4034 11.6398 0.0000 0.0000 0.0000
# 3 27.6001 11.6398 160.6775 0.0000 0.0000 0.0000
# 4 0.0000 0.0000 0.0000 15.5920 0.0000 0.0000
# 5 0.0000 0.0000 0.0000 0.0000 -5.4265 0.0000
# 6 0.0000 0.0000 0.0000 0.0000 0.0000 10.5013
#
#
#
# Elastic Compliance Matrix: (Units=1/GPa)
#
#
# Indices 1 2 3 4 5 6 
#
# 1 0.014207 0.000876 -0.002504 0.000000 0.000000 0.000000
# 2 0.000876 0.037704 -0.002882 0.000000 0.000000 0.000000
# 3 -0.002504 -0.002882 0.006862 0.000000 0.000000 0.000000
# 4 0.000000 0.000000 0.000000 0.064135 0.000000 0.000000
# 5 0.000000 0.000000 0.000000 0.000000 -0.184282 0.000000
# 6 0.000000 0.000000 0.000000 0.000000 0.000000 0.095227
#
#
# Mechanical properties :
#
#
# Convention : Reuss Voigt Hill
#
# Bulk Modulus (GPa) = 20.09911 38.05750 29.07830
# Shear Modulus (GPa) = 84.09266 19.04737 51.57002
#
# Velocity S-wave (km/s) = 6.63217 3.15642 5.19368
# Velocity P-wave (km/s) = 8.31629 5.76111 7.15371
#
# Compressibility (1/GPa) = 0.04975344
#
# Stress axis : x y z
#
# Youngs Moduli (GPa) = 70.38997 26.52216 145.71986
#
# Poissons Ratio (x) = -0.02322 0.36484
# Poissons Ratio (y) = -0.06163 0.41993
# Poissons Ratio (z) = 0.17624 0.07643
#
# Static dielectric constant tensor:
#      x y z
#    x 1.751050 0.000000 0.000000 
#    y 0.000000 1.628790 0.000000 
#    z 0.000000 0.000000 1.681300 
# 
# From -- ./inp_files/40500.got.cif
#   From: 2010.05.17/outbox.cif.g08.bks.cpg/sg66_21_cif.got.tgz:40500.got - 2010.06.03 17:51:23.
