data_PCOD9495332
_publ_section_title
;
Structure prediction by ZEFSAII (Michael W. Deem and Ramdas Pophale) SiO2 
 PCOD9495332
Probable space group: C C C M
;
_chemical_formula_sum "Si O2"
_cell_formula_units_Z 88
_cell_length_a 23.747441
_cell_length_b 22.839971
_cell_length_c 9.743636
_cell_angle_alpha 90.000000
_cell_angle_beta 90.000000
_cell_angle_gamma 90.000000
_cell_volume 5284.859146
_symmetry_space_group_name_H-M "C C C M"
_symmetry_group_IT_number 66
_symmetry_cell_setting 'orthorhombic'
loop_
_space_group_symop_operation_xyz
x,y,z
-x,-y,z
x,-y,1/2-z
-x,y,1/2-z
-x,-y,-z
x,y,-z
-x,y,1/2+z
x,-y,1/2+z
1/2+x,1/2+y,z
1/2-x,1/2-y,z
1/2+x,1/2-y,1/2-z
1/2-x,1/2+y,1/2-z
1/2-x,1/2-y,-z
1/2+x,1/2+y,-z
1/2-x,1/2+y,1/2+z
1/2+x,1/2-y,1/2+z
loop_
_atom_site_type_symbol
_atom_site_label
_atom_site_fract_x
_atom_site_fract_y
_atom_site_fract_z
Si Si1 0.842744 0.338861 0.847992
Si Si2 0.744915 0.057712 0.839671
Si Si3 0.750000 0.250000 0.748556
Si Si4 0.821097 0.140322 0.658453
Si Si5 0.946916 0.314525 0.658914
Si Si6 0.948311 0.172904 0.657079
O O1 0.809243 0.399668 0.837362
O O2 0.795944 0.287794 0.831595
O O3 0.889380 0.333854 0.731300
O O4 0.868612 0.333438 0.000000
O O5 0.793313 0.095208 0.763862
O O6 0.735574 0.000000 0.750000
O O7 0.757765 0.045475 0.000000
O O8 0.786026 0.201244 0.667462
O O9 0.818072 0.119998 0.500000
O O10 0.886049 0.151639 0.696091
O O11 0.950619 0.332818 0.500000
O O12 0.946801 0.243646 0.661648
O O13 0.000000 0.334385 0.750000
O O14 0.958450 0.155463 0.500000
O O15 0.000000 0.152677 0.750000
#
# Coordination Sequence:
#
# PCOD9495332 Si02
#       6
#    16  16   8  16  16  16
#     4  10  20  33  51  76 106 137 171 214 258 309
#     4  10  22  38  55  77 102 135 176 215 264 310
#     4  10  18  30  48  76 108 138 172 206 254 312
#     4  10  19  32  52  76 105 137 172 214 255 307
#     4  10  19  32  49  74 106 142 177 209 253 306
#     4   9  18  31  46  72 104 139 174 206 248 302
#
# _framework density 16.651342
#
# number of rings (size 3 to 8) (size 9 to 14) (size 15 to 20)
#    0.000    2.182    1.818    1.636    0.000    5.818 
#    0.000    0.000    0.000    1.091    0.000    7.636 
#    0.000    0.000    0.000    0.000    0.000    0.000 
#
# Total GULP energy -245259.742366 kJ/mol
# GULP energy per Si atom -5574.085054 kJ/mol
# Density = 1.661344 g / cm^3
# Si number density = 16.651342 Si / 1000 Ang^3
#
#
#
# Elastic Constant Matrix: (Units=GPa)
#
#
# Indices 1 2 3 4 5 6 
#
# 1 109.8110 19.4918 72.0809 0.0000 0.0000 0.0000
# 2 19.4918 62.9348 42.8787 0.0000 0.0000 0.0000
# 3 72.0809 42.8787 142.6819 0.0000 0.0000 0.0000
# 4 0.0000 0.0000 0.0000 -262.3727 0.0000 0.0000
# 5 0.0000 0.0000 0.0000 0.0000 31.0006 0.0000
# 6 0.0000 0.0000 0.0000 0.0000 0.0000 10.2404
#
#
#
# Elastic Compliance Matrix: (Units=1/GPa)
#
#
# Indices 1 2 3 4 5 6 
#
# 1 0.013642 0.000591 -0.007070 0.000000 0.000000 0.000000
# 2 0.000591 0.020006 -0.006311 0.000000 0.000000 0.000000
# 3 -0.007070 -0.006311 0.012477 0.000000 0.000000 0.000000
# 4 0.000000 0.000000 0.000000 -0.003811 0.000000 0.000000
# 5 0.000000 0.000000 0.000000 0.000000 0.032257 0.000000
# 6 0.000000 0.000000 0.000000 0.000000 0.000000 0.097653
#
#
# Mechanical properties :
#
#
# Convention : Reuss Voigt Hill
#
# Bulk Modulus (GPa) = 48.66982 64.92560 56.79771
# Shear Modulus (GPa) = 24.43190 -32.16127 -3.86468
#
# Velocity S-wave (km/s) = 3.83464 -4.39960 -1.52512
# Velocity P-wave (km/s) = 6.99272 3.64242 5.57519
#
# Compressibility (1/GPa) = 0.02054661
#
# Stress axis : x y z
#
# Youngs Moduli (GPa) = 73.30270 49.98471 80.14996
#
# Poissons Ratio (x) = -0.02956 0.56662
# Poissons Ratio (y) = -0.04336 0.50583
# Poissons Ratio (z) = 0.51822 0.31546
#
# Static dielectric constant tensor:
#      x y z
#    x 1.550560 0.000000 0.000000 
#    y 0.000000 1.537710 0.000000 
#    z 0.000000 0.000000 1.571540 
# 
# From -- ./inp_files/7779.got.cif
#   From: 2010.05.17/outbox.cif.g08.bks.cpg/sg66_4_cif.got.tgz:7779.got - 2010.06.03 17:51:23.
