data_PCOD9495534
_publ_section_title
;
Structure prediction by ZEFSAII (Michael W. Deem and Ramdas Pophale) SiO2 
 PCOD9495534
Probable space group: C C C M
;
_chemical_formula_sum "Si O2"
_cell_formula_units_Z 128
_cell_length_a 11.648759
_cell_length_b 27.492342
_cell_length_c 22.346447
_cell_angle_alpha 90.000000
_cell_angle_beta 90.000000
_cell_angle_gamma 90.000000
_cell_volume 7156.486888
_symmetry_space_group_name_H-M "C C C M"
_symmetry_group_IT_number 66
_symmetry_cell_setting 'orthorhombic'
loop_
_space_group_symop_operation_xyz
x,y,z
-x,-y,z
x,-y,1/2-z
-x,y,1/2-z
-x,-y,-z
x,y,-z
-x,y,1/2+z
x,-y,1/2+z
1/2+x,1/2+y,z
1/2-x,1/2-y,z
1/2+x,1/2-y,1/2-z
1/2-x,1/2+y,1/2-z
1/2-x,1/2-y,-z
1/2+x,1/2+y,-z
1/2-x,1/2+y,1/2+z
1/2+x,1/2-y,1/2+z
loop_
_atom_site_type_symbol
_atom_site_label
_atom_site_fract_x
_atom_site_fract_y
_atom_site_fract_z
Si Si1 0.761941 0.005000 0.563473
Si Si2 0.378018 0.265624 0.683678
Si Si3 0.804056 0.127972 0.177463
Si Si4 0.157361 0.603249 0.932699
Si Si5 0.441177 0.051654 0.120697
Si Si6 0.626512 0.769766 0.177403
Si Si7 0.379001 0.124721 0.783638
Si Si8 0.870377 0.016722 0.813018
O O1 0.822355 0.015134 0.500000
O O2 0.719044 0.949326 0.562114
O O3 0.823713 0.008398 0.626933
O O4 0.650126 0.038450 0.570000
O O5 0.250000 0.250000 0.659578
O O6 0.381190 0.324241 0.683432
O O7 0.375806 0.245883 0.752120
O O8 0.498724 0.246708 0.655396
O O9 0.730749 0.132194 0.116186
O O10 0.717890 0.127074 0.233462
O O11 0.862367 0.074967 0.179063
O O12 0.035466 0.589072 0.903972
O O13 0.149130 0.623592 0.000000
O O14 0.381090 0.076335 0.177134
O O15 0.500000 0.000000 0.137337
O O16 0.750000 0.750000 0.153492
O O17 0.632401 0.827892 0.175263
O O18 0.500000 0.127950 0.750000
O O19 0.813789 0.000000 0.750000
O O20 0.000000 0.000000 0.809694
#
# Coordination Sequence:
#
# PCOD9495534 Si02
#       8
#    16  16  16  16  16  16  16  16
#     4   9  18  35  53  72 101 146 192 228 266 324
#     4  10  18  33  54  76 106 139 180 226 272 329
#     4  11  20  34  54  77 106 147 175 220 277 328
#     4   9  18  32  51  74 103 138 181 224 271 322
#     4  10  20  31  48  77 111 143 175 222 274 328
#     4  10  19  33  51  80 106 142 181 223 272 341
#     4  12  19  31  51  81 111 140 173 216 278 343
#     4  10  22  37  50  75 115 146 180 226 277 332
#
# _framework density 17.885871999999999
#
# number of rings (size 3 to 8) (size 9 to 14) (size 15 to 20)
#    0.000    1.875    5.000    1.125    0.000    4.000 
#    2.250    0.000    0.000    0.375    0.000    0.000 
#    0.000    2.500    0.000    0.000    0.000    0.000 
#
# Total GULP energy -356275.682754 kJ/mol
# GULP energy per Si atom -5566.807543 kJ/mol
# Density = 1.784516 g / cm^3
# Si number density = 17.885872 Si / 1000 Ang^3
#
#
#
# Elastic Constant Matrix: (Units=GPa)
#
#
# Indices 1 2 3 4 5 6 
#
# 1 91.8693 26.8065 20.2131 0.0000 0.0000 0.0000
# 2 26.8065 79.1369 17.3090 0.0000 0.0000 0.0000
# 3 20.2131 17.3090 87.4637 0.0000 0.0000 0.0000
# 4 0.0000 0.0000 0.0000 35.7342 0.0000 0.0000
# 5 0.0000 0.0000 0.0000 0.0000 85.4608 0.0000
# 6 0.0000 0.0000 0.0000 0.0000 0.0000 32.9621
#
#
#
# Elastic Compliance Matrix: (Units=1/GPa)
#
#
# Indices 1 2 3 4 5 6 
#
# 1 0.012449 -0.003750 -0.002135 0.000000 0.000000 0.000000
# 2 -0.003750 0.014338 -0.001971 0.000000 0.000000 0.000000
# 3 -0.002135 -0.001971 0.012317 0.000000 0.000000 0.000000
# 4 0.000000 0.000000 0.000000 0.027984 0.000000 0.000000
# 5 0.000000 0.000000 0.000000 0.000000 0.011701 0.000000
# 6 0.000000 0.000000 0.000000 0.000000 0.000000 0.030338
#
#
# Mechanical properties :
#
#
# Convention : Reuss Voigt Hill
#
# Bulk Modulus (GPa) = 42.74954 43.01411 42.88183
# Shear Modulus (GPa) = 37.69732 43.77417 40.73574
#
# Velocity S-wave (km/s) = 4.59591 4.95250 4.77753
# Velocity P-wave (km/s) = 7.21916 7.53687 7.37973
#
# Compressibility (1/GPa) = 0.02339206
#
# Stress axis : x y z
#
# Youngs Moduli (GPa) = 80.32808 69.74650 81.19061
#
# Poissons Ratio (x) = 0.26155 0.17333
# Poissons Ratio (y) = 0.30123 0.16001
# Poissons Ratio (z) = 0.17149 0.13745
#
# Static dielectric constant tensor:
#      x y z
#    x 1.646640 0.000000 0.000000 
#    y 0.000000 1.623200 0.000000 
#    z 0.000000 0.000000 1.617070 
# 
# From -- ./inp_files/57419.got.cif
#   From: 2010.05.17/outbox.cif.g08.bks.cpg/sg66_29_cif.got.tgz:57419.got - 2010.06.03 17:51:23.
