data_PCOD9495578
_publ_section_title
;
Structure prediction by ZEFSAII (Michael W. Deem and Ramdas Pophale) SiO2 
 PCOD9495578
Probable space group: C C C M
;
_chemical_formula_sum "Si O2"
_cell_formula_units_Z 64
_cell_length_a 8.895452
_cell_length_b 15.391174
_cell_length_c 21.582229
_cell_angle_alpha 90.000000
_cell_angle_beta 90.000000
_cell_angle_gamma 90.000000
_cell_volume 2954.854257
_symmetry_space_group_name_H-M "C C C M"
_symmetry_group_IT_number 66
_symmetry_cell_setting 'orthorhombic'
loop_
_space_group_symop_operation_xyz
x,y,z
-x,-y,z
x,-y,1/2-z
-x,y,1/2-z
-x,-y,-z
x,y,-z
-x,y,1/2+z
x,-y,1/2+z
1/2+x,1/2+y,z
1/2-x,1/2-y,z
1/2+x,1/2-y,1/2-z
1/2-x,1/2+y,1/2-z
1/2-x,1/2-y,-z
1/2+x,1/2+y,-z
1/2-x,1/2+y,1/2+z
1/2+x,1/2-y,1/2+z
loop_
_atom_site_type_symbol
_atom_site_label
_atom_site_fract_x
_atom_site_fract_y
_atom_site_fract_z
Si Si1 0.250000 0.250000 0.701999
Si Si2 0.671650 0.883847 0.868771
Si Si3 0.500000 0.119982 0.250000
Si Si4 0.324964 0.017046 0.000000
Si Si5 0.521799 0.305123 0.375914
Si Si6 0.642994 0.337204 0.000000
O O1 0.360049 0.183341 0.735254
O O2 0.369356 0.305042 0.662882
O O3 0.571175 0.922657 0.812489
O O4 0.696328 0.933588 0.933996
O O5 0.584226 0.793280 0.882627
O O6 0.841056 0.859607 0.848010
O O7 0.500000 0.000000 0.000000
O O8 0.239400 0.925119 0.000000
O O9 0.467576 0.336726 0.442004
O O10 0.750000 0.250000 0.000000
#
# Coordination Sequence:
#
# PCOD9495578 Si02
#       6
#     8  16   8   8  16   8
#     4  10  18  33  62  99 132 180 232 278 310 398
#     4  10  22  41  63 104 136 178 222 285 337 411
#     4  10  20  36  65  96 136 181 228 274 336 397
#     4  12  27  42  67  94 140 173 226 283 356 405
#     4  10  20  36  67  96 140 175 234 268 335 397
#     4  12  23  40  67  99 127 181 232 281 340 419
#
# _framework density 21.659275000000001
#
# number of rings (size 3 to 8) (size 9 to 14) (size 15 to 20)
#    0.000    1.500    1.250    6.000    3.500    4.000 
#    0.000    0.625    0.000    0.000    6.500    0.000 
#    0.000    0.000    0.000    0.000    0.000    0.000 
#
# Total GULP energy -178365.145727 kJ/mol
# GULP energy per Si atom -5573.910804 kJ/mol
# Density = 2.160998 g / cm^3
# Si number density = 21.659275 Si / 1000 Ang^3
#
#
#
# Elastic Constant Matrix: (Units=GPa)
#
#
# Indices 1 2 3 4 5 6 
#
# 1 204.4655 63.7185 78.2754 0.0000 0.0000 0.0000
# 2 63.7185 79.9705 55.0298 0.0000 0.0000 0.0000
# 3 78.2754 55.0298 149.7579 0.0000 0.0000 0.0000
# 4 0.0000 0.0000 0.0000 -318.5660 0.0000 0.0000
# 5 0.0000 0.0000 0.0000 0.0000 112.9476 0.0000
# 6 0.0000 0.0000 0.0000 0.0000 0.0000 13.5587
#
#
#
# Elastic Compliance Matrix: (Units=1/GPa)
#
#
# Indices 1 2 3 4 5 6 
#
# 1 0.006988 -0.004088 -0.002150 0.000000 0.000000 0.000000
# 2 -0.004088 0.019128 -0.004892 0.000000 0.000000 0.000000
# 3 -0.002150 -0.004892 0.009599 0.000000 0.000000 0.000000
# 4 0.000000 0.000000 0.000000 -0.003139 0.000000 0.000000
# 5 0.000000 0.000000 0.000000 0.000000 0.008854 0.000000
# 6 0.000000 0.000000 0.000000 0.000000 0.000000 0.073753
#
#
# Mechanical properties :
#
#
# Convention : Reuss Voigt Hill
#
# Bulk Modulus (GPa) = 74.32569 92.02682 83.17625
# Shear Modulus (GPa) = 35.22888 -22.60060 6.31414
#
# Velocity S-wave (km/s) = 4.03737 -3.23377 1.70925
# Velocity P-wave (km/s) = 7.49161 5.35141 6.51006
#
# Compressibility (1/GPa) = 0.01345430
#
# Stress axis : x y z
#
# Youngs Moduli (GPa) = 143.10218 52.27836 104.17804
#
# Poissons Ratio (x) = 0.21373 0.22401
# Poissons Ratio (y) = 0.58504 0.50964
# Poissons Ratio (z) = 0.30770 0.25575
#
# Static dielectric constant tensor:
#      x y z
#    x 1.843420 0.000000 0.000000 
#    y 0.000000 1.943810 0.000000 
#    z 0.000000 0.000000 1.940310 
# 
# From -- ./inp_files/55091.got.cif
#   From: 2010.05.17/outbox.cif.g08.bks.cpg/sg66_28_cif.got.tgz:55091.got - 2010.06.03 17:51:23.
