data_PCOD9495962
_publ_section_title
;
Structure prediction by ZEFSAII (Michael W. Deem and Ramdas Pophale) SiO2 
 PCOD9495962
Probable space group: C C C M
;
_chemical_formula_sum "Si O2"
_cell_formula_units_Z 116
_cell_length_a 27.118370
_cell_length_b 27.170392
_cell_length_c 8.931925
_cell_angle_alpha 90.000000
_cell_angle_beta 90.000000
_cell_angle_gamma 90.000000
_cell_volume 6581.191890
_symmetry_space_group_name_H-M "C C C M"
_symmetry_group_IT_number 66
_symmetry_cell_setting 'orthorhombic'
loop_
_space_group_symop_operation_xyz
x,y,z
-x,-y,z
x,-y,1/2-z
-x,y,1/2-z
-x,-y,-z
x,y,-z
-x,y,1/2+z
x,-y,1/2+z
1/2+x,1/2+y,z
1/2-x,1/2-y,z
1/2+x,1/2-y,1/2-z
1/2-x,1/2+y,1/2-z
1/2-x,1/2-y,-z
1/2+x,1/2+y,-z
1/2-x,1/2+y,1/2+z
1/2+x,1/2-y,1/2+z
loop_
_atom_site_type_symbol
_atom_site_label
_atom_site_fract_x
_atom_site_fract_y
_atom_site_fract_z
Si Si1 0.213970 0.676391 0.175557
Si Si2 0.052921 0.680050 0.320901
Si Si3 0.820336 0.421762 0.320674
Si Si4 0.209000 0.950021 0.679091
Si Si5 0.818607 0.158653 0.320109
Si Si6 0.418568 0.922880 0.830312
Si Si7 0.130025 0.245273 0.325248
Si Si8 0.500000 0.000000 0.750000
O O1 0.183454 0.634028 0.260351
O O2 0.266290 0.677962 0.257131
O O3 0.182080 0.725619 0.182415
O O4 0.220734 0.663659 0.000000
O O5 0.051346 0.680269 0.500000
O O6 0.066416 0.625069 0.264645
O O7 0.091460 0.720143 0.260142
O O8 0.000000 0.691602 0.250000
O O9 0.825318 0.423091 0.500000
O O10 0.767017 0.443959 0.278850
O O11 0.868377 0.443488 0.241891
O O12 0.207511 0.953596 0.500000
O O13 0.181705 0.899315 0.721397
O O14 0.189540 0.000000 0.750000
O O15 0.818945 0.162438 0.500000
O O16 0.860786 0.192386 0.249160
O O17 0.462314 0.962771 0.831200
O O18 0.408510 0.906891 0.000000
O O19 0.116619 0.241054 0.500000
#
# Coordination Sequence:
#
# PCOD9495962 Si02
#       8
#    16  16  16  16  16  16  16   4
#     4  10  19  32  52  78 109 143 180 224 273 333
#     4  12  25  42  64  84 109 143 182 231 287 344
#     4  10  21  36  54  77 104 138 182 230 282 338
#     4   9  20  36  53  77 108 146 185 224 270 324
#     4  10  21  35  52  79 114 147 185 228 274 331
#     4  12  25  42  60  78 102 137 183 238 295 347
#     4  11  22  36  56  83 112 144 184 226 276 337
#     4  12  30  44  60  78 106 136 190 248 308 340
#
# _framework density 17.625986999999999
#
# number of rings (size 3 to 8) (size 9 to 14) (size 15 to 20)
#    0.000    1.379    2.069    4.759    0.966    8.276 
#    0.000    0.000    0.000    0.000    0.000    0.000 
#    0.000    0.552    0.000    5.793    0.000    3.172 
#
# Total GULP energy -323916.474730 kJ/mol
# GULP energy per Si atom -5584.766806 kJ/mol
# Density = 1.758587 g / cm^3
# Si number density = 17.625987 Si / 1000 Ang^3
#
#
#
# Elastic Constant Matrix: (Units=GPa)
#
#
# Indices 1 2 3 4 5 6 
#
# 1 52.8406 53.0604 35.7774 0.0000 0.0000 0.0000
# 2 53.0604 124.2917 55.7089 0.0000 0.0000 0.0000
# 3 35.7774 55.7089 115.5959 0.0000 0.0000 0.0000
# 4 0.0000 0.0000 0.0000 17.4763 0.0000 0.0000
# 5 0.0000 0.0000 0.0000 0.0000 18.8627 0.0000
# 6 0.0000 0.0000 0.0000 0.0000 0.0000 22.5782
#
#
#
# Elastic Compliance Matrix: (Units=1/GPa)
#
#
# Indices 1 2 3 4 5 6 
#
# 1 0.034963 -0.012852 -0.004628 0.000000 0.000000 0.000000
# 2 -0.012852 0.014986 -0.003245 0.000000 0.000000 0.000000
# 3 -0.004628 -0.003245 0.011647 0.000000 0.000000 0.000000
# 4 0.000000 0.000000 0.000000 0.057220 0.000000 0.000000
# 5 0.000000 0.000000 0.000000 0.000000 0.053015 0.000000
# 6 0.000000 0.000000 0.000000 0.000000 0.000000 0.044291
#
#
# Mechanical properties :
#
#
# Convention : Reuss Voigt Hill
#
# Bulk Modulus (GPa) = 49.63195 64.64684 57.13940
# Shear Modulus (GPa) = 18.91887 21.66220 20.29054
#
# Velocity S-wave (km/s) = 3.27976 3.50950 3.39657
# Velocity P-wave (km/s) = 6.52395 7.29238 6.91884
#
# Compressibility (1/GPa) = 0.02014831
#
# Stress axis : x y z
#
# Youngs Moduli (GPa) = 28.60132 66.72754 85.86047
#
# Poissons Ratio (x) = 0.85757 0.39734
# Poissons Ratio (y) = 0.36758 0.27859
# Poissons Ratio (z) = 0.13236 0.21651
#
# Static dielectric constant tensor:
#      x y z
#    x 1.619250 0.000000 0.000000 
#    y 0.000000 1.637330 0.000000 
#    z 0.000000 0.000000 1.592800 
# 
# From -- ./inp_files/9410.got.cif
#   From: 2010.05.17/outbox.cif.g08.bks.cpg/sg66_5_cif.got.tgz:9410.got - 2010.06.03 17:51:23.
