data_PCOD9495758
_publ_section_title
;
Structure prediction by ZEFSAII (Michael W. Deem and Ramdas Pophale) SiO2 
 PCOD9495758
Probable space group: C C C M
;
_chemical_formula_sum "Si O2"
_cell_formula_units_Z 96
_cell_length_a 30.421884
_cell_length_b 20.552293
_cell_length_c 9.220382
_cell_angle_alpha 90.000000
_cell_angle_beta 90.000000
_cell_angle_gamma 90.000000
_cell_volume 5764.946788
_symmetry_space_group_name_H-M "C C C M"
_symmetry_group_IT_number 66
_symmetry_cell_setting 'orthorhombic'
loop_
_space_group_symop_operation_xyz
x,y,z
-x,-y,z
x,-y,1/2-z
-x,y,1/2-z
-x,-y,-z
x,y,-z
-x,y,1/2+z
x,-y,1/2+z
1/2+x,1/2+y,z
1/2-x,1/2-y,z
1/2+x,1/2-y,1/2-z
1/2-x,1/2+y,1/2-z
1/2-x,1/2-y,-z
1/2+x,1/2+y,-z
1/2-x,1/2+y,1/2+z
1/2+x,1/2-y,1/2+z
loop_
_atom_site_type_symbol
_atom_site_label
_atom_site_fract_x
_atom_site_fract_y
_atom_site_fract_z
Si Si1 0.131586 0.738757 0.331059
Si Si2 0.456545 0.244313 0.665647
Si Si3 0.275624 0.564463 0.173399
Si Si4 0.455439 0.597070 0.167683
Si Si5 0.634478 0.603809 0.170739
Si Si6 0.216780 0.309351 0.328716
O O1 0.127107 0.723700 0.500000
O O2 0.087322 0.722203 0.245711
O O3 0.136831 0.817335 0.318504
O O4 0.173330 0.703178 0.262995
O O5 0.500000 0.223582 0.750000
O O6 0.457332 0.222824 0.500000
O O7 0.456398 0.323625 0.665233
O O8 0.257953 0.500000 0.250000
O O9 0.323284 0.577840 0.243922
O O10 0.243336 0.624870 0.202192
O O11 0.280001 0.557022 0.000000
O O12 0.500000 0.576491 0.250000
O O13 0.411014 0.580897 0.255236
O O14 0.454327 0.574906 0.000000
O O15 0.635506 0.586519 0.000000
O O16 0.205703 0.307972 0.500000
O O17 0.250000 0.250000 0.300381
#
# Coordination Sequence:
#
# PCOD9495758 Si02
#       6
#    16  16  16  16  16  16
#     4  10  19  29  47  74 102 131 168 211 253 299
#     4   9  16  26  41  63  97 134 167 203 249 301
#     4  11  23  38  55  74 100 133 169 211 257 307
#     4   9  16  26  42  65  93 126 164 207 254 300
#     4  10  19  31  48  71  98 129 167 209 254 302
#     4  10  20  35  54  75 101 133 170 211 257 305
#
# _framework density 16.652365
#
# number of rings (size 3 to 8) (size 9 to 14) (size 15 to 20)
#    0.000    2.167    1.667    2.500    0.000    7.000 
#    0.000    0.000    0.000    0.500    0.000    3.500 
#    0.000    0.667    0.000    7.000    0.000    4.167 
#
# Total GULP energy -268007.741303 kJ/mol
# GULP energy per Si atom -5583.494610 kJ/mol
# Density = 1.661446 g / cm^3
# Si number density = 16.652365 Si / 1000 Ang^3
#
#
#
# Elastic Constant Matrix: (Units=GPa)
#
#
# Indices 1 2 3 4 5 6 
#
# 1 128.3365 47.9803 106.1873 0.0000 0.0000 0.0000
# 2 47.9803 62.9749 56.2465 0.0000 0.0000 0.0000
# 3 106.1873 56.2465 153.9718 0.0000 0.0000 0.0000
# 4 0.0000 0.0000 0.0000 16.9828 0.0000 0.0000
# 5 0.0000 0.0000 0.0000 0.0000 37.1152 0.0000
# 6 0.0000 0.0000 0.0000 0.0000 0.0000 -3.4982
#
#
#
# Elastic Compliance Matrix: (Units=1/GPa)
#
#
# Indices 1 2 3 4 5 6 
#
# 1 0.018828 -0.004078 -0.011495 0.000000 0.000000 0.000000
# 2 -0.004078 0.024453 -0.006120 0.000000 0.000000 0.000000
# 3 -0.011495 -0.006120 0.016658 0.000000 0.000000 0.000000
# 4 0.000000 0.000000 0.000000 0.058883 0.000000 0.000000
# 5 0.000000 0.000000 0.000000 0.000000 0.026943 0.000000
# 6 0.000000 0.000000 0.000000 0.000000 0.000000 -0.285864
#
#
# Mechanical properties :
#
#
# Convention : Reuss Voigt Hill
#
# Bulk Modulus (GPa) = 60.41544 85.12348 72.76946
# Shear Modulus (GPa) = -54.82708 19.11124 -17.85792
#
# Velocity S-wave (km/s) = -5.74421 3.39139 -3.27830
# Velocity P-wave (km/s) = 2.76324 8.15869 5.42811
#
# Compressibility (1/GPa) = 0.01655206
#
# Stress axis : x y z
#
# Youngs Moduli (GPa) = 53.11350 40.89527 60.03148
#
# Poissons Ratio (x) = 0.16677 0.69005
# Poissons Ratio (y) = 0.21659 0.36741
# Poissons Ratio (z) = 0.61053 0.25029
#
# Static dielectric constant tensor:
#      x y z
#    x 1.537830 0.000000 0.000000 
#    y 0.000000 1.559110 0.000000 
#    z 0.000000 0.000000 1.555890 
# 
# From -- ./inp_files/7950.got.cif
#   From: 2010.05.17/outbox.cif.g08.bks.cpg/sg66_4_cif.got.tgz:7950.got - 2010.06.03 17:51:23.
