data_PCOD9495049
_publ_section_title
;
Structure prediction by ZEFSAII (Michael W. Deem and Ramdas Pophale) SiO2 
 PCOD9495049
Probable space group: C C C M
;
_chemical_formula_sum "Si O2"
_cell_formula_units_Z 128
_cell_length_a 25.283071
_cell_length_b 15.689987
_cell_length_c 16.728563
_cell_angle_alpha 90.000000
_cell_angle_beta 90.000000
_cell_angle_gamma 90.000000
_cell_volume 6636.071310
_symmetry_space_group_name_H-M "C C C M"
_symmetry_group_IT_number 66
_symmetry_cell_setting 'orthorhombic'
loop_
_space_group_symop_operation_xyz
x,y,z
-x,-y,z
x,-y,1/2-z
-x,y,1/2-z
-x,-y,-z
x,y,-z
-x,y,1/2+z
x,-y,1/2+z
1/2+x,1/2+y,z
1/2-x,1/2-y,z
1/2+x,1/2-y,1/2-z
1/2-x,1/2+y,1/2-z
1/2-x,1/2-y,-z
1/2+x,1/2+y,-z
1/2-x,1/2+y,1/2+z
1/2+x,1/2-y,1/2+z
loop_
_atom_site_type_symbol
_atom_site_label
_atom_site_fract_x
_atom_site_fract_y
_atom_site_fract_z
Si Si1 0.246637 0.421982 0.686376
Si Si2 0.150593 0.374103 0.906937
Si Si3 0.165510 0.981843 0.405074
Si Si4 0.862911 0.567931 0.593968
Si Si5 0.978473 0.593324 0.402316
Si Si6 0.239737 0.842991 0.339448
Si Si7 0.058112 0.256104 0.097708
Si Si8 0.951076 0.058784 0.402251
O O1 0.244672 0.500000 0.750000
O O2 0.294540 0.447216 0.628250
O O3 0.190243 0.412333 0.643149
O O4 0.263242 0.344998 0.743895
O O5 0.123694 0.466601 0.901948
O O6 0.205514 0.387546 0.863268
O O7 0.114032 0.297716 0.876125
O O8 0.161680 0.357924 0.000000
O O9 0.165908 0.985693 0.500000
O O10 0.191259 0.892425 0.377723
O O11 0.104934 0.982421 0.377131
O O12 0.853265 0.586966 0.500000
O O13 0.917632 0.609450 0.622249
O O14 0.978571 0.590555 0.500000
O O15 0.000000 0.500000 0.375852
O O16 0.014814 0.673127 0.378201
O O17 0.250000 0.750000 0.372368
O O18 0.047831 0.158624 0.122788
O O19 0.059202 0.255969 0.000000
O O20 0.951789 0.059694 0.500000
O O21 0.000000 0.000000 0.375940
#
# Coordination Sequence:
#
# PCOD9495049 Si02
#       8
#    16  16  16  16  16  16  16  16
#     4  10  20  34  51  72 105 143 179 209 264 327
#     4  10  17  27  50  82 110 135 167 218 275 320
#     4  10  19  34  58  84 105 133 178 228 274 321
#     4  10  17  29  50  76 105 137 175 215 256 317
#     4   9  15  24  43  72 105 139 172 208 261 321
#     4  11  22  34  51  78 112 143 174 217 273 332
#     4   9  16  27  45  75 111 138 170 218 269 324
#     4   9  18  32  50  75 107 138 170 219 277 318
#
# _framework density 19.288520999999999
#
# number of rings (size 3 to 8) (size 9 to 14) (size 15 to 20)
#    0.000    2.250    3.750    1.500    0.000    2.000 
#    0.000    1.250    0.000    9.000    0.000    7.000 
#    0.000    0.000    0.000    0.000    0.000    0.000 
#
# Total GULP energy -356494.230486 kJ/mol
# GULP energy per Si atom -5570.222351 kJ/mol
# Density = 1.924462 g / cm^3
# Si number density = 19.288521 Si / 1000 Ang^3
#
#
#
# Elastic Constant Matrix: (Units=GPa)
#
#
# Indices 1 2 3 4 5 6 
#
# 1 158.3940 31.1097 27.7666 0.0000 0.0000 0.0000
# 2 31.1097 39.1426 2.8702 0.0000 0.0000 0.0000
# 3 27.7666 2.8702 24.7411 0.0000 0.0000 0.0000
# 4 0.0000 0.0000 0.0000 7.1452 0.0000 0.0000
# 5 0.0000 0.0000 0.0000 0.0000 -24.7799 0.0000
# 6 0.0000 0.0000 0.0000 0.0000 0.0000 21.5142
#
#
#
# Elastic Compliance Matrix: (Units=1/GPa)
#
#
# Indices 1 2 3 4 5 6 
#
# 1 0.009329 -0.006704 -0.009692 0.000000 0.000000 0.000000
# 2 -0.006704 0.030584 0.003976 0.000000 0.000000 0.000000
# 3 -0.009692 0.003976 0.050835 0.000000 0.000000 0.000000
# 4 0.000000 0.000000 0.000000 0.139953 0.000000 0.000000
# 5 0.000000 0.000000 0.000000 0.000000 -0.040355 0.000000
# 6 0.000000 0.000000 0.000000 0.000000 0.000000 0.046481
#
#
# Mechanical properties :
#
#
# Convention : Reuss Voigt Hill
#
# Bulk Modulus (GPa) = 15.17288 38.41897 26.79593
# Shear Modulus (GPa) = 17.62815 11.47797 14.55306
#
# Velocity S-wave (km/s) = 3.02639 2.44205 2.74978
# Velocity P-wave (km/s) = 4.48279 5.28325 4.89940
#
# Compressibility (1/GPa) = 0.06590708
#
# Stress axis : x y z
#
# Youngs Moduli (GPa) = 107.19126 32.69658 19.67159
#
# Poissons Ratio (x) = 0.21919 0.19066
# Poissons Ratio (y) = 0.71860 -0.07821
# Poissons Ratio (z) = 1.03892 -0.12999
#
# Static dielectric constant tensor:
#      x y z
#    x 1.704470 0.000000 0.000000 
#    y 0.000000 1.844840 0.000000 
#    z 0.000000 0.000000 1.677070 
# 
# From -- ./inp_files/43819.got.cif
#   From: 2010.05.17/outbox.cif.g08.bks.cpg/sg66_22_cif.got.tgz:43819.got - 2010.06.03 17:51:23.
