data_PCOD9495200
_publ_section_title
;
Structure prediction by ZEFSAII (Michael W. Deem and Ramdas Pophale) SiO2 
 PCOD9495200
Probable space group: C C C M
;
_chemical_formula_sum "Si O2"
_cell_formula_units_Z 80
_cell_length_a 12.641490
_cell_length_b 13.694611
_cell_length_c 21.349967
_cell_angle_alpha 90.000000
_cell_angle_beta 90.000000
_cell_angle_gamma 90.000000
_cell_volume 3696.112436
_symmetry_space_group_name_H-M "C C C M"
_symmetry_group_IT_number 66
_symmetry_cell_setting 'orthorhombic'
loop_
_space_group_symop_operation_xyz
x,y,z
-x,-y,z
x,-y,1/2-z
-x,y,1/2-z
-x,-y,-z
x,y,-z
-x,y,1/2+z
x,-y,1/2+z
1/2+x,1/2+y,z
1/2-x,1/2-y,z
1/2+x,1/2-y,1/2-z
1/2-x,1/2+y,1/2-z
1/2-x,1/2-y,-z
1/2+x,1/2+y,-z
1/2-x,1/2+y,1/2+z
1/2+x,1/2-y,1/2+z
loop_
_atom_site_type_symbol
_atom_site_label
_atom_site_fract_x
_atom_site_fract_y
_atom_site_fract_z
Si Si1 0.633371 0.220896 0.384491
Si Si2 0.066971 0.084817 0.071907
Si Si3 0.113768 0.216235 0.743465
Si Si4 0.687457 0.980915 0.928298
Si Si5 0.315952 0.909254 0.798859
O O1 0.750000 0.250000 0.410736
O O2 0.554629 0.306516 0.403243
O O3 0.641262 0.234555 0.310346
O O4 0.616015 0.113226 0.410276
O O5 0.189414 0.053259 0.074200
O O6 0.033470 0.090781 0.000000
O O7 0.000000 0.000000 0.104385
O O8 0.203075 0.141198 0.720051
O O9 0.106726 0.315381 0.703015
O O10 0.000000 0.167322 0.750000
O O11 0.679354 0.052570 0.869592
O O12 0.666101 0.012798 0.000000
O O13 0.335545 0.000000 0.750000
#
# Coordination Sequence:
#
# PCOD9495200 Si02
#       5
#    16  16  16  16  16
#     4  10  17  36  55  82 121 159 210 250 308 374
#     4   9  18  30  51  86 122 157 201 256 313 368
#     4  11  24  39  61  91 119 164 209 260 323 371
#     4  10  20  35  60  86 119 169 209 254 321 380
#     4  11  21  43  63  92 126 160 212 266 309 389
#
# _framework density 21.644363999999999
#
# number of rings (size 3 to 8) (size 9 to 14) (size 15 to 20)
#    0.000    1.800    4.000    1.800    2.800    3.200 
#    0.000    2.000    0.000    3.600    0.000    0.000 
#    0.000    0.000    0.000    0.000    0.000    0.000 
#
# Total GULP energy -222889.348073 kJ/mol
# GULP energy per Si atom -5572.233702 kJ/mol
# Density = 2.159510 g / cm^3
# Si number density = 21.644364 Si / 1000 Ang^3
#
#
#
# Elastic Constant Matrix: (Units=GPa)
#
#
# Indices 1 2 3 4 5 6 
#
# 1 43.9603 15.9804 -0.0631 0.0000 0.0000 0.0000
# 2 15.9804 128.0404 65.7012 0.0000 0.0000 0.0000
# 3 -0.0631 65.7012 147.8179 0.0000 0.0000 0.0000
# 4 0.0000 0.0000 0.0000 3.2317 0.0000 0.0000
# 5 0.0000 0.0000 0.0000 0.0000 -0.5216 0.0000
# 6 0.0000 0.0000 0.0000 0.0000 0.0000 28.2347
#
#
#
# Elastic Compliance Matrix: (Units=1/GPa)
#
#
# Indices 1 2 3 4 5 6 
#
# 1 0.024174 -0.003915 0.001751 0.000000 0.000000 0.000000
# 2 -0.003915 0.010752 -0.004781 0.000000 0.000000 0.000000
# 3 0.001751 -0.004781 0.008891 0.000000 0.000000 0.000000
# 4 0.000000 0.000000 0.000000 0.309438 0.000000 0.000000
# 5 0.000000 0.000000 0.000000 0.000000 -1.917180 0.000000
# 6 0.000000 0.000000 0.000000 0.000000 0.000000 0.035417
#
#
# Mechanical properties :
#
#
# Convention : Reuss Voigt Hill
#
# Bulk Modulus (GPa) = 33.41641 53.67284 43.54462
# Shear Modulus (GPa) = -3.32305 22.06897 9.37296
#
# Velocity S-wave (km/s) = -1.24041 3.19661 2.08323
# Velocity P-wave (km/s) = 3.66345 6.20289 5.09395
#
# Compressibility (1/GPa) = 0.02992542
#
# Stress axis : x y z
#
# Youngs Moduli (GPa) = 41.36746 93.00836 112.47780
#
# Poissons Ratio (x) = 0.36416 -0.19690
# Poissons Ratio (y) = 0.16197 0.53770
# Poissons Ratio (z) = -0.07242 0.44463
#
# Static dielectric constant tensor:
#      x y z
#    x 1.863150 0.000000 0.000000 
#    y 0.000000 1.854440 0.000000 
#    z 0.000000 0.000000 1.882610 
# 
# From -- ./inp_files/57896.got.cif
#   From: 2010.05.17/outbox.cif.g08.bks.cpg/sg66_29_cif.got.tgz:57896.got - 2010.06.03 17:51:23.
