data_PCOD9495693
_publ_section_title
;
Structure prediction by ZEFSAII (Michael W. Deem and Ramdas Pophale) SiO2 
 PCOD9495693
Probable space group: C C C M
;
_chemical_formula_sum "Si O2"
_cell_formula_units_Z 52
_cell_length_a 20.711520
_cell_length_b 7.904577
_cell_length_c 14.982309
_cell_angle_alpha 90.000000
_cell_angle_beta 90.000000
_cell_angle_gamma 90.000000
_cell_volume 2452.840773
_symmetry_space_group_name_H-M "C C C M"
_symmetry_group_IT_number 66
_symmetry_cell_setting 'orthorhombic'
loop_
_space_group_symop_operation_xyz
x,y,z
-x,-y,z
x,-y,1/2-z
-x,y,1/2-z
-x,-y,-z
x,y,-z
-x,y,1/2+z
x,-y,1/2+z
1/2+x,1/2+y,z
1/2-x,1/2-y,z
1/2+x,1/2-y,1/2-z
1/2-x,1/2+y,1/2-z
1/2-x,1/2-y,-z
1/2+x,1/2+y,-z
1/2-x,1/2+y,1/2+z
1/2+x,1/2-y,1/2+z
loop_
_atom_site_type_symbol
_atom_site_label
_atom_site_fract_x
_atom_site_fract_y
_atom_site_fract_z
Si Si1 0.099075 0.868893 0.000000
Si Si2 0.250000 0.750000 0.500000
Si Si3 0.540534 0.254014 0.500000
Si Si4 0.359592 0.170687 0.861147
Si Si5 0.826642 0.277827 0.834269
O O1 0.141819 0.831698 0.087211
O O2 0.036296 0.747835 0.000000
O O3 0.067817 0.053838 0.000000
O O4 0.306417 0.741034 0.577166
O O5 0.572296 0.176176 0.588523
O O6 0.358016 0.249659 0.762768
O O7 0.338137 0.975013 0.856225
O O8 0.750000 0.250000 0.829215
#
# Coordination Sequence:
#
# PCOD9495693 Si02
#       5
#     8   4   8  16  16
#     4  11  25  42  64  88 131 160 220 260 306 378
#     4  10  18  38  58  88 122 158 190 250 298 374
#     4  10  25  44  62  91 118 180 206 258 322 364
#     4  10  23  39  65  91 127 166 208 251 323 366
#     4  11  24  40  62 100 125 164 206 264 309 381
#
# _framework density 21.199908000000001
#
# number of rings (size 3 to 8) (size 9 to 14) (size 15 to 20)
#    0.000    1.538    1.538    2.308    8.615    4.923 
#    0.000    6.154    0.000    0.000    0.000    0.000 
#    0.000    0.000    0.000    0.000    0.000    0.000 
#
# Total GULP energy -144888.129836 kJ/mol
# GULP energy per Si atom -5572.620378 kJ/mol
# Density = 2.115166 g / cm^3
# Si number density = 21.199908 Si / 1000 Ang^3
#
#
#
# Elastic Constant Matrix: (Units=GPa)
#
#
# Indices 1 2 3 4 5 6 
#
# 1 79.6351 -3.3254 33.6006 0.0000 0.0000 0.0000
# 2 -3.3254 48.0524 30.0549 0.0000 0.0000 0.0000
# 3 33.6006 30.0549 178.7857 0.0000 0.0000 0.0000
# 4 0.0000 0.0000 0.0000 15.8769 0.0000 0.0000
# 5 0.0000 0.0000 0.0000 0.0000 0.9443 0.0000
# 6 0.0000 0.0000 0.0000 0.0000 0.0000 26.6282
#
#
#
# Elastic Compliance Matrix: (Units=1/GPa)
#
#
# Indices 1 2 3 4 5 6 
#
# 1 0.013996 0.002921 -0.003121 0.000000 0.000000 0.000000
# 2 0.002921 0.023865 -0.004561 0.000000 0.000000 0.000000
# 3 -0.003121 -0.004561 0.006947 0.000000 0.000000 0.000000
# 4 0.000000 0.000000 0.000000 0.062985 0.000000 0.000000
# 5 0.000000 0.000000 0.000000 0.000000 1.059007 0.000000
# 6 0.000000 0.000000 0.000000 0.000000 0.000000 0.037554
#
#
# Mechanical properties :
#
#
# Convention : Reuss Voigt Hill
#
# Bulk Modulus (GPa) = 28.34019 47.45925 37.89972
# Shear Modulus (GPa) = 4.07950 25.09941 14.58946
#
# Velocity S-wave (km/s) = 1.38870 3.44458 2.62617
# Velocity P-wave (km/s) = 3.99605 6.18508 5.20690
#
# Compressibility (1/GPa) = 0.03528558
#
# Stress axis : x y z
#
# Youngs Moduli (GPa) = 71.44748 41.90168 143.95452
#
# Poissons Ratio (x) = -0.12239 0.44935
# Poissons Ratio (y) = -0.20870 0.65656
# Poissons Ratio (z) = 0.22302 0.19111
#
# Static dielectric constant tensor:
#      x y z
#    x 1.724610 0.000000 0.000000 
#    y 0.000000 1.837570 0.000000 
#    z 0.000000 0.000000 1.752070 
# 
# From -- ./inp_files/23806.got.cif
#   From: 2010.05.17/outbox.cif.g08.bks.cpg/sg66_12_cif.got.tgz:23806.got - 2010.06.03 17:51:23.
