data_PCOD9495066
_publ_section_title
;
Structure prediction by ZEFSAII (Michael W. Deem and Ramdas Pophale) SiO2 
 PCOD9495066
Probable space group: C C C M
;
_chemical_formula_sum "Si O2"
_cell_formula_units_Z 112
_cell_length_a 25.953194
_cell_length_b 14.209683
_cell_length_c 16.151616
_cell_angle_alpha 90.000000
_cell_angle_beta 90.000000
_cell_angle_gamma 90.000000
_cell_volume 5956.500511
_symmetry_space_group_name_H-M "C C C M"
_symmetry_group_IT_number 66
_symmetry_cell_setting 'orthorhombic'
loop_
_space_group_symop_operation_xyz
x,y,z
-x,-y,z
x,-y,1/2-z
-x,y,1/2-z
-x,-y,-z
x,y,-z
-x,y,1/2+z
x,-y,1/2+z
1/2+x,1/2+y,z
1/2-x,1/2-y,z
1/2+x,1/2-y,1/2-z
1/2-x,1/2+y,1/2-z
1/2-x,1/2-y,-z
1/2+x,1/2+y,-z
1/2-x,1/2+y,1/2+z
1/2+x,1/2-y,1/2+z
loop_
_atom_site_type_symbol
_atom_site_label
_atom_site_fract_x
_atom_site_fract_y
_atom_site_fract_z
Si Si1 0.293020 0.169250 0.592073
Si Si2 0.160964 0.330349 0.773991
Si Si3 0.242569 0.526144 0.339540
Si Si4 0.049890 0.119706 0.593281
Si Si5 0.057830 0.251223 0.734753
Si Si6 0.176963 0.828345 0.408680
Si Si7 0.067654 0.089271 0.866326
O O1 0.318097 0.170467 0.500000
O O2 0.250000 0.250000 0.591121
O O3 0.323481 0.184288 0.678115
O O4 0.268354 0.066598 0.607832
O O5 0.189845 0.420392 0.812216
O O6 0.099294 0.323771 0.769977
O O7 0.178660 0.246069 0.834061
O O8 0.267261 0.500000 0.250000
O O9 0.279757 0.595108 0.388829
O O10 0.069744 0.117667 0.500000
O O11 0.064594 0.214711 0.641207
O O12 0.987383 0.112757 0.591676
O O13 0.068417 0.023634 0.637909
O O14 0.064022 0.152458 0.784186
O O15 0.000000 0.284813 0.750000
O O16 0.185050 0.785970 0.500000
O O17 0.120345 0.875685 0.407385
#
# Coordination Sequence:
#
# PCOD9495066 Si02
#       7
#    16  16  16  16  16  16  16
#     4  10  21  38  59  82 109 140 175 218 269 325
#     4  10  21  37  56  80 111 144 179 224 273 320
#     4  10  21  37  55  76 107 144 180 223 273 323
#     4  10  17  28  47  71 104 144 185 227 275 326
#     4   9  19  33  50  72 100 137 180 226 277 331
#     4  11  21  33  53  81 112 147 188 224 259 316
#     4   9  18  31  44  68 107 148 186 226 271 322
#
# _framework density 18.802986000000001
#
# number of rings (size 3 to 8) (size 9 to 14) (size 15 to 20)
#    0.000    2.143    0.000    4.714    0.000    7.429 
#    0.000    1.429    0.000    3.857    0.000    1.000 
#    0.000    0.000    0.000    0.000    0.000    0.000 
#
# Total GULP energy -311968.040163 kJ/mol
# GULP energy per Si atom -5570.857860 kJ/mol
# Density = 1.876019 g / cm^3
# Si number density = 18.802986 Si / 1000 Ang^3
#
#
#
# Elastic Constant Matrix: (Units=GPa)
#
#
# Indices 1 2 3 4 5 6 
#
# 1 73.5290 43.1136 28.9475 0.0000 0.0000 0.0000
# 2 43.1136 75.0092 25.2158 0.0000 0.0000 0.0000
# 3 28.9475 25.2158 105.8012 0.0000 0.0000 0.0000
# 4 0.0000 0.0000 0.0000 42.3534 0.0000 0.0000
# 5 0.0000 0.0000 0.0000 0.0000 8.6559 0.0000
# 6 0.0000 0.0000 0.0000 0.0000 0.0000 18.9692
#
#
#
# Elastic Compliance Matrix: (Units=1/GPa)
#
#
# Indices 1 2 3 4 5 6 
#
# 1 0.021458 -0.011263 -0.003187 0.000000 0.000000 0.000000
# 2 -0.011263 0.020404 -0.001781 0.000000 0.000000 0.000000
# 3 -0.003187 -0.001781 0.010748 0.000000 0.000000 0.000000
# 4 0.000000 0.000000 0.000000 0.023611 0.000000 0.000000
# 5 0.000000 0.000000 0.000000 0.000000 0.115529 0.000000
# 6 0.000000 0.000000 0.000000 0.000000 0.000000 0.052717
#
#
# Mechanical properties :
#
#
# Convention : Reuss Voigt Hill
#
# Bulk Modulus (GPa) = 49.63035 49.87702 49.75369
# Shear Modulus (GPa) = 17.62764 24.46651 21.04708
#
# Velocity S-wave (km/s) = 3.06517 3.61113 3.34929
# Velocity P-wave (km/s) = 6.24334 6.63104 6.44011
#
# Compressibility (1/GPa) = 0.02014896
#
# Stress axis : x y z
#
# Youngs Moduli (GPa) = 46.60162 49.00991 93.03881
#
# Poissons Ratio (x) = 0.55198 0.29650
# Poissons Ratio (y) = 0.52485 0.16575
# Poissons Ratio (z) = 0.14851 0.08731
#
# Static dielectric constant tensor:
#      x y z
#    x 1.663940 0.000000 0.000000 
#    y 0.000000 1.632190 0.000000 
#    z 0.000000 0.000000 1.698740 
# 
# From -- ./inp_files/33313.got.cif
#   From: 2010.05.17/outbox.cif.g08.bks.cpg/sg66_17_cif.got.tgz:33313.got - 2010.06.03 17:51:23.
