data_PCOD9495885
_publ_section_title
;
Structure prediction by ZEFSAII (Michael W. Deem and Ramdas Pophale) SiO2 
 PCOD9495885
Probable space group: C C C M
;
_chemical_formula_sum "Si O2"
_cell_formula_units_Z 112
_cell_length_a 15.414886
_cell_length_b 25.167464
_cell_length_c 14.774288
_cell_angle_alpha 90.000000
_cell_angle_beta 90.000000
_cell_angle_gamma 90.000000
_cell_volume 5731.738047
_symmetry_space_group_name_H-M "C C C M"
_symmetry_group_IT_number 66
_symmetry_cell_setting 'orthorhombic'
loop_
_space_group_symop_operation_xyz
x,y,z
-x,-y,z
x,-y,1/2-z
-x,y,1/2-z
-x,-y,-z
x,y,-z
-x,y,1/2+z
x,-y,1/2+z
1/2+x,1/2+y,z
1/2-x,1/2-y,z
1/2+x,1/2-y,1/2-z
1/2-x,1/2+y,1/2-z
1/2-x,1/2-y,-z
1/2+x,1/2+y,-z
1/2-x,1/2+y,1/2+z
1/2+x,1/2-y,1/2+z
loop_
_atom_site_type_symbol
_atom_site_label
_atom_site_fract_x
_atom_site_fract_y
_atom_site_fract_z
Si Si1 0.889273 0.949189 0.137256
Si Si2 0.622202 0.722473 0.889846
Si Si3 0.260032 0.135685 0.896214
Si Si4 0.100190 0.669224 0.274255
Si Si5 0.054231 0.823420 0.892019
Si Si6 0.158209 0.279126 0.396811
Si Si7 0.587481 0.435801 0.147362
O O1 0.813599 0.909681 0.108823
O O2 0.902497 0.944125 0.245382
O O3 0.988564 0.937079 0.108426
O O4 0.869537 0.010346 0.110431
O O5 0.710764 0.690876 0.870745
O O6 0.606153 0.776553 0.835096
O O7 0.545643 0.680941 0.862330
O O8 0.617945 0.730966 0.000000
O O9 0.342878 0.128108 0.832600
O O10 0.288027 0.140812 0.000000
O O11 0.149526 0.676880 0.179054
O O12 0.000000 0.657820 0.250000
O O13 0.093834 0.767365 0.864709
O O14 0.110540 0.874358 0.865861
O O15 0.054239 0.823588 0.000000
O O16 0.137397 0.295740 0.500000
O O17 0.250000 0.250000 0.398440
#
# Coordination Sequence:
#
# PCOD9495885 Si02
#       7
#    16  16  16  16  16  16  16
#     4   9  19  33  51  81 117 154 192 232 279 337
#     4  10  20  35  52  79 115 154 200 242 286 348
#     4  11  23  37  56  84 118 156 203 250 295 352
#     4  12  24  36  55  77 108 159 199 241 298 345
#     4  10  19  31  52  79 111 151 193 237 285 341
#     4  10  22  37  52  76 107 143 193 244 283 335
#     4   9  18  32  53  80 116 156 190 225 279 350
#
# _framework density 19.540322
#
# number of rings (size 3 to 8) (size 9 to 14) (size 15 to 20)
#    0.000    1.857    2.857    2.571    4.000    2.286 
#    0.000    1.429    0.000    0.000    0.000    2.000 
#    0.000    4.571    0.000    0.000    0.000    0.143 
#
# Total GULP energy -312147.986611 kJ/mol
# GULP energy per Si atom -5574.071189 kJ/mol
# Density = 1.949585 g / cm^3
# Si number density = 19.540322 Si / 1000 Ang^3
#
#
#
# Elastic Constant Matrix: (Units=GPa)
#
#
# Indices 1 2 3 4 5 6 
#
# 1 94.4440 14.8644 33.5673 0.0000 0.0000 0.0000
# 2 14.8644 49.9693 12.9437 0.0000 0.0000 0.0000
# 3 33.5673 12.9437 69.0113 0.0000 0.0000 0.0000
# 4 0.0000 0.0000 0.0000 5.7270 0.0000 0.0000
# 5 0.0000 0.0000 0.0000 0.0000 26.8588 0.0000
# 6 0.0000 0.0000 0.0000 0.0000 0.0000 21.6723
#
#
#
# Elastic Compliance Matrix: (Units=1/GPa)
#
#
# Indices 1 2 3 4 5 6 
#
# 1 0.013060 -0.002354 -0.005911 0.000000 0.000000 0.000000
# 2 -0.002354 0.021458 -0.002880 0.000000 0.000000 0.000000
# 3 -0.005911 -0.002880 0.017906 0.000000 0.000000 0.000000
# 4 0.000000 0.000000 0.000000 0.174612 0.000000 0.000000
# 5 0.000000 0.000000 0.000000 0.000000 0.037232 0.000000
# 6 0.000000 0.000000 0.000000 0.000000 0.000000 0.046142
#
#
# Mechanical properties :
#
#
# Convention : Reuss Voigt Hill
#
# Bulk Modulus (GPa) = 33.18420 37.35283 35.26851
# Shear Modulus (GPa) = 14.58822 20.98823 17.78823
#
# Velocity S-wave (km/s) = 2.73531 3.28090 3.02045
# Velocity P-wave (km/s) = 5.19569 5.78875 5.50022
#
# Compressibility (1/GPa) = 0.03013482
#
# Stress axis : x y z
#
# Youngs Moduli (GPa) = 76.57244 46.60167 55.84873
#
# Poissons Ratio (x) = 0.10969 0.33011
# Poissons Ratio (y) = 0.18023 0.16084
# Poissons Ratio (z) = 0.45260 0.13421
#
# Static dielectric constant tensor:
#      x y z
#    x 1.812910 0.000000 0.000000 
#    y 0.000000 1.747760 0.000000 
#    z 0.000000 0.000000 1.721040 
# 
# From -- ./inp_files/28903.got.cif
#   From: 2010.05.17/outbox.cif.g08.bks.cpg/sg66_15_cif.got.tgz:28903.got - 2010.06.03 17:51:23.
