data_PCOD9495733
_publ_section_title
;
Structure prediction by ZEFSAII (Michael W. Deem and Ramdas Pophale) SiO2 
 PCOD9495733
Probable space group: C C C M
;
_chemical_formula_sum "Si O2"
_cell_formula_units_Z 68
_cell_length_a 28.419727
_cell_length_b 18.168999
_cell_length_c 9.267395
_cell_angle_alpha 90.000000
_cell_angle_beta 90.000000
_cell_angle_gamma 90.000000
_cell_volume 4785.293468
_symmetry_space_group_name_H-M "C C C M"
_symmetry_group_IT_number 66
_symmetry_cell_setting 'orthorhombic'
loop_
_space_group_symop_operation_xyz
x,y,z
-x,-y,z
x,-y,1/2-z
-x,y,1/2-z
-x,-y,-z
x,y,-z
-x,y,1/2+z
x,-y,1/2+z
1/2+x,1/2+y,z
1/2-x,1/2-y,z
1/2+x,1/2-y,1/2-z
1/2-x,1/2+y,1/2-z
1/2-x,1/2-y,-z
1/2+x,1/2+y,-z
1/2-x,1/2+y,1/2+z
1/2+x,1/2-y,1/2+z
loop_
_atom_site_type_symbol
_atom_site_label
_atom_site_fract_x
_atom_site_fract_y
_atom_site_fract_z
Si Si1 0.852183 0.315886 0.168989
Si Si2 0.500000 0.000000 0.750000
Si Si3 0.261249 0.922971 0.830517
Si Si4 0.204167 0.196422 0.833214
Si Si5 0.907947 0.570402 0.836692
O O1 0.808348 0.373142 0.179768
O O2 0.835700 0.242242 0.249746
O O3 0.894518 0.356987 0.249923
O O4 0.861511 0.303631 0.000000
O O5 0.463591 0.051486 0.836021
O O6 0.220519 0.875681 0.752694
O O7 0.267427 0.000000 0.750000
O O8 0.251432 0.933781 0.000000
O O9 0.250000 0.250000 0.834008
O O10 0.192087 0.181467 0.000000
O O11 0.887513 0.500000 0.750000
O O12 0.890128 0.573361 0.000000
#
# Coordination Sequence:
#
# PCOD9495733 Si02
#       5
#    16   4  16  16  16
#     4  10  19  29  43  61  82 108 141 178 213 254
#     4   8  22  32  46  60  86 112 144 180 222 256
#     4  10  19  29  41  59  82 109 141 177 215 253
#     4   9  17  29  43  58  79 106 137 174 215 253
#     4  10  19  30  44  60  81 108 141 176 213 253
#
# _framework density 14.210205999999999
#
# number of rings (size 3 to 8) (size 9 to 14) (size 15 to 20)
#    0.706    1.647    0.000    3.882    0.000    7.529 
#    0.000    0.000    0.000    0.000    0.000    0.000 
#    0.000    0.000    0.000    1.059    0.000   15.765 
#
# Total GULP energy -189301.661267 kJ/mol
# GULP energy per Si atom -5567.695920 kJ/mol
# Density = 1.417786 g / cm^3
# Si number density = 14.210206 Si / 1000 Ang^3
#
#
#
# Elastic Constant Matrix: (Units=GPa)
#
#
# Indices 1 2 3 4 5 6 
#
# 1 41.4962 16.0565 27.0359 0.0000 0.0000 0.0000
# 2 16.0565 45.8311 38.0359 0.0000 0.0000 0.0000
# 3 27.0359 38.0359 134.9102 0.0000 0.0000 0.0000
# 4 0.0000 0.0000 0.0000 24.9402 0.0000 0.0000
# 5 0.0000 0.0000 0.0000 0.0000 11.5168 0.0000
# 6 0.0000 0.0000 0.0000 0.0000 0.0000 27.9466
#
#
#
# Elastic Compliance Matrix: (Units=1/GPa)
#
#
# Indices 1 2 3 4 5 6 
#
# 1 0.029367 -0.007055 -0.003896 0.000000 0.000000 0.000000
# 2 -0.007055 0.030179 -0.007095 0.000000 0.000000 0.000000
# 3 -0.003896 -0.007095 0.010193 0.000000 0.000000 0.000000
# 4 0.000000 0.000000 0.000000 0.040096 0.000000 0.000000
# 5 0.000000 0.000000 0.000000 0.000000 0.086830 0.000000
# 6 0.000000 0.000000 0.000000 0.000000 0.000000 0.035783
#
#
# Mechanical properties :
#
#
# Convention : Reuss Voigt Hill
#
# Bulk Modulus (GPa) = 29.71982 42.72158 36.22070
# Shear Modulus (GPa) = 17.87283 22.28800 20.08041
#
# Velocity S-wave (km/s) = 3.55032 3.96466 3.76320
# Velocity P-wave (km/s) = 6.14542 7.14754 6.66534
#
# Compressibility (1/GPa) = 0.03364758
#
# Stress axis : x y z
#
# Youngs Moduli (GPa) = 34.05205 33.13579 98.10334
#
# Poissons Ratio (x) = 0.23377 0.38221
# Poissons Ratio (y) = 0.24024 0.69601
# Poissons Ratio (z) = 0.13267 0.23509
#
# Static dielectric constant tensor:
#      x y z
#    x 1.469660 0.000000 0.000000 
#    y 0.000000 1.452740 0.000000 
#    z 0.000000 0.000000 1.482690 
# 
# From -- ./inp_files/6822.got.cif
#   From: 2010.05.17/outbox.cif.g08.bks.cpg/sg66_4_cif.got.tgz:6822.got - 2010.06.03 17:51:23.
