data_PCOD9495846
_publ_section_title
;
Structure prediction by ZEFSAII (Michael W. Deem and Ramdas Pophale) SiO2 
 PCOD9495846
Probable space group: C C C M
;
_chemical_formula_sum "Si O2"
_cell_formula_units_Z 112
_cell_length_a 11.852587
_cell_length_b 27.163513
_cell_length_c 14.406782
_cell_angle_alpha 90.000000
_cell_angle_beta 90.000000
_cell_angle_gamma 90.000000
_cell_volume 4638.377294
_symmetry_space_group_name_H-M "C C C M"
_symmetry_group_IT_number 66
_symmetry_cell_setting 'orthorhombic'
loop_
_space_group_symop_operation_xyz
x,y,z
-x,-y,z
x,-y,1/2-z
-x,y,1/2-z
-x,-y,-z
x,y,-z
-x,y,1/2+z
x,-y,1/2+z
1/2+x,1/2+y,z
1/2-x,1/2-y,z
1/2+x,1/2-y,1/2-z
1/2-x,1/2+y,1/2-z
1/2-x,1/2-y,-z
1/2+x,1/2+y,-z
1/2-x,1/2+y,1/2+z
1/2+x,1/2-y,1/2+z
loop_
_atom_site_type_symbol
_atom_site_label
_atom_site_fract_x
_atom_site_fract_y
_atom_site_fract_z
Si Si1 0.750237 0.087918 0.598118
Si Si2 0.708034 0.692034 0.103886
Si Si3 0.875071 0.015754 0.106164
Si Si4 0.905392 0.358461 0.107960
Si Si5 0.664215 0.945006 0.281516
Si Si6 0.483455 0.750362 0.107513
Si Si7 0.289315 0.697571 0.183924
O O1 0.686594 0.090819 0.500000
O O2 0.831637 0.135000 0.602462
O O3 0.675803 0.087218 0.688895
O O4 0.813987 0.036825 0.599518
O O5 0.612362 0.733219 0.105868
O O6 0.752510 0.694712 0.209694
O O7 0.763411 0.695345 0.000000
O O8 0.788766 0.046938 0.170224
O O9 0.884197 0.035908 0.000000
O O10 0.000000 0.000000 0.139459
O O11 0.915875 0.412259 0.153599
O O12 0.967761 0.307384 0.139702
O O13 0.774027 0.344360 0.127898
O O14 0.928468 0.362610 0.000000
O O15 0.628995 0.000000 0.250000
O O16 0.420634 0.707830 0.167222
O O17 0.444154 0.748145 0.000000
O O18 0.250000 0.750000 0.143918
#
# Coordination Sequence:
#
# PCOD9495846 Si02
#       7
#    16  16  16  16  16  16  16
#     4   9  18  31  45  64  94 131 175 215 253 311
#     4  10  19  33  50  71 100 139 177 212 261 320
#     4   9  18  31  44  64  96 131 169 216 262 311
#     4  10  19  33  52  76 104 138 181 228 277 319
#     4  10  19  31  49  73 101 138 179 223 268 317
#     4   9  19  33  50  73 102 134 175 224 269 320
#     4  10  19  32  50  73 101 135 172 217 265 318
#
# _framework density 24.146376
#
# number of rings (size 3 to 8) (size 9 to 14) (size 15 to 20)
#    0.000    2.429    1.429    1.286    0.000    6.286 
#    2.571    2.857    0.000    0.000    0.000    0.000 
#    0.000    9.143    0.000   48.714    0.000    0.000 
#
# Total GULP energy -311756.090454 kJ/mol
# GULP energy per Si atom -5567.073044 kJ/mol
# Density = 2.409142 g / cm^3
# Si number density = 24.146376 Si / 1000 Ang^3
#
#
#
# Elastic Constant Matrix: (Units=GPa)
#
#
# Indices 1 2 3 4 5 6 
#
# 1 63.2867 18.8297 37.7144 0.0000 0.0000 0.0000
# 2 18.8297 147.2901 31.9110 0.0000 0.0000 0.0000
# 3 37.7144 31.9110 136.1949 0.0000 0.0000 0.0000
# 4 0.0000 0.0000 0.0000 30.3328 0.0000 0.0000
# 5 0.0000 0.0000 0.0000 0.0000 18.8817 0.0000
# 6 0.0000 0.0000 0.0000 0.0000 0.0000 10.2887
#
#
#
# Elastic Compliance Matrix: (Units=1/GPa)
#
#
# Indices 1 2 3 4 5 6 
#
# 1 0.019183 -0.001371 -0.004991 0.000000 0.000000 0.000000
# 2 -0.001371 0.007250 -0.001319 0.000000 0.000000 0.000000
# 3 -0.004991 -0.001319 0.009034 0.000000 0.000000 0.000000
# 4 0.000000 0.000000 0.000000 0.032968 0.000000 0.000000
# 5 0.000000 0.000000 0.000000 0.000000 0.052961 0.000000
# 6 0.000000 0.000000 0.000000 0.000000 0.000000 0.097194
#
#
# Mechanical properties :
#
#
# Convention : Reuss Voigt Hill
#
# Bulk Modulus (GPa) = 49.73888 58.18688 53.96288
# Shear Modulus (GPa) = 20.77675 29.12174 24.94925
#
# Velocity S-wave (km/s) = 2.93653 3.47659 3.21791
# Velocity P-wave (km/s) = 5.66932 6.34551 6.01692
#
# Compressibility (1/GPa) = 0.02010500
#
# Stress axis : x y z
#
# Youngs Moduli (GPa) = 52.12874 137.92339 110.69847
#
# Poissons Ratio (x) = 0.18911 0.55248
# Poissons Ratio (y) = 0.07147 0.14602
# Poissons Ratio (z) = 0.26017 0.18194
#
# Static dielectric constant tensor:
#      x y z
#    x 2.236840 0.000000 0.000000 
#    y 0.000000 1.916050 0.000000 
#    z 0.000000 0.000000 1.977570 
# 
# From -- ./inp_files/28874.got.cif
#   From: 2010.05.17/outbox.cif.g08.bks.cpg/sg66_15_cif.got.tgz:28874.got - 2010.06.03 17:51:23.
