data_PCOD9495334
_publ_section_title
;
Structure prediction by ZEFSAII (Michael W. Deem and Ramdas Pophale) SiO2 
 PCOD9495334
Probable space group: C C C M
;
_chemical_formula_sum "Si O2"
_cell_formula_units_Z 96
_cell_length_a 27.331744
_cell_length_b 9.936758
_cell_length_c 20.681261
_cell_angle_alpha 90.000000
_cell_angle_beta 90.000000
_cell_angle_gamma 90.000000
_cell_volume 5616.801460
_symmetry_space_group_name_H-M "C C C M"
_symmetry_group_IT_number 66
_symmetry_cell_setting 'orthorhombic'
loop_
_space_group_symop_operation_xyz
x,y,z
-x,-y,z
x,-y,1/2-z
-x,y,1/2-z
-x,-y,-z
x,y,-z
-x,y,1/2+z
x,-y,1/2+z
1/2+x,1/2+y,z
1/2-x,1/2-y,z
1/2+x,1/2-y,1/2-z
1/2-x,1/2+y,1/2-z
1/2-x,1/2-y,-z
1/2+x,1/2+y,-z
1/2-x,1/2+y,1/2+z
1/2+x,1/2-y,1/2+z
loop_
_atom_site_type_symbol
_atom_site_label
_atom_site_fract_x
_atom_site_fract_y
_atom_site_fract_z
Si Si1 0.804462 0.224646 0.422039
Si Si2 0.449571 0.419637 0.810456
Si Si3 0.879489 0.992893 0.075656
Si Si4 0.917426 0.713405 0.423870
Si Si5 0.986111 0.649195 0.843952
Si Si6 0.890435 0.419809 0.423111
O O1 0.802000 0.241197 0.500000
O O2 0.750000 0.250000 0.396531
O O3 0.827391 0.076843 0.410899
O O4 0.845135 0.331373 0.398134
O O5 0.500000 0.500000 0.822107
O O6 0.426347 0.500000 0.750000
O O7 0.417480 0.428052 0.874576
O O8 0.462970 0.263869 0.798113
O O9 0.885981 0.152014 0.085190
O O10 0.891266 0.963770 0.000000
O O11 0.932066 0.708165 0.500000
O O12 0.886697 0.578872 0.409730
O O13 0.966023 0.709077 0.379821
O O14 0.942668 0.622707 0.894980
O O15 0.000000 0.500000 0.819320
O O16 0.892046 0.401391 0.500000
#
# Coordination Sequence:
#
# PCOD9495334 Si02
#       6
#    16  16  16  16  16  16
#     4   9  17  29  47  73 102 132 172 220 266 310
#     4  11  22  35  49  74 112 139 173 210 257 308
#     4  10  19  32  52  75 103 140 181 217 258 314
#     4   9  17  27  44  73 103 134 170 210 253 304
#     4  10  18  30  49  71 100 136 173 208 251 310
#     4   9  16  27  45  71 106 136 168 214 261 303
#
# _framework density 17.091577999999998
#
# number of rings (size 3 to 8) (size 9 to 14) (size 15 to 20)
#    0.000    2.333    3.333    0.500    0.000    3.000 
#    0.000    2.500    0.000    5.000    0.000    2.333 
#    0.000    0.000    0.000    0.000    0.000    0.000 
#
# Total GULP energy -267234.273484 kJ/mol
# GULP energy per Si atom -5567.380698 kJ/mol
# Density = 1.705268 g / cm^3
# Si number density = 17.091578 Si / 1000 Ang^3
#
#
#
# Elastic Constant Matrix: (Units=GPa)
#
#
# Indices 1 2 3 4 5 6 
#
# 1 103.6978 47.2473 26.3828 0.0000 0.0000 0.0000
# 2 47.2473 149.2745 31.5384 0.0000 0.0000 0.0000
# 3 26.3828 31.5384 39.0366 0.0000 0.0000 0.0000
# 4 0.0000 0.0000 0.0000 10.1706 0.0000 0.0000
# 5 0.0000 0.0000 0.0000 0.0000 2.8483 0.0000
# 6 0.0000 0.0000 0.0000 0.0000 0.0000 17.1218
#
#
#
# Elastic Compliance Matrix: (Units=1/GPa)
#
#
# Indices 1 2 3 4 5 6 
#
# 1 0.012432 -0.002604 -0.006298 0.000000 0.000000 0.000000
# 2 -0.002604 0.008623 -0.005207 0.000000 0.000000 0.000000
# 3 -0.006298 -0.005207 0.034081 0.000000 0.000000 0.000000
# 4 0.000000 0.000000 0.000000 0.098323 0.000000 0.000000
# 5 0.000000 0.000000 0.000000 0.000000 0.351081 0.000000
# 6 0.000000 0.000000 0.000000 0.000000 0.000000 0.058405
#
#
# Mechanical properties :
#
#
# Convention : Reuss Voigt Hill
#
# Bulk Modulus (GPa) = 37.15097 55.81619 46.48358
# Shear Modulus (GPa) = 8.33144 18.48418 13.40781
#
# Velocity S-wave (km/s) = 2.21024 3.29215 2.80388
# Velocity P-wave (km/s) = 5.31951 6.86870 6.14313
#
# Compressibility (1/GPa) = 0.02691720
#
# Stress axis : x y z
#
# Youngs Moduli (GPa) = 80.43482 115.96253 29.34226
#
# Poissons Ratio (x) = 0.30200 0.18481
# Poissons Ratio (y) = 0.20948 0.15278
# Poissons Ratio (z) = 0.50661 0.60381
#
# Static dielectric constant tensor:
#      x y z
#    x 1.553500 0.000000 0.000000 
#    y 0.000000 1.650080 0.000000 
#    z 0.000000 0.000000 1.606630 
# 
# From -- ./inp_files/60084.got.cif
#   From: 2010.05.17/outbox.cif.g08.bks.cpg/sg66_31_cif.got.tgz:60084.got - 2010.06.03 17:51:23.
