data_PCOD9495544
_publ_section_title
;
Structure prediction by ZEFSAII (Michael W. Deem and Ramdas Pophale) SiO2 
 PCOD9495544
Probable space group: C C C M
;
_chemical_formula_sum "Si O2"
_cell_formula_units_Z 88
_cell_length_a 14.963927
_cell_length_b 15.143800
_cell_length_c 19.627245
_cell_angle_alpha 90.000000
_cell_angle_beta 90.000000
_cell_angle_gamma 90.000000
_cell_volume 4447.744076
_symmetry_space_group_name_H-M "C C C M"
_symmetry_group_IT_number 66
_symmetry_cell_setting 'orthorhombic'
loop_
_space_group_symop_operation_xyz
x,y,z
-x,-y,z
x,-y,1/2-z
-x,y,1/2-z
-x,-y,-z
x,y,-z
-x,y,1/2+z
x,-y,1/2+z
1/2+x,1/2+y,z
1/2-x,1/2-y,z
1/2+x,1/2-y,1/2-z
1/2-x,1/2+y,1/2-z
1/2-x,1/2-y,-z
1/2+x,1/2+y,-z
1/2-x,1/2+y,1/2+z
1/2+x,1/2-y,1/2+z
loop_
_atom_site_type_symbol
_atom_site_label
_atom_site_fract_x
_atom_site_fract_y
_atom_site_fract_z
Si Si1 0.345618 0.718243 0.855564
Si Si2 0.766052 0.940136 0.000000
Si Si3 0.649416 0.629910 0.500000
Si Si4 0.538943 0.246256 0.353384
Si Si5 0.287915 0.850146 0.638097
Si Si6 0.451141 0.665026 0.500000
Si Si7 0.872602 0.901748 0.233544
O O1 0.250000 0.750000 0.830993
O O2 0.434504 0.776746 0.844590
O O3 0.362991 0.635107 0.808878
O O4 0.336875 0.688558 0.933208
O O5 0.717572 0.905076 0.068084
O O6 0.787554 0.044327 0.000000
O O7 0.863359 0.894039 0.000000
O O8 0.542974 0.608960 0.500000
O O9 0.611053 0.170280 0.338230
O O10 0.549342 0.275637 0.432165
O O11 0.565797 0.333543 0.309547
O O12 0.250000 0.750000 0.626230
O O13 0.221588 0.895956 0.692337
O O14 0.902570 0.000000 0.250000
#
# Coordination Sequence:
#
# PCOD9495544 Si02
#       7
#    16   8   8  16  16   8  16
#     4  11  23  40  58  76 111 156 192 230 276 330
#     4  12  17  33  57  84 120 143 169 231 290 336
#     4  10  24  35  53  82 114 150 188 227 280 331
#     4  10  21  36  58  87 110 146 190 229 276 333
#     4  10  19  33  57  83 115 145 182 224 275 340
#     4  10  18  33  55  87 116 144 175 222 284 337
#     4  11  22  36  56  87 117 142 177 229 290 342
#
# _framework density 19.785311
#
# number of rings (size 3 to 8) (size 9 to 14) (size 15 to 20)
#    0.000    1.455    3.636    4.636    0.000    1.455 
#    0.000    0.000    0.000    6.545    0.000    0.000 
#    0.000    0.000    0.000    0.000    0.000    0.000 
#
# Total GULP energy -245389.867433 kJ/mol
# GULP energy per Si atom -5577.042442 kJ/mol
# Density = 1.974028 g / cm^3
# Si number density = 19.785311 Si / 1000 Ang^3
#
#
#
# Elastic Constant Matrix: (Units=GPa)
#
#
# Indices 1 2 3 4 5 6 
#
# 1 151.4882 38.8776 -1.8647 0.0000 0.0000 0.0000
# 2 38.8776 42.0920 3.7823 0.0000 0.0000 0.0000
# 3 -1.8647 3.7823 85.4307 0.0000 0.0000 0.0000
# 4 0.0000 0.0000 0.0000 17.6474 0.0000 0.0000
# 5 0.0000 0.0000 0.0000 0.0000 28.0497 0.0000
# 6 0.0000 0.0000 0.0000 0.0000 0.0000 3.2124
#
#
#
# Elastic Compliance Matrix: (Units=1/GPa)
#
#
# Indices 1 2 3 4 5 6 
#
# 1 0.008677 -0.008064 0.000546 0.000000 0.000000 0.000000
# 2 -0.008064 0.031346 -0.001564 0.000000 0.000000 0.000000
# 3 0.000546 -0.001564 0.011787 0.000000 0.000000 0.000000
# 4 0.000000 0.000000 0.000000 0.056666 0.000000 0.000000
# 5 0.000000 0.000000 0.000000 0.000000 0.035651 0.000000
# 6 0.000000 0.000000 0.000000 0.000000 0.000000 0.311293
#
#
# Mechanical properties :
#
#
# Convention : Reuss Voigt Hill
#
# Bulk Modulus (GPa) = 29.71987 40.06682 34.89335
# Shear Modulus (GPa) = 10.31357 25.66294 17.98826
#
# Velocity S-wave (km/s) = 2.28562 3.60539 3.01852
# Velocity P-wave (km/s) = 4.69246 6.13405 5.46103
#
# Compressibility (1/GPa) = 0.03364752
#
# Stress axis : x y z
#
# Youngs Moduli (GPa) = 115.24209 31.90199 84.84240
#
# Poissons Ratio (x) = 0.25725 -0.04636
# Poissons Ratio (y) = 0.92929 0.13268
# Poissons Ratio (z) = -0.06297 0.04989
#
# Static dielectric constant tensor:
#      x y z
#    x 1.794710 0.000000 0.000000 
#    y 0.000000 1.676440 0.000000 
#    z 0.000000 0.000000 1.690000 
# 
# From -- ./inp_files/49885.got.cif
#   From: 2010.05.17/outbox.cif.g08.bks.cpg/sg66_25_cif.got.tgz:49885.got - 2010.06.03 17:51:23.
