data_PCOD9495399
_publ_section_title
;
Structure prediction by ZEFSAII (Michael W. Deem and Ramdas Pophale) SiO2 
 PCOD9495399
Probable space group: C C C M
;
_chemical_formula_sum "Si O2"
_cell_formula_units_Z 96
_cell_length_a 26.486113
_cell_length_b 12.004625
_cell_length_c 14.405712
_cell_angle_alpha 90.000000
_cell_angle_beta 90.000000
_cell_angle_gamma 90.000000
_cell_volume 4580.380465
_symmetry_space_group_name_H-M "C C C M"
_symmetry_group_IT_number 66
_symmetry_cell_setting 'orthorhombic'
loop_
_space_group_symop_operation_xyz
x,y,z
-x,-y,z
x,-y,1/2-z
-x,y,1/2-z
-x,-y,-z
x,y,-z
-x,y,1/2+z
x,-y,1/2+z
1/2+x,1/2+y,z
1/2-x,1/2-y,z
1/2+x,1/2-y,1/2-z
1/2-x,1/2+y,1/2-z
1/2-x,1/2-y,-z
1/2+x,1/2+y,-z
1/2-x,1/2+y,1/2+z
1/2+x,1/2-y,1/2+z
loop_
_atom_site_type_symbol
_atom_site_label
_atom_site_fract_x
_atom_site_fract_y
_atom_site_fract_z
Si Si1 0.783272 0.890426 0.605319
Si Si2 0.547828 0.563483 0.605996
Si Si3 0.355667 0.432719 0.846313
Si Si4 0.879959 0.748668 0.386443
Si Si5 0.193153 0.712726 0.387053
Si Si6 0.823371 0.541531 0.386207
O O1 0.775877 0.854412 0.500000
O O2 0.828127 0.812453 0.640751
O O3 0.728463 0.900288 0.649093
O O4 0.806774 0.013917 0.604472
O O5 0.500000 0.500000 0.648219
O O6 0.533577 0.591937 0.500000
O O7 0.593629 0.474939 0.605371
O O8 0.572969 0.676226 0.647738
O O9 0.356305 0.500000 0.750000
O O10 0.346550 0.302246 0.847648
O O11 0.882247 0.755097 0.500000
O O12 0.870451 0.620456 0.360800
O O13 0.191007 0.717484 0.500000
O O14 0.250000 0.750000 0.359568
O O15 0.178883 0.587109 0.358277
O O16 0.821053 0.541799 0.500000
#
# Coordination Sequence:
#
# PCOD9495399 Si02
#       6
#    16  16  16  16  16  16
#     4   9  15  27  47  68  94 132 175 209 242 295
#     4   9  18  34  56  75  92 122 169 223 268 311
#     4  11  21  32  47  71 104 135 167 213 263 320
#     4   8  14  24  43  74 101 120 158 212 265 307
#     4  10  18  31  52  73 102 144 187 217 249 311
#     4   9  15  24  46  74  98 131 168 210 253 298
#
# _framework density 20.958956000000001
#
# number of rings (size 3 to 8) (size 9 to 14) (size 15 to 20)
#    0.000    2.667    1.667    3.000    0.000    2.333 
#    0.000    3.333    0.000    1.000    0.000    5.833 
#    0.000    5.333    0.000    0.333    0.000    0.000 
#
# Total GULP energy -267542.957885 kJ/mol
# GULP energy per Si atom -5573.811623 kJ/mol
# Density = 2.091125 g / cm^3
# Si number density = 20.958956 Si / 1000 Ang^3
#
#
#
# Elastic Constant Matrix: (Units=GPa)
#
#
# Indices 1 2 3 4 5 6 
#
# 1 96.1091 62.1001 3.7450 0.0000 0.0000 0.0000
# 2 62.1001 169.3850 11.3597 0.0000 0.0000 0.0000
# 3 3.7450 11.3597 60.2704 0.0000 0.0000 0.0000
# 4 0.0000 0.0000 0.0000 9.1773 0.0000 0.0000
# 5 0.0000 0.0000 0.0000 0.0000 29.2575 0.0000
# 6 0.0000 0.0000 0.0000 0.0000 0.0000 34.1134
#
#
#
# Elastic Compliance Matrix: (Units=1/GPa)
#
#
# Indices 1 2 3 4 5 6 
#
# 1 0.013635 -0.005005 0.000096 0.000000 0.000000 0.000000
# 2 -0.005005 0.007817 -0.001162 0.000000 0.000000 0.000000
# 3 0.000096 -0.001162 0.016805 0.000000 0.000000 0.000000
# 4 0.000000 0.000000 0.000000 0.108964 0.000000 0.000000
# 5 0.000000 0.000000 0.000000 0.000000 0.034179 0.000000
# 6 0.000000 0.000000 0.000000 0.000000 0.000000 0.029314
#
#
# Mechanical properties :
#
#
# Convention : Reuss Voigt Hill
#
# Bulk Modulus (GPa) = 38.29368 53.35267 45.82318
# Shear Modulus (GPa) = 21.59247 31.08030 26.33639
#
# Velocity S-wave (km/s) = 3.21320 3.85504 3.54866
# Velocity P-wave (km/s) = 5.66362 6.73247 6.22104
#
# Compressibility (1/GPa) = 0.02611397
#
# Stress axis : x y z
#
# Youngs Moduli (GPa) = 73.33897 127.93034 59.50617
#
# Poissons Ratio (x) = 0.64035 -0.00572
# Poissons Ratio (y) = 0.36709 0.06916
# Poissons Ratio (z) = -0.00705 0.14869
#
# Static dielectric constant tensor:
#      x y z
#    x 1.766740 0.000000 0.000000 
#    y 0.000000 1.810660 0.000000 
#    z 0.000000 0.000000 1.860670 
# 
# From -- ./inp_files/44252.got.cif
#   From: 2010.05.17/outbox.cif.g08.bks.cpg/sg66_23_cif.got.tgz:44252.got - 2010.06.03 17:51:23.
