data_PCOD9495752
_publ_section_title
;
Structure prediction by ZEFSAII (Michael W. Deem and Ramdas Pophale) SiO2 
 PCOD9495752
Probable space group: C C C M
;
_chemical_formula_sum "Si O2"
_cell_formula_units_Z 112
_cell_length_a 16.438540
_cell_length_b 20.505326
_cell_length_c 22.181167
_cell_angle_alpha 90.000000
_cell_angle_beta 90.000000
_cell_angle_gamma 90.000000
_cell_volume 7476.775018
_symmetry_space_group_name_H-M "C C C M"
_symmetry_group_IT_number 66
_symmetry_cell_setting 'orthorhombic'
loop_
_space_group_symop_operation_xyz
x,y,z
-x,-y,z
x,-y,1/2-z
-x,y,1/2-z
-x,-y,-z
x,y,-z
-x,y,1/2+z
x,-y,1/2+z
1/2+x,1/2+y,z
1/2-x,1/2-y,z
1/2+x,1/2-y,1/2-z
1/2-x,1/2+y,1/2-z
1/2-x,1/2-y,-z
1/2+x,1/2+y,-z
1/2-x,1/2+y,1/2+z
1/2+x,1/2-y,1/2+z
loop_
_atom_site_type_symbol
_atom_site_label
_atom_site_fract_x
_atom_site_fract_y
_atom_site_fract_z
Si Si1 0.408263 0.974799 0.668936
Si Si2 0.155793 0.612275 0.431133
Si Si3 0.050119 0.254863 0.931895
Si Si4 0.846469 0.396225 0.216618
Si Si5 0.194977 0.184088 0.120243
Si Si6 0.306447 0.685473 0.757283
Si Si7 0.555517 0.234933 0.810467
O O1 0.392328 0.941797 0.605585
O O2 0.383790 0.920872 0.719319
O O3 0.500000 0.000000 0.677514
O O4 0.353896 0.039070 0.677052
O O5 0.168790 0.594264 0.500000
O O6 0.101316 0.677792 0.429327
O O7 0.242546 0.628880 0.400896
O O8 0.117478 0.198533 0.921144
O O9 0.991262 0.256743 0.873712
O O10 0.015123 0.249642 0.000000
O O11 0.754384 0.371711 0.223681
O O12 0.898456 0.335134 0.191981
O O13 0.250000 0.250000 0.119259
O O14 0.166022 0.173569 0.188662
O O15 0.250000 0.750000 0.754490
O O16 0.379888 0.706721 0.800035
O O17 0.500000 0.235319 0.750000
#
# Coordination Sequence:
#
# PCOD9495752 Si02
#       7
#    16  16  16  16  16  16  16
#     4  11  20  30  45  68  95 130 162 192 225 274
#     4  10  19  30  45  66  99 134 160 189 224 279
#     4  10  19  29  45  71 101 127 152 193 245 285
#     4  10  19  31  45  65  94 124 157 196 236 271
#     4   9  15  28  44  68  96 124 154 191 239 284
#     4   9  17  28  47  69  91 118 155 199 238 278
#     4  11  18  29  49  71  94 120 156 199 240 284
#
# _framework density 14.97972
#
# number of rings (size 3 to 8) (size 9 to 14) (size 15 to 20)
#    0.000    2.000    2.857    3.857    0.000    2.000 
#    0.000    0.714    0.000    4.714    0.000    7.000 
#    0.000    2.286    0.000    0.000    0.000    0.000 
#
# Total GULP energy -311898.784870 kJ/mol
# GULP energy per Si atom -5569.621158 kJ/mol
# Density = 1.494563 g / cm^3
# Si number density = 14.979720 Si / 1000 Ang^3
#
#
#
# Elastic Constant Matrix: (Units=GPa)
#
#
# Indices 1 2 3 4 5 6 
#
# 1 56.8246 30.1469 47.7536 0.0000 0.0000 0.0000
# 2 30.1469 49.9911 24.2757 0.0000 0.0000 0.0000
# 3 47.7536 24.2757 109.0869 0.0000 0.0000 0.0000
# 4 0.0000 0.0000 0.0000 17.4282 0.0000 0.0000
# 5 0.0000 0.0000 0.0000 0.0000 22.6649 0.0000
# 6 0.0000 0.0000 0.0000 0.0000 0.0000 26.5879
#
#
#
# Elastic Compliance Matrix: (Units=1/GPa)
#
#
# Indices 1 2 3 4 5 6 
#
# 1 0.036530 -0.015992 -0.012433 0.000000 0.000000 0.000000
# 2 -0.015992 0.029428 0.000452 0.000000 0.000000 0.000000
# 3 -0.012433 0.000452 0.014509 0.000000 0.000000 0.000000
# 4 0.000000 0.000000 0.000000 0.057378 0.000000 0.000000
# 5 0.000000 0.000000 0.000000 0.000000 0.044121 0.000000
# 6 0.000000 0.000000 0.000000 0.000000 0.000000 0.037611
#
#
# Mechanical properties :
#
#
# Convention : Reuss Voigt Hill
#
# Bulk Modulus (GPa) = 40.78036 46.69500 43.73768
# Shear Modulus (GPa) = 17.62444 20.91796 19.27120
#
# Velocity S-wave (km/s) = 3.43381 3.74092 3.59065
# Velocity P-wave (km/s) = 6.55776 7.06393 6.81555
#
# Compressibility (1/GPa) = 0.02452160
#
# Stress axis : x y z
#
# Youngs Moduli (GPa) = 27.37466 33.98114 68.92329
#
# Poissons Ratio (x) = 0.54343 0.85689
# Poissons Ratio (y) = 0.43778 -0.03114
# Poissons Ratio (z) = 0.34034 -0.01535
#
# Static dielectric constant tensor:
#      x y z
#    x 1.511250 0.000000 0.000000 
#    y 0.000000 1.489720 0.000000 
#    z 0.000000 0.000000 1.512480 
# 
# From -- ./inp_files/59011.got.cif
#   From: 2010.05.17/outbox.cif.g08.bks.cpg/sg66_30_cif.got.tgz:59011.got - 2010.06.03 17:51:23.
