data_PCOD9495251
_publ_section_title
;
Structure prediction by ZEFSAII (Michael W. Deem and Ramdas Pophale) SiO2 
 PCOD9495251
Probable space group: C C C M
;
_chemical_formula_sum "Si O2"
_cell_formula_units_Z 128
_cell_length_a 25.905664
_cell_length_b 11.368442
_cell_length_c 25.471772
_cell_angle_alpha 90.000000
_cell_angle_beta 90.000000
_cell_angle_gamma 90.000000
_cell_volume 7501.616141
_symmetry_space_group_name_H-M "C C C M"
_symmetry_group_IT_number 66
_symmetry_cell_setting 'orthorhombic'
loop_
_space_group_symop_operation_xyz
x,y,z
-x,-y,z
x,-y,1/2-z
-x,y,1/2-z
-x,-y,-z
x,y,-z
-x,y,1/2+z
x,-y,1/2+z
1/2+x,1/2+y,z
1/2-x,1/2-y,z
1/2+x,1/2-y,1/2-z
1/2-x,1/2+y,1/2-z
1/2-x,1/2-y,-z
1/2+x,1/2+y,-z
1/2-x,1/2+y,1/2+z
1/2+x,1/2-y,1/2+z
loop_
_atom_site_type_symbol
_atom_site_label
_atom_site_fract_x
_atom_site_fract_y
_atom_site_fract_z
Si Si1 0.647526 0.891204 0.613704
Si Si2 0.815135 0.370380 0.230336
Si Si3 0.441130 0.960923 0.437765
Si Si4 0.883751 0.766686 0.059827
Si Si5 0.695460 0.317307 0.938722
Si Si6 0.302104 0.379258 0.768809
Si Si7 0.811260 0.931101 0.889025
Si Si8 0.709771 0.082114 0.441682
O O1 0.660731 0.856312 0.672876
O O2 0.652862 0.778251 0.576796
O O3 0.595452 0.960255 0.599052
O O4 0.692559 0.982947 0.598639
O O5 0.832698 0.500000 0.250000
O O6 0.752396 0.376028 0.236749
O O7 0.827922 0.248453 0.260570
O O8 0.426341 0.975745 0.500000
O O9 0.429795 0.823094 0.425882
O O10 0.500000 0.000000 0.432255
O O11 0.866084 0.872209 0.097081
O O12 0.834035 0.680036 0.060395
O O13 0.891271 0.808701 0.000000
O O14 0.750000 0.250000 0.930436
O O15 0.689196 0.430771 0.902014
O O16 0.692251 0.351150 0.000000
O O17 0.329408 0.500000 0.750000
O O18 0.293906 0.397490 0.830689
O O19 0.767184 0.880840 0.927800
O O20 0.709167 0.030043 0.500000
#
# Coordination Sequence:
#
# PCOD9495251 Si02
#       8
#    16  16  16  16  16  16  16  16
#     4  11  20  33  55  74 108 146 188 225 276 332
#     4  10  22  33  50  73 102 144 197 238 272 318
#     4   9  19  37  61  85 109 138 178 235 300 359
#     4   9  19  30  47  77 107 137 179 221 271 337
#     4  11  22  32  48  77 115 156 187 215 266 347
#     4  10  22  35  45  67 104 151 195 229 266 317
#     4  12  21  30  50  69 112 151 185 223 270 326
#     4  10  18  28  45  72 106 141 174 209 259 330
#
# _framework density 17.062989999999999
#
# number of rings (size 3 to 8) (size 9 to 14) (size 15 to 20)
#    0.000    1.750    1.250    5.625    8.750    1.000 
#    0.000    0.000    0.000    1.125    0.000    3.500 
#    0.000    0.000    0.000    0.000    0.000    0.000 
#
# Total GULP energy -356538.387045 kJ/mol
# GULP energy per Si atom -5570.912298 kJ/mol
# Density = 1.702415 g / cm^3
# Si number density = 17.062990 Si / 1000 Ang^3
#
#
#
# Elastic Constant Matrix: (Units=GPa)
#
#
# Indices 1 2 3 4 5 6 
#
# 1 56.0937 20.2252 18.1248 0.0000 0.0000 0.0000
# 2 20.2252 106.5304 30.6387 0.0000 0.0000 0.0000
# 3 18.1248 30.6387 71.9151 0.0000 0.0000 0.0000
# 4 0.0000 0.0000 0.0000 7.5714 0.0000 0.0000
# 5 0.0000 0.0000 0.0000 0.0000 10.8808 0.0000
# 6 0.0000 0.0000 0.0000 0.0000 0.0000 20.1951
#
#
#
# Elastic Compliance Matrix: (Units=1/GPa)
#
#
# Indices 1 2 3 4 5 6 
#
# 1 0.020059 -0.002683 -0.003912 0.000000 0.000000 0.000000
# 2 -0.002683 0.011057 -0.004034 0.000000 0.000000 0.000000
# 3 -0.003912 -0.004034 0.016610 0.000000 0.000000 0.000000
# 4 0.000000 0.000000 0.000000 0.132076 0.000000 0.000000
# 5 0.000000 0.000000 0.000000 0.000000 0.091905 0.000000
# 6 0.000000 0.000000 0.000000 0.000000 0.000000 0.049517
#
#
# Mechanical properties :
#
#
# Convention : Reuss Voigt Hill
#
# Bulk Modulus (GPa) = 37.78416 41.39073 39.58745
# Shear Modulus (GPa) = 14.23263 18.76615 16.49939
#
# Velocity S-wave (km/s) = 2.89125 3.31995 3.11299
# Velocity P-wave (km/s) = 5.77389 6.24550 6.01432
#
# Compressibility (1/GPa) = 0.02646611
#
# Stress axis : x y z
#
# Youngs Moduli (GPa) = 49.85331 90.44303 60.20426
#
# Poissons Ratio (x) = 0.24266 0.23554
# Poissons Ratio (y) = 0.13376 0.24289
# Poissons Ratio (z) = 0.19504 0.36488
#
# Static dielectric constant tensor:
#      x y z
#    x 1.554990 0.000000 0.000000 
#    y 0.000000 1.675700 0.000000 
#    z 0.000000 0.000000 1.603300 
# 
# From -- ./inp_files/60269.got.cif
#   From: 2010.05.17/outbox.cif.g08.bks.cpg/sg66_31_cif.got.tgz:60269.got - 2010.06.03 17:51:23.
