data_PCOD9495771
_publ_section_title
;
Structure prediction by ZEFSAII (Michael W. Deem and Ramdas Pophale) SiO2 
 PCOD9495771
Probable space group: C C C M
;
_chemical_formula_sum "Si O2"
_cell_formula_units_Z 112
_cell_length_a 28.297161
_cell_length_b 10.290174
_cell_length_c 14.299840
_cell_angle_alpha 90.000000
_cell_angle_beta 90.000000
_cell_angle_gamma 90.000000
_cell_volume 4163.866169
_symmetry_space_group_name_H-M "C C C M"
_symmetry_group_IT_number 66
_symmetry_cell_setting 'orthorhombic'
loop_
_space_group_symop_operation_xyz
x,y,z
-x,-y,z
x,-y,1/2-z
-x,y,1/2-z
-x,-y,-z
x,y,-z
-x,y,1/2+z
x,-y,1/2+z
1/2+x,1/2+y,z
1/2-x,1/2-y,z
1/2+x,1/2-y,1/2-z
1/2-x,1/2+y,1/2-z
1/2-x,1/2-y,-z
1/2+x,1/2+y,-z
1/2-x,1/2+y,1/2+z
1/2+x,1/2-y,1/2+z
loop_
_atom_site_type_symbol
_atom_site_label
_atom_site_fract_x
_atom_site_fract_y
_atom_site_fract_z
Si Si1 0.424365 0.517461 0.895089
Si Si2 0.471757 0.246667 0.109802
Si Si3 0.927796 0.708188 0.702240
Si Si4 0.155376 0.570639 0.893397
Si Si5 0.159925 0.187370 0.101682
Si Si6 0.247615 0.976854 0.604383
Si Si7 0.301195 0.295881 0.706509
O O1 0.463327 0.403440 0.878282
O O2 0.417961 0.638954 0.825913
O O3 0.376211 0.433993 0.898868
O O4 0.433222 0.571699 0.000000
O O5 0.435378 0.192505 0.186605
O O6 0.521967 0.197530 0.147425
O O7 0.464697 0.218552 0.000000
O O8 0.891924 0.601220 0.663016
O O9 0.197644 0.471529 0.862533
O O10 0.182540 0.707403 0.879204
O O11 0.142732 0.546685 0.000000
O O12 0.161113 0.225857 0.211221
O O13 0.214516 0.146444 0.093937
O O14 0.149245 0.254780 0.000000
O O15 0.252158 0.033269 0.500000
O O16 0.213515 0.065822 0.666489
O O17 0.250000 0.250000 0.739369
#
# Coordination Sequence:
#
# PCOD9495771 Si02
#       7
#    16  16  16  16  16  16  16
#     4  10  19  30  44  63  90 126 166 203 239 285
#     4  10  21  33  44  64  94 126 161 198 240 296
#     4  11  20  31  48  66  89 123 162 204 246 285
#     4  10  19  31  48  69  91 119 162 213 257 291
#     4  10  20  33  49  68  94 132 171 203 239 289
#     4   9  18  31  46  66  91 119 158 208 253 289
#     4  10  19  30  46  68  94 124 158 198 247 297
#
# _framework density 26.898078999999999
#
# number of rings (size 3 to 8) (size 9 to 14) (size 15 to 20)
#    0.000    2.000    0.000    4.714    0.000    6.571 
#    0.000    0.000    0.000    0.857    0.000    0.000 
#    0.000    0.000    0.000   63.000    0.000  537.286 
#
# Total GULP energy -312569.348820 kJ/mol
# GULP energy per Si atom -5581.595515 kJ/mol
# Density = 2.683686 g / cm^3
# Si number density = 26.898079 Si / 1000 Ang^3
#
#
#
# Elastic Constant Matrix: (Units=GPa)
#
#
# Indices 1 2 3 4 5 6 
#
# 1 159.7597 21.4876 33.7067 0.0000 0.0000 0.0000
# 2 21.4876 22.8227 39.5510 0.0000 0.0000 0.0000
# 3 33.7067 39.5510 187.9639 0.0000 0.0000 0.0000
# 4 0.0000 0.0000 0.0000 10.0195 0.0000 0.0000
# 5 0.0000 0.0000 0.0000 0.0000 40.2645 0.0000
# 6 0.0000 0.0000 0.0000 0.0000 0.0000 36.2559
#
#
#
# Elastic Compliance Matrix: (Units=1/GPa)
#
#
# Indices 1 2 3 4 5 6 
#
# 1 0.007172 -0.007120 0.000212 0.000000 0.000000 0.000000
# 2 -0.007120 0.076032 -0.014722 0.000000 0.000000 0.000000
# 3 0.000212 -0.014722 0.008380 0.000000 0.000000 0.000000
# 4 0.000000 0.000000 0.000000 0.099806 0.000000 0.000000
# 5 0.000000 0.000000 0.000000 0.000000 0.024836 0.000000
# 6 0.000000 0.000000 0.000000 0.000000 0.000000 0.027582
#
#
# Mechanical properties :
#
#
# Convention : Reuss Voigt Hill
#
# Bulk Modulus (GPa) = 20.69344 62.22631 41.45987
# Shear Modulus (GPa) = 16.49210 35.69469 26.09339
#
# Velocity S-wave (km/s) = 2.47884 3.64680 3.11800
# Velocity P-wave (km/s) = 3.98784 6.39660 5.33007
#
# Compressibility (1/GPa) = 0.04832450
#
# Stress axis : x y z
#
# Youngs Moduli (GPa) = 139.42456 13.15234 119.33388
#
# Poissons Ratio (x) = 0.09365 -0.02531
# Poissons Ratio (y) = 0.99274 1.75680
# Poissons Ratio (z) = -0.02957 0.19362
#
# Static dielectric constant tensor:
#      x y z
#    x 2.154380 0.000000 0.000000 
#    y 0.000000 2.036950 0.000000 
#    z 0.000000 0.000000 2.211960 
# 
# From -- ./inp_files/28902.got.cif
#   From: 2010.05.17/outbox.cif.g08.bks.cpg/sg66_15_cif.got.tgz:28902.got - 2010.06.03 17:51:23.
