data_PCOD9495307
_publ_section_title
;
Structure prediction by ZEFSAII (Michael W. Deem and Ramdas Pophale) SiO2 
 PCOD9495307
Probable space group: C C C M
;
_chemical_formula_sum "Si O2"
_cell_formula_units_Z 80
_cell_length_a 16.734975
_cell_length_b 8.793467
_cell_length_c 29.366604
_cell_angle_alpha 90.000000
_cell_angle_beta 90.000000
_cell_angle_gamma 90.000000
_cell_volume 4321.543938
_symmetry_space_group_name_H-M "C C C M"
_symmetry_group_IT_number 66
_symmetry_cell_setting 'orthorhombic'
loop_
_space_group_symop_operation_xyz
x,y,z
-x,-y,z
x,-y,1/2-z
-x,y,1/2-z
-x,-y,-z
x,y,-z
-x,y,1/2+z
x,-y,1/2+z
1/2+x,1/2+y,z
1/2-x,1/2-y,z
1/2+x,1/2-y,1/2-z
1/2-x,1/2+y,1/2-z
1/2-x,1/2-y,-z
1/2+x,1/2+y,-z
1/2-x,1/2+y,1/2+z
1/2+x,1/2-y,1/2+z
loop_
_atom_site_type_symbol
_atom_site_label
_atom_site_fract_x
_atom_site_fract_y
_atom_site_fract_z
Si Si1 0.411466 0.446804 0.892600
Si Si2 0.763400 0.926623 0.554054
Si Si3 0.829136 0.352661 0.380428
Si Si4 0.659201 0.930952 0.298219
Si Si5 0.353330 0.419446 0.702536
O O1 0.500000 0.500000 0.902472
O O2 0.349089 0.526302 0.926333
O O3 0.395020 0.267431 0.895999
O O4 0.388730 0.495200 0.840989
O O5 0.758364 0.947240 0.500000
O O6 0.750000 0.750000 0.565308
O O7 0.701182 0.034471 0.580329
O O8 0.750000 0.250000 0.367316
O O9 0.860235 0.454719 0.338986
O O10 0.626976 0.759463 0.301191
O O11 0.756500 0.925577 0.299390
O O12 0.634914 0.000000 0.250000
O O13 0.377370 0.500000 0.750000
#
# Coordination Sequence:
#
# PCOD9495307 Si02
#       5
#    16  16  16  16  16
#     4  11  23  37  56  84 118 150 182 229 284 335
#     4  10  21  40  64  85 108 141 185 233 281 339
#     4  10  19  34  56  83 112 144 190 230 277 335
#     4  10  18  29  55  83 107 144 195 242 270 318
#     4  10  19  32  53  79 115 150 187 232 281 328
#
# _framework density 18.511901999999999
#
# number of rings (size 3 to 8) (size 9 to 14) (size 15 to 20)
#    0.000    1.800    4.000    2.400    2.800    4.400 
#    0.000    4.000    0.000    3.600    0.000    0.000 
#    0.000    0.000    0.000    0.000    0.000    0.000 
#
# Total GULP energy -223332.658987 kJ/mol
# GULP energy per Si atom -5583.316475 kJ/mol
# Density = 1.846977 g / cm^3
# Si number density = 18.511902 Si / 1000 Ang^3
#
#
#
# Elastic Constant Matrix: (Units=GPa)
#
#
# Indices 1 2 3 4 5 6 
#
# 1 60.4827 56.1996 34.5966 0.0000 0.0000 0.0000
# 2 56.1996 178.3033 88.2364 0.0000 0.0000 0.0000
# 3 34.5966 88.2364 89.8315 0.0000 0.0000 0.0000
# 4 0.0000 0.0000 0.0000 32.8783 0.0000 0.0000
# 5 0.0000 0.0000 0.0000 0.0000 3.7057 0.0000
# 6 0.0000 0.0000 0.0000 0.0000 0.0000 14.7776
#
#
#
# Elastic Compliance Matrix: (Units=1/GPa)
#
#
# Indices 1 2 3 4 5 6 
#
# 1 0.023940 -0.005804 -0.003519 0.000000 0.000000 0.000000
# 2 -0.005804 0.012320 -0.009866 0.000000 0.000000 0.000000
# 3 -0.003519 -0.009866 0.022178 0.000000 0.000000 0.000000
# 4 0.000000 0.000000 0.000000 0.030415 0.000000 0.000000
# 5 0.000000 0.000000 0.000000 0.000000 0.269858 0.000000
# 6 0.000000 0.000000 0.000000 0.000000 0.000000 0.067670
#
#
# Mechanical properties :
#
#
# Convention : Reuss Voigt Hill
#
# Bulk Modulus (GPa) = 49.85079 76.29809 63.07444
# Shear Modulus (GPa) = 10.60567 20.24464 15.42515
#
# Velocity S-wave (km/s) = 2.39615 3.31055 2.88975
# Velocity P-wave (km/s) = 5.88582 7.47785 6.72908
#
# Compressibility (1/GPa) = 0.02005986
#
# Stress axis : x y z
#
# Youngs Moduli (GPa) = 41.77185 81.16672 45.08980
#
# Poissons Ratio (x) = 0.47112 0.15865
# Poissons Ratio (y) = 0.24246 0.44486
# Poissons Ratio (z) = 0.14698 0.80080
#
# Static dielectric constant tensor:
#      x y z
#    x 1.634110 0.000000 0.000000 
#    y 0.000000 1.652040 0.000000 
#    z 0.000000 0.000000 1.618020 
# 
# From -- ./inp_files/65030.got.cif
#   From: 2010.05.17/outbox.cif.g08.bks.cpg/sg66_33_cif.got.tgz:65030.got - 2010.06.03 17:51:23.
