data_PCOD9495109
_publ_section_title
;
Structure prediction by ZEFSAII (Michael W. Deem and Ramdas Pophale) SiO2 
 PCOD9495109
Probable space group: C C C M
;
_chemical_formula_sum "Si O2"
_cell_formula_units_Z 92
_cell_length_a 9.470750
_cell_length_b 17.135616
_cell_length_c 27.827548
_cell_angle_alpha 90.000000
_cell_angle_beta 90.000000
_cell_angle_gamma 90.000000
_cell_volume 4516.053045
_symmetry_space_group_name_H-M "C C C M"
_symmetry_group_IT_number 66
_symmetry_cell_setting 'orthorhombic'
loop_
_space_group_symop_operation_xyz
x,y,z
-x,-y,z
x,-y,1/2-z
-x,y,1/2-z
-x,-y,-z
x,y,-z
-x,y,1/2+z
x,-y,1/2+z
1/2+x,1/2+y,z
1/2-x,1/2-y,z
1/2+x,1/2-y,1/2-z
1/2-x,1/2+y,1/2-z
1/2-x,1/2-y,-z
1/2+x,1/2+y,-z
1/2-x,1/2+y,1/2+z
1/2+x,1/2-y,1/2+z
loop_
_atom_site_type_symbol
_atom_site_label
_atom_site_fract_x
_atom_site_fract_y
_atom_site_fract_z
Si Si1 0.849530 0.685870 0.738114
Si Si2 0.970209 0.884833 0.500000
Si Si3 0.703177 0.405250 0.319816
Si Si4 0.026098 0.905704 0.896224
Si Si5 0.259766 0.022905 0.000000
Si Si6 0.176593 0.567830 0.846526
Si Si7 0.500000 0.000000 0.422197
Si Si8 0.500000 0.500000 0.250000
O O1 0.750000 0.750000 0.714903
O O2 0.782628 0.657917 0.788240
O O3 0.863129 0.614140 0.701345
O O4 0.000000 0.721329 0.750000
O O5 0.958990 0.856083 0.554964
O O6 0.133646 0.914794 0.500000
O O7 0.836539 0.945035 0.500000
O O8 0.607725 0.379851 0.364689
O O9 0.804781 0.476112 0.334904
O O10 0.594246 0.446305 0.283408
O O11 0.170552 0.904500 0.865917
O O12 0.000000 0.000000 0.907548
O O13 0.366505 0.025034 0.045092
O O14 0.062366 0.569027 0.888950
#
# Coordination Sequence:
#
# PCOD9495109 Si02
#       8
#    16   8  16  16   8  16   8   4
#     4  12  28  42  58  82 120 159 205 256 299 355
#     4  11  16  32  48  86 122 155 187 228 297 367
#     4  11  20  36  60  88 115 159 196 247 294 354
#     4  10  17  29  57  87 118 154 190 232 287 360
#     4  10  18  28  48  82 130 152 181 243 297 360
#     4  11  20  35  58  85 119 154 201 240 298 362
#     4  11  20  30  51  86 122 160 185 243 308 344
#     4  12  16  32  66  86 112 152 200 240 284 354
#
# _framework density 20.371770999999999
#
# number of rings (size 3 to 8) (size 9 to 14) (size 15 to 20)
#    0.000    1.043    7.826    2.087    3.652    0.696 
#    0.000    0.000    0.000    0.000    0.000    6.087 
#    0.000    0.000    0.000    0.000    0.000    0.000 
#
# Total GULP energy -256559.208717 kJ/mol
# GULP energy per Si atom -5577.374103 kJ/mol
# Density = 2.032540 g / cm^3
# Si number density = 20.371771 Si / 1000 Ang^3
#
#
#
# Elastic Constant Matrix: (Units=GPa)
#
#
# Indices 1 2 3 4 5 6 
#
# 1 115.8021 16.2965 22.2976 0.0000 0.0000 0.0000
# 2 16.2965 17.2856 8.1345 0.0000 0.0000 0.0000
# 3 22.2976 8.1345 105.7108 0.0000 0.0000 0.0000
# 4 0.0000 0.0000 0.0000 -2.0179 0.0000 0.0000
# 5 0.0000 0.0000 0.0000 0.0000 58.8886 0.0000
# 6 0.0000 0.0000 0.0000 0.0000 0.0000 14.7284
#
#
#
# Elastic Compliance Matrix: (Units=1/GPa)
#
#
# Indices 1 2 3 4 5 6 
#
# 1 0.010169 -0.008900 -0.001460 0.000000 0.000000 0.000000
# 2 -0.008900 0.067815 -0.003341 0.000000 0.000000 0.000000
# 3 -0.001460 -0.003341 0.010025 0.000000 0.000000 0.000000
# 4 0.000000 0.000000 0.000000 -0.495575 0.000000 0.000000
# 5 0.000000 0.000000 0.000000 0.000000 0.016981 0.000000
# 6 0.000000 0.000000 0.000000 0.000000 0.000000 0.067896
#
#
# Mechanical properties :
#
#
# Convention : Reuss Voigt Hill
#
# Bulk Modulus (GPa) = 16.49997 36.91731 26.70864
# Shear Modulus (GPa) = -18.17622 27.12448 4.47413
#
# Velocity S-wave (km/s) = -2.99026 3.65289 1.48358
# Velocity P-wave (km/s) = 1.95068 5.99605 4.00921
#
# Compressibility (1/GPa) = 0.06060619
#
# Stress axis : x y z
#
# Youngs Moduli (GPa) = 98.33757 14.74604 99.75213
#
# Poissons Ratio (x) = 0.13124 0.14565
# Poissons Ratio (y) = 0.87521 0.33328
# Poissons Ratio (z) = 0.14358 0.04927
#
# Static dielectric constant tensor:
#      x y z
#    x 1.757290 0.000000 0.000000 
#    y 0.000000 1.720340 0.000000 
#    z 0.000000 0.000000 1.821000 
# 
# From -- ./inp_files/62656.got.cif
#   From: 2010.05.17/outbox.cif.g08.bks.cpg/sg66_32_cif.got.tgz:62656.got - 2010.06.03 17:51:23.
