data_PCOD9495233
_publ_section_title
;
Structure prediction by ZEFSAII (Michael W. Deem and Ramdas Pophale) SiO2 
 PCOD9495233
Probable space group: C C C M
;
_chemical_formula_sum "Si O2"
_cell_formula_units_Z 96
_cell_length_a 8.883376
_cell_length_b 24.411768
_cell_length_c 23.521858
_cell_angle_alpha 90.000000
_cell_angle_beta 90.000000
_cell_angle_gamma 90.000000
_cell_volume 5100.924580
_symmetry_space_group_name_H-M "C C C M"
_symmetry_group_IT_number 66
_symmetry_cell_setting 'orthorhombic'
loop_
_space_group_symop_operation_xyz
x,y,z
-x,-y,z
x,-y,1/2-z
-x,y,1/2-z
-x,-y,-z
x,y,-z
-x,y,1/2+z
x,-y,1/2+z
1/2+x,1/2+y,z
1/2-x,1/2-y,z
1/2+x,1/2-y,1/2-z
1/2-x,1/2+y,1/2-z
1/2-x,1/2-y,-z
1/2+x,1/2+y,-z
1/2-x,1/2+y,1/2+z
1/2+x,1/2-y,1/2+z
loop_
_atom_site_type_symbol
_atom_site_label
_atom_site_fract_x
_atom_site_fract_y
_atom_site_fract_z
Si Si1 0.306124 0.058073 0.620349
Si Si2 0.778623 0.961019 0.200499
Si Si3 0.746775 0.026663 0.000000
Si Si4 0.017002 0.118501 0.876215
Si Si5 0.367453 0.123045 0.721461
Si Si6 0.615120 0.706778 0.299965
Si Si7 0.078071 0.085032 0.000000
O O1 0.342550 0.044897 0.555843
O O2 0.398947 0.100982 0.658225
O O3 0.139912 0.085190 0.620263
O O4 0.292229 0.001422 0.654213
O O5 0.884359 0.918032 0.167475
O O6 0.657360 0.927277 0.236068
O O7 0.846868 0.000000 0.250000
O O8 0.910949 0.057004 0.000000
O O9 0.797420 0.963243 0.000000
O O10 0.085390 0.117180 0.939967
O O11 0.979161 0.178967 0.851634
O O12 0.500000 0.156829 0.750000
O O13 0.212504 0.155481 0.722349
O O14 0.500000 0.723194 0.250000
O O15 0.750000 0.750000 0.314576
#
# Coordination Sequence:
#
# PCOD9495233 Si02
#       7
#    16  16   8  16  16  16   8
#     4   9  18  26  48  74 110 144 179 217 260 315
#     4  10  18  27  47  76 110 145 176 216 259 318
#     4   9  14  26  42  76 107 145 182 222 257 307
#     4  10  18  31  48  80 108 141 181 225 270 322
#     4  10  21  35  50  74 109 147 182 218 270 327
#     4  11  22  37  57  80 104 132 175 231 288 336
#     4   9  16  26  49  73 113 142 180 226 264 310
#
# _framework density 18.820117
#
# number of rings (size 3 to 8) (size 9 to 14) (size 15 to 20)
#    0.000    2.167    3.333    1.000    0.000    6.333 
#    0.000    0.417    0.000    3.000    0.000    0.583 
#    0.000    0.000    0.000    0.000    0.000    0.000 
#
# Total GULP energy -267221.878535 kJ/mol
# GULP energy per Si atom -5567.122469 kJ/mol
# Density = 1.877728 g / cm^3
# Si number density = 18.820117 Si / 1000 Ang^3
#
#
#
# Elastic Constant Matrix: (Units=GPa)
#
#
# Indices 1 2 3 4 5 6 
#
# 1 43.5295 15.1374 36.7450 0.0000 0.0000 0.0000
# 2 15.1374 81.0322 56.6896 0.0000 0.0000 0.0000
# 3 36.7450 56.6896 174.7594 0.0000 0.0000 0.0000
# 4 0.0000 0.0000 0.0000 8.7764 0.0000 0.0000
# 5 0.0000 0.0000 0.0000 0.0000 28.7755 0.0000
# 6 0.0000 0.0000 0.0000 0.0000 0.0000 6.0909
#
#
#
# Elastic Compliance Matrix: (Units=1/GPa)
#
#
# Indices 1 2 3 4 5 6 
#
# 1 0.028060 -0.001441 -0.005432 0.000000 0.000000 0.000000
# 2 -0.001441 0.016038 -0.004899 0.000000 0.000000 0.000000
# 3 -0.005432 -0.004899 0.008454 0.000000 0.000000 0.000000
# 4 0.000000 0.000000 0.000000 0.113942 0.000000 0.000000
# 5 0.000000 0.000000 0.000000 0.000000 0.034752 0.000000
# 6 0.000000 0.000000 0.000000 0.000000 0.000000 0.164180
#
#
# Mechanical properties :
#
#
# Convention : Reuss Voigt Hill
#
# Bulk Modulus (GPa) = 34.47682 57.38502 45.93092
# Shear Modulus (GPa) = 12.54268 21.44517 16.99393
#
# Velocity S-wave (km/s) = 2.58437 3.37928 3.00820
# Velocity P-wave (km/s) = 5.22151 6.76636 6.04350
#
# Compressibility (1/GPa) = 0.02900499
#
# Stress axis : x y z
#
# Youngs Moduli (GPa) = 35.63819 62.35366 118.29258
#
# Poissons Ratio (x) = 0.08988 0.64260
# Poissons Ratio (y) = 0.05137 0.57955
# Poissons Ratio (z) = 0.19360 0.30549
#
# Static dielectric constant tensor:
#      x y z
#    x 1.717410 0.000000 0.000000 
#    y 0.000000 1.680170 0.000000 
#    z 0.000000 0.000000 1.677190 
# 
# From -- ./inp_files/55816.got.cif
#   From: 2010.05.17/outbox.cif.g08.bks.cpg/sg66_28_cif.got.tgz:55816.got - 2010.06.03 17:51:23.
