data_PCOD9495318
_publ_section_title
;
Structure prediction by ZEFSAII (Michael W. Deem and Ramdas Pophale) SiO2 
 PCOD9495318
Probable space group: C C C M
;
_chemical_formula_sum "Si O2"
_cell_formula_units_Z 64
_cell_length_a 12.531874
_cell_length_b 24.449604
_cell_length_c 10.498947
_cell_angle_alpha 90.000000
_cell_angle_beta 90.000000
_cell_angle_gamma 90.000000
_cell_volume 3216.870607
_symmetry_space_group_name_H-M "C C C M"
_symmetry_group_IT_number 66
_symmetry_cell_setting 'orthorhombic'
loop_
_space_group_symop_operation_xyz
x,y,z
-x,-y,z
x,-y,1/2-z
-x,y,1/2-z
-x,-y,-z
x,y,-z
-x,y,1/2+z
x,-y,1/2+z
1/2+x,1/2+y,z
1/2-x,1/2-y,z
1/2+x,1/2-y,1/2-z
1/2-x,1/2+y,1/2-z
1/2-x,1/2-y,-z
1/2+x,1/2+y,-z
1/2-x,1/2+y,1/2+z
1/2+x,1/2-y,1/2+z
loop_
_atom_site_type_symbol
_atom_site_label
_atom_site_fract_x
_atom_site_fract_y
_atom_site_fract_z
Si Si1 0.087566 0.714238 0.650819
Si Si2 0.673112 0.332647 0.350218
Si Si3 0.622510 0.068667 0.000000
Si Si4 0.385348 0.061790 0.000000
Si Si5 0.242562 0.935150 0.748960
O O1 0.060149 0.709869 0.500000
O O2 0.203434 0.686531 0.668057
O O3 0.105887 0.778662 0.679787
O O4 0.000000 0.692576 0.750000
O O5 0.658167 0.344052 0.500000
O O6 0.654386 0.388290 0.272100
O O7 0.690741 0.079664 0.125445
O O8 0.501170 0.089678 0.000000
O O9 0.606235 0.003490 0.000000
O O10 0.319604 0.072862 0.872781
O O11 0.211815 0.000000 0.750000
#
# Coordination Sequence:
#
# PCOD9495318 Si02
#       5
#    16  16   8   8  16
#     4   9  19  37  59  79 100 133 174 217 263 307
#     4   9  18  36  56  75 105 141 173 204 257 323
#     4   9  18  26  38  67  95 129 175 213 239 284
#     4   9  16  28  42  57  95 141 171 199 249 304
#     4  10  18  30  47  69 101 139 171 205 252 304
#
# _framework density 19.895109999999999
#
# number of rings (size 3 to 8) (size 9 to 14) (size 15 to 20)
#    0.000    2.750    1.250    2.250    0.000    5.000 
#    4.500    1.250    0.000    0.750    0.000    3.500 
#    0.000    0.000    0.000    0.000    0.000    0.000 
#
# Total GULP energy -178299.844482 kJ/mol
# GULP energy per Si atom -5571.870140 kJ/mol
# Density = 1.984983 g / cm^3
# Si number density = 19.895110 Si / 1000 Ang^3
#
#
#
# Elastic Constant Matrix: (Units=GPa)
#
#
# Indices 1 2 3 4 5 6 
#
# 1 25.3017 3.9154 19.3105 0.0000 0.0000 0.0000
# 2 3.9154 131.9808 12.7248 0.0000 0.0000 0.0000
# 3 19.3105 12.7248 100.8798 0.0000 0.0000 0.0000
# 4 0.0000 0.0000 0.0000 -398.3785 0.0000 0.0000
# 5 0.0000 0.0000 0.0000 0.0000 12.6926 0.0000
# 6 0.0000 0.0000 0.0000 0.0000 0.0000 12.7612
#
#
#
# Elastic Compliance Matrix: (Units=1/GPa)
#
#
# Indices 1 2 3 4 5 6 
#
# 1 0.046321 -0.000526 -0.008800 0.000000 0.000000 0.000000
# 2 -0.000526 0.007676 -0.000868 0.000000 0.000000 0.000000
# 3 -0.008800 -0.000868 0.011707 0.000000 0.000000 0.000000
# 4 0.000000 0.000000 0.000000 -0.002510 0.000000 0.000000
# 5 0.000000 0.000000 0.000000 0.000000 0.078786 0.000000
# 6 0.000000 0.000000 0.000000 0.000000 0.000000 0.078363
#
#
# Mechanical properties :
#
#
# Convention : Reuss Voigt Hill
#
# Bulk Modulus (GPa) = 22.06707 36.67373 29.37040
# Shear Modulus (GPa) = 19.54382 -59.77082 -20.11350
#
# Velocity S-wave (km/s) = 3.13764 -5.48709 -3.18304
# Velocity P-wave (km/s) = 4.92363 4.65518 1.13389
#
# Compressibility (1/GPa) = 0.04531639
#
# Stress axis : x y z
#
# Youngs Moduli (GPa) = 21.58844 130.27439 85.42028
#
# Poissons Ratio (x) = 0.06848 0.75174
# Poissons Ratio (y) = 0.01135 0.07411
# Poissons Ratio (z) = 0.18999 0.11303
#
# Static dielectric constant tensor:
#      x y z
#    x 1.707980 0.000000 0.000000 
#    y 0.000000 1.789350 0.000000 
#    z 0.000000 0.000000 0.644950 
# 
# From -- ./inp_files/5285.got.cif
#   From: 2010.05.17/outbox.cif.g08.bks.cpg/sg66_3_cif.got.tgz:5285.got - 2010.06.03 17:51:23.
