data_PCOD9495031
_publ_section_title
;
Structure prediction by ZEFSAII (Michael W. Deem and Ramdas Pophale) SiO2 
 PCOD9495031
Probable space group: C C C M
;
_chemical_formula_sum "Si O2"
_cell_formula_units_Z 80
_cell_length_a 28.961933
_cell_length_b 18.233752
_cell_length_c 8.755513
_cell_angle_alpha 90.000000
_cell_angle_beta 90.000000
_cell_angle_gamma 90.000000
_cell_volume 4623.652489
_symmetry_space_group_name_H-M "C C C M"
_symmetry_group_IT_number 66
_symmetry_cell_setting 'orthorhombic'
loop_
_space_group_symop_operation_xyz
x,y,z
-x,-y,z
x,-y,1/2-z
-x,y,1/2-z
-x,-y,-z
x,y,-z
-x,y,1/2+z
x,-y,1/2+z
1/2+x,1/2+y,z
1/2-x,1/2-y,z
1/2+x,1/2-y,1/2-z
1/2-x,1/2+y,1/2-z
1/2-x,1/2-y,-z
1/2+x,1/2+y,-z
1/2-x,1/2+y,1/2+z
1/2+x,1/2-y,1/2+z
loop_
_atom_site_type_symbol
_atom_site_label
_atom_site_fract_x
_atom_site_fract_y
_atom_site_fract_z
Si Si1 0.212706 0.183750 0.173320
Si Si2 0.356233 0.206463 0.316846
Si Si3 0.447777 0.574189 0.683318
Si Si4 0.550968 0.728445 0.683427
Si Si5 0.714229 0.919311 0.317143
O O1 0.250000 0.250000 0.169561
O O2 0.169222 0.221644 0.252272
O O3 0.238331 0.118638 0.261360
O O4 0.202110 0.161649 0.000000
O O5 0.352465 0.209077 0.500000
O O6 0.410318 0.211075 0.278421
O O7 0.327514 0.134963 0.265765
O O8 0.425306 0.500000 0.750000
O O9 0.500000 0.573843 0.750000
O O10 0.448430 0.572327 0.500000
O O11 0.430555 0.651805 0.746070
O O12 0.500000 0.742882 0.750000
O O13 0.547355 0.720793 0.500000
O O14 0.713992 0.922334 0.500000
O O15 0.709205 0.000000 0.250000
#
# Coordination Sequence:
#
# PCOD9495031 Si02
#       5
#    16  16  16  16  16
#     4   9  17  30  50  75 100 126 158 196 240 294
#     4   9  19  34  52  73 101 135 168 206 251 298
#     4  10  17  27  43  63  87 117 153 195 241 286
#     4  10  19  32  49  71  98 131 172 213 253 295
#     4  10  19  33  53  77 104 133 165 203 250 301
#
# _framework density 17.302337999999999
#
# number of rings (size 3 to 8) (size 9 to 14) (size 15 to 20)
#    0.000    2.400    0.000    5.400    0.000    4.800 
#    0.000    1.000    0.000    5.400    0.000    4.200 
#    0.000    0.000    0.000    0.000    0.000    0.000 
#
# Total GULP energy -222845.054834 kJ/mol
# GULP energy per Si atom -5571.126371 kJ/mol
# Density = 1.726296 g / cm^3
# Si number density = 17.302338 Si / 1000 Ang^3
#
#
#
# Elastic Constant Matrix: (Units=GPa)
#
#
# Indices 1 2 3 4 5 6 
#
# 1 93.4896 55.9651 29.0681 0.0000 0.0000 0.0000
# 2 55.9651 113.6568 43.8512 0.0000 0.0000 0.0000
# 3 29.0681 43.8512 71.5285 0.0000 0.0000 0.0000
# 4 0.0000 0.0000 0.0000 127.5431 0.0000 0.0000
# 5 0.0000 0.0000 0.0000 0.0000 11.3311 0.0000
# 6 0.0000 0.0000 0.0000 0.0000 0.0000 19.8403
#
#
#
# Elastic Compliance Matrix: (Units=1/GPa)
#
#
# Indices 1 2 3 4 5 6 
#
# 1 0.015406 -0.006772 -0.002109 0.000000 0.000000 0.000000
# 2 -0.006772 0.014501 -0.006138 0.000000 0.000000 0.000000
# 3 -0.002109 -0.006138 0.018600 0.000000 0.000000 0.000000
# 4 0.000000 0.000000 0.000000 0.007840 0.000000 0.000000
# 5 0.000000 0.000000 0.000000 0.000000 0.088253 0.000000
# 6 0.000000 0.000000 0.000000 0.000000 0.000000 0.050403
#
#
# Mechanical properties :
#
#
# Convention : Reuss Voigt Hill
#
# Bulk Modulus (GPa) = 54.14393 59.60486 56.87439
# Shear Modulus (GPa) = 21.62641 41.72894 31.67767
#
# Velocity S-wave (km/s) = 3.53925 4.91629 4.28346
# Velocity P-wave (km/s) = 6.93271 8.17009 7.57670
#
# Compressibility (1/GPa) = 0.01846929
#
# Stress axis : x y z
#
# Youngs Moduli (GPa) = 64.90885 68.95916 53.76214
#
# Poissons Ratio (x) = 0.46702 0.11338
# Poissons Ratio (y) = 0.43959 0.32999
# Poissons Ratio (z) = 0.13689 0.42327
#
# Static dielectric constant tensor:
#      x y z
#    x 1.622370 0.000000 0.000000 
#    y 0.000000 1.608720 0.000000 
#    z 0.000000 0.000000 1.585910 
# 
# From -- ./inp_files/6652.got.cif
#   From: 2010.05.17/outbox.cif.g08.bks.cpg/sg66_4_cif.got.tgz:6652.got - 2010.06.03 17:51:23.
