data_PCOD9495356
_publ_section_title
;
Structure prediction by ZEFSAII (Michael W. Deem and Ramdas Pophale) SiO2 
 PCOD9495356
Probable space group: C C C M
;
_chemical_formula_sum "Si O2"
_cell_formula_units_Z 96
_cell_length_a 19.255761
_cell_length_b 8.376659
_cell_length_c 28.847491
_cell_angle_alpha 90.000000
_cell_angle_beta 90.000000
_cell_angle_gamma 90.000000
_cell_volume 4653.069826
_symmetry_space_group_name_H-M "C C C M"
_symmetry_group_IT_number 66
_symmetry_cell_setting 'orthorhombic'
loop_
_space_group_symop_operation_xyz
x,y,z
-x,-y,z
x,-y,1/2-z
-x,y,1/2-z
-x,-y,-z
x,y,-z
-x,y,1/2+z
x,-y,1/2+z
1/2+x,1/2+y,z
1/2-x,1/2-y,z
1/2+x,1/2-y,1/2-z
1/2-x,1/2+y,1/2-z
1/2-x,1/2-y,-z
1/2+x,1/2+y,-z
1/2-x,1/2+y,1/2+z
1/2+x,1/2-y,1/2+z
loop_
_atom_site_type_symbol
_atom_site_label
_atom_site_fract_x
_atom_site_fract_y
_atom_site_fract_z
Si Si1 0.968224 0.834315 0.402982
Si Si2 0.335489 0.444118 0.446441
Si Si3 0.095278 0.300655 0.052843
Si Si4 0.498130 0.250856 0.697810
Si Si5 0.784594 0.572999 0.113743
Si Si6 0.878738 0.520125 0.801364
O O1 0.972624 0.843285 0.347497
O O2 0.022396 0.703073 0.420336
O O3 0.892251 0.825431 0.424509
O O4 0.000000 0.000000 0.421600
O O5 0.318479 0.405911 0.500000
O O6 0.370225 0.622361 0.446953
O O7 0.271238 0.462539 0.411808
O O8 0.151325 0.406009 0.078801
O O9 0.084627 0.347570 0.000000
O O10 0.500000 0.319792 0.750000
O O11 0.576032 0.181568 0.690260
O O12 0.440297 0.110755 0.698568
O O13 0.750000 0.750000 0.121321
O O14 0.818991 0.509050 0.160714
O O15 0.848328 0.500000 0.750000
#
# Coordination Sequence:
#
# PCOD9495356 Si02
#       6
#    16  16  16  16  16  16
#     4  10  18  30  51  79 108 135 172 223 270 313
#     4   9  18  30  47  76 111 142 171 210 271 321
#     4   9  16  28  50  76 103 138 180 220 254 305
#     4   9  18  34  56  76  97 135 179 223 263 312
#     4  10  18  31  53  77 105 136 178 224 259 311
#     4   9  18  35  56  75  97 134 181 220 262 310
#
# _framework density 20.631540999999999
#
# number of rings (size 3 to 8) (size 9 to 14) (size 15 to 20)
#    0.000    2.667    1.667    2.000    0.000    4.333 
#    0.000    4.167    0.000    6.000    0.000    0.000 
#    0.000    0.000    0.000    0.000    0.000    0.000 
#
# Total GULP energy -267537.262144 kJ/mol
# GULP energy per Si atom -5573.692961 kJ/mol
# Density = 2.058458 g / cm^3
# Si number density = 20.631541 Si / 1000 Ang^3
#
#
#
# Elastic Constant Matrix: (Units=GPa)
#
#
# Indices 1 2 3 4 5 6 
#
# 1 143.8196 17.5870 89.3381 0.0000 0.0000 0.0000
# 2 17.5870 20.2345 8.6427 0.0000 0.0000 0.0000
# 3 89.3381 8.6427 171.5486 0.0000 0.0000 0.0000
# 4 0.0000 0.0000 0.0000 22.7999 0.0000 0.0000
# 5 0.0000 0.0000 0.0000 0.0000 26.8412 0.0000
# 6 0.0000 0.0000 0.0000 0.0000 0.0000 4.9398
#
#
#
# Elastic Compliance Matrix: (Units=1/GPa)
#
#
# Indices 1 2 3 4 5 6 
#
# 1 0.011281 -0.007456 -0.005499 0.000000 0.000000 0.000000
# 2 -0.007456 0.055435 0.001090 0.000000 0.000000 0.000000
# 3 -0.005499 0.001090 0.008638 0.000000 0.000000 0.000000
# 4 0.000000 0.000000 0.000000 0.043860 0.000000 0.000000
# 5 0.000000 0.000000 0.000000 0.000000 0.037256 0.000000
# 6 0.000000 0.000000 0.000000 0.000000 0.000000 0.202436
#
#
# Mechanical properties :
#
#
# Convention : Reuss Voigt Hill
#
# Bulk Modulus (GPa) = 19.37077 62.97091 41.17084
# Shear Modulus (GPa) = 12.50486 25.58517 19.04501
#
# Velocity S-wave (km/s) = 2.46459 3.52533 3.04156
# Velocity P-wave (km/s) = 4.18428 6.86720 5.68624
#
# Compressibility (1/GPa) = 0.05162417
#
# Stress axis : x y z
#
# Youngs Moduli (GPa) = 88.64542 18.03901 115.76546
#
# Poissons Ratio (x) = 0.13450 0.63661
# Poissons Ratio (y) = 0.66094 -0.12619
# Poissons Ratio (z) = 0.48748 -0.01966
#
# Static dielectric constant tensor:
#      x y z
#    x 1.724610 0.000000 0.000000 
#    y 0.000000 1.900840 0.000000 
#    z 0.000000 0.000000 1.725620 
# 
# From -- ./inp_files/65217.got.cif
#   From: 2010.05.17/outbox.cif.g08.bks.cpg/sg66_33_cif.got.tgz:65217.got - 2010.06.03 17:51:23.
