data_PCOD9495945
_publ_section_title
;
Structure prediction by ZEFSAII (Michael W. Deem and Ramdas Pophale) SiO2 
 PCOD9495945
Probable space group: C C C M
;
_chemical_formula_sum "Si O2"
_cell_formula_units_Z 112
_cell_length_a 21.275295
_cell_length_b 12.880960
_cell_length_c 22.356721
_cell_angle_alpha 90.000000
_cell_angle_beta 90.000000
_cell_angle_gamma 90.000000
_cell_volume 6126.774968
_symmetry_space_group_name_H-M "C C C M"
_symmetry_group_IT_number 66
_symmetry_cell_setting 'orthorhombic'
loop_
_space_group_symop_operation_xyz
x,y,z
-x,-y,z
x,-y,1/2-z
-x,y,1/2-z
-x,-y,-z
x,y,-z
-x,y,1/2+z
x,-y,1/2+z
1/2+x,1/2+y,z
1/2-x,1/2-y,z
1/2+x,1/2-y,1/2-z
1/2-x,1/2+y,1/2-z
1/2-x,1/2-y,-z
1/2+x,1/2+y,-z
1/2-x,1/2+y,1/2+z
1/2+x,1/2-y,1/2+z
loop_
_atom_site_type_symbol
_atom_site_label
_atom_site_fract_x
_atom_site_fract_y
_atom_site_fract_z
Si Si1 0.312685 0.308573 0.180794
Si Si2 0.824124 0.332793 0.567252
Si Si3 0.934981 0.548994 0.890198
Si Si4 0.144838 0.633814 0.156316
Si Si5 0.761797 0.006118 0.132004
Si Si6 0.681896 0.693632 0.567694
Si Si7 0.569089 0.809136 0.228244
O O1 0.250000 0.250000 0.206946
O O2 0.317875 0.260983 0.113765
O O3 0.298745 0.430053 0.176320
O O4 0.379037 0.276892 0.209566
O O5 0.807583 0.308049 0.500000
O O6 0.896161 0.371479 0.569772
O O7 0.780868 0.426271 0.593137
O O8 0.890455 0.450015 0.883606
O O9 0.940744 0.609447 0.826321
O O10 0.000000 0.500000 0.910409
O O11 0.214476 0.586159 0.164854
O O12 0.146977 0.740819 0.119241
O O13 0.105319 0.638219 0.216676
O O14 0.805271 0.077074 0.090133
O O15 0.655340 0.697519 0.500000
O O16 0.750000 0.750000 0.564259
O O17 0.500000 0.774051 0.250000
#
# Coordination Sequence:
#
# PCOD9495945 Si02
#       7
#    16  16  16  16  16  16  16
#     4   9  20  35  52  83 116 144 182 233 281 333
#     4   9  18  31  50  79 112 141 177 226 279 332
#     4  10  19  32  51  79 106 141 180 218 275 337
#     4  10  20  32  52  81 108 140 181 225 276 328
#     4   9  18  34  54  77 109 146 183 223 275 338
#     4   9  18  33  53  79 109 142 180 223 272 327
#     4  11  21  36  59  81 112 148 187 231 283 343
#
# _framework density 18.280417
#
# number of rings (size 3 to 8) (size 9 to 14) (size 15 to 20)
#    0.000    2.429    1.429    1.714    0.000    8.571 
#    0.000    5.000    0.000    1.714    0.000    1.000 
#    0.000    0.000    0.000    0.000    0.000    0.000 
#
# Total GULP energy -311869.275193 kJ/mol
# GULP energy per Si atom -5569.094200 kJ/mol
# Density = 1.823881 g / cm^3
# Si number density = 18.280417 Si / 1000 Ang^3
#
#
#
# Elastic Constant Matrix: (Units=GPa)
#
#
# Indices 1 2 3 4 5 6 
#
# 1 101.0458 32.8996 23.7691 0.0000 0.0000 0.0000
# 2 32.8996 81.5288 11.8668 0.0000 0.0000 0.0000
# 3 23.7691 11.8668 46.6499 0.0000 0.0000 0.0000
# 4 0.0000 0.0000 0.0000 -5.0597 0.0000 0.0000
# 5 0.0000 0.0000 0.0000 0.0000 -1.6851 0.0000
# 6 0.0000 0.0000 0.0000 0.0000 0.0000 26.0020
#
#
#
# Elastic Compliance Matrix: (Units=1/GPa)
#
#
# Indices 1 2 3 4 5 6 
#
# 1 0.012539 -0.004289 -0.005298 0.000000 0.000000 0.000000
# 2 -0.004289 0.014204 -0.001428 0.000000 0.000000 0.000000
# 3 -0.005298 -0.001428 0.024499 0.000000 0.000000 0.000000
# 4 0.000000 0.000000 0.000000 -0.197642 0.000000 0.000000
# 5 0.000000 0.000000 0.000000 0.000000 -0.593443 0.000000
# 6 0.000000 0.000000 0.000000 0.000000 0.000000 0.038459
#
#
# Mechanical properties :
#
#
# Convention : Reuss Voigt Hill
#
# Bulk Modulus (GPa) = 34.23175 40.69951 37.46563
# Shear Modulus (GPa) = -7.46695 14.56405 3.54855
#
# Velocity S-wave (km/s) = -2.02325 2.82565 1.39477
# Velocity P-wave (km/s) = 3.64808 5.74091 4.80971
#
# Compressibility (1/GPa) = 0.02921264
#
# Stress axis : x y z
#
# Youngs Moduli (GPa) = 79.75018 70.40195 40.81808
#
# Poissons Ratio (x) = 0.30194 0.21625
# Poissons Ratio (y) = 0.34204 0.05829
# Poissons Ratio (z) = 0.42251 0.10053
#
# Static dielectric constant tensor:
#      x y z
#    x 1.674280 0.000000 0.000000 
#    y 0.000000 1.653130 0.000000 
#    z 0.000000 0.000000 1.652080 
# 
# From -- ./inp_files/59538.got.cif
#   From: 2010.05.17/outbox.cif.g08.bks.cpg/sg66_30_cif.got.tgz:59538.got - 2010.06.03 17:51:23.
