data_PCOD9495025
_publ_section_title
;
Structure prediction by ZEFSAII (Michael W. Deem and Ramdas Pophale) SiO2 
 PCOD9495025
Probable space group: C C C M
;
_chemical_formula_sum "Si O2"
_cell_formula_units_Z 112
_cell_length_a 23.293316
_cell_length_b 18.113927
_cell_length_c 14.285938
_cell_angle_alpha 90.000000
_cell_angle_beta 90.000000
_cell_angle_gamma 90.000000
_cell_volume 6027.714758
_symmetry_space_group_name_H-M "C C C M"
_symmetry_group_IT_number 66
_symmetry_cell_setting 'orthorhombic'
loop_
_space_group_symop_operation_xyz
x,y,z
-x,-y,z
x,-y,1/2-z
-x,y,1/2-z
-x,-y,-z
x,y,-z
-x,y,1/2+z
x,-y,1/2+z
1/2+x,1/2+y,z
1/2-x,1/2-y,z
1/2+x,1/2-y,1/2-z
1/2-x,1/2+y,1/2-z
1/2-x,1/2-y,-z
1/2+x,1/2+y,-z
1/2-x,1/2+y,1/2+z
1/2+x,1/2-y,1/2+z
loop_
_atom_site_type_symbol
_atom_site_label
_atom_site_fract_x
_atom_site_fract_y
_atom_site_fract_z
Si Si1 0.709348 0.317636 0.615206
Si Si2 0.543452 0.339732 0.110963
Si Si3 0.604301 0.505559 0.639211
Si Si4 0.340841 0.731964 0.114442
Si Si5 0.264683 0.519599 0.606714
Si Si6 0.918466 0.162761 0.393343
Si Si7 0.267730 0.132684 0.614777
O O1 0.708029 0.319794 0.500000
O O2 0.750000 0.250000 0.642786
O O3 0.732036 0.398034 0.647207
O O4 0.642926 0.312101 0.646931
O O5 0.563909 0.425075 0.118413
O O6 0.596816 0.292489 0.147979
O O7 0.480488 0.321974 0.150407
O O8 0.539323 0.325518 0.000000
O O9 0.607951 0.500000 0.750000
O O10 0.669666 0.511052 0.603924
O O11 0.582898 0.426648 0.603656
O O12 0.318880 0.812702 0.142741
O O13 0.291413 0.673750 0.142515
O O14 0.341562 0.730279 0.000000
O O15 0.244567 0.529316 0.500000
O O16 0.230020 0.451341 0.649138
O O17 0.918484 0.190799 0.500000
O O18 0.267084 0.130301 0.500000
#
# Coordination Sequence:
#
# PCOD9495025 Si02
#       7
#    16  16  16  16  16  16  16
#     4   8  14  25  41  60  76  92 127 175 205 223
#     4  10  17  27  41  56  77 106 135 161 190 229
#     4  11  20  27  37  56  83 111 132 160 193 230
#     4   8  13  20  35  58  81 101 125 160 193 224
#     4   9  15  26  44  60  77 104 137 167 194 230
#     4   9  18  29  42  57  73 101 138 166 190 228
#     4   8  12  20  36  59  80  99 127 161 194 227
#
# _framework density 18.580839000000001
#
# number of rings (size 3 to 8) (size 9 to 14) (size 15 to 20)
#    0.000    3.000    1.429    3.429    0.000    2.286 
#    0.000    0.000    0.000    6.857    0.000    1.000 
#    0.000    8.000    0.000    0.000    0.000   12.286 
#
# Total GULP energy -312167.340281 kJ/mol
# GULP energy per Si atom -5574.416791 kJ/mol
# Density = 1.853855 g / cm^3
# Si number density = 18.580839 Si / 1000 Ang^3
#
#
#
# Elastic Constant Matrix: (Units=GPa)
#
#
# Indices 1 2 3 4 5 6 
#
# 1 141.6043 89.5140 3.6170 0.0000 0.0000 0.0000
# 2 89.5140 119.8919 6.6442 0.0000 0.0000 0.0000
# 3 3.6170 6.6442 57.2116 0.0000 0.0000 0.0000
# 4 0.0000 0.0000 0.0000 -35.8707 0.0000 0.0000
# 5 0.0000 0.0000 0.0000 0.0000 -1.4747 0.0000
# 6 0.0000 0.0000 0.0000 0.0000 0.0000 19.4564
#
#
#
# Elastic Compliance Matrix: (Units=1/GPa)
#
#
# Indices 1 2 3 4 5 6 
#
# 1 0.013380 -0.010007 0.000316 0.000000 0.000000 0.000000
# 2 -0.010007 0.015880 -0.001211 0.000000 0.000000 0.000000
# 3 0.000316 -0.001211 0.017600 0.000000 0.000000 0.000000
# 4 0.000000 0.000000 0.000000 -0.027878 0.000000 0.000000
# 5 0.000000 0.000000 0.000000 0.000000 -0.678110 0.000000
# 6 0.000000 0.000000 0.000000 0.000000 0.000000 0.051397
#
#
# Mechanical properties :
#
#
# Convention : Reuss Voigt Hill
#
# Bulk Modulus (GPa) = 39.91338 57.58425 48.74882
# Shear Modulus (GPa) = -8.65687 11.01770 1.18041
#
# Velocity S-wave (km/s) = -2.16082 2.43772 0.79791
# Velocity P-wave (km/s) = 3.91178 6.24354 5.20979
#
# Compressibility (1/GPa) = 0.02505425
#
# Stress axis : x y z
#
# Youngs Moduli (GPa) = 74.73938 62.97394 56.81930
#
# Poissons Ratio (x) = 0.63019 -0.01797
# Poissons Ratio (y) = 0.74793 0.06883
# Poissons Ratio (z) = -0.02364 0.07629
#
# Static dielectric constant tensor:
#      x y z
#    x 1.669320 0.000000 0.000000 
#    y 0.000000 1.642350 0.000000 
#    z 0.000000 0.000000 1.736230 
# 
# From -- ./inp_files/43147.got.cif
#   From: 2010.05.17/outbox.cif.g08.bks.cpg/sg66_22_cif.got.tgz:43147.got - 2010.06.03 17:51:23.
