data_PCOD9495166
_publ_section_title
;
Structure prediction by ZEFSAII (Michael W. Deem and Ramdas Pophale) SiO2 
 PCOD9495166
Probable space group: C C C M
;
_chemical_formula_sum "Si O2"
_cell_formula_units_Z 68
_cell_length_a 20.044305
_cell_length_b 10.803503
_cell_length_c 14.095483
_cell_angle_alpha 90.000000
_cell_angle_beta 90.000000
_cell_angle_gamma 90.000000
_cell_volume 3052.358649
_symmetry_space_group_name_H-M "C C C M"
_symmetry_group_IT_number 66
_symmetry_cell_setting 'orthorhombic'
loop_
_space_group_symop_operation_xyz
x,y,z
-x,-y,z
x,-y,1/2-z
-x,y,1/2-z
-x,-y,-z
x,y,-z
-x,y,1/2+z
x,-y,1/2+z
1/2+x,1/2+y,z
1/2-x,1/2-y,z
1/2+x,1/2-y,1/2-z
1/2-x,1/2+y,1/2-z
1/2-x,1/2-y,-z
1/2+x,1/2+y,-z
1/2-x,1/2+y,1/2+z
1/2+x,1/2-y,1/2+z
loop_
_atom_site_type_symbol
_atom_site_label
_atom_site_fract_x
_atom_site_fract_y
_atom_site_fract_z
Si Si1 0.702746 0.854977 0.645087
Si Si2 0.599172 0.355956 0.388966
Si Si3 0.500000 0.500000 0.750000
Si Si4 0.247574 0.110112 0.861544
Si Si5 0.920891 0.352603 0.251633
O O1 0.750000 0.750000 0.602179
O O2 0.732201 0.873552 0.751687
O O3 0.626638 0.810756 0.664159
O O4 0.710374 0.992381 0.602653
O O5 0.581759 0.355135 0.500000
O O6 0.546099 0.420533 0.320287
O O7 0.669908 0.423080 0.374137
O O8 0.605138 0.217528 0.345184
O O9 0.250000 0.250000 0.901943
O O10 0.911802 0.500000 0.250000
O O11 0.000000 0.330347 0.250000
#
# Coordination Sequence:
#
# PCOD9495166 Si02
#       5
#    16  16   4  16  16
#     4  10  17  32  59  91 124 176 216 269 338 400
#     4  12  25  42  70 101 130 176 235 284 335 410
#     4  12  26  48  66  94 140 184 216 290 352 406
#     4  10  18  34  58  92 128 161 221 276 324 390
#     4  11  21  38  63  95 131 178 217 269 345 404
#
# _framework density 22.277854000000001
#
# number of rings (size 3 to 8) (size 9 to 14) (size 15 to 20)
#    0.000    1.176    8.235    1.765    0.000    0.471 
#    0.000    2.353    0.000    2.118    0.000    0.000 
#    0.000    0.941    0.000    0.000    0.000    0.000 
#
# Total GULP energy -189520.240222 kJ/mol
# GULP energy per Si atom -5574.124712 kJ/mol
# Density = 2.222715 g / cm^3
# Si number density = 22.277854 Si / 1000 Ang^3
#
#
#
# Elastic Constant Matrix: (Units=GPa)
#
#
# Indices 1 2 3 4 5 6 
#
# 1 159.3516 38.4997 35.2871 0.0000 0.0000 0.0000
# 2 38.4997 125.5569 34.6402 0.0000 0.0000 0.0000
# 3 35.2871 34.6402 146.7638 0.0000 0.0000 0.0000
# 4 0.0000 0.0000 0.0000 -21.0847 0.0000 0.0000
# 5 0.0000 0.0000 0.0000 0.0000 -20.4813 0.0000
# 6 0.0000 0.0000 0.0000 0.0000 0.0000 31.3757
#
#
#
# Elastic Compliance Matrix: (Units=1/GPa)
#
#
# Indices 1 2 3 4 5 6 
#
# 1 0.006988 -0.001796 -0.001256 0.000000 0.000000 0.000000
# 2 -0.001796 0.008981 -0.001688 0.000000 0.000000 0.000000
# 3 -0.001256 -0.001688 0.007514 0.000000 0.000000 0.000000
# 4 0.000000 0.000000 0.000000 -0.047428 0.000000 0.000000
# 5 0.000000 0.000000 0.000000 0.000000 -0.048825 0.000000
# 6 0.000000 0.000000 0.000000 0.000000 0.000000 0.031872
#
#
# Mechanical properties :
#
#
# Convention : Reuss Voigt Hill
#
# Bulk Modulus (GPa) = 71.41651 72.05848 71.73750
# Shear Modulus (GPa) = -186.90945 19.51164 -83.69891
#
# Velocity S-wave (km/s) = -9.16959 2.96266 -6.13612
# Velocity P-wave (km/s) = 8.94325 6.64219 4.23456
#
# Compressibility (1/GPa) = 0.01400237
#
# Stress axis : x y z
#
# Youngs Moduli (GPa) = 143.11238 111.34722 133.08359
#
# Poissons Ratio (x) = 0.19998 0.16717
# Poissons Ratio (y) = 0.25703 0.22463
# Poissons Ratio (z) = 0.17977 0.18794
#
# Static dielectric constant tensor:
#      x y z
#    x 1.901460 0.000000 0.000000 
#    y 0.000000 1.909080 0.000000 
#    z 0.000000 0.000000 1.799200 
# 
# From -- ./inp_files/30889.got.cif
#   From: 2010.05.17/outbox.cif.g08.bks.cpg/sg66_16_cif.got.tgz:30889.got - 2010.06.03 17:51:23.
