data_PCOD9495225
_publ_section_title
;
Structure prediction by ZEFSAII (Michael W. Deem and Ramdas Pophale) SiO2 
 PCOD9495225
Probable space group: C C C M
;
_chemical_formula_sum "Si O2"
_cell_formula_units_Z 80
_cell_length_a 23.041821
_cell_length_b 9.383547
_cell_length_c 14.985741
_cell_angle_alpha 90.000000
_cell_angle_beta 90.000000
_cell_angle_gamma 90.000000
_cell_volume 3240.127159
_symmetry_space_group_name_H-M "C C C M"
_symmetry_group_IT_number 66
_symmetry_cell_setting 'orthorhombic'
loop_
_space_group_symop_operation_xyz
x,y,z
-x,-y,z
x,-y,1/2-z
-x,y,1/2-z
-x,-y,-z
x,y,-z
-x,y,1/2+z
x,-y,1/2+z
1/2+x,1/2+y,z
1/2-x,1/2-y,z
1/2+x,1/2-y,1/2-z
1/2-x,1/2+y,1/2-z
1/2-x,1/2-y,-z
1/2+x,1/2+y,-z
1/2-x,1/2+y,1/2+z
1/2+x,1/2-y,1/2+z
loop_
_atom_site_type_symbol
_atom_site_label
_atom_site_fract_x
_atom_site_fract_y
_atom_site_fract_z
Si Si1 0.562384 0.931545 0.596092
Si Si2 0.641145 0.210947 0.403206
Si Si3 0.713297 0.972298 0.351604
Si Si4 0.163945 0.844415 0.895719
Si Si5 0.431913 0.692633 0.763263
O O1 0.569415 0.851172 0.500000
O O2 0.564546 0.843927 0.686452
O O3 0.500000 0.000000 0.593421
O O4 0.604709 0.064028 0.595387
O O5 0.637104 0.282355 0.500000
O O6 0.609266 0.294221 0.323562
O O7 0.702555 0.129457 0.392603
O O8 0.780339 0.929299 0.360100
O O9 0.680204 0.826712 0.384703
O O10 0.696115 0.000000 0.250000
O O11 0.107299 0.885466 0.838311
O O12 0.158838 0.873122 0.000000
O O13 0.500000 0.651451 0.750000
#
# Coordination Sequence:
#
# PCOD9495225 Si02
#       5
#    16  16  16  16  16
#     4  10  18  27  41  69 109 151 188 226 285 361
#     4  11  20  31  49  77 113 157 194 233 294 359
#     4  11  20  37  60  83 117 156 196 250 298 351
#     4  11  23  38  59  92 122 158 207 250 296 359
#     4  12  22  32  52  82 122 159 194 245 297 363
#
# _framework density 24.690389
#
# number of rings (size 3 to 8) (size 9 to 14) (size 15 to 20)
#    0.000    1.000    6.000    3.600    0.000    0.800 
#    0.000    0.000    0.000    5.400    0.000    1.400 
#    0.000    0.000    0.000    0.000    0.000    0.000 
#
# Total GULP energy -223188.209293 kJ/mol
# GULP energy per Si atom -5579.705232 kJ/mol
# Density = 2.463419 g / cm^3
# Si number density = 24.690389 Si / 1000 Ang^3
#
#
#
# Elastic Constant Matrix: (Units=GPa)
#
#
# Indices 1 2 3 4 5 6 
#
# 1 137.4318 36.6616 15.6588 0.0000 0.0000 0.0000
# 2 36.6616 98.6245 44.6085 0.0000 0.0000 0.0000
# 3 15.6588 44.6085 195.9029 0.0000 0.0000 0.0000
# 4 0.0000 0.0000 0.0000 -21.6703 0.0000 0.0000
# 5 0.0000 0.0000 0.0000 0.0000 23.6041 0.0000
# 6 0.0000 0.0000 0.0000 0.0000 0.0000 -3.7772
#
#
#
# Elastic Compliance Matrix: (Units=1/GPa)
#
#
# Indices 1 2 3 4 5 6 
#
# 1 0.008078 -0.003022 0.000042 0.000000 0.000000 0.000000
# 2 -0.003022 0.012434 -0.002590 0.000000 0.000000 0.000000
# 3 0.000042 -0.002590 0.005691 0.000000 0.000000 0.000000
# 4 0.000000 0.000000 0.000000 -0.046146 0.000000 0.000000
# 5 0.000000 0.000000 0.000000 0.000000 0.042365 0.000000
# 6 0.000000 0.000000 0.000000 0.000000 0.000000 -0.264745
#
#
# Mechanical properties :
#
#
# Convention : Reuss Voigt Hill
#
# Bulk Modulus (GPa) = 66.38251 69.53521 67.95886
# Shear Modulus (GPa) = -22.10795 21.96667 -0.07064
#
# Velocity S-wave (km/s) = -2.99558 2.98600 -0.16933
# Velocity P-wave (km/s) = 3.87036 6.33342 5.24842
#
# Compressibility (1/GPa) = 0.01506421
#
# Stress axis : x y z
#
# Youngs Moduli (GPa) = 123.79879 80.42346 175.71932
#
# Poissons Ratio (x) = 0.24303 -0.00746
# Poissons Ratio (y) = 0.37411 0.45508
# Poissons Ratio (z) = -0.00526 0.20828
#
# Static dielectric constant tensor:
#      x y z
#    x 2.079190 0.000000 0.000000 
#    y 0.000000 1.944030 0.000000 
#    z 0.000000 0.000000 2.020520 
# 
# From -- ./inp_files/32108.got.cif
#   From: 2010.05.17/outbox.cif.g08.bks.cpg/sg66_17_cif.got.tgz:32108.got - 2010.06.03 17:51:23.
