data_PCOD9495223
_publ_section_title
;
Structure prediction by ZEFSAII (Michael W. Deem and Ramdas Pophale) SiO2 
 PCOD9495223
Probable space group: C C C M
;
_chemical_formula_sum "Si O2"
_cell_formula_units_Z 120
_cell_length_a 23.708675
_cell_length_b 12.722732
_cell_length_c 20.109588
_cell_angle_alpha 90.000000
_cell_angle_beta 90.000000
_cell_angle_gamma 90.000000
_cell_volume 6065.838390
_symmetry_space_group_name_H-M "C C C M"
_symmetry_group_IT_number 66
_symmetry_cell_setting 'orthorhombic'
loop_
_space_group_symop_operation_xyz
x,y,z
-x,-y,z
x,-y,1/2-z
-x,y,1/2-z
-x,-y,-z
x,y,-z
-x,y,1/2+z
x,-y,1/2+z
1/2+x,1/2+y,z
1/2-x,1/2-y,z
1/2+x,1/2-y,1/2-z
1/2-x,1/2+y,1/2-z
1/2-x,1/2-y,-z
1/2+x,1/2+y,-z
1/2-x,1/2+y,1/2+z
1/2+x,1/2-y,1/2+z
loop_
_atom_site_type_symbol
_atom_site_label
_atom_site_fract_x
_atom_site_fract_y
_atom_site_fract_z
Si Si1 0.622193 0.878777 0.073552
Si Si2 0.849648 0.614883 0.775319
Si Si3 0.999560 0.619197 0.128977
Si Si4 0.738418 0.627908 0.297455
Si Si5 0.500000 0.284176 0.250000
Si Si6 0.604435 0.760327 0.425951
Si Si7 0.796887 0.579815 0.571975
Si Si8 0.385306 0.328185 0.708563
O O1 0.639460 0.846551 0.149395
O O2 0.554663 0.881092 0.080744
O O3 0.655966 0.988714 0.071828
O O4 0.635245 0.829498 0.000000
O O5 0.871766 0.500000 0.750000
O O6 0.782929 0.608868 0.761163
O O7 0.874859 0.704769 0.727841
O O8 0.993829 0.705815 0.186975
O O9 0.000000 0.500000 0.156114
O O10 0.056508 0.653334 0.091420
O O11 0.750000 0.750000 0.313966
O O12 0.757047 0.569177 0.364576
O O13 0.673630 0.615847 0.277348
O O14 0.443560 0.353102 0.255716
O O15 0.594567 0.721438 0.500000
O O16 0.665555 0.815305 0.422884
O O17 0.603726 0.671868 0.370003
O O18 0.767600 0.578586 0.500000
#
# Coordination Sequence:
#
# PCOD9495223 Si02
#       8
#    16  16  16  16   8  16  16  16
#     4  11  21  31  45  66  98 129 160 198 229 264
#     4  11  19  32  48  68  94 123 158 192 231 278
#     4  11  20  27  40  63  94 132 168 192 221 257
#     4  10  19  31  46  67  91 122 157 196 239 282
#     4  10  21  30  46  66  87 124 166 200 224 274
#     4  10  18  27  38  59  92 126 162 191 222 266
#     4  10  18  28  42  65  94 126 159 191 229 276
#     4  10  20  33  47  68  90 124 161 197 237 279
#
# _framework density 19.782920000000001
#
# number of rings (size 3 to 8) (size 9 to 14) (size 15 to 20)
#    0.000    1.600    6.667    0.600    1.867    1.333 
#    0.000    0.000    0.000    3.600    0.000    0.467 
#    0.000    0.000    0.000    2.933    0.000    0.000 
#
# Total GULP energy -334105.403149 kJ/mol
# GULP energy per Si atom -5568.423386 kJ/mol
# Density = 1.973789 g / cm^3
# Si number density = 19.782920 Si / 1000 Ang^3
#
#
#
# Elastic Constant Matrix: (Units=GPa)
#
#
# Indices 1 2 3 4 5 6 
#
# 1 131.6888 5.2362 30.3155 0.0000 0.0000 0.0000
# 2 5.2362 18.9371 7.1610 0.0000 0.0000 0.0000
# 3 30.3155 7.1610 133.7914 0.0000 0.0000 0.0000
# 4 0.0000 0.0000 0.0000 5.3829 0.0000 0.0000
# 5 0.0000 0.0000 0.0000 0.0000 12.4273 0.0000
# 6 0.0000 0.0000 0.0000 0.0000 0.0000 13.8511
#
#
#
# Elastic Compliance Matrix: (Units=1/GPa)
#
#
# Indices 1 2 3 4 5 6 
#
# 1 0.008057 -0.001569 -0.001742 0.000000 0.000000 0.000000
# 2 -0.001569 0.054203 -0.002546 0.000000 0.000000 0.000000
# 3 -0.001742 -0.002546 0.008005 0.000000 0.000000 0.000000
# 4 0.000000 0.000000 0.000000 0.185775 0.000000 0.000000
# 5 0.000000 0.000000 0.000000 0.000000 0.080468 0.000000
# 6 0.000000 0.000000 0.000000 0.000000 0.000000 0.072197
#
#
# Mechanical properties :
#
#
# Convention : Reuss Voigt Hill
#
# Bulk Modulus (GPa) = 17.07876 41.09363 29.08620
# Shear Modulus (GPa) = 11.36533 22.44589 16.90561
#
# Velocity S-wave (km/s) = 2.39948 3.37205 2.92645
# Velocity P-wave (km/s) = 4.04085 5.99820 5.11404
#
# Compressibility (1/GPa) = 0.05855226
#
# Stress axis : x y z
#
# Youngs Moduli (GPa) = 124.11588 18.44922 124.91873
#
# Poissons Ratio (x) = 0.02895 0.21756
# Poissons Ratio (y) = 0.19476 0.31799
# Poissons Ratio (z) = 0.21616 0.04696
#
# Static dielectric constant tensor:
#      x y z
#    x 1.750500 0.000000 0.000000 
#    y 0.000000 1.718500 0.000000 
#    z 0.000000 0.000000 1.782070 
# 
# From -- ./inp_files/52671.got.cif
#   From: 2010.05.17/outbox.cif.g08.bks.cpg/sg66_27_cif.got.tgz:52671.got - 2010.06.03 17:51:23.
