data_PCOD9495965
_publ_section_title
;
Structure prediction by ZEFSAII (Michael W. Deem and Ramdas Pophale) SiO2 
 PCOD9495965
Probable space group: C C C M
;
_chemical_formula_sum "Si O2"
_cell_formula_units_Z 80
_cell_length_a 22.676006
_cell_length_b 12.406972
_cell_length_c 14.356352
_cell_angle_alpha 90.000000
_cell_angle_beta 90.000000
_cell_angle_gamma 90.000000
_cell_volume 4039.024277
_symmetry_space_group_name_H-M "C C C M"
_symmetry_group_IT_number 66
_symmetry_cell_setting 'orthorhombic'
loop_
_space_group_symop_operation_xyz
x,y,z
-x,-y,z
x,-y,1/2-z
-x,y,1/2-z
-x,-y,-z
x,y,-z
-x,y,1/2+z
x,-y,1/2+z
1/2+x,1/2+y,z
1/2-x,1/2-y,z
1/2+x,1/2-y,1/2-z
1/2-x,1/2+y,1/2-z
1/2-x,1/2-y,-z
1/2+x,1/2+y,-z
1/2-x,1/2+y,1/2+z
1/2+x,1/2-y,1/2+z
loop_
_atom_site_type_symbol
_atom_site_label
_atom_site_fract_x
_atom_site_fract_y
_atom_site_fract_z
Si Si1 0.226265 0.559204 0.611932
Si Si2 0.638571 0.449164 0.388836
Si Si3 0.014897 0.119346 0.142154
Si Si4 0.303939 0.832595 0.792438
Si Si5 0.394134 0.690063 0.893887
O O1 0.218353 0.573351 0.500000
O O2 0.295173 0.579356 0.638177
O O3 0.191350 0.635227 0.683620
O O4 0.210861 0.438327 0.645654
O O5 0.639693 0.457769 0.500000
O O6 0.584775 0.369003 0.367504
O O7 0.622147 0.570168 0.355033
O O8 0.000000 0.116878 0.250000
O O9 0.965068 0.197370 0.102635
O O10 0.000000 0.000000 0.102641
O O11 0.250000 0.750000 0.804810
O O12 0.362504 0.777179 0.830989
O O13 0.371396 0.697938 0.000000
#
# Coordination Sequence:
#
# PCOD9495965 Si02
#       5
#    16  16  16  16  16
#     4  10  22  37  55  82 118 158 198 248 301 352
#     4   9  17  31  51  76 109 149 190 236 296 354
#     4   9  18  28  48  76 112 150 186 230 287 349
#     4  11  22  34  57  82 118 159 207 244 290 358
#     4  10  19  32  52  79 113 153 198 243 285 346
#
# _framework density 19.806764000000001
#
# number of rings (size 3 to 8) (size 9 to 14) (size 15 to 20)
#    0.000    2.200    2.000    1.200    2.800    5.200 
#    0.000    0.000    0.000    0.000    0.000    2.800 
#    0.000    8.000    0.000    0.000    0.000    0.000 
#
# Total GULP energy -223148.532439 kJ/mol
# GULP energy per Si atom -5578.713311 kJ/mol
# Density = 1.976168 g / cm^3
# Si number density = 19.806764 Si / 1000 Ang^3
#
#
#
# Elastic Constant Matrix: (Units=GPa)
#
#
# Indices 1 2 3 4 5 6 
#
# 1 115.3839 51.6567 53.7655 0.0000 0.0000 0.0000
# 2 51.6567 63.8260 34.1895 0.0000 0.0000 0.0000
# 3 53.7655 34.1895 124.1803 0.0000 0.0000 0.0000
# 4 0.0000 0.0000 0.0000 -35.8328 0.0000 0.0000
# 5 0.0000 0.0000 0.0000 0.0000 27.4542 0.0000
# 6 0.0000 0.0000 0.0000 0.0000 0.0000 31.1667
#
#
#
# Elastic Compliance Matrix: (Units=1/GPa)
#
#
# Indices 1 2 3 4 5 6 
#
# 1 0.014893 -0.010087 -0.003671 0.000000 0.000000 0.000000
# 2 -0.010087 0.025210 -0.002573 0.000000 0.000000 0.000000
# 3 -0.003671 -0.002573 0.010351 0.000000 0.000000 0.000000
# 4 0.000000 0.000000 0.000000 -0.027907 0.000000 0.000000
# 5 0.000000 0.000000 0.000000 0.000000 0.036424 0.000000
# 6 0.000000 0.000000 0.000000 0.000000 0.000000 0.032086
#
#
# Mechanical properties :
#
#
# Convention : Reuss Voigt Hill
#
# Bulk Modulus (GPa) = 56.20921 64.73486 60.47203
# Shear Modulus (GPa) = 38.56524 15.47618 27.02071
#
# Velocity S-wave (km/s) = 4.41735 2.79831 3.69754
# Velocity P-wave (km/s) = 7.37955 6.57228 6.98758
#
# Compressibility (1/GPa) = 0.01779068
#
# Stress axis : x y z
#
# Youngs Moduli (GPa) = 67.14417 39.66659 96.61133
#
# Poissons Ratio (x) = 0.40013 0.35466
# Poissons Ratio (y) = 0.67730 0.24863
# Poissons Ratio (z) = 0.24649 0.10208
#
# Static dielectric constant tensor:
#      x y z
#    x 1.744570 0.000000 0.000000 
#    y 0.000000 1.700550 0.000000 
#    z 0.000000 0.000000 1.751000 
# 
# From -- ./inp_files/32083.got.cif
#   From: 2010.05.17/outbox.cif.g08.bks.cpg/sg66_17_cif.got.tgz:32083.got - 2010.06.03 17:51:23.
