data_PCOD9495016
_publ_section_title
;
Structure prediction by ZEFSAII (Michael W. Deem and Ramdas Pophale) SiO2 
 PCOD9495016
Probable space group: C C C M
;
_chemical_formula_sum "Si O2"
_cell_formula_units_Z 80
_cell_length_a 8.777038
_cell_length_b 27.670807
_cell_length_c 15.138456
_cell_angle_alpha 90.000000
_cell_angle_beta 90.000000
_cell_angle_gamma 90.000000
_cell_volume 3676.642362
_symmetry_space_group_name_H-M "C C C M"
_symmetry_group_IT_number 66
_symmetry_cell_setting 'orthorhombic'
loop_
_space_group_symop_operation_xyz
x,y,z
-x,-y,z
x,-y,1/2-z
-x,y,1/2-z
-x,-y,-z
x,y,-z
-x,y,1/2+z
x,-y,1/2+z
1/2+x,1/2+y,z
1/2-x,1/2-y,z
1/2+x,1/2-y,1/2-z
1/2-x,1/2+y,1/2-z
1/2-x,1/2-y,-z
1/2+x,1/2+y,-z
1/2-x,1/2+y,1/2+z
1/2+x,1/2-y,1/2+z
loop_
_atom_site_type_symbol
_atom_site_label
_atom_site_fract_x
_atom_site_fract_y
_atom_site_fract_z
Si Si1 0.898224 0.044326 0.102257
Si Si2 0.567852 0.747790 0.149700
Si Si3 0.934583 0.850462 0.651061
Si Si4 0.067663 0.345747 0.349879
Si Si5 0.061095 0.450706 0.349564
O O1 0.969160 0.097735 0.108012
O O2 0.742456 0.045952 0.155418
O O3 0.858586 0.035011 0.000000
O O4 0.000000 0.000000 0.133289
O O5 0.500000 0.746742 0.250000
O O6 0.750000 0.750000 0.152749
O O7 0.510873 0.697201 0.109825
O O8 0.501025 0.797074 0.109122
O O9 0.751518 0.842806 0.652261
O O10 0.000000 0.854568 0.750000
O O11 0.025950 0.398065 0.390439
O O12 0.000000 0.346962 0.250000
O O13 0.000000 0.500000 0.392291
O O14 0.000000 0.449630 0.250000
#
# Coordination Sequence:
#
# PCOD9495016 Si02
#       5
#    16  16  16  16  16
#     4  10  23  40  57  80 114 153 187 225 282 344
#     4  10  17  26  45  75 108 139 174 222 279 330
#     4  10  19  31  52  78 104 139 184 231 272 320
#     4   9  16  28  45  73 111 139 171 220 276 327
#     4   9  19  34  56  84 111 143 185 234 275 318
#
# _framework density 21.758984999999999
#
# number of rings (size 3 to 8) (size 9 to 14) (size 15 to 20)
#    0.000    2.400    0.000    5.400    0.000   10.400 
#    0.000    0.000    0.000   10.200    0.000    0.000 
#    0.000    0.000    0.000    0.000    0.000    0.000 
#
# Total GULP energy -223100.030536 kJ/mol
# GULP energy per Si atom -5577.500763 kJ/mol
# Density = 2.170946 g / cm^3
# Si number density = 21.758985 Si / 1000 Ang^3
#
#
#
# Elastic Constant Matrix: (Units=GPa)
#
#
# Indices 1 2 3 4 5 6 
#
# 1 123.5502 95.3782 17.0900 0.0000 0.0000 0.0000
# 2 95.3782 263.0484 11.7030 0.0000 0.0000 0.0000
# 3 17.0900 11.7030 53.5759 0.0000 0.0000 0.0000
# 4 0.0000 0.0000 0.0000 -344.4362 0.0000 0.0000
# 5 0.0000 0.0000 0.0000 0.0000 -54.7057 0.0000
# 6 0.0000 0.0000 0.0000 0.0000 0.0000 42.1084
#
#
#
# Elastic Compliance Matrix: (Units=1/GPa)
#
#
# Indices 1 2 3 4 5 6 
#
# 1 0.011647 -0.004098 -0.002820 0.000000 0.000000 0.000000
# 2 -0.004098 0.005281 0.000154 0.000000 0.000000 0.000000
# 3 -0.002820 0.000154 0.019531 0.000000 0.000000 0.000000
# 4 0.000000 0.000000 0.000000 -0.002903 0.000000 0.000000
# 5 0.000000 0.000000 0.000000 0.000000 -0.018280 0.000000
# 6 0.000000 0.000000 0.000000 0.000000 0.000000 0.023748
#
#
# Mechanical properties :
#
#
# Convention : Reuss Voigt Hill
#
# Bulk Modulus (GPa) = 43.61021 76.50186 60.05604
# Shear Modulus (GPa) = 83.06138 -50.33982 16.36078
#
# Velocity S-wave (km/s) = 6.18516 -4.81512 2.74507
# Velocity P-wave (km/s) = 8.43174 2.07875 6.14066
#
# Compressibility (1/GPa) = 0.02293041
#
# Stress axis : x y z
#
# Youngs Moduli (GPa) = 85.85658 189.37506 51.20018
#
# Poissons Ratio (x) = 0.77600 0.14440
# Poissons Ratio (y) = 0.35182 -0.00787
# Poissons Ratio (z) = 0.24214 -0.02910
#
# Static dielectric constant tensor:
#      x y z
#    x 1.739670 0.000000 0.000000 
#    y 0.000000 1.915010 0.000000 
#    z 0.000000 0.000000 1.772060 
# 
# From -- ./inp_files/37134.got.cif
#   From: 2010.05.17/outbox.cif.g08.bks.cpg/sg66_19_cif.got.tgz:37134.got - 2010.06.03 17:51:23.
