data_PCOD9495678
_publ_section_title
;
Structure prediction by ZEFSAII (Michael W. Deem and Ramdas Pophale) SiO2 
 PCOD9495678
Probable space group: C C C M
;
_chemical_formula_sum "Si O2"
_cell_formula_units_Z 108
_cell_length_a 12.061364
_cell_length_b 29.431938
_cell_length_c 14.824142
_cell_angle_alpha 90.000000
_cell_angle_beta 90.000000
_cell_angle_gamma 90.000000
_cell_volume 5262.412050
_symmetry_space_group_name_H-M "C C C M"
_symmetry_group_IT_number 66
_symmetry_cell_setting 'orthorhombic'
loop_
_space_group_symop_operation_xyz
x,y,z
-x,-y,z
x,-y,1/2-z
-x,y,1/2-z
-x,-y,-z
x,y,-z
-x,y,1/2+z
x,-y,1/2+z
1/2+x,1/2+y,z
1/2-x,1/2-y,z
1/2+x,1/2-y,1/2-z
1/2-x,1/2+y,1/2-z
1/2-x,1/2-y,-z
1/2+x,1/2+y,-z
1/2-x,1/2+y,1/2+z
1/2+x,1/2-y,1/2+z
loop_
_atom_site_type_symbol
_atom_site_label
_atom_site_fract_x
_atom_site_fract_y
_atom_site_fract_z
Si Si1 0.964614 0.129845 0.109689
Si Si2 0.089968 0.961092 0.390418
Si Si3 0.328334 0.999638 0.651092
Si Si4 0.221728 0.603216 0.106952
Si Si5 0.000000 0.500000 0.000000
Si Si6 0.643046 0.804318 0.604695
Si Si7 0.750000 0.250000 0.256240
Si Si8 0.448109 0.269715 0.106304
O O1 0.841056 0.118815 0.143795
O O2 0.045244 0.088540 0.137506
O O3 0.002068 0.180937 0.131049
O O4 0.962385 0.128458 0.000000
O O5 0.097905 0.962049 0.500000
O O6 0.210507 0.973763 0.353192
O O7 0.000000 0.000000 0.365607
O O8 0.413804 0.982134 0.578026
O O9 0.374682 0.000000 0.750000
O O10 0.306792 0.052616 0.631928
O O11 0.129031 0.641961 0.121126
O O12 0.236187 0.601026 0.000000
O O13 0.685542 0.799525 0.500000
O O14 0.724959 0.789592 0.684300
O O15 0.539330 0.770462 0.611829
O O16 0.647746 0.258984 0.322654
O O17 0.412490 0.271545 0.000000
#
# Coordination Sequence:
#
# PCOD9495678 Si02
#       8
#    16  16  16  16   4  16   8  16
#     4   9  18  33  64  98 135 174 213 257 336 415
#     4  10  18  36  65  99 136 172 203 265 345 409
#     4  12  25  43  71  99 129 176 227 280 338 394
#     4  10  19  40  68  96 129 174 216 278 335 391
#     4  12  26  52  66  82 132 184 230 282 320 394
#     4  10  22  39  65  92 123 171 232 271 323 406
#     4  12  22  38  62  90 132 174 208 284 340 386
#     4  10  22  41  61  93 133 180 222 271 338 407
#
# _framework density 20.522908000000001
#
# number of rings (size 3 to 8) (size 9 to 14) (size 15 to 20)
#    0.000    1.630    2.963    2.000    0.000    3.852 
#    0.000    5.926    0.000    0.000    0.000    0.000 
#    0.000    0.000    0.000    0.000    0.000    0.000 
#
# Total GULP energy -300817.904609 kJ/mol
# GULP energy per Si atom -5570.701937 kJ/mol
# Density = 2.047620 g / cm^3
# Si number density = 20.522908 Si / 1000 Ang^3
#
#
#
# Elastic Constant Matrix: (Units=GPa)
#
#
# Indices 1 2 3 4 5 6 
#
# 1 69.2314 17.9408 25.3916 0.0000 0.0000 0.0000
# 2 17.9408 105.2653 -9.8907 0.0000 0.0000 0.0000
# 3 25.3916 -9.8907 88.9834 0.0000 0.0000 0.0000
# 4 0.0000 0.0000 0.0000 8.1790 0.0000 0.0000
# 5 0.0000 0.0000 0.0000 0.0000 -14.8136 0.0000
# 6 0.0000 0.0000 0.0000 0.0000 0.0000 23.8826
#
#
#
# Elastic Compliance Matrix: (Units=1/GPa)
#
#
# Indices 1 2 3 4 5 6 
#
# 1 0.017287 -0.003446 -0.005316 0.000000 0.000000 0.000000
# 2 -0.003446 0.010287 0.002127 0.000000 0.000000 0.000000
# 3 -0.005316 0.002127 0.012991 0.000000 0.000000 0.000000
# 4 0.000000 0.000000 0.000000 0.122265 0.000000 0.000000
# 5 0.000000 0.000000 0.000000 0.000000 -0.067506 0.000000
# 6 0.000000 0.000000 0.000000 0.000000 0.000000 0.041872
#
#
# Mechanical properties :
#
#
# Convention : Reuss Voigt Hill
#
# Bulk Modulus (GPa) = 36.63640 36.70703 36.67171
# Shear Modulus (GPa) = 31.33538 18.78548 25.06043
#
# Velocity S-wave (km/s) = 3.91173 3.02874 3.49821
# Velocity P-wave (km/s) = 6.18809 5.49143 5.85014
#
# Compressibility (1/GPa) = 0.02729526
#
# Stress axis : x y z
#
# Youngs Moduli (GPa) = 57.84719 97.21096 76.97440
#
# Poissons Ratio (x) = 0.33497 0.40919
# Poissons Ratio (y) = 0.19933 -0.16370
# Poissons Ratio (z) = 0.30751 -0.20674
#
# Static dielectric constant tensor:
#      x y z
#    x 1.676760 0.000000 0.000000 
#    y 0.000000 1.629770 0.000000 
#    z 0.000000 0.000000 1.748080 
# 
# From -- ./inp_files/27069.got.cif
#   From: 2010.05.17/outbox.cif.g08.bks.cpg/sg66_14_cif.got.tgz:27069.got - 2010.06.03 17:51:23.
