data_PCOD9495537
_publ_section_title
;
Structure prediction by ZEFSAII (Michael W. Deem and Ramdas Pophale) SiO2 
 PCOD9495537
Probable space group: C C C M
;
_chemical_formula_sum "Si O2"
_cell_formula_units_Z 68
_cell_length_a 19.322703
_cell_length_b 5.246120
_cell_length_c 31.586468
_cell_angle_alpha 90.000000
_cell_angle_beta 90.000000
_cell_angle_gamma 90.000000
_cell_volume 3201.895581
_symmetry_space_group_name_H-M "C C C M"
_symmetry_group_IT_number 66
_symmetry_cell_setting 'orthorhombic'
loop_
_space_group_symop_operation_xyz
x,y,z
-x,-y,z
x,-y,1/2-z
-x,y,1/2-z
-x,-y,-z
x,y,-z
-x,y,1/2+z
x,-y,1/2+z
1/2+x,1/2+y,z
1/2-x,1/2-y,z
1/2+x,1/2-y,1/2-z
1/2-x,1/2+y,1/2-z
1/2-x,1/2-y,-z
1/2+x,1/2+y,-z
1/2-x,1/2+y,1/2+z
1/2+x,1/2-y,1/2+z
loop_
_atom_site_type_symbol
_atom_site_label
_atom_site_fract_x
_atom_site_fract_y
_atom_site_fract_z
Si Si1 0.820490 0.902822 0.701374
Si Si2 0.925026 0.285343 0.414824
Si Si3 0.899197 0.388664 0.680030
Si Si4 0.000000 0.500000 0.250000
Si Si5 0.081095 0.784379 0.950445
O O1 0.750000 0.750000 0.691841
O O2 0.875280 0.678158 0.690319
O O3 0.817294 0.000000 0.750000
O O4 0.839997 0.170755 0.679577
O O5 0.931870 0.360311 0.366135
O O6 0.886883 0.513253 0.438846
O O7 0.000680 0.250482 0.436225
O O8 0.889866 0.014398 0.422757
O O9 0.952525 0.334532 0.718236
O O10 0.084276 0.839817 0.000000
#
# Coordination Sequence:
#
# PCOD9495537 Si02
#       5
#    16  16  16   4  16
#     4  12  24  46  66  84 109 164 232 282 303 348
#     4  10  19  32  50  82 119 153 194 253 284 360
#     4  12  25  39  62  93 127 165 207 252 330 375
#     4  12  24  42  56  94 134 174 192 240 324 426
#     4  10  18  33  54  80 122 174 202 226 291 382
#
# _framework density 21.23742
#
# number of rings (size 3 to 8) (size 9 to 14) (size 15 to 20)
#    0.000    0.941    2.353    8.471    0.000    3.765 
#    0.000    0.000    0.000    0.000    0.000    0.000 
#    0.000  109.176    0.000    0.000    0.000    0.000 
#
# Total GULP energy -189508.039152 kJ/mol
# GULP energy per Si atom -5573.765857 kJ/mol
# Density = 2.118908 g / cm^3
# Si number density = 21.237420 Si / 1000 Ang^3
#
#
#
# Elastic Constant Matrix: (Units=GPa)
#
#
# Indices 1 2 3 4 5 6 
#
# 1 29.4495 15.2130 22.5476 0.0000 0.0000 0.0000
# 2 15.2130 172.6907 20.5117 0.0000 0.0000 0.0000
# 3 22.5476 20.5117 137.8373 0.0000 0.0000 0.0000
# 4 0.0000 0.0000 0.0000 30.7377 0.0000 0.0000
# 5 0.0000 0.0000 0.0000 0.0000 3.2507 0.0000
# 6 0.0000 0.0000 0.0000 0.0000 0.0000 19.2589
#
#
#
# Elastic Compliance Matrix: (Units=1/GPa)
#
#
# Indices 1 2 3 4 5 6 
#
# 1 0.040109 -0.002804 -0.006144 0.000000 0.000000 0.000000
# 2 -0.002804 0.006091 -0.000448 0.000000 0.000000 0.000000
# 3 -0.006144 -0.000448 0.008327 0.000000 0.000000 0.000000
# 4 0.000000 0.000000 0.000000 0.032533 0.000000 0.000000
# 5 0.000000 0.000000 0.000000 0.000000 0.307630 0.000000
# 6 0.000000 0.000000 0.000000 0.000000 0.000000 0.051924
#
#
# Mechanical properties :
#
#
# Convention : Reuss Voigt Hill
#
# Bulk Modulus (GPa) = 27.98318 50.72468 39.35393
# Shear Modulus (GPa) = 10.47526 29.42979 19.95252
#
# Velocity S-wave (km/s) = 2.22332 3.72661 3.06845
# Velocity P-wave (km/s) = 4.44925 6.51561 5.57894
#
# Compressibility (1/GPa) = 0.03573575
#
# Stress axis : x y z
#
# Youngs Moduli (GPa) = 24.93227 164.18027 120.09742
#
# Poissons Ratio (x) = 0.46029 0.73786
# Poissons Ratio (y) = 0.06990 0.05378
# Poissons Ratio (z) = 0.15318 0.07352
#
# Static dielectric constant tensor:
#      x y z
#    x 1.682030 0.000000 0.000000 
#    y 0.000000 1.873400 0.000000 
#    z 0.000000 0.000000 1.759170 
# 
# From -- ./inp_files/70115.got.cif
#   From: 2010.05.17/outbox.cif.g08.bks.cpg/sg66_36_cif.got.tgz:70115.got - 2010.06.03 17:51:23.
