data_PCOD9495256
_publ_section_title
;
Structure prediction by ZEFSAII (Michael W. Deem and Ramdas Pophale) SiO2 
 PCOD9495256
Probable space group: C C C M
;
_chemical_formula_sum "Si O2"
_cell_formula_units_Z 128
_cell_length_a 11.501998
_cell_length_b 23.857802
_cell_length_c 27.683692
_cell_angle_alpha 90.000000
_cell_angle_beta 90.000000
_cell_angle_gamma 90.000000
_cell_volume 7596.748110
_symmetry_space_group_name_H-M "C C C M"
_symmetry_group_IT_number 66
_symmetry_cell_setting 'orthorhombic'
loop_
_space_group_symop_operation_xyz
x,y,z
-x,-y,z
x,-y,1/2-z
-x,y,1/2-z
-x,-y,-z
x,y,-z
-x,y,1/2+z
x,-y,1/2+z
1/2+x,1/2+y,z
1/2-x,1/2-y,z
1/2+x,1/2-y,1/2-z
1/2-x,1/2+y,1/2-z
1/2-x,1/2-y,-z
1/2+x,1/2+y,-z
1/2-x,1/2+y,1/2+z
1/2+x,1/2-y,1/2+z
loop_
_atom_site_type_symbol
_atom_site_label
_atom_site_fract_x
_atom_site_fract_y
_atom_site_fract_z
Si Si1 0.243114 0.685074 0.857709
Si Si2 0.097198 0.952698 0.641755
Si Si3 0.196679 0.598543 0.942871
Si Si4 0.557251 0.374626 0.201120
Si Si5 0.951013 0.378481 0.195103
Si Si6 0.250590 0.031184 0.297659
Si Si7 0.769489 0.971644 0.943609
Si Si8 0.962506 0.437123 0.391390
O O1 0.250000 0.750000 0.870384
O O2 0.239982 0.645443 0.905251
O O3 0.355724 0.666454 0.826642
O O4 0.126799 0.672865 0.825379
O O5 0.126070 0.944792 0.586123
O O6 0.047011 0.898751 0.668311
O O7 0.209456 0.983029 0.665584
O O8 0.000000 0.000000 0.645979
O O9 0.263154 0.539165 0.935198
O O10 0.064723 0.585968 0.925992
O O11 0.202947 0.612334 0.000000
O O12 0.500000 0.352277 0.250000
O O13 0.639721 0.428652 0.213141
O O14 0.855261 0.428190 0.188935
O O15 0.000000 0.373930 0.250000
O O16 0.046512 0.397190 0.155525
O O17 0.288098 0.000000 0.250000
O O18 0.652686 0.944530 0.922524
O O19 0.777664 0.962698 0.000000
O O20 0.000000 0.500000 0.376303
#
# Coordination Sequence:
#
# PCOD9495256 Si02
#       8
#    16  16  16  16  16  16  16  16
#     4  10  22  39  53  71  95 123 174 227 257 288
#     4  10  19  30  46  69 102 136 169 200 230 286
#     4   9  17  33  52  73  98 127 165 207 252 301
#     4  10  19  33  51  72  96 138 170 199 243 296
#     4  10  22  31  47  77 106 134 164 201 252 295
#     4  10  18  28  46  73 106 131 161 196 228 291
#     4  10  19  30  48  74 107 141 162 187 239 307
#     4   9  17  29  45  72 107 138 161 186 233 302
#
# _framework density 16.849314
#
# number of rings (size 3 to 8) (size 9 to 14) (size 15 to 20)
#    0.000    2.250    1.250    4.125    3.500    2.500 
#    0.000    0.625    0.000    0.000    0.000    0.000 
#    0.000    5.000    0.000    0.000    0.000    0.000 
#
# Total GULP energy -356631.905581 kJ/mol
# GULP energy per Si atom -5572.373525 kJ/mol
# Density = 1.681096 g / cm^3
# Si number density = 16.849314 Si / 1000 Ang^3
#
#
#
# Elastic Constant Matrix: (Units=GPa)
#
#
# Indices 1 2 3 4 5 6 
#
# 1 41.1554 27.2797 36.5207 0.0000 0.0000 0.0000
# 2 27.2797 59.0750 46.0413 0.0000 0.0000 0.0000
# 3 36.5207 46.0413 133.7836 0.0000 0.0000 0.0000
# 4 0.0000 0.0000 0.0000 13.7345 0.0000 0.0000
# 5 0.0000 0.0000 0.0000 0.0000 25.3538 0.0000
# 6 0.0000 0.0000 0.0000 0.0000 0.0000 9.2162
#
#
#
# Elastic Compliance Matrix: (Units=1/GPa)
#
#
# Indices 1 2 3 4 5 6 
#
# 1 0.038198 -0.012999 -0.005954 0.000000 0.000000 0.000000
# 2 -0.012999 0.027556 -0.005935 0.000000 0.000000 0.000000
# 3 -0.005954 -0.005935 0.011142 0.000000 0.000000 0.000000
# 4 0.000000 0.000000 0.000000 0.072809 0.000000 0.000000
# 5 0.000000 0.000000 0.000000 0.000000 0.039442 0.000000
# 6 0.000000 0.000000 0.000000 0.000000 0.000000 0.108505
#
#
# Mechanical properties :
#
#
# Convention : Reuss Voigt Hill
#
# Bulk Modulus (GPa) = 36.87165 50.41082 43.64124
# Shear Modulus (GPa) = 14.02657 17.93907 15.98282
#
# Velocity S-wave (km/s) = 2.88839 3.26648 3.08323
# Velocity P-wave (km/s) = 5.74930 6.64907 6.21548
#
# Compressibility (1/GPa) = 0.02712111
#
# Stress axis : x y z
#
# Youngs Moduli (GPa) = 26.17962 36.29032 89.74660
#
# Poissons Ratio (x) = 0.47173 0.53434
# Poissons Ratio (y) = 0.34030 0.53262
# Poissons Ratio (z) = 0.15587 0.21537
#
# Static dielectric constant tensor:
#      x y z
#    x 1.611300 0.000000 0.000000 
#    y 0.000000 1.550210 0.000000 
#    z 0.000000 0.000000 1.604170 
# 
# From -- ./inp_files/64008.got.cif
#   From: 2010.05.17/outbox.cif.g08.bks.cpg/sg66_33_cif.got.tgz:64008.got - 2010.06.03 17:51:23.
