data_PCOD9495921
_publ_section_title
;
Structure prediction by ZEFSAII (Michael W. Deem and Ramdas Pophale) SiO2 
 PCOD9495921
Probable space group: C C C M
;
_chemical_formula_sum "Si O2"
_cell_formula_units_Z 80
_cell_length_a 18.325548
_cell_length_b 11.987597
_cell_length_c 16.029785
_cell_angle_alpha 90.000000
_cell_angle_beta 90.000000
_cell_angle_gamma 90.000000
_cell_volume 3521.411695
_symmetry_space_group_name_H-M "C C C M"
_symmetry_group_IT_number 66
_symmetry_cell_setting 'orthorhombic'
loop_
_space_group_symop_operation_xyz
x,y,z
-x,-y,z
x,-y,1/2-z
-x,y,1/2-z
-x,-y,-z
x,y,-z
-x,y,1/2+z
x,-y,1/2+z
1/2+x,1/2+y,z
1/2-x,1/2-y,z
1/2+x,1/2-y,1/2-z
1/2-x,1/2+y,1/2-z
1/2-x,1/2-y,-z
1/2+x,1/2+y,-z
1/2-x,1/2+y,1/2+z
1/2+x,1/2-y,1/2+z
loop_
_atom_site_type_symbol
_atom_site_label
_atom_site_fract_x
_atom_site_fract_y
_atom_site_fract_z
Si Si1 0.197772 0.140313 0.400124
Si Si2 0.103731 0.740132 0.595578
Si Si3 0.820347 0.486514 0.596213
Si Si4 0.581459 0.675460 0.740519
Si Si5 0.540051 0.883711 0.647041
O O1 0.179786 0.131591 0.500000
O O2 0.250000 0.250000 0.392613
O O3 0.249271 0.041277 0.366231
O O4 0.128414 0.141946 0.339156
O O5 0.119061 0.772288 0.500000
O O6 0.152850 0.634485 0.622252
O O7 0.114741 0.831686 0.667100
O O8 0.019534 0.693711 0.599974
O O9 0.802178 0.473054 0.500000
O O10 0.887492 0.573921 0.600709
O O11 0.500000 0.627826 0.750000
O O12 0.569351 0.808590 0.722526
O O13 0.500000 0.000000 0.664843
#
# Coordination Sequence:
#
# PCOD9495921 Si02
#       5
#    16  16  16  16  16
#     4  10  19  32  49  71 100 137 179 223 265 305
#     4   9  18  29  43  67 101 137 174 208 246 304
#     4   9  16  27  45  68  95 134 176 213 256 299
#     4  10  20  30  45  72 106 143 176 206 258 313
#     4   9  16  26  40  65 100 137 169 201 243 294
#
# _framework density 22.718162
#
# number of rings (size 3 to 8) (size 9 to 14) (size 15 to 20)
#    0.000    2.600    2.000    0.600    0.000   14.800 
#    0.000    0.000    0.000    0.600    0.000    1.400 
#    0.000    3.200    0.000   21.400    0.000    8.200 
#
# Total GULP energy -222865.919528 kJ/mol
# GULP energy per Si atom -5571.647988 kJ/mol
# Density = 2.266645 g / cm^3
# Si number density = 22.718162 Si / 1000 Ang^3
#
#
#
# Elastic Constant Matrix: (Units=GPa)
#
#
# Indices 1 2 3 4 5 6 
#
# 1 130.3207 26.2691 65.8545 0.0000 0.0000 0.0000
# 2 26.2691 30.4696 26.3090 0.0000 0.0000 0.0000
# 3 65.8545 26.3090 137.1737 0.0000 0.0000 0.0000
# 4 0.0000 0.0000 0.0000 -12.7423 0.0000 0.0000
# 5 0.0000 0.0000 0.0000 0.0000 43.3089 0.0000
# 6 0.0000 0.0000 0.0000 0.0000 0.0000 14.3272
#
#
#
# Elastic Compliance Matrix: (Units=1/GPa)
#
#
# Indices 1 2 3 4 5 6 
#
# 1 0.010942 -0.005870 -0.004127 0.000000 0.000000 0.000000
# 2 -0.005870 0.042482 -0.005330 0.000000 0.000000 0.000000
# 3 -0.004127 -0.005330 0.010294 0.000000 0.000000 0.000000
# 4 0.000000 0.000000 0.000000 -0.078479 0.000000 0.000000
# 5 0.000000 0.000000 0.000000 0.000000 0.023090 0.000000
# 6 0.000000 0.000000 0.000000 0.000000 0.000000 0.069797
#
#
# Mechanical properties :
#
#
# Convention : Reuss Voigt Hill
#
# Bulk Modulus (GPa) = 30.24428 59.42545 44.83486
# Shear Modulus (GPa) = 41.73530 20.94752 31.34141
#
# Velocity S-wave (km/s) = 4.29078 3.03984 3.71829
# Velocity P-wave (km/s) = 6.15544 6.20768 6.18161
#
# Compressibility (1/GPa) = 0.03306411
#
# Stress axis : x y z
#
# Youngs Moduli (GPa) = 91.38870 23.53918 97.14681
#
# Poissons Ratio (x) = 0.13818 0.40096
# Poissons Ratio (y) = 0.53645 0.51777
# Poissons Ratio (z) = 0.37719 0.12546
#
# Static dielectric constant tensor:
#      x y z
#    x 1.916740 0.000000 0.000000 
#    y 0.000000 1.909160 0.000000 
#    z 0.000000 0.000000 1.873450 
# 
# From -- ./inp_files/41469.got.cif
#   From: 2010.05.17/outbox.cif.g08.bks.cpg/sg66_21_cif.got.tgz:41469.got - 2010.06.03 17:51:23.
