data_PCOD9495737
_publ_section_title
;
Structure prediction by ZEFSAII (Michael W. Deem and Ramdas Pophale) SiO2 
 PCOD9495737
Probable space group: C C C M
;
_chemical_formula_sum "Si O2"
_cell_formula_units_Z 96
_cell_length_a 29.938432
_cell_length_b 26.563439
_cell_length_c 8.984695
_cell_angle_alpha 90.000000
_cell_angle_beta 90.000000
_cell_angle_gamma 90.000000
_cell_volume 7145.237837
_symmetry_space_group_name_H-M "C C C M"
_symmetry_group_IT_number 66
_symmetry_cell_setting 'orthorhombic'
loop_
_space_group_symop_operation_xyz
x,y,z
-x,-y,z
x,-y,1/2-z
-x,y,1/2-z
-x,-y,-z
x,y,-z
-x,y,1/2+z
x,-y,1/2+z
1/2+x,1/2+y,z
1/2-x,1/2-y,z
1/2+x,1/2-y,1/2-z
1/2-x,1/2+y,1/2-z
1/2-x,1/2-y,-z
1/2+x,1/2+y,-z
1/2-x,1/2+y,1/2+z
1/2+x,1/2-y,1/2+z
loop_
_atom_site_type_symbol
_atom_site_label
_atom_site_fract_x
_atom_site_fract_y
_atom_site_fract_z
Si Si1 0.452774 0.402060 0.821643
Si Si2 0.546257 0.717596 0.177378
Si Si3 0.142836 0.755356 0.319536
Si Si4 0.135955 0.052800 0.678265
Si Si5 0.806324 0.150348 0.823167
Si Si6 0.225075 0.304474 0.827456
O O1 0.500000 0.417674 0.750000
O O2 0.447470 0.342098 0.790312
O O3 0.411368 0.430558 0.748347
O O4 0.453300 0.408997 0.000000
O O5 0.500000 0.734129 0.250000
O O6 0.591156 0.746153 0.225778
O O7 0.542299 0.722208 0.000000
O O8 0.144960 0.758684 0.500000
O O9 0.164129 0.806310 0.254518
O O10 0.175051 0.709126 0.275621
O O11 0.131604 0.048540 0.500000
O O12 0.171636 0.096728 0.711665
O O13 0.149267 0.000000 0.750000
O O14 0.755910 0.158245 0.765767
O O15 0.807884 0.157927 0.000000
O O16 0.250000 0.250000 0.822103
O O17 0.224316 0.320265 0.000000
#
# Coordination Sequence:
#
# PCOD9495737 Si02
#       6
#    16  16  16  16  16  16
#     4  10  19  32  48  61  76  99 128 167 209 247
#     4   9  17  27  41  59  80 105 132 161 195 232
#     4   9  16  28  43  60  80 105 131 155 188 233
#     4  11  23  35  46  60  76  99 131 167 207 250
#     4  10  19  29  42  60  80  97 122 162 202 237
#     4   8  15  26  42  60  79 102 127 151 185 233
#
# _framework density 13.435523
#
# number of rings (size 3 to 8) (size 9 to 14) (size 15 to 20)
#    0.000    2.500    1.667    2.500    0.000    6.667 
#    0.000    1.667    0.000    0.000    0.000    0.000 
#    0.000    0.000    0.000    0.000    0.000    0.833 
#
# Total GULP energy -267461.444827 kJ/mol
# GULP energy per Si atom -5572.113434 kJ/mol
# Density = 1.340494 g / cm^3
# Si number density = 13.435523 Si / 1000 Ang^3
#
#
#
# Elastic Constant Matrix: (Units=GPa)
#
#
# Indices 1 2 3 4 5 6 
#
# 1 116.1127 51.3610 36.8588 0.0000 0.0000 0.0000
# 2 51.3610 47.0293 30.2006 0.0000 0.0000 0.0000
# 3 36.8588 30.2006 33.4384 0.0000 0.0000 0.0000
# 4 0.0000 0.0000 0.0000 15.3589 0.0000 0.0000
# 5 0.0000 0.0000 0.0000 0.0000 23.1080 0.0000
# 6 0.0000 0.0000 0.0000 0.0000 0.0000 15.2343
#
#
#
# Elastic Compliance Matrix: (Units=1/GPa)
#
#
# Indices 1 2 3 4 5 6 
#
# 1 0.016963 -0.015519 -0.004682 0.000000 0.000000 0.000000
# 2 -0.015519 0.064822 -0.041439 0.000000 0.000000 0.000000
# 3 -0.004682 -0.041439 0.072493 0.000000 0.000000 0.000000
# 4 0.000000 0.000000 0.000000 0.065109 0.000000 0.000000
# 5 0.000000 0.000000 0.000000 0.000000 0.043275 0.000000
# 6 0.000000 0.000000 0.000000 0.000000 0.000000 0.065641
#
#
# Mechanical properties :
#
#
# Convention : Reuss Voigt Hill
#
# Bulk Modulus (GPa) = 32.25973 48.15791 40.20882
# Shear Modulus (GPa) = 10.82443 15.95091 13.38767
#
# Velocity S-wave (km/s) = 2.84149 3.44934 3.16007
# Velocity P-wave (km/s) = 5.90155 7.19621 6.58080
#
# Compressibility (1/GPa) = 0.03099840
#
# Stress axis : x y z
#
# Youngs Moduli (GPa) = 58.95106 15.42674 13.79434
#
# Poissons Ratio (x) = 0.23941 0.06459
# Poissons Ratio (y) = 0.91486 0.57163
# Poissons Ratio (z) = 0.27602 0.63927
#
# Static dielectric constant tensor:
#      x y z
#    x 1.465600 0.000000 0.000000 
#    y 0.000000 1.416950 0.000000 
#    z 0.000000 0.000000 1.448680 
# 
# From -- ./inp_files/10646.got.cif
#   From: 2010.05.17/outbox.cif.g08.bks.cpg/sg66_6_cif.got.tgz:10646.got - 2010.06.03 17:51:23.
