data_PCOD9495886
_publ_section_title
;
Structure prediction by ZEFSAII (Michael W. Deem and Ramdas Pophale) SiO2 
 PCOD9495886
Probable space group: C C C M
;
_chemical_formula_sum "Si O2"
_cell_formula_units_Z 96
_cell_length_a 13.157548
_cell_length_b 21.491744
_cell_length_c 20.148660
_cell_angle_alpha 90.000000
_cell_angle_beta 90.000000
_cell_angle_gamma 90.000000
_cell_volume 5697.610940
_symmetry_space_group_name_H-M "C C C M"
_symmetry_group_IT_number 66
_symmetry_cell_setting 'orthorhombic'
loop_
_space_group_symop_operation_xyz
x,y,z
-x,-y,z
x,-y,1/2-z
-x,y,1/2-z
-x,-y,-z
x,y,-z
-x,y,1/2+z
x,-y,1/2+z
1/2+x,1/2+y,z
1/2-x,1/2-y,z
1/2+x,1/2-y,1/2-z
1/2-x,1/2+y,1/2-z
1/2-x,1/2-y,-z
1/2+x,1/2+y,-z
1/2-x,1/2+y,1/2+z
1/2+x,1/2-y,1/2+z
loop_
_atom_site_type_symbol
_atom_site_label
_atom_site_fract_x
_atom_site_fract_y
_atom_site_fract_z
Si Si1 0.332352 0.617481 0.423352
Si Si2 0.659246 0.699916 0.270690
Si Si3 0.528521 0.716194 0.861954
Si Si4 0.602153 0.157495 0.423518
Si Si5 0.206238 0.937401 0.285114
Si Si6 0.443780 0.934605 0.688814
O O1 0.333225 0.594928 0.500000
O O2 0.427158 0.661883 0.408272
O O3 0.225491 0.655779 0.414632
O O4 0.331955 0.569974 0.361269
O O5 0.750000 0.750000 0.277696
O O6 0.597964 0.718651 0.204264
O O7 0.584060 0.704949 0.333689
O O8 0.686611 0.627305 0.254919
O O9 0.550355 0.779222 0.900756
O O10 0.582980 0.145472 0.500000
O O11 0.556340 0.104400 0.377525
O O12 0.327417 0.943450 0.291333
O O13 0.166032 0.000000 0.250000
O O14 0.500000 0.900971 0.750000
O O15 0.500000 0.000000 0.679845
#
# Coordination Sequence:
#
# PCOD9495886 Si02
#       6
#    16  16  16  16  16  16
#     4   9  18  34  55  81 109 138 179 228 275 322
#     4  10  21  33  51  82 109 143 182 229 275 324
#     4  10  19  32  53  77 107 142 180 224 277 319
#     4  10  20  31  53  83 111 142 177 221 271 327
#     4  10  19  34  55  80 112 139 178 228 273 317
#     4  10  19  31  52  80 108 142 173 215 271 328
#
# _framework density 16.849167999999999
#
# number of rings (size 3 to 8) (size 9 to 14) (size 15 to 20)
#    0.000    2.167    1.667    4.000    4.667    1.667 
#    0.000    6.667    0.000    5.000    0.000    0.000 
#    0.000    0.000    0.000    0.000    0.000    0.000 
#
# Total GULP energy -267337.445833 kJ/mol
# GULP energy per Si atom -5569.530122 kJ/mol
# Density = 1.681082 g / cm^3
# Si number density = 16.849168 Si / 1000 Ang^3
#
#
#
# Elastic Constant Matrix: (Units=GPa)
#
#
# Indices 1 2 3 4 5 6 
#
# 1 68.0216 43.0866 39.4851 0.0000 0.0000 0.0000
# 2 43.0866 93.5447 69.7285 0.0000 0.0000 0.0000
# 3 39.4851 69.7285 127.7523 0.0000 0.0000 0.0000
# 4 0.0000 0.0000 0.0000 -50.8134 0.0000 0.0000
# 5 0.0000 0.0000 0.0000 0.0000 26.6068 0.0000
# 6 0.0000 0.0000 0.0000 0.0000 0.0000 9.4894
#
#
#
# Elastic Compliance Matrix: (Units=1/GPa)
#
#
# Indices 1 2 3 4 5 6 
#
# 1 0.021071 -0.008178 -0.002049 0.000000 0.000000 0.000000
# 2 -0.008178 0.021196 -0.009042 0.000000 0.000000 0.000000
# 3 -0.002049 -0.009042 0.013396 0.000000 0.000000 0.000000
# 4 0.000000 0.000000 0.000000 -0.019680 0.000000 0.000000
# 5 0.000000 0.000000 0.000000 0.000000 0.037584 0.000000
# 6 0.000000 0.000000 0.000000 0.000000 0.000000 0.105381
#
#
# Mechanical properties :
#
#
# Convention : Reuss Voigt Hill
#
# Bulk Modulus (GPa) = 58.38998 65.99099 62.19048
# Shear Modulus (GPa) = 22.40201 6.19112 14.29656
#
# Velocity S-wave (km/s) = 3.65027 1.91896 2.91607
# Velocity P-wave (km/s) = 7.24539 6.64535 6.95185
#
# Compressibility (1/GPa) = 0.01712623
#
# Stress axis : x y z
#
# Youngs Moduli (GPa) = 47.45953 47.17762 74.64963
#
# Poissons Ratio (x) = 0.38581 0.15294
# Poissons Ratio (y) = 0.38812 0.67496
# Poissons Ratio (z) = 0.09724 0.42656
#
# Static dielectric constant tensor:
#      x y z
#    x 1.584200 0.000000 0.000000 
#    y 0.000000 1.587030 0.000000 
#    z 0.000000 0.000000 1.573690 
# 
# From -- ./inp_files/48824.got.cif
#   From: 2010.05.17/outbox.cif.g08.bks.cpg/sg66_25_cif.got.tgz:48824.got - 2010.06.03 17:51:23.
