data_PCOD9495133
_publ_section_title
;
Structure prediction by ZEFSAII (Michael W. Deem and Ramdas Pophale) SiO2 
 PCOD9495133
Probable space group: C C C M
;
_chemical_formula_sum "Si O2"
_cell_formula_units_Z 116
_cell_length_a 12.179426
_cell_length_b 29.721198
_cell_length_c 17.336552
_cell_angle_alpha 90.000000
_cell_angle_beta 90.000000
_cell_angle_gamma 90.000000
_cell_volume 6275.608732
_symmetry_space_group_name_H-M "C C C M"
_symmetry_group_IT_number 66
_symmetry_cell_setting 'orthorhombic'
loop_
_space_group_symop_operation_xyz
x,y,z
-x,-y,z
x,-y,1/2-z
-x,y,1/2-z
-x,-y,-z
x,y,-z
-x,y,1/2+z
x,-y,1/2+z
1/2+x,1/2+y,z
1/2-x,1/2-y,z
1/2+x,1/2-y,1/2-z
1/2-x,1/2+y,1/2-z
1/2-x,1/2-y,-z
1/2+x,1/2+y,-z
1/2-x,1/2+y,1/2+z
1/2+x,1/2-y,1/2+z
loop_
_atom_site_type_symbol
_atom_site_label
_atom_site_fract_x
_atom_site_fract_y
_atom_site_fract_z
Si Si1 0.478695 0.947789 0.664873
Si Si2 0.500000 0.500000 0.250000
Si Si3 0.374034 0.731231 0.593144
Si Si4 0.508972 0.179356 0.406673
Si Si5 0.815450 0.396244 0.588168
Si Si6 0.837618 0.609200 0.409228
Si Si7 0.405823 0.632404 0.349180
Si Si8 0.120174 0.913841 0.817002
O O1 0.500000 0.928732 0.750000
O O2 0.355441 0.936945 0.640444
O O3 0.561603 0.924908 0.605114
O O4 0.500000 0.000000 0.666142
O O5 0.422820 0.535355 0.202223
O O6 0.382698 0.722804 0.500000
O O7 0.250000 0.750000 0.605439
O O8 0.458856 0.770532 0.616470
O O9 0.399666 0.685844 0.639308
O O10 0.507300 0.179409 0.500000
O O11 0.610759 0.146490 0.385422
O O12 0.394167 0.156488 0.382646
O O13 0.843638 0.405401 0.500000
O O14 0.688832 0.386282 0.596154
O O15 0.811127 0.611847 0.500000
O O16 0.735061 0.591929 0.360086
O O17 0.376198 0.613751 0.263834
O O18 0.524516 0.611226 0.365148
#
# Coordination Sequence:
#
# PCOD9495133 Si02
#       8
#    16   4  16  16  16  16  16  16
#     4  10  21  35  54  80 113 150 184 225 287 358
#     4   8  20  44  66  76 102 152 204 246 284 350
#     4  10  17  30  57  88 116 151 195 237 282 335
#     4   8  16  31  52  81 113 147 181 221 282 343
#     4  10  18  31  54  82 110 139 184 243 288 326
#     4  10  21  38  58  82 118 153 184 232 294 356
#     4  10  20  35  55  82 113 144 192 246 283 329
#     4  10  23  41  59  80 111 154 195 234 298 363
#
# _framework density 18.484262999999999
#
# number of rings (size 3 to 8) (size 9 to 14) (size 15 to 20)
#    0.000    2.483    1.379    2.483    0.000    5.517 
#    0.000    3.793    3.034    3.310    0.000    0.000 
#    0.000    0.000    0.000    0.000    0.000    0.000 
#
# Total GULP energy -323082.931664 kJ/mol
# GULP energy per Si atom -5570.395374 kJ/mol
# Density = 1.844219 g / cm^3
# Si number density = 18.484263 Si / 1000 Ang^3
#
#
#
# Elastic Constant Matrix: (Units=GPa)
#
#
# Indices 1 2 3 4 5 6 
#
# 1 96.3128 41.1877 18.8640 0.0000 0.0000 0.0000
# 2 41.1877 126.9096 32.1477 0.0000 0.0000 0.0000
# 3 18.8640 32.1477 43.6832 0.0000 0.0000 0.0000
# 4 0.0000 0.0000 0.0000 20.2277 0.0000 0.0000
# 5 0.0000 0.0000 0.0000 0.0000 32.0394 0.0000
# 6 0.0000 0.0000 0.0000 0.0000 0.0000 25.2654
#
#
#
# Elastic Compliance Matrix: (Units=1/GPa)
#
#
# Indices 1 2 3 4 5 6 
#
# 1 0.012354 -0.003267 -0.002931 0.000000 0.000000 0.000000
# 2 -0.003267 0.010549 -0.006353 0.000000 0.000000 0.000000
# 3 -0.002931 -0.006353 0.028833 0.000000 0.000000 0.000000
# 4 0.000000 0.000000 0.000000 0.049437 0.000000 0.000000
# 5 0.000000 0.000000 0.000000 0.000000 0.031212 0.000000
# 6 0.000000 0.000000 0.000000 0.000000 0.000000 0.039580
#
#
# Mechanical properties :
#
#
# Convention : Reuss Voigt Hill
#
# Bulk Modulus (GPa) = 37.54405 50.14491 43.84448
# Shear Modulus (GPa) = 24.27857 27.15360 25.71609
#
# Velocity S-wave (km/s) = 3.62812 3.83693 3.73398
# Velocity P-wave (km/s) = 6.15682 6.84227 6.50858
#
# Compressibility (1/GPa) = 0.02663538
#
# Stress axis : x y z
#
# Youngs Moduli (GPa) = 80.94573 94.79478 34.68289
#
# Poissons Ratio (x) = 0.30970 0.10164
# Poissons Ratio (y) = 0.26445 0.22032
# Poissons Ratio (z) = 0.23722 0.60219
#
# Static dielectric constant tensor:
#      x y z
#    x 1.649360 0.000000 0.000000 
#    y 0.000000 1.668170 0.000000 
#    z 0.000000 0.000000 1.655000 
# 
# From -- ./inp_files/39218.got.cif
#   From: 2010.05.17/outbox.cif.g08.bks.cpg/sg66_20_cif.got.tgz:39218.got - 2010.06.03 17:51:23.
