data_PCOD9495722
_publ_section_title
;
Structure prediction by ZEFSAII (Michael W. Deem and Ramdas Pophale) SiO2 
 PCOD9495722
Probable space group: C C C M
;
_chemical_formula_sum "Si O2"
_cell_formula_units_Z 80
_cell_length_a 29.923732
_cell_length_b 23.693416
_cell_length_c 8.706482
_cell_angle_alpha 90.000000
_cell_angle_beta 90.000000
_cell_angle_gamma 90.000000
_cell_volume 6172.855954
_symmetry_space_group_name_H-M "C C C M"
_symmetry_group_IT_number 66
_symmetry_cell_setting 'orthorhombic'
loop_
_space_group_symop_operation_xyz
x,y,z
-x,-y,z
x,-y,1/2-z
-x,y,1/2-z
-x,-y,-z
x,y,-z
-x,y,1/2+z
x,-y,1/2+z
1/2+x,1/2+y,z
1/2-x,1/2-y,z
1/2+x,1/2-y,1/2-z
1/2-x,1/2+y,1/2-z
1/2-x,1/2-y,-z
1/2+x,1/2+y,-z
1/2-x,1/2+y,1/2+z
1/2+x,1/2-y,1/2+z
loop_
_atom_site_type_symbol
_atom_site_label
_atom_site_fract_x
_atom_site_fract_y
_atom_site_fract_z
Si Si1 0.548843 0.938151 0.816650
Si Si2 0.771157 0.167886 0.317495
Si Si3 0.782538 0.437580 0.315179
Si Si4 0.814699 0.732768 0.682623
Si Si5 0.630945 0.127593 0.816356
O O1 0.500000 0.924060 0.750000
O O2 0.586314 0.894544 0.762556
O O3 0.560821 0.000000 0.750000
O O4 0.546766 0.941460 0.000000
O O5 0.776200 0.172038 0.500000
O O6 0.759374 0.103418 0.276323
O O7 0.811041 0.202811 0.238593
O O8 0.726026 0.200398 0.265921
O O9 0.777176 0.500000 0.250000
O O10 0.787053 0.438532 0.500000
O O11 0.827237 0.409356 0.244918
O O12 0.806978 0.731079 0.500000
O O13 0.857257 0.693303 0.715594
O O14 0.627880 0.120307 0.000000
#
# Coordination Sequence:
#
# PCOD9495722 Si02
#       5
#    16  16  16  16  16
#     4  11  21  33  46  58  74  96 122 154 191 230
#     4   9  16  25  37  52  72  94 119 150 184 219
#     4  10  19  28  38  54  74  99 127 157 190 222
#     4   9  16  25  39  55  71  92 118 148 183 219
#     4  10  19  30  42  57  75  95 122 156 190 226
#
# _framework density 12.959965
#
# number of rings (size 3 to 8) (size 9 to 14) (size 15 to 20)
#    0.000    2.200    0.000    6.600    0.000    4.800 
#    0.000    0.000    0.000    0.000    0.000    0.000 
#    0.000    0.000    0.000    0.000    0.000    1.000 
#
# Total GULP energy -222807.674310 kJ/mol
# GULP energy per Si atom -5570.191858 kJ/mol
# Density = 1.293047 g / cm^3
# Si number density = 12.959965 Si / 1000 Ang^3
#
#
#
# Elastic Constant Matrix: (Units=GPa)
#
#
# Indices 1 2 3 4 5 6 
#
# 1 57.2186 41.5813 29.3213 0.0000 0.0000 0.0000
# 2 41.5813 70.7071 29.0202 0.0000 0.0000 0.0000
# 3 29.3213 29.0202 66.8000 0.0000 0.0000 0.0000
# 4 0.0000 0.0000 0.0000 20.5295 0.0000 0.0000
# 5 0.0000 0.0000 0.0000 0.0000 17.4862 0.0000
# 6 0.0000 0.0000 0.0000 0.0000 0.0000 21.2367
#
#
#
# Elastic Compliance Matrix: (Units=1/GPa)
#
#
# Indices 1 2 3 4 5 6 
#
# 1 0.033301 -0.016532 -0.007435 0.000000 0.000000 0.000000
# 2 -0.016532 0.025419 -0.003786 0.000000 0.000000 0.000000
# 3 -0.007435 -0.003786 0.019879 0.000000 0.000000 0.000000
# 4 0.000000 0.000000 0.000000 0.048710 0.000000 0.000000
# 5 0.000000 0.000000 0.000000 0.000000 0.057188 0.000000
# 6 0.000000 0.000000 0.000000 0.000000 0.000000 0.047088
#
#
# Mechanical properties :
#
#
# Convention : Reuss Voigt Hill
#
# Bulk Modulus (GPa) = 43.30571 43.84128 43.57350
# Shear Modulus (GPa) = 16.96131 18.17067 17.56599
#
# Velocity S-wave (km/s) = 3.62158 3.74847 3.68558
# Velocity P-wave (km/s) = 7.13970 7.25510 7.19763
#
# Compressibility (1/GPa) = 0.02309164
#
# Stress axis : x y z
#
# Youngs Moduli (GPa) = 30.02937 39.34079 50.30553
#
# Poissons Ratio (x) = 0.65038 0.37402
# Poissons Ratio (y) = 0.49644 0.19047
# Poissons Ratio (z) = 0.22327 0.14896
#
# Static dielectric constant tensor:
#      x y z
#    x 1.406320 0.000000 0.000000 
#    y 0.000000 1.457520 0.000000 
#    z 0.000000 0.000000 1.432570 
# 
# From -- ./inp_files/8216.got.cif
#   From: 2010.05.17/outbox.cif.g08.bks.cpg/sg66_5_cif.got.tgz:8216.got - 2010.06.03 17:51:23.
