data_PCOD9495003
_publ_section_title
;
Structure prediction by ZEFSAII (Michael W. Deem and Ramdas Pophale) SiO2 
 PCOD9495003
Probable space group: C C C M
;
_chemical_formula_sum "Si O2"
_cell_formula_units_Z 80
_cell_length_a 14.585516
_cell_length_b 7.491321
_cell_length_c 28.098018
_cell_angle_alpha 90.000000
_cell_angle_beta 90.000000
_cell_angle_gamma 90.000000
_cell_volume 3070.123820
_symmetry_space_group_name_H-M "C C C M"
_symmetry_group_IT_number 66
_symmetry_cell_setting 'orthorhombic'
loop_
_space_group_symop_operation_xyz
x,y,z
-x,-y,z
x,-y,1/2-z
-x,y,1/2-z
-x,-y,-z
x,y,-z
-x,y,1/2+z
x,-y,1/2+z
1/2+x,1/2+y,z
1/2-x,1/2-y,z
1/2+x,1/2-y,1/2-z
1/2-x,1/2+y,1/2-z
1/2-x,1/2-y,-z
1/2+x,1/2+y,-z
1/2-x,1/2+y,1/2+z
1/2+x,1/2-y,1/2+z
loop_
_atom_site_type_symbol
_atom_site_label
_atom_site_fract_x
_atom_site_fract_y
_atom_site_fract_z
Si Si1 0.639475 0.078704 0.446577
Si Si2 0.893462 0.369085 0.659792
Si Si3 0.434917 0.330322 0.644635
Si Si4 0.211165 0.989501 0.305173
Si Si5 0.852598 0.011566 0.947669
O O1 0.605513 0.028893 0.500000
O O2 0.605413 0.044345 0.393248
O O3 0.742000 0.995046 0.444042
O O4 0.630593 0.296772 0.445312
O O5 0.837274 0.177016 0.666081
O O6 0.820315 0.477690 0.690464
O O7 0.999372 0.319632 0.666933
O O8 0.500000 0.500000 0.654502
O O9 0.339136 0.347145 0.670569
O O10 0.406334 0.365361 0.589573
O O11 0.186099 0.000000 0.250000
O O12 0.878837 0.073805 0.000000
#
# Coordination Sequence:
#
# PCOD9495003 Si02
#       5
#    16  16  16  16  16
#     4   9  14  23  40  61 100 150 191 232 290 363
#     4  10  18  30  45  69  98 135 194 240 286 362
#     4  10  17  25  41  63  92 131 183 243 283 347
#     4  10  19  32  46  64  96 137 182 239 302 344
#     4   9  14  21  34  57  93 143 191 229 286 355
#
# _framework density 26.057582
#
# number of rings (size 3 to 8) (size 9 to 14) (size 15 to 20)
#    0.000    2.400    6.000    2.400    0.000    4.800 
#    0.000    0.000    0.000    0.000    0.000   11.200 
#    0.000    0.000    0.000   32.400    0.000   73.600 
#
# Total GULP energy -222698.873551 kJ/mol
# GULP energy per Si atom -5567.471839 kJ/mol
# Density = 2.599827 g / cm^3
# Si number density = 26.057582 Si / 1000 Ang^3
#
#
#
# Elastic Constant Matrix: (Units=GPa)
#
#
# Indices 1 2 3 4 5 6 
#
# 1 169.2297 28.2952 23.9278 0.0000 0.0000 0.0000
# 2 28.2952 116.5578 3.4017 0.0000 0.0000 0.0000
# 3 23.9278 3.4017 86.9347 0.0000 0.0000 0.0000
# 4 0.0000 0.0000 0.0000 17.2959 0.0000 0.0000
# 5 0.0000 0.0000 0.0000 0.0000 -19.9633 0.0000
# 6 0.0000 0.0000 0.0000 0.0000 0.0000 33.7077
#
#
#
# Elastic Compliance Matrix: (Units=1/GPa)
#
#
# Indices 1 2 3 4 5 6 
#
# 1 0.006401 -0.001504 -0.001703 0.000000 0.000000 0.000000
# 2 -0.001504 0.008943 0.000064 0.000000 0.000000 0.000000
# 3 -0.001703 0.000064 0.011969 0.000000 0.000000 0.000000
# 4 0.000000 0.000000 0.000000 0.057817 0.000000 0.000000
# 5 0.000000 0.000000 0.000000 0.000000 -0.050092 0.000000
# 6 0.000000 0.000000 0.000000 0.000000 0.000000 0.029667
#
#
# Mechanical properties :
#
#
# Convention : Reuss Voigt Hill
#
# Bulk Modulus (GPa) = 47.55828 53.77463 50.66646
# Shear Modulus (GPa) = 64.10193 27.34790 45.72491
#
# Velocity S-wave (km/s) = 4.96523 3.24314 4.19354
# Velocity P-wave (km/s) = 7.15278 5.89115 6.55240
#
# Compressibility (1/GPa) = 0.02102683
#
# Stress axis : x y z
#
# Youngs Moduli (GPa) = 156.21469 111.82257 83.54828
#
# Poissons Ratio (x) = 0.16821 0.14229
# Poissons Ratio (y) = 0.23499 -0.00536
# Poissons Ratio (z) = 0.26604 -0.00717
#
# Static dielectric constant tensor:
#      x y z
#    x 2.061880 0.000000 0.000000 
#    y 0.000000 2.422280 0.000000 
#    z 0.000000 0.000000 2.139570 
# 
# From -- ./inp_files/68769.got.cif
#   From: 2010.05.17/outbox.cif.g08.bks.cpg/sg66_35_cif.got.tgz:68769.got - 2010.06.03 17:51:23.
