data_PCOD9495373
_publ_section_title
;
Structure prediction by ZEFSAII (Michael W. Deem and Ramdas Pophale) SiO2 
 PCOD9495373
Probable space group: C C C M
;
_chemical_formula_sum "Si O2"
_cell_formula_units_Z 80
_cell_length_a 14.367915
_cell_length_b 11.717642
_cell_length_c 20.838460
_cell_angle_alpha 90.000000
_cell_angle_beta 90.000000
_cell_angle_gamma 90.000000
_cell_volume 3508.323204
_symmetry_space_group_name_H-M "C C C M"
_symmetry_group_IT_number 66
_symmetry_cell_setting 'orthorhombic'
loop_
_space_group_symop_operation_xyz
x,y,z
-x,-y,z
x,-y,1/2-z
-x,y,1/2-z
-x,-y,-z
x,y,-z
-x,y,1/2+z
x,-y,1/2+z
1/2+x,1/2+y,z
1/2-x,1/2-y,z
1/2+x,1/2-y,1/2-z
1/2-x,1/2+y,1/2-z
1/2-x,1/2-y,-z
1/2+x,1/2+y,-z
1/2-x,1/2+y,1/2+z
1/2+x,1/2-y,1/2+z
loop_
_atom_site_type_symbol
_atom_site_label
_atom_site_fract_x
_atom_site_fract_y
_atom_site_fract_z
Si Si1 0.389987 0.252446 0.122211
Si Si2 0.114034 0.371302 0.752120
Si Si3 0.670082 0.155296 0.000000
Si Si4 0.114003 0.005809 0.827065
Si Si5 0.901800 0.418183 0.500000
Si Si6 0.890401 0.235835 0.129739
O O1 0.352598 0.183760 0.182655
O O2 0.354258 0.382500 0.132435
O O3 0.388342 0.169019 0.060218
O O4 0.498981 0.270486 0.135648
O O5 0.144602 0.500000 0.750000
O O6 0.146653 0.303096 0.690671
O O7 0.000000 0.370769 0.750000
O O8 0.750000 0.250000 0.000000
O O9 0.621585 0.191838 0.934164
O O10 0.675657 0.018517 0.000000
O O11 0.137655 0.000000 0.750000
O O12 0.146812 0.892754 0.865130
O O13 0.000000 0.000000 0.827104
O O14 0.000000 0.500000 0.500000
#
# Coordination Sequence:
#
# PCOD9495373 Si02
#       6
#    16  16   8  16   8  16
#     4  10  18  30  54  89 120 153 185 258 327 366
#     4   9  16  24  46  81 115 145 186 237 309 371
#     4  12  26  41  57  79 119 170 210 253 315 396
#     4   9  16  29  51  87 124 149 189 244 312 385
#     4  12  22  37  57  85 129 160 206 270 325 386
#     4  10  18  33  54  80 119 158 196 247 310 381
#
# _framework density 22.802916
#
# number of rings (size 3 to 8) (size 9 to 14) (size 15 to 20)
#    0.000    2.000    4.000    1.200    2.800    0.800 
#    0.000    3.000    0.000    6.000    0.000    0.000 
#    0.000    0.000    0.000    0.000    0.000    0.000 
#
# Total GULP energy -222837.149467 kJ/mol
# GULP energy per Si atom -5570.928737 kJ/mol
# Density = 2.275102 g / cm^3
# Si number density = 22.802916 Si / 1000 Ang^3
#
#
#
# Elastic Constant Matrix: (Units=GPa)
#
#
# Indices 1 2 3 4 5 6 
#
# 1 58.1133 7.1744 -5.0814 0.0000 0.0000 0.0000
# 2 7.1744 280.9015 125.9126 0.0000 0.0000 0.0000
# 3 -5.0814 125.9126 192.6218 0.0000 0.0000 0.0000
# 4 0.0000 0.0000 0.0000 44.0603 0.0000 0.0000
# 5 0.0000 0.0000 0.0000 0.0000 -7.9983 0.0000
# 6 0.0000 0.0000 0.0000 0.0000 0.0000 5.8948
#
#
#
# Elastic Compliance Matrix: (Units=1/GPa)
#
#
# Indices 1 2 3 4 5 6 
#
# 1 0.017414 -0.000920 0.001061 0.000000 0.000000 0.000000
# 2 -0.000920 0.005084 -0.003348 0.000000 0.000000 0.000000
# 3 0.001061 -0.003348 0.007408 0.000000 0.000000 0.000000
# 4 0.000000 0.000000 0.000000 0.022696 0.000000 0.000000
# 5 0.000000 0.000000 0.000000 0.000000 -0.125026 0.000000
# 6 0.000000 0.000000 0.000000 0.000000 0.000000 0.169640
#
#
# Mechanical properties :
#
#
# Convention : Reuss Voigt Hill
#
# Bulk Modulus (GPa) = 42.56760 87.51644 65.04202
# Shear Modulus (GPa) = 44.85878 35.30008 40.07943
#
# Velocity S-wave (km/s) = 4.44017 3.93880 4.19698
# Velocity P-wave (km/s) = 6.70783 7.69079 7.21607
#
# Compressibility (1/GPa) = 0.02349205
#
# Stress axis : x y z
#
# Youngs Moduli (GPa) = 57.42451 196.69503 134.99366
#
# Poissons Ratio (x) = 0.18103 -0.14323
# Poissons Ratio (y) = 0.05285 0.45190
# Poissons Ratio (z) = -0.06093 0.65845
#
# Static dielectric constant tensor:
#      x y z
#    x 2.191990 0.000000 0.000000 
#    y 0.000000 1.784680 0.000000 
#    z 0.000000 0.000000 1.732700 
# 
# From -- ./inp_files/42718.got.cif
#   From: 2010.05.17/outbox.cif.g08.bks.cpg/sg66_22_cif.got.tgz:42718.got - 2010.06.03 17:51:23.
