data_PCOD9495799
_publ_section_title
;
Structure prediction by ZEFSAII (Michael W. Deem and Ramdas Pophale) SiO2 
 PCOD9495799
Probable space group: C C C M
;
_chemical_formula_sum "Si O2"
_cell_formula_units_Z 52
_cell_length_a 5.281002
_cell_length_b 27.718134
_cell_length_c 21.197031
_cell_angle_alpha 90.000000
_cell_angle_beta 90.000000
_cell_angle_gamma 90.000000
_cell_volume 3102.811246
_symmetry_space_group_name_H-M "C C C M"
_symmetry_group_IT_number 66
_symmetry_cell_setting 'orthorhombic'
loop_
_space_group_symop_operation_xyz
x,y,z
-x,-y,z
x,-y,1/2-z
-x,y,1/2-z
-x,-y,-z
x,y,-z
-x,y,1/2+z
x,-y,1/2+z
1/2+x,1/2+y,z
1/2-x,1/2-y,z
1/2+x,1/2-y,1/2-z
1/2-x,1/2+y,1/2-z
1/2-x,1/2-y,-z
1/2+x,1/2+y,-z
1/2-x,1/2+y,1/2+z
1/2+x,1/2-y,1/2+z
loop_
_atom_site_type_symbol
_atom_site_label
_atom_site_fract_x
_atom_site_fract_y
_atom_site_fract_z
Si Si1 0.000000 0.000000 0.250000
Si Si2 0.258454 0.470586 0.127258
Si Si3 0.778480 0.805330 0.576838
Si Si4 0.721339 0.862836 0.076247
O O1 0.826172 0.969811 0.201989
O O2 0.500000 0.500000 0.099461
O O3 0.239970 0.417103 0.100910
O O4 0.000000 0.500000 0.117038
O O5 0.779928 0.804403 0.500000
O O6 0.750000 0.750000 0.597781
O O7 0.537932 0.837069 0.596402
O O8 0.038388 0.830827 0.596578
O O9 0.722617 0.864373 0.000000
#
# Coordination Sequence:
#
# PCOD9495799 Si02
#       4
#     4  16  16  16
#     4   8  22  36  52  68  94 124 174 210 238 288
#     4  10  20  34  51  71 100 125 168 202 242 289
#     4   9  17  30  47  70 104 136 162 192 229 287
#     4  10  19  30  48  76 104 132 161 192 245 295
#
# _framework density 16.758996
#
# number of rings (size 3 to 8) (size 9 to 14) (size 15 to 20)
#    0.923    1.538    0.000    3.231    0.000    4.923 
#    0.000    0.000    0.000    0.000    0.000    4.308 
#    0.000    0.000    0.000    0.000    0.000    0.000 
#
# Total GULP energy -144778.256640 kJ/mol
# GULP energy per Si atom -5568.394486 kJ/mol
# Density = 1.672085 g / cm^3
# Si number density = 16.758996 Si / 1000 Ang^3
#
#
#
# Elastic Constant Matrix: (Units=GPa)
#
#
# Indices 1 2 3 4 5 6 
#
# 1 93.2402 10.8250 5.7229 0.0000 0.0000 0.0000
# 2 10.8250 84.3141 8.7936 0.0000 0.0000 0.0000
# 3 5.7229 8.7936 12.8837 0.0000 0.0000 0.0000
# 4 0.0000 0.0000 0.0000 -7.9469 0.0000 0.0000
# 5 0.0000 0.0000 0.0000 0.0000 5.2065 0.0000
# 6 0.0000 0.0000 0.0000 0.0000 0.0000 33.4980
#
#
#
# Elastic Compliance Matrix: (Units=1/GPa)
#
#
# Indices 1 2 3 4 5 6 
#
# 1 0.011100 -0.000981 -0.004261 0.000000 0.000000 0.000000
# 2 -0.000981 0.012856 -0.008339 0.000000 0.000000 0.000000
# 3 -0.004261 -0.008339 0.085202 0.000000 0.000000 0.000000
# 4 0.000000 0.000000 0.000000 -0.125836 0.000000 0.000000
# 5 0.000000 0.000000 0.000000 0.000000 0.192066 0.000000
# 6 0.000000 0.000000 0.000000 0.000000 0.000000 0.029853
#
#
# Mechanical properties :
#
#
# Convention : Reuss Voigt Hill
#
# Bulk Modulus (GPa) = 12.19568 26.79122 19.49345
# Shear Modulus (GPa) = 19.25028 17.15797 18.20412
#
# Velocity S-wave (km/s) = 3.39286 3.20317 3.29938
# Velocity P-wave (km/s) = 4.75831 5.44989 5.11580
#
# Compressibility (1/GPa) = 0.08199625
#
# Stress axis : x y z
#
# Youngs Moduli (GPa) = 90.08677 77.78425 11.73677
#
# Poissons Ratio (x) = 0.07628 0.05002
# Poissons Ratio (y) = 0.08835 0.09787
# Poissons Ratio (z) = 0.38390 0.64866
#
# Static dielectric constant tensor:
#      x y z
#    x 1.582110 0.000000 0.000000 
#    y 0.000000 1.529520 0.000000 
#    z 0.000000 0.000000 1.551760 
# 
# From -- ./inp_files/52154.got.cif
#   From: 2010.05.17/outbox.cif.g08.bks.cpg/sg66_27_cif.got.tgz:52154.got - 2010.06.03 17:51:23.
