data_PCOD9495986
_publ_section_title
;
Structure prediction by ZEFSAII (Michael W. Deem and Ramdas Pophale) SiO2 
 PCOD9495986
Probable space group: C C C M
;
_chemical_formula_sum "Si O2"
_cell_formula_units_Z 80
_cell_length_a 11.930876
_cell_length_b 20.207532
_cell_length_c 16.394602
_cell_angle_alpha 90.000000
_cell_angle_beta 90.000000
_cell_angle_gamma 90.000000
_cell_volume 3952.632937
_symmetry_space_group_name_H-M "C C C M"
_symmetry_group_IT_number 66
_symmetry_cell_setting 'orthorhombic'
loop_
_space_group_symop_operation_xyz
x,y,z
-x,-y,z
x,-y,1/2-z
-x,y,1/2-z
-x,-y,-z
x,y,-z
-x,y,1/2+z
x,-y,1/2+z
1/2+x,1/2+y,z
1/2-x,1/2-y,z
1/2+x,1/2-y,1/2-z
1/2-x,1/2+y,1/2-z
1/2-x,1/2-y,-z
1/2+x,1/2+y,-z
1/2-x,1/2+y,1/2+z
1/2+x,1/2-y,1/2+z
loop_
_atom_site_type_symbol
_atom_site_label
_atom_site_fract_x
_atom_site_fract_y
_atom_site_fract_z
Si Si1 0.983274 0.832841 0.156439
Si Si2 0.284970 0.424216 0.901927
Si Si3 0.881210 0.577234 0.223661
Si Si4 0.567676 0.737881 0.500000
Si Si5 0.804679 0.072172 0.151699
Si Si6 0.714417 0.859031 0.500000
O O1 0.866703 0.867356 0.131966
O O2 0.000000 0.808408 0.250000
O O3 0.077799 0.890359 0.149331
O O4 0.006809 0.780509 0.084445
O O5 0.157570 0.414823 0.869493
O O6 0.321829 0.493859 0.859655
O O7 0.293587 0.428288 0.000000
O O8 0.888488 0.500000 0.250000
O O9 0.770210 0.597463 0.273296
O O10 0.000000 0.607565 0.250000
O O11 0.607129 0.813048 0.500000
O O12 0.678446 0.690688 0.500000
O O13 0.728156 0.094545 0.076804
#
# Coordination Sequence:
#
# PCOD9495986 Si02
#       6
#    16  16  16   8  16   8
#     4  11  20  32  54  86 122 157 190 248 319 370
#     4  11  20  32  53  86 122 155 187 243 318 379
#     4   9  19  35  49  74 113 149 192 232 282 364
#     4   9  20  35  53  78 112 150 204 253 279 349
#     4  10  19  32  53  80 114 154 192 236 296 373
#     4   9  18  35  53  75 106 145 202 246 277 335
#
# _framework density 20.239674000000001
#
# number of rings (size 3 to 8) (size 9 to 14) (size 15 to 20)
#    0.000    2.000    4.000    0.600    0.000    1.600 
#    1.800    3.000    0.000    0.000    0.000    1.400 
#    0.000    0.000    0.000    0.000    0.000    0.000 
#
# Total GULP energy -222788.499426 kJ/mol
# GULP energy per Si atom -5569.712486 kJ/mol
# Density = 2.019361 g / cm^3
# Si number density = 20.239674 Si / 1000 Ang^3
#
#
#
# Elastic Constant Matrix: (Units=GPa)
#
#
# Indices 1 2 3 4 5 6 
#
# 1 87.9138 4.0036 27.3974 0.0000 0.0000 0.0000
# 2 4.0036 24.5923 3.9200 0.0000 0.0000 0.0000
# 3 27.3974 3.9200 138.5750 0.0000 0.0000 0.0000
# 4 0.0000 0.0000 0.0000 -74.7734 0.0000 0.0000
# 5 0.0000 0.0000 0.0000 0.0000 15.9590 0.0000
# 6 0.0000 0.0000 0.0000 0.0000 0.0000 18.1543
#
#
#
# Elastic Compliance Matrix: (Units=1/GPa)
#
#
# Indices 1 2 3 4 5 6 
#
# 1 0.012185 -0.001607 -0.002364 0.000000 0.000000 0.000000
# 2 -0.001607 0.041059 -0.000844 0.000000 0.000000 0.000000
# 3 -0.002364 -0.000844 0.007707 0.000000 0.000000 0.000000
# 4 0.000000 0.000000 0.000000 -0.013374 0.000000 0.000000
# 5 0.000000 0.000000 0.000000 0.000000 0.062661 0.000000
# 6 0.000000 0.000000 0.000000 0.000000 0.000000 0.055083
#
#
# Mechanical properties :
#
#
# Convention : Reuss Voigt Hill
#
# Bulk Modulus (GPa) = 19.48452 35.74703 27.61577
# Shear Modulus (GPa) = 26.03388 6.25200 16.14294
#
# Velocity S-wave (km/s) = 3.59036 1.75946 2.82723
# Velocity P-wave (km/s) = 5.18029 4.67202 4.93271
#
# Compressibility (1/GPa) = 0.05132279
#
# Stress axis : x y z
#
# Youngs Moduli (GPa) = 82.07136 24.35506 129.74438
#
# Poissons Ratio (x) = 0.03914 0.30665
# Poissons Ratio (y) = 0.13188 0.10948
# Poissons Ratio (z) = 0.19398 0.02055
#
# Static dielectric constant tensor:
#      x y z
#    x 1.747000 0.000000 0.000000 
#    y 0.000000 1.687220 0.000000 
#    z 0.000000 0.000000 1.837340 
# 
# From -- ./inp_files/26454.got.cif
#   From: 2010.05.17/outbox.cif.g08.bks.cpg/sg66_14_cif.got.tgz:26454.got - 2010.06.03 17:51:23.
