data_PCOD9495383
_publ_section_title
;
Structure prediction by ZEFSAII (Michael W. Deem and Ramdas Pophale) SiO2 
 PCOD9495383
Probable space group: C C C M
;
_chemical_formula_sum "Si O2"
_cell_formula_units_Z 100
_cell_length_a 28.461614
_cell_length_b 27.908757
_cell_length_c 9.292638
_cell_angle_alpha 90.000000
_cell_angle_beta 90.000000
_cell_angle_gamma 90.000000
_cell_volume 7381.405057
_symmetry_space_group_name_H-M "C C C M"
_symmetry_group_IT_number 66
_symmetry_cell_setting 'orthorhombic'
loop_
_space_group_symop_operation_xyz
x,y,z
-x,-y,z
x,-y,1/2-z
-x,y,1/2-z
-x,-y,-z
x,y,-z
-x,y,1/2+z
x,-y,1/2+z
1/2+x,1/2+y,z
1/2-x,1/2-y,z
1/2+x,1/2-y,1/2-z
1/2-x,1/2+y,1/2-z
1/2-x,1/2-y,-z
1/2+x,1/2+y,-z
1/2-x,1/2+y,1/2+z
1/2+x,1/2-y,1/2+z
loop_
_atom_site_type_symbol
_atom_site_label
_atom_site_fract_x
_atom_site_fract_y
_atom_site_fract_z
Si Si1 0.277874 0.640392 0.829490
Si Si2 0.000000 0.000000 0.250000
Si Si3 0.644545 0.724023 0.669448
Si Si4 0.428579 0.420408 0.839096
Si Si5 0.952810 0.825677 0.328573
Si Si6 0.820401 0.049736 0.670974
Si Si7 0.210314 0.708105 0.334443
O O1 0.320772 0.678374 0.811392
O O2 0.292019 0.592672 0.745228
O O3 0.232466 0.665694 0.759996
O O4 0.272147 0.632159 0.000000
O O5 0.965087 0.035780 0.332989
O O6 0.646412 0.736497 0.500000
O O7 0.592372 0.706747 0.706840
O O8 0.665111 0.767201 0.763126
O O9 0.442153 0.379496 0.726459
O O10 0.376019 0.438963 0.810928
O O11 0.429768 0.399175 0.000000
O O12 0.958742 0.826196 0.500000
O O13 0.000000 0.809353 0.250000
O O14 0.811265 0.047174 0.500000
O O15 0.810033 0.000000 0.750000
O O16 0.202693 0.694022 0.500000
O O17 0.250000 0.750000 0.333667
#
# Coordination Sequence:
#
# PCOD9495383 Si02
#       7
#    16   4  16  16  16  16  16
#     4  10  18  31  48  65  86 112 139 174 219 266
#     4  12  22  36  48  62  74 104 146 192 238 276
#     4   9  18  31  46  64  86 112 138 173 217 267
#     4  11  23  34  46  60  78 104 140 186 231 272
#     4  11  22  34  47  63  84 110 144 180 223 267
#     4  11  22  34  46  63  84 110 144 182 225 269
#     4   9  17  28  45  69  89 107 133 170 212 261
#
# _framework density 13.547556999999999
#
# number of rings (size 3 to 8) (size 9 to 14) (size 15 to 20)
#    0.000    1.760    3.200    2.160    0.000    5.120 
#    0.000    0.000    0.000    0.000    0.000    0.000 
#    0.000    0.000    0.000    0.000    0.000    0.800 
#
# Total GULP energy -278957.981673 kJ/mol
# GULP energy per Si atom -5579.159633 kJ/mol
# Density = 1.351672 g / cm^3
# Si number density = 13.547557 Si / 1000 Ang^3
#
#
#
# Elastic Constant Matrix: (Units=GPa)
#
#
# Indices 1 2 3 4 5 6 
#
# 1 78.6786 54.0782 58.8519 0.0000 0.0000 0.0000
# 2 54.0782 71.0391 58.8562 0.0000 0.0000 0.0000
# 3 58.8519 58.8562 101.4880 0.0000 0.0000 0.0000
# 4 0.0000 0.0000 0.0000 21.2152 0.0000 0.0000
# 5 0.0000 0.0000 0.0000 0.0000 17.1401 0.0000
# 6 0.0000 0.0000 0.0000 0.0000 0.0000 25.6990
#
#
#
# Elastic Compliance Matrix: (Units=1/GPa)
#
#
# Indices 1 2 3 4 5 6 
#
# 1 0.029613 -0.016006 -0.007890 0.000000 0.000000 0.000000
# 2 -0.016006 0.035747 -0.011449 0.000000 0.000000 0.000000
# 3 -0.007890 -0.011449 0.021068 0.000000 0.000000 0.000000
# 4 0.000000 0.000000 0.000000 0.047136 0.000000 0.000000
# 5 0.000000 0.000000 0.000000 0.000000 0.058343 0.000000
# 6 0.000000 0.000000 0.000000 0.000000 0.000000 0.038912
#
#
# Mechanical properties :
#
#
# Convention : Reuss Voigt Hill
#
# Bulk Modulus (GPa) = 63.53915 66.08648 64.81282
# Shear Modulus (GPa) = 16.29966 18.10549 17.20257
#
# Velocity S-wave (km/s) = 3.47240 3.65970 3.56728
# Velocity P-wave (km/s) = 7.94225 8.16975 8.05681
#
# Compressibility (1/GPa) = 0.01573833
#
# Stress axis : x y z
#
# Youngs Moduli (GPa) = 33.76890 27.97453 47.46458
#
# Poissons Ratio (x) = 0.44776 0.37449
# Poissons Ratio (y) = 0.54050 0.54342
# Poissons Ratio (z) = 0.26643 0.32028
#
# Static dielectric constant tensor:
#      x y z
#    x 1.434440 0.000000 0.000000 
#    y 0.000000 1.419420 0.000000 
#    z 0.000000 0.000000 1.458190 
# 
# From -- ./inp_files/10872.got.cif
#   From: 2010.05.17/outbox.cif.g08.bks.cpg/sg66_6_cif.got.tgz:10872.got - 2010.06.03 17:51:23.
