data_PCOD9495354
_publ_section_title
;
Structure prediction by ZEFSAII (Michael W. Deem and Ramdas Pophale) SiO2 
 PCOD9495354
Probable space group: C C C M
;
_chemical_formula_sum "Si O2"
_cell_formula_units_Z 104
_cell_length_a 16.359925
_cell_length_b 7.868563
_cell_length_c 31.933586
_cell_angle_alpha 90.000000
_cell_angle_beta 90.000000
_cell_angle_gamma 90.000000
_cell_volume 4110.781803
_symmetry_space_group_name_H-M "C C C M"
_symmetry_group_IT_number 66
_symmetry_cell_setting 'orthorhombic'
loop_
_space_group_symop_operation_xyz
x,y,z
-x,-y,z
x,-y,1/2-z
-x,y,1/2-z
-x,-y,-z
x,y,-z
-x,y,1/2+z
x,-y,1/2+z
1/2+x,1/2+y,z
1/2-x,1/2-y,z
1/2+x,1/2-y,1/2-z
1/2-x,1/2+y,1/2-z
1/2-x,1/2-y,-z
1/2+x,1/2+y,-z
1/2-x,1/2+y,1/2+z
1/2+x,1/2-y,1/2+z
loop_
_atom_site_type_symbol
_atom_site_label
_atom_site_fract_x
_atom_site_fract_y
_atom_site_fract_z
Si Si1 0.140539 0.556849 0.317462
Si Si2 0.668788 0.470762 0.835829
Si Si3 0.696120 0.015706 0.451858
Si Si4 0.092744 0.745662 0.606486
Si Si5 0.650242 0.260486 0.238158
Si Si6 0.462931 0.808705 0.954768
Si Si7 0.750000 0.250000 0.893608
O O1 0.237821 0.539702 0.328586
O O2 0.093303 0.590240 0.360445
O O3 0.128025 0.715416 0.285663
O O4 0.117295 0.396204 0.289588
O O5 0.622372 0.599698 0.865593
O O6 0.632397 0.423824 0.790471
O O7 0.677530 0.290500 0.860650
O O8 0.719444 0.047033 0.500000
O O9 0.630929 0.858208 0.452036
O O10 0.757004 0.922195 0.420797
O O11 0.655574 0.180060 0.429975
O O12 0.008016 0.779111 0.583177
O O13 0.750000 0.250000 0.237661
O O14 0.500000 0.000000 0.955539
O O15 0.480415 0.728095 0.000000
#
# Coordination Sequence:
#
# PCOD9495354 Si02
#       7
#    16  16  16  16  16  16   8
#     4  10  18  30  51  77 117 153 193 234 285 348
#     4  11  20  33  50  85 125 151 187 245 294 356
#     4  10  21  39  61  83 113 152 195 243 301 360
#     4  11  19  31  56  83 113 148 193 245 282 344
#     4   9  17  31  47  75 120 156 186 231 292 350
#     4   8  17  36  58  80 108 147 197 242 282 343
#     4  12  21  38  56  84 120 152 184 244 307 352
#
# _framework density 25.299323999999999
#
# number of rings (size 3 to 8) (size 9 to 14) (size 15 to 20)
#    0.000    2.000    3.846    3.000    0.000    1.846 
#    0.000    4.615    0.000    1.846    0.000   33.385 
#    9.231    0.000    0.000    0.000    0.000    0.000 
#
# Total GULP energy -290225.443919 kJ/mol
# GULP energy per Si atom -5581.258537 kJ/mol
# Density = 2.524174 g / cm^3
# Si number density = 25.299324 Si / 1000 Ang^3
#
#
#
# Elastic Constant Matrix: (Units=GPa)
#
#
# Indices 1 2 3 4 5 6 
#
# 1 25.6046 1.6385 22.8999 0.0000 0.0000 0.0000
# 2 1.6385 94.4365 39.3752 0.0000 0.0000 0.0000
# 3 22.8999 39.3752 207.6395 0.0000 0.0000 0.0000
# 4 0.0000 0.0000 0.0000 36.4551 0.0000 0.0000
# 5 0.0000 0.0000 0.0000 0.0000 1128.6992 0.0000
# 6 0.0000 0.0000 0.0000 0.0000 0.0000 12.8851
#
#
#
# Elastic Compliance Matrix: (Units=1/GPa)
#
#
# Indices 1 2 3 4 5 6 
#
# 1 0.043488 0.001352 -0.005053 0.000000 0.000000 0.000000
# 2 0.001352 0.011540 -0.002338 0.000000 0.000000 0.000000
# 3 -0.005053 -0.002338 0.005817 0.000000 0.000000 0.000000
# 4 0.000000 0.000000 0.000000 0.027431 0.000000 0.000000
# 5 0.000000 0.000000 0.000000 0.000000 0.000886 0.000000
# 6 0.000000 0.000000 0.000000 0.000000 0.000000 0.077609
#
#
# Mechanical properties :
#
#
# Convention : Reuss Voigt Hill
#
# Bulk Modulus (GPa) = 20.50494 50.61197 35.55846
# Shear Modulus (GPa) = 25.62755 253.19234 139.40995
#
# Velocity S-wave (km/s) = 3.18618 10.01479 7.43127
# Velocity P-wave (km/s) = 4.65383 12.40067 9.36576
#
# Compressibility (1/GPa) = 0.04876874
#
# Stress axis : x y z
#
# Youngs Moduli (GPa) = 22.99498 86.65281 171.92350
#
# Poissons Ratio (x) = -0.11717 0.86865
# Poissons Ratio (y) = -0.03109 0.40188
# Poissons Ratio (z) = 0.11618 0.20255
#
# Static dielectric constant tensor:
#      x y z
#    x 2.145600 0.000000 0.000000 
#    y 0.000000 2.107160 0.000000 
#    z 0.000000 0.000000 2.009230 
# 
# From -- ./inp_files/70439.got.cif
#   From: 2010.05.17/outbox.cif.g08.bks.cpg/sg66_36_cif.got.tgz:70439.got - 2010.06.03 17:51:23.
