data_PCOD9495148
_publ_section_title
;
Structure prediction by ZEFSAII (Michael W. Deem and Ramdas Pophale) SiO2 
 PCOD9495148
Probable space group: C C C M
;
_chemical_formula_sum "Si O2"
_cell_formula_units_Z 80
_cell_length_a 18.053221
_cell_length_b 25.340586
_cell_length_c 10.421408
_cell_angle_alpha 90.000000
_cell_angle_beta 90.000000
_cell_angle_gamma 90.000000
_cell_volume 4767.577388
_symmetry_space_group_name_H-M "C C C M"
_symmetry_group_IT_number 66
_symmetry_cell_setting 'orthorhombic'
loop_
_space_group_symop_operation_xyz
x,y,z
-x,-y,z
x,-y,1/2-z
-x,y,1/2-z
-x,-y,-z
x,y,-z
-x,y,1/2+z
x,-y,1/2+z
1/2+x,1/2+y,z
1/2-x,1/2-y,z
1/2+x,1/2-y,1/2-z
1/2-x,1/2+y,1/2-z
1/2-x,1/2-y,-z
1/2+x,1/2+y,-z
1/2-x,1/2+y,1/2+z
1/2+x,1/2-y,1/2+z
loop_
_atom_site_type_symbol
_atom_site_label
_atom_site_fract_x
_atom_site_fract_y
_atom_site_fract_z
Si Si1 0.160877 0.884300 0.250000
Si Si2 0.235884 0.500000 0.000000
Si Si3 0.912564 0.772738 0.250000
Si Si4 0.266541 0.884662 0.000000
Si Si5 0.266541 0.884662 0.500000
Si Si6 0.340050 0.500000 0.750000
Si Si7 0.666863 0.773506 0.000000
Si Si8 0.166863 0.273506 0.500000
O O1 0.106239 0.835024 0.250000
O O2 0.213726 0.880425 0.124992
O O3 0.213726 0.880425 0.375008
O O4 0.122542 0.942310 0.250000
O O5 0.197074 0.556945 0.000000
O O6 0.288136 0.500000 0.124814
O O7 0.197074 0.443055 0.000000
O O8 0.875072 0.747155 0.374809
O O9 0.000000 0.764375 0.250000
O O10 0.875072 0.747155 0.125191
O O11 0.323141 0.836477 0.000000
O O12 0.323141 0.836477 0.500000
O O13 0.750000 0.750000 0.000000
O O14 0.250000 0.250000 0.500000
#
# Coordination Sequence:
#
# PCOD9495148 Si02
#       8
#    16   8  16   8   8   8   8   8
#     4  10  17  32  48  74 103 137 172 210 252 301
#     4   8  16  28  44  78 102 122 158 220 266 288
#     4  12  24  36  51  78 113 142 172 217 267 310
#     4  10  18  30  54  76 102 129 172 217 256 302
#     4  10  18  30  54  76 102 129 172 217 256 302
#     4   8  16  26  47  68 100 134 169 208 244 292
#     4  12  21  36  57  80 101 140 184 216 256 313
#     4  12  21  36  57  80 101 140 184 216 256 313
#
# _framework density 16.780010000000001
#
# number of rings (size 3 to 8) (size 9 to 14) (size 15 to 20)
#    0.000    1.600    4.000    2.400    0.000    0.000 
#    0.000    0.500    0.000    0.000    0.000   15.400 
#    0.000    0.000    0.000    0.000    0.000    0.000 
#
# Total GULP energy -223008.894170 kJ/mol
# GULP energy per Si atom -5575.222354 kJ/mol
# Density = 1.674182 g / cm^3
# Si number density = 16.780010 Si / 1000 Ang^3
#
#
#
# Elastic Constant Matrix: (Units=GPa)
#
#
# Indices 1 2 3 4 5 6 
#
# 1 93.5003 62.4781 50.5871 0.0000 0.0000 0.0000
# 2 62.4781 175.9091 34.4244 0.0000 0.0000 0.0000
# 3 50.5871 34.4244 157.9913 0.0000 0.0000 0.0000
# 4 0.0000 0.0000 0.0000 28.2306 0.0000 0.0000
# 5 0.0000 0.0000 0.0000 0.0000 21.8953 0.0000
# 6 0.0000 0.0000 0.0000 0.0000 0.0000 12.3441
#
#
#
# Elastic Compliance Matrix: (Units=1/GPa)
#
#
# Indices 1 2 3 4 5 6 
#
# 1 0.016239 -0.004962 -0.004118 0.000000 0.000000 0.000000
# 2 -0.004962 0.007454 -0.000035 0.000000 0.000000 0.000000
# 3 -0.004118 -0.000035 0.007656 0.000000 0.000000 0.000000
# 4 0.000000 0.000000 0.000000 0.035423 0.000000 0.000000
# 5 0.000000 0.000000 0.000000 0.000000 0.045672 0.000000
# 6 0.000000 0.000000 0.000000 0.000000 0.000000 0.081010
#
#
# Mechanical properties :
#
#
# Convention : Reuss Voigt Hill
#
# Bulk Modulus (GPa) = 76.23351 80.26442 78.24896
# Shear Modulus (GPa) = 23.14203 31.15473 27.14838
#
# Velocity S-wave (km/s) = 3.71771 4.31357 4.02668
# Velocity P-wave (km/s) = 7.99739 8.52915 8.26755
#
# Compressibility (1/GPa) = 0.01311759
#
# Stress axis : x y z
#
# Youngs Moduli (GPa) = 61.58096 134.15750 130.61893
#
# Poissons Ratio (x) = 0.66564 0.53794
# Poissons Ratio (y) = 0.30554 0.00463
# Poissons Ratio (z) = 0.25362 0.00476
#
# Static dielectric constant tensor:
#      x y z
#    x 1.500180 0.000000 0.000000 
#    y 0.000000 1.640240 0.000000 
#    z 0.000000 0.000000 1.564610 
# 
# From -- ./inp_files/6815.got.cif
#   From: 2010.05.17/outbox.cif.g08.bks.cpg/sg66_4_cif.got.tgz:6815.got - 2010.06.03 17:51:23.
