data_PCOD9495739
_publ_section_title
;
Structure prediction by ZEFSAII (Michael W. Deem and Ramdas Pophale) SiO2 
 PCOD9495739
Probable space group: C C C M
;
_chemical_formula_sum "Si O2"
_cell_formula_units_Z 80
_cell_length_a 19.963850
_cell_length_b 28.059074
_cell_length_c 8.719021
_cell_angle_alpha 90.000000
_cell_angle_beta 90.000000
_cell_angle_gamma 90.000000
_cell_volume 4884.109096
_symmetry_space_group_name_H-M "C C C M"
_symmetry_group_IT_number 66
_symmetry_cell_setting 'orthorhombic'
loop_
_space_group_symop_operation_xyz
x,y,z
-x,-y,z
x,-y,1/2-z
-x,y,1/2-z
-x,-y,-z
x,y,-z
-x,y,1/2+z
x,-y,1/2+z
1/2+x,1/2+y,z
1/2-x,1/2-y,z
1/2+x,1/2-y,1/2-z
1/2-x,1/2+y,1/2-z
1/2-x,1/2-y,-z
1/2+x,1/2+y,-z
1/2-x,1/2+y,1/2+z
1/2+x,1/2-y,1/2+z
loop_
_atom_site_type_symbol
_atom_site_label
_atom_site_fract_x
_atom_site_fract_y
_atom_site_fract_z
Si Si1 0.284842 0.199548 0.685038
Si Si2 0.433038 0.309528 0.826713
Si Si3 0.073900 0.947691 0.316670
Si Si4 0.931118 0.304077 0.327318
Si Si5 0.828265 0.130979 0.820581
O O1 0.282850 0.201349 0.500000
O O2 0.250000 0.250000 0.739332
O O3 0.360879 0.191781 0.739002
O O4 0.242294 0.152714 0.733970
O O5 0.500000 0.328810 0.750000
O O6 0.439295 0.253102 0.838390
O O7 0.375158 0.323306 0.710348
O O8 0.422136 0.328123 0.000000
O O9 0.069390 0.949515 0.500000
O O10 0.131809 0.910960 0.264995
O O11 0.000000 0.935295 0.250000
O O12 0.089544 0.000000 0.250000
O O13 0.924987 0.323136 0.500000
O O14 0.000000 0.322144 0.250000
O O15 0.824580 0.119209 0.000000
#
# Coordination Sequence:
#
# PCOD9495739 Si02
#       5
#    16  16  16  16  16
#     4  10  20  34  50  70  99 134 170 212 258 303
#     4  10  19  29  42  63  90 124 165 208 247 291
#     4  11  22  38  57  77 103 134 173 216 263 311
#     4  10  20  32  48  66  92 128 169 210 250 297
#     4  11  21  33  50  71  98 131 168 210 257 306
#
# _framework density 16.379650000000002
#
# number of rings (size 3 to 8) (size 9 to 14) (size 15 to 20)
#    0.000    1.600    2.000    4.800    0.000    3.600 
#    0.000    0.000    0.000    0.000    0.000    0.000 
#    0.000    0.800    0.000    8.400    0.000    3.600 
#
# Total GULP energy -222813.929540 kJ/mol
# GULP energy per Si atom -5570.348239 kJ/mol
# Density = 1.634237 g / cm^3
# Si number density = 16.379650 Si / 1000 Ang^3
#
#
#
# Elastic Constant Matrix: (Units=GPa)
#
#
# Indices 1 2 3 4 5 6 
#
# 1 129.4281 39.4445 33.2868 0.0000 0.0000 0.0000
# 2 39.4445 62.6642 36.5432 0.0000 0.0000 0.0000
# 3 33.2868 36.5432 64.8296 0.0000 0.0000 0.0000
# 4 0.0000 0.0000 0.0000 21.1362 0.0000 0.0000
# 5 0.0000 0.0000 0.0000 0.0000 22.7118 0.0000
# 6 0.0000 0.0000 0.0000 0.0000 0.0000 47.2969
#
#
#
# Elastic Compliance Matrix: (Units=1/GPa)
#
#
# Indices 1 2 3 4 5 6 
#
# 1 0.009788 -0.004812 -0.002313 0.000000 0.000000 0.000000
# 2 -0.004812 0.026138 -0.012263 0.000000 0.000000 0.000000
# 3 -0.002313 -0.012263 0.023525 0.000000 0.000000 0.000000
# 4 0.000000 0.000000 0.000000 0.047312 0.000000 0.000000
# 5 0.000000 0.000000 0.000000 0.000000 0.044030 0.000000
# 6 0.000000 0.000000 0.000000 0.000000 0.000000 0.021143
#
#
# Mechanical properties :
#
#
# Convention : Reuss Voigt Hill
#
# Bulk Modulus (GPa) = 48.36751 52.83010 50.59881
# Shear Modulus (GPa) = 22.97752 28.07214 25.52483
#
# Velocity S-wave (km/s) = 3.74947 4.14435 3.95185
# Velocity P-wave (km/s) = 6.95254 7.43131 7.19591
#
# Compressibility (1/GPa) = 0.02067503
#
# Stress axis : x y z
#
# Youngs Moduli (GPa) = 102.16907 38.25799 42.50786
#
# Poissons Ratio (x) = 0.18410 0.09832
# Poissons Ratio (y) = 0.49165 0.52127
# Poissons Ratio (z) = 0.23632 0.46915
#
# Static dielectric constant tensor:
#      x y z
#    x 1.613520 0.000000 0.000000 
#    y 0.000000 1.564960 0.000000 
#    z 0.000000 0.000000 1.582100 
# 
# From -- ./inp_files/6663.got.cif
#   From: 2010.05.17/outbox.cif.g08.bks.cpg/sg66_4_cif.got.tgz:6663.got - 2010.06.03 17:51:23.
