data_PCOD9495922
_publ_section_title
;
Structure prediction by ZEFSAII (Michael W. Deem and Ramdas Pophale) SiO2 
 PCOD9495922
Probable space group: C C C M
;
_chemical_formula_sum "Si O2"
_cell_formula_units_Z 64
_cell_length_a 35.925941
_cell_length_b 5.231466
_cell_length_c 14.769128
_cell_angle_alpha 90.000000
_cell_angle_beta 90.000000
_cell_angle_gamma 90.000000
_cell_volume 2775.788767
_symmetry_space_group_name_H-M "C C C M"
_symmetry_group_IT_number 66
_symmetry_cell_setting 'orthorhombic'
loop_
_space_group_symop_operation_xyz
x,y,z
-x,-y,z
x,-y,1/2-z
-x,y,1/2-z
-x,-y,-z
x,y,-z
-x,y,1/2+z
x,-y,1/2+z
1/2+x,1/2+y,z
1/2-x,1/2-y,z
1/2+x,1/2-y,1/2-z
1/2-x,1/2+y,1/2-z
1/2-x,1/2-y,-z
1/2+x,1/2+y,-z
1/2-x,1/2+y,1/2+z
1/2+x,1/2-y,1/2+z
loop_
_atom_site_type_symbol
_atom_site_label
_atom_site_fract_x
_atom_site_fract_y
_atom_site_fract_z
Si Si1 0.396254 0.028888 0.854217
Si Si2 0.358193 0.519467 0.860937
Si Si3 0.727634 0.504021 0.639636
Si Si4 0.475871 0.743000 0.605286
O O1 0.371214 0.246716 0.896888
O O2 0.437067 0.159250 0.853674
O O3 0.385434 0.000000 0.750000
O O4 0.386303 0.747122 0.890712
O O5 0.359871 0.500000 0.750000
O O6 0.315253 0.544998 0.886775
O O7 0.727412 0.500000 0.750000
O O8 0.750000 0.750000 0.609479
O O9 0.750000 0.250000 0.611234
O O10 0.500000 0.500000 0.641234
O O11 0.467980 0.680412 0.500000
O O12 0.500000 0.000000 0.609349
#
# Coordination Sequence:
#
# PCOD9495922 Si02
#       4
#    16  16  16  16
#     4  10  19  32  49  71  99 129 159 198 248 298
#     4   9  17  28  43  66  98 130 160 198 243 288
#     4   9  15  23  37  59  90 128 162 191 231 284
#     4  10  21  37  55  74  98 128 164 208 252 296
#
# _framework density 23.056509999999999
#
# number of rings (size 3 to 8) (size 9 to 14) (size 15 to 20)
#    0.000    2.500    0.000    3.000    0.000    6.500 
#    0.000    1.250    0.000    0.000    0.000    0.000 
#    0.000   20.000    0.000    0.000    0.000    0.000 
#
# Total GULP energy -178383.108311 kJ/mol
# GULP energy per Si atom -5574.472135 kJ/mol
# Density = 2.300403 g / cm^3
# Si number density = 23.056510 Si / 1000 Ang^3
#
#
#
# Elastic Constant Matrix: (Units=GPa)
#
#
# Indices 1 2 3 4 5 6 
#
# 1 107.9532 81.0952 -10.6143 0.0000 0.0000 0.0000
# 2 81.0952 209.3467 18.9339 0.0000 0.0000 0.0000
# 3 -10.6143 18.9339 66.9889 0.0000 0.0000 0.0000
# 4 0.0000 0.0000 0.0000 -28.3593 0.0000 0.0000
# 5 0.0000 0.0000 0.0000 0.0000 -116.5323 0.0000
# 6 0.0000 0.0000 0.0000 0.0000 0.0000 48.9312
#
#
#
# Elastic Compliance Matrix: (Units=1/GPa)
#
#
# Indices 1 2 3 4 5 6 
#
# 1 0.013966 -0.005757 0.003840 0.000000 0.000000 0.000000
# 2 -0.005757 0.007275 -0.002969 0.000000 0.000000 0.000000
# 3 0.003840 -0.002969 0.016375 0.000000 0.000000 0.000000
# 4 0.000000 0.000000 0.000000 -0.035262 0.000000 0.000000
# 5 0.000000 0.000000 0.000000 0.000000 -0.008581 0.000000
# 6 0.000000 0.000000 0.000000 0.000000 0.000000 0.020437
#
#
# Mechanical properties :
#
#
# Convention : Reuss Voigt Hill
#
# Bulk Modulus (GPa) = 35.91303 62.56872 49.24087
# Shear Modulus (GPa) = 150.31503 0.46618 75.39061
#
# Velocity S-wave (km/s) = 8.08305 0.45014 5.72444
# Velocity P-wave (km/s) = 10.13529 5.24082 8.06816
#
# Compressibility (1/GPa) = 0.02784505
#
# Stress axis : x y z
#
# Youngs Moduli (GPa) = 71.60387 137.44847 61.06740
#
# Poissons Ratio (x) = 0.79133 -0.23450
# Poissons Ratio (y) = 0.41224 0.18128
# Poissons Ratio (z) = -0.27497 0.40803
#
# Static dielectric constant tensor:
#      x y z
#    x 1.883270 0.000000 0.000000 
#    y 0.000000 1.858850 0.000000 
#    z 0.000000 0.000000 1.916780 
# 
# From -- ./inp_files/35054.got.cif
#   From: 2010.05.17/outbox.cif.g08.bks.cpg/sg66_18_cif.got.tgz:35054.got - 2010.06.03 17:51:23.
