data_PCOD9495510
_publ_section_title
;
Structure prediction by ZEFSAII (Michael W. Deem and Ramdas Pophale) SiO2 
 PCOD9495510
Probable space group: C C C M
;
_chemical_formula_sum "Si O2"
_cell_formula_units_Z 48
_cell_length_a 24.772815
_cell_length_b 9.460252
_cell_length_c 9.243513
_cell_angle_alpha 90.000000
_cell_angle_beta 90.000000
_cell_angle_gamma 90.000000
_cell_volume 2166.282648
_symmetry_space_group_name_H-M "C C C M"
_symmetry_group_IT_number 66
_symmetry_cell_setting 'orthorhombic'
loop_
_space_group_symop_operation_xyz
x,y,z
-x,-y,z
x,-y,1/2-z
-x,y,1/2-z
-x,-y,-z
x,y,-z
-x,y,1/2+z
x,-y,1/2+z
1/2+x,1/2+y,z
1/2-x,1/2-y,z
1/2+x,1/2-y,1/2-z
1/2-x,1/2+y,1/2-z
1/2-x,1/2-y,-z
1/2+x,1/2+y,-z
1/2-x,1/2+y,1/2+z
1/2+x,1/2-y,1/2+z
loop_
_atom_site_type_symbol
_atom_site_label
_atom_site_fract_x
_atom_site_fract_y
_atom_site_fract_z
Si Si1 0.948371 0.399099 0.000000
Si Si2 0.963877 0.815755 0.000000
Si Si3 0.813731 0.238844 0.500000
Si Si4 0.387909 0.215029 0.746525
Si Si5 0.381638 0.552775 0.000000
O O1 0.909711 0.402938 0.137162
O O2 0.000000 0.500000 0.000000
O O3 0.976155 0.244162 0.000000
O O4 0.936709 0.752167 0.144605
O O5 0.060051 0.026781 0.000000
O O6 0.750000 0.250000 0.500000
O O7 0.838448 0.308824 0.645007
O O8 0.839121 0.078707 0.500000
O O9 0.375146 0.349118 0.641648
#
# Coordination Sequence:
#
# PCOD9495510 Si02
#       5
#     8   8   8  16   8
#     4  11  23  38  58  83 130 178 197 241 312 375
#     4  10  18  32  58  88 118 161 199 236 305 370
#     4  10  19  37  67  87 120 160 206 277 332 366
#     4   9  20  37  60  91 118 156 210 249 305 387
#     4   9  18  38  63  90 125 149 199 265 308 373
#
# _framework density 22.157774
#
# number of rings (size 3 to 8) (size 9 to 14) (size 15 to 20)
#    0.000    2.667    0.000    5.000    0.000    5.333 
#    0.000   19.167   44.000    2.000    0.000    0.000 
#    0.000    0.000    0.000    0.000    0.000    0.000 
#
# Total GULP energy -133981.523420 kJ/mol
# GULP energy per Si atom -5582.563476 kJ/mol
# Density = 2.210734 g / cm^3
# Si number density = 22.157774 Si / 1000 Ang^3
#
#
#
# Elastic Constant Matrix: (Units=GPa)
#
#
# Indices 1 2 3 4 5 6 
#
# 1 166.4868 48.1127 74.6878 0.0000 0.0000 0.0000
# 2 48.1127 97.3838 47.9031 0.0000 0.0000 0.0000
# 3 74.6878 47.9031 213.2181 0.0000 0.0000 0.0000
# 4 0.0000 0.0000 0.0000 38.3487 0.0000 0.0000
# 5 0.0000 0.0000 0.0000 0.0000 19.3219 0.0000
# 6 0.0000 0.0000 0.0000 0.0000 0.0000 22.7075
#
#
#
# Elastic Compliance Matrix: (Units=1/GPa)
#
#
# Indices 1 2 3 4 5 6 
#
# 1 0.007752 -0.002804 -0.002086 0.000000 0.000000 0.000000
# 2 -0.002804 0.012559 -0.001839 0.000000 0.000000 0.000000
# 3 -0.002086 -0.001839 0.005834 0.000000 0.000000 0.000000
# 4 0.000000 0.000000 0.000000 0.026076 0.000000 0.000000
# 5 0.000000 0.000000 0.000000 0.000000 0.051755 0.000000
# 6 0.000000 0.000000 0.000000 0.000000 0.000000 0.044038
#
#
# Mechanical properties :
#
#
# Convention : Reuss Voigt Hill
#
# Bulk Modulus (GPa) = 78.82113 90.94399 84.88256
# Shear Modulus (GPa) = 30.17467 36.50129 33.33798
#
# Velocity S-wave (km/s) = 3.69427 4.06314 3.88309
# Velocity P-wave (km/s) = 7.33804 7.94639 7.64826
#
# Compressibility (1/GPa) = 0.01268695
#
# Stress axis : x y z
#
# Youngs Moduli (GPa) = 128.99076 79.62524 171.41454
#
# Poissons Ratio (x) = 0.22329 0.35750
# Poissons Ratio (y) = 0.36172 0.31528
# Poissons Ratio (z) = 0.26902 0.14645
#
# Static dielectric constant tensor:
#      x y z
#    x 1.755160 0.000000 0.000000 
#    y 0.000000 1.999800 0.000000 
#    z 0.000000 0.000000 1.833670 
# 
# From -- ./inp_files/9766.got.cif
#   From: 2010.05.17/outbox.cif.g08.bks.cpg/sg66_5_cif.got.tgz:9766.got - 2010.06.03 17:51:23.
