data_PCOD9495142
_publ_section_title
;
Structure prediction by ZEFSAII (Michael W. Deem and Ramdas Pophale) SiO2 
 PCOD9495142
Probable space group: C C C M
;
_chemical_formula_sum "Si O2"
_cell_formula_units_Z 80
_cell_length_a 19.282834
_cell_length_b 14.434524
_cell_length_c 13.970867
_cell_angle_alpha 90.000000
_cell_angle_beta 90.000000
_cell_angle_gamma 90.000000
_cell_volume 3888.630586
_symmetry_space_group_name_H-M "C C C M"
_symmetry_group_IT_number 66
_symmetry_cell_setting 'orthorhombic'
loop_
_space_group_symop_operation_xyz
x,y,z
-x,-y,z
x,-y,1/2-z
-x,y,1/2-z
-x,-y,-z
x,y,-z
-x,y,1/2+z
x,-y,1/2+z
1/2+x,1/2+y,z
1/2-x,1/2-y,z
1/2+x,1/2-y,1/2-z
1/2-x,1/2+y,1/2-z
1/2-x,1/2-y,-z
1/2+x,1/2+y,-z
1/2-x,1/2+y,1/2+z
1/2+x,1/2-y,1/2+z
loop_
_atom_site_type_symbol
_atom_site_label
_atom_site_fract_x
_atom_site_fract_y
_atom_site_fract_z
Si Si1 0.386793 0.972831 0.392334
Si Si2 0.269695 0.484037 0.636752
Si Si3 0.673336 0.705340 0.318786
Si Si4 0.319337 0.686291 0.398971
Si Si5 0.426106 0.854776 0.786294
O O1 0.403384 0.941880 0.500000
O O2 0.386845 0.893319 0.310122
O O3 0.310182 0.019173 0.394220
O O4 0.435038 0.054523 0.352083
O O5 0.266714 0.500000 0.750000
O O6 0.315151 0.391095 0.625829
O O7 0.299678 0.578379 0.595838
O O8 0.750000 0.750000 0.318462
O O9 0.650070 0.692571 0.207391
O O10 0.617343 0.781276 0.348015
O O11 0.355851 0.711022 0.500000
O O12 0.250000 0.750000 0.396965
O O13 0.500000 0.819765 0.750000
#
# Coordination Sequence:
#
# PCOD9495142 Si02
#       5
#    16  16  16  16  16
#     4  11  20  35  58  83 114 155 198 244 300 354
#     4  10  17  31  54  81 115 147 185 234 289 333
#     4  10  18  34  55  75 112 155 187 232 286 333
#     4   9  17  28  49  83 109 135 183 236 286 335
#     4  11  23  38  55  83 118 154 196 242 295 358
#
# _framework density 20.572793999999998
#
# number of rings (size 3 to 8) (size 9 to 14) (size 15 to 20)
#    0.000    1.800    4.000    4.200    0.000    4.000 
#    0.000    3.000    0.000    5.400    0.000    1.400 
#    0.000    0.000    0.000    0.000    0.000    0.000 
#
# Total GULP energy -222767.435019 kJ/mol
# GULP energy per Si atom -5569.185875 kJ/mol
# Density = 2.052597 g / cm^3
# Si number density = 20.572794 Si / 1000 Ang^3
#
#
#
# Elastic Constant Matrix: (Units=GPa)
#
#
# Indices 1 2 3 4 5 6 
#
# 1 66.5576 35.9820 -18.9901 0.0000 0.0000 0.0000
# 2 35.9820 143.0637 9.5705 0.0000 0.0000 0.0000
# 3 -18.9901 9.5705 83.1565 0.0000 0.0000 0.0000
# 4 0.0000 0.0000 0.0000 -19.3188 0.0000 0.0000
# 5 0.0000 0.0000 0.0000 0.0000 3.6078 0.0000
# 6 0.0000 0.0000 0.0000 0.0000 0.0000 29.0286
#
#
#
# Elastic Compliance Matrix: (Units=1/GPa)
#
#
# Indices 1 2 3 4 5 6 
#
# 1 0.019246 -0.005174 0.004991 0.000000 0.000000 0.000000
# 2 -0.005174 0.008435 -0.002152 0.000000 0.000000 0.000000
# 3 0.004991 -0.002152 0.013413 0.000000 0.000000 0.000000
# 4 0.000000 0.000000 0.000000 -0.051763 0.000000 0.000000
# 5 0.000000 0.000000 0.000000 0.000000 0.277176 0.000000
# 6 0.000000 0.000000 0.000000 0.000000 0.000000 0.034449
#
#
# Mechanical properties :
#
#
# Convention : Reuss Voigt Hill
#
# Bulk Modulus (GPa) = 27.45626 38.43363 32.94495
# Shear Modulus (GPa) = 15.73469 20.41120 18.07295
#
# Velocity S-wave (km/s) = 2.76856 3.15325 2.96714
# Velocity P-wave (km/s) = 4.85744 5.65506 5.27136
#
# Compressibility (1/GPa) = 0.03642157
#
# Stress axis : x y z
#
# Youngs Moduli (GPa) = 51.95930 118.54937 74.55491
#
# Poissons Ratio (x) = 0.61342 -0.37207
# Poissons Ratio (y) = 0.26886 0.16048
# Poissons Ratio (z) = -0.25931 0.25517
#
# Static dielectric constant tensor:
#      x y z
#    x 1.773670 0.000000 0.000000 
#    y 0.000000 1.793080 0.000000 
#    z 0.000000 0.000000 1.811100 
# 
# From -- ./inp_files/28099.got.cif
#   From: 2010.05.17/outbox.cif.g08.bks.cpg/sg66_15_cif.got.tgz:28099.got - 2010.06.03 17:51:23.
