data_PCOD9495954
_publ_section_title
;
Structure prediction by ZEFSAII (Michael W. Deem and Ramdas Pophale) SiO2 
 PCOD9495954
Probable space group: C C C M
;
_chemical_formula_sum "Si O2"
_cell_formula_units_Z 96
_cell_length_a 30.724346
_cell_length_b 20.232049
_cell_length_c 8.904526
_cell_angle_alpha 90.000000
_cell_angle_beta 90.000000
_cell_angle_gamma 90.000000
_cell_volume 5535.200053
_symmetry_space_group_name_H-M "C C C M"
_symmetry_group_IT_number 66
_symmetry_cell_setting 'orthorhombic'
loop_
_space_group_symop_operation_xyz
x,y,z
-x,-y,z
x,-y,1/2-z
-x,y,1/2-z
-x,-y,-z
x,y,-z
-x,y,1/2+z
x,-y,1/2+z
1/2+x,1/2+y,z
1/2-x,1/2-y,z
1/2+x,1/2-y,1/2-z
1/2-x,1/2+y,1/2-z
1/2-x,1/2-y,-z
1/2+x,1/2+y,-z
1/2-x,1/2+y,1/2+z
1/2+x,1/2-y,1/2+z
loop_
_atom_site_type_symbol
_atom_site_label
_atom_site_fract_x
_atom_site_fract_y
_atom_site_fract_z
Si Si1 0.732655 0.069830 0.820778
Si Si2 0.873018 0.200119 0.680960
Si Si3 0.952235 0.288432 0.319572
Si Si4 0.451393 0.934824 0.320380
Si Si5 0.835510 0.069438 0.179026
Si Si6 0.291983 0.205994 0.180421
O O1 0.784166 0.078153 0.782875
O O2 0.709362 0.134434 0.756050
O O3 0.718389 0.000000 0.750000
O O4 0.728444 0.066809 0.000000
O O5 0.873164 0.192403 0.500000
O O6 0.918575 0.232422 0.728569
O O7 0.861846 0.130803 0.755718
O O8 0.834698 0.251942 0.717714
O O9 0.956454 0.285922 0.500000
O O10 0.933383 0.361958 0.285054
O O11 0.000000 0.281679 0.250000
O O12 0.500000 0.932653 0.250000
O O13 0.453987 0.942432 0.500000
O O14 0.429665 0.000000 0.250000
O O15 0.849555 0.000000 0.250000
O O16 0.839143 0.066781 0.000000
O O17 0.250000 0.250000 0.225135
O O18 0.290122 0.197256 0.000000
#
# Coordination Sequence:
#
# PCOD9495954 Si02
#       6
#    16  16  16  16  16  16
#     4  10  20  33  51  74 105 141 178 217 257 305
#     4  10  20  35  54  77 106 138 173 213 260 311
#     4   9  19  34  52  74 102 136 172 216 262 309
#     4   9  15  25  43  67  92 121 159 200 246 291
#     4  10  20  33  52  78 105 135 172 214 256 306
#     4  10  19  32  52  76 104 139 173 209 256 308
#
# _framework density 17.343546
#
# number of rings (size 3 to 8) (size 9 to 14) (size 15 to 20)
#    0.000    2.333    1.667    2.000    0.000    3.667 
#    0.000    0.833    0.000    2.500    0.000    3.500 
#    0.000    0.000    0.000    0.000    0.000    0.000 
#
# Total GULP energy -267711.766718 kJ/mol
# GULP energy per Si atom -5577.328473 kJ/mol
# Density = 1.730407 g / cm^3
# Si number density = 17.343546 Si / 1000 Ang^3
#
#
#
# Elastic Constant Matrix: (Units=GPa)
#
#
# Indices 1 2 3 4 5 6 
#
# 1 58.3060 54.5105 23.9730 0.0000 0.0000 0.0000
# 2 54.5105 179.8363 53.8688 0.0000 0.0000 0.0000
# 3 23.9730 53.8688 34.9917 0.0000 0.0000 0.0000
# 4 0.0000 0.0000 0.0000 35.9860 0.0000 0.0000
# 5 0.0000 0.0000 0.0000 0.0000 14.5932 0.0000
# 6 0.0000 0.0000 0.0000 0.0000 0.0000 23.6684
#
#
#
# Elastic Compliance Matrix: (Units=1/GPa)
#
#
# Indices 1 2 3 4 5 6 
#
# 1 0.025851 -0.004696 -0.010481 0.000000 0.000000 0.000000
# 2 -0.004696 0.011172 -0.013982 0.000000 0.000000 0.000000
# 3 -0.010481 -0.013982 0.057284 0.000000 0.000000 0.000000
# 4 0.000000 0.000000 0.000000 0.027789 0.000000 0.000000
# 5 0.000000 0.000000 0.000000 0.000000 0.068525 0.000000
# 6 0.000000 0.000000 0.000000 0.000000 0.000000 0.042250
#
#
# Mechanical properties :
#
#
# Convention : Reuss Voigt Hill
#
# Bulk Modulus (GPa) = 27.78666 59.75986 43.77326
# Shear Modulus (GPa) = 16.49158 24.23496 20.36327
#
# Velocity S-wave (km/s) = 3.08697 3.74217 3.43025
# Velocity P-wave (km/s) = 5.36302 7.29405 6.40176
#
# Compressibility (1/GPa) = 0.03598849
#
# Stress axis : x y z
#
# Youngs Moduli (GPa) = 38.68379 89.50692 17.45699
#
# Poissons Ratio (x) = 0.42034 0.18296
# Poissons Ratio (y) = 0.18167 0.24409
# Poissons Ratio (z) = 0.40544 1.25149
#
# Static dielectric constant tensor:
#      x y z
#    x 1.580290 0.000000 0.000000 
#    y 0.000000 1.596580 0.000000 
#    z 0.000000 0.000000 1.580230 
# 
# From -- ./inp_files/7971.got.cif
#   From: 2010.05.17/outbox.cif.g08.bks.cpg/sg66_4_cif.got.tgz:7971.got - 2010.06.03 17:51:23.
