data_PCOD9495208
_publ_section_title
;
Structure prediction by ZEFSAII (Michael W. Deem and Ramdas Pophale) SiO2 
 PCOD9495208
Probable space group: C C C M
;
_chemical_formula_sum "Si O2"
_cell_formula_units_Z 120
_cell_length_a 11.012253
_cell_length_b 20.365592
_cell_length_c 27.464980
_cell_angle_alpha 90.000000
_cell_angle_beta 90.000000
_cell_angle_gamma 90.000000
_cell_volume 6159.599947
_symmetry_space_group_name_H-M "C C C M"
_symmetry_group_IT_number 66
_symmetry_cell_setting 'orthorhombic'
loop_
_space_group_symop_operation_xyz
x,y,z
-x,-y,z
x,-y,1/2-z
-x,y,1/2-z
-x,-y,-z
x,y,-z
-x,y,1/2+z
x,-y,1/2+z
1/2+x,1/2+y,z
1/2-x,1/2-y,z
1/2+x,1/2-y,1/2-z
1/2-x,1/2+y,1/2-z
1/2-x,1/2-y,-z
1/2+x,1/2+y,-z
1/2-x,1/2+y,1/2+z
1/2+x,1/2-y,1/2+z
loop_
_atom_site_type_symbol
_atom_site_label
_atom_site_fract_x
_atom_site_fract_y
_atom_site_fract_z
Si Si1 0.630653 0.795555 0.057654
Si Si2 0.362563 0.297196 0.230553
Si Si3 0.084514 0.062385 0.386118
Si Si4 0.636945 0.564364 0.727933
Si Si5 0.496261 0.294872 0.867577
Si Si6 0.456577 0.068957 0.944915
Si Si7 0.722847 0.872141 0.445510
Si Si8 0.250000 0.250000 0.626639
O O1 0.750000 0.750000 0.062567
O O2 0.535085 0.756451 0.090366
O O3 0.633597 0.872916 0.073565
O O4 0.600264 0.796623 0.000000
O O5 0.500000 0.282546 0.250000
O O6 0.250000 0.250000 0.239116
O O7 0.318205 0.366441 0.252705
O O8 0.392264 0.299409 0.172848
O O9 0.130408 0.059470 0.330123
O O10 0.195165 0.069471 0.423513
O O11 0.014571 0.132044 0.388543
O O12 0.000000 0.000000 0.395185
O O13 0.699124 0.500000 0.750000
O O14 0.500000 0.564628 0.750000
O O15 0.625676 0.268880 0.845898
O O16 0.583963 0.106873 0.947731
O O17 0.500000 0.000000 0.920752
O O18 0.413450 0.051530 0.000000
O O19 0.764401 0.854757 0.500000
O O20 0.733301 0.812377 0.408312
#
# Coordination Sequence:
#
# PCOD9495208 Si02
#       8
#    16  16  16  16  16  16  16   8
#     4  10  21  37  57  83 117 159 205 252 304 363
#     4  11  23  38  62  95 122 155 197 256 314 367
#     4  11  21  35  57  90 117 150 201 251 308 369
#     4  10  17  38  66  85 110 155 206 247 297 374
#     4  11  21  36  58  89 118 152 198 250 306 364
#     4   9  18  36  58  79 111 162 210 244 294 367
#     4  10  21  35  54  84 120 158 200 249 304 363
#     4  10  21  34  62  82 114 162 208 242 289 372
#
# _framework density 19.481784999999999
#
# number of rings (size 3 to 8) (size 9 to 14) (size 15 to 20)
#    0.000    1.733    5.333    0.600    0.933    3.467 
#    0.000    2.667    0.000    0.400    0.000    0.000 
#    0.000    0.000    0.000    0.000    0.000    0.000 
#
# Total GULP energy -334100.678645 kJ/mol
# GULP energy per Si atom -5568.344644 kJ/mol
# Density = 1.943744 g / cm^3
# Si number density = 19.481785 Si / 1000 Ang^3
#
#
#
# Elastic Constant Matrix: (Units=GPa)
#
#
# Indices 1 2 3 4 5 6 
#
# 1 68.8618 44.3744 11.6615 0.0000 0.0000 0.0000
# 2 44.3744 134.6824 -0.4790 0.0000 0.0000 0.0000
# 3 11.6615 -0.4790 39.9902 0.0000 0.0000 0.0000
# 4 0.0000 0.0000 0.0000 15.6659 0.0000 0.0000
# 5 0.0000 0.0000 0.0000 0.0000 14.9619 0.0000
# 6 0.0000 0.0000 0.0000 0.0000 0.0000 36.3927
#
#
#
# Elastic Compliance Matrix: (Units=1/GPa)
#
#
# Indices 1 2 3 4 5 6 
#
# 1 0.019705 -0.006513 -0.005824 0.000000 0.000000 0.000000
# 2 -0.006513 0.009578 0.002014 0.000000 0.000000 0.000000
# 3 -0.005824 0.002014 0.026729 0.000000 0.000000 0.000000
# 4 0.000000 0.000000 0.000000 0.063833 0.000000 0.000000
# 5 0.000000 0.000000 0.000000 0.000000 0.066836 0.000000
# 6 0.000000 0.000000 0.000000 0.000000 0.000000 0.027478
#
#
# Mechanical properties :
#
#
# Convention : Reuss Voigt Hill
#
# Bulk Modulus (GPa) = 28.27642 39.40536 33.84089
# Shear Modulus (GPa) = 20.27624 25.93593 23.10609
#
# Velocity S-wave (km/s) = 3.22961 3.65264 3.44762
# Velocity P-wave (km/s) = 5.33413 6.16926 5.76683
#
# Compressibility (1/GPa) = 0.03536516
#
# Stress axis : x y z
#
# Youngs Moduli (GPa) = 50.74814 104.40679 37.41305
#
# Poissons Ratio (x) = 0.68001 0.21790
# Poissons Ratio (y) = 0.33053 -0.07535
# Poissons Ratio (z) = 0.29557 -0.21027
#
# Static dielectric constant tensor:
#      x y z
#    x 1.702920 0.000000 0.000000 
#    y 0.000000 1.759030 0.000000 
#    z 0.000000 0.000000 1.696050 
# 
# From -- ./inp_files/57225.got.cif
#   From: 2010.05.17/outbox.cif.g08.bks.cpg/sg66_29_cif.got.tgz:57225.got - 2010.06.03 17:51:23.
