data_PCOD9495276
_publ_section_title
;
Structure prediction by ZEFSAII (Michael W. Deem and Ramdas Pophale) SiO2 
 PCOD9495276
Probable space group: C C C M
;
_chemical_formula_sum "Si O2"
_cell_formula_units_Z 104
_cell_length_a 23.979729
_cell_length_b 13.169485
_cell_length_c 17.347054
_cell_angle_alpha 90.000000
_cell_angle_beta 90.000000
_cell_angle_gamma 90.000000
_cell_volume 5478.211473
_symmetry_space_group_name_H-M "C C C M"
_symmetry_group_IT_number 66
_symmetry_cell_setting 'orthorhombic'
loop_
_space_group_symop_operation_xyz
x,y,z
-x,-y,z
x,-y,1/2-z
-x,y,1/2-z
-x,-y,-z
x,y,-z
-x,y,1/2+z
x,-y,1/2+z
1/2+x,1/2+y,z
1/2-x,1/2-y,z
1/2+x,1/2-y,1/2-z
1/2-x,1/2+y,1/2-z
1/2-x,1/2-y,-z
1/2+x,1/2+y,-z
1/2-x,1/2+y,1/2+z
1/2+x,1/2-y,1/2+z
loop_
_atom_site_type_symbol
_atom_site_label
_atom_site_fract_x
_atom_site_fract_y
_atom_site_fract_z
Si Si1 0.139576 0.192870 0.144232
Si Si2 0.838794 0.140209 0.091467
Si Si3 0.134162 0.581240 0.588887
Si Si4 0.187632 0.286146 0.712273
Si Si5 0.860577 0.500000 0.750000
Si Si6 0.936244 0.989909 0.093117
Si Si7 0.266170 0.453580 0.909400
O O1 0.129081 0.296840 0.097795
O O2 0.145649 0.225131 0.232344
O O3 0.093358 0.108880 0.127639
O O4 0.198448 0.139621 0.123608
O O5 0.827754 0.249230 0.127432
O O6 0.897447 0.086834 0.111703
O O7 0.791683 0.059888 0.120470
O O8 0.835375 0.147724 0.000000
O O9 0.117777 0.552347 0.500000
O O10 0.109270 0.529811 0.667832
O O11 0.200331 0.557812 0.597511
O O12 0.250000 0.250000 0.728869
O O13 0.176737 0.402629 0.729659
O O14 0.934887 0.979350 0.000000
O O15 0.000000 0.000000 0.117772
O O16 0.279594 0.452790 0.000000
#
# Coordination Sequence:
#
# PCOD9495276 Si02
#       7
#    16  16  16  16   8  16  16
#     4  10  18  29  46  73 104 136 173 214 267 325
#     4   9  19  34  51  74 105 143 183 221 272 334
#     4  10  18  29  46  67  97 139 178 214 260 315
#     4  11  22  34  50  72 105 144 180 224 274 328
#     4  10  22  34  44  70 101 128 173 220 256 306
#     4   9  18  34  56  83 114 143 178 230 280 325
#     4   9  16  26  43  69 100 133 173 215 254 312
#
# _framework density 18.984297999999999
#
# number of rings (size 3 to 8) (size 9 to 14) (size 15 to 20)
#    0.000    2.308    0.000    5.538    0.000    5.846 
#    0.000    1.538    0.000    0.000    0.000    8.615 
#    0.000   16.000    0.000    0.000    0.000    0.000 
#
# Total GULP energy -289833.627760 kJ/mol
# GULP energy per Si atom -5573.723611 kJ/mol
# Density = 1.894109 g / cm^3
# Si number density = 18.984298 Si / 1000 Ang^3
#
#
#
# Elastic Constant Matrix: (Units=GPa)
#
#
# Indices 1 2 3 4 5 6 
#
# 1 58.1496 17.2701 14.5595 0.0000 0.0000 0.0000
# 2 17.2701 92.4610 38.4321 0.0000 0.0000 0.0000
# 3 14.5595 38.4321 90.1078 0.0000 0.0000 0.0000
# 4 0.0000 0.0000 0.0000 35.7501 0.0000 0.0000
# 5 0.0000 0.0000 0.0000 0.0000 14.4312 0.0000
# 6 0.0000 0.0000 0.0000 0.0000 0.0000 9.0382
#
#
#
# Elastic Compliance Matrix: (Units=1/GPa)
#
#
# Indices 1 2 3 4 5 6 
#
# 1 0.018454 -0.002683 -0.001837 0.000000 0.000000 0.000000
# 2 -0.002683 0.013536 -0.005340 0.000000 0.000000 0.000000
# 3 -0.001837 -0.005340 0.013672 0.000000 0.000000 0.000000
# 4 0.000000 0.000000 0.000000 0.027972 0.000000 0.000000
# 5 0.000000 0.000000 0.000000 0.000000 0.069294 0.000000
# 6 0.000000 0.000000 0.000000 0.000000 0.000000 0.110641
#
#
# Mechanical properties :
#
#
# Convention : Reuss Voigt Hill
#
# Bulk Modulus (GPa) = 38.54811 42.36021 40.45416
# Shear Modulus (GPa) = 17.73443 23.20768 20.47105
#
# Velocity S-wave (km/s) = 3.05972 3.50017 3.28733
# Velocity P-wave (km/s) = 5.72991 6.22067 5.98032
#
# Compressibility (1/GPa) = 0.02594161
#
# Stress axis : x y z
#
# Youngs Moduli (GPa) = 54.18892 73.87679 73.14121
#
# Poissons Ratio (x) = 0.19822 0.13439
# Poissons Ratio (y) = 0.14540 0.39056
# Poissons Ratio (z) = 0.09957 0.39448
#
# Static dielectric constant tensor:
#      x y z
#    x 1.634730 0.000000 0.000000 
#    y 0.000000 1.674620 0.000000 
#    z 0.000000 0.000000 1.728590 
# 
# From -- ./inp_files/39067.got.cif
#   From: 2010.05.17/outbox.cif.g08.bks.cpg/sg66_20_cif.got.tgz:39067.got - 2010.06.03 17:51:23.
