data_PCOD9495776
_publ_section_title
;
Structure prediction by ZEFSAII (Michael W. Deem and Ramdas Pophale) SiO2 
 PCOD9495776
Probable space group: C C C M
;
_chemical_formula_sum "Si O2"
_cell_formula_units_Z 80
_cell_length_a 19.065239
_cell_length_b 27.218032
_cell_length_c 8.883569
_cell_angle_alpha 90.000000
_cell_angle_beta 90.000000
_cell_angle_gamma 90.000000
_cell_volume 4609.846392
_symmetry_space_group_name_H-M "C C C M"
_symmetry_group_IT_number 66
_symmetry_cell_setting 'orthorhombic'
loop_
_space_group_symop_operation_xyz
x,y,z
-x,-y,z
x,-y,1/2-z
-x,y,1/2-z
-x,-y,-z
x,y,-z
-x,y,1/2+z
x,-y,1/2+z
1/2+x,1/2+y,z
1/2-x,1/2-y,z
1/2+x,1/2-y,1/2-z
1/2-x,1/2+y,1/2-z
1/2-x,1/2-y,-z
1/2+x,1/2+y,-z
1/2-x,1/2+y,1/2+z
1/2+x,1/2-y,1/2+z
loop_
_atom_site_type_symbol
_atom_site_label
_atom_site_fract_x
_atom_site_fract_y
_atom_site_fract_z
Si Si1 0.289711 0.799333 0.180499
Si Si2 0.924866 0.654869 0.180228
Si Si3 0.357061 0.948905 0.320548
Si Si4 0.721923 0.596386 0.679438
Si Si5 0.428287 0.554404 0.819375
O O1 0.250000 0.750000 0.228371
O O2 0.363773 0.809662 0.259238
O O3 0.242332 0.847346 0.211646
O O4 0.199298 0.703148 0.000000
O O5 0.901994 0.599111 0.224638
O O6 0.000000 0.666352 0.250000
O O7 0.927552 0.656938 0.000000
O O8 0.357940 0.952661 0.500000
O O9 0.278161 0.937382 0.264494
O O10 0.381784 0.000000 0.250000
O O11 0.730765 0.588198 0.500000
O O12 0.642093 0.583973 0.718252
O O13 0.420551 0.500000 0.750000
O O14 0.500000 0.575472 0.750000
O O15 0.434751 0.551127 0.000000
#
# Coordination Sequence:
#
# PCOD9495776 Si02
#       5
#    16  16  16  16  16
#     4   9  18  35  58  79 101 131 166 206 253 302
#     4  10  21  36  54  77 105 136 170 208 251 299
#     4  10  20  32  49  74 102 134 170 206 246 295
#     4   9  18  32  50  72  98 129 166 206 247 297
#     4  10  19  30  45  66  94 127 162 198 240 289
#
# _framework density 17.354158000000002
#
# number of rings (size 3 to 8) (size 9 to 14) (size 15 to 20)
#    0.000    2.400    0.000    3.000    0.000    6.400 
#    0.000    3.000    0.000    2.400    0.000    0.000 
#    0.000    0.000    0.000    0.000    0.000    0.000 
#
# Total GULP energy -223192.502012 kJ/mol
# GULP energy per Si atom -5579.812550 kJ/mol
# Density = 1.731466 g / cm^3
# Si number density = 17.354158 Si / 1000 Ang^3
#
#
#
# Elastic Constant Matrix: (Units=GPa)
#
#
# Indices 1 2 3 4 5 6 
#
# 1 152.4544 52.2129 47.7478 0.0000 0.0000 0.0000
# 2 52.2129 88.2523 33.8870 0.0000 0.0000 0.0000
# 3 47.7478 33.8870 39.7900 0.0000 0.0000 0.0000
# 4 0.0000 0.0000 0.0000 20.4442 0.0000 0.0000
# 5 0.0000 0.0000 0.0000 0.0000 24.5315 0.0000
# 6 0.0000 0.0000 0.0000 0.0000 0.0000 11.3939
#
#
#
# Elastic Compliance Matrix: (Units=1/GPa)
#
#
# Indices 1 2 3 4 5 6 
#
# 1 0.010763 -0.002093 -0.011133 0.000000 0.000000 0.000000
# 2 -0.002093 0.017244 -0.012175 0.000000 0.000000 0.000000
# 3 -0.011133 -0.012175 0.048860 0.000000 0.000000 0.000000
# 4 0.000000 0.000000 0.000000 0.048914 0.000000 0.000000
# 5 0.000000 0.000000 0.000000 0.000000 0.040764 0.000000
# 6 0.000000 0.000000 0.000000 0.000000 0.000000 0.087766
#
#
# Mechanical properties :
#
#
# Convention : Reuss Voigt Hill
#
# Bulk Modulus (GPa) = 38.36392 60.91024 49.63708
# Shear Modulus (GPa) = 15.93370 21.05053 18.49211
#
# Velocity S-wave (km/s) = 3.03338 3.48659 3.26785
# Velocity P-wave (km/s) = 5.86711 7.16819 6.55004
#
# Compressibility (1/GPa) = 0.02606616
#
# Stress axis : x y z
#
# Youngs Moduli (GPa) = 92.91172 57.99097 20.46662
#
# Poissons Ratio (x) = 0.12136 0.22786
# Poissons Ratio (y) = 0.19445 0.24917
# Poissons Ratio (z) = 1.03440 0.70601
#
# Static dielectric constant tensor:
#      x y z
#    x 1.579310 0.000000 0.000000 
#    y 0.000000 1.581030 0.000000 
#    z 0.000000 0.000000 1.579140 
# 
# From -- ./inp_files/6681.got.cif
#   From: 2010.05.17/outbox.cif.g08.bks.cpg/sg66_4_cif.got.tgz:6681.got - 2010.06.03 17:51:23.
