data_PCOD9495982
_publ_section_title
;
Structure prediction by ZEFSAII (Michael W. Deem and Ramdas Pophale) SiO2 
 PCOD9495982
Probable space group: C C C M
;
_chemical_formula_sum "Si O2"
_cell_formula_units_Z 112
_cell_length_a 15.957815
_cell_length_b 17.541427
_cell_length_c 17.490032
_cell_angle_alpha 90.000000
_cell_angle_beta 90.000000
_cell_angle_gamma 90.000000
_cell_volume 4895.859550
_symmetry_space_group_name_H-M "C C C M"
_symmetry_group_IT_number 66
_symmetry_cell_setting 'orthorhombic'
loop_
_space_group_symop_operation_xyz
x,y,z
-x,-y,z
x,-y,1/2-z
-x,y,1/2-z
-x,-y,-z
x,y,-z
-x,y,1/2+z
x,-y,1/2+z
1/2+x,1/2+y,z
1/2-x,1/2-y,z
1/2+x,1/2-y,1/2-z
1/2-x,1/2+y,1/2-z
1/2-x,1/2-y,-z
1/2+x,1/2+y,-z
1/2-x,1/2+y,1/2+z
1/2+x,1/2-y,1/2+z
loop_
_atom_site_type_symbol
_atom_site_label
_atom_site_fract_x
_atom_site_fract_y
_atom_site_fract_z
Si Si1 0.094994 0.196987 0.187032
Si Si2 0.078910 0.034641 0.164410
Si Si3 0.430200 0.152314 0.091409
Si Si4 0.106026 0.386426 0.411190
Si Si5 0.743113 0.658175 0.085046
Si Si6 0.785513 0.064440 0.908751
Si Si7 0.844272 0.773834 0.649654
O O1 0.045378 0.120478 0.173683
O O2 0.069761 0.266582 0.133875
O O3 0.183543 0.160024 0.158439
O O4 0.101839 0.223432 0.273437
O O5 0.087398 0.000000 0.250000
O O6 0.163351 0.007425 0.122659
O O7 0.000000 0.000000 0.120255
O O8 0.510812 0.104222 0.118625
O O9 0.334789 0.123470 0.101311
O O10 0.439068 0.163709 0.000000
O O11 0.103158 0.408742 0.500000
O O12 0.189438 0.426566 0.378446
O O13 0.123940 0.295181 0.403457
O O14 0.750000 0.750000 0.075363
O O15 0.713603 0.631615 0.000000
O O16 0.834270 0.142452 0.886086
O O17 0.781412 0.061444 0.000000
O O18 0.750000 0.750000 0.672616
#
# Coordination Sequence:
#
# PCOD9495982 Si02
#       7
#    16  16  16  16  16  16  16
#     4  11  20  33  56  78 113 149 183 223 280 339
#     4  11  25  41  55  76 110 151 188 229 270 323
#     4   9  18  32  54  86 116 139 173 227 285 333
#     4   9  19  34  55  81 111 145 182 232 284 330
#     4   8  15  30  51  79 111 139 172 217 272 332
#     4  10  21  39  57  76 107 150 196 232 272 331
#     4  10  19  32  53  80 107 141 181 225 278 333
#
# _framework density 22.876474000000002
#
# number of rings (size 3 to 8) (size 9 to 14) (size 15 to 20)
#    0.000    2.286    1.429    3.000    2.000    3.714 
#    0.000    0.000    0.000    0.857    0.000    5.000 
#    0.000    0.000    0.000    0.000    0.000    0.000 
#
# Total GULP energy -312006.446347 kJ/mol
# GULP energy per Si atom -5571.543685 kJ/mol
# Density = 2.282441 g / cm^3
# Si number density = 22.876474 Si / 1000 Ang^3
#
#
#
# Elastic Constant Matrix: (Units=GPa)
#
#
# Indices 1 2 3 4 5 6 
#
# 1 132.8537 -11.2247 17.6284 0.0000 0.0000 0.0000
# 2 -11.2247 45.2735 6.9049 0.0000 0.0000 0.0000
# 3 17.6284 6.9049 43.5221 0.0000 0.0000 0.0000
# 4 0.0000 0.0000 0.0000 11.9152 0.0000 0.0000
# 5 0.0000 0.0000 0.0000 0.0000 27.4997 0.0000
# 6 0.0000 0.0000 0.0000 0.0000 0.0000 19.5012
#
#
#
# Elastic Compliance Matrix: (Units=1/GPa)
#
#
# Indices 1 2 3 4 5 6 
#
# 1 0.008247 0.002617 -0.003755 0.000000 0.000000 0.000000
# 2 0.002617 0.023466 -0.004783 0.000000 0.000000 0.000000
# 3 -0.003755 -0.004783 0.025257 0.000000 0.000000 0.000000
# 4 0.000000 0.000000 0.000000 0.083926 0.000000 0.000000
# 5 0.000000 0.000000 0.000000 0.000000 0.036364 0.000000
# 6 0.000000 0.000000 0.000000 0.000000 0.000000 0.051279
#
#
# Mechanical properties :
#
#
# Convention : Reuss Voigt Hill
#
# Bulk Modulus (GPa) = 22.15960 27.58519 24.87239
# Shear Modulus (GPa) = 19.57530 25.67260 22.62395
#
# Velocity S-wave (km/s) = 2.92840 3.35360 3.14819
# Velocity P-wave (km/s) = 4.59801 5.20385 4.91028
#
# Compressibility (1/GPa) = 0.04512717
#
# Stress axis : x y z
#
# Youngs Moduli (GPa) = 121.26312 42.61414 39.59323
#
# Poissons Ratio (x) = -0.11154 0.14869
# Poissons Ratio (y) = -0.31739 0.18938
# Poissons Ratio (z) = 0.45540 0.20383
#
# Static dielectric constant tensor:
#      x y z
#    x 2.051800 0.000000 0.000000 
#    y 0.000000 1.971130 0.000000 
#    z 0.000000 0.000000 1.813470 
# 
# From -- ./inp_files/41998.got.cif
#   From: 2010.05.17/outbox.cif.g08.bks.cpg/sg66_21_cif.got.tgz:41998.got - 2010.06.03 17:51:23.
