data_PCOD9495900
_publ_section_title
;
Structure prediction by ZEFSAII (Michael W. Deem and Ramdas Pophale) SiO2 
 PCOD9495900
Probable space group: C C C M
;
_chemical_formula_sum "Si O2"
_cell_formula_units_Z 64
_cell_length_a 16.624624
_cell_length_b 8.433306
_cell_length_c 24.946279
_cell_angle_alpha 90.000000
_cell_angle_beta 90.000000
_cell_angle_gamma 90.000000
_cell_volume 3497.481820
_symmetry_space_group_name_H-M "C C C M"
_symmetry_group_IT_number 66
_symmetry_cell_setting 'orthorhombic'
loop_
_space_group_symop_operation_xyz
x,y,z
-x,-y,z
x,-y,1/2-z
-x,y,1/2-z
-x,-y,-z
x,y,-z
-x,y,1/2+z
x,-y,1/2+z
1/2+x,1/2+y,z
1/2-x,1/2-y,z
1/2+x,1/2-y,1/2-z
1/2-x,1/2+y,1/2-z
1/2-x,1/2-y,-z
1/2+x,1/2+y,-z
1/2-x,1/2+y,1/2+z
1/2+x,1/2-y,1/2+z
loop_
_atom_site_type_symbol
_atom_site_label
_atom_site_fract_x
_atom_site_fract_y
_atom_site_fract_z
Si Si1 0.592478 0.950709 0.000000
Si Si2 0.267014 0.064690 0.689883
Si Si3 0.909231 0.067413 0.500000
Si Si4 0.674369 0.636428 0.102826
Si Si5 0.092910 0.545335 0.617461
O O1 0.591764 0.759821 0.000000
O O2 0.624797 0.004898 0.057722
O O3 0.500000 0.000000 0.000000
O O4 0.250000 0.250000 0.689334
O O5 0.263617 0.000000 0.750000
O O6 0.205438 0.968099 0.651908
O O7 0.353477 0.031765 0.663127
O O8 0.860049 0.031545 0.445802
O O9 0.000000 0.000000 0.500000
O O10 0.750000 0.750000 0.085922
O O11 0.607082 0.764915 0.119948
O O12 0.000000 0.500000 0.621333
#
# Coordination Sequence:
#
# PCOD9495900 Si02
#       5
#     8  16   8  16  16
#     4   8  16  31  51  78 113 145 170 207 268 329
#     4  11  23  39  57  78 107 145 189 236 280 328
#     4  10  19  31  55  86 115 141 177 227 269 313
#     4   9  19  36  56  80 112 150 182 216 272 336
#     4   9  18  35  59  83 111 147 183 221 269 330
#
# _framework density 18.29888
#
# number of rings (size 3 to 8) (size 9 to 14) (size 15 to 20)
#    0.000    2.500    0.000    2.625    0.000    9.500 
#    0.000    1.250    0.000    5.250    0.000    0.000 
#    0.000    0.000    0.000    0.000    0.000    0.000 
#
# Total GULP energy -178303.983176 kJ/mol
# GULP energy per Si atom -5571.999474 kJ/mol
# Density = 1.825723 g / cm^3
# Si number density = 18.298880 Si / 1000 Ang^3
#
#
#
# Elastic Constant Matrix: (Units=GPa)
#
#
# Indices 1 2 3 4 5 6 
#
# 1 101.7501 49.9910 84.3307 0.0000 0.0000 0.0000
# 2 49.9910 67.1421 56.4747 0.0000 0.0000 0.0000
# 3 84.3307 56.4747 189.5006 0.0000 0.0000 0.0000
# 4 0.0000 0.0000 0.0000 25.1951 0.0000 0.0000
# 5 0.0000 0.0000 0.0000 0.0000 14.9600 0.0000
# 6 0.0000 0.0000 0.0000 0.0000 0.0000 34.3715
#
#
#
# Elastic Compliance Matrix: (Units=1/GPa)
#
#
# Indices 1 2 3 4 5 6 
#
# 1 0.019253 -0.009513 -0.005733 0.000000 0.000000 0.000000
# 2 -0.009513 0.024577 -0.003091 0.000000 0.000000 0.000000
# 3 -0.005733 -0.003091 0.008749 0.000000 0.000000 0.000000
# 4 0.000000 0.000000 0.000000 0.039690 0.000000 0.000000
# 5 0.000000 0.000000 0.000000 0.000000 0.066845 0.000000
# 6 0.000000 0.000000 0.000000 0.000000 0.000000 0.029094
#
#
# Mechanical properties :
#
#
# Convention : Reuss Voigt Hill
#
# Bulk Modulus (GPa) = 62.87084 82.22062 72.54573
# Shear Modulus (GPa) = 21.72172 26.07839 23.90006
#
# Velocity S-wave (km/s) = 3.44910 3.77919 3.61791
# Velocity P-wave (km/s) = 7.09183 8.00454 7.56197
#
# Compressibility (1/GPa) = 0.01590562
#
# Stress axis : x y z
#
# Youngs Moduli (GPa) = 51.93884 40.68914 114.29341
#
# Poissons Ratio (x) = 0.38708 0.65524
# Poissons Ratio (y) = 0.49410 0.35326
# Poissons Ratio (z) = 0.29776 0.12576
#
# Static dielectric constant tensor:
#      x y z
#    x 1.155940 0.000000 0.000000 
#    y 0.000000 1.627740 0.000000 
#    z 0.000000 0.000000 1.672430 
# 
# From -- ./inp_files/46657.got.cif
#   From: 2010.05.17/outbox.cif.g08.bks.cpg/sg66_24_cif.got.tgz:46657.got - 2010.06.03 17:51:23.
