data_PCOD9495350
_publ_section_title
;
Structure prediction by ZEFSAII (Michael W. Deem and Ramdas Pophale) SiO2 
 PCOD9495350
Probable space group: C C C M
;
_chemical_formula_sum "Si O2"
_cell_formula_units_Z 112
_cell_length_a 34.828943
_cell_length_b 5.165419
_cell_length_c 32.809328
_cell_angle_alpha 90.000000
_cell_angle_beta 90.000000
_cell_angle_gamma 90.000000
_cell_volume 5902.597717
_symmetry_space_group_name_H-M "C C C M"
_symmetry_group_IT_number 66
_symmetry_cell_setting 'orthorhombic'
loop_
_space_group_symop_operation_xyz
x,y,z
-x,-y,z
x,-y,1/2-z
-x,y,1/2-z
-x,-y,-z
x,y,-z
-x,y,1/2+z
x,-y,1/2+z
1/2+x,1/2+y,z
1/2-x,1/2-y,z
1/2+x,1/2-y,1/2-z
1/2-x,1/2+y,1/2-z
1/2-x,1/2-y,-z
1/2+x,1/2+y,-z
1/2-x,1/2+y,1/2+z
1/2+x,1/2-y,1/2+z
loop_
_atom_site_type_symbol
_atom_site_label
_atom_site_fract_x
_atom_site_fract_y
_atom_site_fract_z
Si Si1 0.648596 0.206197 0.088022
Si Si2 0.632902 0.304327 0.365363
Si Si3 0.275135 0.010214 0.953302
Si Si4 0.950935 0.831970 0.901596
Si Si5 0.523121 0.249922 0.687332
Si Si6 0.934156 0.316221 0.048357
Si Si7 0.890933 0.749353 0.777590
O O1 0.657181 0.482712 0.109373
O O2 0.685247 0.075567 0.067100
O O3 0.611569 0.224837 0.058053
O O4 0.637181 0.992732 0.121465
O O5 0.590160 0.383082 0.379634
O O6 0.635679 0.303263 0.316856
O O7 0.250000 0.750000 0.953287
O O8 0.250000 0.250000 0.935889
O O9 0.284158 0.085715 0.000000
O O10 0.976189 0.766423 0.862228
O O11 0.946373 0.587377 0.931385
O O12 0.957073 0.088102 0.928493
O O13 0.500000 0.500000 0.701708
O O14 0.565959 0.225080 0.704408
O O15 0.500000 0.000000 0.699784
O O16 0.940307 0.312928 0.000000
O O17 0.881794 0.500000 0.750000
O O18 0.889962 0.000000 0.750000
#
# Coordination Sequence:
#
# PCOD9495350 Si02
#       7
#    16  16  16  16  16  16  16
#     4  10  18  32  51  73 102 136 177 207 239 299
#     4   9  19  33  51  73  98 132 167 205 250 298
#     4  10  20  32  47  73 112 150 178 210 251 288
#     4   9  19  33  48  69  95 124 162 210 255 294
#     4  11  22  36  54  72  96 135 170 193 237 313
#     4  10  18  30  51  73  93 122 166 219 262 291
#     4  11  22  36  54  79 109 129 153 204 262 309
#
# _framework density 18.974696999999999
#
# number of rings (size 3 to 8) (size 9 to 14) (size 15 to 20)
#    0.000    2.000    0.000    4.286    0.000    6.286 
#    0.000    4.286    0.000    8.571    0.000    0.000 
#    0.000   32.000    0.000    0.000    0.000    0.000 
#
# Total GULP energy -312475.640452 kJ/mol
# GULP energy per Si atom -5579.922151 kJ/mol
# Density = 1.893151 g / cm^3
# Si number density = 18.974697 Si / 1000 Ang^3
#
#
#
# Elastic Constant Matrix: (Units=GPa)
#
#
# Indices 1 2 3 4 5 6 
#
# 1 32.7016 -0.4809 -2.2149 0.0000 0.0000 0.0000
# 2 -0.4809 116.2737 32.1486 0.0000 0.0000 0.0000
# 3 -2.2149 32.1486 115.2207 0.0000 0.0000 0.0000
# 4 0.0000 0.0000 0.0000 22.8186 0.0000 0.0000
# 5 0.0000 0.0000 0.0000 0.0000 14.1089 0.0000
# 6 0.0000 0.0000 0.0000 0.0000 0.0000 32.2604
#
#
#
# Elastic Compliance Matrix: (Units=1/GPa)
#
#
# Indices 1 2 3 4 5 6 
#
# 1 0.030620 -0.000039 0.000600 0.000000 0.000000 0.000000
# 2 -0.000039 0.009319 -0.002601 0.000000 0.000000 0.000000
# 3 0.000600 -0.002601 0.009416 0.000000 0.000000 0.000000
# 4 0.000000 0.000000 0.000000 0.043824 0.000000 0.000000
# 5 0.000000 0.000000 0.000000 0.000000 0.070877 0.000000
# 6 0.000000 0.000000 0.000000 0.000000 0.000000 0.030998
#
#
# Mechanical properties :
#
#
# Convention : Reuss Voigt Hill
#
# Bulk Modulus (GPa) = 22.08775 35.90017 28.99396
# Shear Modulus (GPa) = 23.33978 29.48713 26.41346
#
# Velocity S-wave (km/s) = 3.51101 3.94639 3.73505
# Velocity P-wave (km/s) = 5.30115 6.30289 5.82360
#
# Compressibility (1/GPa) = 0.04527396
#
# Stress axis : x y z
#
# Youngs Moduli (GPa) = 32.65887 107.30313 106.19930
#
# Poissons Ratio (x) = 0.00420 -0.06367
# Poissons Ratio (y) = 0.00128 0.27623
# Poissons Ratio (z) = -0.01958 0.27910
#
# Static dielectric constant tensor:
#      x y z
#    x 1.671700 0.000000 0.000000 
#    y 0.000000 1.659050 0.000000 
#    z 0.000000 0.000000 1.658090 
# 
# From -- ./inp_files/70697.got.cif
#   From: 2010.05.17/outbox.cif.g08.bks.cpg/sg66_36_cif.got.tgz:70697.got - 2010.06.03 17:51:23.
