data_PCOD9495912
_publ_section_title
;
Structure prediction by ZEFSAII (Michael W. Deem and Ramdas Pophale) SiO2 
 PCOD9495912
Probable space group: C C C M
;
_chemical_formula_sum "Si O2"
_cell_formula_units_Z 96
_cell_length_a 29.347508
_cell_length_b 27.084955
_cell_length_c 8.759887
_cell_angle_alpha 90.000000
_cell_angle_beta 90.000000
_cell_angle_gamma 90.000000
_cell_volume 6963.023357
_symmetry_space_group_name_H-M "C C C M"
_symmetry_group_IT_number 66
_symmetry_cell_setting 'orthorhombic'
loop_
_space_group_symop_operation_xyz
x,y,z
-x,-y,z
x,-y,1/2-z
-x,y,1/2-z
-x,-y,-z
x,y,-z
-x,y,1/2+z
x,-y,1/2+z
1/2+x,1/2+y,z
1/2-x,1/2-y,z
1/2+x,1/2-y,1/2-z
1/2-x,1/2+y,1/2-z
1/2-x,1/2-y,-z
1/2+x,1/2+y,-z
1/2-x,1/2+y,1/2+z
1/2+x,1/2-y,1/2+z
loop_
_atom_site_type_symbol
_atom_site_label
_atom_site_fract_x
_atom_site_fract_y
_atom_site_fract_z
Si Si1 0.305120 0.146694 0.183923
Si Si2 0.217725 0.201259 0.176092
Si Si3 0.356226 0.053730 0.317196
Si Si4 0.451929 0.212669 0.817777
Si Si5 0.640353 0.759742 0.319266
Si Si6 0.547495 0.102329 0.817192
O O1 0.252415 0.158235 0.224802
O O2 0.323819 0.095191 0.244672
O O3 0.335690 0.190462 0.255246
O O4 0.308729 0.149764 0.000000
O O5 0.250000 0.250000 0.178823
O O6 0.174125 0.215079 0.275485
O O7 0.203878 0.193757 0.000000
O O8 0.351303 0.053947 0.500000
O O9 0.408367 0.069767 0.281458
O O10 0.347077 0.000000 0.250000
O O11 0.500000 0.230428 0.750000
O O12 0.408756 0.243208 0.759213
O O13 0.445880 0.156704 0.754724
O O14 0.453606 0.211356 0.000000
O O15 0.635383 0.764123 0.500000
O O16 0.500000 0.082459 0.750000
O O17 0.543685 0.107424 0.000000
#
# Coordination Sequence:
#
# PCOD9495912 Si02
#       6
#    16  16  16  16  16  16
#     4  10  19  32  48  63  83 108 136 173 215 255
#     4   8  16  29  44  64  85 107 134 165 207 252
#     4  11  23  35  48  63  82 106 140 178 221 267
#     4  11  20  30  45  62  84 112 141 175 213 254
#     4  11  19  28  44  66  88 110 138 169 207 252
#     4  10  20  33  47  62  78 102 136 177 220 264
#
# _framework density 13.787114000000001
#
# number of rings (size 3 to 8) (size 9 to 14) (size 15 to 20)
#    0.000    1.833    1.667    6.500    0.000    6.000 
#    0.000    1.667    0.000    0.000    0.000    0.000 
#    0.000    0.000    0.000    0.000    0.000    0.833 
#
# Total GULP energy -267816.950623 kJ/mol
# GULP energy per Si atom -5579.519805 kJ/mol
# Density = 1.375573 g / cm^3
# Si number density = 13.787114 Si / 1000 Ang^3
#
#
#
# Elastic Constant Matrix: (Units=GPa)
#
#
# Indices 1 2 3 4 5 6 
#
# 1 99.1088 51.3103 50.5323 0.0000 0.0000 0.0000
# 2 51.3103 55.3743 31.1984 0.0000 0.0000 0.0000
# 3 50.5323 31.1984 83.4950 0.0000 0.0000 0.0000
# 4 0.0000 0.0000 0.0000 -17.7032 0.0000 0.0000
# 5 0.0000 0.0000 0.0000 0.0000 13.8031 0.0000
# 6 0.0000 0.0000 0.0000 0.0000 0.0000 17.4768
#
#
#
# Elastic Compliance Matrix: (Units=1/GPa)
#
#
# Indices 1 2 3 4 5 6 
#
# 1 0.022487 -0.016680 -0.007377 0.000000 0.000000 0.000000
# 2 -0.016680 0.035248 -0.003075 0.000000 0.000000 0.000000
# 3 -0.007377 -0.003075 0.017590 0.000000 0.000000 0.000000
# 4 0.000000 0.000000 0.000000 -0.056487 0.000000 0.000000
# 5 0.000000 0.000000 0.000000 0.000000 0.072448 0.000000
# 6 0.000000 0.000000 0.000000 0.000000 0.000000 0.057219
#
#
# Mechanical properties :
#
#
# Convention : Reuss Voigt Hill
#
# Bulk Modulus (GPa) = 47.48284 56.00667 51.74475
# Shear Modulus (GPa) = 23.83351 9.71114 16.77232
#
# Velocity S-wave (km/s) = 4.16225 2.65686 3.49165
# Velocity P-wave (km/s) = 7.59038 7.07973 7.33950
#
# Compressibility (1/GPa) = 0.02106024
#
# Stress axis : x y z
#
# Youngs Moduli (GPa) = 44.47080 28.37058 56.84963
#
# Poissons Ratio (x) = 0.47323 0.41935
# Poissons Ratio (y) = 0.74179 0.17483
# Poissons Ratio (z) = 0.32804 0.08725
#
# Static dielectric constant tensor:
#      x y z
#    x 1.475370 0.000000 0.000000 
#    y 0.000000 1.429440 0.000000 
#    z 0.000000 0.000000 1.458230 
# 
# From -- ./inp_files/10638.got.cif
#   From: 2010.05.17/outbox.cif.g08.bks.cpg/sg66_6_cif.got.tgz:10638.got - 2010.06.03 17:51:23.
