data_PCOD9495869
_publ_section_title
;
Structure prediction by ZEFSAII (Michael W. Deem and Ramdas Pophale) SiO2 
 PCOD9495869
Probable space group: C C C M
;
_chemical_formula_sum "Si O2"
_cell_formula_units_Z 96
_cell_length_a 22.145644
_cell_length_b 12.739825
_cell_length_c 18.439426
_cell_angle_alpha 90.000000
_cell_angle_beta 90.000000
_cell_angle_gamma 90.000000
_cell_volume 5202.345297
_symmetry_space_group_name_H-M "C C C M"
_symmetry_group_IT_number 66
_symmetry_cell_setting 'orthorhombic'
loop_
_space_group_symop_operation_xyz
x,y,z
-x,-y,z
x,-y,1/2-z
-x,y,1/2-z
-x,-y,-z
x,y,-z
-x,y,1/2+z
x,-y,1/2+z
1/2+x,1/2+y,z
1/2-x,1/2-y,z
1/2+x,1/2-y,1/2-z
1/2-x,1/2+y,1/2-z
1/2-x,1/2-y,-z
1/2+x,1/2+y,-z
1/2-x,1/2+y,1/2+z
1/2+x,1/2-y,1/2+z
loop_
_atom_site_type_symbol
_atom_site_label
_atom_site_fract_x
_atom_site_fract_y
_atom_site_fract_z
Si Si1 0.722974 0.631045 0.583609
Si Si2 0.067026 0.893630 0.715892
Si Si3 0.940620 0.564777 0.084598
Si Si4 0.167533 0.538390 0.167565
Si Si5 0.113839 0.772204 0.836365
Si Si6 0.014200 0.802788 0.583518
O O1 0.713608 0.599344 0.500000
O O2 0.750000 0.750000 0.582117
O O3 0.769780 0.554614 0.624281
O O4 0.661661 0.648747 0.627710
O O5 0.103877 0.800504 0.752276
O O6 0.054804 0.882051 0.631160
O O7 0.000000 0.885794 0.750000
O O8 0.092554 0.000000 0.750000
O O9 0.880977 0.536836 0.128938
O O10 0.955868 0.687578 0.087801
O O11 0.000000 0.500000 0.110457
O O12 0.931421 0.534497 0.000000
O O13 0.176929 0.500000 0.250000
O O14 0.136713 0.653434 0.161572
O O15 0.051542 0.788265 0.880085
O O16 0.008716 0.833934 0.500000
#
# Coordination Sequence:
#
# PCOD9495869 Si02
#       6
#    16  16  16  16  16  16
#     4   9  19  34  52  72  98 136 184 234 275 313
#     4   9  19  35  51  71 102 137 171 224 282 326
#     4  10  19  31  50  79 114 147 176 219 283 351
#     4  11  21  32  50  79 113 147 183 226 283 350
#     4  10  19  34  54  77 105 143 189 236 281 337
#     4  10  19  33  55  82 112 146 186 229 286 356
#
# _framework density 18.453216999999999
#
# number of rings (size 3 to 8) (size 9 to 14) (size 15 to 20)
#    0.000    2.167    1.667    2.000    0.000    2.333 
#    0.000    7.500    0.000    0.000    0.000    0.000 
#    0.000   14.000    0.000    0.000    0.000    0.000 
#
# Total GULP energy -267547.604491 kJ/mol
# GULP energy per Si atom -5573.908427 kJ/mol
# Density = 1.841122 g / cm^3
# Si number density = 18.453217 Si / 1000 Ang^3
#
#
#
# Elastic Constant Matrix: (Units=GPa)
#
#
# Indices 1 2 3 4 5 6 
#
# 1 79.3991 23.5490 52.0456 0.0000 0.0000 0.0000
# 2 23.5490 33.4200 24.2317 0.0000 0.0000 0.0000
# 3 52.0456 24.2317 137.5982 0.0000 0.0000 0.0000
# 4 0.0000 0.0000 0.0000 21.4871 0.0000 0.0000
# 5 0.0000 0.0000 0.0000 0.0000 16.7187 0.0000
# 6 0.0000 0.0000 0.0000 0.0000 0.0000 16.1763
#
#
#
# Elastic Compliance Matrix: (Units=1/GPa)
#
#
# Indices 1 2 3 4 5 6 
#
# 1 0.019005 -0.009377 -0.005537 0.000000 0.000000 0.000000
# 2 -0.009377 0.038929 -0.003309 0.000000 0.000000 0.000000
# 3 -0.005537 -0.003309 0.009945 0.000000 0.000000 0.000000
# 4 0.000000 0.000000 0.000000 0.046540 0.000000 0.000000
# 5 0.000000 0.000000 0.000000 0.000000 0.059813 0.000000
# 6 0.000000 0.000000 0.000000 0.000000 0.000000 0.061819
#
#
# Mechanical properties :
#
#
# Convention : Reuss Voigt Hill
#
# Bulk Modulus (GPa) = 31.81411 50.00779 40.91095
# Shear Modulus (GPa) = 17.66944 20.91580 19.29262
#
# Velocity S-wave (km/s) = 3.09775 3.37033 3.23691
# Velocity P-wave (km/s) = 5.48385 6.50416 6.01567
#
# Compressibility (1/GPa) = 0.03143259
#
# Stress axis : x y z
#
# Youngs Moduli (GPa) = 52.61651 25.68799 100.55617
#
# Poissons Ratio (x) = 0.24088 0.55681
# Poissons Ratio (y) = 0.49339 0.33271
# Poissons Ratio (z) = 0.29136 0.08499
#
# Static dielectric constant tensor:
#      x y z
#    x 1.626920 0.000000 0.000000 
#    y 0.000000 1.788710 0.000000 
#    z 0.000000 0.000000 1.649640 
# 
# From -- ./inp_files/28420.got.cif
#   From: 2010.05.17/outbox.cif.g08.bks.cpg/sg66_15_cif.got.tgz:28420.got - 2010.06.03 17:51:23.
