data_PCOD9495471
_publ_section_title
;
Structure prediction by ZEFSAII (Michael W. Deem and Ramdas Pophale) SiO2 
 PCOD9495471
Probable space group: C C C M
;
_chemical_formula_sum "Si O2"
_cell_formula_units_Z 96
_cell_length_a 11.104437
_cell_length_b 27.516159
_cell_length_c 18.094826
_cell_angle_alpha 90.000000
_cell_angle_beta 90.000000
_cell_angle_gamma 90.000000
_cell_volume 5528.900396
_symmetry_space_group_name_H-M "C C C M"
_symmetry_group_IT_number 66
_symmetry_cell_setting 'orthorhombic'
loop_
_space_group_symop_operation_xyz
x,y,z
-x,-y,z
x,-y,1/2-z
-x,y,1/2-z
-x,-y,-z
x,y,-z
-x,y,1/2+z
x,-y,1/2+z
1/2+x,1/2+y,z
1/2-x,1/2-y,z
1/2+x,1/2-y,1/2-z
1/2-x,1/2+y,1/2-z
1/2-x,1/2-y,-z
1/2+x,1/2+y,-z
1/2-x,1/2+y,1/2+z
1/2+x,1/2-y,1/2+z
loop_
_atom_site_type_symbol
_atom_site_label
_atom_site_fract_x
_atom_site_fract_y
_atom_site_fract_z
Si Si1 0.102250 0.959066 0.915586
Si Si2 0.966796 0.571245 0.088293
Si Si3 0.170863 0.495083 0.663253
Si Si4 0.110480 0.240965 0.307490
Si Si5 0.633358 0.350250 0.915034
Si Si6 0.410872 0.168019 0.585153
O O1 0.200104 0.974308 0.856090
O O2 0.070471 0.902417 0.902550
O O3 0.153423 0.959922 0.000000
O O4 0.000000 0.000000 0.913461
O O5 0.849421 0.546911 0.123422
O O6 0.074963 0.541373 0.126223
O O7 0.990166 0.627574 0.103900
O O8 0.969813 0.564294 0.000000
O O9 0.149920 0.500000 0.750000
O O10 0.250000 0.250000 0.279602
O O11 0.106074 0.191684 0.356249
O O12 0.088311 0.286186 0.362097
O O13 0.000000 0.239820 0.250000
O O14 0.778660 0.356955 0.910603
O O15 0.607782 0.334672 0.000000
O O16 0.426570 0.183194 0.500000
#
# Coordination Sequence:
#
# PCOD9495471 Si02
#       6
#    16  16  16  16  16  16
#     4  10  20  37  57  76 102 143 191 229 262 313
#     4  10  18  32  54  77 105 141 180 222 266 314
#     4  11  21  32  47  76 112 144 176 215 275 327
#     4  10  21  37  57  85 114 143 178 224 287 340
#     4   9  17  35  59  80 103 140 194 234 258 307
#     4   9  17  32  58  84 104 135 185 233 265 313
#
# _framework density 17.363308
#
# number of rings (size 3 to 8) (size 9 to 14) (size 15 to 20)
#    0.000    2.167    1.667    3.500    0.000    3.667 
#    3.000    0.000    0.000    4.000    0.000    0.000 
#    0.000    0.000    0.000    0.000    0.000    0.000 
#
# Total GULP energy -267406.425436 kJ/mol
# GULP energy per Si atom -5570.967197 kJ/mol
# Density = 1.732379 g / cm^3
# Si number density = 17.363308 Si / 1000 Ang^3
#
#
#
# Elastic Constant Matrix: (Units=GPa)
#
#
# Indices 1 2 3 4 5 6 
#
# 1 44.8251 37.4474 37.3456 0.0000 0.0000 0.0000
# 2 37.4474 109.7606 55.5385 0.0000 0.0000 0.0000
# 3 37.3456 55.5385 81.8519 0.0000 0.0000 0.0000
# 4 0.0000 0.0000 0.0000 -28.2133 0.0000 0.0000
# 5 0.0000 0.0000 0.0000 0.0000 -8.3760 0.0000
# 6 0.0000 0.0000 0.0000 0.0000 0.0000 25.6467
#
#
#
# Elastic Compliance Matrix: (Units=1/GPa)
#
#
# Indices 1 2 3 4 5 6 
#
# 1 0.038832 -0.006523 -0.013291 0.000000 0.000000 0.000000
# 2 -0.006523 0.014970 -0.007181 0.000000 0.000000 0.000000
# 3 -0.013291 -0.007181 0.023154 0.000000 0.000000 0.000000
# 4 0.000000 0.000000 0.000000 -0.035444 0.000000 0.000000
# 5 0.000000 0.000000 0.000000 0.000000 -0.119388 0.000000
# 6 0.000000 0.000000 0.000000 0.000000 0.000000 0.038991
#
#
# Mechanical properties :
#
#
# Convention : Reuss Voigt Hill
#
# Bulk Modulus (GPa) = 43.54512 55.23338 49.38925
# Shear Modulus (GPa) = 219.67505 4.88520 112.28013
#
# Velocity S-wave (km/s) = 11.26017 1.67918 8.05019
# Velocity P-wave (km/s) = 13.93516 5.96984 10.71978
#
# Compressibility (1/GPa) = 0.02296469
#
# Stress axis : x y z
#
# Youngs Moduli (GPa) = 25.75201 66.80065 43.18884
#
# Poissons Ratio (x) = 0.43574 0.57404
# Poissons Ratio (y) = 0.16798 0.31015
# Poissons Ratio (z) = 0.34228 0.47971
#
# Static dielectric constant tensor:
#      x y z
#    x 1.611040 0.000000 0.000000 
#    y 0.000000 1.604850 0.000000 
#    z 0.000000 0.000000 1.578080 
# 
# From -- ./inp_files/38977.got.cif
#   From: 2010.05.17/outbox.cif.g08.bks.cpg/sg66_20_cif.got.tgz:38977.got - 2010.06.03 17:51:23.
