data_PCOD9495473
_publ_section_title
;
Structure prediction by ZEFSAII (Michael W. Deem and Ramdas Pophale) SiO2 
 PCOD9495473
Probable space group: C C C M
;
_chemical_formula_sum "Si O2"
_cell_formula_units_Z 80
_cell_length_a 14.856324
_cell_length_b 9.326106
_cell_length_c 25.628147
_cell_angle_alpha 90.000000
_cell_angle_beta 90.000000
_cell_angle_gamma 90.000000
_cell_volume 3550.822115
_symmetry_space_group_name_H-M "C C C M"
_symmetry_group_IT_number 66
_symmetry_cell_setting 'orthorhombic'
loop_
_space_group_symop_operation_xyz
x,y,z
-x,-y,z
x,-y,1/2-z
-x,y,1/2-z
-x,-y,-z
x,y,-z
-x,y,1/2+z
x,-y,1/2+z
1/2+x,1/2+y,z
1/2-x,1/2-y,z
1/2+x,1/2-y,1/2-z
1/2-x,1/2+y,1/2-z
1/2-x,1/2-y,-z
1/2+x,1/2+y,-z
1/2-x,1/2+y,1/2+z
1/2+x,1/2-y,1/2+z
loop_
_atom_site_type_symbol
_atom_site_label
_atom_site_fract_x
_atom_site_fract_y
_atom_site_fract_z
Si Si1 0.406945 0.081679 0.200831
Si Si2 0.228910 0.416487 0.109854
Si Si3 0.652169 0.327082 0.116820
Si Si4 0.151773 0.169938 0.735856
Si Si5 0.649260 0.678511 0.500000
Si Si6 0.765106 0.580834 0.000000
O O1 0.342343 0.053961 0.153440
O O2 0.406804 0.245541 0.220519
O O3 0.500000 0.000000 0.191388
O O4 0.366304 0.000000 0.250000
O O5 0.250000 0.250000 0.111259
O O6 0.319751 0.505715 0.116653
O O7 0.188174 0.457176 0.053716
O O8 0.750000 0.250000 0.116000
O O9 0.616403 0.303835 0.175953
O O10 0.609911 0.292876 0.058947
O O11 0.250000 0.250000 0.738893
O O12 0.155486 0.000000 0.750000
O O13 0.750000 0.750000 0.500000
O O14 0.672396 0.508374 0.500000
O O15 0.750000 0.750000 0.000000
#
# Coordination Sequence:
#
# PCOD9495473 Si02
#       6
#    16  16  16  16   8   8
#     4  11  23  37  51  73 111 155 195 240 288 341
#     4  10  18  32  54  80 109 142 183 233 289 347
#     4   9  16  26  46  74 103 132 169 222 278 334
#     4  11  20  33  57  86 110 142 191 244 297 350
#     4   8  14  24  38  67 105 132 158 208 281 338
#     4   8  16  28  47  77 110 138 170 226 293 344
#
# _framework density 22.529995
#
# number of rings (size 3 to 8) (size 9 to 14) (size 15 to 20)
#    0.000    2.200    0.000    6.000    0.000    0.000 
#    0.000    2.500    0.000    0.000    0.000    2.100 
#    0.000    0.000    0.000  175.400    0.000    4.000 
#
# Total GULP energy -222715.540140 kJ/mol
# GULP energy per Si atom -5567.888504 kJ/mol
# Density = 2.247872 g / cm^3
# Si number density = 22.529995 Si / 1000 Ang^3
#
#
#
# Elastic Constant Matrix: (Units=GPa)
#
#
# Indices 1 2 3 4 5 6 
#
# 1 40.2012 9.3827 46.1410 0.0000 0.0000 0.0000
# 2 9.3827 109.5974 -17.4436 0.0000 0.0000 0.0000
# 3 46.1410 -17.4436 227.9238 0.0000 0.0000 0.0000
# 4 0.0000 0.0000 0.0000 28.2304 0.0000 0.0000
# 5 0.0000 0.0000 0.0000 0.0000 28.1785 0.0000
# 6 0.0000 0.0000 0.0000 0.0000 0.0000 10.8977
#
#
#
# Elastic Compliance Matrix: (Units=1/GPa)
#
#
# Indices 1 2 3 4 5 6 
#
# 1 0.034106 -0.004068 -0.007216 0.000000 0.000000 0.000000
# 2 -0.004068 0.009722 0.001568 0.000000 0.000000 0.000000
# 3 -0.007216 0.001568 0.005968 0.000000 0.000000 0.000000
# 4 0.000000 0.000000 0.000000 0.035423 0.000000 0.000000
# 5 0.000000 0.000000 0.000000 0.000000 0.035488 0.000000
# 6 0.000000 0.000000 0.000000 0.000000 0.000000 0.091763
#
#
# Mechanical properties :
#
#
# Convention : Reuss Voigt Hill
#
# Bulk Modulus (GPa) = 32.93418 50.43142 41.68280
# Shear Modulus (GPa) = 20.65903 36.10412 28.38157
#
# Velocity S-wave (km/s) = 3.03141 4.00746 3.55311
# Velocity P-wave (km/s) = 5.18674 6.62160 5.94760
#
# Compressibility (1/GPa) = 0.03036359
#
# Stress axis : x y z
#
# Youngs Moduli (GPa) = 29.31993 102.85835 167.55478
#
# Poissons Ratio (x) = 0.41847 1.20906
# Poissons Ratio (y) = 0.11928 -0.26267
# Poissons Ratio (z) = 0.21157 -0.16125
#
# Static dielectric constant tensor:
#      x y z
#    x 1.811920 0.000000 0.000000 
#    y 0.000000 2.081030 0.000000 
#    z 0.000000 0.000000 1.948120 
# 
# From -- ./inp_files/65098.got.cif
#   From: 2010.05.17/outbox.cif.g08.bks.cpg/sg66_33_cif.got.tgz:65098.got - 2010.06.03 17:51:23.
