data_PCOD9495229
_publ_section_title
;
Structure prediction by ZEFSAII (Michael W. Deem and Ramdas Pophale) SiO2 
 PCOD9495229
Probable space group: C C C M
;
_chemical_formula_sum "Si O2"
_cell_formula_units_Z 128
_cell_length_a 17.811667
_cell_length_b 23.608034
_cell_length_c 15.768087
_cell_angle_alpha 90.000000
_cell_angle_beta 90.000000
_cell_angle_gamma 90.000000
_cell_volume 6630.455987
_symmetry_space_group_name_H-M "C C C M"
_symmetry_group_IT_number 66
_symmetry_cell_setting 'orthorhombic'
loop_
_space_group_symop_operation_xyz
x,y,z
-x,-y,z
x,-y,1/2-z
-x,y,1/2-z
-x,-y,-z
x,y,-z
-x,y,1/2+z
x,-y,1/2+z
1/2+x,1/2+y,z
1/2-x,1/2-y,z
1/2+x,1/2-y,1/2-z
1/2-x,1/2+y,1/2-z
1/2-x,1/2-y,-z
1/2+x,1/2+y,-z
1/2-x,1/2+y,1/2+z
1/2+x,1/2-y,1/2+z
loop_
_atom_site_type_symbol
_atom_site_label
_atom_site_fract_x
_atom_site_fract_y
_atom_site_fract_z
Si Si1 0.561955 0.364045 0.899771
Si Si2 0.130125 0.746852 0.603165
Si Si3 0.218691 0.030970 0.836514
Si Si4 0.758179 0.155982 0.602979
Si Si5 0.459083 0.760898 0.896002
Si Si6 0.301858 0.195746 0.396060
Si Si7 0.785875 0.087014 0.098426
Si Si8 0.542044 0.448070 0.659805
O O1 0.566502 0.301242 0.865844
O O2 0.629917 0.402820 0.865875
O O3 0.480958 0.390636 0.884913
O O4 0.570671 0.359643 0.000000
O O5 0.128031 0.749986 0.500000
O O6 0.169330 0.806152 0.630401
O O7 0.187182 0.695912 0.623982
O O8 0.045435 0.733526 0.632438
O O9 0.248389 0.093273 0.857871
O O10 0.128899 0.040176 0.834508
O O11 0.242301 0.000000 0.750000
O O12 0.235600 0.978583 0.898240
O O13 0.761846 0.149683 0.500000
O O14 0.389049 0.799675 0.869681
O O15 0.461123 0.762403 0.000000
O O16 0.302111 0.197305 0.500000
O O17 0.250000 0.250000 0.370744
O O18 0.266273 0.136622 0.364600
O O19 0.788848 0.101276 0.000000
O O20 0.500000 0.500000 0.613398
O O21 0.500000 0.443782 0.750000
#
# Coordination Sequence:
#
# PCOD9495229 Si02
#       8
#    16  16  16  16  16  16  16  16
#     4  10  18  27  45  72  97 125 164 201 232 284
#     4   8  15  30  52  78 102 126 161 211 263 303
#     4  12  22  34  50  67  98 139 168 199 248 304
#     4   9  18  33  54  78 103 128 164 213 257 298
#     4   9  15  25  46  74 100 127 159 200 256 301
#     4   9  15  26  44  68 102 135 160 199 247 286
#     4  10  19  30  46  70  99 130 168 203 237 288
#     4  11  20  34  43  59  95 133 162 190 234 289
#
# _framework density 19.304856000000001
#
# number of rings (size 3 to 8) (size 9 to 14) (size 15 to 20)
#    0.000    2.250    3.750    1.875    0.000    2.250 
#    0.000    0.000    2.750    2.250    0.000    5.250 
#    0.000    0.000    0.000    0.000    0.000    0.000 
#
# Total GULP energy -356374.764175 kJ/mol
# GULP energy per Si atom -5568.355690 kJ/mol
# Density = 1.926092 g / cm^3
# Si number density = 19.304856 Si / 1000 Ang^3
#
#
#
# Elastic Constant Matrix: (Units=GPa)
#
#
# Indices 1 2 3 4 5 6 
#
# 1 112.4659 63.7256 14.8935 0.0000 0.0000 0.0000
# 2 63.7256 151.8861 19.3381 0.0000 0.0000 0.0000
# 3 14.8935 19.3381 11.3392 0.0000 0.0000 0.0000
# 4 0.0000 0.0000 0.0000 32.8375 0.0000 0.0000
# 5 0.0000 0.0000 0.0000 0.0000 9.5535 0.0000
# 6 0.0000 0.0000 0.0000 0.0000 0.0000 29.9872
#
#
#
# Elastic Compliance Matrix: (Units=1/GPa)
#
#
# Indices 1 2 3 4 5 6 
#
# 1 0.012415 -0.004001 -0.009482 0.000000 0.000000 0.000000
# 2 -0.004001 0.009700 -0.011286 0.000000 0.000000 0.000000
# 3 -0.009482 -0.011286 0.119891 0.000000 0.000000 0.000000
# 4 0.000000 0.000000 0.000000 0.030453 0.000000 0.000000
# 5 0.000000 0.000000 0.000000 0.000000 0.104673 0.000000
# 6 0.000000 0.000000 0.000000 0.000000 0.000000 0.033348
#
#
# Mechanical properties :
#
#
# Convention : Reuss Voigt Hill
#
# Bulk Modulus (GPa) = 10.81472 52.40064 31.60768
# Shear Modulus (GPa) = 12.79293 26.32458 19.55875
#
# Velocity S-wave (km/s) = 2.57705 3.69674 3.18646
# Velocity P-wave (km/s) = 3.80383 6.73972 5.47234
#
# Compressibility (1/GPa) = 0.09246654
#
# Stress axis : x y z
#
# Youngs Moduli (GPa) = 80.55071 103.09574 8.34088
#
# Poissons Ratio (x) = 0.41253 0.07909
# Poissons Ratio (y) = 0.32232 0.09414
# Poissons Ratio (z) = 0.76376 1.16358
#
# Static dielectric constant tensor:
#      x y z
#    x 1.693480 0.000000 0.000000 
#    y 0.000000 1.732580 0.000000 
#    z 0.000000 0.000000 1.938190 
# 
# From -- ./inp_files/51315.got.cif
#   From: 2010.05.17/outbox.cif.g08.bks.cpg/sg66_26_cif.got.tgz:51315.got - 2010.06.03 17:51:23.
