data_PCOD9495568
_publ_section_title
;
Structure prediction by ZEFSAII (Michael W. Deem and Ramdas Pophale) SiO2 
 PCOD9495568
Probable space group: C C C M
;
_chemical_formula_sum "Si O2"
_cell_formula_units_Z 112
_cell_length_a 27.406397
_cell_length_b 6.923176
_cell_length_c 28.312831
_cell_angle_alpha 90.000000
_cell_angle_beta 90.000000
_cell_angle_gamma 90.000000
_cell_volume 5372.057017
_symmetry_space_group_name_H-M "C C C M"
_symmetry_group_IT_number 66
_symmetry_cell_setting 'orthorhombic'
loop_
_space_group_symop_operation_xyz
x,y,z
-x,-y,z
x,-y,1/2-z
-x,y,1/2-z
-x,-y,-z
x,y,-z
-x,y,1/2+z
x,-y,1/2+z
1/2+x,1/2+y,z
1/2-x,1/2-y,z
1/2+x,1/2-y,1/2-z
1/2-x,1/2+y,1/2-z
1/2-x,1/2-y,-z
1/2+x,1/2+y,-z
1/2-x,1/2+y,1/2+z
1/2+x,1/2-y,1/2+z
loop_
_atom_site_type_symbol
_atom_site_label
_atom_site_fract_x
_atom_site_fract_y
_atom_site_fract_z
Si Si1 0.610711 0.565108 0.803142
Si Si2 0.694515 0.822993 0.157489
Si Si3 0.954447 0.143940 0.445604
Si Si4 0.807006 0.790583 0.051664
Si Si5 0.047950 0.376987 0.148567
Si Si6 0.363150 0.836633 0.852144
Si Si7 0.864402 0.151127 0.948163
O O1 0.601917 0.500000 0.750000
O O2 0.657999 0.702994 0.809328
O O3 0.564125 0.682011 0.823788
O O4 0.625063 0.372407 0.831528
O O5 0.750000 0.750000 0.161649
O O6 0.676747 0.786546 0.102917
O O7 0.684862 0.050517 0.165486
O O8 0.955718 0.214183 0.500000
O O9 0.955343 0.308775 0.406087
O O10 0.906893 0.007983 0.439957
O O11 0.000000 0.000000 0.438590
O O12 0.750000 0.750000 0.050125
O O13 0.816322 0.019605 0.053228
O O14 0.828014 0.725953 0.000000
O O15 0.092102 0.522512 0.157963
O O16 0.000000 0.500000 0.161327
O O17 0.361736 0.806493 0.908093
O O18 0.871955 0.234144 0.000000
#
# Coordination Sequence:
#
# PCOD9495568 Si02
#       7
#    16  16  16  16  16  16  16
#     4  11  25  48  68  92 131 167 214 285 333 384
#     4  10  22  41  65  97 129 171 222 269 336 395
#     4  10  20  36  62  94 134 172 211 258 312 385
#     4   9  17  33  57  88 131 170 212 263 310 380
#     4  11  24  40  69  98 130 171 215 261 327 394
#     4  11  22  41  66  92 130 171 211 272 329 384
#     4  10  18  33  59  90 128 175 215 253 318 385
#
# _framework density 20.848624999999998
#
# number of rings (size 3 to 8) (size 9 to 14) (size 15 to 20)
#    0.000    1.714    2.857    1.714    0.000    4.286 
#    2.571    2.143    0.000    4.286    0.000    0.000 
#    0.000    0.000    0.000    0.000    0.000    0.000 
#
# Total GULP energy -312378.003790 kJ/mol
# GULP energy per Si atom -5578.178639 kJ/mol
# Density = 2.080117 g / cm^3
# Si number density = 20.848625 Si / 1000 Ang^3
#
#
#
# Elastic Constant Matrix: (Units=GPa)
#
#
# Indices 1 2 3 4 5 6 
#
# 1 101.4103 44.4780 23.0251 0.0000 0.0000 0.0000
# 2 44.4780 108.8537 34.7786 0.0000 0.0000 0.0000
# 3 23.0251 34.7786 79.2966 0.0000 0.0000 0.0000
# 4 0.0000 0.0000 0.0000 13.4525 0.0000 0.0000
# 5 0.0000 0.0000 0.0000 0.0000 16.8596 0.0000
# 6 0.0000 0.0000 0.0000 0.0000 0.0000 27.9376
#
#
#
# Elastic Compliance Matrix: (Units=1/GPa)
#
#
# Indices 1 2 3 4 5 6 
#
# 1 0.012181 -0.004474 -0.001575 0.000000 0.000000 0.000000
# 2 -0.004474 0.012327 -0.004107 0.000000 0.000000 0.000000
# 3 -0.001575 -0.004107 0.014870 0.000000 0.000000 0.000000
# 4 0.000000 0.000000 0.000000 0.074336 0.000000 0.000000
# 5 0.000000 0.000000 0.000000 0.000000 0.059313 0.000000
# 6 0.000000 0.000000 0.000000 0.000000 0.000000 0.035794
#
#
# Mechanical properties :
#
#
# Convention : Reuss Voigt Hill
#
# Bulk Modulus (GPa) = 52.45142 54.90267 53.67705
# Shear Modulus (GPa) = 21.23253 24.13519 22.68386
#
# Velocity S-wave (km/s) = 3.19472 3.40610 3.30210
# Velocity P-wave (km/s) = 6.23066 6.46992 6.35142
#
# Compressibility (1/GPa) = 0.01906526
#
# Stress axis : x y z
#
# Youngs Moduli (GPa) = 82.09694 81.12246 67.25147
#
# Poissons Ratio (x) = 0.36294 0.10590
# Poissons Ratio (y) = 0.36730 0.27623
# Poissons Ratio (z) = 0.12927 0.33320
#
# Static dielectric constant tensor:
#      x y z
#    x 1.735340 0.000000 0.000000 
#    y 0.000000 1.750120 0.000000 
#    z 0.000000 0.000000 1.807020 
# 
# From -- ./inp_files/70700.got.cif
#   From: 2010.05.17/outbox.cif.g08.bks.cpg/sg66_36_cif.got.tgz:70700.got - 2010.06.03 17:51:23.
