data_PCOD9495218
_publ_section_title
;
Structure prediction by ZEFSAII (Michael W. Deem and Ramdas Pophale) SiO2 
 PCOD9495218
Probable space group: C C C M
;
_chemical_formula_sum "Si O2"
_cell_formula_units_Z 80
_cell_length_a 16.379028
_cell_length_b 19.391468
_cell_length_c 14.130402
_cell_angle_alpha 90.000000
_cell_angle_beta 90.000000
_cell_angle_gamma 90.000000
_cell_volume 4488.004985
_symmetry_space_group_name_H-M "C C C M"
_symmetry_group_IT_number 66
_symmetry_cell_setting 'orthorhombic'
loop_
_space_group_symop_operation_xyz
x,y,z
-x,-y,z
x,-y,1/2-z
-x,y,1/2-z
-x,-y,-z
x,y,-z
-x,y,1/2+z
x,-y,1/2+z
1/2+x,1/2+y,z
1/2-x,1/2-y,z
1/2+x,1/2-y,1/2-z
1/2-x,1/2+y,1/2-z
1/2-x,1/2-y,-z
1/2+x,1/2+y,-z
1/2-x,1/2+y,1/2+z
1/2+x,1/2-y,1/2+z
loop_
_atom_site_type_symbol
_atom_site_label
_atom_site_fract_x
_atom_site_fract_y
_atom_site_fract_z
Si Si1 0.274455 0.147264 0.114270
Si Si2 0.033253 0.391252 0.350216
Si Si3 0.624298 0.980049 0.892586
Si Si4 0.877513 0.775964 0.811228
Si Si5 0.442421 0.260892 0.394387
O O1 0.303564 0.070269 0.138203
O O2 0.184863 0.167129 0.149508
O O3 0.335165 0.202946 0.161902
O O4 0.280253 0.155229 0.000000
O O5 0.100356 0.450969 0.337082
O O6 0.062520 0.322502 0.399302
O O7 0.000000 0.366548 0.250000
O O8 0.956177 0.430969 0.394855
O O9 0.639710 0.003335 0.000000
O O10 0.890071 0.781962 0.698000
O O11 0.964207 0.778332 0.864735
O O12 0.423138 0.287955 0.500000
#
# Coordination Sequence:
#
# PCOD9495218 Si02
#       5
#    16  16  16  16  16
#     4  10  18  31  47  64  91 131 177 220 257 299
#     4  11  18  28  42  68 102 134 167 203 244 308
#     4  10  18  26  41  63  90 130 171 207 252 298
#     4  10  19  30  46  68  92 128 178 215 258 305
#     4  11  19  31  47  70 100 132 171 220 260 310
#
# _framework density 17.825292000000001
#
# number of rings (size 3 to 8) (size 9 to 14) (size 15 to 20)
#    0.000    1.600    4.000    6.000    0.000    0.000 
#    0.000    2.000    0.000    0.000    0.000    4.200 
#    0.000    0.000    0.000  129.600    0.800  908.800 
#
# Total GULP energy -223053.035581 kJ/mol
# GULP energy per Si atom -5576.325890 kJ/mol
# Density = 1.778472 g / cm^3
# Si number density = 17.825292 Si / 1000 Ang^3
#
#
#
# Elastic Constant Matrix: (Units=GPa)
#
#
# Indices 1 2 3 4 5 6 
#
# 1 73.0286 31.9649 30.0373 0.0000 0.0000 0.0000
# 2 31.9649 46.1407 10.1866 0.0000 0.0000 0.0000
# 3 30.0373 10.1866 132.6121 0.0000 0.0000 0.0000
# 4 0.0000 0.0000 0.0000 8.3434 0.0000 0.0000
# 5 0.0000 0.0000 0.0000 0.0000 21.1292 0.0000
# 6 0.0000 0.0000 0.0000 0.0000 0.0000 32.9649
#
#
#
# Elastic Compliance Matrix: (Units=1/GPa)
#
#
# Indices 1 2 3 4 5 6 
#
# 1 0.021352 -0.013961 -0.003764 0.000000 0.000000 0.000000
# 2 -0.013961 0.031175 0.000768 0.000000 0.000000 0.000000
# 3 -0.003764 0.000768 0.008334 0.000000 0.000000 0.000000
# 4 0.000000 0.000000 0.000000 0.119856 0.000000 0.000000
# 5 0.000000 0.000000 0.000000 0.000000 0.047328 0.000000
# 6 0.000000 0.000000 0.000000 0.000000 0.000000 0.030335
#
#
# Mechanical properties :
#
#
# Convention : Reuss Voigt Hill
#
# Bulk Modulus (GPa) = 37.11032 44.01765 40.56398
# Shear Modulus (GPa) = 16.59595 24.46034 20.52814
#
# Velocity S-wave (km/s) = 3.05460 3.70838 3.39725
# Velocity P-wave (km/s) = 5.77103 6.56381 6.18015
#
# Compressibility (1/GPa) = 0.02694669
#
# Stress axis : x y z
#
# Youngs Moduli (GPa) = 46.83335 32.07668 119.98482
#
# Poissons Ratio (x) = 0.44783 0.45162
# Poissons Ratio (y) = 0.65385 -0.09209
# Poissons Ratio (z) = 0.17628 -0.02462
#
# Static dielectric constant tensor:
#      x y z
#    x 1.619030 0.000000 0.000000 
#    y 0.000000 1.609290 0.000000 
#    z 0.000000 0.000000 1.682720 
# 
# From -- ./inp_files/30099.got.cif
#   From: 2010.05.17/outbox.cif.g08.bks.cpg/sg66_16_cif.got.tgz:30099.got - 2010.06.03 17:51:23.
