data_PCOD9495524
_publ_section_title
;
Structure prediction by ZEFSAII (Michael W. Deem and Ramdas Pophale) SiO2 
 PCOD9495524
Probable space group: C C C M
;
_chemical_formula_sum "Si O2"
_cell_formula_units_Z 72
_cell_length_a 8.131341
_cell_length_b 31.185822
_cell_length_c 13.598025
_cell_angle_alpha 90.000000
_cell_angle_beta 90.000000
_cell_angle_gamma 90.000000
_cell_volume 3448.221896
_symmetry_space_group_name_H-M "C C C M"
_symmetry_group_IT_number 66
_symmetry_cell_setting 'orthorhombic'
loop_
_space_group_symop_operation_xyz
x,y,z
-x,-y,z
x,-y,1/2-z
-x,y,1/2-z
-x,-y,-z
x,y,-z
-x,y,1/2+z
x,-y,1/2+z
1/2+x,1/2+y,z
1/2-x,1/2-y,z
1/2+x,1/2-y,1/2-z
1/2-x,1/2+y,1/2-z
1/2-x,1/2-y,-z
1/2+x,1/2+y,-z
1/2-x,1/2+y,1/2+z
1/2+x,1/2-y,1/2+z
loop_
_atom_site_type_symbol
_atom_site_label
_atom_site_fract_x
_atom_site_fract_y
_atom_site_fract_z
Si Si1 0.320285 0.521457 0.610751
Si Si2 0.733381 0.152230 0.883059
Si Si3 0.000000 0.198334 0.250000
Si Si4 0.319873 0.060581 0.294871
Si Si5 0.942061 0.733426 0.612603
O O1 0.500000 0.500000 0.613569
O O2 0.290141 0.537686 0.500000
O O3 0.202719 0.481785 0.639226
O O4 0.298581 0.555052 0.699364
O O5 0.874688 0.169242 0.810202
O O6 0.708476 0.102826 0.858250
O O7 0.576644 0.183273 0.861822
O O8 0.771692 0.158028 0.000000
O O9 0.058013 0.234119 0.170937
O O10 0.500000 0.062114 0.250000
O O11 0.986583 0.736492 0.500000
O O12 0.750000 0.750000 0.622612
#
# Coordination Sequence:
#
# PCOD9495524 Si02
#       5
#    16  16   8  16  16
#     4  10  22  41  66  92 124 162 205 256 312 376
#     4  10  22  38  60  89 122 161 207 256 311 372
#     4  10  18  32  64  85 112 159 206 256 306 368
#     4  11  23  38  62  92 126 167 208 253 309 371
#     4   8  16  33  54  79 109 149 195 241 300 359
#
# _framework density 20.880327999999999
#
# number of rings (size 3 to 8) (size 9 to 14) (size 15 to 20)
#    0.000    2.222    0.000    5.333    4.667    2.667 
#    0.000    1.111    0.000   24.000    0.000    0.000 
#    0.000    0.000    0.000    0.000    0.000    0.000 
#
# Total GULP energy -200613.580567 kJ/mol
# GULP energy per Si atom -5572.599460 kJ/mol
# Density = 2.083280 g / cm^3
# Si number density = 20.880328 Si / 1000 Ang^3
#
#
#
# Elastic Constant Matrix: (Units=GPa)
#
#
# Indices 1 2 3 4 5 6 
#
# 1 49.7933 6.7830 32.4205 0.0000 0.0000 0.0000
# 2 6.7830 94.2572 20.9070 0.0000 0.0000 0.0000
# 3 32.4205 20.9070 122.0165 0.0000 0.0000 0.0000
# 4 0.0000 0.0000 0.0000 35.2996 0.0000 0.0000
# 5 0.0000 0.0000 0.0000 0.0000 7.0004 0.0000
# 6 0.0000 0.0000 0.0000 0.0000 0.0000 19.9579
#
#
#
# Elastic Compliance Matrix: (Units=1/GPa)
#
#
# Indices 1 2 3 4 5 6 
#
# 1 0.024294 -0.000329 -0.006399 0.000000 0.000000 0.000000
# 2 -0.000329 0.011033 -0.001803 0.000000 0.000000 0.000000
# 3 -0.006399 -0.001803 0.010205 0.000000 0.000000 0.000000
# 4 0.000000 0.000000 0.000000 0.028329 0.000000 0.000000
# 5 0.000000 0.000000 0.000000 0.000000 0.142850 0.000000
# 6 0.000000 0.000000 0.000000 0.000000 0.000000 0.050105
#
#
# Mechanical properties :
#
#
# Convention : Reuss Voigt Hill
#
# Bulk Modulus (GPa) = 35.12442 42.92089 39.02265
# Shear Modulus (GPa) = 17.04350 26.18202 21.61276
#
# Velocity S-wave (km/s) = 2.86010 3.54490 3.22075
# Velocity P-wave (km/s) = 5.26927 6.11190 5.70616
#
# Compressibility (1/GPa) = 0.02847022
#
# Stress axis : x y z
#
# Youngs Moduli (GPa) = 41.16237 90.63827 97.99378
#
# Poissons Ratio (x) = 0.02982 0.62703
# Poissons Ratio (y) = 0.01354 0.17668
# Poissons Ratio (z) = 0.26339 0.16342
#
# Static dielectric constant tensor:
#      x y z
#    x 1.783810 0.000000 0.000000 
#    y 0.000000 1.783820 0.000000 
#    z 0.000000 0.000000 1.972350 
# 
# From -- ./inp_files/24458.got.cif
#   From: 2010.05.17/outbox.cif.g08.bks.cpg/sg66_13_cif.got.tgz:24458.got - 2010.06.03 17:51:23.
