data_PCOD9495797
_publ_section_title
;
Structure prediction by ZEFSAII (Michael W. Deem and Ramdas Pophale) SiO2 
 PCOD9495797
Probable space group: C C C M
;
_chemical_formula_sum "Si O2"
_cell_formula_units_Z 80
_cell_length_a 25.319009
_cell_length_b 4.954673
_cell_length_c 35.926318
_cell_angle_alpha 90.000000
_cell_angle_beta 90.000000
_cell_angle_gamma 90.000000
_cell_volume 4506.863554
_symmetry_space_group_name_H-M "C C C M"
_symmetry_group_IT_number 66
_symmetry_cell_setting 'orthorhombic'
loop_
_space_group_symop_operation_xyz
x,y,z
-x,-y,z
x,-y,1/2-z
-x,y,1/2-z
-x,-y,-z
x,y,-z
-x,y,1/2+z
x,-y,1/2+z
1/2+x,1/2+y,z
1/2-x,1/2-y,z
1/2+x,1/2-y,1/2-z
1/2-x,1/2+y,1/2-z
1/2-x,1/2-y,-z
1/2+x,1/2+y,-z
1/2-x,1/2+y,1/2+z
1/2+x,1/2-y,1/2+z
loop_
_atom_site_type_symbol
_atom_site_label
_atom_site_fract_x
_atom_site_fract_y
_atom_site_fract_z
Si Si1 0.303642 0.581038 0.343379
Si Si2 0.399833 0.598019 0.707852
Si Si3 0.212183 0.507024 0.457901
Si Si4 0.153314 0.578924 0.885633
Si Si5 0.441967 0.890311 0.166077
O O1 0.250000 0.750000 0.335875
O O2 0.339973 0.552895 0.306830
O O3 0.308011 0.292852 0.364437
O O4 0.334097 0.781627 0.370891
O O5 0.404303 0.500000 0.750000
O O6 0.415500 0.901755 0.696093
O O7 0.438017 0.402380 0.684425
O O8 0.194489 0.575477 0.500000
O O9 0.250000 0.250000 0.459807
O O10 0.166426 0.431926 0.429053
O O11 0.250000 0.750000 0.443926
O O12 0.094681 0.630885 0.870553
O O13 0.500000 0.000000 0.158467
#
# Coordination Sequence:
#
# PCOD9495797 Si02
#       5
#    16  16  16  16  16
#     4  10  19  32  50  70  95 130 162 192 236 290
#     4  10  21  35  50  73  99 124 163 208 251 298
#     4  10  19  30  48  75 103 129 156 190 236 286
#     4  10  19  32  50  71  98 127 162 199 233 285
#     4  10  21  35  52  72  94 127 167 208 251 289
#
# _framework density 17.750705
#
# number of rings (size 3 to 8) (size 9 to 14) (size 15 to 20)
#    0.000    2.000    0.000    4.800    0.000    2.400 
#    0.000    6.000    0.000    0.600    0.000    0.000 
#    0.000   14.400    0.000    0.000    0.000    4.000 
#
# Total GULP energy -222824.372676 kJ/mol
# GULP energy per Si atom -5570.609317 kJ/mol
# Density = 1.771030 g / cm^3
# Si number density = 17.750705 Si / 1000 Ang^3
#
#
#
# Elastic Constant Matrix: (Units=GPa)
#
#
# Indices 1 2 3 4 5 6 
#
# 1 95.8128 -10.6865 48.7745 0.0000 0.0000 0.0000
# 2 -10.6865 77.4356 -0.8608 0.0000 0.0000 0.0000
# 3 48.7745 -0.8608 97.3666 0.0000 0.0000 0.0000
# 4 0.0000 0.0000 0.0000 22.6572 0.0000 0.0000
# 5 0.0000 0.0000 0.0000 0.0000 6.7061 0.0000
# 6 0.0000 0.0000 0.0000 0.0000 0.0000 26.0950
#
#
#
# Elastic Compliance Matrix: (Units=1/GPa)
#
#
# Indices 1 2 3 4 5 6 
#
# 1 0.014281 0.001892 -0.007137 0.000000 0.000000 0.000000
# 2 0.001892 0.013166 -0.000831 0.000000 0.000000 0.000000
# 3 -0.007137 -0.000831 0.013838 0.000000 0.000000 0.000000
# 4 0.000000 0.000000 0.000000 0.044136 0.000000 0.000000
# 5 0.000000 0.000000 0.000000 0.000000 0.149117 0.000000
# 6 0.000000 0.000000 0.000000 0.000000 0.000000 0.038322
#
#
# Mechanical properties :
#
#
# Convention : Reuss Voigt Hill
#
# Bulk Modulus (GPa) = 34.32685 38.34104 36.33395
# Shear Modulus (GPa) = 16.96497 26.65084 21.80791
#
# Velocity S-wave (km/s) = 3.09485 3.87899 3.50889
# Velocity P-wave (km/s) = 5.67019 6.45823 6.07700
#
# Compressibility (1/GPa) = 0.02913172
#
# Stress axis : x y z
#
# Youngs Moduli (GPa) = 70.02153 75.95454 72.26239
#
# Poissons Ratio (x) = -0.14367 0.51576
# Poissons Ratio (y) = -0.13245 0.06006
# Poissons Ratio (z) = 0.49977 0.06313
#
# Static dielectric constant tensor:
#      x y z
#    x 1.784340 0.000000 0.000000 
#    y 0.000000 1.679190 0.000000 
#    z 0.000000 0.000000 1.621800 
# 
# From -- ./inp_files/70520.got.cif
#   From: 2010.05.17/outbox.cif.g08.bks.cpg/sg66_36_cif.got.tgz:70520.got - 2010.06.03 17:51:23.
