data_PCOD9495485
_publ_section_title
;
Structure prediction by ZEFSAII (Michael W. Deem and Ramdas Pophale) SiO2 
 PCOD9495485
Probable space group: C C C M
;
_chemical_formula_sum "Si O2"
_cell_formula_units_Z 116
_cell_length_a 7.118643
_cell_length_b 29.098831
_cell_length_c 24.719744
_cell_angle_alpha 90.000000
_cell_angle_beta 90.000000
_cell_angle_gamma 90.000000
_cell_volume 5120.551338
_symmetry_space_group_name_H-M "C C C M"
_symmetry_group_IT_number 66
_symmetry_cell_setting 'orthorhombic'
loop_
_space_group_symop_operation_xyz
x,y,z
-x,-y,z
x,-y,1/2-z
-x,y,1/2-z
-x,-y,-z
x,y,-z
-x,y,1/2+z
x,-y,1/2+z
1/2+x,1/2+y,z
1/2-x,1/2-y,z
1/2+x,1/2-y,1/2-z
1/2-x,1/2+y,1/2-z
1/2-x,1/2-y,-z
1/2+x,1/2+y,-z
1/2-x,1/2+y,1/2+z
1/2+x,1/2-y,1/2+z
loop_
_atom_site_type_symbol
_atom_site_label
_atom_site_fract_x
_atom_site_fract_y
_atom_site_fract_z
Si Si1 0.908275 0.585732 0.062979
Si Si2 0.500000 0.500000 0.500000
Si Si3 0.209118 0.516992 0.341889
Si Si4 0.635175 0.356119 0.837634
Si Si5 0.422990 0.835786 0.358633
Si Si6 0.528836 0.742390 0.685437
Si Si7 0.215418 0.403930 0.767037
Si Si8 0.841174 0.064180 0.091936
O O1 0.873830 0.637205 0.086053
O O2 0.131636 0.575455 0.069890
O O3 0.817622 0.548568 0.104007
O O4 0.856898 0.579014 0.000000
O O5 0.450197 0.461922 0.453649
O O6 0.286847 0.550147 0.295828
O O7 0.316234 0.471269 0.358491
O O8 0.000000 0.500000 0.326882
O O9 0.852323 0.344321 0.851653
O O10 0.511409 0.310682 0.831272
O O11 0.665242 0.383740 0.781977
O O12 0.568058 0.389894 0.884617
O O13 0.413248 0.781420 0.346499
O O14 0.318593 0.864228 0.311622
O O15 0.500000 0.748089 0.750000
O O16 0.750000 0.750000 0.676001
O O17 0.000000 0.414047 0.750000
#
# Coordination Sequence:
#
# PCOD9495485 Si02
#       8
#    16   4  16  16  16  16  16  16
#     4   9  16  29  52  79 105 121 159 222 269 300
#     4  12  24  40  54  54  90 150 196 218 246 296
#     4   9  18  28  50  82 104 129 165 211 269 321
#     4   9  18  31  49  72 104 132 168 209 247 304
#     4   8  15  27  49  79 106 132 159 195 259 325
#     4  10  18  32  55  77 105 138 171 209 263 325
#     4   9  15  28  49  80 113 134 154 202 269 329
#     4  10  21  35  50  70  92 139 181 213 251 296
#
# _framework density 22.65381
#
# number of rings (size 3 to 8) (size 9 to 14) (size 15 to 20)
#    0.000    2.759    0.690    4.552    0.966    2.759 
#    2.483    0.000    1.517    2.069    0.000    0.000 
#    0.000    4.966    0.000    0.138    0.000    0.000 
#
# Total GULP energy -323802.751448 kJ/mol
# GULP energy per Si atom -5582.806059 kJ/mol
# Density = 2.260225 g / cm^3
# Si number density = 22.653810 Si / 1000 Ang^3
#
#
#
# Elastic Constant Matrix: (Units=GPa)
#
#
# Indices 1 2 3 4 5 6 
#
# 1 54.8909 27.2366 5.9283 0.0000 0.0000 0.0000
# 2 27.2366 185.8375 71.5720 0.0000 0.0000 0.0000
# 3 5.9283 71.5720 84.3325 0.0000 0.0000 0.0000
# 4 0.0000 0.0000 0.0000 33.7681 0.0000 0.0000
# 5 0.0000 0.0000 0.0000 0.0000 19.6077 0.0000
# 6 0.0000 0.0000 0.0000 0.0000 0.0000 28.6342
#
#
#
# Elastic Compliance Matrix: (Units=1/GPa)
#
#
# Indices 1 2 3 4 5 6 
#
# 1 0.019789 -0.003513 0.001590 0.000000 0.000000 0.000000
# 2 -0.003513 0.008617 -0.007067 0.000000 0.000000 0.000000
# 3 0.001590 -0.007067 0.017743 0.000000 0.000000 0.000000
# 4 0.000000 0.000000 0.000000 0.029614 0.000000 0.000000
# 5 0.000000 0.000000 0.000000 0.000000 0.051000 0.000000
# 6 0.000000 0.000000 0.000000 0.000000 0.000000 0.034923
#
#
# Mechanical properties :
#
#
# Convention : Reuss Voigt Hill
#
# Bulk Modulus (GPa) = 35.49675 59.39274 47.44474
# Shear Modulus (GPa) = 26.44712 31.09027 28.76869
#
# Velocity S-wave (km/s) = 3.42050 3.70862 3.56747
# Velocity P-wave (km/s) = 5.59491 6.67929 6.16100
#
# Compressibility (1/GPa) = 0.02817159
#
# Stress axis : x y z
#
# Youngs Moduli (GPa) = 50.53260 116.04353 56.35898
#
# Poissons Ratio (x) = 0.40763 -0.08962
# Poissons Ratio (y) = 0.17751 0.39827
# Poissons Ratio (z) = -0.08035 0.82003
#
# Static dielectric constant tensor:
#      x y z
#    x 1.972010 0.000000 0.000000 
#    y 0.000000 1.869590 0.000000 
#    z 0.000000 0.000000 1.790290 
# 
# From -- ./inp_files/55983.got.cif
#   From: 2010.05.17/outbox.cif.g08.bks.cpg/sg66_28_cif.got.tgz:55983.got - 2010.06.03 17:51:23.
