data_PCOD9495445
_publ_section_title
;
Structure prediction by ZEFSAII (Michael W. Deem and Ramdas Pophale) SiO2 
 PCOD9495445
Probable space group: C C C M
;
_chemical_formula_sum "Si O2"
_cell_formula_units_Z 72
_cell_length_a 19.708266
_cell_length_b 18.006366
_cell_length_c 10.961545
_cell_angle_alpha 90.000000
_cell_angle_beta 90.000000
_cell_angle_gamma 90.000000
_cell_volume 3889.970070
_symmetry_space_group_name_H-M "C C C M"
_symmetry_group_IT_number 66
_symmetry_cell_setting 'orthorhombic'
loop_
_space_group_symop_operation_xyz
x,y,z
-x,-y,z
x,-y,1/2-z
-x,y,1/2-z
-x,-y,-z
x,y,-z
-x,y,1/2+z
x,-y,1/2+z
1/2+x,1/2+y,z
1/2-x,1/2-y,z
1/2+x,1/2-y,1/2-z
1/2-x,1/2+y,1/2-z
1/2-x,1/2-y,-z
1/2+x,1/2+y,-z
1/2-x,1/2+y,1/2+z
1/2+x,1/2-y,1/2+z
loop_
_atom_site_type_symbol
_atom_site_label
_atom_site_fract_x
_atom_site_fract_y
_atom_site_fract_z
Si Si1 0.827032 0.722126 0.860315
Si Si2 0.271867 0.087658 0.250715
Si Si3 0.388384 0.406959 0.500000
Si Si4 0.935238 0.943408 0.000000
Si Si5 0.113959 0.862454 0.262946
Si Si6 0.740943 0.161995 0.000000
O O1 0.750000 0.750000 0.836024
O O2 0.818668 0.634380 0.841748
O O3 0.874845 0.773976 0.778040
O O4 0.843653 0.739992 0.000000
O O5 0.190875 0.103029 0.230366
O O6 0.290256 0.127399 0.378689
O O7 0.282582 0.000000 0.250000
O O8 0.375959 0.494828 0.500000
O O9 0.417808 0.384104 0.367918
O O10 0.317378 0.366466 0.500000
O O11 0.926275 0.895939 0.122260
O O12 0.000000 0.000000 0.000000
O O13 0.750000 0.250000 0.000000
#
# Coordination Sequence:
#
# PCOD9495445 Si02
#       6
#    16  16   8   8  16   8
#     4   9  17  29  47  68  94 130 172 208 249 309
#     4  10  19  27  47  72  99 128 169 213 254 306
#     4  10  20  32  50  68  92 125 167 211 253 295
#     4  12  24  36  50  71  99 135 181 226 257 288
#     4  10  19  35  49  68  95 135 176 214 257 305
#     4  10  18  32  45  67  98 130 165 205 258 311
#
# _framework density 18.509139999999999
#
# number of rings (size 3 to 8) (size 9 to 14) (size 15 to 20)
#    0.000    2.000    1.111    6.667    3.111    1.778 
#    0.000    0.000    0.000    0.000    0.000    0.000 
#    0.000    0.000    0.000   24.000    0.000    3.333 
#
# Total GULP energy -200506.236643 kJ/mol
# GULP energy per Si atom -5569.617685 kJ/mol
# Density = 1.846701 g / cm^3
# Si number density = 18.509140 Si / 1000 Ang^3
#
#
#
# Elastic Constant Matrix: (Units=GPa)
#
#
# Indices 1 2 3 4 5 6 
#
# 1 26.6120 21.8457 22.5553 0.0000 0.0000 0.0000
# 2 21.8457 149.5190 23.7159 0.0000 0.0000 0.0000
# 3 22.5553 23.7159 130.7324 0.0000 0.0000 0.0000
# 4 0.0000 0.0000 0.0000 31.7145 0.0000 0.0000
# 5 0.0000 0.0000 0.0000 0.0000 -6.9910 0.0000
# 6 0.0000 0.0000 0.0000 0.0000 0.0000 17.6143
#
#
#
# Elastic Compliance Matrix: (Units=1/GPa)
#
#
# Indices 1 2 3 4 5 6 
#
# 1 0.048662 -0.005949 -0.007316 0.000000 0.000000 0.000000
# 2 -0.005949 0.007614 -0.000355 0.000000 0.000000 0.000000
# 3 -0.007316 -0.000355 0.008976 0.000000 0.000000 0.000000
# 4 0.000000 0.000000 0.000000 0.031531 0.000000 0.000000
# 5 0.000000 0.000000 0.000000 0.000000 -0.143040 0.000000
# 6 0.000000 0.000000 0.000000 0.000000 0.000000 0.056772
#
#
# Mechanical properties :
#
#
# Convention : Reuss Voigt Hill
#
# Bulk Modulus (GPa) = 26.30855 49.23302 37.77079
# Shear Modulus (GPa) = 99.15542 24.38398 61.76970
#
# Velocity S-wave (km/s) = 7.32717 3.63354 5.78316
# Velocity P-wave (km/s) = 9.26433 6.65286 8.06500
#
# Compressibility (1/GPa) = 0.03801046
#
# Stress axis : x y z
#
# Youngs Moduli (GPa) = 20.54996 131.34363 111.40993
#
# Poissons Ratio (x) = 0.78141 0.81512
# Poissons Ratio (y) = 0.12226 0.03952
# Poissons Ratio (z) = 0.15035 0.04659
#
# Static dielectric constant tensor:
#      x y z
#    x 1.665790 0.000000 0.000000 
#    y 0.000000 1.635330 0.000000 
#    z 0.000000 0.000000 1.815090 
# 
# From -- ./inp_files/18718.got.cif
#   From: 2010.05.17/outbox.cif.g08.bks.cpg/sg66_10_cif.got.tgz:18718.got - 2010.06.03 17:51:23.
