data_PCOD9495312
_publ_section_title
;
Structure prediction by ZEFSAII (Michael W. Deem and Ramdas Pophale) SiO2 
 PCOD9495312
Probable space group: C C C M
;
_chemical_formula_sum "Si O2"
_cell_formula_units_Z 80
_cell_length_a 25.323125
_cell_length_b 13.816558
_cell_length_c 10.531657
_cell_angle_alpha 90.000000
_cell_angle_beta 90.000000
_cell_angle_gamma 90.000000
_cell_volume 3684.799567
_symmetry_space_group_name_H-M "C C C M"
_symmetry_group_IT_number 66
_symmetry_cell_setting 'orthorhombic'
loop_
_space_group_symop_operation_xyz
x,y,z
-x,-y,z
x,-y,1/2-z
-x,y,1/2-z
-x,-y,-z
x,y,-z
-x,y,1/2+z
x,-y,1/2+z
1/2+x,1/2+y,z
1/2-x,1/2-y,z
1/2+x,1/2-y,1/2-z
1/2-x,1/2+y,1/2-z
1/2-x,1/2-y,-z
1/2+x,1/2+y,-z
1/2-x,1/2+y,1/2+z
1/2+x,1/2-y,1/2+z
loop_
_atom_site_type_symbol
_atom_site_label
_atom_site_fract_x
_atom_site_fract_y
_atom_site_fract_z
Si Si1 0.260150 0.367615 0.644574
Si Si2 0.430152 0.660276 0.500000
Si Si3 0.551758 0.320692 0.000000
Si Si4 0.918908 0.601312 0.500000
Si Si5 0.590547 0.894441 0.000000
Si Si6 0.873387 0.145024 0.240879
Si Si7 0.151446 0.368628 0.250776
O O1 0.254221 0.402269 0.500000
O O2 0.250000 0.250000 0.638230
O O3 0.317689 0.398403 0.694467
O O4 0.211499 0.398192 0.730936
O O5 0.492539 0.639132 0.500000
O O6 0.427211 0.780548 0.500000
O O7 0.401896 0.618443 0.373187
O O8 0.584907 0.351945 0.875270
O O9 0.548158 0.201964 0.000000
O O10 0.943963 0.493600 0.500000
O O11 0.882261 0.610698 0.376235
O O12 0.625079 0.908074 0.874631
O O13 0.853996 0.254055 0.265290
#
# Coordination Sequence:
#
# PCOD9495312 Si02
#       7
#    16   8   8   8   8  16  16
#     4   9  14  25  45  63  77  97 131 170 212 267
#     4  10  20  30  39  59  87 111 144 186 221 244
#     4  10  18  30  45  57  77 115 156 184 207 242
#     4  10  18  30  45  57  77 115 156 184 207 242
#     4  10  20  30  39  59  87 111 144 186 221 244
#     4   9  17  28  43  61  79 102 136 178 217 257
#     4   9  17  28  43  61  79 102 136 178 217 257
#
# _framework density 21.710813999999999
#
# number of rings (size 3 to 8) (size 9 to 14) (size 15 to 20)
#    0.000    2.600    2.000    1.200    0.000    1.200 
#    0.000    4.000    0.000    7.200    0.000    0.000 
#    0.000    0.000    0.000    0.000    0.000   70.000 
#
# Total GULP energy -222805.665301 kJ/mol
# GULP energy per Si atom -5570.141633 kJ/mol
# Density = 2.166140 g / cm^3
# Si number density = 21.710814 Si / 1000 Ang^3
#
#
#
# Elastic Constant Matrix: (Units=GPa)
#
#
# Indices 1 2 3 4 5 6 
#
# 1 181.2696 -23.9940 81.8525 0.0000 0.0000 0.0000
# 2 -23.9940 26.9824 -17.2915 0.0000 0.0000 0.0000
# 3 81.8525 -17.2915 162.1378 0.0000 0.0000 0.0000
# 4 0.0000 0.0000 0.0000 -4.2555 0.0000 0.0000
# 5 0.0000 0.0000 0.0000 0.0000 22.6665 0.0000
# 6 0.0000 0.0000 0.0000 0.0000 0.0000 -11.3841
#
#
#
# Elastic Compliance Matrix: (Units=1/GPa)
#
#
# Indices 1 2 3 4 5 6 
#
# 1 0.007652 0.004647 -0.003368 0.000000 0.000000 0.000000
# 2 0.004647 0.042602 0.002198 0.000000 0.000000 0.000000
# 3 -0.003368 0.002198 0.008102 0.000000 0.000000 0.000000
# 4 0.000000 0.000000 0.000000 -0.234989 0.000000 0.000000
# 5 0.000000 0.000000 0.000000 0.000000 0.044118 0.000000
# 6 0.000000 0.000000 0.000000 0.000000 0.000000 -0.087842
#
#
# Mechanical properties :
#
#
# Convention : Reuss Voigt Hill
#
# Bulk Modulus (GPa) = 15.31179 50.16932 32.74055
# Shear Modulus (GPa) = -24.32607 23.39356 -0.46626
#
# Velocity S-wave (km/s) = -3.35096 3.28610 -0.46392
# Velocity P-wave (km/s) = 2.81140 6.12830 3.85046
#
# Compressibility (1/GPa) = 0.06530917
#
# Stress axis : x y z
#
# Youngs Moduli (GPa) = 130.67863 23.47333 123.42587
#
# Poissons Ratio (x) = -0.10907 0.41565
# Poissons Ratio (y) = -0.60723 -0.27123
# Poissons Ratio (z) = 0.44007 -0.05158
#
# Static dielectric constant tensor:
#      x y z
#    x 1.762550 0.000000 0.000000 
#    y 0.000000 1.884320 0.000000 
#    z 0.000000 0.000000 1.727340 
# 
# From -- ./inp_files/7730.got.cif
#   From: 2010.05.17/outbox.cif.g08.bks.cpg/sg66_4_cif.got.tgz:7730.got - 2010.06.03 17:51:23.
