data_PCOD9495137
_publ_section_title
;
Structure prediction by ZEFSAII (Michael W. Deem and Ramdas Pophale) SiO2 
 PCOD9495137
Probable space group: C C C M
;
_chemical_formula_sum "Si O2"
_cell_formula_units_Z 68
_cell_length_a 19.040270
_cell_length_b 5.515420
_cell_length_c 31.727955
_cell_angle_alpha 90.000000
_cell_angle_beta 90.000000
_cell_angle_gamma 90.000000
_cell_volume 3331.913922
_symmetry_space_group_name_H-M "C C C M"
_symmetry_group_IT_number 66
_symmetry_cell_setting 'orthorhombic'
loop_
_space_group_symop_operation_xyz
x,y,z
-x,-y,z
x,-y,1/2-z
-x,y,1/2-z
-x,-y,-z
x,y,-z
-x,y,1/2+z
x,-y,1/2+z
1/2+x,1/2+y,z
1/2-x,1/2-y,z
1/2+x,1/2-y,1/2-z
1/2-x,1/2+y,1/2-z
1/2-x,1/2-y,-z
1/2+x,1/2+y,-z
1/2-x,1/2+y,1/2+z
1/2+x,1/2-y,1/2+z
loop_
_atom_site_type_symbol
_atom_site_label
_atom_site_fract_x
_atom_site_fract_y
_atom_site_fract_z
Si Si1 0.750000 0.750000 0.500000
Si Si2 0.967820 0.749599 0.949751
Si Si3 0.815541 0.925062 0.932790
Si Si4 0.333373 0.001941 0.800155
Si Si5 0.827082 0.003445 0.834164
O O1 0.695303 0.652014 0.536747
O O2 0.885098 0.774416 0.942982
O O3 0.000000 0.500000 0.932479
O O4 0.981901 0.749149 0.000000
O O5 0.000000 0.000000 0.932131
O O6 0.750000 0.750000 0.942014
O O7 0.816455 0.999362 0.884142
O O8 0.250452 0.999587 0.812772
O O9 0.362163 0.252191 0.819479
O O10 0.339500 0.000000 0.750000
O O11 0.362609 0.752306 0.819377
#
# Coordination Sequence:
#
# PCOD9495137 Si02
#       5
#     4  16  16  16  16
#     4  12  26  36  60  92 120 164 208 260 320 386
#     4  10  24  43  62  82 115 163 217 258 301 364
#     4  12  25  39  61  91 126 161 210 261 325 368
#     4  10  17  31  50  77 120 164 183 224 308 381
#     4  10  19  31  49  80 114 155 184 248 288 360
#
# _framework density 20.408688999999999
#
# number of rings (size 3 to 8) (size 9 to 14) (size 15 to 20)
#    0.000    1.412    3.529    5.294    3.294    0.000 
#    0.000    0.000    0.000    0.000    0.000    0.000 
#    0.000   22.588    0.000    0.000    0.000    0.000 
#
# Total GULP energy -189296.685918 kJ/mol
# GULP energy per Si atom -5567.549586 kJ/mol
# Density = 2.036224 g / cm^3
# Si number density = 20.408689 Si / 1000 Ang^3
#
#
#
# Elastic Constant Matrix: (Units=GPa)
#
#
# Indices 1 2 3 4 5 6 
#
# 1 54.8498 58.4284 -9.7796 0.0000 0.0000 0.0000
# 2 58.4284 173.8313 28.1407 0.0000 0.0000 0.0000
# 3 -9.7796 28.1407 100.2366 0.0000 0.0000 0.0000
# 4 0.0000 0.0000 0.0000 -33.1141 0.0000 0.0000
# 5 0.0000 0.0000 0.0000 0.0000 -9.6454 0.0000
# 6 0.0000 0.0000 0.0000 0.0000 0.0000 26.2693
#
#
#
# Elastic Compliance Matrix: (Units=1/GPa)
#
#
# Indices 1 2 3 4 5 6 
#
# 1 0.031905 -0.011763 0.006415 0.000000 0.000000 0.000000
# 2 -0.011763 0.010363 -0.004057 0.000000 0.000000 0.000000
# 3 0.006415 -0.004057 0.011741 0.000000 0.000000 0.000000
# 4 0.000000 0.000000 0.000000 -0.030199 0.000000 0.000000
# 5 0.000000 0.000000 0.000000 0.000000 -0.103677 0.000000
# 6 0.000000 0.000000 0.000000 0.000000 0.000000 0.038067
#
#
# Mechanical properties :
#
#
# Convention : Reuss Voigt Hill
#
# Bulk Modulus (GPa) = 28.40834 53.61072 41.00953
# Shear Modulus (GPa) = -444.22385 13.51050 -215.35668
#
# Velocity S-wave (km/s) = -14.76945 2.57572 -10.28354
# Velocity P-wave (km/s) = 16.64028 5.93055 10.99380
#
# Compressibility (1/GPa) = 0.03520093
#
# Stress axis : x y z
#
# Youngs Moduli (GPa) = 31.34256 96.49582 85.16969
#
# Poissons Ratio (x) = 1.13504 -0.54638
# Poissons Ratio (y) = 0.36867 0.34553
# Poissons Ratio (z) = -0.20107 0.39148
#
# Static dielectric constant tensor:
#      x y z
#    x 1.711070 0.000000 0.000000 
#    y 0.000000 1.867930 0.000000 
#    z 0.000000 0.000000 1.686410 
# 
# From -- ./inp_files/70101.got.cif
#   From: 2010.05.17/outbox.cif.g08.bks.cpg/sg66_36_cif.got.tgz:70101.got - 2010.06.03 17:51:23.
