data_PCOD9495411
_publ_section_title
;
Structure prediction by ZEFSAII (Michael W. Deem and Ramdas Pophale) SiO2 
 PCOD9495411
Probable space group: C C C M
;
_chemical_formula_sum "Si O2"
_cell_formula_units_Z 96
_cell_length_a 19.207987
_cell_length_b 29.475956
_cell_length_c 10.357927
_cell_angle_alpha 90.000000
_cell_angle_beta 90.000000
_cell_angle_gamma 90.000000
_cell_volume 5864.386679
_symmetry_space_group_name_H-M "C C C M"
_symmetry_group_IT_number 66
_symmetry_cell_setting 'orthorhombic'
loop_
_space_group_symop_operation_xyz
x,y,z
-x,-y,z
x,-y,1/2-z
-x,y,1/2-z
-x,-y,-z
x,y,-z
-x,y,1/2+z
x,-y,1/2+z
1/2+x,1/2+y,z
1/2-x,1/2-y,z
1/2+x,1/2-y,1/2-z
1/2-x,1/2+y,1/2-z
1/2-x,1/2-y,-z
1/2+x,1/2+y,-z
1/2-x,1/2+y,1/2+z
1/2+x,1/2-y,1/2+z
loop_
_atom_site_type_symbol
_atom_site_label
_atom_site_fract_x
_atom_site_fract_y
_atom_site_fract_z
Si Si1 0.290773 0.294052 0.156207
Si Si2 0.416999 0.555479 0.000000
Si Si3 0.286298 0.113991 0.844261
Si Si4 0.561568 0.741644 0.150576
Si Si5 0.077649 0.055151 0.000000
Si Si6 0.832227 0.945416 0.752840
Si Si7 0.062710 0.650504 0.349164
O O1 0.250000 0.250000 0.205646
O O2 0.254405 0.340289 0.195670
O O3 0.371487 0.287918 0.186841
O O4 0.286191 0.292997 0.000000
O O5 0.497509 0.570725 0.000000
O O6 0.421817 0.500136 0.000000
O O7 0.373292 0.569301 0.874830
O O8 0.244672 0.074293 0.773235
O O9 0.367745 0.122176 0.817890
O O10 0.279795 0.108180 0.000000
O O11 0.500000 0.733223 0.250000
O O12 0.580177 0.795505 0.158882
O O13 0.543330 0.733238 0.000000
O O14 0.120543 0.069490 0.874297
O O15 0.829143 0.000000 0.750000
O O16 0.043833 0.642132 0.500000
O O17 0.000000 0.641605 0.250000
#
# Coordination Sequence:
#
# PCOD9495411 Si02
#       7
#    16   8  16  16   8  16  16
#     4   9  15  27  49  74  95 124 166 204 235 283
#     4   9  18  30  50  74 100 129 165 211 247 289
#     4  10  18  31  53  75  98 131 169 205 243 297
#     4   9  16  28  48  71  96 127 161 200 240 283
#     4   9  16  32  52  72  96 131 173 205 243 289
#     4  10  19  32  51  76 100 130 168 207 249 290
#     4   9  17  30  50  75  98 124 163 205 244 292
#
# _framework density 16.369999
#
# number of rings (size 3 to 8) (size 9 to 14) (size 15 to 20)
#    0.000    2.667    2.500    0.500    0.000    2.000 
#    1.500    1.667    1.833    1.000    0.000    2.333 
#    0.000    0.000    0.000    0.000    0.000    0.000 
#
# Total GULP energy -267375.464676 kJ/mol
# GULP energy per Si atom -5570.322181 kJ/mol
# Density = 1.633274 g / cm^3
# Si number density = 16.369999 Si / 1000 Ang^3
#
#
#
# Elastic Constant Matrix: (Units=GPa)
#
#
# Indices 1 2 3 4 5 6 
#
# 1 127.2692 29.6506 68.3431 0.0000 0.0000 0.0000
# 2 29.6506 23.9456 19.2459 0.0000 0.0000 0.0000
# 3 68.3431 19.2459 92.2400 0.0000 0.0000 0.0000
# 4 0.0000 0.0000 0.0000 7.7768 0.0000 0.0000
# 5 0.0000 0.0000 0.0000 0.0000 25.6094 0.0000
# 6 0.0000 0.0000 0.0000 0.0000 0.0000 28.7694
#
#
#
# Elastic Compliance Matrix: (Units=1/GPa)
#
#
# Indices 1 2 3 4 5 6 
#
# 1 0.015445 -0.011927 -0.008955 0.000000 0.000000 0.000000
# 2 -0.011927 0.059387 -0.003554 0.000000 0.000000 0.000000
# 3 -0.008955 -0.003554 0.018218 0.000000 0.000000 0.000000
# 4 0.000000 0.000000 0.000000 0.128588 0.000000 0.000000
# 5 0.000000 0.000000 0.000000 0.000000 0.039048 0.000000
# 6 0.000000 0.000000 0.000000 0.000000 0.000000 0.034759
#
#
# Mechanical properties :
#
#
# Convention : Reuss Voigt Hill
#
# Bulk Modulus (GPa) = 22.63609 53.10377 37.86993
# Shear Modulus (GPa) = 13.92595 20.84546 17.38571
#
# Velocity S-wave (km/s) = 2.91984 3.57234 3.26244
# Velocity P-wave (km/s) = 5.02246 7.03744 6.11354
#
# Compressibility (1/GPa) = 0.04417724
#
# Stress axis : x y z
#
# Youngs Moduli (GPa) = 64.74647 16.83884 54.89171
#
# Poissons Ratio (x) = 0.20084 0.49155
# Poissons Ratio (y) = 0.77225 0.19507
# Poissons Ratio (z) = 0.57980 0.05984
#
# Static dielectric constant tensor:
#      x y z
#    x 1.544640 0.000000 0.000000 
#    y 0.000000 1.562620 0.000000 
#    z 0.000000 0.000000 1.541070 
# 
# From -- ./inp_files/16767.got.cif
#   From: 2010.05.17/outbox.cif.g08.bks.cpg/sg66_9_cif.got.tgz:16767.got - 2010.06.03 17:51:23.
