data_PCOD9495736
_publ_section_title
;
Structure prediction by ZEFSAII (Michael W. Deem and Ramdas Pophale) SiO2 
 PCOD9495736
Probable space group: C C C M
;
_chemical_formula_sum "Si O2"
_cell_formula_units_Z 116
_cell_length_a 32.373556
_cell_length_b 32.373548
_cell_length_c 9.034247
_cell_angle_alpha 90.000000
_cell_angle_beta 90.000000
_cell_angle_gamma 90.000000
_cell_volume 9468.314283
_symmetry_space_group_name_H-M "C C C M"
_symmetry_group_IT_number 66
_symmetry_cell_setting 'orthorhombic'
loop_
_space_group_symop_operation_xyz
x,y,z
-x,-y,z
x,-y,1/2-z
-x,y,1/2-z
-x,-y,-z
x,y,-z
-x,y,1/2+z
x,-y,1/2+z
1/2+x,1/2+y,z
1/2-x,1/2-y,z
1/2+x,1/2-y,1/2-z
1/2-x,1/2+y,1/2-z
1/2-x,1/2-y,-z
1/2+x,1/2+y,-z
1/2-x,1/2+y,1/2+z
1/2+x,1/2-y,1/2+z
loop_
_atom_site_type_symbol
_atom_site_label
_atom_site_fract_x
_atom_site_fract_y
_atom_site_fract_z
Si Si1 0.500000 0.000000 0.750000
Si Si2 0.752970 0.817880 0.172520
Si Si3 0.342671 0.957250 0.678157
Si Si4 0.066603 0.566603 0.330209
Si Si5 0.817880 0.247030 0.327480
Si Si6 0.457250 0.842671 0.321843
Si Si7 0.377188 0.807000 0.174783
Si Si8 0.807000 0.377188 0.174783
O O1 0.531576 0.031576 0.671998
O O2 0.795319 0.795319 0.219951
O O3 0.718011 0.781989 0.177526
O O4 0.734464 0.854524 0.269736
O O5 0.756808 0.830088 0.000000
O O6 0.342111 0.960405 0.500000
O O7 0.390049 0.949140 0.733811
O O8 0.316701 0.918218 0.733589
O O9 0.328498 0.000000 0.750000
O O10 0.076328 0.576328 0.500000
O O11 0.050860 0.609951 0.266189
O O12 0.830088 0.243192 0.500000
O O13 0.854524 0.265536 0.230264
O O14 0.500000 0.828498 0.250000
O O15 0.460405 0.842111 0.500000
O O16 0.418218 0.816701 0.266411
O O17 0.344764 0.844764 0.200288
O O18 0.385694 0.805325 0.000000
O O19 0.805325 0.385694 0.000000
#
# Coordination Sequence:
#
# PCOD9495736 Si02
#       8
#     4  16  16  16  16  16  16  16
#     4  12  18  36  44  58  68  80 114 152 206 244
#     4   8  14  25  41  60  80 101 121 142 172 214
#     4  11  21  34  45  57  72  93 122 154 194 237
#     4  10  21  31  43  56  68  86 110 147 195 241
#     4   8  14  25  41  60  80 101 121 142 172 214
#     4  11  21  34  45  57  72  93 122 154 194 237
#     4  10  19  29  42  60  78  99 122 149 184 224
#     4  10  19  29  42  60  78  99 122 149 184 224
#
# _framework density 12.251388
#
# number of rings (size 3 to 8) (size 9 to 14) (size 15 to 20)
#    0.000    2.207    2.759    2.690    0.000    1.655 
#    0.000    2.759    0.000    0.000    0.000    0.000 
#    0.000    0.000    0.000    0.000    0.000    0.000 
#
# Total GULP energy -323006.024168 kJ/mol
# GULP energy per Si atom -5569.069382 kJ/mol
# Density = 1.222350 g / cm^3
# Si number density = 12.251388 Si / 1000 Ang^3
#
#
#
# Elastic Constant Matrix: (Units=GPa)
#
#
# Indices 1 2 3 4 5 6 
#
# 1 52.5476 38.3865 31.7273 0.0000 0.0000 0.0000
# 2 38.3865 52.5476 31.7273 0.0000 0.0000 0.0000
# 3 31.7273 31.7273 55.4170 0.0000 0.0000 0.0000
# 4 0.0000 0.0000 0.0000 16.0956 0.0000 0.0000
# 5 0.0000 0.0000 0.0000 0.0000 16.0956 0.0000
# 6 0.0000 0.0000 0.0000 0.0000 0.0000 18.6143
#
#
#
# Elastic Compliance Matrix: (Units=1/GPa)
#
#
# Indices 1 2 3 4 5 6 
#
# 1 0.044465 -0.026151 -0.010485 0.000000 0.000000 0.000000
# 2 -0.026151 0.044465 -0.010485 0.000000 0.000000 0.000000
# 3 -0.010485 -0.010485 0.030050 0.000000 0.000000 0.000000
# 4 0.000000 0.000000 0.000000 0.062129 0.000000 0.000000
# 5 0.000000 0.000000 0.000000 0.000000 0.062129 0.000000
# 6 0.000000 0.000000 0.000000 0.000000 0.000000 0.053722
#
#
# Mechanical properties :
#
#
# Convention : Reuss Voigt Hill
#
# Bulk Modulus (GPa) = 40.42339 40.46603 40.44471
# Shear Modulus (GPa) = 12.51730 14.07252 13.29491
#
# Velocity S-wave (km/s) = 3.19988 3.39285 3.29777
# Velocity P-wave (km/s) = 6.83512 6.96060 6.89815
#
# Compressibility (1/GPa) = 0.02473815
#
# Stress axis : x y z
#
# Youngs Moduli (GPa) = 22.48976 22.48973 33.27742
#
# Poissons Ratio (x) = 0.58814 0.34890
# Poissons Ratio (y) = 0.58814 0.34890
# Poissons Ratio (z) = 0.23580 0.23580
#
# Static dielectric constant tensor:
#      x y z
#    x 1.393320 0.000000 0.000000 
#    y 0.000000 1.393320 0.000000 
#    z 0.000000 0.000000 1.413230 
# 
# From -- ./inp_files/11813.got.cif
#   From: 2010.05.17/outbox.cif.g08.bks.cpg/sg66_6_cif.got.tgz:11813.got - 2010.06.03 17:51:23.
