data_PCOD9495094
_publ_section_title
;
Structure prediction by ZEFSAII (Michael W. Deem and Ramdas Pophale) SiO2 
 PCOD9495094
Probable space group: C C C M
;
_chemical_formula_sum "Si O2"
_cell_formula_units_Z 112
_cell_length_a 19.029973
_cell_length_b 20.146363
_cell_length_c 17.659450
_cell_angle_alpha 90.000000
_cell_angle_beta 90.000000
_cell_angle_gamma 90.000000
_cell_volume 6770.363716
_symmetry_space_group_name_H-M "C C C M"
_symmetry_group_IT_number 66
_symmetry_cell_setting 'orthorhombic'
loop_
_space_group_symop_operation_xyz
x,y,z
-x,-y,z
x,-y,1/2-z
-x,y,1/2-z
-x,-y,-z
x,y,-z
-x,y,1/2+z
x,-y,1/2+z
1/2+x,1/2+y,z
1/2-x,1/2-y,z
1/2+x,1/2-y,1/2-z
1/2-x,1/2+y,1/2-z
1/2-x,1/2-y,-z
1/2+x,1/2+y,-z
1/2-x,1/2+y,1/2+z
1/2+x,1/2-y,1/2+z
loop_
_atom_site_type_symbol
_atom_site_label
_atom_site_fract_x
_atom_site_fract_y
_atom_site_fract_z
Si Si1 0.577614 0.682974 0.087323
Si Si2 0.676641 0.428705 0.207395
Si Si3 0.774772 0.869969 0.138205
Si Si4 0.071229 0.467208 0.908218
Si Si5 0.020464 0.926976 0.162205
Si Si6 0.873898 0.323419 0.407634
Si Si7 0.277842 0.015414 0.588937
O O1 0.657288 0.656669 0.095075
O O2 0.525238 0.631626 0.126613
O O3 0.583241 0.758423 0.116677
O O4 0.557146 0.686033 0.000000
O O5 0.666502 0.500000 0.250000
O O6 0.700646 0.380134 0.274806
O O7 0.603789 0.414463 0.164433
O O8 0.736673 0.436658 0.144891
O O9 0.704734 0.826569 0.126389
O O10 0.753883 0.941940 0.104171
O O11 0.086807 0.391437 0.885485
O O12 0.140346 0.509646 0.889586
O O13 0.000000 0.500000 0.879066
O O14 0.067620 0.465940 0.000000
O O15 0.000000 0.929265 0.250000
O O16 0.000000 0.000000 0.129629
O O17 0.866741 0.322271 0.500000
O O18 0.271103 0.030967 0.500000
#
# Coordination Sequence:
#
# PCOD9495094 Si02
#       7
#    16  16  16  16  16  16  16
#     4  11  21  31  50  77 103 132 165 209 256 302
#     4  10  18  30  50  69  98 138 170 209 257 300
#     4  10  17  29  49  70 102 136 163 198 255 316
#     4   8  14  28  52  76 100 129 160 201 253 304
#     4  11  19  34  50  68  98 139 176 206 247 297
#     4   9  18  31  49  77 105 127 159 202 254 308
#     4   9  17  28  47  76 101 127 172 216 252 300
#
# _framework density 16.542686
#
# number of rings (size 3 to 8) (size 9 to 14) (size 15 to 20)
#    0.000    2.286    2.857    3.429    0.000    2.000 
#    0.000    0.000    3.143    9.857    0.000    0.000 
#    0.000    8.000    0.000    0.000    0.000    0.000 
#
# Total GULP energy -311986.385885 kJ/mol
# GULP energy per Si atom -5571.185462 kJ/mol
# Density = 1.650503 g / cm^3
# Si number density = 16.542686 Si / 1000 Ang^3
#
#
#
# Elastic Constant Matrix: (Units=GPa)
#
#
# Indices 1 2 3 4 5 6 
#
# 1 128.3687 57.0298 28.1218 0.0000 0.0000 0.0000
# 2 57.0298 70.3273 25.5326 0.0000 0.0000 0.0000
# 3 28.1218 25.5326 37.2003 0.0000 0.0000 0.0000
# 4 0.0000 0.0000 0.0000 13.2745 0.0000 0.0000
# 5 0.0000 0.0000 0.0000 0.0000 14.3900 0.0000
# 6 0.0000 0.0000 0.0000 0.0000 0.0000 22.0416
#
#
#
# Elastic Compliance Matrix: (Units=1/GPa)
#
#
# Indices 1 2 3 4 5 6 
#
# 1 0.012476 -0.008914 -0.003313 0.000000 0.000000 0.000000
# 2 -0.008914 0.025308 -0.010631 0.000000 0.000000 0.000000
# 3 -0.003313 -0.010631 0.036683 0.000000 0.000000 0.000000
# 4 0.000000 0.000000 0.000000 0.075332 0.000000 0.000000
# 5 0.000000 0.000000 0.000000 0.000000 0.069493 0.000000
# 6 0.000000 0.000000 0.000000 0.000000 0.000000 0.045369
#
#
# Mechanical properties :
#
#
# Convention : Reuss Voigt Hill
#
# Bulk Modulus (GPa) = 34.78320 50.80718 42.79519
# Shear Modulus (GPa) = 15.62690 18.28870 16.95780
#
# Velocity S-wave (km/s) = 3.07684 3.32858 3.20518
# Velocity P-wave (km/s) = 5.80470 6.74923 6.29470
#
# Compressibility (1/GPa) = 0.02874951
#
# Stress axis : x y z
#
# Youngs Moduli (GPa) = 80.15252 39.51353 27.26075
#
# Poissons Ratio (x) = 0.35224 0.09032
# Poissons Ratio (y) = 0.71451 0.28981
# Poissons Ratio (z) = 0.26555 0.42008
#
# Static dielectric constant tensor:
#      x y z
#    x 1.577790 0.000000 0.000000 
#    y 0.000000 1.576690 0.000000 
#    z 0.000000 0.000000 1.552320 
# 
# From -- ./inp_files/41963.got.cif
#   From: 2010.05.17/outbox.cif.g08.bks.cpg/sg66_21_cif.got.tgz:41963.got - 2010.06.03 17:51:23.
