data_PCOD9495379
_publ_section_title
;
Structure prediction by ZEFSAII (Michael W. Deem and Ramdas Pophale) SiO2 
 PCOD9495379
Probable space group: C C C M
;
_chemical_formula_sum "Si O2"
_cell_formula_units_Z 48
_cell_length_a 9.779622
_cell_length_b 17.481212
_cell_length_c 14.758904
_cell_angle_alpha 90.000000
_cell_angle_beta 90.000000
_cell_angle_gamma 90.000000
_cell_volume 2523.176995
_symmetry_space_group_name_H-M "C C C M"
_symmetry_group_IT_number 66
_symmetry_cell_setting 'orthorhombic'
loop_
_space_group_symop_operation_xyz
x,y,z
-x,-y,z
x,-y,1/2-z
-x,y,1/2-z
-x,-y,-z
x,y,-z
-x,y,1/2+z
x,-y,1/2+z
1/2+x,1/2+y,z
1/2-x,1/2-y,z
1/2+x,1/2-y,1/2-z
1/2-x,1/2+y,1/2-z
1/2-x,1/2-y,-z
1/2+x,1/2+y,-z
1/2-x,1/2+y,1/2+z
1/2+x,1/2-y,1/2+z
loop_
_atom_site_type_symbol
_atom_site_label
_atom_site_fract_x
_atom_site_fract_y
_atom_site_fract_z
Si Si1 0.142481 0.532016 0.149617
Si Si2 0.847483 0.030649 0.500000
Si Si3 0.898204 0.212757 0.500000
Si Si4 0.624032 0.202451 0.103682
O O1 0.162793 0.500000 0.250000
O O2 0.116876 0.622799 0.154349
O O3 0.000000 0.500000 0.111492
O O4 0.263917 0.502440 0.085873
O O5 0.868305 0.122529 0.500000
O O6 0.000000 0.000000 0.500000
O O7 0.750000 0.250000 0.500000
O O8 0.990116 0.245271 0.415246
O O9 0.750000 0.250000 0.142283
O O10 0.664881 0.179569 0.000000
#
# Coordination Sequence:
#
# PCOD9495379 Si02
#       4
#    16   8   8  16
#     4  11  23  40  62  91 124 167 212 255 303 367
#     4  12  22  38  64  92 126 160 204 262 308 368
#     4  10  18  30  58  90 110 148 200 250 296 354
#     4   9  18  37  60  83 115 160 202 239 311 370
#
# _framework density 19.023634999999999
#
# number of rings (size 3 to 8) (size 9 to 14) (size 15 to 20)
#    1.000    0.667    1.667    4.500    0.000    0.667 
#    0.000    8.333    0.000    0.000    0.000    0.000 
#    0.000    0.000    0.000    0.000    0.000    0.000 
#
# Total GULP energy -133651.357006 kJ/mol
# GULP energy per Si atom -5568.806542 kJ/mol
# Density = 1.898034 g / cm^3
# Si number density = 19.023635 Si / 1000 Ang^3
#
#
#
# Elastic Constant Matrix: (Units=GPa)
#
#
# Indices 1 2 3 4 5 6 
#
# 1 187.2813 54.7948 25.5638 0.0000 0.0000 0.0000
# 2 54.7948 105.6785 -7.4543 0.0000 0.0000 0.0000
# 3 25.5638 -7.4543 59.5217 0.0000 0.0000 0.0000
# 4 0.0000 0.0000 0.0000 41.8229 0.0000 0.0000
# 5 0.0000 0.0000 0.0000 0.0000 16.4235 0.0000
# 6 0.0000 0.0000 0.0000 0.0000 0.0000 42.1088
#
#
#
# Elastic Compliance Matrix: (Units=1/GPa)
#
#
# Indices 1 2 3 4 5 6 
#
# 1 0.006935 -0.003840 -0.003460 0.000000 0.000000 0.000000
# 2 -0.003840 0.011673 0.003111 0.000000 0.000000 0.000000
# 3 -0.003460 0.003111 0.018676 0.000000 0.000000 0.000000
# 4 0.000000 0.000000 0.000000 0.023910 0.000000 0.000000
# 5 0.000000 0.000000 0.000000 0.000000 0.060888 0.000000
# 6 0.000000 0.000000 0.000000 0.000000 0.000000 0.023748
#
#
# Mechanical properties :
#
#
# Convention : Reuss Voigt Hill
#
# Bulk Modulus (GPa) = 34.59282 55.36558 44.97920
# Shear Modulus (GPa) = 30.51686 38.70953 34.61320
#
# Velocity S-wave (km/s) = 4.00954 4.51578 4.27017
# Velocity P-wave (km/s) = 6.29752 7.50710 6.92875
#
# Compressibility (1/GPa) = 0.02890773
#
# Stress axis : x y z
#
# Youngs Moduli (GPa) = 144.18986 85.66642 53.54449
#
# Poissons Ratio (x) = 0.32896 0.18524
# Poissons Ratio (y) = 0.55369 -0.16658
# Poissons Ratio (z) = 0.49883 -0.26652
#
# Static dielectric constant tensor:
#      x y z
#    x 1.640840 0.000000 0.000000 
#    y 0.000000 1.822290 0.000000 
#    z 0.000000 0.000000 1.675340 
# 
# From -- ./inp_files/46480.got.cif
#   From: 2010.05.17/outbox.cif.g08.bks.cpg/sg66_24_cif.got.tgz:46480.got - 2010.06.03 17:51:23.
