data_PCOD9495024
_publ_section_title
;
Structure prediction by ZEFSAII (Michael W. Deem and Ramdas Pophale) SiO2 
 PCOD9495024
Probable space group: C C C M
;
_chemical_formula_sum "Si O2"
_cell_formula_units_Z 80
_cell_length_a 29.870758
_cell_length_b 23.453828
_cell_length_c 8.561827
_cell_angle_alpha 90.000000
_cell_angle_beta 90.000000
_cell_angle_gamma 90.000000
_cell_volume 5998.275757
_symmetry_space_group_name_H-M "C C C M"
_symmetry_group_IT_number 66
_symmetry_cell_setting 'orthorhombic'
loop_
_space_group_symop_operation_xyz
x,y,z
-x,-y,z
x,-y,1/2-z
-x,y,1/2-z
-x,-y,-z
x,y,-z
-x,y,1/2+z
x,-y,1/2+z
1/2+x,1/2+y,z
1/2-x,1/2-y,z
1/2+x,1/2-y,1/2-z
1/2-x,1/2+y,1/2-z
1/2-x,1/2-y,-z
1/2+x,1/2+y,-z
1/2-x,1/2+y,1/2+z
1/2+x,1/2-y,1/2+z
loop_
_atom_site_type_symbol
_atom_site_label
_atom_site_fract_x
_atom_site_fract_y
_atom_site_fract_z
Si Si1 0.549878 0.936982 0.687233
Si Si2 0.768442 0.164757 0.313309
Si Si3 0.782931 0.563947 0.313010
Si Si4 0.817573 0.735112 0.686745
Si Si5 0.631529 0.134362 0.686921
O O1 0.500000 0.925110 0.750000
O O2 0.549818 0.937890 0.500000
O O3 0.585650 0.892172 0.751063
O O4 0.562337 0.000000 0.750000
O O5 0.768895 0.164291 0.500000
O O6 0.758716 0.102109 0.246990
O O7 0.810378 0.200818 0.248850
O O8 0.725005 0.200033 0.253835
O O9 0.780538 0.500000 0.250000
O O10 0.784451 0.564947 0.500000
O O11 0.828080 0.594011 0.248539
O O12 0.815887 0.734429 0.500000
O O13 0.858916 0.697834 0.748145
O O14 0.632807 0.134930 0.500000
#
# Coordination Sequence:
#
# PCOD9495024 Si02
#       5
#    16  16  16  16  16
#     4  11  21  34  47  61  78 101 129 162 201 243
#     4  10  17  27  40  56  76 100 126 157 193 232
#     4  11  20  30  41  57  78 103 132 165 199 235
#     4  10  17  27  41  58  76  98 125 158 194 231
#     4  11  20  31  44  60  78 100 129 165 201 237
#
# _framework density 13.337166
#
# number of rings (size 3 to 8) (size 9 to 14) (size 15 to 20)
#    0.000    1.400    0.000   13.800    0.000    0.000 
#    0.000    0.000    0.000    0.000    0.000    0.000 
#    0.000    0.000    0.000    0.000    0.000    1.000 
#
# Total GULP energy -223173.082220 kJ/mol
# GULP energy per Si atom -5579.327055 kJ/mol
# Density = 1.330681 g / cm^3
# Si number density = 13.337166 Si / 1000 Ang^3
#
#
#
# Elastic Constant Matrix: (Units=GPa)
#
#
# Indices 1 2 3 4 5 6 
#
# 1 51.0100 33.8121 26.6550 0.0000 0.0000 0.0000
# 2 33.8121 63.9367 32.3306 0.0000 0.0000 0.0000
# 3 26.6550 32.3306 157.1059 0.0000 0.0000 0.0000
# 4 0.0000 0.0000 0.0000 23.7933 0.0000 0.0000
# 5 0.0000 0.0000 0.0000 0.0000 18.8260 0.0000
# 6 0.0000 0.0000 0.0000 0.0000 0.0000 26.6042
#
#
#
# Elastic Compliance Matrix: (Units=1/GPa)
#
#
# Indices 1 2 3 4 5 6 
#
# 1 0.030788 -0.015225 -0.002091 0.000000 0.000000 0.000000
# 2 -0.015225 0.024986 -0.002559 0.000000 0.000000 0.000000
# 3 -0.002091 -0.002559 0.007246 0.000000 0.000000 0.000000
# 4 0.000000 0.000000 0.000000 0.042029 0.000000 0.000000
# 5 0.000000 0.000000 0.000000 0.000000 0.053118 0.000000
# 6 0.000000 0.000000 0.000000 0.000000 0.000000 0.037588
#
#
# Mechanical properties :
#
#
# Convention : Reuss Voigt Hill
#
# Bulk Modulus (GPa) = 42.96965 50.84976 46.90971
# Shear Modulus (GPa) = 20.55408 25.79503 23.17456
#
# Velocity S-wave (km/s) = 3.92996 4.40258 4.17297
# Velocity P-wave (km/s) = 7.27191 8.00330 7.64635
#
# Compressibility (1/GPa) = 0.02327224
#
# Stress axis : x y z
#
# Youngs Moduli (GPa) = 32.47993 40.02270 138.00024
#
# Poissons Ratio (x) = 0.60934 0.28849
# Poissons Ratio (y) = 0.49450 0.35310
# Poissons Ratio (z) = 0.06790 0.10241
#
# Static dielectric constant tensor:
#      x y z
#    x 1.435660 0.000000 0.000000 
#    y 0.000000 1.469490 0.000000 
#    z 0.000000 0.000000 1.439760 
# 
# From -- ./inp_files/11458.got.cif
#   From: 2010.05.17/outbox.cif.g08.bks.cpg/sg66_6_cif.got.tgz:11458.got - 2010.06.03 17:51:23.
