data_PCOD9495656
_publ_section_title
;
Structure prediction by ZEFSAII (Michael W. Deem and Ramdas Pophale) SiO2 
 PCOD9495656
Probable space group: C C C M
;
_chemical_formula_sum "Si O2"
_cell_formula_units_Z 92
_cell_length_a 24.936910
_cell_length_b 8.568736
_cell_length_c 21.572575
_cell_angle_alpha 90.000000
_cell_angle_beta 90.000000
_cell_angle_gamma 90.000000
_cell_volume 4609.580333
_symmetry_space_group_name_H-M "C C C M"
_symmetry_group_IT_number 66
_symmetry_cell_setting 'orthorhombic'
loop_
_space_group_symop_operation_xyz
x,y,z
-x,-y,z
x,-y,1/2-z
-x,y,1/2-z
-x,-y,-z
x,y,-z
-x,y,1/2+z
x,-y,1/2+z
1/2+x,1/2+y,z
1/2-x,1/2-y,z
1/2+x,1/2-y,1/2-z
1/2-x,1/2+y,1/2-z
1/2-x,1/2-y,-z
1/2+x,1/2+y,-z
1/2-x,1/2+y,1/2+z
1/2+x,1/2-y,1/2+z
loop_
_atom_site_type_symbol
_atom_site_label
_atom_site_fract_x
_atom_site_fract_y
_atom_site_fract_z
Si Si1 0.750000 0.250000 0.889374
Si Si2 0.489140 0.813680 0.428931
Si Si3 0.843455 0.536521 0.569052
Si Si4 0.425503 0.795122 0.838804
Si Si5 0.337661 0.549240 0.180740
Si Si6 0.132424 0.195507 0.927501
Si Si7 0.000000 0.500000 0.750000
O O1 0.789880 0.361570 0.927167
O O2 0.711458 0.354867 0.847638
O O3 0.501622 0.783144 0.500000
O O4 0.530754 0.725498 0.385694
O O5 0.428330 0.760104 0.418328
O O6 0.500000 0.000000 0.418357
O O7 0.868051 0.552626 0.500000
O O8 0.884822 0.598966 0.620399
O O9 0.832527 0.353419 0.577872
O O10 0.388967 0.661506 0.810674
O O11 0.460269 0.893822 0.790610
O O12 0.322801 0.500000 0.250000
O O13 0.352625 0.422885 0.127337
O O14 0.136678 0.138085 0.000000
#
# Coordination Sequence:
#
# PCOD9495656 Si02
#       7
#     8  16  16  16  16  16   4
#     4  10  25  46  66  96 121 172 220 274 338 396
#     4  10  18  35  63  95 127 170 216 256 313 385
#     4  10  20  40  71 101 129 164 214 277 332 391
#     4  11  23  39  64  94 132 173 218 263 318 383
#     4  11  28  46  63  95 130 173 217 278 333 390
#     4  10  22  40  65  98 134 170 215 271 329 390
#     4  12  24  40  64  96 124 180 226 250 304 398
#
# _framework density 19.958431999999998
#
# number of rings (size 3 to 8) (size 9 to 14) (size 15 to 20)
#    0.000    1.565    2.609    0.783    4.870    6.957 
#    3.130    3.478    0.000    0.000    0.000    0.000 
#    0.000    0.000    0.000    0.000    0.000    0.000 
#
# Total GULP energy -256742.530514 kJ/mol
# GULP energy per Si atom -5581.359359 kJ/mol
# Density = 1.991301 g / cm^3
# Si number density = 19.958432 Si / 1000 Ang^3
#
#
#
# Elastic Constant Matrix: (Units=GPa)
#
#
# Indices 1 2 3 4 5 6 
#
# 1 94.8998 46.7308 45.6537 0.0000 0.0000 0.0000
# 2 46.7308 81.7070 60.5304 0.0000 0.0000 0.0000
# 3 45.6537 60.5304 114.6383 0.0000 0.0000 0.0000
# 4 0.0000 0.0000 0.0000 9.5840 0.0000 0.0000
# 5 0.0000 0.0000 0.0000 0.0000 15.2420 0.0000
# 6 0.0000 0.0000 0.0000 0.0000 0.0000 29.7270
#
#
#
# Elastic Compliance Matrix: (Units=1/GPa)
#
#
# Indices 1 2 3 4 5 6 
#
# 1 0.015054 -0.006847 -0.002380 0.000000 0.000000 0.000000
# 2 -0.006847 0.023216 -0.009532 0.000000 0.000000 0.000000
# 3 -0.002380 -0.009532 0.014704 0.000000 0.000000 0.000000
# 4 0.000000 0.000000 0.000000 0.104340 0.000000 0.000000
# 5 0.000000 0.000000 0.000000 0.000000 0.065608 0.000000
# 6 0.000000 0.000000 0.000000 0.000000 0.000000 0.033639
#
#
# Mechanical properties :
#
#
# Convention : Reuss Voigt Hill
#
# Bulk Modulus (GPa) = 64.69579 66.34163 65.51871
# Shear Modulus (GPa) = 16.70955 20.13262 18.42109
#
# Velocity S-wave (km/s) = 2.89661 3.17949 3.04134
# Velocity P-wave (km/s) = 6.60854 6.84039 6.72546
#
# Compressibility (1/GPa) = 0.01545696
#
# Stress axis : x y z
#
# Youngs Moduli (GPa) = 66.42848 43.07394 68.00999
#
# Poissons Ratio (x) = 0.29491 0.16186
# Poissons Ratio (y) = 0.45481 0.64825
# Poissons Ratio (z) = 0.15810 0.41057
#
# Static dielectric constant tensor:
#      x y z
#    x 1.707800 0.000000 0.000000 
#    y 0.000000 1.736920 0.000000 
#    z 0.000000 0.000000 1.703990 
# 
# From -- ./inp_files/52443.got.cif
#   From: 2010.05.17/outbox.cif.g08.bks.cpg/sg66_27_cif.got.tgz:52443.got - 2010.06.03 17:51:23.
