data_PCOD9495888
_publ_section_title
;
Structure prediction by ZEFSAII (Michael W. Deem and Ramdas Pophale) SiO2 
 PCOD9495888
Probable space group: C C C M
;
_chemical_formula_sum "Si O2"
_cell_formula_units_Z 64
_cell_length_a 8.096568
_cell_length_b 22.551107
_cell_length_c 16.430690
_cell_angle_alpha 90.000000
_cell_angle_beta 90.000000
_cell_angle_gamma 90.000000
_cell_volume 3000.023351
_symmetry_space_group_name_H-M "C C C M"
_symmetry_group_IT_number 66
_symmetry_cell_setting 'orthorhombic'
loop_
_space_group_symop_operation_xyz
x,y,z
-x,-y,z
x,-y,1/2-z
-x,y,1/2-z
-x,-y,-z
x,y,-z
-x,y,1/2+z
x,-y,1/2+z
1/2+x,1/2+y,z
1/2-x,1/2-y,z
1/2+x,1/2-y,1/2-z
1/2-x,1/2+y,1/2-z
1/2-x,1/2-y,-z
1/2+x,1/2+y,-z
1/2-x,1/2+y,1/2+z
1/2+x,1/2-y,1/2+z
loop_
_atom_site_type_symbol
_atom_site_label
_atom_site_fract_x
_atom_site_fract_y
_atom_site_fract_z
Si Si1 0.953211 0.190516 0.344479
Si Si2 0.081307 0.313402 0.905464
Si Si3 0.446101 0.936550 0.344129
Si Si4 0.947767 0.062878 0.654709
O O1 0.009645 0.251787 0.385506
O O2 0.753922 0.188361 0.355693
O O3 0.011852 0.126336 0.377977
O O4 0.000000 0.193596 0.250000
O O5 0.993162 0.375126 0.883620
O O6 0.126025 0.313945 0.000000
O O7 0.500000 0.935318 0.250000
O O8 0.249060 0.936306 0.348925
O O9 0.500000 0.000000 0.379529
O O10 0.000000 0.062054 0.750000
O O11 0.000000 0.000000 0.617535
#
# Coordination Sequence:
#
# PCOD9495888 Si02
#       4
#    16  16  16  16
#     4   9  17  30  51  76  98 131 179 221 256 310
#     4  10  20  34  52  77 109 140 174 220 276 328
#     4  10  19  31  52  81 107 137 182 229 266 311
#     4   9  16  28  48  76 103 130 165 217 270 311
#
# _framework density 21.333168000000001
#
# number of rings (size 3 to 8) (size 9 to 14) (size 15 to 20)
#    0.000    2.500    0.000    5.250    0.000    0.500 
#    0.000    0.000    0.000   18.750    0.000  176.750 
#    0.000    1.000    0.000    0.000    0.000    0.000 
#
# Total GULP energy -178239.910741 kJ/mol
# GULP energy per Si atom -5569.997211 kJ/mol
# Density = 2.128461 g / cm^3
# Si number density = 21.333168 Si / 1000 Ang^3
#
#
#
# Elastic Constant Matrix: (Units=GPa)
#
#
# Indices 1 2 3 4 5 6 
#
# 1 28.3481 31.8598 14.5407 0.0000 0.0000 0.0000
# 2 31.8598 293.8505 35.9092 0.0000 0.0000 0.0000
# 3 14.5407 35.9092 62.7989 0.0000 0.0000 0.0000
# 4 0.0000 0.0000 0.0000 -15.8504 0.0000 0.0000
# 5 0.0000 0.0000 0.0000 0.0000 22.4852 0.0000
# 6 0.0000 0.0000 0.0000 0.0000 0.0000 25.3835
#
#
#
# Elastic Compliance Matrix: (Units=1/GPa)
#
#
# Indices 1 2 3 4 5 6 
#
# 1 0.043567 -0.003753 -0.007942 0.000000 0.000000 0.000000
# 2 -0.003753 0.003982 -0.001408 0.000000 0.000000 0.000000
# 3 -0.007942 -0.001408 0.018568 0.000000 0.000000 0.000000
# 4 0.000000 0.000000 0.000000 -0.063090 0.000000 0.000000
# 5 0.000000 0.000000 0.000000 0.000000 0.044474 0.000000
# 6 0.000000 0.000000 0.000000 0.000000 0.000000 0.039396
#
#
# Mechanical properties :
#
#
# Convention : Reuss Voigt Hill
#
# Bulk Modulus (GPa) = 25.05535 61.06855 43.06195
# Shear Modulus (GPa) = 39.55508 26.58285 33.06896
#
# Velocity S-wave (km/s) = 4.31067 3.53382 3.94143
# Velocity P-wave (km/s) = 6.04533 6.73340 6.39862
#
# Compressibility (1/GPa) = 0.03991164
#
# Stress axis : x y z
#
# Youngs Moduli (GPa) = 22.95297 251.12546 53.85672
#
# Poissons Ratio (x) = 0.94251 0.42771
# Poissons Ratio (y) = 0.08615 0.07583
# Poissons Ratio (z) = 0.18228 0.35358
#
# Static dielectric constant tensor:
#      x y z
#    x 1.776610 0.000000 0.000000 
#    y 0.000000 1.929310 0.000000 
#    z 0.000000 0.000000 1.625230 
# 
# From -- ./inp_files/24173.got.cif
#   From: 2010.05.17/outbox.cif.g08.bks.cpg/sg66_13_cif.got.tgz:24173.got - 2010.06.03 17:51:23.
