data_PCOD9495513
_publ_section_title
;
Structure prediction by ZEFSAII (Michael W. Deem and Ramdas Pophale) SiO2 
 PCOD9495513
Probable space group: C C C M
;
_chemical_formula_sum "Si O2"
_cell_formula_units_Z 84
_cell_length_a 8.202805
_cell_length_b 17.391587
_cell_length_c 23.492714
_cell_angle_alpha 90.000000
_cell_angle_beta 90.000000
_cell_angle_gamma 90.000000
_cell_volume 3351.465806
_symmetry_space_group_name_H-M "C C C M"
_symmetry_group_IT_number 66
_symmetry_cell_setting 'orthorhombic'
loop_
_space_group_symop_operation_xyz
x,y,z
-x,-y,z
x,-y,1/2-z
-x,y,1/2-z
-x,-y,-z
x,y,-z
-x,y,1/2+z
x,-y,1/2+z
1/2+x,1/2+y,z
1/2-x,1/2-y,z
1/2+x,1/2-y,1/2-z
1/2-x,1/2+y,1/2-z
1/2-x,1/2-y,-z
1/2+x,1/2+y,-z
1/2-x,1/2+y,1/2+z
1/2+x,1/2-y,1/2+z
loop_
_atom_site_type_symbol
_atom_site_label
_atom_site_fract_x
_atom_site_fract_y
_atom_site_fract_z
Si Si1 0.000000 0.000000 0.250000
Si Si2 0.775063 0.958689 0.152983
Si Si3 0.943780 0.732477 0.383748
Si Si4 0.008245 0.879104 0.440599
Si Si5 0.131156 0.426057 0.566470
Si Si6 0.351504 0.684511 0.284712
O O1 0.141262 0.013986 0.300582
O O2 0.736852 0.882462 0.190906
O O3 0.906374 0.920778 0.110820
O O4 0.655888 0.001747 0.109400
O O5 0.750000 0.750000 0.376057
O O6 0.009822 0.787640 0.433709
O O7 0.959293 0.644312 0.402014
O O8 0.051888 0.764730 0.331691
O O9 0.083783 0.904865 0.500000
O O10 0.819534 0.900194 0.439033
O O11 0.076916 0.433366 0.500000
O O12 0.500000 0.644652 0.250000
O O13 0.250000 0.750000 0.252259
#
# Coordination Sequence:
#
# PCOD9495513 Si02
#       6
#     4  16  16  16  16  16
#     4  12  20  32  50  84 122 156 194 254 330 376
#     4  11  21  33  55  87 125 161 204 263 323 382
#     4   9  19  34  59  90 127 162 205 259 323 376
#     4   9  16  29  51  85 122 160 207 263 315 368
#     4  10  18  32  58  93 125 162 209 264 321 377
#     4  11  24  42  64  87 120 167 221 265 312 383
#
# _framework density 25.063659000000001
#
# number of rings (size 3 to 8) (size 9 to 14) (size 15 to 20)
#    0.000    1.905    2.857    1.714    0.000    5.333 
#    0.000    0.952    0.000   22.857    0.000    0.000 
#    0.000    0.000    0.000    0.000    0.000    0.000 
#
# Total GULP energy -233928.907295 kJ/mol
# GULP energy per Si atom -5569.735888 kJ/mol
# Density = 2.500661 g / cm^3
# Si number density = 25.063659 Si / 1000 Ang^3
#
#
#
# Elastic Constant Matrix: (Units=GPa)
#
#
# Indices 1 2 3 4 5 6 
#
# 1 38.9954 34.6869 23.5770 0.0000 0.0000 0.0000
# 2 34.6869 192.8574 51.8177 0.0000 0.0000 0.0000
# 3 23.5770 51.8177 143.2228 0.0000 0.0000 0.0000
# 4 0.0000 0.0000 0.0000 58.1227 0.0000 0.0000
# 5 0.0000 0.0000 0.0000 0.0000 -20.3553 0.0000
# 6 0.0000 0.0000 0.0000 0.0000 0.0000 34.3418
#
#
#
# Elastic Compliance Matrix: (Units=1/GPa)
#
#
# Indices 1 2 3 4 5 6 
#
# 1 0.032067 -0.004817 -0.003536 0.000000 0.000000 0.000000
# 2 -0.004817 0.006467 -0.001547 0.000000 0.000000 0.000000
# 3 -0.003536 -0.001547 0.008124 0.000000 0.000000 0.000000
# 4 0.000000 0.000000 0.000000 0.017205 0.000000 0.000000
# 5 0.000000 0.000000 0.000000 0.000000 -0.049127 0.000000
# 6 0.000000 0.000000 0.000000 0.000000 0.000000 0.029119
#
#
# Mechanical properties :
#
#
# Convention : Reuss Voigt Hill
#
# Bulk Modulus (GPa) = 37.23307 66.13765 51.68536
# Shear Modulus (GPa) = 68.86313 32.08810 50.47562
#
# Velocity S-wave (km/s) = 5.24737 3.58196 4.49251
# Velocity P-wave (km/s) = 7.18338 6.59942 6.89758
#
# Compressibility (1/GPa) = 0.02685785
#
# Stress axis : x y z
#
# Youngs Moduli (GPa) = 31.18468 154.62555 123.09483
#
# Poissons Ratio (x) = 0.74490 0.43525
# Poissons Ratio (y) = 0.15023 0.19040
# Poissons Ratio (z) = 0.11026 0.23917
#
# Static dielectric constant tensor:
#      x y z
#    x 1.996210 0.000000 0.000000 
#    y 0.000000 1.670210 0.000000 
#    z 0.000000 0.000000 1.946740 
# 
# From -- ./inp_files/56853.got.cif
#   From: 2010.05.17/outbox.cif.g08.bks.cpg/sg66_29_cif.got.tgz:56853.got - 2010.06.03 17:51:23.
