data_PCOD9495034
_publ_section_title
;
Structure prediction by ZEFSAII (Michael W. Deem and Ramdas Pophale) SiO2 
 PCOD9495034
Probable space group: C C C M
;
_chemical_formula_sum "Si O2"
_cell_formula_units_Z 96
_cell_length_a 22.437102
_cell_length_b 22.595750
_cell_length_c 8.630393
_cell_angle_alpha 90.000000
_cell_angle_beta 90.000000
_cell_angle_gamma 90.000000
_cell_volume 4375.463807
_symmetry_space_group_name_H-M "C C C M"
_symmetry_group_IT_number 66
_symmetry_cell_setting 'orthorhombic'
loop_
_space_group_symop_operation_xyz
x,y,z
-x,-y,z
x,-y,1/2-z
-x,y,1/2-z
-x,-y,-z
x,y,-z
-x,y,1/2+z
x,-y,1/2+z
1/2+x,1/2+y,z
1/2-x,1/2-y,z
1/2+x,1/2-y,1/2-z
1/2-x,1/2+y,1/2-z
1/2-x,1/2-y,-z
1/2+x,1/2+y,-z
1/2-x,1/2+y,1/2+z
1/2+x,1/2-y,1/2+z
loop_
_atom_site_type_symbol
_atom_site_label
_atom_site_fract_x
_atom_site_fract_y
_atom_site_fract_z
Si Si1 0.313738 0.243259 0.324778
Si Si2 0.061284 0.932410 0.313957
Si Si3 0.190751 0.066267 0.814978
Si Si4 0.060575 0.264139 0.688051
Si Si5 0.184977 0.602023 0.173268
Si Si6 0.438373 0.100947 0.184212
O O1 0.307873 0.268877 0.500000
O O2 0.250000 0.250000 0.243317
O O3 0.376830 0.264654 0.259575
O O4 0.322234 0.172812 0.337919
O O5 0.057925 0.933814 0.500000
O O6 0.126262 0.907119 0.267093
O O7 0.000000 0.905315 0.250000
O O8 0.062260 0.000000 0.250000
O O9 0.251876 0.093911 0.755430
O O10 0.191492 0.000000 0.750000
O O11 0.191883 0.065512 0.000000
O O12 0.060184 0.267227 0.500000
O O13 0.060441 0.330547 0.758550
O O14 0.000000 0.235679 0.750000
O O15 0.125406 0.577619 0.255223
O O16 0.188401 0.576989 0.000000
O O17 0.500000 0.074089 0.250000
O O18 0.439954 0.098895 0.000000
#
# Coordination Sequence:
#
# PCOD9495034 Si02
#       6
#    16  16  16  16  16  16
#     4   8  15  28  46  68  92 120 155 192 229 274
#     4   9  16  26  43  66  91 118 151 191 233 273
#     4  10  20  33  49  71  98 127 158 195 237 282
#     4   9  15  24  41  64  89 116 150 192 235 277
#     4  10  19  31  49  72  96 125 160 196 237 283
#     4  10  17  27  44  66  93 121 153 194 236 277
#
# _framework density 21.940529999999999
#
# number of rings (size 3 to 8) (size 9 to 14) (size 15 to 20)
#    0.000    2.667    0.000    6.000    0.000    2.000 
#    0.000    0.000    0.000   19.500    0.000    8.167 
#    0.000    0.000    0.000    0.000    0.000    0.000 
#
# Total GULP energy -267394.551638 kJ/mol
# GULP energy per Si atom -5570.719826 kJ/mol
# Density = 2.189059 g / cm^3
# Si number density = 21.940530 Si / 1000 Ang^3
#
#
#
# Elastic Constant Matrix: (Units=GPa)
#
#
# Indices 1 2 3 4 5 6 
#
# 1 297.2727 12.2753 77.6212 0.0000 0.0000 0.0000
# 2 12.2753 37.0276 2.4335 0.0000 0.0000 0.0000
# 3 77.6212 2.4335 106.7272 0.0000 0.0000 0.0000
# 4 0.0000 0.0000 0.0000 -14.6945 0.0000 0.0000
# 5 0.0000 0.0000 0.0000 0.0000 41.0962 0.0000
# 6 0.0000 0.0000 0.0000 0.0000 0.0000 25.5916
#
#
#
# Elastic Compliance Matrix: (Units=1/GPa)
#
#
# Indices 1 2 3 4 5 6 
#
# 1 0.004205 -0.001195 -0.003031 0.000000 0.000000 0.000000
# 2 -0.001195 0.027387 0.000244 0.000000 0.000000 0.000000
# 3 -0.003031 0.000244 0.011568 0.000000 0.000000 0.000000
# 4 0.000000 0.000000 0.000000 -0.068053 0.000000 0.000000
# 5 0.000000 0.000000 0.000000 0.000000 0.024333 0.000000
# 6 0.000000 0.000000 0.000000 0.000000 0.000000 0.039075
#
#
# Mechanical properties :
#
#
# Convention : Reuss Voigt Hill
#
# Bulk Modulus (GPa) = 28.41083 69.52082 48.96583
# Shear Modulus (GPa) = 85.89601 33.64517 59.77059
#
# Velocity S-wave (km/s) = 6.26374 3.92020 5.22506
# Velocity P-wave (km/s) = 8.08021 7.22810 7.66600
#
# Compressibility (1/GPa) = 0.03519784
#
# Stress axis : x y z
#
# Youngs Moduli (GPa) = 237.83489 36.51382 86.44311
#
# Poissons Ratio (x) = 0.04362 0.26198
# Poissons Ratio (y) = 0.28414 -0.02113
# Poissons Ratio (z) = 0.72081 -0.00893
#
# Static dielectric constant tensor:
#      x y z
#    x 1.936280 0.000000 0.000000 
#    y 0.000000 1.850480 0.000000 
#    z 0.000000 0.000000 1.732760 
# 
# From -- ./inp_files/9139.got.cif
#   From: 2010.05.17/outbox.cif.g08.bks.cpg/sg66_5_cif.got.tgz:9139.got - 2010.06.03 17:51:23.
