data_PCOD9495470
_publ_section_title
;
Structure prediction by ZEFSAII (Michael W. Deem and Ramdas Pophale) SiO2 
 PCOD9495470
Probable space group: C C C M
;
_chemical_formula_sum "Si O2"
_cell_formula_units_Z 112
_cell_length_a 12.161651
_cell_length_b 28.272917
_cell_length_c 14.774030
_cell_angle_alpha 90.000000
_cell_angle_beta 90.000000
_cell_angle_gamma 90.000000
_cell_volume 5079.981506
_symmetry_space_group_name_H-M "C C C M"
_symmetry_group_IT_number 66
_symmetry_cell_setting 'orthorhombic'
loop_
_space_group_symop_operation_xyz
x,y,z
-x,-y,z
x,-y,1/2-z
-x,y,1/2-z
-x,-y,-z
x,y,-z
-x,y,1/2+z
x,-y,1/2+z
1/2+x,1/2+y,z
1/2-x,1/2-y,z
1/2+x,1/2-y,1/2-z
1/2-x,1/2+y,1/2-z
1/2-x,1/2-y,-z
1/2+x,1/2+y,-z
1/2-x,1/2+y,1/2+z
1/2+x,1/2-y,1/2+z
loop_
_atom_site_type_symbol
_atom_site_label
_atom_site_fract_x
_atom_site_fract_y
_atom_site_fract_z
Si Si1 0.429223 0.957600 0.602616
Si Si2 0.285849 0.409836 0.610147
Si Si3 0.032588 0.904756 0.610751
Si Si4 0.671882 0.315142 0.389516
Si Si5 0.057572 0.369926 0.656587
Si Si6 0.303311 0.519352 0.610010
Si Si7 0.587216 0.785750 0.891144
O O1 0.407113 0.974316 0.500000
O O2 0.497957 0.909766 0.596321
O O3 0.306138 0.952202 0.639630
O O4 0.500000 0.000000 0.645675
O O5 0.276188 0.406755 0.500000
O O6 0.408136 0.395030 0.638344
O O7 0.186272 0.379716 0.650380
O O8 0.281402 0.465295 0.635610
O O9 0.029783 0.905911 0.500000
O O10 0.112503 0.862592 0.638623
O O11 0.087838 0.953685 0.642403
O O12 0.674054 0.314662 0.500000
O O13 0.603730 0.268432 0.361091
O O14 0.799121 0.311106 0.360862
O O15 0.000000 0.382457 0.750000
O O16 0.017312 0.316799 0.636428
O O17 0.315447 0.519315 0.500000
O O18 0.587294 0.785237 0.000000
#
# Coordination Sequence:
#
# PCOD9495470 Si02
#       7
#    16  16  16  16  16  16  16
#     4  10  18  32  54  77 101 133 179 230 270 313
#     4  10  19  33  51  76 113 150 181 219 265 322
#     4   9  16  27  50  83 114 138 172 221 269 322
#     4   8  15  30  57  88 103 122 172 234 282 316
#     4  12  24  35  50  74 112 146 184 218 270 333
#     4   9  16  28  50  81 110 139 176 219 270 316
#     4   9  17  33  59  82 103 132 174 232 281 317
#
# _framework density 22.047322999999999
#
# number of rings (size 3 to 8) (size 9 to 14) (size 15 to 20)
#    0.000    2.429    1.429    3.429    0.000    4.286 
#    0.000    0.714    6.286    6.000    0.000    4.000 
#    0.000    0.000    0.000    0.000    0.000    0.571 
#
# Total GULP energy -312484.530103 kJ/mol
# GULP energy per Si atom -5580.080895 kJ/mol
# Density = 2.199714 g / cm^3
# Si number density = 22.047323 Si / 1000 Ang^3
#
#
#
# Elastic Constant Matrix: (Units=GPa)
#
#
# Indices 1 2 3 4 5 6 
#
# 1 147.4930 54.9796 11.0667 0.0000 0.0000 0.0000
# 2 54.9796 84.6971 1.6205 0.0000 0.0000 0.0000
# 3 11.0667 1.6205 44.3039 0.0000 0.0000 0.0000
# 4 0.0000 0.0000 0.0000 15.7973 0.0000 0.0000
# 5 0.0000 0.0000 0.0000 0.0000 3.9454 0.0000
# 6 0.0000 0.0000 0.0000 0.0000 0.0000 38.5808
#
#
#
# Elastic Compliance Matrix: (Units=1/GPa)
#
#
# Indices 1 2 3 4 5 6 
#
# 1 0.009129 -0.005887 -0.002065 0.000000 0.000000 0.000000
# 2 -0.005887 0.015611 0.000899 0.000000 0.000000 0.000000
# 3 -0.002065 0.000899 0.023054 0.000000 0.000000 0.000000
# 4 0.000000 0.000000 0.000000 0.063302 0.000000 0.000000
# 5 0.000000 0.000000 0.000000 0.000000 0.253461 0.000000
# 6 0.000000 0.000000 0.000000 0.000000 0.000000 0.025920
#
#
# Mechanical properties :
#
#
# Convention : Reuss Voigt Hill
#
# Bulk Modulus (GPa) = 29.68259 45.75865 37.72062
# Shear Modulus (GPa) = 12.02469 25.58651 18.80560
#
# Velocity S-wave (km/s) = 2.33792 3.41035 2.92373
# Velocity P-wave (km/s) = 4.55853 6.02554 5.34262
#
# Compressibility (1/GPa) = 0.03368978
#
# Stress axis : x y z
#
# Youngs Moduli (GPa) = 109.53852 64.05849 43.37585
#
# Poissons Ratio (x) = 0.37708 0.08957
# Poissons Ratio (y) = 0.64480 -0.03901
# Poissons Ratio (z) = 0.22621 -0.05761
#
# Static dielectric constant tensor:
#      x y z
#    x 1.820660 0.000000 0.000000 
#    y 0.000000 1.799290 0.000000 
#    z 0.000000 0.000000 1.920210 
# 
# From -- ./inp_files/26989.got.cif
#   From: 2010.05.17/outbox.cif.g08.bks.cpg/sg66_14_cif.got.tgz:26989.got - 2010.06.03 17:51:23.
