data_PCOD9495550
_publ_section_title
;
Structure prediction by ZEFSAII (Michael W. Deem and Ramdas Pophale) SiO2 
 PCOD9495550
Probable space group: C C C M
;
_chemical_formula_sum "Si O2"
_cell_formula_units_Z 104
_cell_length_a 29.695085
_cell_length_b 8.180523
_cell_length_c 23.641495
_cell_angle_alpha 90.000000
_cell_angle_beta 90.000000
_cell_angle_gamma 90.000000
_cell_volume 5743.023310
_symmetry_space_group_name_H-M "C C C M"
_symmetry_group_IT_number 66
_symmetry_cell_setting 'orthorhombic'
loop_
_space_group_symop_operation_xyz
x,y,z
-x,-y,z
x,-y,1/2-z
-x,y,1/2-z
-x,-y,-z
x,y,-z
-x,y,1/2+z
x,-y,1/2+z
1/2+x,1/2+y,z
1/2-x,1/2-y,z
1/2+x,1/2-y,1/2-z
1/2-x,1/2+y,1/2-z
1/2-x,1/2-y,-z
1/2+x,1/2+y,-z
1/2-x,1/2+y,1/2+z
1/2+x,1/2-y,1/2+z
loop_
_atom_site_type_symbol
_atom_site_label
_atom_site_fract_x
_atom_site_fract_y
_atom_site_fract_z
Si Si1 0.068060 0.871947 0.087177
Si Si2 0.697059 0.249494 0.824716
Si Si3 0.350091 0.871178 0.935853
Si Si4 0.105036 0.358560 0.862115
Si Si5 0.468064 0.265745 0.063422
Si Si6 0.377059 0.496060 0.815709
Si Si7 0.140513 0.500000 0.250000
O O1 0.108790 0.761574 0.063238
O O2 0.085249 0.899709 0.151031
O O3 0.020469 0.785785 0.077514
O O4 0.056933 0.055435 0.064312
O O5 0.750000 0.250000 0.815530
O O6 0.685139 0.185083 0.887793
O O7 0.671830 0.422491 0.821451
O O8 0.672425 0.139901 0.776733
O O9 0.368369 0.041730 0.910232
O O10 0.333270 0.887140 0.000000
O O11 0.055895 0.337416 0.888221
O O12 0.109934 0.451274 0.803051
O O13 0.123335 0.179522 0.845719
O O14 0.462856 0.198647 0.000000
O O15 0.388755 0.500000 0.750000
#
# Coordination Sequence:
#
# PCOD9495550 Si02
#       7
#    16  16  16  16  16  16   8
#     4   9  19  33  55  84 109 148 189 230 282 324
#     4  10  22  36  60  88 107 141 184 230 284 342
#     4  10  20  37  57  80 117 151 184 233 287 335
#     4  10  21  34  55  79 108 150 188 227 280 338
#     4  10  18  33  56  82 110 144 198 241 270 327
#     4  10  19  37  59  78 113 146 183 226 281 343
#     4  10  20  36  54  77 114 140 180 229 286 342
#
# _framework density 18.108927999999999
#
# number of rings (size 3 to 8) (size 9 to 14) (size 15 to 20)
#    0.000    2.154    1.538    2.308    1.077    0.923 
#    0.000   10.769    3.385    0.923    0.000    0.000 
#    0.000    0.000    0.000    0.000    0.000    0.000 
#
# Total GULP energy -289621.238674 kJ/mol
# GULP energy per Si atom -5569.639205 kJ/mol
# Density = 1.806771 g / cm^3
# Si number density = 18.108928 Si / 1000 Ang^3
#
#
#
# Elastic Constant Matrix: (Units=GPa)
#
#
# Indices 1 2 3 4 5 6 
#
# 1 78.2827 7.0407 39.3528 0.0000 0.0000 0.0000
# 2 7.0407 33.0000 12.0377 0.0000 0.0000 0.0000
# 3 39.3528 12.0377 144.4052 0.0000 0.0000 0.0000
# 4 0.0000 0.0000 0.0000 13.8690 0.0000 0.0000
# 5 0.0000 0.0000 0.0000 0.0000 5.6951 0.0000
# 6 0.0000 0.0000 0.0000 0.0000 0.0000 11.3309
#
#
#
# Elastic Compliance Matrix: (Units=1/GPa)
#
#
# Indices 1 2 3 4 5 6 
#
# 1 0.014899 -0.001751 -0.003914 0.000000 0.000000 0.000000
# 2 -0.001751 0.031459 -0.002145 0.000000 0.000000 0.000000
# 3 -0.003914 -0.002145 0.008171 0.000000 0.000000 0.000000
# 4 0.000000 0.000000 0.000000 0.072103 0.000000 0.000000
# 5 0.000000 0.000000 0.000000 0.000000 0.175589 0.000000
# 6 0.000000 0.000000 0.000000 0.000000 0.000000 0.088254
#
#
# Mechanical properties :
#
#
# Convention : Reuss Voigt Hill
#
# Bulk Modulus (GPa) = 25.70178 41.39447 33.54812
# Shear Modulus (GPa) = 11.93129 19.32945 15.63037
#
# Velocity S-wave (km/s) = 2.56962 3.27065 2.94110
# Velocity P-wave (km/s) = 4.79871 6.09681 5.48629
#
# Compressibility (1/GPa) = 0.03890782
#
# Stress axis : x y z
#
# Youngs Moduli (GPa) = 67.11649 31.78727 122.39115
#
# Poissons Ratio (x) = 0.05566 0.47909
# Poissons Ratio (y) = 0.11752 0.26256
# Poissons Ratio (z) = 0.26272 0.06819
#
# Static dielectric constant tensor:
#      x y z
#    x 1.578780 0.000000 0.000000 
#    y 0.000000 1.700470 0.000000 
#    z 0.000000 0.000000 1.617970 
# 
# From -- ./inp_files/60170.got.cif
#   From: 2010.05.17/outbox.cif.g08.bks.cpg/sg66_31_cif.got.tgz:60170.got - 2010.06.03 17:51:23.
