data_PCOD9495370
_publ_section_title
;
Structure prediction by ZEFSAII (Michael W. Deem and Ramdas Pophale) SiO2 
 PCOD9495370
Probable space group: C C C M
;
_chemical_formula_sum "Si O2"
_cell_formula_units_Z 64
_cell_length_a 18.025883
_cell_length_b 9.427604
_cell_length_c 19.023404
_cell_angle_alpha 90.000000
_cell_angle_beta 90.000000
_cell_angle_gamma 90.000000
_cell_volume 3232.854143
_symmetry_space_group_name_H-M "C C C M"
_symmetry_group_IT_number 66
_symmetry_cell_setting 'orthorhombic'
loop_
_space_group_symop_operation_xyz
x,y,z
-x,-y,z
x,-y,1/2-z
-x,y,1/2-z
-x,-y,-z
x,y,-z
-x,y,1/2+z
x,-y,1/2+z
1/2+x,1/2+y,z
1/2-x,1/2-y,z
1/2+x,1/2-y,1/2-z
1/2-x,1/2+y,1/2-z
1/2-x,1/2-y,-z
1/2+x,1/2+y,-z
1/2-x,1/2+y,1/2+z
1/2+x,1/2-y,1/2+z
loop_
_atom_site_type_symbol
_atom_site_label
_atom_site_fract_x
_atom_site_fract_y
_atom_site_fract_z
Si Si1 0.585004 0.342624 0.724767
Si Si2 0.026683 0.160581 0.922853
Si Si3 0.808794 0.626760 0.698630
Si Si4 0.075629 0.416764 0.417767
O O1 0.608725 0.500000 0.750000
O O2 0.500000 0.329776 0.750000
O O3 0.583190 0.325438 0.640860
O O4 0.631513 0.217034 0.757455
O O5 0.953420 0.255403 0.912056
O O6 0.056847 0.198619 0.000000
O O7 0.000000 0.000000 0.922584
O O8 0.781300 0.500000 0.750000
O O9 0.750000 0.750000 0.678015
O O10 0.854007 0.563735 0.632222
O O11 0.090675 0.448033 0.500000
O O12 0.000000 0.500000 0.396827
#
# Coordination Sequence:
#
# PCOD9495370 Si02
#       4
#    16  16  16  16
#     4  11  19  35  60  88 120 158 206 258 306 375
#     4  10  18  30  53  87 119 151 196 254 306 357
#     4  12  26  40  61  88 126 165 209 259 321 377
#     4  10  21  38  62  92 121 156 209 263 312 378
#
# _framework density 19.796748999999998
#
# number of rings (size 3 to 8) (size 9 to 14) (size 15 to 20)
#    0.000    1.250    5.000    2.250    0.000    0.500 
#    0.000    0.000    0.000    6.000    0.000    0.000 
#    0.000    0.000    0.000    0.000    0.000    0.000 
#
# Total GULP energy -178545.757141 kJ/mol
# GULP energy per Si atom -5579.554911 kJ/mol
# Density = 1.975169 g / cm^3
# Si number density = 19.796749 Si / 1000 Ang^3
#
#
#
# Elastic Constant Matrix: (Units=GPa)
#
#
# Indices 1 2 3 4 5 6 
#
# 1 81.0562 23.9980 40.9472 0.0000 0.0000 0.0000
# 2 23.9980 71.6046 1.0920 0.0000 0.0000 0.0000
# 3 40.9472 1.0920 143.0164 0.0000 0.0000 0.0000
# 4 0.0000 0.0000 0.0000 23.2932 0.0000 0.0000
# 5 0.0000 0.0000 0.0000 0.0000 12.9813 0.0000
# 6 0.0000 0.0000 0.0000 0.0000 0.0000 24.8723
#
#
#
# Elastic Compliance Matrix: (Units=1/GPa)
#
#
# Indices 1 2 3 4 5 6 
#
# 1 0.016261 -0.005379 -0.004615 0.000000 0.000000 0.000000
# 2 -0.005379 0.015747 0.001420 0.000000 0.000000 0.000000
# 3 -0.004615 0.001420 0.008303 0.000000 0.000000 0.000000
# 4 0.000000 0.000000 0.000000 0.042931 0.000000 0.000000
# 5 0.000000 0.000000 0.000000 0.000000 0.077034 0.000000
# 6 0.000000 0.000000 0.000000 0.000000 0.000000 0.040205
#
#
# Mechanical properties :
#
#
# Convention : Reuss Voigt Hill
#
# Bulk Modulus (GPa) = 43.17381 47.52794 45.35088
# Shear Modulus (GPa) = 22.18775 27.53870 24.86323
#
# Velocity S-wave (km/s) = 3.35143 3.73375 3.54775
# Velocity P-wave (km/s) = 6.06894 6.53054 6.30397
#
# Compressibility (1/GPa) = 0.02316219
#
# Stress axis : x y z
#
# Youngs Moduli (GPa) = 61.49710 63.50494 120.44453
#
# Poissons Ratio (x) = 0.34162 0.55580
# Poissons Ratio (y) = 0.33082 -0.17103
# Poissons Ratio (z) = 0.28379 -0.09017
#
# Static dielectric constant tensor:
#      x y z
#    x 1.677930 0.000000 0.000000 
#    y 0.000000 1.761620 0.000000 
#    z 0.000000 0.000000 1.769180 
# 
# From -- ./inp_files/36327.got.cif
#   From: 2010.05.17/outbox.cif.g08.bks.cpg/sg66_19_cif.got.tgz:36327.got - 2010.06.03 17:51:23.
