data_PCOD9495794
_publ_section_title
;
Structure prediction by ZEFSAII (Michael W. Deem and Ramdas Pophale) SiO2 
 PCOD9495794
Probable space group: C C C M
;
_chemical_formula_sum "Si O2"
_cell_formula_units_Z 68
_cell_length_a 19.713372
_cell_length_b 7.711513
_cell_length_c 19.998725
_cell_angle_alpha 90.000000
_cell_angle_beta 90.000000
_cell_angle_gamma 90.000000
_cell_volume 3040.204664
_symmetry_space_group_name_H-M "C C C M"
_symmetry_group_IT_number 66
_symmetry_cell_setting 'orthorhombic'
loop_
_space_group_symop_operation_xyz
x,y,z
-x,-y,z
x,-y,1/2-z
-x,y,1/2-z
-x,-y,-z
x,y,-z
-x,y,1/2+z
x,-y,1/2+z
1/2+x,1/2+y,z
1/2-x,1/2-y,z
1/2+x,1/2-y,1/2-z
1/2-x,1/2+y,1/2-z
1/2-x,1/2-y,-z
1/2+x,1/2+y,-z
1/2-x,1/2+y,1/2+z
1/2+x,1/2-y,1/2+z
loop_
_atom_site_type_symbol
_atom_site_label
_atom_site_fract_x
_atom_site_fract_y
_atom_site_fract_z
Si Si1 0.500000 0.000000 0.250000
Si Si2 0.914089 0.662310 0.133592
Si Si3 0.866305 0.038782 0.171100
Si Si4 0.220751 0.448170 0.825021
Si Si5 0.463882 0.311337 0.571970
O O1 0.451957 0.113250 0.202298
O O2 0.845633 0.549808 0.128491
O O3 0.975153 0.675601 0.081452
O O4 0.886341 0.857433 0.137602
O O5 0.914015 0.180538 0.135948
O O6 0.876259 0.000000 0.250000
O O7 0.786387 0.064181 0.158923
O O8 0.199043 0.500000 0.750000
O O9 0.250000 0.250000 0.822335
O O10 0.500000 0.500000 0.570899
O O11 0.429499 0.286883 0.500000
#
# Coordination Sequence:
#
# PCOD9495794 Si02
#       5
#     4  16  16  16  16
#     4  12  20  28  48  76 104 136 166 212 276 324
#     4  10  19  30  47  74 106 133 172 220 271 329
#     4   9  17  31  53  76 101 133 178 229 274 321
#     4   9  17  31  49  75 107 136 172 226 284 332
#     4   9  18  33  52  75 105 142 179 220 272 331
#
# _framework density 22.366916
#
# number of rings (size 3 to 8) (size 9 to 14) (size 15 to 20)
#    0.000    2.588    1.176    1.412    0.000    3.294 
#    0.000    1.765    0.000    7.059    0.000    1.647 
#    0.000    0.000    0.000    0.000    0.000    0.000 
#
# Total GULP energy -189489.996191 kJ/mol
# GULP energy per Si atom -5573.235182 kJ/mol
# Density = 2.231601 g / cm^3
# Si number density = 22.366916 Si / 1000 Ang^3
#
#
#
# Elastic Constant Matrix: (Units=GPa)
#
#
# Indices 1 2 3 4 5 6 
#
# 1 165.5792 26.2563 62.9656 0.0000 0.0000 0.0000
# 2 26.2563 48.9768 6.8329 0.0000 0.0000 0.0000
# 3 62.9656 6.8329 88.1580 0.0000 0.0000 0.0000
# 4 0.0000 0.0000 0.0000 8.0193 0.0000 0.0000
# 5 0.0000 0.0000 0.0000 0.0000 35.2718 0.0000
# 6 0.0000 0.0000 0.0000 0.0000 0.0000 17.1775
#
#
#
# Elastic Compliance Matrix: (Units=1/GPa)
#
#
# Indices 1 2 3 4 5 6 
#
# 1 0.008995 -0.003969 -0.006117 0.000000 0.000000 0.000000
# 2 -0.003969 0.022392 0.001099 0.000000 0.000000 0.000000
# 3 -0.006117 0.001099 0.015627 0.000000 0.000000 0.000000
# 4 0.000000 0.000000 0.000000 0.124699 0.000000 0.000000
# 5 0.000000 0.000000 0.000000 0.000000 0.028351 0.000000
# 6 0.000000 0.000000 0.000000 0.000000 0.000000 0.058216
#
#
# Mechanical properties :
#
#
# Convention : Reuss Voigt Hill
#
# Bulk Modulus (GPa) = 34.43422 54.98040 44.70731
# Shear Modulus (GPa) = 17.48662 25.87100 21.67881
#
# Velocity S-wave (km/s) = 2.79911 3.40467 3.11663
# Velocity P-wave (km/s) = 5.08678 6.33168 5.74306
#
# Compressibility (1/GPa) = 0.02904087
#
# Stress axis : x y z
#
# Youngs Moduli (GPa) = 111.17542 44.65861 63.99215
#
# Poissons Ratio (x) = 0.17724 0.39143
# Poissons Ratio (y) = 0.44122 -0.07033
# Poissons Ratio (z) = 0.68004 -0.04908
#
# Static dielectric constant tensor:
#      x y z
#    x 1.880550 0.000000 0.000000 
#    y 0.000000 1.698630 0.000000 
#    z 0.000000 0.000000 1.793550 
# 
# From -- ./inp_files/58616.got.cif
#   From: 2010.05.17/outbox.cif.g08.bks.cpg/sg66_30_cif.got.tgz:58616.got - 2010.06.03 17:51:23.
