data_PCOD9495105
_publ_section_title
;
Structure prediction by ZEFSAII (Michael W. Deem and Ramdas Pophale) SiO2 
 PCOD9495105
Probable space group: C C C M
;
_chemical_formula_sum "Si O2"
_cell_formula_units_Z 40
_cell_length_a 19.960408
_cell_length_b 13.089798
_cell_length_c 5.682185
_cell_angle_alpha 90.000000
_cell_angle_beta 90.000000
_cell_angle_gamma 90.000000
_cell_volume 1484.628277
_symmetry_space_group_name_H-M "C C C M"
_symmetry_group_IT_number 66
_symmetry_cell_setting 'orthorhombic'
loop_
_space_group_symop_operation_xyz
x,y,z
-x,-y,z
x,-y,1/2-z
-x,y,1/2-z
-x,-y,-z
x,y,-z
-x,y,1/2+z
x,-y,1/2+z
1/2+x,1/2+y,z
1/2-x,1/2-y,z
1/2+x,1/2-y,1/2-z
1/2-x,1/2+y,1/2-z
1/2-x,1/2-y,-z
1/2+x,1/2+y,-z
1/2-x,1/2+y,1/2+z
1/2+x,1/2-y,1/2+z
loop_
_atom_site_type_symbol
_atom_site_label
_atom_site_fract_x
_atom_site_fract_y
_atom_site_fract_z
Si Si1 0.811900 0.335427 0.500000
Si Si2 0.973080 0.324672 0.500000
Si Si3 0.422171 0.369769 0.000000
Si Si4 0.121195 0.092999 0.500000
Si Si5 0.766207 0.627091 0.500000
O O1 0.750000 0.250000 0.500000
O O2 0.892745 0.320763 0.500000
O O3 0.801846 0.388472 0.752111
O O4 0.987708 0.200917 0.500000
O O5 0.000000 0.365957 0.750000
O O6 0.386245 0.350953 0.748937
O O7 0.425271 0.492928 0.000000
O O8 0.198625 0.061272 0.500000
O O9 0.750000 0.750000 0.500000
#
# Coordination Sequence:
#
# PCOD9495105 Si02
#       5
#     8   8   8   8   8
#     4  10  20  34  56  78 101 141 190 239 284 321
#     4  12  24  39  56  81 116 157 196 231 272 332
#     4  10  20  35  51  71 109 154 180 223 271 316
#     4  10  19  33  53  77 105 143 194 236 265 316
#     4  10  17  29  52  77  97 129 180 241 289 311
#
# _framework density 26.942769999999999
#
# number of rings (size 3 to 8) (size 9 to 14) (size 15 to 20)
#    0.000    1.600    0.000    8.400    0.000    0.000 
#    0.000   12.000    0.000    0.000    0.000    0.000 
#    0.000    0.000    0.000  417.600    0.000    0.000 
#
# Total GULP energy -111515.081768 kJ/mol
# GULP energy per Si atom -5575.754088 kJ/mol
# Density = 2.688145 g / cm^3
# Si number density = 26.942770 Si / 1000 Ang^3
#
#
#
# Elastic Constant Matrix: (Units=GPa)
#
#
# Indices 1 2 3 4 5 6 
#
# 1 175.8178 14.0967 95.7876 0.0000 0.0000 0.0000
# 2 14.0967 69.1503 10.2614 0.0000 0.0000 0.0000
# 3 95.7876 10.2614 397.8687 0.0000 0.0000 0.0000
# 4 0.0000 0.0000 0.0000 -0.5633 0.0000 0.0000
# 5 0.0000 0.0000 0.0000 0.0000 52.2317 0.0000
# 6 0.0000 0.0000 0.0000 0.0000 0.0000 19.4466
#
#
#
# Elastic Compliance Matrix: (Units=1/GPa)
#
#
# Indices 1 2 3 4 5 6 
#
# 1 0.006632 -0.001119 -0.001568 0.000000 0.000000 0.000000
# 2 -0.001119 0.014706 -0.000110 0.000000 0.000000 0.000000
# 3 -0.001568 -0.000110 0.002894 0.000000 0.000000 0.000000
# 4 0.000000 0.000000 0.000000 -1.775240 0.000000 0.000000
# 5 0.000000 0.000000 0.000000 0.000000 0.019145 0.000000
# 6 0.000000 0.000000 0.000000 0.000000 0.000000 0.051423
#
#
# Mechanical properties :
#
#
# Convention : Reuss Voigt Hill
#
# Bulk Modulus (GPa) = 53.65555 98.12537 75.89046
# Shear Modulus (GPa) = -2.99646 49.06908 23.03631
#
# Velocity S-wave (km/s) = -1.05573 4.27222 2.92723
# Velocity P-wave (km/s) = 4.29788 7.79967 6.29709
#
# Compressibility (1/GPa) = 0.01863740
#
# Stress axis : x y z
#
# Youngs Moduli (GPa) = 150.79449 68.00080 345.58447
#
# Poissons Ratio (x) = 0.07611 0.54177
# Poissons Ratio (y) = 0.16878 0.03795
# Poissons Ratio (z) = 0.23640 0.00747
#
# Static dielectric constant tensor:
#      x y z
#    x 2.173740 0.000000 0.000000 
#    y 0.000000 2.104240 0.000000 
#    z 0.000000 0.000000 2.111960 
# 
# From -- ./inp_files/845.got.cif
#   From: 2010.05.17/outbox.cif.g08.bks.cpg/sg66_1_cif.got.tgz:845.got - 2010.06.03 17:51:23.
