data_PCOD9495147
_publ_section_title
;
Structure prediction by ZEFSAII (Michael W. Deem and Ramdas Pophale) SiO2 
 PCOD9495147
Probable space group: C C C M
;
_chemical_formula_sum "Si O2"
_cell_formula_units_Z 48
_cell_length_a 23.518741
_cell_length_b 13.404979
_cell_length_c 5.597157
_cell_angle_alpha 90.000000
_cell_angle_beta 90.000000
_cell_angle_gamma 90.000000
_cell_volume 1764.605776
_symmetry_space_group_name_H-M "C C C M"
_symmetry_group_IT_number 66
_symmetry_cell_setting 'orthorhombic'
loop_
_space_group_symop_operation_xyz
x,y,z
-x,-y,z
x,-y,1/2-z
-x,y,1/2-z
-x,-y,-z
x,y,-z
-x,y,1/2+z
x,-y,1/2+z
1/2+x,1/2+y,z
1/2-x,1/2-y,z
1/2+x,1/2-y,1/2-z
1/2-x,1/2+y,1/2-z
1/2-x,1/2-y,-z
1/2+x,1/2+y,-z
1/2-x,1/2+y,1/2+z
1/2+x,1/2-y,1/2+z
loop_
_atom_site_type_symbol
_atom_site_label
_atom_site_fract_x
_atom_site_fract_y
_atom_site_fract_z
Si Si1 0.570006 0.059184 0.000000
Si Si2 0.314146 0.309152 0.500000
Si Si3 0.513803 0.249700 0.500000
Si Si4 0.203598 0.440731 0.500000
Si Si5 0.143332 0.218640 0.000000
Si Si6 0.598086 0.496307 0.000000
O O1 0.636610 0.084933 0.000000
O O2 0.560889 0.000000 0.750000
O O3 0.471922 0.845901 0.000000
O O4 0.252551 0.358133 0.500000
O O5 0.325608 0.256788 0.754511
O O6 0.361181 0.399595 0.500000
O O7 0.500000 0.302030 0.250000
O O8 0.581150 0.230836 0.500000
O O9 0.212791 0.500000 0.750000
O O10 0.134856 0.098624 0.000000
O O11 0.566597 0.500000 0.750000
#
# Coordination Sequence:
#
# PCOD9495147 Si02
#       6
#     8   8   8   8   8   8
#     4  10  23  42  67  99 129 163 215 272 329 399
#     4  10  17  31  59  93 129 166 208 259 319 384
#     4  12  26  44  66  87 123 174 224 276 332 381
#     4  10  18  32  59  99 137 165 204 263 331 399
#     4  10  20  34  56  88 125 172 217 258 317 384
#     4   8  14  25  47  78 113 150 194 241 292 354
#
# _framework density 27.201543999999998
#
# number of rings (size 3 to 8) (size 9 to 14) (size 15 to 20)
#    0.000    2.000    0.000    6.000    0.000    2.000 
#    0.000    0.000    0.000   33.000    0.000    0.000 
#    0.000    0.000    0.000   27.000    0.000    0.000 
#
# Total GULP energy -134465.074814 kJ/mol
# GULP energy per Si atom -5602.711451 kJ/mol
# Density = 2.713963 g / cm^3
# Si number density = 27.201544 Si / 1000 Ang^3
#
#
#
# Elastic Constant Matrix: (Units=GPa)
#
#
# Indices 1 2 3 4 5 6 
#
# 1 216.3093 22.9849 118.5740 0.0000 0.0000 0.0000
# 2 22.9849 69.0549 65.2495 0.0000 0.0000 0.0000
# 3 118.5740 65.2495 370.6960 0.0000 0.0000 0.0000
# 4 0.0000 0.0000 0.0000 24.8382 0.0000 0.0000
# 5 0.0000 0.0000 0.0000 0.0000 -118.9160 0.0000
# 6 0.0000 0.0000 0.0000 0.0000 0.0000 59.0074
#
#
#
# Elastic Compliance Matrix: (Units=1/GPa)
#
#
# Indices 1 2 3 4 5 6 
#
# 1 0.005608 -0.000206 -0.001758 0.000000 0.000000 0.000000
# 2 -0.000206 0.017378 -0.002993 0.000000 0.000000 0.000000
# 3 -0.001758 -0.002993 0.003787 0.000000 0.000000 0.000000
# 4 0.000000 0.000000 0.000000 0.040261 0.000000 0.000000
# 5 0.000000 0.000000 0.000000 0.000000 -0.008409 0.000000
# 6 0.000000 0.000000 0.000000 0.000000 0.000000 0.016947
#
#
# Mechanical properties :
#
#
# Convention : Reuss Voigt Hill
#
# Bulk Modulus (GPa) = 59.31288 118.85298 89.08293
# Shear Modulus (GPa) = 54.88214 22.93604 38.90909
#
# Velocity S-wave (km/s) = 4.49666 2.90692 3.78617
# Velocity P-wave (km/s) = 6.98657 7.41992 7.20651
#
# Compressibility (1/GPa) = 0.01685974
#
# Stress axis : x y z
#
# Youngs Moduli (GPa) = 178.30362 57.54468 264.08343
#
# Poissons Ratio (x) = 0.01185 0.46418
# Poissons Ratio (y) = 0.03671 0.79039
# Poissons Ratio (z) = 0.31341 0.17223
#
# Static dielectric constant tensor:
#      x y z
#    x 2.042570 0.000000 0.000000 
#    y 0.000000 2.187270 0.000000 
#    z 0.000000 0.000000 2.160540 
# 
# From -- ./inp_files/1379.got.cif
#   From: 2010.05.17/outbox.cif.g08.bks.cpg/sg66_1_cif.got.tgz:1379.got - 2010.06.03 17:51:23.
