data_PCOD9495043
_publ_section_title
;
Structure prediction by ZEFSAII (Michael W. Deem and Ramdas Pophale) SiO2 
 PCOD9495043
Probable space group: C C C M
;
_chemical_formula_sum "Si O2"
_cell_formula_units_Z 80
_cell_length_a 26.587013
_cell_length_b 17.613937
_cell_length_c 8.597803
_cell_angle_alpha 90.000000
_cell_angle_beta 90.000000
_cell_angle_gamma 90.000000
_cell_volume 4026.368100
_symmetry_space_group_name_H-M "C C C M"
_symmetry_group_IT_number 66
_symmetry_cell_setting 'orthorhombic'
loop_
_space_group_symop_operation_xyz
x,y,z
-x,-y,z
x,-y,1/2-z
-x,y,1/2-z
-x,-y,-z
x,y,-z
-x,y,1/2+z
x,-y,1/2+z
1/2+x,1/2+y,z
1/2-x,1/2-y,z
1/2+x,1/2-y,1/2-z
1/2-x,1/2+y,1/2-z
1/2-x,1/2-y,-z
1/2+x,1/2+y,-z
1/2-x,1/2+y,1/2+z
1/2+x,1/2-y,1/2+z
loop_
_atom_site_type_symbol
_atom_site_label
_atom_site_fract_x
_atom_site_fract_y
_atom_site_fract_z
Si Si1 0.233102 0.919716 0.813641
Si Si2 0.344588 0.873194 0.814512
Si Si3 0.447774 0.298599 0.685671
Si Si4 0.156900 0.202362 0.814781
Si Si5 0.551355 0.874408 0.814988
O O1 0.292047 0.911984 0.772543
O O2 0.201839 0.851402 0.738991
O O3 0.214219 0.000000 0.750000
O O4 0.228631 0.915873 0.000000
O O5 0.338538 0.785401 0.762252
O O6 0.394580 0.906602 0.734634
O O7 0.351614 0.875885 0.000000
O O8 0.500000 0.331820 0.750000
O O9 0.446856 0.301074 0.500000
O O10 0.396486 0.331260 0.756451
O O11 0.447512 0.210518 0.741612
O O12 0.155990 0.211115 0.000000
O O13 0.500000 0.910447 0.750000
O O14 0.548190 0.869065 0.000000
#
# Coordination Sequence:
#
# PCOD9495043 Si02
#       5
#    16  16  16  16  16
#     4  11  24  40  57  77 105 141 179 222 270 319
#     4  10  20  35  55  80 109 140 177 220 266 314
#     4  10  17  28  47  74 108 140 173 214 262 311
#     4  11  21  34  55  82 110 141 179 220 263 313
#     4  10  17  27  46  74 107 139 172 212 261 312
#
# _framework density 19.869022000000001
#
# number of rings (size 3 to 8) (size 9 to 14) (size 15 to 20)
#    0.000    1.600    0.000   10.800    0.000    5.600 
#    0.000    0.000    0.000    1.200    0.000    8.400 
#    0.000    0.000    0.000    0.000    0.000    0.000 
#
# Total GULP energy -223456.708731 kJ/mol
# GULP energy per Si atom -5586.417718 kJ/mol
# Density = 1.982380 g / cm^3
# Si number density = 19.869022 Si / 1000 Ang^3
#
#
#
# Elastic Constant Matrix: (Units=GPa)
#
#
# Indices 1 2 3 4 5 6 
#
# 1 119.1982 19.2673 27.4170 0.0000 0.0000 0.0000
# 2 19.2673 48.7587 -2.4571 0.0000 0.0000 0.0000
# 3 27.4170 -2.4571 64.0510 0.0000 0.0000 0.0000
# 4 0.0000 0.0000 0.0000 -54.4480 0.0000 0.0000
# 5 0.0000 0.0000 0.0000 0.0000 39.5086 0.0000
# 6 0.0000 0.0000 0.0000 0.0000 0.0000 -17.6251
#
#
#
# Elastic Compliance Matrix: (Units=1/GPa)
#
#
# Indices 1 2 3 4 5 6 
#
# 1 0.010103 -0.004218 -0.004486 0.000000 0.000000 0.000000
# 2 -0.004218 0.022310 0.002662 0.000000 0.000000 0.000000
# 3 -0.004486 0.002662 0.017635 0.000000 0.000000 0.000000
# 4 0.000000 0.000000 0.000000 -0.018366 0.000000 0.000000
# 5 0.000000 0.000000 0.000000 0.000000 0.025311 0.000000
# 6 0.000000 0.000000 0.000000 0.000000 0.000000 -0.056737
#
#
# Mechanical properties :
#
#
# Convention : Reuss Voigt Hill
#
# Bulk Modulus (GPa) = 26.34228 35.60691 30.97460
# Shear Modulus (GPa) = 200.02522 6.00580 103.01551
#
# Velocity S-wave (km/s) = 10.04442 1.74048 7.20832
# Velocity P-wave (km/s) = 12.15760 4.69028 9.21428
#
# Compressibility (1/GPa) = 0.03796178
#
# Stress axis : x y z
#
# Youngs Moduli (GPa) = 98.97851 44.82249 56.70505
#
# Poissons Ratio (x) = 0.18908 0.25441
# Poissons Ratio (y) = 0.41753 -0.15092
# Poissons Ratio (z) = 0.44407 -0.11930
#
# Static dielectric constant tensor:
#      x y z
#    x 1.772330 0.000000 0.000000 
#    y 0.000000 1.665120 0.000000 
#    z 0.000000 0.000000 1.657670 
# 
# From -- ./inp_files/10081.got.cif
#   From: 2010.05.17/outbox.cif.g08.bks.cpg/sg66_6_cif.got.tgz:10081.got - 2010.06.03 17:51:23.
