data_PCOD9495268
_publ_section_title
;
Structure prediction by ZEFSAII (Michael W. Deem and Ramdas Pophale) SiO2 
 PCOD9495268
Probable space group: C C C M
;
_chemical_formula_sum "Si O2"
_cell_formula_units_Z 80
_cell_length_a 20.040237
_cell_length_b 15.178276
_cell_length_c 14.062668
_cell_angle_alpha 90.000000
_cell_angle_beta 90.000000
_cell_angle_gamma 90.000000
_cell_volume 4277.529593
_symmetry_space_group_name_H-M "C C C M"
_symmetry_group_IT_number 66
_symmetry_cell_setting 'orthorhombic'
loop_
_space_group_symop_operation_xyz
x,y,z
-x,-y,z
x,-y,1/2-z
-x,y,1/2-z
-x,-y,-z
x,y,-z
-x,y,1/2+z
x,-y,1/2+z
1/2+x,1/2+y,z
1/2-x,1/2-y,z
1/2+x,1/2-y,1/2-z
1/2-x,1/2+y,1/2-z
1/2-x,1/2-y,-z
1/2+x,1/2+y,-z
1/2-x,1/2+y,1/2+z
1/2+x,1/2-y,1/2+z
loop_
_atom_site_type_symbol
_atom_site_label
_atom_site_fract_x
_atom_site_fract_y
_atom_site_fract_z
Si Si1 0.677019 0.065766 0.394279
Si Si2 0.338405 0.316568 0.303909
Si Si3 0.928509 0.964769 0.388971
Si Si4 0.829876 0.870168 0.102676
Si Si5 0.815429 0.374832 0.817821
O O1 0.649728 0.090429 0.500000
O O2 0.755216 0.092089 0.397595
O O3 0.658749 0.105410 0.290182
O O4 0.669582 0.960574 0.379957
O O5 0.395733 0.383148 0.335192
O O6 0.339410 0.305558 0.190048
O O7 0.265452 0.360674 0.320618
O O8 0.342650 0.220241 0.349420
O O9 0.935040 0.940094 0.500000
O O10 0.877854 0.046527 0.383096
O O11 0.000000 0.000000 0.356349
O O12 0.843207 0.828989 0.000000
#
# Coordination Sequence:
#
# PCOD9495268 Si02
#       5
#    16  16  16  16  16
#     4   9  16  29  45  62  92 126 155 195 247 296
#     4  10  18  29  44  65  94 125 164 208 242 281
#     4  10  20  32  46  66  93 127 166 201 239 289
#     4   9  17  29  44  62  88 124 161 195 239 293
#     4   9  18  28  43  68  92 123 167 203 238 296
#
# _framework density 18.702383000000001
#
# number of rings (size 3 to 8) (size 9 to 14) (size 15 to 20)
#    0.000    2.600    2.000    0.600    0.000    3.200 
#    0.000    6.000    0.000    0.000    0.000    0.000 
#    0.000   12.800    0.000   36.000    0.000    0.800 
#
# Total GULP energy -222734.942521 kJ/mol
# GULP energy per Si atom -5568.373563 kJ/mol
# Density = 1.865982 g / cm^3
# Si number density = 18.702383 Si / 1000 Ang^3
#
#
#
# Elastic Constant Matrix: (Units=GPa)
#
#
# Indices 1 2 3 4 5 6 
#
# 1 24.3852 5.1419 4.2674 0.0000 0.0000 0.0000
# 2 5.1419 66.6559 12.1881 0.0000 0.0000 0.0000
# 3 4.2674 12.1881 63.7204 0.0000 0.0000 0.0000
# 4 0.0000 0.0000 0.0000 -17.4286 0.0000 0.0000
# 5 0.0000 0.0000 0.0000 0.0000 4.3941 0.0000
# 6 0.0000 0.0000 0.0000 0.0000 0.0000 18.3451
#
#
#
# Elastic Compliance Matrix: (Units=1/GPa)
#
#
# Indices 1 2 3 4 5 6 
#
# 1 0.042002 -0.002825 -0.002273 0.000000 0.000000 0.000000
# 2 -0.002825 0.015736 -0.002821 0.000000 0.000000 0.000000
# 3 -0.002273 -0.002821 0.016385 0.000000 0.000000 0.000000
# 4 0.000000 0.000000 0.000000 -0.057377 0.000000 0.000000
# 5 0.000000 0.000000 0.000000 0.000000 0.227578 0.000000
# 6 0.000000 0.000000 0.000000 0.000000 0.000000 0.054510
#
#
# Mechanical properties :
#
#
# Convention : Reuss Voigt Hill
#
# Bulk Modulus (GPa) = 17.15636 21.99515 19.57576
# Shear Modulus (GPa) = 14.96559 9.93972 12.45265
#
# Velocity S-wave (km/s) = 2.83184 2.30786 2.58317
# Velocity P-wave (km/s) = 4.45934 4.34601 4.40304
#
# Compressibility (1/GPa) = 0.05828741
#
# Stress axis : x y z
#
# Youngs Moduli (GPa) = 23.80847 63.54824 61.03030
#
# Poissons Ratio (x) = 0.17949 0.13870
# Poissons Ratio (y) = 0.06725 0.17215
# Poissons Ratio (z) = 0.05411 0.17925
#
# Static dielectric constant tensor:
#      x y z
#    x 1.615320 0.000000 0.000000 
#    y 0.000000 1.631320 0.000000 
#    z 0.000000 0.000000 1.729440 
# 
# From -- ./inp_files/28086.got.cif
#   From: 2010.05.17/outbox.cif.g08.bks.cpg/sg66_15_cif.got.tgz:28086.got - 2010.06.03 17:51:23.
