data_PCOD9495339
_publ_section_title
;
Structure prediction by ZEFSAII (Michael W. Deem and Ramdas Pophale) SiO2 
 PCOD9495339
Probable space group: C C C M
;
_chemical_formula_sum "Si O2"
_cell_formula_units_Z 104
_cell_length_a 19.742146
_cell_length_b 17.130332
_cell_length_c 17.193465
_cell_angle_alpha 90.000000
_cell_angle_beta 90.000000
_cell_angle_gamma 90.000000
_cell_volume 5814.649596
_symmetry_space_group_name_H-M "C C C M"
_symmetry_group_IT_number 66
_symmetry_cell_setting 'orthorhombic'
loop_
_space_group_symop_operation_xyz
x,y,z
-x,-y,z
x,-y,1/2-z
-x,y,1/2-z
-x,-y,-z
x,y,-z
-x,y,1/2+z
x,-y,1/2+z
1/2+x,1/2+y,z
1/2-x,1/2-y,z
1/2+x,1/2-y,1/2-z
1/2-x,1/2+y,1/2-z
1/2-x,1/2-y,-z
1/2+x,1/2+y,-z
1/2-x,1/2+y,1/2+z
1/2+x,1/2-y,1/2+z
loop_
_atom_site_type_symbol
_atom_site_label
_atom_site_fract_x
_atom_site_fract_y
_atom_site_fract_z
Si Si1 0.179226 0.500000 0.250000
Si Si2 0.360765 0.188210 0.915694
Si Si3 0.576586 0.685548 0.715486
Si Si4 0.016836 0.086190 0.589099
Si Si5 0.243881 0.545953 0.411687
Si Si6 0.077581 0.644048 0.257076
Si Si7 0.368910 0.359006 0.124852
O O1 0.220518 0.503802 0.331705
O O2 0.130655 0.575501 0.243589
O O3 0.300511 0.125921 0.910121
O O4 0.411588 0.172455 0.845546
O O5 0.338882 0.277664 0.906221
O O6 0.393278 0.178241 0.000000
O O7 0.500000 0.682956 0.750000
O O8 0.571350 0.633247 0.639218
O O9 0.591069 0.777691 0.706472
O O10 0.624561 0.649530 0.781852
O O11 0.961717 0.922460 0.500000
O O12 0.944955 0.131074 0.593183
O O13 0.000000 0.000000 0.621930
O O14 0.233687 0.512573 0.500000
O O15 0.321687 0.570803 0.401472
O O16 0.000000 0.618249 0.250000
#
# Coordination Sequence:
#
# PCOD9495339 Si02
#       7
#     8  16  16  16  16  16  16
#     4  10  21  34  48  70 103 132 162 208 246 284
#     4   9  17  30  50  76  99 117 151 205 250 289
#     4   8  17  31  48  71  96 123 162 204 244 296
#     4  10  20  32  47  71 101 130 163 204 246 291
#     4  10  20  33  50  73  98 126 162 201 245 294
#     4   9  17  32  51  70  95 131 165 196 244 297
#     4  10  18  30  50  72  96 127 157 193 250 301
#
# _framework density 17.885857999999999
#
# number of rings (size 3 to 8) (size 9 to 14) (size 15 to 20)
#    0.000    2.615    0.000    3.000    0.000    5.231 
#    0.000    1.538    0.000    3.692    0.000    0.000 
#    0.000   11.077    0.000    0.000    0.000    0.000 
#
# Total GULP energy -289605.143812 kJ/mol
# GULP energy per Si atom -5569.329689 kJ/mol
# Density = 1.784515 g / cm^3
# Si number density = 17.885858 Si / 1000 Ang^3
#
#
#
# Elastic Constant Matrix: (Units=GPa)
#
#
# Indices 1 2 3 4 5 6 
#
# 1 29.5899 -3.4684 31.1211 0.0000 0.0000 0.0000
# 2 -3.4684 62.5330 47.1354 0.0000 0.0000 0.0000
# 3 31.1211 47.1354 119.8260 0.0000 0.0000 0.0000
# 4 0.0000 0.0000 0.0000 24.3547 0.0000 0.0000
# 5 0.0000 0.0000 0.0000 0.0000 14.3804 0.0000
# 6 0.0000 0.0000 0.0000 0.0000 0.0000 10.1964
#
#
#
# Elastic Compliance Matrix: (Units=1/GPa)
#
#
# Indices 1 2 3 4 5 6 
#
# 1 0.062906 0.022465 -0.025175 0.000000 0.000000 0.000000
# 2 0.022465 0.030754 -0.017932 0.000000 0.000000 0.000000
# 3 -0.025175 -0.017932 0.021938 0.000000 0.000000 0.000000
# 4 0.000000 0.000000 0.000000 0.041060 0.000000 0.000000
# 5 0.000000 0.000000 0.000000 0.000000 0.069539 0.000000
# 6 0.000000 0.000000 0.000000 0.000000 0.000000 0.098073
#
#
# Mechanical properties :
#
#
# Convention : Reuss Voigt Hill
#
# Bulk Modulus (GPa) = 13.45639 40.16947 26.81293
# Shear Modulus (GPa) = 12.80979 18.93036 15.87007
#
# Velocity S-wave (km/s) = 2.67909 3.25683 2.98199
# Velocity P-wave (km/s) = 4.13640 6.05394 5.18459
#
# Compressibility (1/GPa) = 0.07431416
#
# Stress axis : x y z
#
# Youngs Moduli (GPa) = 15.89668 32.51561 45.58333
#
# Poissons Ratio (x) = -0.73047 1.14756
# Poissons Ratio (y) = -0.35712 0.81742
# Poissons Ratio (z) = 0.40020 0.58308
#
# Static dielectric constant tensor:
#      x y z
#    x 1.608070 0.000000 0.000000 
#    y 0.000000 1.638470 0.000000 
#    z 0.000000 0.000000 1.649170 
# 
# From -- ./inp_files/31374.got.cif
#   From: 2010.05.17/outbox.cif.g08.bks.cpg/sg66_16_cif.got.tgz:31374.got - 2010.06.03 17:51:23.
