data_PCOD9495583
_publ_section_title
;
Structure prediction by ZEFSAII (Michael W. Deem and Ramdas Pophale) SiO2 
 PCOD9495583
Probable space group: C C C M
;
_chemical_formula_sum "Si O2"
_cell_formula_units_Z 80
_cell_length_a 5.489474
_cell_length_b 31.352116
_cell_length_c 27.996125
_cell_angle_alpha 90.000000
_cell_angle_beta 90.000000
_cell_angle_gamma 90.000000
_cell_volume 4818.318604
_symmetry_space_group_name_H-M "C C C M"
_symmetry_group_IT_number 66
_symmetry_cell_setting 'orthorhombic'
loop_
_space_group_symop_operation_xyz
x,y,z
-x,-y,z
x,-y,1/2-z
-x,y,1/2-z
-x,-y,-z
x,y,-z
-x,y,1/2+z
x,-y,1/2+z
1/2+x,1/2+y,z
1/2-x,1/2-y,z
1/2+x,1/2-y,1/2-z
1/2-x,1/2+y,1/2-z
1/2-x,1/2-y,-z
1/2+x,1/2+y,-z
1/2-x,1/2+y,1/2+z
1/2+x,1/2-y,1/2+z
loop_
_atom_site_type_symbol
_atom_site_label
_atom_site_fract_x
_atom_site_fract_y
_atom_site_fract_z
Si Si1 0.504197 0.549120 0.692034
Si Si2 0.006035 0.402728 0.807813
Si Si3 0.382071 0.185835 0.647922
Si Si4 0.250000 0.750000 0.397284
Si Si5 0.750000 0.250000 0.220643
Si Si6 0.133200 0.202187 0.552980
O O1 0.500000 0.500000 0.675805
O O2 0.500000 0.548544 0.750000
O O3 0.254408 0.572963 0.678073
O O4 0.756312 0.572515 0.678278
O O5 0.000000 0.398986 0.750000
O O6 0.000581 0.356224 0.831204
O O7 0.565528 0.224339 0.635747
O O8 0.213767 0.207657 0.688047
O O9 0.248825 0.177587 0.597493
O O10 0.360785 0.713785 0.431569
O O11 0.500000 0.243594 0.250000
O O12 0.156949 0.184038 0.500000
O O13 0.250000 0.250000 0.552452
#
# Coordination Sequence:
#
# PCOD9495583 Si02
#       6
#    16  16  16   8   8  16
#     4   9  18  34  53  73  99 133 171 212 262 311
#     4  10  21  32  50  76 105 139 172 211 253 305
#     4  11  22  34  49  73 106 139 184 219 256 301
#     4  10  18  34  51  70 102 141 178 221 267 300
#     4  12  25  36  50  68 105 155 190 211 242 296
#     4   9  18  33  53  72  95 132 180 229 276 308
#
# _framework density 16.603301999999999
#
# number of rings (size 3 to 8) (size 9 to 14) (size 15 to 20)
#    0.000    2.000    3.000    2.100    2.800    5.600 
#    0.000    0.000    0.000    0.000    0.000    0.000 
#    0.000    4.800    0.000    0.000    0.000    0.000 
#
# Total GULP energy -222800.233584 kJ/mol
# GULP energy per Si atom -5570.005840 kJ/mol
# Density = 1.656551 g / cm^3
# Si number density = 16.603302 Si / 1000 Ang^3
#
#
#
# Elastic Constant Matrix: (Units=GPa)
#
#
# Indices 1 2 3 4 5 6 
#
# 1 98.5661 40.4340 35.0470 0.0000 0.0000 0.0000
# 2 40.4340 89.1014 35.3008 0.0000 0.0000 0.0000
# 3 35.0470 35.3008 76.9633 0.0000 0.0000 0.0000
# 4 0.0000 0.0000 0.0000 -12.8748 0.0000 0.0000
# 5 0.0000 0.0000 0.0000 0.0000 11.2902 0.0000
# 6 0.0000 0.0000 0.0000 0.0000 0.0000 24.2036
#
#
#
# Elastic Compliance Matrix: (Units=1/GPa)
#
#
# Indices 1 2 3 4 5 6 
#
# 1 0.013429 -0.004486 -0.004057 0.000000 0.000000 0.000000
# 2 -0.004486 0.015214 -0.004935 0.000000 0.000000 0.000000
# 3 -0.004057 -0.004935 0.017104 0.000000 0.000000 0.000000
# 4 0.000000 0.000000 0.000000 -0.077671 0.000000 0.000000
# 5 0.000000 0.000000 0.000000 0.000000 0.088572 0.000000
# 6 0.000000 0.000000 0.000000 0.000000 0.000000 0.041316
#
#
# Mechanical properties :
#
#
# Convention : Reuss Voigt Hill
#
# Bulk Modulus (GPa) = 53.22159 54.02158 53.62159
# Shear Modulus (GPa) = 38.11374 14.78039 26.44707
#
# Velocity S-wave (km/s) = 4.79639 2.98687 3.99542
# Velocity P-wave (km/s) = 7.92453 6.67102 7.32464
#
# Compressibility (1/GPa) = 0.01878937
#
# Stress axis : x y z
#
# Youngs Moduli (GPa) = 74.46837 65.72694 58.46422
#
# Poissons Ratio (x) = 0.29488 0.23720
# Poissons Ratio (y) = 0.33410 0.28855
# Poissons Ratio (z) = 0.30213 0.32439
#
# Static dielectric constant tensor:
#      x y z
#    x 1.671770 0.000000 0.000000 
#    y 0.000000 1.542420 0.000000 
#    z 0.000000 0.000000 1.577660 
# 
# From -- ./inp_files/61646.got.cif
#   From: 2010.05.17/outbox.cif.g08.bks.cpg/sg66_31_cif.got.tgz:61646.got - 2010.06.03 17:51:23.
