data_PCOD9495914
_publ_section_title
;
Structure prediction by ZEFSAII (Michael W. Deem and Ramdas Pophale) SiO2 
 PCOD9495914
Probable space group: C C C M
;
_chemical_formula_sum "Si O2"
_cell_formula_units_Z 112
_cell_length_a 12.893890
_cell_length_b 27.761477
_cell_length_c 16.084178
_cell_angle_alpha 90.000000
_cell_angle_beta 90.000000
_cell_angle_gamma 90.000000
_cell_volume 5757.386695
_symmetry_space_group_name_H-M "C C C M"
_symmetry_group_IT_number 66
_symmetry_cell_setting 'orthorhombic'
loop_
_space_group_symop_operation_xyz
x,y,z
-x,-y,z
x,-y,1/2-z
-x,y,1/2-z
-x,-y,-z
x,y,-z
-x,y,1/2+z
x,-y,1/2+z
1/2+x,1/2+y,z
1/2-x,1/2-y,z
1/2+x,1/2-y,1/2-z
1/2-x,1/2+y,1/2-z
1/2-x,1/2-y,-z
1/2+x,1/2+y,-z
1/2-x,1/2+y,1/2+z
1/2+x,1/2-y,1/2+z
loop_
_atom_site_type_symbol
_atom_site_label
_atom_site_fract_x
_atom_site_fract_y
_atom_site_fract_z
Si Si1 0.508353 0.207028 0.098051
Si Si2 0.507446 0.445317 0.398752
Si Si3 0.603637 0.702352 0.903831
Si Si4 0.208084 0.299772 0.300136
Si Si5 0.085859 0.621769 0.690798
Si Si6 0.218149 0.109141 0.100721
Si Si7 0.884303 0.854470 0.597108
O O1 0.425569 0.245990 0.133132
O O2 0.621842 0.217310 0.133018
O O3 0.473369 0.153665 0.122117
O O4 0.509836 0.213021 0.000000
O O5 0.500000 0.500000 0.369332
O O6 0.502833 0.445285 0.500000
O O7 0.619104 0.423082 0.377201
O O8 0.417087 0.408113 0.373044
O O9 0.687089 0.663928 0.871671
O O10 0.493530 0.674268 0.902201
O O11 0.634349 0.710177 0.000000
O O12 0.250000 0.250000 0.261340
O O13 0.143652 0.338165 0.246855
O O14 0.300712 0.328460 0.345693
O O15 0.176976 0.593160 0.645455
O O16 0.000000 0.597398 0.750000
O O17 0.228780 0.109329 0.000000
O O18 0.850165 0.855997 0.500000
#
# Coordination Sequence:
#
# PCOD9495914 Si02
#       7
#    16  16  16  16  16  16  16
#     4  10  19  32  48  65  90 131 181 224 249 292
#     4   8  15  30  55  88 114 126 157 218 271 317
#     4   8  15  26  43  69  95 123 169 212 243 292
#     4  11  21  31  45  68 102 138 172 214 266 308
#     4  10  23  35  43  66 101 137 178 222 255 299
#     4   9  17  32  54  74  98 138 174 209 264 318
#     4   9  16  29  49  74 102 135 168 202 254 316
#
# _framework density 19.453271000000001
#
# number of rings (size 3 to 8) (size 9 to 14) (size 15 to 20)
#    0.000    2.714    1.429    2.571    2.000    0.571 
#    0.000    5.000    0.000    1.714    0.000    7.000 
#    0.000   19.429    0.000    0.000    0.000    0.000 
#
# Total GULP energy -312127.797871 kJ/mol
# GULP energy per Si atom -5573.710676 kJ/mol
# Density = 1.940899 g / cm^3
# Si number density = 19.453271 Si / 1000 Ang^3
#
#
#
# Elastic Constant Matrix: (Units=GPa)
#
#
# Indices 1 2 3 4 5 6 
#
# 1 95.2041 18.1928 26.9047 0.0000 0.0000 0.0000
# 2 18.1928 63.2056 3.3637 0.0000 0.0000 0.0000
# 3 26.9047 3.3637 28.7489 0.0000 0.0000 0.0000
# 4 0.0000 0.0000 0.0000 -0.8297 0.0000 0.0000
# 5 0.0000 0.0000 0.0000 0.0000 36.0043 0.0000
# 6 0.0000 0.0000 0.0000 0.0000 0.0000 15.6461
#
#
#
# Elastic Compliance Matrix: (Units=1/GPa)
#
#
# Indices 1 2 3 4 5 6 
#
# 1 0.015055 -0.003606 -0.013668 0.000000 0.000000 0.000000
# 2 -0.003606 0.016784 0.001411 0.000000 0.000000 0.000000
# 3 -0.013668 0.001411 0.047410 0.000000 0.000000 0.000000
# 4 0.000000 0.000000 0.000000 -1.205326 0.000000 0.000000
# 5 0.000000 0.000000 0.000000 0.000000 0.027774 0.000000
# 6 0.000000 0.000000 0.000000 0.000000 0.000000 0.063914
#
#
# Mechanical properties :
#
#
# Convention : Reuss Voigt Hill
#
# Bulk Modulus (GPa) = 21.04209 31.56453 26.30331
# Shear Modulus (GPa) = -5.06677 19.41066 7.17194
#
# Velocity S-wave (km/s) = -1.61562 3.16224 1.92218
# Velocity P-wave (km/s) = 2.71291 5.44004 4.29849
#
# Compressibility (1/GPa) = 0.04752379
#
# Stress axis : x y z
#
# Youngs Moduli (GPa) = 66.42177 59.57962 21.09278
#
# Poissons Ratio (x) = 0.21485 0.28829
# Poissons Ratio (y) = 0.23952 -0.02976
# Poissons Ratio (z) = 0.90783 -0.08407
#
# Static dielectric constant tensor:
#      x y z
#    x 1.691700 0.000000 0.000000 
#    y 0.000000 1.690810 0.000000 
#    z 0.000000 0.000000 1.707390 
# 
# From -- ./inp_files/49028.got.cif
#   From: 2010.05.17/outbox.cif.g08.bks.cpg/sg66_25_cif.got.tgz:49028.got - 2010.06.03 17:51:23.
