data_PCOD9495273
_publ_section_title
;
Structure prediction by ZEFSAII (Michael W. Deem and Ramdas Pophale) SiO2 
 PCOD9495273
Probable space group: C C C M
;
_chemical_formula_sum "Si O2"
_cell_formula_units_Z 96
_cell_length_a 29.486223
_cell_length_b 26.583588
_cell_length_c 8.817826
_cell_angle_alpha 90.000000
_cell_angle_beta 90.000000
_cell_angle_gamma 90.000000
_cell_volume 6911.849417
_symmetry_space_group_name_H-M "C C C M"
_symmetry_group_IT_number 66
_symmetry_cell_setting 'orthorhombic'
loop_
_space_group_symop_operation_xyz
x,y,z
-x,-y,z
x,-y,1/2-z
-x,y,1/2-z
-x,-y,-z
x,y,-z
-x,y,1/2+z
x,-y,1/2+z
1/2+x,1/2+y,z
1/2-x,1/2-y,z
1/2+x,1/2-y,1/2-z
1/2-x,1/2+y,1/2-z
1/2-x,1/2-y,-z
1/2+x,1/2+y,-z
1/2-x,1/2+y,1/2+z
1/2+x,1/2-y,1/2+z
loop_
_atom_site_type_symbol
_atom_site_label
_atom_site_fract_x
_atom_site_fract_y
_atom_site_fract_z
Si Si1 0.806676 0.146299 0.320169
Si Si2 0.548419 0.282519 0.679966
Si Si3 0.641380 0.257493 0.817761
Si Si4 0.451421 0.596972 0.319599
Si Si5 0.359713 0.445993 0.318911
Si Si6 0.724597 0.195715 0.175015
O O1 0.812471 0.142878 0.500000
O O2 0.836299 0.193085 0.257512
O O3 0.825503 0.096502 0.241315
O O4 0.754863 0.159126 0.275997
O O5 0.500000 0.268398 0.750000
O O6 0.548963 0.274185 0.500000
O O7 0.590290 0.255017 0.759505
O O8 0.554075 0.342829 0.705302
O O9 0.673573 0.210115 0.778174
O O10 0.643087 0.263244 0.000000
O O11 0.500000 0.582338 0.250000
O O12 0.450748 0.587863 0.500000
O O13 0.409695 0.569376 0.240488
O O14 0.348009 0.500000 0.250000
O O15 0.359607 0.447380 0.500000
O O16 0.750000 0.250000 0.178036
O O17 0.725245 0.178533 0.000000
#
# Coordination Sequence:
#
# PCOD9495273 Si02
#       6
#    16  16  16  16  16  16
#     4  11  20  31  46  65  86 108 136 172 213 257
#     4  10  19  29  44  63  87 113 143 176 213 257
#     4  10  18  29  46  65  87 112 140 172 210 251
#     4  10  20  34  49  65  82 105 138 177 220 264
#     4  12  24  37  51  64  82 107 138 178 221 265
#     4   8  16  29  44  64  86 110 136 166 207 251
#
# _framework density 13.889191
#
# number of rings (size 3 to 8) (size 9 to 14) (size 15 to 20)
#    0.000    1.833    1.667    5.500    0.000    5.333 
#    0.000    1.667    0.000    0.000    0.000    0.000 
#    0.000    0.000    0.000    0.000    0.000    0.833 
#
# Total GULP energy -267873.718356 kJ/mol
# GULP energy per Si atom -5580.702466 kJ/mol
# Density = 1.385758 g / cm^3
# Si number density = 13.889191 Si / 1000 Ang^3
#
#
#
# Elastic Constant Matrix: (Units=GPa)
#
#
# Indices 1 2 3 4 5 6 
#
# 1 102.1624 45.9980 50.8974 0.0000 0.0000 0.0000
# 2 45.9980 46.5793 37.3134 0.0000 0.0000 0.0000
# 3 50.8974 37.3134 93.4135 0.0000 0.0000 0.0000
# 4 0.0000 0.0000 0.0000 14.2105 0.0000 0.0000
# 5 0.0000 0.0000 0.0000 0.0000 23.5089 0.0000
# 6 0.0000 0.0000 0.0000 0.0000 0.0000 11.7778
#
#
#
# Elastic Compliance Matrix: (Units=1/GPa)
#
#
# Indices 1 2 3 4 5 6 
#
# 1 0.018646 -0.015110 -0.004124 0.000000 0.000000 0.000000
# 2 -0.015110 0.043815 -0.009269 0.000000 0.000000 0.000000
# 3 -0.004124 -0.009269 0.016655 0.000000 0.000000 0.000000
# 4 0.000000 0.000000 0.000000 0.070370 0.000000 0.000000
# 5 0.000000 0.000000 0.000000 0.000000 0.042537 0.000000
# 6 0.000000 0.000000 0.000000 0.000000 0.000000 0.084905
#
#
# Mechanical properties :
#
#
# Convention : Reuss Voigt Hill
#
# Bulk Modulus (GPa) = 45.22787 56.73029 50.97908
# Shear Modulus (GPa) = 14.64972 17.09587 15.87280
#
# Velocity S-wave (km/s) = 3.25123 3.51219 3.38422
# Velocity P-wave (km/s) = 6.83579 7.57502 7.21488
#
# Compressibility (1/GPa) = 0.02211026
#
# Stress axis : x y z
#
# Youngs Moduli (GPa) = 53.63102 22.82331 60.04378
#
# Poissons Ratio (x) = 0.34485 0.24762
# Poissons Ratio (y) = 0.81034 0.55654
# Poissons Ratio (z) = 0.22118 0.21155
#
# Static dielectric constant tensor:
#      x y z
#    x 1.476030 0.000000 0.000000 
#    y 0.000000 1.432280 0.000000 
#    z 0.000000 0.000000 1.458540 
# 
# From -- ./inp_files/10462.got.cif
#   From: 2010.05.17/outbox.cif.g08.bks.cpg/sg66_6_cif.got.tgz:10462.got - 2010.06.03 17:51:23.
