data_PCOD9495525
_publ_section_title
;
Structure prediction by ZEFSAII (Michael W. Deem and Ramdas Pophale) SiO2 
 PCOD9495525
Probable space group: C C C M
;
_chemical_formula_sum "Si O2"
_cell_formula_units_Z 68
_cell_length_a 22.296196
_cell_length_b 11.835503
_cell_length_c 13.350812
_cell_angle_alpha 90.000000
_cell_angle_beta 90.000000
_cell_angle_gamma 90.000000
_cell_volume 3523.101650
_symmetry_space_group_name_H-M "C C C M"
_symmetry_group_IT_number 66
_symmetry_cell_setting 'orthorhombic'
loop_
_space_group_symop_operation_xyz
x,y,z
-x,-y,z
x,-y,1/2-z
-x,y,1/2-z
-x,-y,-z
x,y,-z
-x,y,1/2+z
x,-y,1/2+z
1/2+x,1/2+y,z
1/2-x,1/2-y,z
1/2+x,1/2-y,1/2-z
1/2-x,1/2+y,1/2-z
1/2-x,1/2-y,-z
1/2+x,1/2+y,-z
1/2-x,1/2+y,1/2+z
1/2+x,1/2-y,1/2+z
loop_
_atom_site_type_symbol
_atom_site_label
_atom_site_fract_x
_atom_site_fract_y
_atom_site_fract_z
Si Si1 0.500000 0.000000 0.250000
Si Si2 0.689811 0.327933 0.173687
Si Si3 0.393880 0.860715 0.175910
Si Si4 0.153981 0.590593 0.608091
Si Si5 0.705108 0.583369 0.890855
O O1 0.540197 0.083295 0.180361
O O2 0.750000 0.250000 0.164791
O O3 0.631319 0.258172 0.137765
O O4 0.699326 0.447831 0.120233
O O5 0.680067 0.360683 0.290666
O O6 0.354317 0.956101 0.121729
O O7 0.377188 0.861149 0.293991
O O8 0.129482 0.624489 0.500000
O O9 0.224434 0.613496 0.611474
O O10 0.681137 0.618274 0.000000
#
# Coordination Sequence:
#
# PCOD9495525 Si02
#       5
#     4  16  16  16  16
#     4   8  20  36  54  74  96 130 168 206 246 294
#     4  11  18  31  49  73 104 136 163 206 253 291
#     4  10  18  33  49  70 102 131 167 203 244 298
#     4   9  16  27  46  72 101 129 158 200 243 294
#     4  10  20  30  44  75 107 131 164 199 249 311
#
# _framework density 19.301175000000001
#
# number of rings (size 3 to 8) (size 9 to 14) (size 15 to 20)
#    0.000    2.353    4.706    1.412    0.000    2.824 
#    0.000    9.412    0.000    2.824    0.000    1.647 
#    0.000    0.000    0.000    0.000    0.000    0.000 
#
# Total GULP energy -189321.284807 kJ/mol
# GULP energy per Si atom -5568.273083 kJ/mol
# Density = 1.925724 g / cm^3
# Si number density = 19.301175 Si / 1000 Ang^3
#
#
#
# Elastic Constant Matrix: (Units=GPa)
#
#
# Indices 1 2 3 4 5 6 
#
# 1 58.8877 28.7488 0.2625 0.0000 0.0000 0.0000
# 2 28.7488 79.9529 -6.4677 0.0000 0.0000 0.0000
# 3 0.2625 -6.4677 83.4059 0.0000 0.0000 0.0000
# 4 0.0000 0.0000 0.0000 -15.7197 0.0000 0.0000
# 5 0.0000 0.0000 0.0000 0.0000 22.0898 0.0000
# 6 0.0000 0.0000 0.0000 0.0000 0.0000 21.9872
#
#
#
# Elastic Compliance Matrix: (Units=1/GPa)
#
#
# Indices 1 2 3 4 5 6 
#
# 1 0.020631 -0.007471 -0.000644 0.000000 0.000000 0.000000
# 2 -0.007471 0.015291 0.001209 0.000000 0.000000 0.000000
# 3 -0.000644 0.001209 0.012085 0.000000 0.000000 0.000000
# 4 0.000000 0.000000 0.000000 -0.063614 0.000000 0.000000
# 5 0.000000 0.000000 0.000000 0.000000 0.045270 0.000000
# 6 0.000000 0.000000 0.000000 0.000000 0.000000 0.045481
#
#
# Mechanical properties :
#
#
# Convention : Reuss Voigt Hill
#
# Bulk Modulus (GPa) = 29.24222 29.70373 29.47298
# Shear Modulus (GPa) = 49.82317 18.98498 34.40407
#
# Velocity S-wave (km/s) = 5.08621 3.13967 4.22653
# Velocity P-wave (km/s) = 7.04813 5.34475 6.25470
#
# Compressibility (1/GPa) = 0.03419713
#
# Stress axis : x y z
#
# Youngs Moduli (GPa) = 48.46958 65.39618 82.74470
#
# Poissons Ratio (x) = 0.48855 0.05331
# Poissons Ratio (y) = 0.36210 -0.10006
# Poissons Ratio (z) = 0.03123 -0.07908
#
# Static dielectric constant tensor:
#      x y z
#    x 1.680620 0.000000 0.000000 
#    y 0.000000 1.740050 0.000000 
#    z 0.000000 0.000000 1.748100 
# 
# From -- ./inp_files/26297.got.cif
#   From: 2010.05.17/outbox.cif.g08.bks.cpg/sg66_14_cif.got.tgz:26297.got - 2010.06.03 17:51:23.
