data_PCOD9495743
_publ_section_title
;
Structure prediction by ZEFSAII (Michael W. Deem and Ramdas Pophale) SiO2 
 PCOD9495743
Probable space group: C C C M
;
_chemical_formula_sum "Si O2"
_cell_formula_units_Z 64
_cell_length_a 7.634360
_cell_length_b 20.539836
_cell_length_c 19.089623
_cell_angle_alpha 90.000000
_cell_angle_beta 90.000000
_cell_angle_gamma 90.000000
_cell_volume 2993.415193
_symmetry_space_group_name_H-M "C C C M"
_symmetry_group_IT_number 66
_symmetry_cell_setting 'orthorhombic'
loop_
_space_group_symop_operation_xyz
x,y,z
-x,-y,z
x,-y,1/2-z
-x,y,1/2-z
-x,-y,-z
x,y,-z
-x,y,1/2+z
x,-y,1/2+z
1/2+x,1/2+y,z
1/2-x,1/2-y,z
1/2+x,1/2-y,1/2-z
1/2-x,1/2+y,1/2-z
1/2-x,1/2-y,-z
1/2+x,1/2+y,-z
1/2-x,1/2+y,1/2+z
1/2+x,1/2-y,1/2+z
loop_
_atom_site_type_symbol
_atom_site_label
_atom_site_fract_x
_atom_site_fract_y
_atom_site_fract_z
Si Si1 0.690143 0.526397 0.914782
Si Si2 0.447187 0.777966 0.829758
Si Si3 0.830925 0.605816 0.419525
Si Si4 0.929729 0.161712 0.580720
O O1 0.500000 0.500000 0.892284
O O2 0.821379 0.468832 0.894158
O O3 0.692394 0.601926 0.894245
O O4 0.691875 0.526642 0.000000
O O5 0.500000 0.787197 0.750000
O O6 0.250000 0.750000 0.830767
O O7 0.438074 0.844799 0.872485
O O8 0.562657 0.723804 0.869558
O O9 0.894481 0.606860 0.500000
O O10 0.629053 0.632227 0.420900
O O11 0.887476 0.178774 0.500000
#
# Coordination Sequence:
#
# PCOD9495743 Si02
#       4
#    16  16  16  16
#     4   7  10  18  36  64  92 113 143 197 255 294
#     4  10  19  29  43  66 100 138 171 206 252 309
#     4   8  13  23  42  67  93 125 167 212 256 302
#     4   8  13  23  42  67  92 120 162 217 262 293
#
# _framework density 21.380262999999999
#
# number of rings (size 3 to 8) (size 9 to 14) (size 15 to 20)
#    0.000    3.750    0.000    3.750    0.000    3.000 
#    0.000    0.000    0.000   21.750    0.000    3.500 
#    0.000    6.000    0.000    9.000    0.000   61.250 
#
# Total GULP energy -178487.368985 kJ/mol
# GULP energy per Si atom -5577.730281 kJ/mol
# Density = 2.133160 g / cm^3
# Si number density = 21.380263 Si / 1000 Ang^3
#
#
#
# Elastic Constant Matrix: (Units=GPa)
#
#
# Indices 1 2 3 4 5 6 
#
# 1 59.8035 71.9381 28.7654 0.0000 0.0000 0.0000
# 2 71.9381 222.5662 110.0233 0.0000 0.0000 0.0000
# 3 28.7654 110.0233 104.3812 0.0000 0.0000 0.0000
# 4 0.0000 0.0000 0.0000 -17.4392 0.0000 0.0000
# 5 0.0000 0.0000 0.0000 0.0000 48.9823 0.0000
# 6 0.0000 0.0000 0.0000 0.0000 0.0000 16.4618
#
#
#
# Elastic Compliance Matrix: (Units=1/GPa)
#
#
# Indices 1 2 3 4 5 6 
#
# 1 0.028068 -0.010959 0.003816 0.000000 0.000000 0.000000
# 2 -0.010959 0.013660 -0.011378 0.000000 0.000000 0.000000
# 3 0.003816 -0.011378 0.020522 0.000000 0.000000 0.000000
# 4 0.000000 0.000000 0.000000 -0.057342 0.000000 0.000000
# 5 0.000000 0.000000 0.000000 0.000000 0.020416 0.000000
# 6 0.000000 0.000000 0.000000 0.000000 0.000000 0.060747
#
#
# Mechanical properties :
#
#
# Convention : Reuss Voigt Hill
#
# Bulk Modulus (GPa) = 39.66984 89.80053 64.73518
# Shear Modulus (GPa) = 38.01871 21.33591 29.67731
#
# Velocity S-wave (km/s) = 4.22146 3.16242 3.72972
# Velocity P-wave (km/s) = 6.50813 7.44495 6.99225
#
# Compressibility (1/GPa) = 0.02520807
#
# Stress axis : x y z
#
# Youngs Moduli (GPa) = 35.62761 73.20780 48.72857
#
# Poissons Ratio (x) = 0.80225 -0.18594
# Poissons Ratio (y) = 0.39043 0.55444
# Poissons Ratio (z) = -0.13595 0.83297
#
# Static dielectric constant tensor:
#      x y z
#    x 1.844350 0.000000 0.000000 
#    y 0.000000 1.793310 0.000000 
#    z 0.000000 0.000000 1.685170 
# 
# From -- ./inp_files/25811.got.cif
#   From: 2010.05.17/outbox.cif.g08.bks.cpg/sg66_13_cif.got.tgz:25811.got - 2010.06.03 17:51:23.
