data_PCOD9495203
_publ_section_title
;
Structure prediction by ZEFSAII (Michael W. Deem and Ramdas Pophale) SiO2 
 PCOD9495203
Probable space group: C C C M
;
_chemical_formula_sum "Si O2"
_cell_formula_units_Z 88
_cell_length_a 17.792164
_cell_length_b 8.066119
_cell_length_c 29.605214
_cell_angle_alpha 90.000000
_cell_angle_beta 90.000000
_cell_angle_gamma 90.000000
_cell_volume 4248.754158
_symmetry_space_group_name_H-M "C C C M"
_symmetry_group_IT_number 66
_symmetry_cell_setting 'orthorhombic'
loop_
_space_group_symop_operation_xyz
x,y,z
-x,-y,z
x,-y,1/2-z
-x,y,1/2-z
-x,-y,-z
x,y,-z
-x,y,1/2+z
x,-y,1/2+z
1/2+x,1/2+y,z
1/2-x,1/2-y,z
1/2+x,1/2-y,1/2-z
1/2-x,1/2+y,1/2-z
1/2-x,1/2-y,-z
1/2+x,1/2+y,-z
1/2-x,1/2+y,1/2+z
1/2+x,1/2-y,1/2+z
loop_
_atom_site_type_symbol
_atom_site_label
_atom_site_fract_x
_atom_site_fract_y
_atom_site_fract_z
Si Si1 0.737540 0.059607 0.948193
Si Si2 0.393973 0.152777 0.829698
Si Si3 0.590240 0.678906 0.740001
Si Si4 0.250000 0.250000 0.112555
Si Si5 0.567355 0.131554 0.949760
Si Si6 0.556762 0.777141 0.354095
O O1 0.750000 0.250000 0.932343
O O2 0.647186 0.038614 0.949173
O O3 0.768243 0.911125 0.918059
O O4 0.765672 0.051256 0.000000
O O5 0.382049 0.185161 0.776156
O O6 0.321121 0.205373 0.856790
O O7 0.468618 0.253160 0.844486
O O8 0.418822 0.967680 0.843619
O O9 0.622874 0.500000 0.750000
O O10 0.500000 0.680046 0.750000
O O11 0.600958 0.692924 0.686475
O O12 0.569575 0.252666 0.906847
O O13 0.500000 0.000000 0.942885
O O14 0.558820 0.205683 0.000000
#
# Coordination Sequence:
#
# PCOD9495203 Si02
#       6
#    16  16  16   8  16  16
#     4  10  22  39  60  89 126 172 217 259 318 384
#     4  10  20  34  56  89 115 159 204 258 309 386
#     4   9  19  34  55  82 113 153 206 257 305 369
#     4  12  21  38  62  90 130 160 215 258 330 372
#     4  10  18  33  60  93 121 159 214 261 310 377
#     4  10  17  36  60  82 118 161 206 251 316 364
#
# _framework density 20.711955
#
# number of rings (size 3 to 8) (size 9 to 14) (size 15 to 20)
#    0.000    2.000    3.636    0.818    0.000    3.636 
#    0.000    2.727    2.000    1.091    0.000   20.364 
#    0.000    0.000    0.000    0.000    0.000    0.000 
#
# Total GULP energy -245084.678095 kJ/mol
# GULP energy per Si atom -5570.106320 kJ/mol
# Density = 2.066481 g / cm^3
# Si number density = 20.711955 Si / 1000 Ang^3
#
#
#
# Elastic Constant Matrix: (Units=GPa)
#
#
# Indices 1 2 3 4 5 6 
#
# 1 72.2700 25.6141 11.1482 0.0000 0.0000 0.0000
# 2 25.6141 74.5938 47.2390 0.0000 0.0000 0.0000
# 3 11.1482 47.2390 191.4092 0.0000 0.0000 0.0000
# 4 0.0000 0.0000 0.0000 23.7935 0.0000 0.0000
# 5 0.0000 0.0000 0.0000 0.0000 15.5873 0.0000
# 6 0.0000 0.0000 0.0000 0.0000 0.0000 14.2375
#
#
#
# Elastic Compliance Matrix: (Units=1/GPa)
#
#
# Indices 1 2 3 4 5 6 
#
# 1 0.015794 -0.005738 0.000496 0.000000 0.000000 0.000000
# 2 -0.005738 0.017974 -0.004102 0.000000 0.000000 0.000000
# 3 0.000496 -0.004102 0.006208 0.000000 0.000000 0.000000
# 4 0.000000 0.000000 0.000000 0.042028 0.000000 0.000000
# 5 0.000000 0.000000 0.000000 0.000000 0.064155 0.000000
# 6 0.000000 0.000000 0.000000 0.000000 0.000000 0.070237
#
#
# Mechanical properties :
#
#
# Convention : Reuss Voigt Hill
#
# Bulk Modulus (GPa) = 46.97209 56.25285 51.61247
# Shear Modulus (GPa) = 20.64597 27.67511 24.16054
#
# Velocity S-wave (km/s) = 3.16066 3.65936 3.41911
# Velocity P-wave (km/s) = 6.00397 6.71365 6.36870
#
# Compressibility (1/GPa) = 0.02128924
#
# Stress axis : x y z
#
# Youngs Moduli (GPa) = 63.31528 55.63714 161.08808
#
# Poissons Ratio (x) = 0.31922 -0.07992
# Poissons Ratio (y) = 0.36327 0.66073
# Poissons Ratio (z) = -0.03141 0.22820
#
# Static dielectric constant tensor:
#      x y z
#    x 1.731760 0.000000 0.000000 
#    y 0.000000 1.775230 0.000000 
#    z 0.000000 0.000000 1.831660 
# 
# From -- ./inp_files/69929.got.cif
#   From: 2010.05.17/outbox.cif.g08.bks.cpg/sg66_35_cif.got.tgz:69929.got - 2010.06.03 17:51:23.
