data_PCOD9495424
_publ_section_title
;
Structure prediction by ZEFSAII (Michael W. Deem and Ramdas Pophale) SiO2 
 PCOD9495424
Probable space group: C C C M
;
_chemical_formula_sum "Si O2"
_cell_formula_units_Z 112
_cell_length_a 21.406652
_cell_length_b 12.402989
_cell_length_c 21.110596
_cell_angle_alpha 90.000000
_cell_angle_beta 90.000000
_cell_angle_gamma 90.000000
_cell_volume 5604.999808
_symmetry_space_group_name_H-M "C C C M"
_symmetry_group_IT_number 66
_symmetry_cell_setting 'orthorhombic'
loop_
_space_group_symop_operation_xyz
x,y,z
-x,-y,z
x,-y,1/2-z
-x,y,1/2-z
-x,-y,-z
x,y,-z
-x,y,1/2+z
x,-y,1/2+z
1/2+x,1/2+y,z
1/2-x,1/2-y,z
1/2+x,1/2-y,1/2-z
1/2-x,1/2+y,1/2-z
1/2-x,1/2-y,-z
1/2+x,1/2+y,-z
1/2-x,1/2+y,1/2+z
1/2+x,1/2-y,1/2+z
loop_
_atom_site_type_symbol
_atom_site_label
_atom_site_fract_x
_atom_site_fract_y
_atom_site_fract_z
Si Si1 0.435144 0.756079 0.274120
Si Si2 0.769922 0.903259 0.568687
Si Si3 0.896769 0.050280 0.681087
Si Si4 0.637530 0.949153 0.180624
Si Si5 0.233606 0.126037 0.126442
Si Si6 0.383768 0.673700 0.143126
Si Si7 0.623361 0.879576 0.571944
O O1 0.500000 0.802749 0.250000
O O2 0.447632 0.642926 0.309332
O O3 0.401208 0.839548 0.318819
O O4 0.393442 0.725675 0.212517
O O5 0.796346 0.871490 0.500000
O O6 0.812394 0.857752 0.625012
O O7 0.698829 0.864972 0.572627
O O8 0.767676 0.033580 0.572754
O O9 0.834274 0.111459 0.658047
O O10 0.883131 0.000000 0.750000
O O11 0.914069 0.945336 0.640425
O O12 0.709933 0.917456 0.170367
O O13 0.629643 0.000000 0.250000
O O14 0.614344 0.028898 0.125248
O O15 0.250000 0.250000 0.109757
O O16 0.404979 0.766282 0.094897
O O17 0.605483 0.908333 0.500000
#
# Coordination Sequence:
#
# PCOD9495424 Si02
#       7
#    16  16  16  16  16  16  16
#     4  11  23  39  59  82 115 157 207 256 307 353
#     4   9  19  33  53  85 121 158 196 235 291 369
#     4   9  19  34  51  82 113 148 189 238 305 356
#     4  11  21  37  58  89 120 155 196 249 306 362
#     4  10  18  31  53  81 121 149 185 236 302 368
#     4  10  19  34  56  82 113 151 198 247 292 352
#     4  10  20  36  59  90 127 164 197 241 305 373
#
# _framework density 19.982158999999999
#
# number of rings (size 3 to 8) (size 9 to 14) (size 15 to 20)
#    0.000    2.000    2.857    1.286    0.000    5.429 
#    5.143    0.000    0.000    2.571    0.000    9.000 
#    0.000    0.000    0.000    0.000    0.000    0.000 
#
# Total GULP energy -312023.536769 kJ/mol
# GULP energy per Si atom -5571.848871 kJ/mol
# Density = 1.993668 g / cm^3
# Si number density = 19.982159 Si / 1000 Ang^3
#
#
#
# Elastic Constant Matrix: (Units=GPa)
#
#
# Indices 1 2 3 4 5 6 
#
# 1 31.9296 11.2594 12.9624 0.0000 0.0000 0.0000
# 2 11.2594 134.4232 54.2140 0.0000 0.0000 0.0000
# 3 12.9624 54.2140 95.7130 0.0000 0.0000 0.0000
# 4 0.0000 0.0000 0.0000 24.0935 0.0000 0.0000
# 5 0.0000 0.0000 0.0000 0.0000 4.4784 0.0000
# 6 0.0000 0.0000 0.0000 0.0000 0.0000 7.2212
#
#
#
# Elastic Compliance Matrix: (Units=1/GPa)
#
#
# Indices 1 2 3 4 5 6 
#
# 1 0.033304 -0.001258 -0.003798 0.000000 0.000000 0.000000
# 2 -0.001258 0.009689 -0.005318 0.000000 0.000000 0.000000
# 3 -0.003798 -0.005318 0.013974 0.000000 0.000000 0.000000
# 4 0.000000 0.000000 0.000000 0.041505 0.000000 0.000000
# 5 0.000000 0.000000 0.000000 0.000000 0.223293 0.000000
# 6 0.000000 0.000000 0.000000 0.000000 0.000000 0.138482
#
#
# Mechanical properties :
#
#
# Convention : Reuss Voigt Hill
#
# Bulk Modulus (GPa) = 27.60855 46.54861 37.07858
# Shear Modulus (GPa) = 10.14058 19.40062 14.77060
#
# Velocity S-wave (km/s) = 2.25518 3.11930 2.72175
# Velocity P-wave (km/s) = 4.54177 6.02653 5.33605
#
# Compressibility (1/GPa) = 0.03622067
#
# Stress axis : x y z
#
# Youngs Moduli (GPa) = 30.02619 103.20660 71.55927
#
# Poissons Ratio (x) = 0.12982 0.27178
# Poissons Ratio (y) = 0.03777 0.38054
# Poissons Ratio (z) = 0.11404 0.54884
#
# Static dielectric constant tensor:
#      x y z
#    x 1.697800 0.000000 0.000000 
#    y 0.000000 1.784090 0.000000 
#    z 0.000000 0.000000 1.711020 
# 
# From -- ./inp_files/52580.got.cif
#   From: 2010.05.17/outbox.cif.g08.bks.cpg/sg66_27_cif.got.tgz:52580.got - 2010.06.03 17:51:23.
