data_PCOD9495983
_publ_section_title
;
Structure prediction by ZEFSAII (Michael W. Deem and Ramdas Pophale) SiO2 
 PCOD9495983
Probable space group: C C C M
;
_chemical_formula_sum "Si O2"
_cell_formula_units_Z 80
_cell_length_a 14.811444
_cell_length_b 21.994236
_cell_length_c 11.103736
_cell_angle_alpha 90.000000
_cell_angle_beta 90.000000
_cell_angle_gamma 90.000000
_cell_volume 3617.224046
_symmetry_space_group_name_H-M "C C C M"
_symmetry_group_IT_number 66
_symmetry_cell_setting 'orthorhombic'
loop_
_space_group_symop_operation_xyz
x,y,z
-x,-y,z
x,-y,1/2-z
-x,y,1/2-z
-x,-y,-z
x,y,-z
-x,y,1/2+z
x,-y,1/2+z
1/2+x,1/2+y,z
1/2-x,1/2-y,z
1/2+x,1/2-y,1/2-z
1/2-x,1/2+y,1/2-z
1/2-x,1/2-y,-z
1/2+x,1/2+y,-z
1/2-x,1/2+y,1/2+z
1/2+x,1/2-y,1/2+z
loop_
_atom_site_type_symbol
_atom_site_label
_atom_site_fract_x
_atom_site_fract_y
_atom_site_fract_z
Si Si1 0.058378 0.080848 0.133825
Si Si2 0.721643 0.320051 0.868065
Si Si3 0.041334 0.432447 0.130827
Si Si4 0.256994 0.899863 0.636692
Si Si5 0.513827 0.287232 0.873063
O O1 0.163041 0.063273 0.146299
O O2 0.000000 0.063361 0.250000
O O3 0.053240 0.154940 0.131141
O O4 0.025094 0.063071 0.000000
O O5 0.750000 0.250000 0.860684
O O6 0.755358 0.354951 0.750748
O O7 0.612894 0.317438 0.871368
O O8 0.752072 0.344265 0.000000
O O9 0.149478 0.435898 0.143076
O O10 0.000000 0.500000 0.126858
O O11 0.000000 0.402180 0.250000
O O12 0.021544 0.403580 0.000000
O O13 0.254544 0.872389 0.500000
O O14 0.500000 0.251300 0.750000
O O15 0.502483 0.254494 0.000000
#
# Coordination Sequence:
#
# PCOD9495983 Si02
#       5
#    16  16  16  16  16
#     4   9  15  25  45  73 102 132 170 214 261 317
#     4  10  20  32  46  70 107 150 192 231 274 326
#     4   9  19  37  60  84 109 139 181 235 294 353
#     4  10  19  32  53  80 108 139 181 232 283 342
#     4   9  15  26  44  64  92 131 175 220 263 310
#
# _framework density 22.116408
#
# number of rings (size 3 to 8) (size 9 to 14) (size 15 to 20)
#    0.000    2.600    4.000    0.000    0.000    1.200 
#    0.000    1.000    0.000    4.800    0.000    2.800 
#    0.000   20.800    0.000    0.000    0.000    0.000 
#
# Total GULP energy -222747.721201 kJ/mol
# GULP energy per Si atom -5568.693030 kJ/mol
# Density = 2.206607 g / cm^3
# Si number density = 22.116408 Si / 1000 Ang^3
#
#
#
# Elastic Constant Matrix: (Units=GPa)
#
#
# Indices 1 2 3 4 5 6 
#
# 1 125.5282 12.1264 64.1794 0.0000 0.0000 0.0000
# 2 12.1264 34.7042 35.8898 0.0000 0.0000 0.0000
# 3 64.1794 35.8898 302.9058 0.0000 0.0000 0.0000
# 4 0.0000 0.0000 0.0000 -100.3574 0.0000 0.0000
# 5 0.0000 0.0000 0.0000 0.0000 31.9429 0.0000
# 6 0.0000 0.0000 0.0000 0.0000 0.0000 -20.8233
#
#
#
# Elastic Compliance Matrix: (Units=1/GPa)
#
#
# Indices 1 2 3 4 5 6 
#
# 1 0.008988 -0.001335 -0.001746 0.000000 0.000000 0.000000
# 2 -0.001335 0.033037 -0.003632 0.000000 0.000000 0.000000
# 3 -0.001746 -0.003632 0.004102 0.000000 0.000000 0.000000
# 4 0.000000 0.000000 0.000000 -0.009964 0.000000 0.000000
# 5 0.000000 0.000000 0.000000 0.000000 0.031306 0.000000
# 6 0.000000 0.000000 0.000000 0.000000 0.000000 -0.048023
#
#
# Mechanical properties :
#
#
# Convention : Reuss Voigt Hill
#
# Bulk Modulus (GPa) = 30.57959 76.39217 53.48588
# Shear Modulus (GPa) = 114.23180 5.54861 59.89020
#
# Velocity S-wave (km/s) = 7.19461 1.58564 5.20945
# Velocity P-wave (km/s) = 9.10347 6.16184 7.77308
#
# Compressibility (1/GPa) = 0.03270155
#
# Stress axis : x y z
#
# Youngs Moduli (GPa) = 111.25839 30.26913 243.80507
#
# Poissons Ratio (x) = 0.04040 0.42574
# Poissons Ratio (y) = 0.14850 0.88540
# Poissons Ratio (z) = 0.19428 0.10992
#
# Static dielectric constant tensor:
#      x y z
#    x 1.910830 0.000000 0.000000 
#    y 0.000000 1.784160 0.000000 
#    z 0.000000 0.000000 1.939800 
# 
# From -- ./inp_files/16368.got.cif
#   From: 2010.05.17/outbox.cif.g08.bks.cpg/sg66_9_cif.got.tgz:16368.got - 2010.06.03 17:51:23.
