data_PCOD9495422
_publ_section_title
;
Structure prediction by ZEFSAII (Michael W. Deem and Ramdas Pophale) SiO2 
 PCOD9495422
Probable space group: C C C M
;
_chemical_formula_sum "Si O2"
_cell_formula_units_Z 92
_cell_length_a 20.024727
_cell_length_b 15.643875
_cell_length_c 16.705618
_cell_angle_alpha 90.000000
_cell_angle_beta 90.000000
_cell_angle_gamma 90.000000
_cell_volume 5233.274165
_symmetry_space_group_name_H-M "C C C M"
_symmetry_group_IT_number 66
_symmetry_cell_setting 'orthorhombic'
loop_
_space_group_symop_operation_xyz
x,y,z
-x,-y,z
x,-y,1/2-z
-x,y,1/2-z
-x,-y,-z
x,y,-z
-x,y,1/2+z
x,-y,1/2+z
1/2+x,1/2+y,z
1/2-x,1/2-y,z
1/2+x,1/2-y,1/2-z
1/2-x,1/2+y,1/2-z
1/2-x,1/2-y,-z
1/2+x,1/2+y,-z
1/2-x,1/2+y,1/2+z
1/2+x,1/2-y,1/2+z
loop_
_atom_site_type_symbol
_atom_site_label
_atom_site_fract_x
_atom_site_fract_y
_atom_site_fract_z
Si Si1 0.000000 0.500000 0.250000
Si Si2 0.250000 0.250000 0.156816
Si Si3 0.098230 0.360170 0.307974
Si Si4 0.894505 0.240662 0.344056
Si Si5 0.464387 0.293140 0.591656
Si Si6 0.892877 0.907619 0.288662
Si Si7 0.743586 0.904714 0.283885
O O1 0.951596 0.559900 0.303139
O O2 0.178092 0.246710 0.115012
O O3 0.252628 0.166885 0.214347
O O4 0.096883 0.319907 0.217774
O O5 0.073221 0.286456 0.366876
O O6 0.174584 0.384045 0.328521
O O7 0.895250 0.159894 0.283908
O O8 0.957580 0.229061 0.400116
O O9 0.445460 0.304639 0.500000
O O10 0.444657 0.375246 0.645153
O O11 0.816981 0.902630 0.323640
O O12 0.904462 0.000000 0.250000
O O13 0.736326 0.000000 0.250000
#
# Coordination Sequence:
#
# PCOD9495422 Si02
#       7
#     4   8  16  16  16  16  16
#     4  12  16  28  58  84  98 132 184 216 256 296
#     4   8  16  28  49  74  97 128 180 232 270 298
#     4  10  18  31  53  81 104 137 179 219 257 313
#     4   9  17  33  51  73 102 136 178 224 263 309
#     4  11  22  35  50  77 115 145 167 209 275 332
#     4   9  18  34  55  77 100 137 182 227 256 301
#     4   9  16  28  51  80 104 128 179 231 260 297
#
# _framework density 17.579816000000001
#
# number of rings (size 3 to 8) (size 9 to 14) (size 15 to 20)
#    0.000    2.435    2.609    2.609    0.000    1.391 
#    0.000    4.348    0.000    0.000    0.000    8.522 
#    0.000    0.000    0.000    0.000    0.000    0.000 
#
# Total GULP energy -256105.942562 kJ/mol
# GULP energy per Si atom -5567.520490 kJ/mol
# Density = 1.753980 g / cm^3
# Si number density = 17.579816 Si / 1000 Ang^3
#
#
#
# Elastic Constant Matrix: (Units=GPa)
#
#
# Indices 1 2 3 4 5 6 
#
# 1 137.4318 26.0875 25.4579 0.0000 0.0000 0.0000
# 2 26.0875 98.0359 11.5430 0.0000 0.0000 0.0000
# 3 25.4579 11.5430 44.1561 0.0000 0.0000 0.0000
# 4 0.0000 0.0000 0.0000 7.9812 0.0000 0.0000
# 5 0.0000 0.0000 0.0000 0.0000 2.1021 0.0000
# 6 0.0000 0.0000 0.0000 0.0000 0.0000 28.6258
#
#
#
# Elastic Compliance Matrix: (Units=1/GPa)
#
#
# Indices 1 2 3 4 5 6 
#
# 1 0.008419 -0.001722 -0.004404 0.000000 0.000000 0.000000
# 2 -0.001722 0.010876 -0.001851 0.000000 0.000000 0.000000
# 3 -0.004404 -0.001851 0.025670 0.000000 0.000000 0.000000
# 4 0.000000 0.000000 0.000000 0.125294 0.000000 0.000000
# 5 0.000000 0.000000 0.000000 0.000000 0.475716 0.000000
# 6 0.000000 0.000000 0.000000 0.000000 0.000000 0.034933
#
#
# Mechanical properties :
#
#
# Convention : Reuss Voigt Hill
#
# Bulk Modulus (GPa) = 34.46758 45.08896 39.77827
# Shear Modulus (GPa) = 7.07682 22.17752 14.62717
#
# Velocity S-wave (km/s) = 2.00855 3.55566 2.88765
# Velocity P-wave (km/s) = 5.00279 6.52386 5.81329
#
# Compressibility (1/GPa) = 0.02901277
#
# Stress axis : x y z
#
# Youngs Moduli (GPa) = 118.78000 91.94215 38.95646
#
# Poissons Ratio (x) = 0.15830 0.17156
# Poissons Ratio (y) = 0.20451 0.07209
# Poissons Ratio (z) = 0.52308 0.17014
#
# Static dielectric constant tensor:
#      x y z
#    x 1.685800 0.000000 0.000000 
#    y 0.000000 1.598130 0.000000 
#    z 0.000000 0.000000 1.537820 
# 
# From -- ./inp_files/31233.got.cif
#   From: 2010.05.17/outbox.cif.g08.bks.cpg/sg66_16_cif.got.tgz:31233.got - 2010.06.03 17:51:23.
