data_PCOD9495440
_publ_section_title
;
Structure prediction by ZEFSAII (Michael W. Deem and Ramdas Pophale) SiO2 
 PCOD9495440
Probable space group: C C C M
;
_chemical_formula_sum "Si O2"
_cell_formula_units_Z 104
_cell_length_a 16.507588
_cell_length_b 20.926852
_cell_length_c 14.143491
_cell_angle_alpha 90.000000
_cell_angle_beta 90.000000
_cell_angle_gamma 90.000000
_cell_volume 4885.895145
_symmetry_space_group_name_H-M "C C C M"
_symmetry_group_IT_number 66
_symmetry_cell_setting 'orthorhombic'
loop_
_space_group_symop_operation_xyz
x,y,z
-x,-y,z
x,-y,1/2-z
-x,y,1/2-z
-x,-y,-z
x,y,-z
-x,y,1/2+z
x,-y,1/2+z
1/2+x,1/2+y,z
1/2-x,1/2-y,z
1/2+x,1/2-y,1/2-z
1/2-x,1/2+y,1/2-z
1/2-x,1/2-y,-z
1/2+x,1/2+y,-z
1/2-x,1/2+y,1/2+z
1/2+x,1/2-y,1/2+z
loop_
_atom_site_type_symbol
_atom_site_label
_atom_site_fract_x
_atom_site_fract_y
_atom_site_fract_z
Si Si1 0.295286 0.901879 0.600288
Si Si2 0.750000 0.250000 0.790800
Si Si3 0.856597 0.925166 0.387713
Si Si4 0.691685 0.122014 0.815785
Si Si5 0.105005 0.934379 0.606693
Si Si6 0.911415 0.485039 0.138232
Si Si7 0.586798 0.678173 0.746558
O O1 0.309276 0.866203 0.500000
O O2 0.317256 0.870977 0.701663
O O3 0.201720 0.921769 0.602630
O O4 0.347326 0.966185 0.597293
O O5 0.713412 0.192012 0.850701
O O6 0.670272 0.281276 0.738765
O O7 0.843908 0.924938 0.500000
O O8 0.769789 0.922681 0.334826
O O9 0.899418 0.861134 0.350638
O O10 0.902666 0.991238 0.364544
O O11 0.617512 0.087709 0.866281
O O12 0.071486 0.927068 0.500000
O O13 0.077776 0.879331 0.677520
O O14 0.910831 0.500000 0.250000
O O15 0.000000 0.500000 0.102495
O O16 0.500000 0.713734 0.750000
#
# Coordination Sequence:
#
# PCOD9495440 Si02
#       7
#    16   8  16  16  16  16  16
#     4  10  18  31  55  84 115 152 192 244 306 369
#     4  10  22  42  60  82 112 168 210 244 290 356
#     4  10  20  35  62  92 120 153 190 240 305 366
#     4  10  19  36  57  81 118 158 207 245 295 366
#     4  10  19  34  60  92 120 151 187 238 306 367
#     4   9  18  31  51  84 116 151 192 255 319 360
#     4  11  24  42  61  87 120 159 203 250 298 352
#
# _framework density 21.28576
#
# number of rings (size 3 to 8) (size 9 to 14) (size 15 to 20)
#    0.000    2.000    4.615    0.462    0.000    2.154 
#    5.538    9.231    0.000    0.000    0.000    0.000 
#    0.000    0.000    0.000    0.000    0.000    0.000 
#
# Total GULP energy -289735.201882 kJ/mol
# GULP energy per Si atom -5571.830805 kJ/mol
# Density = 2.123731 g / cm^3
# Si number density = 21.285760 Si / 1000 Ang^3
#
#
#
# Elastic Constant Matrix: (Units=GPa)
#
#
# Indices 1 2 3 4 5 6 
#
# 1 114.1970 30.5333 10.4922 0.0000 0.0000 0.0000
# 2 30.5333 97.3427 9.5135 0.0000 0.0000 0.0000
# 3 10.4922 9.5135 102.8268 0.0000 0.0000 0.0000
# 4 0.0000 0.0000 0.0000 8.1015 0.0000 0.0000
# 5 0.0000 0.0000 0.0000 0.0000 -41.0653 0.0000
# 6 0.0000 0.0000 0.0000 0.0000 0.0000 22.9636
#
#
#
# Elastic Compliance Matrix: (Units=1/GPa)
#
#
# Indices 1 2 3 4 5 6 
#
# 1 0.009609 -0.002945 -0.000708 0.000000 0.000000 0.000000
# 2 -0.002945 0.011269 -0.000742 0.000000 0.000000 0.000000
# 3 -0.000708 -0.000742 0.009866 0.000000 0.000000 0.000000
# 4 0.000000 0.000000 0.000000 0.123434 0.000000 0.000000
# 5 0.000000 0.000000 0.000000 0.000000 -0.024351 0.000000
# 6 0.000000 0.000000 0.000000 0.000000 0.000000 0.043547
#
#
# Mechanical properties :
#
#
# Convention : Reuss Voigt Hill
#
# Bulk Modulus (GPa) = 45.54916 46.16051 45.85484
# Shear Modulus (GPa) = 26.38767 15.58846 20.98807
#
# Velocity S-wave (km/s) = 3.52474 2.70912 3.14349
# Velocity P-wave (km/s) = 6.16526 5.61417 5.89616
#
# Compressibility (1/GPa) = 0.02195430
#
# Stress axis : x y z
#
# Youngs Moduli (GPa) = 104.06644 88.73710 101.35816
#
# Poissons Ratio (x) = 0.26132 0.07177
# Poissons Ratio (y) = 0.30647 0.07522
# Poissons Ratio (z) = 0.07368 0.06585
#
# Static dielectric constant tensor:
#      x y z
#    x 1.846600 0.000000 0.000000 
#    y 0.000000 1.776380 0.000000 
#    z 0.000000 0.000000 1.815000 
# 
# From -- ./inp_files/30212.got.cif
#   From: 2010.05.17/outbox.cif.g08.bks.cpg/sg66_16_cif.got.tgz:30212.got - 2010.06.03 17:51:23.
