data_PCOD9495136
_publ_section_title
;
Structure prediction by ZEFSAII (Michael W. Deem and Ramdas Pophale) SiO2 
 PCOD9495136
Probable space group: C C C M
;
_chemical_formula_sum "Si O2"
_cell_formula_units_Z 88
_cell_length_a 13.980617
_cell_length_b 32.317866
_cell_length_c 7.708694
_cell_angle_alpha 90.000000
_cell_angle_beta 90.000000
_cell_angle_gamma 90.000000
_cell_volume 3482.970698
_symmetry_space_group_name_H-M "C C C M"
_symmetry_group_IT_number 66
_symmetry_cell_setting 'orthorhombic'
loop_
_space_group_symop_operation_xyz
x,y,z
-x,-y,z
x,-y,1/2-z
-x,y,1/2-z
-x,-y,-z
x,y,-z
-x,y,1/2+z
x,-y,1/2+z
1/2+x,1/2+y,z
1/2-x,1/2-y,z
1/2+x,1/2-y,1/2-z
1/2-x,1/2+y,1/2-z
1/2-x,1/2-y,-z
1/2+x,1/2+y,-z
1/2-x,1/2+y,1/2+z
1/2+x,1/2-y,1/2+z
loop_
_atom_site_type_symbol
_atom_site_label
_atom_site_fract_x
_atom_site_fract_y
_atom_site_fract_z
Si Si1 0.568830 0.808270 0.500000
Si Si2 0.602414 0.565619 0.707010
Si Si3 0.634167 0.253214 0.693603
Si Si4 0.349253 0.343946 0.290031
Si Si5 0.814379 0.454739 0.207441
Si Si6 0.368528 0.134390 0.194664
O O1 0.589773 0.773144 0.653415
O O2 0.577063 0.844316 0.349594
O O3 0.500000 0.546571 0.750000
O O4 0.609623 0.565868 0.500000
O O5 0.601920 0.613474 0.766969
O O6 0.702774 0.546873 0.771079
O O7 0.606210 0.238414 0.500000
O O8 0.750000 0.250000 0.707474
O O9 0.611342 0.301643 0.713180
O O10 0.349153 0.340829 0.500000
O O11 0.240351 0.350065 0.228472
O O12 0.853379 0.500000 0.250000
O O13 0.866578 0.415272 0.288949
O O14 0.814922 0.448643 0.000000
O O15 0.393945 0.147390 0.000000
#
# Coordination Sequence:
#
# PCOD9495136 Si02
#       6
#     8  16  16  16  16  16
#     4  12  19  30  40  62  94 103 138 161 204 252
#     4   9  20  33  48  62  82 108 141 184 234 276
#     4  11  19  26  41  63  84 113 134 156 202 255
#     4  10  17  31  43  58  85 110 133 170 210 259
#     4  10  20  35  48  64  82 105 140 187 233 277
#     4  11  19  29  45  62  81 113 133 163 213 260
#
# _framework density 25.265789999999999
#
# number of rings (size 3 to 8) (size 9 to 14) (size 15 to 20)
#    0.000    1.636    4.545    3.000    0.000    4.727 
#    0.000    1.818    0.000    0.000    0.000    0.000 
#    0.000    0.000    0.000    0.000    0.000    0.000 
#
# Total GULP energy -245519.179576 kJ/mol
# GULP energy per Si atom -5579.981354 kJ/mol
# Density = 2.520828 g / cm^3
# Si number density = 25.265790 Si / 1000 Ang^3
#
#
#
# Elastic Constant Matrix: (Units=GPa)
#
#
# Indices 1 2 3 4 5 6 
#
# 1 70.7697 -4.6293 31.6781 0.0000 0.0000 0.0000
# 2 -4.6293 222.5050 55.6333 0.0000 0.0000 0.0000
# 3 31.6781 55.6333 198.8468 0.0000 0.0000 0.0000
# 4 0.0000 0.0000 0.0000 33.8280 0.0000 0.0000
# 5 0.0000 0.0000 0.0000 0.0000 30.7287 0.0000
# 6 0.0000 0.0000 0.0000 0.0000 0.0000-3186.9094
#
#
#
# Elastic Compliance Matrix: (Units=1/GPa)
#
#
# Indices 1 2 3 4 5 6 
#
# 1 0.015422 0.001005 -0.002738 0.000000 0.000000 0.000000
# 2 0.001005 0.004898 -0.001531 0.000000 0.000000 0.000000
# 3 -0.002738 -0.001531 0.005893 0.000000 0.000000 0.000000
# 4 0.000000 0.000000 0.000000 0.029561 0.000000 0.000000
# 5 0.000000 0.000000 0.000000 0.000000 0.032543 0.000000
# 6 0.000000 0.000000 0.000000 0.000000 0.000000 -0.000314
#
#
# Mechanical properties :
#
#
# Convention : Reuss Voigt Hill
#
# Bulk Modulus (GPa) = 50.79567 73.05395 61.92481
# Shear Modulus (GPa) = 49.45989 -597.17456 -273.85733
#
# Velocity S-wave (km/s) = 4.42926 -15.39058 -10.42237
# Velocity P-wave (km/s) = 6.80485 16.93664 10.96686
#
# Compressibility (1/GPa) = 0.01968672
#
# Stress axis : x y z
#
# Youngs Moduli (GPa) = 64.84342 204.17017 169.68097
#
# Poissons Ratio (x) = -0.20529 0.46461
# Poissons Ratio (y) = -0.06520 0.25970
# Poissons Ratio (z) = 0.17755 0.31248
#
# Static dielectric constant tensor:
#      x y z
#    x 2.077840 0.000000 0.000000 
#    y 0.000000 1.949840 0.000000 
#    z 0.000000 0.000000 2.052280 
# 
# From -- ./inp_files/9527.got.cif
#   From: 2010.05.17/outbox.cif.g08.bks.cpg/sg66_5_cif.got.tgz:9527.got - 2010.06.03 17:51:23.
