data_PCOD9495896
_publ_section_title
;
Structure prediction by ZEFSAII (Michael W. Deem and Ramdas Pophale) SiO2 
 PCOD9495896
Probable space group: C C C M
;
_chemical_formula_sum "Si O2"
_cell_formula_units_Z 64
_cell_length_a 29.669149
_cell_length_b 5.269563
_cell_length_c 21.486679
_cell_angle_alpha 90.000000
_cell_angle_beta 90.000000
_cell_angle_gamma 90.000000
_cell_volume 3359.301520
_symmetry_space_group_name_H-M "C C C M"
_symmetry_group_IT_number 66
_symmetry_cell_setting 'orthorhombic'
loop_
_space_group_symop_operation_xyz
x,y,z
-x,-y,z
x,-y,1/2-z
-x,y,1/2-z
-x,-y,-z
x,y,-z
-x,y,1/2+z
x,-y,1/2+z
1/2+x,1/2+y,z
1/2-x,1/2-y,z
1/2+x,1/2-y,1/2-z
1/2-x,1/2+y,1/2-z
1/2-x,1/2-y,-z
1/2+x,1/2+y,-z
1/2-x,1/2+y,1/2+z
1/2+x,1/2-y,1/2+z
loop_
_atom_site_type_symbol
_atom_site_label
_atom_site_fract_x
_atom_site_fract_y
_atom_site_fract_z
Si Si1 0.220484 0.999751 0.675991
Si Si2 0.957149 0.817405 0.570068
Si Si3 0.076197 0.547856 0.816533
Si Si4 0.121227 0.966042 0.642279
O O1 0.250000 0.250000 0.663870
O O2 0.208481 0.000000 0.750000
O O3 0.250000 0.750000 0.664597
O O4 0.174559 0.989060 0.636880
O O5 0.957874 0.716467 0.500000
O O6 0.954785 0.608221 0.624193
O O7 0.910753 0.974099 0.582882
O O8 0.000000 0.000000 0.578896
O O9 0.053884 0.500000 0.750000
O O10 0.107125 0.308449 0.832906
O O11 0.105574 0.805193 0.812223
#
# Coordination Sequence:
#
# PCOD9495896 Si02
#       4
#    16  16  16  16
#     4  10  19  31  54  85 119 157 197 248 312 376
#     4   9  22  42  64  89 122 169 215 250 303 380
#     4  10  20  36  62  88 122 160 199 259 314 359
#     4  10  21  36  61  88 124 158 202 259 311 365
#
# _framework density 19.051580000000001
#
# number of rings (size 3 to 8) (size 9 to 14) (size 15 to 20)
#    1.500    0.750    0.000    3.750    0.000    4.000 
#    0.000    6.250    0.000    1.500    0.000    0.000 
#    0.000    0.000    0.000    0.000    0.000    0.000 
#
# Total GULP energy -178204.581060 kJ/mol
# GULP energy per Si atom -5568.893158 kJ/mol
# Density = 1.900822 g / cm^3
# Si number density = 19.051580 Si / 1000 Ang^3
#
#
#
# Elastic Constant Matrix: (Units=GPa)
#
#
# Indices 1 2 3 4 5 6 
#
# 1 154.5689 48.0951 48.3621 0.0000 0.0000 0.0000
# 2 48.0951 132.7757 37.8649 0.0000 0.0000 0.0000
# 3 48.3621 37.8649 118.0774 0.0000 0.0000 0.0000
# 4 0.0000 0.0000 0.0000 6.7863 0.0000 0.0000
# 5 0.0000 0.0000 0.0000 0.0000 3.9727 0.0000
# 6 0.0000 0.0000 0.0000 0.0000 0.0000 11.5037
#
#
#
# Elastic Compliance Matrix: (Units=1/GPa)
#
#
# Indices 1 2 3 4 5 6 
#
# 1 0.007939 -0.002145 -0.002564 0.000000 0.000000 0.000000
# 2 -0.002145 0.008869 -0.001966 0.000000 0.000000 0.000000
# 3 -0.002564 -0.001966 0.010150 0.000000 0.000000 0.000000
# 4 0.000000 0.000000 0.000000 0.147355 0.000000 0.000000
# 5 0.000000 0.000000 0.000000 0.000000 0.251717 0.000000
# 6 0.000000 0.000000 0.000000 0.000000 0.000000 0.086928
#
#
# Mechanical properties :
#
#
# Convention : Reuss Voigt Hill
#
# Bulk Modulus (GPa) = 73.48048 74.89622 74.18835
# Shear Modulus (GPa) = 9.41898 22.52588 15.97243
#
# Velocity S-wave (km/s) = 2.22591 3.44228 2.89862
# Velocity P-wave (km/s) = 6.72749 7.42945 7.08717
#
# Compressibility (1/GPa) = 0.01360906
#
# Stress axis : x y z
#
# Youngs Moduli (GPa) = 125.95823 112.75350 98.52669
#
# Poissons Ratio (x) = 0.24181 0.25262
# Poissons Ratio (y) = 0.27013 0.19367
# Poissons Ratio (z) = 0.32296 0.22164
#
# Static dielectric constant tensor:
#      x y z
#    x 1.662070 0.000000 0.000000 
#    y 0.000000 1.674940 0.000000 
#    z 0.000000 0.000000 1.674700 
# 
# From -- ./inp_files/59719.got.cif
#   From: 2010.05.17/outbox.cif.g08.bks.cpg/sg66_30_cif.got.tgz:59719.got - 2010.06.03 17:51:23.
