data_PCOD9495204
_publ_section_title
;
Structure prediction by ZEFSAII (Michael W. Deem and Ramdas Pophale) SiO2 
 PCOD9495204
Probable space group: C C C M
;
_chemical_formula_sum "Si O2"
_cell_formula_units_Z 56
_cell_length_a 10.352381
_cell_length_b 15.648910
_cell_length_c 15.681732
_cell_angle_alpha 90.000000
_cell_angle_beta 90.000000
_cell_angle_gamma 90.000000
_cell_volume 2540.495134
_symmetry_space_group_name_H-M "C C C M"
_symmetry_group_IT_number 66
_symmetry_cell_setting 'orthorhombic'
loop_
_space_group_symop_operation_xyz
x,y,z
-x,-y,z
x,-y,1/2-z
-x,y,1/2-z
-x,-y,-z
x,y,-z
-x,y,1/2+z
x,-y,1/2+z
1/2+x,1/2+y,z
1/2-x,1/2-y,z
1/2+x,1/2-y,1/2-z
1/2-x,1/2+y,1/2-z
1/2-x,1/2-y,-z
1/2+x,1/2+y,-z
1/2-x,1/2+y,1/2+z
1/2+x,1/2-y,1/2+z
loop_
_atom_site_type_symbol
_atom_site_label
_atom_site_fract_x
_atom_site_fract_y
_atom_site_fract_z
Si Si1 0.250000 0.250000 0.826612
Si Si2 0.477476 0.278686 0.598279
Si Si3 0.622405 0.453725 0.159223
Si Si4 0.625522 0.117331 0.803600
O O1 0.370702 0.276872 0.883604
O O2 0.294041 0.171019 0.767435
O O3 0.446863 0.294185 0.500000
O O4 0.418989 0.355228 0.653657
O O5 0.421374 0.188959 0.629872
O O6 0.500000 0.500000 0.111439
O O7 0.621960 0.500000 0.250000
O O8 0.778594 0.447676 0.146587
O O9 0.500000 0.087652 0.750000
#
# Coordination Sequence:
#
# PCOD9495204 Si02
#       4
#     8  16  16  16
#     4  10  17  36  63  92 124 170 222 266 321 398
#     4  11  23  39  64  99 135 170 225 289 335 382
#     4  11  22  37  61  89 130 171 217 268 328 406
#     4  10  21  38  66  94 126 173 233 272 321 403
#
# _framework density 22.042947000000002
#
# number of rings (size 3 to 8) (size 9 to 14) (size 15 to 20)
#    0.000    1.429    2.857    3.857    4.000    3.429 
#    0.000    0.000    0.000    1.714    0.000   12.000 
#    0.000    0.000    0.000    0.000    0.000    0.000 
#
# Total GULP energy -155965.484922 kJ/mol
# GULP energy per Si atom -5570.195890 kJ/mol
# Density = 2.199278 g / cm^3
# Si number density = 22.042947 Si / 1000 Ang^3
#
#
#
# Elastic Constant Matrix: (Units=GPa)
#
#
# Indices 1 2 3 4 5 6 
#
# 1 177.1900 51.4503 20.7858 0.0000 0.0000 0.0000
# 2 51.4503 73.8527 35.2878 0.0000 0.0000 0.0000
# 3 20.7858 35.2878 77.8245 0.0000 0.0000 0.0000
# 4 0.0000 0.0000 0.0000 4.7062 0.0000 0.0000
# 5 0.0000 0.0000 0.0000 0.0000 8.2202 0.0000
# 6 0.0000 0.0000 0.0000 0.0000 0.0000 -47.9461
#
#
#
# Elastic Compliance Matrix: (Units=1/GPa)
#
#
# Indices 1 2 3 4 5 6 
#
# 1 0.007087 -0.005148 0.000441 0.000000 0.000000 0.000000
# 2 -0.005148 0.021025 -0.008158 0.000000 0.000000 0.000000
# 3 0.000441 -0.008158 0.016431 0.000000 0.000000 0.000000
# 4 0.000000 0.000000 0.000000 0.212487 0.000000 0.000000
# 5 0.000000 0.000000 0.000000 0.000000 0.121652 0.000000
# 6 0.000000 0.000000 0.000000 0.000000 0.000000 -0.020857
#
#
# Mechanical properties :
#
#
# Convention : Reuss Voigt Hill
#
# Bulk Modulus (GPa) = 53.15552 60.43500 56.79526
# Shear Modulus (GPa) = 12.82626 7.75226 10.28926
#
# Velocity S-wave (km/s) = 2.41483 1.87737 2.16286
# Velocity P-wave (km/s) = 5.65173 5.67237 5.66206
#
# Compressibility (1/GPa) = 0.01881272
#
# Stress axis : x y z
#
# Youngs Moduli (GPa) = 141.10996 47.56231 60.86147
#
# Poissons Ratio (x) = 0.24485 -0.02687
# Poissons Ratio (y) = 0.72643 0.49653
# Poissons Ratio (z) = -0.06230 0.38803
#
# Static dielectric constant tensor:
#      x y z
#    x 1.947700 0.000000 0.000000 
#    y 0.000000 1.828720 0.000000 
#    z 0.000000 0.000000 1.763760 
# 
# From -- ./inp_files/37858.got.cif
#   From: 2010.05.17/outbox.cif.g08.bks.cpg/sg66_19_cif.got.tgz:37858.got - 2010.06.03 17:51:23.
