data_PCOD9495960
_publ_section_title
;
Structure prediction by ZEFSAII (Michael W. Deem and Ramdas Pophale) SiO2 
 PCOD9495960
Probable space group: C C C M
;
_chemical_formula_sum "Si O2"
_cell_formula_units_Z 112
_cell_length_a 12.501403
_cell_length_b 16.301718
_cell_length_c 31.431240
_cell_angle_alpha 90.000000
_cell_angle_beta 90.000000
_cell_angle_gamma 90.000000
_cell_volume 6405.509010
_symmetry_space_group_name_H-M "C C C M"
_symmetry_group_IT_number 66
_symmetry_cell_setting 'orthorhombic'
loop_
_space_group_symop_operation_xyz
x,y,z
-x,-y,z
x,-y,1/2-z
-x,y,1/2-z
-x,-y,-z
x,y,-z
-x,y,1/2+z
x,-y,1/2+z
1/2+x,1/2+y,z
1/2-x,1/2-y,z
1/2+x,1/2-y,1/2-z
1/2-x,1/2+y,1/2-z
1/2-x,1/2-y,-z
1/2+x,1/2+y,-z
1/2-x,1/2+y,1/2+z
1/2+x,1/2-y,1/2+z
loop_
_atom_site_type_symbol
_atom_site_label
_atom_site_fract_x
_atom_site_fract_y
_atom_site_fract_z
Si Si1 0.853874 0.702103 0.185662
Si Si2 0.301330 0.045493 0.619927
Si Si3 0.347517 0.311385 0.636793
Si Si4 0.734211 0.454582 0.295103
Si Si5 0.992714 0.329068 0.892275
Si Si6 0.103749 0.560054 0.452193
Si Si7 0.974170 0.860832 0.203840
O O1 0.750000 0.750000 0.168888
O O2 0.810300 0.624787 0.211485
O O3 0.920940 0.770987 0.210168
O O4 0.924962 0.674378 0.146444
O O5 0.207214 0.111945 0.613547
O O6 0.409456 0.098703 0.618364
O O7 0.283865 0.007372 0.666586
O O8 0.315997 0.978243 0.582868
O O9 0.250000 0.250000 0.651205
O O10 0.425231 0.254883 0.608204
O O11 0.422291 0.346904 0.674575
O O12 0.723667 0.500000 0.250000
O O13 0.620192 0.420161 0.312392
O O14 0.056689 0.354765 0.934221
O O15 0.147033 0.565567 0.500000
O O16 0.000000 0.500000 0.453790
O O17 0.000000 0.894176 0.250000
#
# Coordination Sequence:
#
# PCOD9495960 Si02
#       7
#    16  16  16  16  16  16  16
#     4   9  19  34  51  72  98 139 175 214 259 307
#     4  10  19  32  52  78 108 135 173 218 262 313
#     4   9  19  33  52  74 100 142 172 211 267 313
#     4  11  22  33  50  77 106 138 178 219 258 307
#     4   9  17  34  53  73 106 134 172 214 263 315
#     4   9  17  31  55  80 104 134 170 217 272 318
#     4  10  21  35  50  70 102 140 182 217 254 311
#
# _framework density 17.484950000000001
#
# number of rings (size 3 to 8) (size 9 to 14) (size 15 to 20)
#    0.000    2.429    1.429    0.857    0.000    7.143 
#    0.000    1.429    0.000    4.714    0.000    2.000 
#    0.000    0.000    0.000    0.000    0.000    0.000 
#
# Total GULP energy -311856.643477 kJ/mol
# GULP energy per Si atom -5568.868634 kJ/mol
# Density = 1.744515 g / cm^3
# Si number density = 17.484950 Si / 1000 Ang^3
#
#
#
# Elastic Constant Matrix: (Units=GPa)
#
#
# Indices 1 2 3 4 5 6 
#
# 1 83.7522 35.7508 37.7039 0.0000 0.0000 0.0000
# 2 35.7508 76.8539 46.4898 0.0000 0.0000 0.0000
# 3 37.7039 46.4898 97.7695 0.0000 0.0000 0.0000
# 4 0.0000 0.0000 0.0000 9.7731 0.0000 0.0000
# 5 0.0000 0.0000 0.0000 0.0000 -1.6794 0.0000
# 6 0.0000 0.0000 0.0000 0.0000 0.0000 12.2742
#
#
#
# Elastic Compliance Matrix: (Units=1/GPa)
#
#
# Indices 1 2 3 4 5 6 
#
# 1 0.015770 -0.005134 -0.003641 0.000000 0.000000 0.000000
# 2 -0.005134 0.019937 -0.007500 0.000000 0.000000 0.000000
# 3 -0.003641 -0.007500 0.015198 0.000000 0.000000 0.000000
# 4 0.000000 0.000000 0.000000 0.102322 0.000000 0.000000
# 5 0.000000 0.000000 0.000000 0.000000 -0.595435 0.000000
# 6 0.000000 0.000000 0.000000 0.000000 0.000000 0.081472
#
#
# Mechanical properties :
#
#
# Convention : Reuss Voigt Hill
#
# Bulk Modulus (GPa) = 54.47676 55.36274 54.91975
# Shear Modulus (GPa) = -15.52467 13.30231 -1.11118
#
# Velocity S-wave (km/s) = -2.98298 2.76123 -0.79805
# Velocity P-wave (km/s) = 4.39998 6.47284 5.53432
#
# Compressibility (1/GPa) = 0.01835645
#
# Stress axis : x y z
#
# Youngs Moduli (GPa) = 63.41022 50.15837 65.79605
#
# Poissons Ratio (x) = 0.25750 0.23953
# Poissons Ratio (y) = 0.32554 0.49349
# Poissons Ratio (z) = 0.23085 0.37620
#
# Static dielectric constant tensor:
#      x y z
#    x 1.630150 0.000000 0.000000 
#    y 0.000000 1.642750 0.000000 
#    z 0.000000 0.000000 1.562010 
# 
# From -- ./inp_files/69078.got.cif
#   From: 2010.05.17/outbox.cif.g08.bks.cpg/sg66_35_cif.got.tgz:69078.got - 2010.06.03 17:51:23.
