data_PCOD9495052
_publ_section_title
;
Structure prediction by ZEFSAII (Michael W. Deem and Ramdas Pophale) SiO2 
 PCOD9495052
Probable space group: C C C M
;
_chemical_formula_sum "Si O2"
_cell_formula_units_Z 96
_cell_length_a 29.165064
_cell_length_b 31.662596
_cell_length_c 8.026116
_cell_angle_alpha 90.000000
_cell_angle_beta 90.000000
_cell_angle_gamma 90.000000
_cell_volume 7411.649712
_symmetry_space_group_name_H-M "C C C M"
_symmetry_group_IT_number 66
_symmetry_cell_setting 'orthorhombic'
loop_
_space_group_symop_operation_xyz
x,y,z
-x,-y,z
x,-y,1/2-z
-x,y,1/2-z
-x,-y,-z
x,y,-z
-x,y,1/2+z
x,-y,1/2+z
1/2+x,1/2+y,z
1/2-x,1/2-y,z
1/2+x,1/2-y,1/2-z
1/2-x,1/2+y,1/2-z
1/2-x,1/2-y,-z
1/2+x,1/2+y,-z
1/2-x,1/2+y,1/2+z
1/2+x,1/2-y,1/2+z
loop_
_atom_site_type_symbol
_atom_site_label
_atom_site_fract_x
_atom_site_fract_y
_atom_site_fract_z
Si Si1 0.309187 0.953272 0.200399
Si Si2 0.234110 0.819049 0.000000
Si Si3 0.085241 0.454237 0.302607
Si Si4 0.550078 0.135200 0.302817
Si Si5 0.174311 0.739458 0.000000
Si Si6 0.137407 0.310323 0.196301
Si Si7 0.229901 0.366333 0.811588
O O1 0.362245 0.950043 0.261703
O O2 0.280486 0.915363 0.278364
O O3 0.293160 0.000000 0.250000
O O4 0.308768 0.948751 0.000000
O O5 0.238605 0.847094 0.166389
O O6 0.191121 0.787619 0.000000
O O7 0.279445 0.789207 0.000000
O O8 0.066828 0.500000 0.250000
O O9 0.087992 0.454514 0.500000
O O10 0.057410 0.413167 0.251231
O O11 0.500000 0.150259 0.250000
O O12 0.552594 0.135750 0.500000
O O13 0.592421 0.164053 0.245148
O O14 0.148026 0.726035 0.830930
O O15 0.180778 0.342273 0.201959
O O16 0.132687 0.297469 0.000000
O O17 0.246934 0.359551 0.000000
#
# Coordination Sequence:
#
# PCOD9495052 Si02
#       7
#    16   8  16  16   8  16  16
#     4  10  18  27  41  60  81 106 140 170 203 249
#     4   9  18  30  42  70  82 103 128 161 199 252
#     4  10  20  31  45  58  75  99 130 172 213 255
#     4  11  22  33  45  60  77  98 134 171 211 261
#     4   9  18  30  50  60  86 102 127 158 204 258
#     4   9  19  31  46  62  79 104 131 162 206 255
#     4  10  17  28  45  61  84 107 130 163 204 245
#
# _framework density 12.952582
#
# number of rings (size 3 to 8) (size 9 to 14) (size 15 to 20)
#    0.000    2.167    2.500    1.500    2.333    2.333 
#    0.000    5.000    0.000    0.000    0.000    0.000 
#    0.000    0.000    0.000    0.000    0.000    0.000 
#
# Total GULP energy -267555.339105 kJ/mol
# GULP energy per Si atom -5574.069565 kJ/mol
# Density = 1.292310 g / cm^3
# Si number density = 12.952582 Si / 1000 Ang^3
#
#
#
# Elastic Constant Matrix: (Units=GPa)
#
#
# Indices 1 2 3 4 5 6 
#
# 1 39.0058 35.2675 27.6822 0.0000 0.0000 0.0000
# 2 35.2675 64.5903 39.8404 0.0000 0.0000 0.0000
# 3 27.6822 39.8404 75.1787 0.0000 0.0000 0.0000
# 4 0.0000 0.0000 0.0000 17.9893 0.0000 0.0000
# 5 0.0000 0.0000 0.0000 0.0000 -0.9836 0.0000
# 6 0.0000 0.0000 0.0000 0.0000 0.0000 15.2597
#
#
#
# Elastic Compliance Matrix: (Units=1/GPa)
#
#
# Indices 1 2 3 4 5 6 
#
# 1 0.052481 -0.024863 -0.006148 0.000000 0.000000 0.000000
# 2 -0.024863 0.034779 -0.009276 0.000000 0.000000 0.000000
# 3 -0.006148 -0.009276 0.020481 0.000000 0.000000 0.000000
# 4 0.000000 0.000000 0.000000 0.055589 0.000000 0.000000
# 5 0.000000 0.000000 0.000000 0.000000 -1.016699 0.000000
# 6 0.000000 0.000000 0.000000 0.000000 0.000000 0.065532
#
#
# Mechanical properties :
#
#
# Convention : Reuss Voigt Hill
#
# Bulk Modulus (GPa) = 36.80988 42.70610 39.75799
# Shear Modulus (GPa) = -7.16121 11.51873 2.17876
#
# Velocity S-wave (km/s) = -2.35389 2.98535 1.29837
# Velocity P-wave (km/s) = 4.59270 6.70267 5.74538
#
# Compressibility (1/GPa) = 0.02716662
#
# Stress axis : x y z
#
# Youngs Moduli (GPa) = 19.05457 28.75258 48.82475
#
# Poissons Ratio (x) = 0.71488 0.30020
# Poissons Ratio (y) = 0.47375 0.45290
# Poissons Ratio (z) = 0.11716 0.26671
#
# Static dielectric constant tensor:
#      x y z
#    x 1.395760 0.000000 0.000000 
#    y 0.000000 1.395250 0.000000 
#    z 0.000000 0.000000 1.449730 
# 
# From -- ./inp_files/9322.got.cif
#   From: 2010.05.17/outbox.cif.g08.bks.cpg/sg66_5_cif.got.tgz:9322.got - 2010.06.03 17:51:23.
