data_PCOD9495033
_publ_section_title
;
Structure prediction by ZEFSAII (Michael W. Deem and Ramdas Pophale) SiO2 
 PCOD9495033
Probable space group: C C C M
;
_chemical_formula_sum "Si O2"
_cell_formula_units_Z 96
_cell_length_a 21.814654
_cell_length_b 22.035250
_cell_length_c 9.097458
_cell_angle_alpha 90.000000
_cell_angle_beta 90.000000
_cell_angle_gamma 90.000000
_cell_volume 4373.069409
_symmetry_space_group_name_H-M "C C C M"
_symmetry_group_IT_number 66
_symmetry_cell_setting 'orthorhombic'
loop_
_space_group_symop_operation_xyz
x,y,z
-x,-y,z
x,-y,1/2-z
-x,y,1/2-z
-x,-y,-z
x,y,-z
-x,y,1/2+z
x,-y,1/2+z
1/2+x,1/2+y,z
1/2-x,1/2-y,z
1/2+x,1/2-y,1/2-z
1/2-x,1/2+y,1/2-z
1/2-x,1/2-y,-z
1/2+x,1/2+y,-z
1/2-x,1/2+y,1/2+z
1/2+x,1/2-y,1/2+z
loop_
_atom_site_type_symbol
_atom_site_label
_atom_site_fract_x
_atom_site_fract_y
_atom_site_fract_z
Si Si1 0.318400 0.244172 0.165059
Si Si2 0.061279 0.931812 0.178477
Si Si3 0.182953 0.066296 0.822086
Si Si4 0.061598 0.255983 0.666121
Si Si5 0.180661 0.600471 0.337071
Si Si6 0.561609 0.095426 0.165625
O O1 0.250000 0.250000 0.228939
O O2 0.376186 0.265588 0.257129
O O3 0.329572 0.172392 0.150515
O O4 0.317053 0.271803 0.000000
O O5 0.124345 0.904488 0.241735
O O6 0.000000 0.903894 0.250000
O O7 0.062418 0.000000 0.250000
O O8 0.059312 0.934201 0.000000
O O9 0.249097 0.094630 0.788099
O O10 0.187905 0.000000 0.750000
O O11 0.174216 0.064286 0.000000
O O12 0.059234 0.233683 0.500000
O O13 0.062073 0.330225 0.663034
O O14 0.000000 0.238829 0.750000
O O15 0.176713 0.572904 0.500000
O O16 0.125616 0.576180 0.238531
O O17 0.500000 0.077419 0.250000
O O18 0.558422 0.073509 0.000000
#
# Coordination Sequence:
#
# PCOD9495033 Si02
#       6
#    16  16  16  16  16  16
#     4   9  17  30  48  69  93 121 151 184 225 271
#     4  10  17  27  44  66  91 117 149 188 228 267
#     4  10  19  31  47  68  94 122 152 186 225 268
#     4   9  16  26  42  65  91 118 150 189 227 264
#     4   9  18  31  47  68  94 122 151 185 225 269
#     4   9  16  26  43  66  91 118 150 188 227 266
#
# _framework density 21.952546000000002
#
# number of rings (size 3 to 8) (size 9 to 14) (size 15 to 20)
#    0.000    2.667    0.000    4.500    0.000    5.667 
#    0.000    0.000    0.000    1.500    0.000    3.500 
#    0.000    0.000    0.000    0.000    0.000    0.000 
#
# Total GULP energy -267770.597850 kJ/mol
# GULP energy per Si atom -5578.554122 kJ/mol
# Density = 2.190258 g / cm^3
# Si number density = 21.952546 Si / 1000 Ang^3
#
#
#
# Elastic Constant Matrix: (Units=GPa)
#
#
# Indices 1 2 3 4 5 6 
#
# 1 260.6508 3.8981 143.6869 0.0000 0.0000 0.0000
# 2 3.8981 49.1836 10.2075 0.0000 0.0000 0.0000
# 3 143.6869 10.2075 167.1499 0.0000 0.0000 0.0000
# 4 0.0000 0.0000 0.0000 -3.8521 0.0000 0.0000
# 5 0.0000 0.0000 0.0000 0.0000 44.0339 0.0000
# 6 0.0000 0.0000 0.0000 0.0000 0.0000 18.2354
#
#
#
# Elastic Compliance Matrix: (Units=1/GPa)
#
#
# Indices 1 2 3 4 5 6 
#
# 1 0.007318 0.000735 -0.006336 0.000000 0.000000 0.000000
# 2 0.000735 0.020667 -0.001894 0.000000 0.000000 0.000000
# 3 -0.006336 -0.001894 0.011545 0.000000 0.000000 0.000000
# 4 0.000000 0.000000 0.000000 -0.259602 0.000000 0.000000
# 5 0.000000 0.000000 0.000000 0.000000 0.022710 0.000000
# 6 0.000000 0.000000 0.000000 0.000000 0.000000 0.054838
#
#
# Mechanical properties :
#
#
# Convention : Reuss Voigt Hill
#
# Bulk Modulus (GPa) = 40.74935 88.06325 64.40630
# Shear Modulus (GPa) = -41.89213 32.96291 -4.46461
#
# Velocity S-wave (km/s) = -4.37315 3.87919 -1.42764
# Velocity P-wave (km/s) = 2.62612 7.76315 5.16575
#
# Compressibility (1/GPa) = 0.02454027
#
# Stress axis : x y z
#
# Youngs Moduli (GPa) = 136.64368 48.38685 86.61882
#
# Poissons Ratio (x) = -0.03556 0.54881
# Poissons Ratio (y) = -0.10042 0.16404
# Poissons Ratio (z) = 0.86576 0.09164
#
# Static dielectric constant tensor:
#      x y z
#    x 1.846460 0.000000 0.000000 
#    y 0.000000 1.886940 0.000000 
#    z 0.000000 0.000000 1.763540 
# 
# From -- ./inp_files/9138.got.cif
#   From: 2010.05.17/outbox.cif.g08.bks.cpg/sg66_5_cif.got.tgz:9138.got - 2010.06.03 17:51:23.
