data_PCOD9495905
_publ_section_title
;
Structure prediction by ZEFSAII (Michael W. Deem and Ramdas Pophale) SiO2 
 PCOD9495905
Probable space group: C C C M
;
_chemical_formula_sum "Si O2"
_cell_formula_units_Z 88
_cell_length_a 5.032555
_cell_length_b 33.350766
_cell_length_c 32.836375
_cell_angle_alpha 90.000000
_cell_angle_beta 90.000000
_cell_angle_gamma 90.000000
_cell_volume 5511.242869
_symmetry_space_group_name_H-M "C C C M"
_symmetry_group_IT_number 66
_symmetry_cell_setting 'orthorhombic'
loop_
_space_group_symop_operation_xyz
x,y,z
-x,-y,z
x,-y,1/2-z
-x,y,1/2-z
-x,-y,-z
x,y,-z
-x,y,1/2+z
x,-y,1/2+z
1/2+x,1/2+y,z
1/2-x,1/2-y,z
1/2+x,1/2-y,1/2-z
1/2-x,1/2+y,1/2-z
1/2-x,1/2-y,-z
1/2+x,1/2+y,-z
1/2-x,1/2+y,1/2+z
1/2+x,1/2-y,1/2+z
loop_
_atom_site_type_symbol
_atom_site_label
_atom_site_fract_x
_atom_site_fract_y
_atom_site_fract_z
Si Si1 0.254869 0.201373 0.224292
Si Si2 0.994150 0.220566 0.000000
Si Si3 0.442481 0.097139 0.546528
Si Si4 0.674286 0.797001 0.129261
Si Si5 0.423810 0.542824 0.546619
Si Si6 0.163486 0.825118 0.917924
O O1 0.500000 0.186179 0.250000
O O2 0.250000 0.250000 0.225603
O O3 0.304297 0.192420 0.176980
O O4 0.000000 0.187756 0.250000
O O5 0.750000 0.250000 0.000000
O O6 0.949005 0.194074 0.040208
O O7 0.250000 0.250000 0.000000
O O8 0.511125 0.110579 0.500000
O O9 0.695791 0.072489 0.563466
O O10 0.322595 0.134620 0.570692
O O11 0.197298 0.066710 0.544412
O O12 0.750000 0.750000 0.124362
O O13 0.386851 0.801188 0.107960
O O14 0.895202 0.825178 0.108334
O O15 0.500000 0.500000 0.565945
O O16 0.328817 0.534055 0.500000
#
# Coordination Sequence:
#
# PCOD9495905 Si02
#       6
#    16   8  16  16  16  16
#     4   9  17  31  50  70  88 110 143 192 251 303
#     4  12  24  36  48  60  83 128 179 220 246 270
#     4  10  19  32  46  64  90 121 156 196 241 281
#     4  11  22  34  50  68  92 120 162 210 246 289
#     4   9  17  29  48  68  86 109 148 197 241 286
#     4  12  22  35  47  66  92 127 166 207 248 279
#
# _framework density 15.967359999999999
#
# number of rings (size 3 to 8) (size 9 to 14) (size 15 to 20)
#    0.000    1.636    0.909    6.000    0.000    5.091 
#    0.000    0.000    0.000    0.000    0.000    0.000 
#    0.000    0.000    0.000    0.000    0.000  190.909 
#
# Total GULP energy -245024.780489 kJ/mol
# GULP energy per Si atom -5568.745011 kJ/mol
# Density = 1.593102 g / cm^3
# Si number density = 15.967360 Si / 1000 Ang^3
#
#
#
# Elastic Constant Matrix: (Units=GPa)
#
#
# Indices 1 2 3 4 5 6 
#
# 1 113.2457 6.2001 36.7912 0.0000 0.0000 0.0000
# 2 6.2001 45.6885 15.6020 0.0000 0.0000 0.0000
# 3 36.7912 15.6020 98.2898 0.0000 0.0000 0.0000
# 4 0.0000 0.0000 0.0000 4.0004 0.0000 0.0000
# 5 0.0000 0.0000 0.0000 0.0000 10.5762 0.0000
# 6 0.0000 0.0000 0.0000 0.0000 0.0000 25.5393
#
#
#
# Elastic Compliance Matrix: (Units=1/GPa)
#
#
# Indices 1 2 3 4 5 6 
#
# 1 0.010053 -0.000084 -0.003750 0.000000 0.000000 0.000000
# 2 -0.000084 0.023142 -0.003642 0.000000 0.000000 0.000000
# 3 -0.003750 -0.003642 0.012156 0.000000 0.000000 0.000000
# 4 0.000000 0.000000 0.000000 0.249975 0.000000 0.000000
# 5 0.000000 0.000000 0.000000 0.000000 0.094552 0.000000
# 6 0.000000 0.000000 0.000000 0.000000 0.000000 0.039155
#
#
# Mechanical properties :
#
#
# Convention : Reuss Voigt Hill
#
# Bulk Modulus (GPa) = 32.89471 41.60117 37.24794
# Shear Modulus (GPa) = 11.01037 21.26524 16.13781
#
# Velocity S-wave (km/s) = 2.62879 3.65334 3.18256
# Velocity P-wave (km/s) = 5.46443 6.62618 6.07315
#
# Compressibility (1/GPa) = 0.03040003
#
# Stress axis : x y z
#
# Youngs Moduli (GPa) = 99.47125 43.21057 82.26591
#
# Poissons Ratio (x) = 0.00362 0.30848
# Poissons Ratio (y) = 0.00833 0.29963
# Poissons Ratio (z) = 0.37299 0.15738
#
# Static dielectric constant tensor:
#      x y z
#    x 1.555130 0.000000 0.000000 
#    y 0.000000 1.554010 0.000000 
#    z 0.000000 0.000000 1.513560 
# 
# From -- ./inp_files/61665.got.cif
#   From: 2010.05.17/outbox.cif.g08.bks.cpg/sg66_31_cif.got.tgz:61665.got - 2010.06.03 17:51:23.
