data_PCOD9495765
_publ_section_title
;
Structure prediction by ZEFSAII (Michael W. Deem and Ramdas Pophale) SiO2 
 PCOD9495765
Probable space group: C C C M
;
_chemical_formula_sum "Si O2"
_cell_formula_units_Z 96
_cell_length_a 30.367959
_cell_length_b 34.103965
_cell_length_c 8.196091
_cell_angle_alpha 90.000000
_cell_angle_beta 90.000000
_cell_angle_gamma 90.000000
_cell_volume 8488.427624
_symmetry_space_group_name_H-M "C C C M"
_symmetry_group_IT_number 66
_symmetry_cell_setting 'orthorhombic'
loop_
_space_group_symop_operation_xyz
x,y,z
-x,-y,z
x,-y,1/2-z
-x,y,1/2-z
-x,-y,-z
x,y,-z
-x,y,1/2+z
x,-y,1/2+z
1/2+x,1/2+y,z
1/2-x,1/2-y,z
1/2+x,1/2-y,1/2-z
1/2-x,1/2+y,1/2-z
1/2-x,1/2-y,-z
1/2+x,1/2+y,-z
1/2-x,1/2+y,1/2+z
1/2+x,1/2-y,1/2+z
loop_
_atom_site_type_symbol
_atom_site_label
_atom_site_fract_x
_atom_site_fract_y
_atom_site_fract_z
Si Si1 0.449624 0.543766 0.194029
Si Si2 0.765049 0.814635 0.500000
Si Si3 0.402839 0.379160 0.192052
Si Si4 0.367646 0.258693 0.181188
Si Si5 0.178272 0.266634 0.500000
Si Si6 0.687459 0.340239 0.685882
Si Si7 0.950122 0.197495 0.190220
O O1 0.437302 0.500000 0.250000
O O2 0.500000 0.550616 0.250000
O O3 0.419122 0.577680 0.265840
O O4 0.448305 0.545580 0.000000
O O5 0.794746 0.774744 0.500000
O O6 0.714865 0.800377 0.500000
O O7 0.778275 0.837220 0.666001
O O8 0.351430 0.371017 0.225905
O O9 0.431638 0.346586 0.284837
O O10 0.409260 0.371505 0.000000
O O11 0.350516 0.233825 0.334835
O O12 0.337919 0.298305 0.181467
O O13 0.416974 0.274093 0.213112
O O14 0.363604 0.240983 0.000000
O O15 0.704035 0.347084 0.500000
O O16 0.000000 0.199734 0.250000
O O17 0.947216 0.207256 0.000000
#
# Coordination Sequence:
#
# PCOD9495765 Si02
#       7
#    16   8  16  16   8  16  16
#     4  11  21  32  43  53  68  87 109 139 169 205
#     4   9  16  24  40  52  72  83 114 126 158 199
#     4  10  19  30  41  54  69  87 109 134 172 208
#     4   9  16  27  37  49  69  89 110 134 163 194
#     4   9  16  26  36  54  66  94 104 134 158 195
#     4   8  16  26  38  53  70  86 104 134 161 195
#     4  11  19  27  38  53  69  87 114 142 171 203
#
# _framework density 11.309514999999999
#
# number of rings (size 3 to 8) (size 9 to 14) (size 15 to 20)
#    0.000    2.333    0.833    5.500    4.667    0.667 
#    0.000    3.333    0.000    0.000    0.000    0.000 
#    0.000    0.000    0.000    0.000    0.000    0.000 
#
# Total GULP energy -267431.393330 kJ/mol
# GULP energy per Si atom -5571.487361 kJ/mol
# Density = 1.128377 g / cm^3
# Si number density = 11.309515 Si / 1000 Ang^3
#
#
#
# Elastic Constant Matrix: (Units=GPa)
#
#
# Indices 1 2 3 4 5 6 
#
# 1 51.1321 29.5561 36.1630 0.0000 0.0000 0.0000
# 2 29.5561 28.5101 24.5224 0.0000 0.0000 0.0000
# 3 36.1630 24.5224 84.4945 0.0000 0.0000 0.0000
# 4 0.0000 0.0000 0.0000 8.5730 0.0000 0.0000
# 5 0.0000 0.0000 0.0000 0.0000 9.6292 0.0000
# 6 0.0000 0.0000 0.0000 0.0000 0.0000 17.6707
#
#
#
# Elastic Compliance Matrix: (Units=1/GPa)
#
#
# Indices 1 2 3 4 5 6 
#
# 1 0.053556 -0.047717 -0.009073 0.000000 0.000000 0.000000
# 2 -0.047717 0.089259 -0.005483 0.000000 0.000000 0.000000
# 3 -0.009073 -0.005483 0.017309 0.000000 0.000000 0.000000
# 4 0.000000 0.000000 0.000000 0.116645 0.000000 0.000000
# 5 0.000000 0.000000 0.000000 0.000000 0.103851 0.000000
# 6 0.000000 0.000000 0.000000 0.000000 0.000000 0.056591
#
#
# Mechanical properties :
#
#
# Convention : Reuss Voigt Hill
#
# Bulk Modulus (GPa) = 28.10635 38.29107 33.19871
# Shear Modulus (GPa) = 8.71664 12.10093 10.40878
#
# Velocity S-wave (km/s) = 2.77922 3.27460 3.03703
# Velocity P-wave (km/s) = 5.93335 6.94466 6.45883
#
# Compressibility (1/GPa) = 0.03557915
#
# Stress axis : x y z
#
# Youngs Moduli (GPa) = 18.67204 11.20337 57.77202
#
# Poissons Ratio (x) = 0.53459 0.52416
# Poissons Ratio (y) = 0.89097 0.31674
# Poissons Ratio (z) = 0.16941 0.06142
#
# Static dielectric constant tensor:
#      x y z
#    x 1.352140 0.000000 0.000000 
#    y 0.000000 1.342760 0.000000 
#    z 0.000000 0.000000 1.398720 
# 
# From -- ./inp_files/11844.got.cif
#   From: 2010.05.17/outbox.cif.g08.bks.cpg/sg66_6_cif.got.tgz:11844.got - 2010.06.03 17:51:23.
