data_PCOD9495721
_publ_section_title
;
Structure prediction by ZEFSAII (Michael W. Deem and Ramdas Pophale) SiO2 
 PCOD9495721
Probable space group: C C C M
;
_chemical_formula_sum "Si O2"
_cell_formula_units_Z 80
_cell_length_a 18.626121
_cell_length_b 38.009985
_cell_length_c 8.983723
_cell_angle_alpha 90.000000
_cell_angle_beta 90.000000
_cell_angle_gamma 90.000000
_cell_volume 6360.283451
_symmetry_space_group_name_H-M "C C C M"
_symmetry_group_IT_number 66
_symmetry_cell_setting 'orthorhombic'
loop_
_space_group_symop_operation_xyz
x,y,z
-x,-y,z
x,-y,1/2-z
-x,y,1/2-z
-x,-y,-z
x,y,-z
-x,y,1/2+z
x,-y,1/2+z
1/2+x,1/2+y,z
1/2-x,1/2-y,z
1/2+x,1/2-y,1/2-z
1/2-x,1/2+y,1/2-z
1/2-x,1/2-y,-z
1/2+x,1/2+y,-z
1/2-x,1/2+y,1/2+z
1/2+x,1/2-y,1/2+z
loop_
_atom_site_type_symbol
_atom_site_label
_atom_site_fract_x
_atom_site_fract_y
_atom_site_fract_z
Si Si1 0.579359 0.965569 0.677460
Si Si2 0.705761 0.286800 0.171523
Si Si3 0.921986 0.251146 0.322625
Si Si4 0.835155 0.323340 0.322593
Si Si5 0.579314 0.886806 0.677934
O O1 0.500000 0.964168 0.750000
O O2 0.572651 0.882397 0.500000
O O3 0.608794 0.926408 0.706133
O O4 0.615367 0.000000 0.750000
O O5 0.750000 0.250000 0.172412
O O6 0.631790 0.277670 0.253570
O O7 0.757422 0.313976 0.255539
O O8 0.694240 0.296874 0.000000
O O9 0.926333 0.246929 0.500000
O O10 0.886228 0.289432 0.292815
O O11 0.000000 0.249515 0.250000
O O12 0.830786 0.327684 0.500000
O O13 0.870421 0.357105 0.246744
O O14 0.500000 0.883908 0.750000
O O15 0.573767 0.970390 0.500000
#
# Coordination Sequence:
#
# PCOD9495721 Si02
#       5
#    16  16  16  16  16
#     4   9  16  25  37  51  68  91 119 151 185 220
#     4   9  17  29  43  56  72  95 121 150 186 226
#     4  10  19  29  41  57  75  95 123 156 189 224
#     4  10  19  29  41  56  75  98 123 154 190 226
#     4  10  19  28  38  54  74  96 124 157 191 225
#
# _framework density 12.578056
#
# number of rings (size 3 to 8) (size 9 to 14) (size 15 to 20)
#    0.000    2.400    0.000    4.200    0.000    8.800 
#    0.000    0.000    0.000    0.000    0.000    0.000 
#    0.000    0.000    0.000    0.000    0.000    1.000 
#
# Total GULP energy -222859.887838 kJ/mol
# GULP energy per Si atom -5571.497196 kJ/mol
# Density = 1.254943 g / cm^3
# Si number density = 12.578056 Si / 1000 Ang^3
#
#
#
# Elastic Constant Matrix: (Units=GPa)
#
#
# Indices 1 2 3 4 5 6 
#
# 1 78.1372 46.6823 52.3599 0.0000 0.0000 0.0000
# 2 46.6823 98.9729 59.3903 0.0000 0.0000 0.0000
# 3 52.3599 59.3903 85.3993 0.0000 0.0000 0.0000
# 4 0.0000 0.0000 0.0000 21.1920 0.0000 0.0000
# 5 0.0000 0.0000 0.0000 0.0000 21.0032 0.0000
# 6 0.0000 0.0000 0.0000 0.0000 0.0000 12.6471
#
#
#
# Elastic Compliance Matrix: (Units=1/GPa)
#
#
# Indices 1 2 3 4 5 6 
#
# 1 0.022621 -0.004028 -0.011068 0.000000 0.000000 0.000000
# 2 -0.004028 0.018057 -0.010088 0.000000 0.000000 0.000000
# 3 -0.011068 -0.010088 0.025512 0.000000 0.000000 0.000000
# 4 0.000000 0.000000 0.000000 0.047188 0.000000 0.000000
# 5 0.000000 0.000000 0.000000 0.000000 0.047612 0.000000
# 6 0.000000 0.000000 0.000000 0.000000 0.000000 0.079069
#
#
# Mechanical properties :
#
#
# Convention : Reuss Voigt Hill
#
# Bulk Modulus (GPa) = 63.20600 64.37492 63.79046
# Shear Modulus (GPa) = 16.90893 17.90692 17.40793
#
# Velocity S-wave (km/s) = 3.67047 3.77724 3.72424
# Velocity P-wave (km/s) = 8.26579 8.38539 8.32581
#
# Compressibility (1/GPa) = 0.01582128
#
# Stress axis : x y z
#
# Youngs Moduli (GPa) = 44.20580 55.37976 39.19796
#
# Poissons Ratio (x) = 0.22307 0.43386
# Poissons Ratio (y) = 0.17806 0.39543
# Poissons Ratio (z) = 0.48929 0.55867
#
# Static dielectric constant tensor:
#      x y z
#    x 1.378470 0.000000 0.000000 
#    y 0.000000 1.424870 0.000000 
#    z 0.000000 0.000000 1.418460 
# 
# From -- ./inp_files/6914.got.cif
#   From: 2010.05.17/outbox.cif.g08.bks.cpg/sg66_4_cif.got.tgz:6914.got - 2010.06.03 17:51:23.
