data_PCOD9495874
_publ_section_title
;
Structure prediction by ZEFSAII (Michael W. Deem and Ramdas Pophale) SiO2 
 PCOD9495874
Probable space group: C C C M
;
_chemical_formula_sum "Si O2"
_cell_formula_units_Z 112
_cell_length_a 21.856275
_cell_length_b 15.490137
_cell_length_c 14.740234
_cell_angle_alpha 90.000000
_cell_angle_beta 90.000000
_cell_angle_gamma 90.000000
_cell_volume 4990.404893
_symmetry_space_group_name_H-M "C C C M"
_symmetry_group_IT_number 66
_symmetry_cell_setting 'orthorhombic'
loop_
_space_group_symop_operation_xyz
x,y,z
-x,-y,z
x,-y,1/2-z
-x,y,1/2-z
-x,-y,-z
x,y,-z
-x,y,1/2+z
x,-y,1/2+z
1/2+x,1/2+y,z
1/2-x,1/2-y,z
1/2+x,1/2-y,1/2-z
1/2-x,1/2+y,1/2-z
1/2-x,1/2-y,-z
1/2+x,1/2+y,-z
1/2-x,1/2+y,1/2+z
1/2+x,1/2-y,1/2+z
loop_
_atom_site_type_symbol
_atom_site_label
_atom_site_fract_x
_atom_site_fract_y
_atom_site_fract_z
Si Si1 0.532561 0.825093 0.109858
Si Si2 0.011139 0.863961 0.109993
Si Si3 0.410748 0.100404 0.601263
Si Si4 0.785677 0.666586 0.389795
Si Si5 0.638116 0.934642 0.166561
Si Si6 0.734901 0.523695 0.890945
Si Si7 0.901556 0.007633 0.610679
O O1 0.504480 0.732806 0.137078
O O2 0.478932 0.891877 0.137581
O O3 0.595196 0.852565 0.157618
O O4 0.543525 0.825361 0.000000
O O5 0.072901 0.913502 0.139681
O O6 0.953991 0.924516 0.135842
O O7 0.013571 0.863335 0.000000
O O8 0.417346 0.137918 0.500000
O O9 0.355184 0.154984 0.644492
O O10 0.386773 0.003156 0.592572
O O11 0.788723 0.673084 0.500000
O O12 0.750000 0.750000 0.355774
O O13 0.751855 0.576383 0.371871
O O14 0.627769 0.000000 0.250000
O O15 0.710244 0.921347 0.152784
O O16 0.665632 0.535255 0.858515
O O17 0.737466 0.536413 0.000000
O O18 0.898597 0.005855 0.500000
#
# Coordination Sequence:
#
# PCOD9495874 Si02
#       7
#    16  16  16  16  16  16  16
#     4  10  19  31  51  76 107 140 175 216 260 316
#     4   8  15  27  47  82 115 134 162 212 269 319
#     4   9  18  31  48  72  99 129 164 208 260 311
#     4   8  14  23  39  67  98 122 155 200 246 299
#     4  11  22  35  49  69  99 142 180 220 259 312
#     4   9  17  30  51  74 100 137 174 213 266 317
#     4   8  14  27  49  80 114 136 161 211 271 321
#
# _framework density 22.443069000000001
#
# number of rings (size 3 to 8) (size 9 to 14) (size 15 to 20)
#    0.000    3.000    0.000    3.429    2.000    2.286 
#    0.000    0.714    0.000   10.286    3.714    1.000 
#    0.000    0.000    0.000    0.000    0.000    0.000 
#
# Total GULP energy -312239.797451 kJ/mol
# GULP energy per Si atom -5575.710669 kJ/mol
# Density = 2.239199 g / cm^3
# Si number density = 22.443069 Si / 1000 Ang^3
#
#
#
# Elastic Constant Matrix: (Units=GPa)
#
#
# Indices 1 2 3 4 5 6 
#
# 1 130.8462 10.1777 -10.0875 0.0000 0.0000 0.0000
# 2 10.1777 43.9288 -19.3171 0.0000 0.0000 0.0000
# 3 -10.0875 -19.3171 56.9376 0.0000 0.0000 0.0000
# 4 0.0000 0.0000 0.0000 -4.7728 0.0000 0.0000
# 5 0.0000 0.0000 0.0000 0.0000 -7.2397 0.0000
# 6 0.0000 0.0000 0.0000 0.0000 0.0000 22.4214
#
#
#
# Elastic Compliance Matrix: (Units=1/GPa)
#
#
# Indices 1 2 3 4 5 6 
#
# 1 0.007822 -0.001414 0.000906 0.000000 0.000000 0.000000
# 2 -0.001414 0.027011 0.008914 0.000000 0.000000 0.000000
# 3 0.000906 0.008914 0.020748 0.000000 0.000000 0.000000
# 4 0.000000 0.000000 0.000000 -0.209519 0.000000 0.000000
# 5 0.000000 0.000000 0.000000 0.000000 -0.138128 0.000000
# 6 0.000000 0.000000 0.000000 0.000000 0.000000 0.044600
#
#
# Mechanical properties :
#
#
# Convention : Reuss Voigt Hill
#
# Bulk Modulus (GPa) = 13.81345 21.47320 17.64332
# Shear Modulus (GPa) = -20.82065 18.81108 -1.00478
#
# Velocity S-wave (km/s) = -3.04914 2.89826 -0.66983
# Velocity P-wave (km/s) = 2.49561 4.55944 2.69818
#
# Compressibility (1/GPa) = 0.07239321
#
# Stress axis : x y z
#
# Youngs Moduli (GPa) = 127.83802 37.02158 48.19809
#
# Poissons Ratio (x) = 0.05234 -0.04368
# Poissons Ratio (y) = 0.18074 -0.42962
# Poissons Ratio (z) = -0.11585 -0.32999
#
# Static dielectric constant tensor:
#      x y z
#    x 1.853560 0.000000 0.000000 
#    y 0.000000 1.827050 0.000000 
#    z 0.000000 0.000000 1.974090 
# 
# From -- ./inp_files/43062.got.cif
#   From: 2010.05.17/outbox.cif.g08.bks.cpg/sg66_22_cif.got.tgz:43062.got - 2010.06.03 17:51:23.
