data_PCOD9495255
_publ_section_title
;
Structure prediction by ZEFSAII (Michael W. Deem and Ramdas Pophale) SiO2 
 PCOD9495255
Probable space group: C C C M
;
_chemical_formula_sum "Si O2"
_cell_formula_units_Z 112
_cell_length_a 18.992297
_cell_length_b 20.519886
_cell_length_c 16.241810
_cell_angle_alpha 90.000000
_cell_angle_beta 90.000000
_cell_angle_gamma 90.000000
_cell_volume 6329.754447
_symmetry_space_group_name_H-M "C C C M"
_symmetry_group_IT_number 66
_symmetry_cell_setting 'orthorhombic'
loop_
_space_group_symop_operation_xyz
x,y,z
-x,-y,z
x,-y,1/2-z
-x,y,1/2-z
-x,-y,-z
x,y,-z
-x,y,1/2+z
x,-y,1/2+z
1/2+x,1/2+y,z
1/2-x,1/2-y,z
1/2+x,1/2-y,1/2-z
1/2-x,1/2+y,1/2-z
1/2-x,1/2-y,-z
1/2+x,1/2+y,-z
1/2-x,1/2+y,1/2+z
1/2+x,1/2-y,1/2+z
loop_
_atom_site_type_symbol
_atom_site_label
_atom_site_fract_x
_atom_site_fract_y
_atom_site_fract_z
Si Si1 0.579765 0.686424 0.093042
Si Si2 0.663724 0.430711 0.204859
Si Si3 0.774489 0.865873 0.139079
Si Si4 0.070834 0.465419 0.899554
Si Si5 0.025601 0.926071 0.099686
Si Si6 0.877832 0.322837 0.399290
Si Si7 0.279374 0.009174 0.595055
O O1 0.661350 0.665624 0.090430
O O2 0.533371 0.626684 0.126463
O O3 0.581559 0.758506 0.130839
O O4 0.553191 0.694893 0.000000
O O5 0.648362 0.500000 0.250000
O O6 0.690603 0.379662 0.272261
O O7 0.596531 0.413056 0.150203
O O8 0.730038 0.444570 0.146696
O O9 0.701715 0.826379 0.135536
O O10 0.753268 0.936495 0.102619
O O11 0.082339 0.389827 0.877376
O O12 0.141101 0.503396 0.872687
O O13 0.000000 0.500000 0.870505
O O14 0.070913 0.467111 0.000000
O O15 0.036458 0.922692 0.000000
O O16 0.000000 0.000000 0.116516
O O17 0.871658 0.320757 0.500000
O O18 0.280347 0.028028 0.500000
#
# Coordination Sequence:
#
# PCOD9495255 Si02
#       7
#    16  16  16  16  16  16  16
#     4  10  19  30  48  73  99 129 162 199 244 291
#     4  10  20  30  45  68  97 133 169 204 245 295
#     4  10  18  28  46  70  99 129 158 197 246 297
#     4   8  14  26  48  76  98 116 147 196 247 290
#     4  10  20  33  49  71 101 137 177 215 248 288
#     4   9  17  30  50  75  99 124 157 196 244 300
#     4   9  16  28  47  70  96 126 162 203 244 287
#
# _framework density 17.694209000000001
#
# number of rings (size 3 to 8) (size 9 to 14) (size 15 to 20)
#    0.000    2.571    0.000    4.714    0.000    4.286 
#    0.000    0.000    0.000   15.857    0.000    0.000 
#    0.000   11.429    0.000    0.571    0.000    0.000 
#
# Total GULP energy -312031.188487 kJ/mol
# GULP energy per Si atom -5571.985509 kJ/mol
# Density = 1.765394 g / cm^3
# Si number density = 17.694209 Si / 1000 Ang^3
#
#
#
# Elastic Constant Matrix: (Units=GPa)
#
#
# Indices 1 2 3 4 5 6 
#
# 1 132.5849 71.6722 26.9740 0.0000 0.0000 0.0000
# 2 71.6722 90.8907 25.1049 0.0000 0.0000 0.0000
# 3 26.9740 25.1049 42.8326 0.0000 0.0000 0.0000
# 4 0.0000 0.0000 0.0000 7.2262 0.0000 0.0000
# 5 0.0000 0.0000 0.0000 0.0000 4.8418 0.0000
# 6 0.0000 0.0000 0.0000 0.0000 0.0000 25.6202
#
#
#
# Elastic Compliance Matrix: (Units=1/GPa)
#
#
# Indices 1 2 3 4 5 6 
#
# 1 0.013399 -0.009826 -0.002679 0.000000 0.000000 0.000000
# 2 -0.009826 0.020333 -0.005730 0.000000 0.000000 0.000000
# 3 -0.002679 -0.005730 0.028392 0.000000 0.000000 0.000000
# 4 0.000000 0.000000 0.000000 0.138385 0.000000 0.000000
# 5 0.000000 0.000000 0.000000 0.000000 0.206534 0.000000
# 6 0.000000 0.000000 0.000000 0.000000 0.000000 0.039032
#
#
# Mechanical properties :
#
#
# Convention : Reuss Voigt Hill
#
# Bulk Modulus (GPa) = 38.97863 57.09004 48.03433
# Shear Modulus (GPa) = 10.18132 17.04145 13.61138
#
# Velocity S-wave (km/s) = 2.40136 3.10677 2.77656
# Velocity P-wave (km/s) = 5.45578 6.72341 6.12249
#
# Compressibility (1/GPa) = 0.02565508
#
# Stress axis : x y z
#
# Youngs Moduli (GPa) = 74.63250 49.18105 35.22116
#
# Poissons Ratio (x) = 0.48325 0.09436
# Poissons Ratio (y) = 0.73333 0.20181
# Poissons Ratio (z) = 0.19994 0.28179
#
# Static dielectric constant tensor:
#      x y z
#    x 1.600140 0.000000 0.000000 
#    y 0.000000 1.617260 0.000000 
#    z 0.000000 0.000000 1.631980 
# 
# From -- ./inp_files/41962.got.cif
#   From: 2010.05.17/outbox.cif.g08.bks.cpg/sg66_21_cif.got.tgz:41962.got - 2010.06.03 17:51:23.
