data_PCOD9495901
_publ_section_title
;
Structure prediction by ZEFSAII (Michael W. Deem and Ramdas Pophale) SiO2 
 PCOD9495901
Probable space group: C C C M
;
_chemical_formula_sum "Si O2"
_cell_formula_units_Z 116
_cell_length_a 12.674975
_cell_length_b 28.542572
_cell_length_c 14.034505
_cell_angle_alpha 90.000000
_cell_angle_beta 90.000000
_cell_angle_gamma 90.000000
_cell_volume 5077.352506
_symmetry_space_group_name_H-M "C C C M"
_symmetry_group_IT_number 66
_symmetry_cell_setting 'orthorhombic'
loop_
_space_group_symop_operation_xyz
x,y,z
-x,-y,z
x,-y,1/2-z
-x,y,1/2-z
-x,-y,-z
x,y,-z
-x,y,1/2+z
x,-y,1/2+z
1/2+x,1/2+y,z
1/2-x,1/2-y,z
1/2+x,1/2-y,1/2-z
1/2-x,1/2+y,1/2-z
1/2-x,1/2-y,-z
1/2+x,1/2+y,-z
1/2-x,1/2+y,1/2+z
1/2+x,1/2-y,1/2+z
loop_
_atom_site_type_symbol
_atom_site_label
_atom_site_fract_x
_atom_site_fract_y
_atom_site_fract_z
Si Si1 0.377928 0.130821 0.884665
Si Si2 0.800491 0.799639 0.116330
Si Si3 0.108067 0.477812 0.853629
Si Si4 0.228504 0.134721 0.384189
Si Si5 0.000000 0.000000 0.250000
Si Si6 0.317260 0.468153 0.608987
Si Si7 0.574110 0.195026 0.116177
Si Si8 0.458752 0.699899 0.116391
O O1 0.268389 0.155259 0.857209
O O2 0.398134 0.078280 0.850535
O O3 0.468316 0.167752 0.856690
O O4 0.380211 0.127622 0.000000
O O5 0.750000 0.750000 0.147594
O O6 0.920816 0.804931 0.146899
O O7 0.799884 0.797666 0.000000
O O8 0.110456 0.500000 0.750000
O O9 0.222982 0.493592 0.892644
O O10 0.000000 0.500000 0.897610
O O11 0.231704 0.136269 0.500000
O O12 0.235596 0.080614 0.358608
O O13 0.326486 0.165326 0.351195
O O14 0.120101 0.159085 0.354064
O O15 0.083640 0.975775 0.178098
O O16 0.355462 0.463098 0.500000
O O17 0.579283 0.248667 0.147138
O O18 0.574638 0.196104 0.000000
O O19 0.458378 0.699868 0.000000
#
# Coordination Sequence:
#
# PCOD9495901 Si02
#       8
#    16  16  16  16   4  16  16  16
#     4  10  19  31  55  88 121 165 212 261 328 401
#     4   9  15  26  44  74 120 160 197 251 315 387
#     4  11  24  43  65  95 132 174 228 291 353 410
#     4   9  18  30  50  84 119 164 216 258 314 387
#     4  12  26  48  70  98 132 168 226 286 344 406
#     4  11  24  45  71  97 134 179 227 286 342 403
#     4   9  15  26  47  81 126 165 204 260 321 388
#     4   9  15  25  44  77 124 163 200 259 317 379
#
# _framework density 22.846554000000001
#
# number of rings (size 3 to 8) (size 9 to 14) (size 15 to 20)
#    0.000    2.207    2.069    1.862    0.000    4.966 
#    0.000    2.759    0.000    0.000    0.000   11.586 
#    0.000    0.000    0.000    0.000    0.000    0.276 
#
# Total GULP energy -324250.569679 kJ/mol
# GULP energy per Si atom -5590.527063 kJ/mol
# Density = 2.279455 g / cm^3
# Si number density = 22.846554 Si / 1000 Ang^3
#
#
#
# Elastic Constant Matrix: (Units=GPa)
#
#
# Indices 1 2 3 4 5 6 
#
# 1 106.6268 -2.9321 -2.4534 0.0000 0.0000 0.0000
# 2 -2.9321 74.8810 -8.3858 0.0000 0.0000 0.0000
# 3 -2.4534 -8.3858 87.2693 0.0000 0.0000 0.0000
# 4 0.0000 0.0000 0.0000 -13.5160 0.0000 0.0000
# 5 0.0000 0.0000 0.0000 0.0000 -9.1640 0.0000
# 6 0.0000 0.0000 0.0000 0.0000 0.0000 35.0287
#
#
#
# Elastic Compliance Matrix: (Units=1/GPa)
#
#
# Indices 1 2 3 4 5 6 
#
# 1 0.009397 0.000402 0.000303 0.000000 0.000000 0.000000
# 2 0.000402 0.013517 0.001310 0.000000 0.000000 0.000000
# 3 0.000303 0.001310 0.011593 0.000000 0.000000 0.000000
# 4 0.000000 0.000000 0.000000 -0.073987 0.000000 0.000000
# 5 0.000000 0.000000 0.000000 0.000000 -0.109123 0.000000
# 6 0.000000 0.000000 0.000000 0.000000 0.000000 0.028548
#
#
# Mechanical properties :
#
#
# Convention : Reuss Voigt Hill
#
# Bulk Modulus (GPa) = 25.94958 26.80382 26.37670
# Shear Modulus (GPa) = -44.94826 21.30632 -11.82097
#
# Velocity S-wave (km/s) = -4.44035 3.05714 -2.27713
# Velocity P-wave (km/s) = 3.86084 4.92128 2.15789
#
# Compressibility (1/GPa) = 0.03853628
#
# Stress axis : x y z
#
# Youngs Moduli (GPa) = 106.42238 73.98097 86.25755
#
# Poissons Ratio (x) = -0.02973 -0.02612
# Poissons Ratio (y) = -0.04277 -0.11301
# Poissons Ratio (z) = -0.03222 -0.09693
#
# Static dielectric constant tensor:
#      x y z
#    x 1.842110 0.000000 0.000000 
#    y 0.000000 1.782250 0.000000 
#    z 0.000000 0.000000 1.968380 
# 
# From -- ./inp_files/39156.got.cif
#   From: 2010.05.17/outbox.cif.g08.bks.cpg/sg66_20_cif.got.tgz:39156.got - 2010.06.03 17:51:23.
