data_PCOD9495023
_publ_section_title
;
Structure prediction by ZEFSAII (Michael W. Deem and Ramdas Pophale) SiO2 
 PCOD9495023
Probable space group: C C C M
;
_chemical_formula_sum "Si O2"
_cell_formula_units_Z 80
_cell_length_a 15.607612
_cell_length_b 30.057188
_cell_length_c 8.582352
_cell_angle_alpha 90.000000
_cell_angle_beta 90.000000
_cell_angle_gamma 90.000000
_cell_volume 4026.160936
_symmetry_space_group_name_H-M "C C C M"
_symmetry_group_IT_number 66
_symmetry_cell_setting 'orthorhombic'
loop_
_space_group_symop_operation_xyz
x,y,z
-x,-y,z
x,-y,1/2-z
-x,y,1/2-z
-x,-y,-z
x,y,-z
-x,y,1/2+z
x,-y,1/2+z
1/2+x,1/2+y,z
1/2-x,1/2-y,z
1/2+x,1/2-y,1/2-z
1/2-x,1/2+y,1/2-z
1/2-x,1/2-y,-z
1/2+x,1/2+y,-z
1/2-x,1/2+y,1/2+z
1/2+x,1/2-y,1/2+z
loop_
_atom_site_type_symbol
_atom_site_label
_atom_site_fract_x
_atom_site_fract_y
_atom_site_fract_z
Si Si1 0.413799 0.050006 0.314009
Si Si2 0.592302 0.179889 0.311941
Si Si3 0.272407 0.450192 0.185123
Si Si4 0.772573 0.859716 0.316322
Si Si5 0.343534 0.726884 0.322229
O O1 0.500000 0.071944 0.250000
O O2 0.412226 0.051475 0.500000
O O3 0.323208 0.062455 0.243229
O O4 0.418323 0.000000 0.250000
O O5 0.500000 0.164663 0.250000
O O6 0.595129 0.177110 0.500000
O O7 0.677708 0.154965 0.248859
O O8 0.600147 0.231973 0.264137
O O9 0.293592 0.500000 0.250000
O O10 0.315323 0.404513 0.243950
O O11 0.275119 0.453366 0.000000
O O12 0.763060 0.866529 0.500000
O O13 0.832407 0.817302 0.277871
O O14 0.367535 0.715028 0.500000
O O15 0.250000 0.750000 0.329456
#
# Coordination Sequence:
#
# PCOD9495023 Si02
#       5
#    16  16  16  16  16
#     4  10  17  27  40  55  74 101 139 181 227 272
#     4  10  20  34  52  75 102 130 162 201 245 290
#     4  11  21  34  48  64  88 119 158 202 244 282
#     4  11  21  33  50  72  97 129 167 202 243 293
#     4   8  16  32  51  71  97 128 159 195 242 292
#
# _framework density 19.870044
#
# number of rings (size 3 to 8) (size 9 to 14) (size 15 to 20)
#    0.000    2.000    0.000    9.000    0.000    5.200 
#    0.000    4.000    0.000    0.000    0.000    0.000 
#    0.000    0.800    0.000    8.400    0.000    4.600 
#
# Total GULP energy -222751.701695 kJ/mol
# GULP energy per Si atom -5568.792542 kJ/mol
# Density = 1.982482 g / cm^3
# Si number density = 19.870044 Si / 1000 Ang^3
#
#
#
# Elastic Constant Matrix: (Units=GPa)
#
#
# Indices 1 2 3 4 5 6 
#
# 1 16.2475 20.5902 -0.9250 0.0000 0.0000 0.0000
# 2 20.5902 184.5969 70.7752 0.0000 0.0000 0.0000
# 3 -0.9250 70.7752 144.9184 0.0000 0.0000 0.0000
# 4 0.0000 0.0000 0.0000 32.3564 0.0000 0.0000
# 5 0.0000 0.0000 0.0000 0.0000 13.6803 0.0000
# 6 0.0000 0.0000 0.0000 0.0000 0.0000 3.6399
#
#
#
# Elastic Compliance Matrix: (Units=1/GPa)
#
#
# Indices 1 2 3 4 5 6 
#
# 1 0.075242 -0.010553 0.005634 0.000000 0.000000 0.000000
# 2 -0.010553 0.008145 -0.004045 0.000000 0.000000 0.000000
# 3 0.005634 -0.004045 0.008912 0.000000 0.000000 0.000000
# 4 0.000000 0.000000 0.000000 0.030906 0.000000 0.000000
# 5 0.000000 0.000000 0.000000 0.000000 0.073098 0.000000
# 6 0.000000 0.000000 0.000000 0.000000 0.000000 0.274730
#
#
# Mechanical properties :
#
#
# Convention : Reuss Voigt Hill
#
# Bulk Modulus (GPa) = 13.44607 58.51598 35.98102
# Shear Modulus (GPa) = 9.73233 26.95680 18.34456
#
# Velocity S-wave (km/s) = 2.21554 3.68728 3.04176
# Velocity P-wave (km/s) = 3.65055 6.90227 5.52122
#
# Compressibility (1/GPa) = 0.07437118
#
# Stress axis : x y z
#
# Youngs Moduli (GPa) = 13.29045 122.77053 112.20749
#
# Poissons Ratio (x) = 1.29556 -0.63217
# Poissons Ratio (y) = 0.14025 0.45392
# Poissons Ratio (z) = -0.07488 0.49665
#
# Static dielectric constant tensor:
#      x y z
#    x 1.592570 0.000000 0.000000 
#    y 0.000000 1.750940 0.000000 
#    z 0.000000 0.000000 1.679490 
# 
# From -- ./inp_files/6895.got.cif
#   From: 2010.05.17/outbox.cif.g08.bks.cpg/sg66_4_cif.got.tgz:6895.got - 2010.06.03 17:51:23.
