data_PCOD9495675
_publ_section_title
;
Structure prediction by ZEFSAII (Michael W. Deem and Ramdas Pophale) SiO2 
 PCOD9495675
Probable space group: C C C M
;
_chemical_formula_sum "Si O2"
_cell_formula_units_Z 72
_cell_length_a 16.187652
_cell_length_b 13.311821
_cell_length_c 16.519525
_cell_angle_alpha 90.000000
_cell_angle_beta 90.000000
_cell_angle_gamma 90.000000
_cell_volume 3559.744962
_symmetry_space_group_name_H-M "C C C M"
_symmetry_group_IT_number 66
_symmetry_cell_setting 'orthorhombic'
loop_
_space_group_symop_operation_xyz
x,y,z
-x,-y,z
x,-y,1/2-z
-x,y,1/2-z
-x,-y,-z
x,y,-z
-x,y,1/2+z
x,-y,1/2+z
1/2+x,1/2+y,z
1/2-x,1/2-y,z
1/2+x,1/2-y,1/2-z
1/2-x,1/2+y,1/2-z
1/2-x,1/2-y,-z
1/2+x,1/2+y,-z
1/2-x,1/2+y,1/2+z
1/2+x,1/2-y,1/2+z
loop_
_atom_site_type_symbol
_atom_site_label
_atom_site_fract_x
_atom_site_fract_y
_atom_site_fract_z
Si Si1 0.250000 0.250000 0.323704
Si Si2 0.155846 0.596181 0.704573
Si Si3 0.692733 0.448267 0.592951
Si Si4 0.098439 0.864060 0.843764
Si Si5 0.920546 0.205391 0.657259
O O1 0.211916 0.337432 0.266670
O O2 0.173923 0.205209 0.372876
O O3 0.119295 0.500000 0.750000
O O4 0.220479 0.554482 0.638875
O O5 0.090688 0.675707 0.669214
O O6 0.701966 0.476109 0.500000
O O7 0.627527 0.524515 0.634775
O O8 0.651982 0.338727 0.602686
O O9 0.092665 0.843263 0.746966
O O10 0.009215 0.830281 0.874576
#
# Coordination Sequence:
#
# PCOD9495675 Si02
#       5
#     8  16  16  16  16
#     4  10  18  36  64  80 110 150 198 248 294 348
#     4  11  19  37  62  85 117 153 199 249 296 353
#     4  12  22  34  57  89 122 160 195 236 297 359
#     4  10  20  37  58  85 113 150 198 247 296 347
#     4  10  21  36  59  87 118 150 192 249 303 345
#
# _framework density 20.226168999999999
#
# number of rings (size 3 to 8) (size 9 to 14) (size 15 to 20)
#    0.000    1.333    6.667    1.333    0.000    5.333 
#    0.000    9.444    0.000    0.000    0.000    1.556 
#    0.000    0.000    0.000    0.000    0.000    0.000 
#
# Total GULP energy -200934.777114 kJ/mol
# GULP energy per Si atom -5581.521586 kJ/mol
# Density = 2.018013 g / cm^3
# Si number density = 20.226169 Si / 1000 Ang^3
#
#
#
# Elastic Constant Matrix: (Units=GPa)
#
#
# Indices 1 2 3 4 5 6 
#
# 1 36.8273 20.0540 14.2438 0.0000 0.0000 0.0000
# 2 20.0540 122.8281 30.2937 0.0000 0.0000 0.0000
# 3 14.2438 30.2937 35.6788 0.0000 0.0000 0.0000
# 4 0.0000 0.0000 0.0000 1.3695 0.0000 0.0000
# 5 0.0000 0.0000 0.0000 0.0000 7.6743 0.0000
# 6 0.0000 0.0000 0.0000 0.0000 0.0000 29.1505
#
#
#
# Elastic Compliance Matrix: (Units=1/GPa)
#
#
# Indices 1 2 3 4 5 6 
#
# 1 0.032799 -0.002689 -0.010811 0.000000 0.000000 0.000000
# 2 -0.002689 0.010518 -0.007857 0.000000 0.000000 0.000000
# 3 -0.010811 -0.007857 0.039015 0.000000 0.000000 0.000000
# 4 0.000000 0.000000 0.000000 0.730192 0.000000 0.000000
# 5 0.000000 0.000000 0.000000 0.000000 0.130305 0.000000
# 6 0.000000 0.000000 0.000000 0.000000 0.000000 0.034305
#
#
# Mechanical properties :
#
#
# Convention : Reuss Voigt Hill
#
# Bulk Modulus (GPa) = 25.24087 36.05745 30.64916
# Shear Modulus (GPa) = 4.84001 16.35505 10.59753
#
# Velocity S-wave (km/s) = 1.54859 2.84669 2.29148
# Velocity P-wave (km/s) = 3.96282 5.35450 4.71034
#
# Compressibility (1/GPa) = 0.03961828
#
# Stress axis : x y z
#
# Youngs Moduli (GPa) = 30.48832 95.07194 25.63087
#
# Poissons Ratio (x) = 0.25561 0.27711
# Poissons Ratio (y) = 0.08197 0.20139
# Poissons Ratio (z) = 0.32962 0.74702
#
# Static dielectric constant tensor:
#      x y z
#    x 1.743620 0.000000 0.000000 
#    y 0.000000 1.767020 0.000000 
#    z 0.000000 0.000000 1.722160 
# 
# From -- ./inp_files/38336.got.cif
#   From: 2010.05.17/outbox.cif.g08.bks.cpg/sg66_20_cif.got.tgz:38336.got - 2010.06.03 17:51:23.
