data_PCOD9495406
_publ_section_title
;
Structure prediction by ZEFSAII (Michael W. Deem and Ramdas Pophale) SiO2 
 PCOD9495406
Probable space group: C C C M
;
_chemical_formula_sum "Si O2"
_cell_formula_units_Z 112
_cell_length_a 16.044349
_cell_length_b 25.086738
_cell_length_c 14.617981
_cell_angle_alpha 90.000000
_cell_angle_beta 90.000000
_cell_angle_gamma 90.000000
_cell_volume 5883.742904
_symmetry_space_group_name_H-M "C C C M"
_symmetry_group_IT_number 66
_symmetry_cell_setting 'orthorhombic'
loop_
_space_group_symop_operation_xyz
x,y,z
-x,-y,z
x,-y,1/2-z
-x,y,1/2-z
-x,-y,-z
x,y,-z
-x,y,1/2+z
x,-y,1/2+z
1/2+x,1/2+y,z
1/2-x,1/2-y,z
1/2+x,1/2-y,1/2-z
1/2-x,1/2+y,1/2-z
1/2-x,1/2-y,-z
1/2+x,1/2+y,-z
1/2-x,1/2+y,1/2+z
1/2+x,1/2-y,1/2+z
loop_
_atom_site_type_symbol
_atom_site_label
_atom_site_fract_x
_atom_site_fract_y
_atom_site_fract_z
Si Si1 0.014657 0.290618 0.102917
Si Si2 0.993661 0.405806 0.888993
Si Si3 0.333299 0.769924 0.153325
Si Si4 0.162337 0.550905 0.390837
Si Si5 0.915863 0.189449 0.716302
Si Si6 0.803779 0.430541 0.109417
Si Si7 0.749142 0.362321 0.266795
O O1 0.030384 0.348972 0.144308
O O2 0.913213 0.291665 0.100937
O O3 0.052290 0.239706 0.155292
O O4 0.047154 0.288480 0.000000
O O5 0.898859 0.415827 0.861031
O O6 0.063795 0.449161 0.866842
O O7 0.989847 0.402953 0.000000
O O8 0.250000 0.750000 0.103718
O O9 0.372681 0.717651 0.197837
O O10 0.301807 0.810307 0.233257
O O11 0.167717 0.560341 0.500000
O O12 0.202842 0.493534 0.372869
O O13 0.204166 0.598249 0.335294
O O14 0.838503 0.153716 0.685534
O O15 0.000000 0.160856 0.750000
O O16 0.742626 0.395523 0.171517
O O17 0.795202 0.420873 0.000000
#
# Coordination Sequence:
#
# PCOD9495406 Si02
#       7
#    16  16  16  16  16  16  16
#     4  10  18  31  52  77 107 145 182 220 273 337
#     4   9  17  31  51  77 112 146 174 213 270 333
#     4   9  18  32  50  74 105 138 176 225 274 328
#     4  10  21  34  51  78 111 147 183 225 274 333
#     4   9  20  36  51  73 105 140 179 226 280 332
#     4  10  20  35  54  79 112 143 182 231 277 332
#     4  11  20  34  56  78 106 145 186 231 279 331
#
# _framework density 19.035502000000001
#
# number of rings (size 3 to 8) (size 9 to 14) (size 15 to 20)
#    0.000    2.286    1.429    1.714    0.000    3.143 
#    0.000    7.143    0.000    6.857    0.000    2.000 
#    0.000    0.000    0.000    0.000    0.000    0.000 
#
# Total GULP energy -311764.850665 kJ/mol
# GULP energy per Si atom -5567.229476 kJ/mol
# Density = 1.899218 g / cm^3
# Si number density = 19.035502 Si / 1000 Ang^3
#
#
#
# Elastic Constant Matrix: (Units=GPa)
#
#
# Indices 1 2 3 4 5 6 
#
# 1 93.9079 36.9681 18.8521 0.0000 0.0000 0.0000
# 2 36.9681 60.7986 6.0493 0.0000 0.0000 0.0000
# 3 18.8521 6.0493 40.0288 0.0000 0.0000 0.0000
# 4 0.0000 0.0000 0.0000 15.3535 0.0000 0.0000
# 5 0.0000 0.0000 0.0000 0.0000 8.6899 0.0000
# 6 0.0000 0.0000 0.0000 0.0000 0.0000 24.6574
#
#
#
# Elastic Compliance Matrix: (Units=1/GPa)
#
#
# Indices 1 2 3 4 5 6 
#
# 1 0.015246 -0.008687 -0.005868 0.000000 0.000000 0.000000
# 2 -0.008687 0.021648 0.000820 0.000000 0.000000 0.000000
# 3 -0.005868 0.000820 0.027622 0.000000 0.000000 0.000000
# 4 0.000000 0.000000 0.000000 0.065132 0.000000 0.000000
# 5 0.000000 0.000000 0.000000 0.000000 0.115076 0.000000
# 6 0.000000 0.000000 0.000000 0.000000 0.000000 0.040556
#
#
# Mechanical properties :
#
#
# Convention : Reuss Voigt Hill
#
# Bulk Modulus (GPa) = 26.99313 35.38603 31.18958
# Shear Modulus (GPa) = 15.38000 18.59787 16.98893
#
# Velocity S-wave (km/s) = 2.84555 3.12911 2.99069
# Velocity P-wave (km/s) = 5.00074 5.62894 5.32411
#
# Compressibility (1/GPa) = 0.03704646
#
# Stress axis : x y z
#
# Youngs Moduli (GPa) = 65.58994 46.19365 36.20352
#
# Poissons Ratio (x) = 0.40126 0.21243
# Poissons Ratio (y) = 0.56975 -0.02967
# Poissons Ratio (z) = 0.38486 -0.03786
#
# Static dielectric constant tensor:
#      x y z
#    x 1.732870 0.000000 0.000000 
#    y 0.000000 1.713070 0.000000 
#    z 0.000000 0.000000 1.694980 
# 
# From -- ./inp_files/28852.got.cif
#   From: 2010.05.17/outbox.cif.g08.bks.cpg/sg66_15_cif.got.tgz:28852.got - 2010.06.03 17:51:23.
