data_PCOD9495139
_publ_section_title
;
Structure prediction by ZEFSAII (Michael W. Deem and Ramdas Pophale) SiO2 
 PCOD9495139
Probable space group: C C C M
;
_chemical_formula_sum "Si O2"
_cell_formula_units_Z 72
_cell_length_a 7.784267
_cell_length_b 30.351988
_cell_length_c 14.060949
_cell_angle_alpha 90.000000
_cell_angle_beta 90.000000
_cell_angle_gamma 90.000000
_cell_volume 3322.151997
_symmetry_space_group_name_H-M "C C C M"
_symmetry_group_IT_number 66
_symmetry_cell_setting 'orthorhombic'
loop_
_space_group_symop_operation_xyz
x,y,z
-x,-y,z
x,-y,1/2-z
-x,y,1/2-z
-x,-y,-z
x,y,-z
-x,y,1/2+z
x,-y,1/2+z
1/2+x,1/2+y,z
1/2-x,1/2-y,z
1/2+x,1/2-y,1/2-z
1/2-x,1/2+y,1/2-z
1/2-x,1/2-y,-z
1/2+x,1/2+y,-z
1/2-x,1/2+y,1/2+z
1/2+x,1/2-y,1/2+z
loop_
_atom_site_type_symbol
_atom_site_label
_atom_site_fract_x
_atom_site_fract_y
_atom_site_fract_z
Si Si1 0.304244 0.550973 0.365010
Si Si2 0.446958 0.213378 0.890556
Si Si3 0.250000 0.250000 0.732027
Si Si4 0.003197 0.613123 0.135513
Si Si5 0.303668 0.549008 0.865139
O O1 0.302653 0.550093 0.249964
O O2 0.500915 0.558740 0.393997
O O3 0.257379 0.500982 0.393251
O O4 0.169356 0.587730 0.395227
O O5 0.290381 0.212534 0.812772
O O6 0.588036 0.245092 0.839374
O O7 0.514385 0.163611 0.894087
O O8 0.412453 0.226547 0.000000
O O9 0.165178 0.584393 0.104169
O O10 0.000000 0.613115 0.250000
#
# Coordination Sequence:
#
# PCOD9495139 Si02
#       5
#    16  16   8  16  16
#     4   8  14  25  45  78 120 166 213 256 306 367
#     4  11  23  43  68  96 127 164 215 269 335 410
#     4  10  22  46  68  92 124 162 206 264 338 406
#     4  10  17  31  53  86 122 160 208 268 320 375
#     4   8  14  25  45  78 120 166 213 256 306 367
#
# _framework density 21.672699999999999
#
# number of rings (size 3 to 8) (size 9 to 14) (size 15 to 20)
#    0.000    2.667    2.222    2.667    0.000    2.667 
#    8.000    0.000    0.000    2.667    0.000    3.111 
#    0.000    0.000    0.000    0.000    0.000    0.000 
#
# Total GULP energy -200558.501812 kJ/mol
# GULP energy per Si atom -5571.069495 kJ/mol
# Density = 2.162337 g / cm^3
# Si number density = 21.672700 Si / 1000 Ang^3
#
#
#
# Elastic Constant Matrix: (Units=GPa)
#
#
# Indices 1 2 3 4 5 6 
#
# 1 109.0816 73.3999 32.4230 0.0000 0.0000 0.0000
# 2 73.3999 85.5607 27.1083 0.0000 0.0000 0.0000
# 3 32.4230 27.1083 194.0223 0.0000 0.0000 0.0000
# 4 0.0000 0.0000 0.0000 -382.4128 0.0000 0.0000
# 5 0.0000 0.0000 0.0000 0.0000 -26.1002 0.0000
# 6 0.0000 0.0000 0.0000 0.0000 0.0000 -2.3175
#
#
#
# Elastic Compliance Matrix: (Units=1/GPa)
#
#
# Indices 1 2 3 4 5 6 
#
# 1 0.021901 -0.018445 -0.001083 0.000000 0.000000 0.000000
# 2 -0.018445 0.027763 -0.000797 0.000000 0.000000 0.000000
# 3 -0.001083 -0.000797 0.005446 0.000000 0.000000 0.000000
# 4 0.000000 0.000000 0.000000 -0.002615 0.000000 0.000000
# 5 0.000000 0.000000 0.000000 0.000000 -0.038314 0.000000
# 6 0.000000 0.000000 0.000000 0.000000 0.000000 -0.431504
#
#
# Mechanical properties :
#
#
# Convention : Reuss Voigt Hill
#
# Bulk Modulus (GPa) = 69.14839 72.72521 70.93680
# Shear Modulus (GPa) = -13.44615 -65.11719 -39.28167
#
# Velocity S-wave (km/s) = -2.49352 -5.48734 -4.26196
# Velocity P-wave (km/s) = 4.86670 2.55322 2.92966
#
# Compressibility (1/GPa) = 0.01446165
#
# Stress axis : x y z
#
# Youngs Moduli (GPa) = 45.66090 36.01890 183.61098
#
# Poissons Ratio (x) = 0.66436 0.19880
# Poissons Ratio (y) = 0.84220 0.14628
# Poissons Ratio (z) = 0.04944 0.02870
#
# Static dielectric constant tensor:
#      x y z
#    x 1.821920 0.000000 0.000000 
#    y 0.000000 1.751430 0.000000 
#    z 0.000000 0.000000 1.869080 
# 
# From -- ./inp_files/24466.got.cif
#   From: 2010.05.17/outbox.cif.g08.bks.cpg/sg66_13_cif.got.tgz:24466.got - 2010.06.03 17:51:23.
