data_PCOD9495176
_publ_section_title
;
Structure prediction by ZEFSAII (Michael W. Deem and Ramdas Pophale) SiO2 
 PCOD9495176
Probable space group: C C C M
;
_chemical_formula_sum "Si O2"
_cell_formula_units_Z 96
_cell_length_a 21.112614
_cell_length_b 12.880777
_cell_length_c 16.672192
_cell_angle_alpha 90.000000
_cell_angle_beta 90.000000
_cell_angle_gamma 90.000000
_cell_volume 4533.950477
_symmetry_space_group_name_H-M "C C C M"
_symmetry_group_IT_number 66
_symmetry_cell_setting 'orthorhombic'
loop_
_space_group_symop_operation_xyz
x,y,z
-x,-y,z
x,-y,1/2-z
-x,y,1/2-z
-x,-y,-z
x,y,-z
-x,y,1/2+z
x,-y,1/2+z
1/2+x,1/2+y,z
1/2-x,1/2-y,z
1/2+x,1/2-y,1/2-z
1/2-x,1/2+y,1/2-z
1/2-x,1/2-y,-z
1/2+x,1/2+y,-z
1/2-x,1/2+y,1/2+z
1/2+x,1/2-y,1/2+z
loop_
_atom_site_type_symbol
_atom_site_label
_atom_site_fract_x
_atom_site_fract_y
_atom_site_fract_z
Si Si1 0.567477 0.257618 0.741973
Si Si2 0.579958 0.399266 0.590026
Si Si3 0.257220 0.904501 0.085606
Si Si4 0.185103 0.620824 0.753926
Si Si5 0.271518 0.363306 0.886680
Si Si6 0.607208 0.636929 0.408697
O O1 0.500000 0.200469 0.750000
O O2 0.556824 0.341333 0.670370
O O3 0.628274 0.188370 0.719122
O O4 0.584777 0.303117 0.829609
O O5 0.557791 0.366364 0.500000
O O6 0.655551 0.377721 0.593692
O O7 0.574198 0.523402 0.595173
O O8 0.299447 0.856371 0.154433
O O9 0.182848 0.882949 0.097946
O O10 0.262559 0.030582 0.085451
O O11 0.277436 0.863806 0.000000
O O12 0.167567 0.500000 0.750000
O O13 0.251215 0.634736 0.706712
O O14 0.250000 0.250000 0.915242
O O15 0.595836 0.677818 0.500000
#
# Coordination Sequence:
#
# PCOD9495176 Si02
#       6
#    16  16  16  16  16  16
#     4  12  25  40  58  79 109 158 209 242 276 328
#     4  10  21  37  58  91 122 146 178 232 294 355
#     4   9  19  34  57  90 120 145 175 227 296 360
#     4  10  22  39  56  83 114 150 194 239 286 337
#     4  10  17  33  59  87 117 145 179 226 288 350
#     4   9  20  38  61  89 122 147 177 229 295 358
#
# _framework density 21.173587999999999
#
# number of rings (size 3 to 8) (size 9 to 14) (size 15 to 20)
#    0.000    2.000    1.667    3.000    0.000    7.000 
#    0.000    3.333    0.000    0.000    0.000    4.667 
#    0.000    0.000    0.000    0.000    0.000    0.000 
#
# Total GULP energy -267789.987182 kJ/mol
# GULP energy per Si atom -5578.958066 kJ/mol
# Density = 2.112540 g / cm^3
# Si number density = 21.173588 Si / 1000 Ang^3
#
#
#
# Elastic Constant Matrix: (Units=GPa)
#
#
# Indices 1 2 3 4 5 6 
#
# 1 61.4312 1.0102 17.0575 0.0000 0.0000 0.0000
# 2 1.0102 76.2348 17.8063 0.0000 0.0000 0.0000
# 3 17.0575 17.8063 157.7911 0.0000 0.0000 0.0000
# 4 0.0000 0.0000 0.0000 2.7872 0.0000 0.0000
# 5 0.0000 0.0000 0.0000 0.0000 -12.4127 0.0000
# 6 0.0000 0.0000 0.0000 0.0000 0.0000 13.8022
#
#
#
# Elastic Compliance Matrix: (Units=1/GPa)
#
#
# Indices 1 2 3 4 5 6 
#
# 1 0.016785 0.000207 -0.001838 0.000000 0.000000 0.000000
# 2 0.000207 0.013475 -0.001543 0.000000 0.000000 0.000000
# 3 -0.001838 -0.001543 0.006710 0.000000 0.000000 0.000000
# 4 0.000000 0.000000 0.000000 0.358782 0.000000 0.000000
# 5 0.000000 0.000000 0.000000 0.000000 -0.080563 0.000000
# 6 0.000000 0.000000 0.000000 0.000000 0.000000 0.072452
#
#
# Mechanical properties :
#
#
# Convention : Reuss Voigt Hill
#
# Bulk Modulus (GPa) = 32.65562 40.80059 36.72811
# Shear Modulus (GPa) = 12.37018 18.14087 15.25553
#
# Velocity S-wave (km/s) = 2.41970 2.93024 2.68712
# Velocity P-wave (km/s) = 4.82316 5.54615 5.19724
#
# Compressibility (1/GPa) = 0.03062260
#
# Stress axis : x y z
#
# Youngs Moduli (GPa) = 59.57599 74.21137 149.02481
#
# Poissons Ratio (x) = -0.01535 0.27389
# Poissons Ratio (y) = -0.01232 0.22994
# Poissons Ratio (z) = 0.10949 0.11451
#
# Static dielectric constant tensor:
#      x y z
#    x 1.761660 0.000000 0.000000 
#    y 0.000000 1.783670 0.000000 
#    z 0.000000 0.000000 1.829040 
# 
# From -- ./inp_files/28381.got.cif
#   From: 2010.05.17/outbox.cif.g08.bks.cpg/sg66_15_cif.got.tgz:28381.got - 2010.06.03 17:51:23.
