data_PCOD9495974
_publ_section_title
;
Structure prediction by ZEFSAII (Michael W. Deem and Ramdas Pophale) SiO2 
 PCOD9495974
Probable space group: C C C M
;
_chemical_formula_sum "Si O2"
_cell_formula_units_Z 80
_cell_length_a 12.587929
_cell_length_b 11.895476
_cell_length_c 27.703301
_cell_angle_alpha 90.000000
_cell_angle_beta 90.000000
_cell_angle_gamma 90.000000
_cell_volume 4148.275872
_symmetry_space_group_name_H-M "C C C M"
_symmetry_group_IT_number 66
_symmetry_cell_setting 'orthorhombic'
loop_
_space_group_symop_operation_xyz
x,y,z
-x,-y,z
x,-y,1/2-z
-x,y,1/2-z
-x,-y,-z
x,y,-z
-x,y,1/2+z
x,-y,1/2+z
1/2+x,1/2+y,z
1/2-x,1/2-y,z
1/2+x,1/2-y,1/2-z
1/2-x,1/2+y,1/2-z
1/2-x,1/2-y,-z
1/2+x,1/2+y,-z
1/2-x,1/2+y,1/2+z
1/2+x,1/2-y,1/2+z
loop_
_atom_site_type_symbol
_atom_site_label
_atom_site_fract_x
_atom_site_fract_y
_atom_site_fract_z
Si Si1 0.626779 0.028331 0.695711
Si Si2 0.581824 0.792830 0.873331
Si Si3 0.845663 0.334709 0.875417
Si Si4 0.098446 0.085360 0.055707
Si Si5 0.340757 0.984651 0.554192
O O1 0.638237 0.154957 0.674638
O O2 0.500000 0.000000 0.692744
O O3 0.660255 0.000000 0.750000
O O4 0.680001 0.938715 0.659968
O O5 0.457673 0.781999 0.860503
O O6 0.608948 0.681207 0.903291
O O7 0.605124 0.894282 0.910792
O O8 0.750000 0.250000 0.876329
O O9 0.865768 0.391339 0.927183
O O10 0.212922 0.025877 0.056425
O O11 0.084745 0.129461 0.000000
O O12 0.000000 0.000000 0.064547
O O13 0.374854 0.963465 0.500000
#
# Coordination Sequence:
#
# PCOD9495974 Si02
#       5
#    16  16  16  16  16
#     4   8  16  33  54  74  95 124 166 209 255 309
#     4  10  19  32  53  74  97 134 172 211 251 299
#     4  10  20  33  50  74 102 129 163 211 261 305
#     4  10  20  33  49  73 107 141 171 208 255 304
#     4  10  20  33  49  71 101 136 174 209 244 301
#
# _framework density 19.285119000000002
#
# number of rings (size 3 to 8) (size 9 to 14) (size 15 to 20)
#    0.000    2.400    0.000    4.200    0.000    4.400 
#    0.000    4.000    0.000    0.000    0.000    9.800 
#    0.000    1.600    0.000    0.000    0.000    0.000 
#
# Total GULP energy -222784.284523 kJ/mol
# GULP energy per Si atom -5569.607113 kJ/mol
# Density = 1.924123 g / cm^3
# Si number density = 19.285119 Si / 1000 Ang^3
#
#
#
# Elastic Constant Matrix: (Units=GPa)
#
#
# Indices 1 2 3 4 5 6 
#
# 1 74.7056 13.6020 2.6667 0.0000 0.0000 0.0000
# 2 13.6020 59.2516 24.5442 0.0000 0.0000 0.0000
# 3 2.6667 24.5442 99.2043 0.0000 0.0000 0.0000
# 4 0.0000 0.0000 0.0000 25.3046 0.0000 0.0000
# 5 0.0000 0.0000 0.0000 0.0000 11.1467 0.0000
# 6 0.0000 0.0000 0.0000 0.0000 0.0000 27.3632
#
#
#
# Elastic Compliance Matrix: (Units=1/GPa)
#
#
# Indices 1 2 3 4 5 6 
#
# 1 0.013989 -0.003405 0.000466 0.000000 0.000000 0.000000
# 2 -0.003405 0.019633 -0.004766 0.000000 0.000000 0.000000
# 3 0.000466 -0.004766 0.011247 0.000000 0.000000 0.000000
# 4 0.000000 0.000000 0.000000 0.039519 0.000000 0.000000
# 5 0.000000 0.000000 0.000000 0.000000 0.089713 0.000000
# 6 0.000000 0.000000 0.000000 0.000000 0.000000 0.036545
#
#
# Mechanical properties :
#
#
# Convention : Reuss Voigt Hill
#
# Bulk Modulus (GPa) = 33.94368 34.97638 34.46003
# Shear Modulus (GPa) = 21.19774 25.58613 23.39193
#
# Velocity S-wave (km/s) = 3.31898 3.64638 3.48653
# Velocity P-wave (km/s) = 5.68565 5.99199 5.84083
#
# Compressibility (1/GPa) = 0.02946057
#
# Stress axis : x y z
#
# Youngs Moduli (GPa) = 71.48412 50.93482 88.91419
#
# Poissons Ratio (x) = 0.17341 -0.04146
# Poissons Ratio (y) = 0.24337 0.42375
# Poissons Ratio (z) = -0.03333 0.24275
#
# Static dielectric constant tensor:
#      x y z
#    x 1.670380 0.000000 0.000000 
#    y 0.000000 1.678860 0.000000 
#    z 0.000000 0.000000 1.724520 
# 
# From -- ./inp_files/63505.got.cif
#   From: 2010.05.17/outbox.cif.g08.bks.cpg/sg66_32_cif.got.tgz:63505.got - 2010.06.03 17:51:23.
