data_PCOD9495726
_publ_section_title
;
Structure prediction by ZEFSAII (Michael W. Deem and Ramdas Pophale) SiO2 
 PCOD9495726
Probable space group: C C C M
;
_chemical_formula_sum "Si O2"
_cell_formula_units_Z 116
_cell_length_a 14.185561
_cell_length_b 15.030923
_cell_length_c 28.212942
_cell_angle_alpha 90.000000
_cell_angle_beta 90.000000
_cell_angle_gamma 90.000000
_cell_volume 6015.622038
_symmetry_space_group_name_H-M "C C C M"
_symmetry_group_IT_number 66
_symmetry_cell_setting 'orthorhombic'
loop_
_space_group_symop_operation_xyz
x,y,z
-x,-y,z
x,-y,1/2-z
-x,y,1/2-z
-x,-y,-z
x,y,-z
-x,y,1/2+z
x,-y,1/2+z
1/2+x,1/2+y,z
1/2-x,1/2-y,z
1/2+x,1/2-y,1/2-z
1/2-x,1/2+y,1/2-z
1/2-x,1/2-y,-z
1/2+x,1/2+y,-z
1/2-x,1/2+y,1/2+z
1/2+x,1/2-y,1/2+z
loop_
_atom_site_type_symbol
_atom_site_label
_atom_site_fract_x
_atom_site_fract_y
_atom_site_fract_z
Si Si1 0.750000 0.750000 0.500000
Si Si2 0.107536 0.212119 0.944512
Si Si3 0.625763 0.967702 0.553970
Si Si4 0.615533 0.991869 0.304546
Si Si5 0.108019 0.173544 0.578909
Si Si6 0.600392 0.171402 0.864092
Si Si7 0.393915 0.871994 0.618624
Si Si8 0.153343 0.013334 0.054419
O O1 0.813091 0.800899 0.540869
O O2 0.147361 0.290849 0.911616
O O3 0.139245 0.113888 0.929151
O O4 0.993555 0.208817 0.939214
O O5 0.131257 0.226488 0.000000
O O6 0.596441 0.950291 0.500000
O O7 0.579622 0.053331 0.579131
O O8 0.735625 0.994095 0.553373
O O9 0.617138 0.881152 0.586392
O O10 0.653761 0.068540 0.340178
O O11 0.500000 0.000000 0.307627
O O12 0.642218 0.000000 0.250000
O O13 0.641838 0.895067 0.325184
O O14 0.130373 0.228017 0.626846
O O15 0.106036 0.067167 0.582742
O O16 0.487602 0.168435 0.857602
O O17 0.117526 0.009095 0.000000
#
# Coordination Sequence:
#
# PCOD9495726 Si02
#       8
#     4  16  16  16  16  16  16  16
#     4  12  20  28  46  68  94 136 160 194 244 282
#     4  10  19  32  46  62  93 133 167 202 229 265
#     4  10  19  28  41  64  95 125 156 192 227 278
#     4   8  14  29  49  71  97 119 146 193 247 303
#     4  11  20  30  44  66  95 123 167 200 231 278
#     4   9  19  28  45  71  95 120 152 193 243 294
#     4   9  18  30  44  70  93 119 157 191 243 290
#     4  10  20  31  43  61  88 133 176 194 221 263
#
# _framework density 19.283127
#
# number of rings (size 3 to 8) (size 9 to 14) (size 15 to 20)
#    0.000    2.345    1.379    2.897    2.897    3.310 
#    0.000    2.069    0.000    0.000    0.000   20.276 
#    0.000    6.621    0.000    0.000    0.000    0.552 
#
# Total GULP energy -322897.314632 kJ/mol
# GULP energy per Si atom -5567.195080 kJ/mol
# Density = 1.923924 g / cm^3
# Si number density = 19.283127 Si / 1000 Ang^3
#
#
#
# Elastic Constant Matrix: (Units=GPa)
#
#
# Indices 1 2 3 4 5 6 
#
# 1 35.8456 3.5584 -7.6945 0.0000 0.0000 0.0000
# 2 3.5584 165.9856 61.7381 0.0000 0.0000 0.0000
# 3 -7.6945 61.7381 110.5256 0.0000 0.0000 0.0000
# 4 0.0000 0.0000 0.0000 11.5785 0.0000 0.0000
# 5 0.0000 0.0000 0.0000 0.0000 -4.2338 0.0000
# 6 0.0000 0.0000 0.0000 0.0000 0.0000 18.7228
#
#
#
# Elastic Compliance Matrix: (Units=1/GPa)
#
#
# Indices 1 2 3 4 5 6 
#
# 1 0.028702 -0.001715 0.002956 0.000000 0.000000 0.000000
# 2 -0.001715 0.007707 -0.004424 0.000000 0.000000 0.000000
# 3 0.002956 -0.004424 0.011725 0.000000 0.000000 0.000000
# 4 0.000000 0.000000 0.000000 0.086367 0.000000 0.000000
# 5 0.000000 0.000000 0.000000 0.000000 -0.236196 0.000000
# 6 0.000000 0.000000 0.000000 0.000000 0.000000 0.053411
#
#
# Mechanical properties :
#
#
# Convention : Reuss Voigt Hill
#
# Bulk Modulus (GPa) = 23.94192 47.50676 35.72434
# Shear Modulus (GPa) = -178.60553 22.19715 -78.20419
#
# Velocity S-wave (km/s) = -9.63451 3.39649 -6.37525
# Velocity P-wave (km/s) = 10.55093 6.33020 5.96869
#
# Compressibility (1/GPa) = 0.04176775
#
# Stress axis : x y z
#
# Youngs Moduli (GPa) = 34.84052 129.75141 85.28856
#
# Poissons Ratio (x) = 0.22250 -0.25212
# Poissons Ratio (y) = 0.05975 0.37735
# Poissons Ratio (z) = -0.10299 0.57408
#
# Static dielectric constant tensor:
#      x y z
#    x 1.754350 0.000000 0.000000 
#    y 0.000000 1.737380 0.000000 
#    z 0.000000 0.000000 1.651970 
# 
# From -- ./inp_files/70048.got.cif
#   From: 2010.05.17/outbox.cif.g08.bks.cpg/sg66_36_cif.got.tgz:70048.got - 2010.06.03 17:51:23.
