data_PCOD9495202
_publ_section_title
;
Structure prediction by ZEFSAII (Michael W. Deem and Ramdas Pophale) SiO2 
 PCOD9495202
Probable space group: C C C M
;
_chemical_formula_sum "Si O2"
_cell_formula_units_Z 56
_cell_length_a 16.487922
_cell_length_b 9.828771
_cell_length_c 16.862985
_cell_angle_alpha 90.000000
_cell_angle_beta 90.000000
_cell_angle_gamma 90.000000
_cell_volume 2732.748059
_symmetry_space_group_name_H-M "C C C M"
_symmetry_group_IT_number 66
_symmetry_cell_setting 'orthorhombic'
loop_
_space_group_symop_operation_xyz
x,y,z
-x,-y,z
x,-y,1/2-z
-x,y,1/2-z
-x,-y,-z
x,y,-z
-x,y,1/2+z
x,-y,1/2+z
1/2+x,1/2+y,z
1/2-x,1/2-y,z
1/2+x,1/2-y,1/2-z
1/2-x,1/2+y,1/2-z
1/2-x,1/2-y,-z
1/2+x,1/2+y,-z
1/2-x,1/2+y,1/2+z
1/2+x,1/2-y,1/2+z
loop_
_atom_site_type_symbol
_atom_site_label
_atom_site_fract_x
_atom_site_fract_y
_atom_site_fract_z
Si Si1 0.378124 0.145785 0.782680
Si Si2 0.425762 0.583543 0.667496
Si Si3 0.250000 0.750000 0.843297
Si Si4 0.245723 0.045331 0.090386
O O1 0.441253 0.257069 0.814967
O O2 0.326770 0.223734 0.714387
O O3 0.312127 0.107566 0.850272
O O4 0.407288 0.000000 0.750000
O O5 0.500000 0.500000 0.629943
O O6 0.410825 0.500000 0.750000
O O7 0.344178 0.586201 0.617159
O O8 0.255043 0.616387 0.895854
O O9 0.262744 0.081206 0.000000
#
# Coordination Sequence:
#
# PCOD9495202 Si02
#       4
#    16  16   8  16
#     4  10  19  36  62  86 117 153 206 255 294 349
#     4  11  21  37  58  84 119 162 202 239 294 371
#     4  10  17  36  59  84 112 158 200 250 297 352
#     4  11  21  34  59  91 123 154 197 254 310 351
#
# _framework density 20.492191999999999
#
# number of rings (size 3 to 8) (size 9 to 14) (size 15 to 20)
#    0.000    1.429    5.714    1.286    0.000    2.857 
#    0.000    2.857    0.000    0.000    0.000    6.000 
#    0.000    0.000    0.000    0.000    0.000    0.000 
#
# Total GULP energy -156330.576749 kJ/mol
# GULP energy per Si atom -5583.234884 kJ/mol
# Density = 2.044555 g / cm^3
# Si number density = 20.492192 Si / 1000 Ang^3
#
#
#
# Elastic Constant Matrix: (Units=GPa)
#
#
# Indices 1 2 3 4 5 6 
#
# 1 81.6752 45.2814 25.3846 0.0000 0.0000 0.0000
# 2 45.2814 185.4012 11.2512 0.0000 0.0000 0.0000
# 3 25.3846 11.2512 89.4790 0.0000 0.0000 0.0000
# 4 0.0000 0.0000 0.0000 3.1269 0.0000 0.0000
# 5 0.0000 0.0000 0.0000 0.0000 22.2372 0.0000
# 6 0.0000 0.0000 0.0000 0.0000 0.0000 -9.9993
#
#
#
# Elastic Compliance Matrix: (Units=1/GPa)
#
#
# Indices 1 2 3 4 5 6 
#
# 1 0.015421 -0.003528 -0.003931 0.000000 0.000000 0.000000
# 2 -0.003528 0.006242 0.000216 0.000000 0.000000 0.000000
# 3 -0.003931 0.000216 0.012264 0.000000 0.000000 0.000000
# 4 0.000000 0.000000 0.000000 0.319801 0.000000 0.000000
# 5 0.000000 0.000000 0.000000 0.000000 0.044970 0.000000
# 6 0.000000 0.000000 0.000000 0.000000 0.000000 -0.100007
#
#
# Mechanical properties :
#
#
# Convention : Reuss Voigt Hill
#
# Bulk Modulus (GPa) = 51.43771 57.82110 54.62940
# Shear Modulus (GPa) = 15.64168 21.38217 18.51192
#
# Velocity S-wave (km/s) = 2.76578 3.23372 3.00886
# Velocity P-wave (km/s) = 5.94601 6.49769 6.22796
#
# Compressibility (1/GPa) = 0.01944099
#
# Stress axis : x y z
#
# Youngs Moduli (GPa) = 64.84517 160.19920 81.53975
#
# Poissons Ratio (x) = 0.56516 0.32056
# Poissons Ratio (y) = 0.22876 -0.01761
# Poissons Ratio (z) = 0.25493 -0.03459
#
# Static dielectric constant tensor:
#      x y z
#    x 1.772600 0.000000 0.000000 
#    y 0.000000 1.783320 0.000000 
#    z 0.000000 0.000000 1.705530 
# 
# From -- ./inp_files/36088.got.cif
#   From: 2010.05.17/outbox.cif.g08.bks.cpg/sg66_19_cif.got.tgz:36088.got - 2010.06.03 17:51:23.
