data_PCOD9495284
_publ_section_title
;
Structure prediction by ZEFSAII (Michael W. Deem and Ramdas Pophale) SiO2 
 PCOD9495284
Probable space group: C C C M
;
_chemical_formula_sum "Si O2"
_cell_formula_units_Z 116
_cell_length_a 13.494956
_cell_length_b 15.437003
_cell_length_c 26.189941
_cell_angle_alpha 90.000000
_cell_angle_beta 90.000000
_cell_angle_gamma 90.000000
_cell_volume 5455.932410
_symmetry_space_group_name_H-M "C C C M"
_symmetry_group_IT_number 66
_symmetry_cell_setting 'orthorhombic'
loop_
_space_group_symop_operation_xyz
x,y,z
-x,-y,z
x,-y,1/2-z
-x,y,1/2-z
-x,-y,-z
x,y,-z
-x,y,1/2+z
x,-y,1/2+z
1/2+x,1/2+y,z
1/2-x,1/2-y,z
1/2+x,1/2-y,1/2-z
1/2-x,1/2+y,1/2-z
1/2-x,1/2-y,-z
1/2+x,1/2+y,-z
1/2-x,1/2+y,1/2+z
1/2+x,1/2-y,1/2+z
loop_
_atom_site_type_symbol
_atom_site_label
_atom_site_fract_x
_atom_site_fract_y
_atom_site_fract_z
Si Si1 0.000000 0.500000 0.250000
Si Si2 0.984870 0.211742 0.909075
Si Si3 0.104760 0.039905 0.411912
Si Si4 0.649173 0.540211 0.806349
Si Si5 0.955127 0.774962 0.195448
Si Si6 0.410573 0.124967 0.942833
Si Si7 0.184198 0.870184 0.443000
Si Si8 0.130759 0.599382 0.668149
O O1 0.067252 0.556595 0.287326
O O2 0.964480 0.231733 0.849909
O O3 0.007486 0.299246 0.939172
O O4 0.094904 0.165823 0.908753
O O5 0.905417 0.140418 0.926333
O O6 0.110854 0.024827 0.350622
O O7 0.184968 0.974784 0.435635
O O8 0.000000 0.000000 0.429608
O O9 0.652521 0.500000 0.750000
O O10 0.585600 0.627738 0.802065
O O11 0.757755 0.567512 0.825697
O O12 0.875990 0.702513 0.178067
O O13 0.000000 0.752540 0.250000
O O14 0.296903 0.161284 0.938369
O O15 0.413742 0.077403 0.888023
O O16 0.416008 0.085211 0.000000
O O17 0.150361 0.849540 0.500000
#
# Coordination Sequence:
#
# PCOD9495284 Si02
#       8
#     4  16  16  16  16  16  16  16
#     4  12  24  48  66  88 112 148 192 258 320 340
#     4  10  19  30  47  75 118 158 200 244 292 359
#     4  10  19  32  45  78 119 160 201 242 293 357
#     4  12  22  34  57  84 122 162 201 241 307 373
#     4  11  21  35  56  84 119 157 200 246 298 361
#     4  10  20  35  57  84 113 155 206 255 305 360
#     4  10  18  29  48  73 113 161 206 247 289 347
#     4  11  23  42  63  86 117 153 203 257 304 365
#
# _framework density 21.261261000000001
#
# number of rings (size 3 to 8) (size 9 to 14) (size 15 to 20)
#    0.000    1.379    5.517    2.069    0.000    6.345 
#    0.000    0.345    0.000    0.000    0.000    0.000 
#    0.000    1.103    0.000    0.000    0.000    0.000 
#
# Total GULP energy -323289.785005 kJ/mol
# GULP energy per Si atom -5573.961810 kJ/mol
# Density = 2.121287 g / cm^3
# Si number density = 21.261261 Si / 1000 Ang^3
#
#
#
# Elastic Constant Matrix: (Units=GPa)
#
#
# Indices 1 2 3 4 5 6 
#
# 1 40.4846 19.6390 8.3029 0.0000 0.0000 0.0000
# 2 19.6390 52.2397 16.9332 0.0000 0.0000 0.0000
# 3 8.3029 16.9332 149.4758 0.0000 0.0000 0.0000
# 4 0.0000 0.0000 0.0000 13.7495 0.0000 0.0000
# 5 0.0000 0.0000 0.0000 0.0000 15.5616 0.0000
# 6 0.0000 0.0000 0.0000 0.0000 0.0000 28.1838
#
#
#
# Elastic Compliance Matrix: (Units=1/GPa)
#
#
# Indices 1 2 3 4 5 6 
#
# 1 0.030234 -0.011234 -0.000407 0.000000 0.000000 0.000000
# 2 -0.011234 0.024047 -0.002100 0.000000 0.000000 0.000000
# 3 -0.000407 -0.002100 0.006951 0.000000 0.000000 0.000000
# 4 0.000000 0.000000 0.000000 0.072730 0.000000 0.000000
# 5 0.000000 0.000000 0.000000 0.000000 0.064261 0.000000
# 6 0.000000 0.000000 0.000000 0.000000 0.000000 0.035481
#
#
# Mechanical properties :
#
#
# Convention : Reuss Voigt Hill
#
# Bulk Modulus (GPa) = 29.63056 36.88334 33.25695
# Shear Modulus (GPa) = 18.35299 24.65398 21.50349
#
# Velocity S-wave (km/s) = 2.94124 3.40894 3.18369
# Velocity P-wave (km/s) = 5.04987 5.73410 5.40282
#
# Compressibility (1/GPa) = 0.03374894
#
# Stress axis : x y z
#
# Youngs Moduli (GPa) = 33.07545 41.58577 143.87369
#
# Poissons Ratio (x) = 0.46719 0.05852
# Poissons Ratio (y) = 0.37158 0.30214
# Poissons Ratio (z) = 0.01345 0.08733
#
# Static dielectric constant tensor:
#      x y z
#    x 1.746510 0.000000 0.000000 
#    y 0.000000 1.847020 0.000000 
#    z 0.000000 0.000000 1.831020 
# 
# From -- ./inp_files/64770.got.cif
#   From: 2010.05.17/outbox.cif.g08.bks.cpg/sg66_33_cif.got.tgz:64770.got - 2010.06.03 17:51:23.
