data_PCOD9495423
_publ_section_title
;
Structure prediction by ZEFSAII (Michael W. Deem and Ramdas Pophale) SiO2 
 PCOD9495423
Probable space group: C C C M
;
_chemical_formula_sum "Si O2"
_cell_formula_units_Z 96
_cell_length_a 15.573038
_cell_length_b 14.281864
_cell_length_c 21.643342
_cell_angle_alpha 90.000000
_cell_angle_beta 90.000000
_cell_angle_gamma 90.000000
_cell_volume 4813.739214
_symmetry_space_group_name_H-M "C C C M"
_symmetry_group_IT_number 66
_symmetry_cell_setting 'orthorhombic'
loop_
_space_group_symop_operation_xyz
x,y,z
-x,-y,z
x,-y,1/2-z
-x,y,1/2-z
-x,-y,-z
x,y,-z
-x,y,1/2+z
x,-y,1/2+z
1/2+x,1/2+y,z
1/2-x,1/2-y,z
1/2+x,1/2-y,1/2-z
1/2-x,1/2+y,1/2-z
1/2-x,1/2-y,-z
1/2+x,1/2+y,-z
1/2-x,1/2+y,1/2+z
1/2+x,1/2-y,1/2+z
loop_
_atom_site_type_symbol
_atom_site_label
_atom_site_fract_x
_atom_site_fract_y
_atom_site_fract_z
Si Si1 0.442868 0.853188 0.931035
Si Si2 0.040978 0.605920 0.311518
Si Si3 0.722450 0.019421 0.068594
Si Si4 0.260583 0.081348 0.802893
Si Si5 0.903390 0.112371 0.760422
Si Si6 0.828950 0.187257 0.886648
O O1 0.511005 0.853364 0.876484
O O2 0.373099 0.936982 0.921703
O O3 0.389262 0.757648 0.923760
O O4 0.478452 0.862609 0.000000
O O5 0.142218 0.617137 0.302583
O O6 0.000000 0.500000 0.313206
O O7 0.000000 0.648457 0.250000
O O8 0.785784 0.108326 0.071549
O O9 0.748220 0.958353 0.127666
O O10 0.725794 0.976680 0.000000
O O11 0.177082 0.141385 0.783500
O O12 0.263966 0.000000 0.750000
O O13 0.876389 0.139520 0.829471
O O14 0.000000 0.146818 0.750000
O O15 0.907856 0.000000 0.750000
O O16 0.750000 0.250000 0.861152
#
# Coordination Sequence:
#
# PCOD9495423 Si02
#       6
#    16  16  16  16  16  16
#     4  10  21  34  51  82 123 161 194 234 291 352
#     4  11  20  31  53  81 118 158 190 232 287 348
#     4  10  18  31  53  81 114 153 191 237 287 337
#     4  11  18  34  57  81 111 148 193 240 285 346
#     4  10  21  38  61  83 111 147 194 246 299 345
#     4  10  20  35  56  83 115 149 191 242 294 344
#
# _framework density 19.942917000000001
#
# number of rings (size 3 to 8) (size 9 to 14) (size 15 to 20)
#    0.000    1.667    6.667    0.500    2.333    3.667 
#    0.000    0.000    0.000    3.000    0.000    1.167 
#    0.000    0.000    0.000    0.000    0.000    0.000 
#
# Total GULP energy -267618.741833 kJ/mol
# GULP energy per Si atom -5575.390455 kJ/mol
# Density = 1.989753 g / cm^3
# Si number density = 19.942917 Si / 1000 Ang^3
#
#
#
# Elastic Constant Matrix: (Units=GPa)
#
#
# Indices 1 2 3 4 5 6 
#
# 1 162.6449 10.5440 63.4517 0.0000 0.0000 0.0000
# 2 10.5440 33.0608 12.3788 0.0000 0.0000 0.0000
# 3 63.4517 12.3788 171.7126 0.0000 0.0000 0.0000
# 4 0.0000 0.0000 0.0000 17.8086 0.0000 0.0000
# 5 0.0000 0.0000 0.0000 0.0000 21.8842 0.0000
# 6 0.0000 0.0000 0.0000 0.0000 0.0000 -14.4539
#
#
#
# Elastic Compliance Matrix: (Units=1/GPa)
#
#
# Indices 1 2 3 4 5 6 
#
# 1 0.007242 -0.001344 -0.002579 0.000000 0.000000 0.000000
# 2 -0.001344 0.031336 -0.001762 0.000000 0.000000 0.000000
# 3 -0.002579 -0.001762 0.006904 0.000000 0.000000 0.000000
# 4 0.000000 0.000000 0.000000 0.056153 0.000000 0.000000
# 5 0.000000 0.000000 0.000000 0.000000 0.045695 0.000000
# 6 0.000000 0.000000 0.000000 0.000000 0.000000 -0.069186
#
#
# Mechanical properties :
#
#
# Convention : Reuss Voigt Hill
#
# Bulk Modulus (GPa) = 29.31649 60.01859 44.66754
# Shear Modulus (GPa) = 49.56186 23.78405 36.67296
#
# Velocity S-wave (km/s) = 4.99057 3.45716 4.29289
# Velocity P-wave (km/s) = 6.92386 6.78944 6.85698
#
# Compressibility (1/GPa) = 0.03411049
#
# Stress axis : x y z
#
# Youngs Moduli (GPa) = 138.09019 31.91235 144.84857
#
# Poissons Ratio (x) = 0.04289 0.37357
# Poissons Ratio (y) = 0.18558 0.25528
# Poissons Ratio (z) = 0.35614 0.05624
#
# Static dielectric constant tensor:
#      x y z
#    x 1.746050 0.000000 0.000000 
#    y 0.000000 1.744050 0.000000 
#    z 0.000000 0.000000 1.692790 
# 
# From -- ./inp_files/41742.got.cif
#   From: 2010.05.17/outbox.cif.g08.bks.cpg/sg66_21_cif.got.tgz:41742.got - 2010.06.03 17:51:23.
