data_PCOD9495394
_publ_section_title
;
Structure prediction by ZEFSAII (Michael W. Deem and Ramdas Pophale) SiO2 
 PCOD9495394
Probable space group: C C C M
;
_chemical_formula_sum "Si O2"
_cell_formula_units_Z 96
_cell_length_a 25.876770
_cell_length_b 25.881135
_cell_length_c 8.670973
_cell_angle_alpha 90.000000
_cell_angle_beta 90.000000
_cell_angle_gamma 90.000000
_cell_volume 5807.125579
_symmetry_space_group_name_H-M "C C C M"
_symmetry_group_IT_number 66
_symmetry_cell_setting 'orthorhombic'
loop_
_space_group_symop_operation_xyz
x,y,z
-x,-y,z
x,-y,1/2-z
-x,y,1/2-z
-x,-y,-z
x,y,-z
-x,y,1/2+z
x,-y,1/2+z
1/2+x,1/2+y,z
1/2-x,1/2-y,z
1/2+x,1/2-y,1/2-z
1/2-x,1/2+y,1/2-z
1/2-x,1/2-y,-z
1/2+x,1/2+y,-z
1/2-x,1/2+y,1/2+z
1/2+x,1/2-y,1/2+z
loop_
_atom_site_type_symbol
_atom_site_label
_atom_site_fract_x
_atom_site_fract_y
_atom_site_fract_z
Si Si1 0.442073 0.642621 0.814787
Si Si2 0.558520 0.249702 0.315495
Si Si3 0.864011 0.441694 0.685424
Si Si4 0.142272 0.942108 0.815781
Si Si5 0.748853 0.441847 0.684174
Si Si6 0.558164 0.142060 0.815720
O O1 0.500000 0.635211 0.750000
O O2 0.419735 0.696187 0.746301
O O3 0.405114 0.594999 0.773425
O O4 0.444958 0.647092 0.000000
O O5 0.500000 0.250045 0.250000
O O6 0.557913 0.248885 0.500000
O O7 0.580527 0.196143 0.250383
O O8 0.868325 0.500000 0.750000
O O9 0.869439 0.443038 0.500000
O O10 0.805941 0.421009 0.721786
O O11 0.906590 0.404912 0.759421
O O12 0.196614 0.919028 0.754884
O O13 0.135808 0.000000 0.750000
O O14 0.144978 0.945777 0.000000
O O15 0.749729 0.500000 0.750000
O O16 0.743783 0.443396 0.500000
O O17 0.500000 0.136007 0.750000
O O18 0.555639 0.144594 0.000000
#
# Coordination Sequence:
#
# PCOD9495394 Si02
#       6
#    16  16  16  16  16  16
#     4  10  20  33  49  72  99 130 164 202 244 290
#     4  10  18  31  51  72  95 126 163 203 240 285
#     4  10  20  34  51  75 102 130 164 201 242 290
#     4  10  20  32  49  72 100 130 164 202 243 290
#     4   9  17  30  50  71  95 126 163 202 239 283
#     4  11  21  34  52  74 101 132 163 200 242 288
#
# _framework density 16.531414999999999
#
# number of rings (size 3 to 8) (size 9 to 14) (size 15 to 20)
#    0.000    2.000    0.000    8.000    0.000    5.333 
#    0.000    3.333    0.000    1.000    0.000    7.000 
#    0.000    0.000    0.000    0.000    0.000    0.000 
#
# Total GULP energy -267581.682356 kJ/mol
# GULP energy per Si atom -5574.618382 kJ/mol
# Density = 1.649379 g / cm^3
# Si number density = 16.531415 Si / 1000 Ang^3
#
#
#
# Elastic Constant Matrix: (Units=GPa)
#
#
# Indices 1 2 3 4 5 6 
#
# 1 102.8354 65.0510 48.8137 0.0000 0.0000 0.0000
# 2 65.0510 108.7091 50.5021 0.0000 0.0000 0.0000
# 3 48.8137 50.5021 107.5992 0.0000 0.0000 0.0000
# 4 0.0000 0.0000 0.0000 -11.0226 0.0000 0.0000
# 5 0.0000 0.0000 0.0000 0.0000 27.0272 0.0000
# 6 0.0000 0.0000 0.0000 0.0000 0.0000 -2.1584
#
#
#
# Elastic Compliance Matrix: (Units=1/GPa)
#
#
# Indices 1 2 3 4 5 6 
#
# 1 0.016722 -0.008290 -0.003695 0.000000 0.000000 0.000000
# 2 -0.008290 0.015873 -0.003689 0.000000 0.000000 0.000000
# 3 -0.003695 -0.003689 0.012702 0.000000 0.000000 0.000000
# 4 0.000000 0.000000 0.000000 -0.090722 0.000000 0.000000
# 5 0.000000 0.000000 0.000000 0.000000 0.037000 0.000000
# 6 0.000000 0.000000 0.000000 0.000000 0.000000 -0.463307
#
#
# Mechanical properties :
#
#
# Convention : Reuss Voigt Hill
#
# Bulk Modulus (GPa) = 71.69377 71.98637 71.84007
# Shear Modulus (GPa) = -11.47492 13.08768 0.80638
#
# Velocity S-wave (km/s) = -2.63749 2.81674 0.69918
# Velocity P-wave (km/s) = 5.84698 7.36332 6.64852
#
# Compressibility (1/GPa) = 0.01394821
#
# Stress axis : x y z
#
# Youngs Moduli (GPa) = 59.80022 62.99831 78.72828
#
# Poissons Ratio (x) = 0.52224 0.29094
# Poissons Ratio (y) = 0.49573 0.29047
# Poissons Ratio (z) = 0.22099 0.23243
#
# Static dielectric constant tensor:
#      x y z
#    x 1.578350 0.000000 0.000000 
#    y 0.000000 1.564760 0.000000 
#    z 0.000000 0.000000 1.549900 
# 
# From -- ./inp_files/9104.got.cif
#   From: 2010.05.17/outbox.cif.g08.bks.cpg/sg66_5_cif.got.tgz:9104.got - 2010.06.03 17:51:23.
