data_PCOD9495599
_publ_section_title
;
Structure prediction by ZEFSAII (Michael W. Deem and Ramdas Pophale) SiO2 
 PCOD9495599
Probable space group: C C C M
;
_chemical_formula_sum "Si O2"
_cell_formula_units_Z 128
_cell_length_a 18.204008
_cell_length_b 22.162270
_cell_length_c 18.241301
_cell_angle_alpha 90.000000
_cell_angle_beta 90.000000
_cell_angle_gamma 90.000000
_cell_volume 7359.309519
_symmetry_space_group_name_H-M "C C C M"
_symmetry_group_IT_number 66
_symmetry_cell_setting 'orthorhombic'
loop_
_space_group_symop_operation_xyz
x,y,z
-x,-y,z
x,-y,1/2-z
-x,y,1/2-z
-x,-y,-z
x,y,-z
-x,y,1/2+z
x,-y,1/2+z
1/2+x,1/2+y,z
1/2-x,1/2-y,z
1/2+x,1/2-y,1/2-z
1/2-x,1/2+y,1/2-z
1/2-x,1/2-y,-z
1/2+x,1/2+y,-z
1/2-x,1/2+y,1/2+z
1/2+x,1/2-y,1/2+z
loop_
_atom_site_type_symbol
_atom_site_label
_atom_site_fract_x
_atom_site_fract_y
_atom_site_fract_z
Si Si1 0.984526 0.261491 0.086514
Si Si2 0.527878 0.643563 0.329581
Si Si3 0.228197 0.848887 0.656741
Si Si4 0.362755 0.769027 0.336008
Si Si5 0.603081 0.422594 0.415178
Si Si6 0.572009 0.149779 0.206745
Si Si7 0.857291 0.036705 0.827184
Si Si8 0.706479 0.934971 0.282902
O O1 0.951390 0.200107 0.120217
O O2 0.952178 0.317085 0.132692
O O3 0.070765 0.258427 0.108247
O O4 0.974417 0.265933 0.000000
O O5 0.500000 0.665322 0.250000
O O6 0.460238 0.608727 0.367509
O O7 0.593011 0.595713 0.320485
O O8 0.301522 0.814223 0.630582
O O9 0.176082 0.794084 0.683246
O O10 0.179291 0.887382 0.600957
O O11 0.254417 0.893811 0.720550
O O12 0.394191 0.800781 0.263152
O O13 0.584132 0.419061 0.500000
O O14 0.612695 0.490955 0.387781
O O15 0.500000 0.125879 0.250000
O O16 0.634228 0.100250 0.192865
O O17 0.772244 0.053433 0.840050
O O18 0.860253 0.000000 0.750000
O O19 0.686302 0.000000 0.250000
#
# Coordination Sequence:
#
# PCOD9495599 Si02
#       8
#    16  16  16  16  16  16  16  16
#     4  11  23  37  54  83 122 155 188 236 293 349
#     4  12  22  35  59  80 112 157 204 239 276 335
#     4  10  18  34  57  87 113 142 187 235 292 338
#     4   9  19  34  59  85 111 147 188 234 287 343
#     4  12  24  36  54  86 121 151 190 242 293 343
#     4   9  20  37  59  89 113 145 191 241 284 341
#     4  11  22  38  57  81 110 156 196 235 282 335
#     4  10  19  36  63  88 108 143 195 242 281 335
#
# _framework density 17.392935999999999
#
# number of rings (size 3 to 8) (size 9 to 14) (size 15 to 20)
#    0.000    1.500    5.000    1.875    1.750    2.250 
#    0.000    1.875    0.000    0.750    0.000    2.625 
#    0.000    0.000    0.000    0.000    0.000    0.000 
#
# Total GULP energy -357217.086858 kJ/mol
# GULP energy per Si atom -5581.516982 kJ/mol
# Density = 1.735335 g / cm^3
# Si number density = 17.392936 Si / 1000 Ang^3
#
#
#
# Elastic Constant Matrix: (Units=GPa)
#
#
# Indices 1 2 3 4 5 6 
#
# 1 93.3739 39.9420 27.9323 0.0000 0.0000 0.0000
# 2 39.9420 81.1453 17.7761 0.0000 0.0000 0.0000
# 3 27.9323 17.7761 86.4768 0.0000 0.0000 0.0000
# 4 0.0000 0.0000 0.0000 16.2102 0.0000 0.0000
# 5 0.0000 0.0000 0.0000 0.0000 12.5497 0.0000
# 6 0.0000 0.0000 0.0000 0.0000 0.0000 40.1207
#
#
#
# Elastic Compliance Matrix: (Units=1/GPa)
#
#
# Indices 1 2 3 4 5 6 
#
# 1 0.014439 -0.006372 -0.003354 0.000000 0.000000 0.000000
# 2 -0.006372 0.015717 -0.001172 0.000000 0.000000 0.000000
# 3 -0.003354 -0.001172 0.012888 0.000000 0.000000 0.000000
# 4 0.000000 0.000000 0.000000 0.061689 0.000000 0.000000
# 5 0.000000 0.000000 0.000000 0.000000 0.079683 0.000000
# 6 0.000000 0.000000 0.000000 0.000000 0.000000 0.024925
#
#
# Mechanical properties :
#
#
# Convention : Reuss Voigt Hill
#
# Bulk Modulus (GPa) = 47.06669 48.03298 47.54983
# Shear Modulus (GPa) = 20.98891 25.46585 23.22738
#
# Velocity S-wave (km/s) = 3.47760 3.83057 3.65834
# Velocity P-wave (km/s) = 6.57605 6.87319 6.72626
#
# Compressibility (1/GPa) = 0.02124645
#
# Stress axis : x y z
#
# Youngs Moduli (GPa) = 69.25762 63.62479 77.59088
#
# Poissons Ratio (x) = 0.40545 0.26023
# Poissons Ratio (y) = 0.44134 0.09097
# Poissons Ratio (z) = 0.23228 0.07460
#
# Static dielectric constant tensor:
#      x y z
#    x 1.618190 0.000000 0.000000 
#    y 0.000000 1.604890 0.000000 
#    z 0.000000 0.000000 1.561180 
# 
# From -- ./inp_files/42147.got.cif
#   From: 2010.05.17/outbox.cif.g08.bks.cpg/sg66_22_cif.got.tgz:42147.got - 2010.06.03 17:51:23.
