data_PCOD9495935
_publ_section_title
;
Structure prediction by ZEFSAII (Michael W. Deem and Ramdas Pophale) SiO2 
 PCOD9495935
Probable space group: C C C M
;
_chemical_formula_sum "Si O2"
_cell_formula_units_Z 96
_cell_length_a 18.114049
_cell_length_b 19.329619
_cell_length_c 15.764368
_cell_angle_alpha 90.000000
_cell_angle_beta 90.000000
_cell_angle_gamma 90.000000
_cell_volume 5519.699013
_symmetry_space_group_name_H-M "C C C M"
_symmetry_group_IT_number 66
_symmetry_cell_setting 'orthorhombic'
loop_
_space_group_symop_operation_xyz
x,y,z
-x,-y,z
x,-y,1/2-z
-x,y,1/2-z
-x,-y,-z
x,y,-z
-x,y,1/2+z
x,-y,1/2+z
1/2+x,1/2+y,z
1/2-x,1/2-y,z
1/2+x,1/2-y,1/2-z
1/2-x,1/2+y,1/2-z
1/2-x,1/2-y,-z
1/2+x,1/2+y,-z
1/2-x,1/2+y,1/2+z
1/2+x,1/2-y,1/2+z
loop_
_atom_site_type_symbol
_atom_site_label
_atom_site_fract_x
_atom_site_fract_y
_atom_site_fract_z
Si Si1 0.680088 0.906869 0.095433
Si Si2 0.094982 0.262138 0.092327
Si Si3 0.856358 0.559063 0.401317
Si Si4 0.832587 0.218962 0.240064
Si Si5 0.225529 0.923276 0.235804
Si Si6 0.952944 0.680321 0.335735
O O1 0.632210 0.837881 0.098754
O O2 0.736238 0.904854 0.173847
O O3 0.631167 0.976420 0.105640
O O4 0.713368 0.910933 0.000000
O O5 0.130612 0.218747 0.167217
O O6 0.008836 0.277056 0.105569
O O7 0.110863 0.232799 0.000000
O O8 0.837568 0.573341 0.500000
O O9 0.789259 0.572180 0.335839
O O10 0.922694 0.609207 0.374420
O O11 0.750000 0.250000 0.243120
O O12 0.826967 0.139817 0.210659
O O13 0.883539 0.270914 0.186569
O O14 0.193276 0.000000 0.250000
O O15 0.000000 0.666970 0.250000
#
# Coordination Sequence:
#
# PCOD9495935 Si02
#       6
#    16  16  16  16  16  16
#     4   9  18  31  50  77 108 139 172 207 248 309
#     4  10  20  33  51  77 106 137 170 213 266 309
#     4  10  19  32  50  75 108 143 175 203 242 308
#     4  11  19  34  54  78 102 133 178 219 256 307
#     4  10  19  34  53  76 106 136 169 213 266 310
#     4  10  20  34  50  70 105 143 175 214 255 305
#
# _framework density 17.392251999999999
#
# number of rings (size 3 to 8) (size 9 to 14) (size 15 to 20)
#    0.000    2.000    3.333    1.500    0.000    1.667 
#    0.000    7.500    0.000    4.500    0.000    1.167 
#    0.000    0.000    0.000    0.000    0.000    0.000 
#
# Total GULP energy -267559.635557 kJ/mol
# GULP energy per Si atom -5574.159074 kJ/mol
# Density = 1.735267 g / cm^3
# Si number density = 17.392252 Si / 1000 Ang^3
#
#
#
# Elastic Constant Matrix: (Units=GPa)
#
#
# Indices 1 2 3 4 5 6 
#
# 1 20.1214 4.5535 -2.0663 0.0000 0.0000 0.0000
# 2 4.5535 55.1326 -0.6672 0.0000 0.0000 0.0000
# 3 -2.0663 -0.6672 60.9476 0.0000 0.0000 0.0000
# 4 0.0000 0.0000 0.0000 11.2552 0.0000 0.0000
# 5 0.0000 0.0000 0.0000 0.0000 4.4530 0.0000
# 6 0.0000 0.0000 0.0000 0.0000 0.0000 19.0839
#
#
#
# Elastic Compliance Matrix: (Units=1/GPa)
#
#
# Indices 1 2 3 4 5 6 
#
# 1 0.050816 -0.004177 0.001677 0.000000 0.000000 0.000000
# 2 -0.004177 0.018484 0.000061 0.000000 0.000000 0.000000
# 3 0.001677 0.000061 0.016465 0.000000 0.000000 0.000000
# 4 0.000000 0.000000 0.000000 0.088848 0.000000 0.000000
# 5 0.000000 0.000000 0.000000 0.000000 0.224567 0.000000
# 6 0.000000 0.000000 0.000000 0.000000 0.000000 0.052400
#
#
# Mechanical properties :
#
#
# Convention : Reuss Voigt Hill
#
# Bulk Modulus (GPa) = 12.36294 15.53796 13.95045
# Shear Modulus (GPa) = 10.34299 15.91720 13.13010
#
# Velocity S-wave (km/s) = 2.44127 3.02849 2.75060
# Velocity P-wave (km/s) = 3.88203 4.60242 4.25749
#
# Compressibility (1/GPa) = 0.08088688
#
# Stress axis : x y z
#
# Youngs Moduli (GPa) = 19.67896 54.10149 60.73469
#
# Poissons Ratio (x) = 0.22597 -0.10186
# Poissons Ratio (y) = 0.08219 -0.00369
# Poissons Ratio (z) = -0.03300 -0.00329
#
# Static dielectric constant tensor:
#      x y z
#    x 1.578880 0.000000 0.000000 
#    y 0.000000 1.601850 0.000000 
#    z 0.000000 0.000000 1.632410 
# 
# From -- ./inp_files/41715.got.cif
#   From: 2010.05.17/outbox.cif.g08.bks.cpg/sg66_21_cif.got.tgz:41715.got - 2010.06.03 17:51:23.
