data_PCOD9495393
_publ_section_title
;
Structure prediction by ZEFSAII (Michael W. Deem and Ramdas Pophale) SiO2 
 PCOD9495393
Probable space group: C C C M
;
_chemical_formula_sum "Si O2"
_cell_formula_units_Z 96
_cell_length_a 22.775943
_cell_length_b 7.158918
_cell_length_c 26.854273
_cell_angle_alpha 90.000000
_cell_angle_beta 90.000000
_cell_angle_gamma 90.000000
_cell_volume 4378.618976
_symmetry_space_group_name_H-M "C C C M"
_symmetry_group_IT_number 66
_symmetry_cell_setting 'orthorhombic'
loop_
_space_group_symop_operation_xyz
x,y,z
-x,-y,z
x,-y,1/2-z
-x,y,1/2-z
-x,-y,-z
x,y,-z
-x,y,1/2+z
x,-y,1/2+z
1/2+x,1/2+y,z
1/2-x,1/2-y,z
1/2+x,1/2-y,1/2-z
1/2-x,1/2+y,1/2-z
1/2-x,1/2-y,-z
1/2+x,1/2+y,-z
1/2-x,1/2+y,1/2+z
1/2+x,1/2-y,1/2+z
loop_
_atom_site_type_symbol
_atom_site_label
_atom_site_fract_x
_atom_site_fract_y
_atom_site_fract_z
Si Si1 0.114427 0.281964 0.347096
Si Si2 0.059866 0.744912 0.057123
Si Si3 0.924753 0.707998 0.056532
Si Si4 0.992576 0.778314 0.191942
Si Si5 0.864022 0.695942 0.848046
Si Si6 0.817064 0.721254 0.746917
O O1 0.104510 0.183036 0.400334
O O2 0.149475 0.475161 0.353544
O O3 0.141340 0.195001 0.296431
O O4 0.046507 0.322439 0.334347
O O5 0.067812 0.518445 0.058620
O O6 0.990682 0.783602 0.067611
O O7 0.071259 0.802867 0.000000
O O8 0.875198 0.764444 0.096016
O O9 0.910357 0.756953 0.000000
O O10 0.928955 0.718780 0.174874
O O11 0.000000 0.742589 0.250000
O O12 0.000000 0.000000 0.183291
O O13 0.824559 0.784245 0.804508
O O14 0.831623 0.500000 0.750000
O O15 0.750000 0.750000 0.732030
#
# Coordination Sequence:
#
# PCOD9495393 Si02
#       6
#    16  16  16  16  16  16
#     4  10  18  31  51  71  94 126 161 195 229 280
#     4   8  13  22  42  73 101 122 148 186 228 270
#     4   8  13  22  42  73 101 122 148 186 228 270
#     4  11  21  29  42  71 104 130 151 184 241 290
#     4  10  18  31  51  71  94 126 161 195 229 280
#     4  10  22  35  50  69  89 122 164 204 247 278
#
# _framework density 21.924720000000001
#
# number of rings (size 3 to 8) (size 9 to 14) (size 15 to 20)
#    0.000    2.500    3.333    1.500    0.000    2.000 
#    0.000    0.000    0.000    3.000    0.000    0.000 
#    0.000    0.000    0.000    0.000    0.000    0.000 
#
# Total GULP energy -267580.528830 kJ/mol
# GULP energy per Si atom -5574.594351 kJ/mol
# Density = 2.187482 g / cm^3
# Si number density = 21.924720 Si / 1000 Ang^3
#
#
#
# Elastic Constant Matrix: (Units=GPa)
#
#
# Indices 1 2 3 4 5 6 
#
# 1 52.4006 -30.4395 27.5379 0.0000 0.0000 0.0000
# 2 -30.4395 71.0405 -16.1056 0.0000 0.0000 0.0000
# 3 27.5379 -16.1056 191.4491 0.0000 0.0000 0.0000
# 4 0.0000 0.0000 0.0000 -13.5620 0.0000 0.0000
# 5 0.0000 0.0000 0.0000 0.0000 5.3144 0.0000
# 6 0.0000 0.0000 0.0000 0.0000 0.0000 6.8134
#
#
#
# Elastic Compliance Matrix: (Units=1/GPa)
#
#
# Indices 1 2 3 4 5 6 
#
# 1 0.026961 0.010881 -0.002963 0.000000 0.000000 0.000000
# 2 0.010881 0.018741 0.000012 0.000000 0.000000 0.000000
# 3 -0.002963 0.000012 0.005650 0.000000 0.000000 0.000000
# 4 0.000000 0.000000 0.000000 -0.073736 0.000000 0.000000
# 5 0.000000 0.000000 0.000000 0.000000 0.188169 0.000000
# 6 0.000000 0.000000 0.000000 0.000000 0.000000 0.146769
#
#
# Mechanical properties :
#
#
# Convention : Reuss Voigt Hill
#
# Bulk Modulus (GPa) = 14.87826 30.76399 22.82112
# Shear Modulus (GPa) = 15.66900 21.97298 18.82099
#
# Velocity S-wave (km/s) = 2.67624 3.16919 2.93309
# Velocity P-wave (km/s) = 4.04357 5.23964 4.67997
#
# Compressibility (1/GPa) = 0.06721215
#
# Stress axis : x y z
#
# Youngs Moduli (GPa) = 37.09004 53.35816 176.97696
#
# Poissons Ratio (x) = -0.58058 0.52434
# Poissons Ratio (y) = -0.40357 -0.00204
# Poissons Ratio (z) = 0.10989 -0.00061
#
# Static dielectric constant tensor:
#      x y z
#    x 1.727340 0.000000 0.000000 
#    y 0.000000 1.851940 0.000000 
#    z 0.000000 0.000000 1.921710 
# 
# From -- ./inp_files/62793.got.cif
#   From: 2010.05.17/outbox.cif.g08.bks.cpg/sg66_32_cif.got.tgz:62793.got - 2010.06.03 17:51:23.
