data_PCOD9495648
_publ_section_title
;
Structure prediction by ZEFSAII (Michael W. Deem and Ramdas Pophale) SiO2 
 PCOD9495648
Probable space group: C C C M
;
_chemical_formula_sum "Si O2"
_cell_formula_units_Z 72
_cell_length_a 17.996500
_cell_length_b 10.860380
_cell_length_c 14.861584
_cell_angle_alpha 90.000000
_cell_angle_beta 90.000000
_cell_angle_gamma 90.000000
_cell_volume 2904.679185
_symmetry_space_group_name_H-M "C C C M"
_symmetry_group_IT_number 66
_symmetry_cell_setting 'orthorhombic'
loop_
_space_group_symop_operation_xyz
x,y,z
-x,-y,z
x,-y,1/2-z
-x,y,1/2-z
-x,-y,-z
x,y,-z
-x,y,1/2+z
x,-y,1/2+z
1/2+x,1/2+y,z
1/2-x,1/2-y,z
1/2+x,1/2-y,1/2-z
1/2-x,1/2+y,1/2-z
1/2-x,1/2-y,-z
1/2+x,1/2+y,-z
1/2-x,1/2+y,1/2+z
1/2+x,1/2-y,1/2+z
loop_
_atom_site_type_symbol
_atom_site_label
_atom_site_fract_x
_atom_site_fract_y
_atom_site_fract_z
Si Si1 0.985717 0.862609 0.857733
Si Si2 0.696883 0.000843 0.600817
Si Si3 0.250000 0.750000 0.154972
Si Si4 0.456544 0.108319 0.346616
Si Si5 0.829702 0.873257 0.802628
O O1 0.897500 0.837178 0.866145
O O2 0.000000 0.870715 0.750000
O O3 0.033664 0.744636 0.888519
O O4 0.000000 0.000000 0.894531
O O5 0.678371 0.040151 0.500000
O O6 0.743178 0.873341 0.599372
O O7 0.624682 0.953137 0.653649
O O8 0.751616 0.097172 0.648881
O O9 0.182302 0.774949 0.224016
O O10 0.500000 0.119957 0.250000
O O11 0.500000 0.000000 0.397189
O O12 0.849195 0.000000 0.750000
#
# Coordination Sequence:
#
# PCOD9495648 Si02
#       5
#    16  16   8  16  16
#     4  10  18  35  61  96 124 164 225 296 342 396
#     4  11  25  42  63  99 143 181 226 299 374 425
#     4  10  21  38  69  92 120 178 232 282 333 430
#     4  10  23  38  66  95 131 180 240 284 344 437
#     4  10  21  36  67  95 127 173 237 289 347 427
#
# _framework density 24.787590000000002
#
# number of rings (size 3 to 8) (size 9 to 14) (size 15 to 20)
#    0.000    1.778    2.222    3.000   15.556    0.444 
#    0.000    1.667    0.000    1.333    0.000    0.000 
#    0.000    0.000    0.000    0.000    0.000    0.000 
#
# Total GULP energy -200773.528425 kJ/mol
# GULP energy per Si atom -5577.042456 kJ/mol
# Density = 2.473117 g / cm^3
# Si number density = 24.787590 Si / 1000 Ang^3
#
#
#
# Elastic Constant Matrix: (Units=GPa)
#
#
# Indices 1 2 3 4 5 6 
#
# 1 167.1988 24.1023 39.0567 0.0000 0.0000 0.0000
# 2 24.1023 131.1036 22.1358 0.0000 0.0000 0.0000
# 3 39.0567 22.1358 96.7942 0.0000 0.0000 0.0000
# 4 0.0000 0.0000 0.0000 -5.1900 0.0000 0.0000
# 5 0.0000 0.0000 0.0000 0.0000 -6.3189 0.0000
# 6 0.0000 0.0000 0.0000 0.0000 0.0000 32.4641
#
#
#
# Elastic Compliance Matrix: (Units=1/GPa)
#
#
# Indices 1 2 3 4 5 6 
#
# 1 0.006684 -0.000804 -0.002513 0.000000 0.000000 0.000000
# 2 -0.000804 0.008031 -0.001512 0.000000 0.000000 0.000000
# 3 -0.002513 -0.001512 0.011691 0.000000 0.000000 0.000000
# 4 0.000000 0.000000 0.000000 -0.192678 0.000000 0.000000
# 5 0.000000 0.000000 0.000000 0.000000 -0.158256 0.000000
# 6 0.000000 0.000000 0.000000 0.000000 0.000000 0.030803
#
#
# Mechanical properties :
#
#
# Convention : Reuss Voigt Hill
#
# Bulk Modulus (GPa) = 59.71300 62.85404 61.28352
# Shear Modulus (GPa) = -17.95438 24.84448 3.44505
#
# Velocity S-wave (km/s) = -2.69426 3.16934 1.18019
# Velocity P-wave (km/s) = 3.80309 6.22937 5.16084
#
# Compressibility (1/GPa) = 0.01674677
#
# Stress axis : x y z
#
# Youngs Moduli (GPa) = 149.61338 124.52170 85.53612
#
# Poissons Ratio (x) = 0.10018 0.21495
# Poissons Ratio (y) = 0.12036 0.12932
# Poissons Ratio (z) = 0.37598 0.18827
#
# Static dielectric constant tensor:
#      x y z
#    x 2.100640 0.000000 0.000000 
#    y 0.000000 2.038130 0.000000 
#    z 0.000000 0.000000 1.996870 
# 
# From -- ./inp_files/41309.got.cif
#   From: 2010.05.17/outbox.cif.g08.bks.cpg/sg66_21_cif.got.tgz:41309.got - 2010.06.03 17:51:23.
