data_PCOD9495786
_publ_section_title
;
Structure prediction by ZEFSAII (Michael W. Deem and Ramdas Pophale) SiO2 
 PCOD9495786
Probable space group: C C C M
;
_chemical_formula_sum "Si O2"
_cell_formula_units_Z 80
_cell_length_a 23.950860
_cell_length_b 11.962891
_cell_length_c 11.254649
_cell_angle_alpha 90.000000
_cell_angle_beta 90.000000
_cell_angle_gamma 90.000000
_cell_volume 3224.699223
_symmetry_space_group_name_H-M "C C C M"
_symmetry_group_IT_number 66
_symmetry_cell_setting 'orthorhombic'
loop_
_space_group_symop_operation_xyz
x,y,z
-x,-y,z
x,-y,1/2-z
-x,y,1/2-z
-x,-y,-z
x,y,-z
-x,y,1/2+z
x,-y,1/2+z
1/2+x,1/2+y,z
1/2-x,1/2-y,z
1/2+x,1/2-y,1/2-z
1/2-x,1/2+y,1/2-z
1/2-x,1/2-y,-z
1/2+x,1/2+y,-z
1/2-x,1/2+y,1/2+z
1/2+x,1/2-y,1/2+z
loop_
_atom_site_type_symbol
_atom_site_label
_atom_site_fract_x
_atom_site_fract_y
_atom_site_fract_z
Si Si1 0.758843 0.510522 0.873691
Si Si2 0.314997 0.217207 0.626366
Si Si3 0.561679 0.552878 0.130614
Si Si4 0.845085 0.296301 0.371806
Si Si5 0.464638 0.818960 0.633217
O O1 0.726911 0.500000 0.750000
O O2 0.808379 0.417492 0.868275
O O3 0.789629 0.628791 0.874634
O O4 0.729689 0.493178 0.000000
O O5 0.341095 0.248450 0.500000
O O6 0.250000 0.250000 0.624980
O O7 0.341840 0.263995 0.745328
O O8 0.500000 0.500000 0.125913
O O9 0.587787 0.500000 0.250000
O O10 0.550176 0.686082 0.140970
O O11 0.587296 0.529322 0.000000
O O12 0.845869 0.236809 0.500000
O O13 0.901950 0.368544 0.365714
O O14 0.500000 0.849566 0.750000
O O15 0.489080 0.839454 0.500000
#
# Coordination Sequence:
#
# PCOD9495786 Si02
#       5
#    16  16  16  16  16
#     4   8  14  27  47  69  93 123 156 193 241 292
#     4   9  17  30  51  77  99 122 161 209 253 301
#     4   9  15  25  42  63  86 118 160 203 250 296
#     4   9  18  31  48  73 103 134 168 205 247 300
#     4  10  19  30  46  71 101 133 174 215 248 294
#
# _framework density 24.808516000000001
#
# number of rings (size 3 to 8) (size 9 to 14) (size 15 to 20)
#    0.000    3.000    2.000    0.000    0.000    1.200 
#    0.000    0.000    0.000    9.000    0.000   54.600 
#    0.000    0.000    0.000    0.000    0.000    0.000 
#
# Total GULP energy -222715.256449 kJ/mol
# GULP energy per Si atom -5567.881411 kJ/mol
# Density = 2.475205 g / cm^3
# Si number density = 24.808516 Si / 1000 Ang^3
#
#
#
# Elastic Constant Matrix: (Units=GPa)
#
#
# Indices 1 2 3 4 5 6 
#
# 1 49.6416 9.2527 39.5256 0.0000 0.0000 0.0000
# 2 9.2527 53.8664 -7.1288 0.0000 0.0000 0.0000
# 3 39.5256 -7.1288 373.2516 0.0000 0.0000 0.0000
# 4 0.0000 0.0000 0.0000 -11.3034 0.0000 0.0000
# 5 0.0000 0.0000 0.0000 0.0000 17.8561 0.0000
# 6 0.0000 0.0000 0.0000 0.0000 0.0000 15.1349
#
#
#
# Elastic Compliance Matrix: (Units=1/GPa)
#
#
# Indices 1 2 3 4 5 6 
#
# 1 0.022940 -0.004273 -0.002511 0.000000 0.000000 0.000000
# 2 -0.004273 0.019407 0.000823 0.000000 0.000000 0.000000
# 3 -0.002511 0.000823 0.002961 0.000000 0.000000 0.000000
# 4 0.000000 0.000000 0.000000 -0.088469 0.000000 0.000000
# 5 0.000000 0.000000 0.000000 0.000000 0.056003 0.000000
# 6 0.000000 0.000000 0.000000 0.000000 0.000000 0.066073
#
#
# Mechanical properties :
#
#
# Convention : Reuss Voigt Hill
#
# Bulk Modulus (GPa) = 29.95165 62.22874 46.09019
# Shear Modulus (GPa) = 49.03640 33.34485 41.19062
#
# Velocity S-wave (km/s) = 4.45072 3.67016 4.07915
# Velocity P-wave (km/s) = 6.20574 6.56492 6.38785
#
# Compressibility (1/GPa) = 0.03338714
#
# Stress axis : x y z
#
# Youngs Moduli (GPa) = 43.59208 51.52698 337.75055
#
# Poissons Ratio (x) = 0.22016 0.84804
# Poissons Ratio (y) = 0.18626 -0.27801
# Poissons Ratio (z) = 0.10945 -0.04241
#
# Static dielectric constant tensor:
#      x y z
#    x 1.961510 0.000000 0.000000 
#    y 0.000000 2.041970 0.000000 
#    z 0.000000 0.000000 2.141780 
# 
# From -- ./inp_files/16553.got.cif
#   From: 2010.05.17/outbox.cif.g08.bks.cpg/sg66_9_cif.got.tgz:16553.got - 2010.06.03 17:51:23.
