data_PCOD9495829
_publ_section_title
;
Structure prediction by ZEFSAII (Michael W. Deem and Ramdas Pophale) SiO2 
 PCOD9495829
Probable space group: C C C M
;
_chemical_formula_sum "Si O2"
_cell_formula_units_Z 96
_cell_length_a 31.328061
_cell_length_b 21.175788
_cell_length_c 8.943661
_cell_angle_alpha 90.000000
_cell_angle_beta 90.000000
_cell_angle_gamma 90.000000
_cell_volume 5933.192315
_symmetry_space_group_name_H-M "C C C M"
_symmetry_group_IT_number 66
_symmetry_cell_setting 'orthorhombic'
loop_
_space_group_symop_operation_xyz
x,y,z
-x,-y,z
x,-y,1/2-z
-x,y,1/2-z
-x,-y,-z
x,y,-z
-x,y,1/2+z
x,-y,1/2+z
1/2+x,1/2+y,z
1/2-x,1/2-y,z
1/2+x,1/2-y,1/2-z
1/2-x,1/2+y,1/2-z
1/2-x,1/2-y,-z
1/2+x,1/2+y,-z
1/2-x,1/2+y,1/2+z
1/2+x,1/2-y,1/2+z
loop_
_atom_site_type_symbol
_atom_site_label
_atom_site_fract_x
_atom_site_fract_y
_atom_site_fract_z
Si Si1 0.246971 0.064019 0.320971
Si Si2 0.713175 0.800197 0.679556
Si Si3 0.043944 0.794750 0.820797
Si Si4 0.156401 0.906634 0.674148
Si Si5 0.867905 0.240162 0.673511
Si Si6 0.932473 0.062876 0.822277
O O1 0.243989 0.057979 0.500000
O O2 0.272182 0.128557 0.286387
O O3 0.200105 0.073073 0.250548
O O4 0.265501 0.000000 0.250000
O O5 0.709349 0.793857 0.500000
O O6 0.750000 0.750000 0.727501
O O7 0.668120 0.783547 0.753124
O O8 0.086712 0.762287 0.757574
O O9 0.047766 0.869430 0.779532
O O10 0.000000 0.770392 0.750000
O O11 0.043084 0.790213 0.000000
O O12 0.154970 0.926144 0.500000
O O13 0.151248 0.830883 0.680410
O O14 0.115989 0.932422 0.763650
O O15 0.874659 0.255956 0.500000
O O16 0.951546 0.000000 0.750000
O O17 0.933713 0.057276 0.000000
#
# Coordination Sequence:
#
# PCOD9495829 Si02
#       6
#    16  16  16  16  16  16
#     4  11  22  34  49  70 101 137 172 213 256 302
#     4  10  20  35  54  75 102 137 175 213 256 306
#     4  10  21  36  53  71  95 125 161 207 259 309
#     4  10  19  31  47  68  95 128 168 212 255 299
#     4  10  20  33  53  77 100 128 167 213 256 303
#     4  10  20  32  46  64  89 124 164 208 255 304
#
# _framework density 16.180160000000001
#
# number of rings (size 3 to 8) (size 9 to 14) (size 15 to 20)
#    0.000    1.833    1.667    3.000    0.000    5.333 
#    0.000    1.667    0.000    0.000    0.000    0.000 
#    0.000    0.667    0.000    7.000    0.000    3.833 
#
# Total GULP energy -268009.502316 kJ/mol
# GULP energy per Si atom -5583.531298 kJ/mol
# Density = 1.614333 g / cm^3
# Si number density = 16.180160 Si / 1000 Ang^3
#
#
#
# Elastic Constant Matrix: (Units=GPa)
#
#
# Indices 1 2 3 4 5 6 
#
# 1 121.7943 44.6062 42.2185 0.0000 0.0000 0.0000
# 2 44.6062 66.6618 26.8769 0.0000 0.0000 0.0000
# 3 42.2185 26.8769 34.5528 0.0000 0.0000 0.0000
# 4 0.0000 0.0000 0.0000 47.8443 0.0000 0.0000
# 5 0.0000 0.0000 0.0000 0.0000 22.8700 0.0000
# 6 0.0000 0.0000 0.0000 0.0000 0.0000 -2.4328
#
#
#
# Elastic Compliance Matrix: (Units=1/GPa)
#
#
# Indices 1 2 3 4 5 6 
#
# 1 0.014885 -0.003828 -0.015209 0.000000 0.000000 0.000000
# 2 -0.003828 0.022840 -0.013089 0.000000 0.000000 0.000000
# 3 -0.015209 -0.013089 0.057706 0.000000 0.000000 0.000000
# 4 0.000000 0.000000 0.000000 0.020901 0.000000 0.000000
# 5 0.000000 0.000000 0.000000 0.000000 0.043725 0.000000
# 6 0.000000 0.000000 0.000000 0.000000 0.000000 -0.411047
#
#
# Mechanical properties :
#
#
# Convention : Reuss Voigt Hill
#
# Bulk Modulus (GPa) = 32.07364 50.04580 41.05972
# Shear Modulus (GPa) = -28.35337 20.94345 -3.70496
#
# Velocity S-wave (km/s) = -4.19065 3.60167 -1.51486
# Velocity P-wave (km/s) = 1.88403 6.94935 4.72990
#
# Compressibility (1/GPa) = 0.03117825
#
# Stress axis : x y z
#
# Youngs Moduli (GPa) = 67.18362 43.78359 17.32922
#
# Poissons Ratio (x) = 0.16759 0.26357
# Poissons Ratio (y) = 0.25716 0.22682
# Poissons Ratio (z) = 1.02182 0.57308
#
# Static dielectric constant tensor:
#      x y z
#    x 1.526650 0.000000 0.000000 
#    y 0.000000 1.556690 0.000000 
#    z 0.000000 0.000000 1.541040 
# 
# From -- ./inp_files/7976.got.cif
#   From: 2010.05.17/outbox.cif.g08.bks.cpg/sg66_4_cif.got.tgz:7976.got - 2010.06.03 17:51:23.
