data_PCOD9495929
_publ_section_title
;
Structure prediction by ZEFSAII (Michael W. Deem and Ramdas Pophale) SiO2 
 PCOD9495929
Probable space group: C C C M
;
_chemical_formula_sum "Si O2"
_cell_formula_units_Z 64
_cell_length_a 28.220815
_cell_length_b 14.994793
_cell_length_c 8.722217
_cell_angle_alpha 90.000000
_cell_angle_beta 90.000000
_cell_angle_gamma 90.000000
_cell_volume 3690.939392
_symmetry_space_group_name_H-M "C C C M"
_symmetry_group_IT_number 66
_symmetry_cell_setting 'orthorhombic'
loop_
_space_group_symop_operation_xyz
x,y,z
-x,-y,z
x,-y,1/2-z
-x,y,1/2-z
-x,-y,-z
x,y,-z
-x,y,1/2+z
x,-y,1/2+z
1/2+x,1/2+y,z
1/2-x,1/2-y,z
1/2+x,1/2-y,1/2-z
1/2-x,1/2+y,1/2-z
1/2-x,1/2-y,-z
1/2+x,1/2+y,-z
1/2-x,1/2+y,1/2+z
1/2+x,1/2-y,1/2+z
loop_
_atom_site_type_symbol
_atom_site_label
_atom_site_fract_x
_atom_site_fract_y
_atom_site_fract_z
Si Si1 0.447809 0.903786 0.184098
Si Si2 0.136049 0.270298 0.315697
Si Si3 0.778958 0.596629 0.315876
Si Si4 0.325214 0.403690 0.817707
O O1 0.500000 0.885377 0.250000
O O2 0.410136 0.827786 0.225317
O O3 0.432659 0.000000 0.250000
O O4 0.450098 0.910225 0.000000
O O5 0.136430 0.257867 0.500000
O O6 0.182032 0.329932 0.275554
O O7 0.140637 0.175446 0.235085
O O8 0.792968 0.500000 0.250000
O O9 0.775684 0.591383 0.500000
O O10 0.727162 0.617319 0.249101
O O11 0.338775 0.500000 0.750000
O O12 0.322377 0.409517 0.000000
#
# Coordination Sequence:
#
# PCOD9495929 Si02
#       4
#    16  16  16  16
#     4  10  20  35  55  79 108 137 167 206 252 303
#     4  10  21  35  52  75 103 136 172 211 254 300
#     4  10  19  32  50  73 105 139 171 209 251 298
#     4  11  22  35  52  73 101 136 173 213 254 299
#
# _framework density 17.339759999999998
#
# number of rings (size 3 to 8) (size 9 to 14) (size 15 to 20)
#    0.000    1.750    0.000    7.500    0.000    7.000 
#    0.000    0.000    0.000    0.750    0.000    5.250 
#    0.000    0.000    0.000    0.000    0.000    0.000 
#
# Total GULP energy -178800.088335 kJ/mol
# GULP energy per Si atom -5587.502760 kJ/mol
# Density = 1.730029 g / cm^3
# Si number density = 17.339760 Si / 1000 Ang^3
#
#
#
# Elastic Constant Matrix: (Units=GPa)
#
#
# Indices 1 2 3 4 5 6 
#
# 1 75.3819 87.3293 45.0975 0.0000 0.0000 0.0000
# 2 87.3293 140.9947 61.7424 0.0000 0.0000 0.0000
# 3 45.0975 61.7424 78.9155 0.0000 0.0000 0.0000
# 4 0.0000 0.0000 0.0000 31.7654 0.0000 0.0000
# 5 0.0000 0.0000 0.0000 0.0000 27.0964 0.0000
# 6 0.0000 0.0000 0.0000 0.0000 0.0000 28.7954
#
#
#
# Elastic Compliance Matrix: (Units=1/GPa)
#
#
# Indices 1 2 3 4 5 6 
#
# 1 0.049053 -0.027544 -0.006482 0.000000 0.000000 0.000000
# 2 -0.027544 0.026255 -0.004801 0.000000 0.000000 0.000000
# 3 -0.006482 -0.004801 0.020133 0.000000 0.000000 0.000000
# 4 0.000000 0.000000 0.000000 0.031481 0.000000 0.000000
# 5 0.000000 0.000000 0.000000 0.000000 0.036905 0.000000
# 6 0.000000 0.000000 0.000000 0.000000 0.000000 0.034728
#
#
# Mechanical properties :
#
#
# Convention : Reuss Voigt Hill
#
# Bulk Modulus (GPa) = 56.22365 75.95893 66.09129
# Shear Modulus (GPa) = 17.72179 24.27296 20.99738
#
# Velocity S-wave (km/s) = 3.20039 3.74551 3.48363
# Velocity P-wave (km/s) = 6.79351 7.91242 7.37422
#
# Compressibility (1/GPa) = 0.01778611
#
# Stress axis : x y z
#
# Youngs Moduli (GPa) = 20.38598 38.08774 49.67081
#
# Poissons Ratio (x) = 1.04909 0.32198
# Poissons Ratio (y) = 0.56151 0.23848
# Poissons Ratio (z) = 0.13215 0.18287
#
# Static dielectric constant tensor:
#      x y z
#    x 1.576330 0.000000 0.000000 
#    y 0.000000 1.587630 0.000000 
#    z 0.000000 0.000000 1.581110 
# 
# From -- ./inp_files/5084.got.cif
#   From: 2010.05.17/outbox.cif.g08.bks.cpg/sg66_3_cif.got.tgz:5084.got - 2010.06.03 17:51:23.
