data_PCOD9495302
_publ_section_title
;
Structure prediction by ZEFSAII (Michael W. Deem and Ramdas Pophale) SiO2 
 PCOD9495302
Probable space group: C C C M
;
_chemical_formula_sum "Si O2"
_cell_formula_units_Z 72
_cell_length_a 15.699217
_cell_length_b 9.815789
_cell_length_c 22.419599
_cell_angle_alpha 90.000000
_cell_angle_beta 90.000000
_cell_angle_gamma 90.000000
_cell_volume 3454.864724
_symmetry_space_group_name_H-M "C C C M"
_symmetry_group_IT_number 66
_symmetry_cell_setting 'orthorhombic'
loop_
_space_group_symop_operation_xyz
x,y,z
-x,-y,z
x,-y,1/2-z
-x,y,1/2-z
-x,-y,-z
x,y,-z
-x,y,1/2+z
x,-y,1/2+z
1/2+x,1/2+y,z
1/2-x,1/2-y,z
1/2+x,1/2-y,1/2-z
1/2-x,1/2+y,1/2-z
1/2-x,1/2-y,-z
1/2+x,1/2+y,-z
1/2-x,1/2+y,1/2+z
1/2+x,1/2-y,1/2+z
loop_
_atom_site_type_symbol
_atom_site_label
_atom_site_fract_x
_atom_site_fract_y
_atom_site_fract_z
Si Si1 0.388330 0.645355 0.719662
Si Si2 0.250000 0.750000 0.807868
Si Si3 0.748666 0.967330 0.129228
Si Si4 0.444970 0.858948 0.632813
Si Si5 0.251213 0.912346 0.500000
Si Si6 0.944417 0.632505 0.000000
O O1 0.413017 0.500000 0.750000
O O2 0.334298 0.730395 0.767906
O O3 0.316996 0.604330 0.671054
O O4 0.454667 0.742916 0.684075
O O5 0.238458 0.618717 0.847788
O O6 0.655504 0.898962 0.133557
O O7 0.783520 0.964374 0.062011
O O8 0.459308 0.800781 0.565145
O O9 0.500000 0.000000 0.640845
O O10 0.250000 0.750000 0.500000
O O11 0.351438 0.935627 0.500000
O O12 0.000000 0.500000 0.000000
#
# Coordination Sequence:
#
# PCOD9495302 Si02
#       6
#    16   8  16  16   8   8
#     4  10  19  33  54  79 113 154 197 238 287 348
#     4  10  20  33  52  73 110 148 196 232 288 350
#     4  10  19  33  54  79 111 151 193 238 291 348
#     4  10  18  32  55  86 115 149 193 239 292 353
#     4  10  18  29  51  80 109 137 187 247 289 337
#     4   8  16  28  47  78 117 144 178 235 292 353
#
# _framework density 20.840178999999999
#
# number of rings (size 3 to 8) (size 9 to 14) (size 15 to 20)
#    0.000    2.222    2.222    2.667    0.000    0.444 
#    0.000    2.222    0.000    9.333    0.000    0.000 
#    0.000   55.111    0.000   19.333    0.000    0.000 
#
# Total GULP energy -200698.958611 kJ/mol
# GULP energy per Si atom -5574.971073 kJ/mol
# Density = 2.079275 g / cm^3
# Si number density = 20.840179 Si / 1000 Ang^3
#
#
#
# Elastic Constant Matrix: (Units=GPa)
#
#
# Indices 1 2 3 4 5 6 
#
# 1 70.5305 17.7322 19.4802 0.0000 0.0000 0.0000
# 2 17.7322 133.6316 91.6134 0.0000 0.0000 0.0000
# 3 19.4802 91.6134 182.4942 0.0000 0.0000 0.0000
# 4 0.0000 0.0000 0.0000 -180.8837 0.0000 0.0000
# 5 0.0000 0.0000 0.0000 0.0000 15.2882 0.0000
# 6 0.0000 0.0000 0.0000 0.0000 0.0000 16.6989
#
#
#
# Elastic Compliance Matrix: (Units=1/GPa)
#
#
# Indices 1 2 3 4 5 6 
#
# 1 0.014765 -0.001340 -0.000903 0.000000 0.000000 0.000000
# 2 -0.001340 0.011532 -0.005646 0.000000 0.000000 0.000000
# 3 -0.000903 -0.005646 0.008410 0.000000 0.000000 0.000000
# 4 0.000000 0.000000 0.000000 -0.005528 0.000000 0.000000
# 5 0.000000 0.000000 0.000000 0.000000 0.065410 0.000000
# 6 0.000000 0.000000 0.000000 0.000000 0.000000 0.059884
#
#
# Mechanical properties :
#
#
# Convention : Reuss Voigt Hill
#
# Bulk Modulus (GPa) = 52.83105 71.58974 62.21040
# Shear Modulus (GPa) = 28.31890 -12.59062 7.86414
#
# Velocity S-wave (km/s) = 3.69027 -2.46062 1.94467
# Velocity P-wave (km/s) = 6.60023 5.13357 5.91255
#
# Compressibility (1/GPa) = 0.01892826
#
# Stress axis : x y z
#
# Youngs Moduli (GPa) = 67.72943 86.71698 118.90036
#
# Poissons Ratio (x) = 0.11618 0.10742
# Poissons Ratio (y) = 0.09074 0.67131
# Poissons Ratio (z) = 0.06119 0.48961
#
# Static dielectric constant tensor:
#      x y z
#    x 1.843900 0.000000 0.000000 
#    y 0.000000 1.736270 0.000000 
#    z 0.000000 0.000000 1.844550 
# 
# From -- ./inp_files/59291.got.cif
#   From: 2010.05.17/outbox.cif.g08.bks.cpg/sg66_30_cif.got.tgz:59291.got - 2010.06.03 17:51:23.
