data_PCOD9495289
_publ_section_title
;
Structure prediction by ZEFSAII (Michael W. Deem and Ramdas Pophale) SiO2 
 PCOD9495289
Probable space group: C C C M
;
_chemical_formula_sum "Si O2"
_cell_formula_units_Z 80
_cell_length_a 13.620318
_cell_length_b 18.192993
_cell_length_c 18.633791
_cell_angle_alpha 90.000000
_cell_angle_beta 90.000000
_cell_angle_gamma 90.000000
_cell_volume 4617.348129
_symmetry_space_group_name_H-M "C C C M"
_symmetry_group_IT_number 66
_symmetry_cell_setting 'orthorhombic'
loop_
_space_group_symop_operation_xyz
x,y,z
-x,-y,z
x,-y,1/2-z
-x,y,1/2-z
-x,-y,-z
x,y,-z
-x,y,1/2+z
x,-y,1/2+z
1/2+x,1/2+y,z
1/2-x,1/2-y,z
1/2+x,1/2-y,1/2-z
1/2-x,1/2+y,1/2-z
1/2-x,1/2-y,-z
1/2+x,1/2+y,-z
1/2-x,1/2+y,1/2+z
1/2+x,1/2-y,1/2+z
loop_
_atom_site_type_symbol
_atom_site_label
_atom_site_fract_x
_atom_site_fract_y
_atom_site_fract_z
Si Si1 0.254692 0.933747 0.297486
Si Si2 0.511902 0.705036 0.580882
Si Si3 0.404779 0.451286 0.082974
Si Si4 0.107313 0.824193 0.776577
Si Si5 0.349496 0.790259 0.345894
O O1 0.182461 0.961569 0.360775
O O2 0.186650 0.884201 0.244979
O O3 0.329136 0.875351 0.332110
O O4 0.295743 0.000000 0.250000
O O5 0.547731 0.711195 0.500000
O O6 0.441552 0.633069 0.585714
O O7 0.595605 0.693929 0.640170
O O8 0.441295 0.771689 0.604032
O O9 0.500000 0.500000 0.101517
O O10 0.377745 0.467987 0.000000
O O11 0.129018 0.751840 0.729191
O O12 0.000000 0.850857 0.750000
O O13 0.250000 0.750000 0.373980
#
# Coordination Sequence:
#
# PCOD9495289 Si02
#       5
#    16  16  16  16  16
#     4  11  20  29  49  69  98 134 165 200 252 292
#     4  10  18  29  49  72  97 129 164 205 250 293
#     4  10  19  28  42  72 106 131 158 194 242 300
#     4   9  16  30  47  69  95 122 160 202 240 295
#     4   9  17  31  45  69  95 129 165 204 240 291
#
# _framework density 17.325963000000002
#
# number of rings (size 3 to 8) (size 9 to 14) (size 15 to 20)
#    0.000    2.200    6.000    1.200    0.000    1.200 
#    0.000    0.000    0.000   12.000    0.000    1.400 
#    0.000    0.000    0.000    0.000    0.000    0.000 
#
# Total GULP energy -223000.110927 kJ/mol
# GULP energy per Si atom -5575.002773 kJ/mol
# Density = 1.728653 g / cm^3
# Si number density = 17.325963 Si / 1000 Ang^3
#
#
#
# Elastic Constant Matrix: (Units=GPa)
#
#
# Indices 1 2 3 4 5 6 
#
# 1 17.8708 6.6495 7.9136 0.0000 0.0000 0.0000
# 2 6.6495 77.1345 4.0555 0.0000 0.0000 0.0000
# 3 7.9136 4.0555 104.9356 0.0000 0.0000 0.0000
# 4 0.0000 0.0000 0.0000 13.7890 0.0000 0.0000
# 5 0.0000 0.0000 0.0000 0.0000 8.8141 0.0000
# 6 0.0000 0.0000 0.0000 0.0000 0.0000 17.8598
#
#
#
# Elastic Compliance Matrix: (Units=1/GPa)
#
#
# Indices 1 2 3 4 5 6 
#
# 1 0.059697 -0.004920 -0.004312 0.000000 0.000000 0.000000
# 2 -0.004920 0.013396 -0.000147 0.000000 0.000000 0.000000
# 3 -0.004312 -0.000147 0.009861 0.000000 0.000000 0.000000
# 4 0.000000 0.000000 0.000000 0.072521 0.000000 0.000000
# 5 0.000000 0.000000 0.000000 0.000000 0.113455 0.000000
# 6 0.000000 0.000000 0.000000 0.000000 0.000000 0.055992
#
#
# Mechanical properties :
#
#
# Convention : Reuss Voigt Hill
#
# Bulk Modulus (GPa) = 15.57694 26.35312 20.96503
# Shear Modulus (GPa) = 13.69572 20.18072 16.93822
#
# Velocity S-wave (km/s) = 2.81459 3.41657 3.13008
# Velocity P-wave (km/s) = 4.42409 5.55042 5.01895
#
# Compressibility (1/GPa) = 0.06419747
#
# Stress axis : x y z
#
# Youngs Moduli (GPa) = 16.75120 74.64808 101.41467
#
# Poissons Ratio (x) = 0.36724 0.43729
# Poissons Ratio (y) = 0.08241 0.01488
# Poissons Ratio (z) = 0.07223 0.01095
#
# Static dielectric constant tensor:
#      x y z
#    x 1.589920 0.000000 0.000000 
#    y 0.000000 1.610840 0.000000 
#    z 0.000000 0.000000 1.620360 
# 
# From -- ./inp_files/40184.got.cif
#   From: 2010.05.17/outbox.cif.g08.bks.cpg/sg66_21_cif.got.tgz:40184.got - 2010.06.03 17:51:23.
