data_PCOD9495978
_publ_section_title
;
Structure prediction by ZEFSAII (Michael W. Deem and Ramdas Pophale) SiO2 
 PCOD9495978
Probable space group: C C C M
;
_chemical_formula_sum "Si O2"
_cell_formula_units_Z 64
_cell_length_a 9.553012
_cell_length_b 38.663152
_cell_length_c 10.324666
_cell_angle_alpha 90.000000
_cell_angle_beta 90.000000
_cell_angle_gamma 90.000000
_cell_volume 3813.410793
_symmetry_space_group_name_H-M "C C C M"
_symmetry_group_IT_number 66
_symmetry_cell_setting 'orthorhombic'
loop_
_space_group_symop_operation_xyz
x,y,z
-x,-y,z
x,-y,1/2-z
-x,y,1/2-z
-x,-y,-z
x,y,-z
-x,y,1/2+z
x,-y,1/2+z
1/2+x,1/2+y,z
1/2-x,1/2-y,z
1/2+x,1/2-y,1/2-z
1/2-x,1/2+y,1/2-z
1/2-x,1/2-y,-z
1/2+x,1/2+y,-z
1/2-x,1/2+y,1/2+z
1/2+x,1/2-y,1/2+z
loop_
_atom_site_type_symbol
_atom_site_label
_atom_site_fract_x
_atom_site_fract_y
_atom_site_fract_z
Si Si1 0.831584 0.916711 0.758888
Si Si2 0.665928 0.464417 0.500000
Si Si3 0.622681 0.223925 0.351194
Si Si4 0.326516 0.456764 0.500000
Si Si5 0.631123 0.143015 0.346411
O O1 0.787016 0.934621 0.625194
O O2 0.755178 0.881327 0.795549
O O3 0.000000 0.912060 0.750000
O O4 0.793988 0.943682 0.872036
O O5 0.495689 0.462207 0.500000
O O6 0.722117 0.503466 0.500000
O O7 0.500000 0.230717 0.250000
O O8 0.573676 0.228182 0.500000
O O9 0.750000 0.250000 0.330121
O O10 0.666745 0.183766 0.336779
O O11 0.500000 0.137002 0.250000
O O12 0.602313 0.135951 0.500000
#
# Coordination Sequence:
#
# PCOD9495978 Si02
#       5
#    16   8  16   8  16
#     4  10  19  32  53  79 105 135 175 223 263 309
#     4   9  16  32  49  75 106 137 168 221 270 311
#     4   9  19  36  57  80 107 139 175 214 258 308
#     4   9  18  28  51  79 104 131 176 217 270 315
#     4  10  21  37  55  76 107 145 177 210 258 313
#
# _framework density 16.782876000000002
#
# number of rings (size 3 to 8) (size 9 to 14) (size 15 to 20)
#    0.000    2.500    1.250    0.750    1.750    4.500 
#    0.000    0.000    0.000    4.500    0.000    0.000 
#    0.000    0.000    0.000    0.000    0.000    0.000 
#
# Total GULP energy -178269.706417 kJ/mol
# GULP energy per Si atom -5570.928326 kJ/mol
# Density = 1.674468 g / cm^3
# Si number density = 16.782876 Si / 1000 Ang^3
#
#
#
# Elastic Constant Matrix: (Units=GPa)
#
#
# Indices 1 2 3 4 5 6 
#
# 1 53.0047 66.1980 63.6417 0.0000 0.0000 0.0000
# 2 66.1980 106.6268 93.1000 0.0000 0.0000 0.0000
# 3 63.6417 93.1000 177.3153 0.0000 0.0000 0.0000
# 4 0.0000 0.0000 0.0000 37.8978 0.0000 0.0000
# 5 0.0000 0.0000 0.0000 0.0000 14.4964 0.0000
# 6 0.0000 0.0000 0.0000 0.0000 0.0000 20.7977
#
#
#
# Elastic Compliance Matrix: (Units=1/GPa)
#
#
# Indices 1 2 3 4 5 6 
#
# 1 0.086571 -0.049148 -0.005267 0.000000 0.000000 0.000000
# 2 -0.049148 0.045220 -0.006103 0.000000 0.000000 0.000000
# 3 -0.005267 -0.006103 0.010734 0.000000 0.000000 0.000000
# 4 0.000000 0.000000 0.000000 0.026387 0.000000 0.000000
# 5 0.000000 0.000000 0.000000 0.000000 0.068983 0.000000
# 6 0.000000 0.000000 0.000000 0.000000 0.000000 0.048082
#
#
# Mechanical properties :
#
#
# Convention : Reuss Voigt Hill
#
# Bulk Modulus (GPa) = 46.53229 86.98066 66.75648
# Shear Modulus (GPa) = 12.07215 22.23886 17.15551
#
# Velocity S-wave (km/s) = 2.68491 3.64413 3.20066
# Velocity P-wave (km/s) = 6.11538 8.34541 7.31586
#
# Compressibility (1/GPa) = 0.02149046
#
# Stress axis : x y z
#
# Youngs Moduli (GPa) = 11.55116 22.11397 93.16006
#
# Poissons Ratio (x) = 1.08687 0.49063
# Poissons Ratio (y) = 0.56772 0.56854
# Poissons Ratio (z) = 0.06083 0.13496
#
# Static dielectric constant tensor:
#      x y z
#    x 1.542910 0.000000 0.000000 
#    y 0.000000 1.556370 0.000000 
#    z 0.000000 0.000000 1.573520 
# 
# From -- ./inp_files/4009.got.cif
#   From: 2010.05.17/outbox.cif.g08.bks.cpg/sg66_3_cif.got.tgz:4009.got - 2010.06.03 17:51:23.
