data_PCOD9495533
_publ_section_title
;
Structure prediction by ZEFSAII (Michael W. Deem and Ramdas Pophale) SiO2 
 PCOD9495533
Probable space group: C C C M
;
_chemical_formula_sum "Si O2"
_cell_formula_units_Z 72
_cell_length_a 5.457528
_cell_length_b 18.476059
_cell_length_c 29.753542
_cell_angle_alpha 90.000000
_cell_angle_beta 90.000000
_cell_angle_gamma 90.000000
_cell_volume 3000.157030
_symmetry_space_group_name_H-M "C C C M"
_symmetry_group_IT_number 66
_symmetry_cell_setting 'orthorhombic'
loop_
_space_group_symop_operation_xyz
x,y,z
-x,-y,z
x,-y,1/2-z
-x,y,1/2-z
-x,-y,-z
x,y,-z
-x,y,1/2+z
x,-y,1/2+z
1/2+x,1/2+y,z
1/2-x,1/2-y,z
1/2+x,1/2-y,1/2-z
1/2-x,1/2+y,1/2-z
1/2-x,1/2-y,-z
1/2+x,1/2+y,-z
1/2-x,1/2+y,1/2+z
1/2+x,1/2-y,1/2+z
loop_
_atom_site_type_symbol
_atom_site_label
_atom_site_fract_x
_atom_site_fract_y
_atom_site_fract_z
Si Si1 0.881186 0.095190 0.597300
Si Si2 0.248640 0.045862 0.000000
Si Si3 0.117468 0.399145 0.370589
Si Si4 0.750058 0.164622 0.777906
Si Si5 0.499274 0.247935 0.924490
O O1 0.773591 0.088449 0.546923
O O2 0.159401 0.064600 0.601103
O O3 0.659014 0.069022 0.629135
O O4 0.950501 0.180200 0.605434
O O5 0.500000 0.000000 0.000000
O O6 0.000000 0.000000 0.000000
O O7 0.225548 0.384983 0.321654
O O8 0.048068 0.321815 0.393730
O O9 0.500000 0.153569 0.750000
O O10 0.750000 0.250000 0.790930
O O11 0.000000 0.151255 0.750000
O O12 0.250000 0.250000 0.951573
O O13 0.750000 0.250000 0.951286
#
# Coordination Sequence:
#
# PCOD9495533 Si02
#       5
#    16   8  16  16  16
#     4  10  20  35  56  76 102 145 179 220 277 325
#     4  12  26  44  60  80 108 130 174 242 294 336
#     4  10  18  33  53  79 114 150 184 215 256 317
#     4  10  19  28  44  75 117 160 190 213 245 294
#     4   8  15  27  47  73 101 136 174 206 243 301
#
# _framework density 23.998743000000001
#
# number of rings (size 3 to 8) (size 9 to 14) (size 15 to 20)
#    0.000    2.222    0.000    4.667    0.000    6.222 
#    0.000   10.000    0.000    0.000    0.000    0.000 
#    0.000   62.222    0.000    0.000    0.000    0.000 
#
# Total GULP energy -200485.705004 kJ/mol
# GULP energy per Si atom -5569.047361 kJ/mol
# Density = 2.394412 g / cm^3
# Si number density = 23.998743 Si / 1000 Ang^3
#
#
#
# Elastic Constant Matrix: (Units=GPa)
#
#
# Indices 1 2 3 4 5 6 
#
# 1 307.1240 32.6326 48.7113 0.0000 0.0000 0.0000
# 2 32.6326 57.2865 12.5712 0.0000 0.0000 0.0000
# 3 48.7113 12.5712 96.3921 0.0000 0.0000 0.0000
# 4 0.0000 0.0000 0.0000 19.5630 0.0000 0.0000
# 5 0.0000 0.0000 0.0000 0.0000 24.2494 0.0000
# 6 0.0000 0.0000 0.0000 0.0000 0.0000 35.1856
#
#
#
# Elastic Compliance Matrix: (Units=1/GPa)
#
#
# Indices 1 2 3 4 5 6 
#
# 1 0.003702 -0.001748 -0.001643 0.000000 0.000000 0.000000
# 2 -0.001748 0.018796 -0.001568 0.000000 0.000000 0.000000
# 3 -0.001643 -0.001568 0.011409 0.000000 0.000000 0.000000
# 4 0.000000 0.000000 0.000000 0.051117 0.000000 0.000000
# 5 0.000000 0.000000 0.000000 0.000000 0.041238 0.000000
# 6 0.000000 0.000000 0.000000 0.000000 0.000000 0.028421
#
#
# Mechanical properties :
#
#
# Convention : Reuss Voigt Hill
#
# Bulk Modulus (GPa) = 41.68548 72.07031 56.87789
# Shear Modulus (GPa) = 28.96905 40.25877 34.61391
#
# Velocity S-wave (km/s) = 3.47811 4.10022 3.80191
# Velocity P-wave (km/s) = 5.79114 7.24650 6.55931
#
# Compressibility (1/GPa) = 0.02398917
#
# Stress axis : x y z
#
# Youngs Moduli (GPa) = 270.09709 53.20241 87.64999
#
# Poissons Ratio (x) = 0.09302 0.14400
# Poissons Ratio (y) = 0.47226 0.13741
# Poissons Ratio (z) = 0.44375 0.08341
#
# Static dielectric constant tensor:
#      x y z
#    x 2.090410 0.000000 0.000000 
#    y 0.000000 2.224060 0.000000 
#    z 0.000000 0.000000 1.855800 
# 
# From -- ./inp_files/67160.got.cif
#   From: 2010.05.17/outbox.cif.g08.bks.cpg/sg66_34_cif.got.tgz:67160.got - 2010.06.03 17:51:23.
