data_PCOD9495517
_publ_section_title
;
Structure prediction by ZEFSAII (Michael W. Deem and Ramdas Pophale) SiO2 
 PCOD9495517
Probable space group: C C C M
;
_chemical_formula_sum "Si O2"
_cell_formula_units_Z 96
_cell_length_a 11.141330
_cell_length_b 14.532352
_cell_length_c 30.245053
_cell_angle_alpha 90.000000
_cell_angle_beta 90.000000
_cell_angle_gamma 90.000000
_cell_volume 4896.968344
_symmetry_space_group_name_H-M "C C C M"
_symmetry_group_IT_number 66
_symmetry_cell_setting 'orthorhombic'
loop_
_space_group_symop_operation_xyz
x,y,z
-x,-y,z
x,-y,1/2-z
-x,y,1/2-z
-x,-y,-z
x,y,-z
-x,y,1/2+z
x,-y,1/2+z
1/2+x,1/2+y,z
1/2-x,1/2-y,z
1/2+x,1/2-y,1/2-z
1/2-x,1/2+y,1/2-z
1/2-x,1/2-y,-z
1/2+x,1/2+y,-z
1/2-x,1/2+y,1/2+z
1/2+x,1/2-y,1/2+z
loop_
_atom_site_type_symbol
_atom_site_label
_atom_site_fract_x
_atom_site_fract_y
_atom_site_fract_z
Si Si1 0.247098 0.477694 0.345942
Si Si2 0.433405 0.859316 0.097525
Si Si3 0.447149 0.896124 0.000000
Si Si4 0.000000 0.845573 0.750000
Si Si5 0.785707 0.354194 0.500000
Si Si6 0.377364 0.294866 0.664691
Si Si7 0.203730 0.000000 0.250000
Si Si8 0.779599 0.641360 0.095942
O O1 0.137712 0.432129 0.372558
O O2 0.352590 0.401430 0.346706
O O3 0.220548 0.489763 0.294303
O O4 0.277918 0.575024 0.367842
O O5 0.410733 0.761462 0.120864
O O6 0.576480 0.871652 0.098312
O O7 0.388136 0.872780 0.046993
O O8 0.500000 0.000000 0.000000
O O9 0.571483 0.842625 0.000000
O O10 0.970633 0.789692 0.705240
O O11 0.115025 0.912472 0.744115
O O12 0.750000 0.250000 0.500000
O O13 0.745003 0.394412 0.453306
O O14 0.250000 0.250000 0.679713
O O15 0.750000 0.750000 0.100448
#
# Coordination Sequence:
#
# PCOD9495517 Si02
#       8
#    16  16   8   8   8  16   8  16
#     4  10  20  38  55  79 117 144 187 242 285 337
#     4  10  20  37  56  86 113 152 190 239 291 338
#     4  10  18  32  60  79 113 158 192 227 289 362
#     4   9  18  38  60  78 109 158 192 225 294 344
#     4   8  16  32  51  75 111 139 180 238 278 327
#     4   9  20  38  58  82 119 147 186 239 283 341
#     4   9  20  36  59  80 108 153 200 230 281 354
#     4  10  20  34  56  85 109 147 195 236 285 346
#
# _framework density 19.603966
#
# number of rings (size 3 to 8) (size 9 to 14) (size 15 to 20)
#    0.000    2.500    0.000    2.500    2.333    0.000 
#    9.000    5.417    0.000    0.000    0.000    7.000 
#    0.000    0.000    0.000    0.000    0.000    0.000 
#
# Total GULP energy -267386.569433 kJ/mol
# GULP energy per Si atom -5570.553530 kJ/mol
# Density = 1.955935 g / cm^3
# Si number density = 19.603966 Si / 1000 Ang^3
#
#
#
# Elastic Constant Matrix: (Units=GPa)
#
#
# Indices 1 2 3 4 5 6 
#
# 1 33.2717 8.6210 32.9442 0.0000 0.0000 0.0000
# 2 8.6210 88.8469 73.1044 0.0000 0.0000 0.0000
# 3 32.9442 73.1044 213.0805 0.0000 0.0000 0.0000
# 4 0.0000 0.0000 0.0000 28.4025 0.0000 0.0000
# 5 0.0000 0.0000 0.0000 0.0000 21.6895 0.0000
# 6 0.0000 0.0000 0.0000 0.0000 0.0000 15.4757
#
#
#
# Elastic Compliance Matrix: (Units=1/GPa)
#
#
# Indices 1 2 3 4 5 6 
#
# 1 0.035631 0.001498 -0.006023 0.000000 0.000000 0.000000
# 2 0.001498 0.015745 -0.005634 0.000000 0.000000 0.000000
# 3 -0.006023 -0.005634 0.007557 0.000000 0.000000 0.000000
# 4 0.000000 0.000000 0.000000 0.035208 0.000000 0.000000
# 5 0.000000 0.000000 0.000000 0.000000 0.046105 0.000000
# 6 0.000000 0.000000 0.000000 0.000000 0.000000 0.064617
#
#
# Mechanical properties :
#
#
# Convention : Reuss Voigt Hill
#
# Bulk Modulus (GPa) = 25.89529 62.72649 44.31089
# Shear Modulus (GPa) = 21.00374 27.81551 24.40963
#
# Velocity S-wave (km/s) = 3.27678 3.77088 3.53248
# Velocity P-wave (km/s) = 5.24922 7.14322 6.26817
#
# Compressibility (1/GPa) = 0.03861706
#
# Stress axis : x y z
#
# Youngs Moduli (GPa) = 28.06547 63.51077 132.32625
#
# Poissons Ratio (x) = -0.09517 0.79700
# Poissons Ratio (y) = -0.04205 0.74548
# Poissons Ratio (z) = 0.16904 0.35780
#
# Static dielectric constant tensor:
#      x y z
#    x 1.680020 0.000000 0.000000 
#    y 0.000000 1.725320 0.000000 
#    z 0.000000 0.000000 1.762260 
# 
# From -- ./inp_files/69047.got.cif
#   From: 2010.05.17/outbox.cif.g08.bks.cpg/sg66_35_cif.got.tgz:69047.got - 2010.06.03 17:51:23.
