data_PCOD9495916
_publ_section_title
;
Structure prediction by ZEFSAII (Michael W. Deem and Ramdas Pophale) SiO2 
 PCOD9495916
Probable space group: C C C M
;
_chemical_formula_sum "Si O2"
_cell_formula_units_Z 72
_cell_length_a 29.652155
_cell_length_b 13.869566
_cell_length_c 9.470139
_cell_angle_alpha 90.000000
_cell_angle_beta 90.000000
_cell_angle_gamma 90.000000
_cell_volume 3894.713238
_symmetry_space_group_name_H-M "C C C M"
_symmetry_group_IT_number 66
_symmetry_cell_setting 'orthorhombic'
loop_
_space_group_symop_operation_xyz
x,y,z
-x,-y,z
x,-y,1/2-z
-x,y,1/2-z
-x,-y,-z
x,y,-z
-x,y,1/2+z
x,-y,1/2+z
1/2+x,1/2+y,z
1/2-x,1/2-y,z
1/2+x,1/2-y,1/2-z
1/2-x,1/2+y,1/2-z
1/2-x,1/2-y,-z
1/2+x,1/2+y,-z
1/2-x,1/2+y,1/2+z
1/2+x,1/2-y,1/2+z
loop_
_atom_site_type_symbol
_atom_site_label
_atom_site_fract_x
_atom_site_fract_y
_atom_site_fract_z
Si Si1 0.257529 0.054510 0.500000
Si Si2 0.000000 0.782573 0.750000
Si Si3 0.060994 0.733294 0.000000
Si Si4 0.780256 0.154377 0.500000
Si Si5 0.660795 0.182325 0.000000
Si Si6 0.611575 0.437013 0.000000
Si Si7 0.463648 0.413098 0.000000
Si Si8 0.684216 0.644176 0.302598
O O1 0.308747 0.088473 0.500000
O O2 0.230339 0.101292 0.368237
O O3 0.250538 0.940995 0.500000
O O4 0.968157 0.723122 0.642777
O O5 0.971859 0.849902 0.859096
O O6 0.077393 0.845833 0.000000
O O7 0.107029 0.672818 0.000000
O O8 0.750000 0.250000 0.500000
O O9 0.810980 0.149405 0.362287
O O10 0.675114 0.250487 0.131465
O O11 0.584343 0.534822 0.000000
O O12 0.644340 0.420618 0.866899
O O13 0.500000 0.500000 0.000000
#
# Coordination Sequence:
#
# PCOD9495916 Si02
#       8
#     8   8   8   8   8   8   8  16
#     4  10  19  37  57  73 103 153 188 222 278 349
#     4  10  19  32  48  74 106 148 189 238 291 330
#     4   9  19  33  49  74 101 143 193 226 286 328
#     4  12  22  35  55  83 110 141 185 240 294 318
#     4   9  18  39  58  71 105 154 200 222 260 344
#     4   9  19  36  47  69 107 153 202 213 259 337
#     4  11  19  31  50  67 107 149 197 228 277 330
#     4   9  20  37  52  78 109 149 192 227 273 317
#
# _framework density 18.486598000000001
#
# number of rings (size 3 to 8) (size 9 to 14) (size 15 to 20)
#    0.000    2.667    2.222    3.667    0.000    0.000 
#   32.000    5.556    0.000    0.000    0.000    0.000 
#    0.000    0.000    0.000  122.000    0.000    0.000 
#
# Total GULP energy -200985.709944 kJ/mol
# GULP energy per Si atom -5582.936387 kJ/mol
# Density = 1.844452 g / cm^3
# Si number density = 18.486598 Si / 1000 Ang^3
#
#
#
# Elastic Constant Matrix: (Units=GPa)
#
#
# Indices 1 2 3 4 5 6 
#
# 1 123.6467 38.4112 57.5023 0.0000 0.0000 0.0000
# 2 38.4112 36.7830 30.4501 0.0000 0.0000 0.0000
# 3 57.5023 30.4501 181.0133 0.0000 0.0000 0.0000
# 4 0.0000 0.0000 0.0000 -2.0314 0.0000 0.0000
# 5 0.0000 0.0000 0.0000 0.0000 -27.4835 0.0000
# 6 0.0000 0.0000 0.0000 0.0000 0.0000 32.3196
#
#
#
# Elastic Compliance Matrix: (Units=1/GPa)
#
#
# Indices 1 2 3 4 5 6 
#
# 1 0.012611 -0.011447 -0.002081 0.000000 0.000000 0.000000
# 2 -0.011447 0.041975 -0.003425 0.000000 0.000000 0.000000
# 3 -0.002081 -0.003425 0.006761 0.000000 0.000000 0.000000
# 4 0.000000 0.000000 0.000000 -0.492266 0.000000 0.000000
# 5 0.000000 0.000000 0.000000 0.000000 -0.036385 0.000000
# 6 0.000000 0.000000 0.000000 0.000000 0.000000 0.030941
#
#
# Mechanical properties :
#
#
# Convention : Reuss Voigt Hill
#
# Bulk Modulus (GPa) = 36.43874 66.01890 51.22882
# Shear Modulus (GPa) = -12.71262 14.89955 1.09347
#
# Velocity S-wave (km/s) = -2.62519 2.84203 0.76992
# Velocity P-wave (km/s) = 3.25037 6.82340 5.34433
#
# Compressibility (1/GPa) = 0.02744332
#
# Stress axis : x y z
#
# Youngs Moduli (GPa) = 79.29463 23.82352 147.89636
#
# Poissons Ratio (x) = 0.27271 0.30771
# Poissons Ratio (y) = 0.90769 0.50650
# Poissons Ratio (z) = 0.16498 0.08159
#
# Static dielectric constant tensor:
#      x y z
#    x 1.671080 0.000000 0.000000 
#    y 0.000000 1.627630 0.000000 
#    z 0.000000 0.000000 1.643150 
# 
# From -- ./inp_files/11317.got.cif
#   From: 2010.05.17/outbox.cif.g08.bks.cpg/sg66_6_cif.got.tgz:11317.got - 2010.06.03 17:51:23.
