data_PCOD9495335
_publ_section_title
;
Structure prediction by ZEFSAII (Michael W. Deem and Ramdas Pophale) SiO2 
 PCOD9495335
Probable space group: C C C M
;
_chemical_formula_sum "Si O2"
_cell_formula_units_Z 80
_cell_length_a 24.989143
_cell_length_b 24.070622
_cell_length_c 8.728018
_cell_angle_alpha 90.000000
_cell_angle_beta 90.000000
_cell_angle_gamma 90.000000
_cell_volume 5249.939618
_symmetry_space_group_name_H-M "C C C M"
_symmetry_group_IT_number 66
_symmetry_cell_setting 'orthorhombic'
loop_
_space_group_symop_operation_xyz
x,y,z
-x,-y,z
x,-y,1/2-z
-x,y,1/2-z
-x,-y,-z
x,y,-z
-x,y,1/2+z
x,-y,1/2+z
1/2+x,1/2+y,z
1/2-x,1/2-y,z
1/2+x,1/2-y,1/2-z
1/2-x,1/2+y,1/2-z
1/2-x,1/2-y,-z
1/2+x,1/2+y,-z
1/2-x,1/2+y,1/2+z
1/2+x,1/2-y,1/2+z
loop_
_atom_site_type_symbol
_atom_site_label
_atom_site_fract_x
_atom_site_fract_y
_atom_site_fract_z
Si Si1 0.557201 0.608283 0.316152
Si Si2 0.828920 0.274713 0.184057
Si Si3 0.768214 0.167751 0.316545
Si Si4 0.556480 0.738530 0.683886
Si Si5 0.165262 0.940965 0.683203
O O1 0.500000 0.589612 0.250000
O O2 0.556762 0.604643 0.500000
O O3 0.563679 0.673529 0.271463
O O4 0.607192 0.575049 0.249836
O O5 0.803090 0.216306 0.237873
O O6 0.792007 0.321816 0.258824
O O7 0.890980 0.272465 0.231290
O O8 0.825560 0.278036 0.000000
O O9 0.770539 0.175027 0.500000
O O10 0.793876 0.108646 0.276580
O O11 0.500000 0.757904 0.750000
O O12 0.553759 0.739613 0.500000
O O13 0.161612 0.943938 0.500000
O O14 0.182160 0.000000 0.750000
#
# Coordination Sequence:
#
# PCOD9495335 Si02
#       5
#    16  16  16  16  16
#     4  10  19  33  49  66  91 121 159 200 238 276
#     4  10  18  30  49  71  94 122 153 187 229 279
#     4  10  20  32  47  69  92 119 154 192 235 278
#     4   9  18  29  45  69  95 124 154 187 228 272
#     4  11  23  36  50  67  90 121 160 201 241 279
#
# _framework density 15.23827
#
# number of rings (size 3 to 8) (size 9 to 14) (size 15 to 20)
#    0.000    2.000    2.000    3.600    0.000    5.200 
#    0.000    2.000    0.000    0.000    0.000    0.000 
#    0.000    0.800    0.000    8.800    0.000    6.400 
#
# Total GULP energy -223190.836060 kJ/mol
# GULP energy per Si atom -5579.770901 kJ/mol
# Density = 1.520359 g / cm^3
# Si number density = 15.238270 Si / 1000 Ang^3
#
#
#
# Elastic Constant Matrix: (Units=GPa)
#
#
# Indices 1 2 3 4 5 6 
#
# 1 108.5539 53.6988 25.5040 0.0000 0.0000 0.0000
# 2 53.6988 79.3650 30.5926 0.0000 0.0000 0.0000
# 3 25.5040 30.5926 38.8696 0.0000 0.0000 0.0000
# 4 0.0000 0.0000 0.0000 19.9406 0.0000 0.0000
# 5 0.0000 0.0000 0.0000 0.0000 25.0520 0.0000
# 6 0.0000 0.0000 0.0000 0.0000 0.0000 18.5728
#
#
#
# Elastic Compliance Matrix: (Units=1/GPa)
#
#
# Indices 1 2 3 4 5 6 
#
# 1 0.014012 -0.008522 -0.002486 0.000000 0.000000 0.000000
# 2 -0.008522 0.023271 -0.012724 0.000000 0.000000 0.000000
# 3 -0.002486 -0.012724 0.037373 0.000000 0.000000 0.000000
# 4 0.000000 0.000000 0.000000 0.050149 0.000000 0.000000
# 5 0.000000 0.000000 0.000000 0.000000 0.039917 0.000000
# 6 0.000000 0.000000 0.000000 0.000000 0.000000 0.053842
#
#
# Mechanical properties :
#
#
# Convention : Reuss Voigt Hill
#
# Bulk Modulus (GPa) = 36.77689 49.59771 43.18730
# Shear Modulus (GPa) = 18.17578 20.51261 19.34420
#
# Velocity S-wave (km/s) = 3.45740 3.67294 3.56680
# Velocity P-wave (km/s) = 6.33444 7.11379 6.73540
#
# Compressibility (1/GPa) = 0.02719099
#
# Stress axis : x y z
#
# Youngs Moduli (GPa) = 71.36838 42.97258 26.75743
#
# Poissons Ratio (x) = 0.36621 0.06653
# Poissons Ratio (y) = 0.60820 0.34045
# Poissons Ratio (z) = 0.17745 0.54677
#
# Static dielectric constant tensor:
#      x y z
#    x 1.517820 0.000000 0.000000 
#    y 0.000000 1.490510 0.000000 
#    z 0.000000 0.000000 1.509910 
# 
# From -- ./inp_files/11464.got.cif
#   From: 2010.05.17/outbox.cif.g08.bks.cpg/sg66_6_cif.got.tgz:11464.got - 2010.06.03 17:51:23.
