data_PCOD9495086
_publ_section_title
;
Structure prediction by ZEFSAII (Michael W. Deem and Ramdas Pophale) SiO2 
 PCOD9495086
Probable space group: C C C M
;
_chemical_formula_sum "Si O2"
_cell_formula_units_Z 88
_cell_length_a 22.067166
_cell_length_b 21.495216
_cell_length_c 13.634229
_cell_angle_alpha 90.000000
_cell_angle_beta 90.000000
_cell_angle_gamma 90.000000
_cell_volume 6467.239728
_symmetry_space_group_name_H-M "C C C M"
_symmetry_group_IT_number 66
_symmetry_cell_setting 'orthorhombic'
loop_
_space_group_symop_operation_xyz
x,y,z
-x,-y,z
x,-y,1/2-z
-x,y,1/2-z
-x,-y,-z
x,y,-z
-x,y,1/2+z
x,-y,1/2+z
1/2+x,1/2+y,z
1/2-x,1/2-y,z
1/2+x,1/2-y,1/2-z
1/2-x,1/2+y,1/2-z
1/2-x,1/2-y,-z
1/2+x,1/2+y,-z
1/2-x,1/2+y,1/2+z
1/2+x,1/2-y,1/2+z
loop_
_atom_site_type_symbol
_atom_site_label
_atom_site_fract_x
_atom_site_fract_y
_atom_site_fract_z
Si Si1 0.449362 0.448778 0.613519
Si Si2 0.890843 0.804825 0.118679
Si Si3 0.784856 0.897189 0.802986
Si Si4 0.302237 0.802765 0.611119
Si Si5 0.810411 0.029288 0.887864
Si Si6 0.500000 0.654194 0.750000
O O1 0.500000 0.500000 0.635516
O O2 0.457230 0.430103 0.500000
O O3 0.383010 0.477488 0.624344
O O4 0.458740 0.390548 0.683040
O O5 0.842302 0.856333 0.158411
O O6 0.861423 0.736889 0.137707
O O7 0.953810 0.811330 0.176758
O O8 0.896484 0.812809 0.000000
O O9 0.724854 0.856587 0.821666
O O10 0.791545 0.918796 0.690686
O O11 0.783184 0.962083 0.862147
O O12 0.308641 0.826930 0.500000
O O13 0.250000 0.750000 0.608541
O O14 0.797821 0.046483 0.000000
#
# Coordination Sequence:
#
# PCOD9495086 Si02
#       6
#    16  16  16  16  16   8
#     4  10  20  29  37  53  84 120 149 173 200 246
#     4  10  19  30  45  63  82 111 151 189 218 250
#     4  10  17  29  45  62  84 116 146 183 221 251
#     4   8  15  28  46  63  78 102 145 192 224 249
#     4  10  19  28  40  62  89 115 144 174 213 263
#     4  12  19  28  42  60  84 115 144 178 216 250
#
# _framework density 13.607042
#
# number of rings (size 3 to 8) (size 9 to 14) (size 15 to 20)
#    0.000    2.182    1.818    4.636    2.545    1.455 
#    0.000    0.000    0.000    7.091    0.000    0.000 
#    0.000    2.909    0.000   18.000    0.000    0.000 
#
# Total GULP energy -245101.766586 kJ/mol
# GULP energy per Si atom -5570.494695 kJ/mol
# Density = 1.357607 g / cm^3
# Si number density = 13.607042 Si / 1000 Ang^3
#
#
#
# Elastic Constant Matrix: (Units=GPa)
#
#
# Indices 1 2 3 4 5 6 
#
# 1 45.8145 38.9392 36.1517 0.0000 0.0000 0.0000
# 2 38.9392 68.2450 51.5724 0.0000 0.0000 0.0000
# 3 36.1517 51.5724 108.3868 0.0000 0.0000 0.0000
# 4 0.0000 0.0000 0.0000 11.4804 0.0000 0.0000
# 5 0.0000 0.0000 0.0000 0.0000 13.3999 0.0000
# 6 0.0000 0.0000 0.0000 0.0000 0.0000 24.7641
#
#
#
# Elastic Compliance Matrix: (Units=1/GPa)
#
#
# Indices 1 2 3 4 5 6 
#
# 1 0.043583 -0.021676 -0.004223 0.000000 0.000000 0.000000
# 2 -0.021676 0.033661 -0.008787 0.000000 0.000000 0.000000
# 3 -0.004223 -0.008787 0.014816 0.000000 0.000000 0.000000
# 4 0.000000 0.000000 0.000000 0.087105 0.000000 0.000000
# 5 0.000000 0.000000 0.000000 0.000000 0.074628 0.000000
# 6 0.000000 0.000000 0.000000 0.000000 0.000000 0.040381
#
#
# Mechanical properties :
#
#
# Convention : Reuss Voigt Hill
#
# Bulk Modulus (GPa) = 44.07605 52.86367 48.46986
# Shear Modulus (GPa) = 13.47319 16.31439 14.89379
#
# Velocity S-wave (km/s) = 3.15010 3.46637 3.31201
# Velocity P-wave (km/s) = 6.75968 7.41320 7.09397
#
# Compressibility (1/GPa) = 0.02268806
#
# Stress axis : x y z
#
# Youngs Moduli (GPa) = 22.94487 29.70778 67.49687
#
# Poissons Ratio (x) = 0.64396 0.28502
# Poissons Ratio (y) = 0.49736 0.59307
# Poissons Ratio (z) = 0.09689 0.26103
#
# Static dielectric constant tensor:
#      x y z
#    x 1.446650 0.000000 0.000000 
#    y 0.000000 1.435590 0.000000 
#    z 0.000000 0.000000 1.471360 
# 
# From -- ./inp_files/32326.got.cif
#   From: 2010.05.17/outbox.cif.g08.bks.cpg/sg66_17_cif.got.tgz:32326.got - 2010.06.03 17:51:23.
