data_PCOD9495729
_publ_section_title
;
Structure prediction by ZEFSAII (Michael W. Deem and Ramdas Pophale) SiO2 
 PCOD9495729
Probable space group: C C C M
;
_chemical_formula_sum "Si O2"
_cell_formula_units_Z 96
_cell_length_a 31.559224
_cell_length_b 28.496111
_cell_length_c 8.845619
_cell_angle_alpha 90.000000
_cell_angle_beta 90.000000
_cell_angle_gamma 90.000000
_cell_volume 7954.999179
_symmetry_space_group_name_H-M "C C C M"
_symmetry_group_IT_number 66
_symmetry_cell_setting 'orthorhombic'
loop_
_space_group_symop_operation_xyz
x,y,z
-x,-y,z
x,-y,1/2-z
-x,y,1/2-z
-x,-y,-z
x,y,-z
-x,y,1/2+z
x,-y,1/2+z
1/2+x,1/2+y,z
1/2-x,1/2-y,z
1/2+x,1/2-y,1/2-z
1/2-x,1/2+y,1/2-z
1/2-x,1/2-y,-z
1/2+x,1/2+y,-z
1/2-x,1/2+y,1/2+z
1/2+x,1/2-y,1/2+z
loop_
_atom_site_type_symbol
_atom_site_label
_atom_site_fract_x
_atom_site_fract_y
_atom_site_fract_z
Si Si1 0.376016 0.395243 0.180144
Si Si2 0.046184 0.948745 0.817949
Si Si3 0.794669 0.051434 0.816833
Si Si4 0.335903 0.308836 0.327363
Si Si5 0.255933 0.139487 0.326512
Si Si6 0.796014 0.724103 0.173287
O O1 0.418699 0.412719 0.259579
O O2 0.337624 0.426629 0.247664
O O3 0.364920 0.341649 0.223603
O O4 0.378173 0.401162 0.000000
O O5 0.000000 0.937314 0.750000
O O6 0.057452 0.000000 0.750000
O O7 0.044741 0.950973 0.000000
O O8 0.756512 0.087222 0.775727
O O9 0.788375 0.000000 0.750000
O O10 0.798150 0.050894 0.000000
O O11 0.350955 0.309836 0.500000
O O12 0.289592 0.333827 0.324970
O O13 0.327500 0.256328 0.270046
O O14 0.270369 0.138168 0.500000
O O15 0.287540 0.171701 0.231868
O O16 0.750000 0.750000 0.180776
O O17 0.809485 0.724201 0.000000
#
# Coordination Sequence:
#
# PCOD9495729 Si02
#       6
#    16  16  16  16  16  16
#     4  11  20  30  42  56  72  89 110 138 172 209
#     4  11  21  34  47  59  72  88 111 138 171 209
#     4  10  19  29  39  52  69  90 115 143 175 208
#     4   9  16  26  38  52  69  88 108 132 164 201
#     4   8  15  25  35  47  65  88 111 135 165 200
#     4   9  15  22  34  51  68  86 108 133 161 196
#
# _framework density 12.067883
#
# number of rings (size 3 to 8) (size 9 to 14) (size 15 to 20)
#    0.000    2.333    0.000    6.500    0.000    6.667 
#    0.000    0.000    0.000    0.000    0.000    0.000 
#    0.000    0.000    0.000    0.000    0.000    0.000 
#
# Total GULP energy -267422.183277 kJ/mol
# GULP energy per Si atom -5571.295485 kJ/mol
# Density = 1.204042 g / cm^3
# Si number density = 12.067883 Si / 1000 Ang^3
#
#
#
# Elastic Constant Matrix: (Units=GPa)
#
#
# Indices 1 2 3 4 5 6 
#
# 1 26.7147 30.5104 21.7036 0.0000 0.0000 0.0000
# 2 30.5104 67.7474 36.0662 0.0000 0.0000 0.0000
# 3 21.7036 36.0662 88.8809 0.0000 0.0000 0.0000
# 4 0.0000 0.0000 0.0000 19.7136 0.0000 0.0000
# 5 0.0000 0.0000 0.0000 0.0000 13.6517 0.0000
# 6 0.0000 0.0000 0.0000 0.0000 0.0000 14.3903
#
#
#
# Elastic Compliance Matrix: (Units=1/GPa)
#
#
# Indices 1 2 3 4 5 6 
#
# 1 0.079706 -0.032570 -0.006247 0.000000 0.000000 0.000000
# 2 -0.032570 0.032137 -0.005087 0.000000 0.000000 0.000000
# 3 -0.006247 -0.005087 0.014841 0.000000 0.000000 0.000000
# 4 0.000000 0.000000 0.000000 0.050726 0.000000 0.000000
# 5 0.000000 0.000000 0.000000 0.000000 0.073251 0.000000
# 6 0.000000 0.000000 0.000000 0.000000 0.000000 0.069491
#
#
# Mechanical properties :
#
#
# Convention : Reuss Voigt Hill
#
# Bulk Modulus (GPa) = 25.72364 39.98927 32.85645
# Shear Modulus (GPa) = 11.87876 15.88865 13.88370
#
# Velocity S-wave (km/s) = 3.14080 3.63244 3.39553
# Velocity P-wave (km/s) = 5.87494 7.12753 6.53133
#
# Compressibility (1/GPa) = 0.03887475
#
# Stress axis : x y z
#
# Youngs Moduli (GPa) = 12.54617 31.11648 67.38204
#
# Poissons Ratio (x) = 1.01348 0.42091
# Poissons Ratio (y) = 0.40863 0.34280
# Poissons Ratio (z) = 0.07837 0.15830
#
# Static dielectric constant tensor:
#      x y z
#    x 1.364480 0.000000 0.000000 
#    y 0.000000 1.403530 0.000000 
#    z 0.000000 0.000000 1.405280 
# 
# From -- ./inp_files/10642.got.cif
#   From: 2010.05.17/outbox.cif.g08.bks.cpg/sg66_6_cif.got.tgz:10642.got - 2010.06.03 17:51:23.
