data_PCOD9495680
_publ_section_title
;
Structure prediction by ZEFSAII (Michael W. Deem and Ramdas Pophale) SiO2 
 PCOD9495680
Probable space group: C C C M
;
_chemical_formula_sum "Si O2"
_cell_formula_units_Z 44
_cell_length_a 17.295171
_cell_length_b 14.420944
_cell_length_c 9.761377
_cell_angle_alpha 90.000000
_cell_angle_beta 90.000000
_cell_angle_gamma 90.000000
_cell_volume 2434.611320
_symmetry_space_group_name_H-M "C C C M"
_symmetry_group_IT_number 66
_symmetry_cell_setting 'orthorhombic'
loop_
_space_group_symop_operation_xyz
x,y,z
-x,-y,z
x,-y,1/2-z
-x,y,1/2-z
-x,-y,-z
x,y,-z
-x,y,1/2+z
x,-y,1/2+z
1/2+x,1/2+y,z
1/2-x,1/2-y,z
1/2+x,1/2-y,1/2-z
1/2-x,1/2+y,1/2-z
1/2-x,1/2-y,-z
1/2+x,1/2+y,-z
1/2-x,1/2+y,1/2+z
1/2+x,1/2-y,1/2+z
loop_
_atom_site_type_symbol
_atom_site_label
_atom_site_fract_x
_atom_site_fract_y
_atom_site_fract_z
Si Si1 0.298109 0.154585 0.500000
Si Si2 0.245365 0.954238 0.500000
Si Si3 0.659872 0.283846 0.500000
Si Si4 0.000000 0.500000 0.750000
Si Si5 0.132325 0.633047 0.703451
O O1 0.250000 0.250000 0.500000
O O2 0.349659 0.145463 0.636875
O O3 0.242242 0.064489 0.500000
O O4 0.167173 0.894011 0.500000
O O5 0.296060 0.919677 0.630351
O O6 0.750000 0.250000 0.500000
O O7 0.624672 0.232823 0.631402
O O8 0.941584 0.430813 0.674007
#
# Coordination Sequence:
#
# PCOD9495680 Si02
#       5
#     8   8   8   4  16
#     4  12  20  31  50  80 104 129 176 226 259 298
#     4  10  18  37  50  70 102 141 170 212 259 312
#     4   8  18  35  50  65 100 143 172 199 254 318
#     4  12  20  34  52  78 118 134 168 212 276 318
#     4  10  21  31  49  75 105 136 167 205 264 319
#
# _framework density 18.072700000000001
#
# number of rings (size 3 to 8) (size 9 to 14) (size 15 to 20)
#    0.000    2.182    3.636    3.273    0.000    6.545 
#    0.000    0.000    0.000    0.000    0.000    7.636 
#    0.000    0.000    0.000    0.000    0.000    0.000 
#
# Total GULP energy -122519.082653 kJ/mol
# GULP energy per Si atom -5569.049212 kJ/mol
# Density = 1.803157 g / cm^3
# Si number density = 18.072700 Si / 1000 Ang^3
#
#
#
# Elastic Constant Matrix: (Units=GPa)
#
#
# Indices 1 2 3 4 5 6 
#
# 1 50.2559 44.2984 21.8843 0.0000 0.0000 0.0000
# 2 44.2984 167.7142 38.4971 0.0000 0.0000 0.0000
# 3 21.8843 38.4971 147.0309 0.0000 0.0000 0.0000
# 4 0.0000 0.0000 0.0000 2.6344 0.0000 0.0000
# 5 0.0000 0.0000 0.0000 0.0000 1025.4624 0.0000
# 6 0.0000 0.0000 0.0000 0.0000 0.0000 42.9465
#
#
#
# Elastic Compliance Matrix: (Units=1/GPa)
#
#
# Indices 1 2 3 4 5 6 
#
# 1 0.026623 -0.006514 -0.002257 0.000000 0.000000 0.000000
# 2 -0.006514 0.007938 -0.001109 0.000000 0.000000 0.000000
# 3 -0.002257 -0.001109 0.007428 0.000000 0.000000 0.000000
# 4 0.000000 0.000000 0.000000 0.379594 0.000000 0.000000
# 5 0.000000 0.000000 0.000000 0.000000 0.000975 0.000000
# 6 0.000000 0.000000 0.000000 0.000000 0.000000 0.023285
#
#
# Mechanical properties :
#
#
# Convention : Reuss Voigt Hill
#
# Bulk Modulus (GPa) = 44.98725 63.81785 54.40255
# Shear Modulus (GPa) = 10.57060 231.56339 121.06699
#
# Velocity S-wave (km/s) = 2.42108 11.33168 8.19355
# Velocity P-wave (km/s) = 5.72380 14.37351 10.93983
#
# Compressibility (1/GPa) = 0.02222852
#
# Stress axis : x y z
#
# Youngs Moduli (GPa) = 37.56208 125.98406 134.63407
#
# Poissons Ratio (x) = 0.82063 0.30387
# Poissons Ratio (y) = 0.24467 0.14928
# Poissons Ratio (z) = 0.08478 0.13969
#
# Static dielectric constant tensor:
#      x y z
#    x 1.618880 0.000000 0.000000 
#    y 0.000000 1.691710 0.000000 
#    z 0.000000 0.000000 1.666480 
# 
# From -- ./inp_files/4541.got.cif
#   From: 2010.05.17/outbox.cif.g08.bks.cpg/sg66_3_cif.got.tgz:4541.got - 2010.06.03 17:51:23.
