data_PCOD9495701
_publ_section_title
;
Structure prediction by ZEFSAII (Michael W. Deem and Ramdas Pophale) SiO2 
 PCOD9495701
Probable space group: C C C M
;
_chemical_formula_sum "Si O2"
_cell_formula_units_Z 80
_cell_length_a 15.972518
_cell_length_b 10.934411
_cell_length_c 21.698776
_cell_angle_alpha 90.000000
_cell_angle_beta 90.000000
_cell_angle_gamma 90.000000
_cell_volume 3789.692889
_symmetry_space_group_name_H-M "C C C M"
_symmetry_group_IT_number 66
_symmetry_cell_setting 'orthorhombic'
loop_
_space_group_symop_operation_xyz
x,y,z
-x,-y,z
x,-y,1/2-z
-x,y,1/2-z
-x,-y,-z
x,y,-z
-x,y,1/2+z
x,-y,1/2+z
1/2+x,1/2+y,z
1/2-x,1/2-y,z
1/2+x,1/2-y,1/2-z
1/2-x,1/2+y,1/2-z
1/2-x,1/2-y,-z
1/2+x,1/2+y,-z
1/2-x,1/2+y,1/2+z
1/2+x,1/2-y,1/2+z
loop_
_atom_site_type_symbol
_atom_site_label
_atom_site_fract_x
_atom_site_fract_y
_atom_site_fract_z
Si Si1 0.364123 0.413382 0.310402
Si Si2 0.691413 0.997468 0.322967
Si Si3 0.750000 0.250000 0.615177
Si Si4 0.433570 0.753354 0.433293
Si Si5 0.960735 0.340404 0.816926
Si Si6 0.000000 0.000000 0.403362
O O1 0.365641 0.500000 0.250000
O O2 0.269311 0.406933 0.333827
O O3 0.406648 0.282031 0.302001
O O4 0.420136 0.481702 0.360064
O O5 0.603799 0.940426 0.344272
O O6 0.679942 0.000000 0.250000
O O7 0.723922 0.129540 0.345711
O O8 0.665219 0.271742 0.576806
O O9 0.444109 0.817907 0.500000
O O10 0.471870 0.811429 0.370521
O O11 0.482585 0.625354 0.437208
O O12 0.000000 0.370942 0.750000
#
# Coordination Sequence:
#
# PCOD9495701 Si02
#       6
#    16  16   8  16  16   8
#     4  10  19  34  65 100 133 173 217 272 337 397
#     4  11  25  38  67  98 138 174 220 282 339 404
#     4  12  25  46  64  96 134 180 229 274 343 400
#     4  11  24  43  69  96 134 180 229 277 335 406
#     4  11  24  42  68 100 138 175 223 281 345 402
#     4  10  18  38  64  96 129 164 227 270 325 394
#
# _framework density 21.10989
#
# number of rings (size 3 to 8) (size 9 to 14) (size 15 to 20)
#    0.000    1.200    2.000    5.100    8.400    2.800 
#    0.000    3.000    0.000    2.400    0.000    0.000 
#    0.000    0.000    0.000    0.000    0.000    0.000 
#
# Total GULP energy -223201.198551 kJ/mol
# GULP energy per Si atom -5580.029964 kJ/mol
# Density = 2.106184 g / cm^3
# Si number density = 21.109890 Si / 1000 Ang^3
#
#
#
# Elastic Constant Matrix: (Units=GPa)
#
#
# Indices 1 2 3 4 5 6 
#
# 1 161.2286 36.0466 59.8141 0.0000 0.0000 0.0000
# 2 36.0466 117.2251 34.7331 0.0000 0.0000 0.0000
# 3 59.8141 34.7331 125.2322 0.0000 0.0000 0.0000
# 4 0.0000 0.0000 0.0000 -2.3708 0.0000 0.0000
# 5 0.0000 0.0000 0.0000 0.0000 -32.4116 0.0000
# 6 0.0000 0.0000 0.0000 0.0000 0.0000 40.7860
#
#
#
# Elastic Compliance Matrix: (Units=1/GPa)
#
#
# Indices 1 2 3 4 5 6 
#
# 1 0.007743 -0.001400 -0.003310 0.000000 0.000000 0.000000
# 2 -0.001400 0.009548 -0.001979 0.000000 0.000000 0.000000
# 3 -0.003310 -0.001979 0.010115 0.000000 0.000000 0.000000
# 4 0.000000 0.000000 0.000000 -0.421794 0.000000 0.000000
# 5 0.000000 0.000000 0.000000 0.000000 -0.030853 0.000000
# 6 0.000000 0.000000 0.000000 0.000000 0.000000 0.024518
#
#
# Mechanical properties :
#
#
# Convention : Reuss Voigt Hill
#
# Bulk Modulus (GPa) = 71.29151 73.87483 72.58317
# Shear Modulus (GPa) = -13.06616 19.40687 3.17035
#
# Velocity S-wave (km/s) = -2.49059 3.03533 1.22682
# Velocity P-wave (km/s) = 5.05710 6.88154 6.03862
#
# Compressibility (1/GPa) = 0.01402692
#
# Stress axis : x y z
#
# Youngs Moduli (GPa) = 129.14113 104.73816 98.86228
#
# Poissons Ratio (x) = 0.14667 0.32724
# Poissons Ratio (y) = 0.18084 0.19567
# Poissons Ratio (z) = 0.42747 0.20730
#
# Static dielectric constant tensor:
#      x y z
#    x 1.787790 0.000000 0.000000 
#    y 0.000000 1.823960 0.000000 
#    z 0.000000 0.000000 1.839930 
# 
# From -- ./inp_files/57921.got.cif
#   From: 2010.05.17/outbox.cif.g08.bks.cpg/sg66_29_cif.got.tgz:57921.got - 2010.06.03 17:51:23.
