data_PCOD9495768
_publ_section_title
;
Structure prediction by ZEFSAII (Michael W. Deem and Ramdas Pophale) SiO2 
 PCOD9495768
Probable space group: C C C M
;
_chemical_formula_sum "Si O2"
_cell_formula_units_Z 64
_cell_length_a 13.894599
_cell_length_b 35.675628
_cell_length_c 8.636107
_cell_angle_alpha 90.000000
_cell_angle_beta 90.000000
_cell_angle_gamma 90.000000
_cell_volume 4280.905676
_symmetry_space_group_name_H-M "C C C M"
_symmetry_group_IT_number 66
_symmetry_cell_setting 'orthorhombic'
loop_
_space_group_symop_operation_xyz
x,y,z
-x,-y,z
x,-y,1/2-z
-x,y,1/2-z
-x,-y,-z
x,y,-z
-x,y,1/2+z
x,-y,1/2+z
1/2+x,1/2+y,z
1/2-x,1/2-y,z
1/2+x,1/2-y,1/2-z
1/2-x,1/2+y,1/2-z
1/2-x,1/2-y,-z
1/2+x,1/2+y,-z
1/2-x,1/2+y,1/2+z
1/2+x,1/2-y,1/2+z
loop_
_atom_site_type_symbol
_atom_site_label
_atom_site_fract_x
_atom_site_fract_y
_atom_site_fract_z
Si Si1 0.791270 0.305777 0.185264
Si Si2 0.609135 0.878793 0.186245
Si Si3 0.391203 0.962010 0.315381
Si Si4 0.605272 0.732950 0.185540
O O1 0.827928 0.346002 0.240641
O O2 0.686327 0.295263 0.250686
O O3 0.862093 0.273860 0.253265
O O4 0.791183 0.303133 0.000000
O O5 0.500000 0.875758 0.250000
O O6 0.647733 0.920690 0.224382
O O7 0.606468 0.875065 0.000000
O O8 0.500000 0.961368 0.250000
O O9 0.395426 0.965051 0.500000
O O10 0.344392 0.000000 0.250000
O O11 0.500000 0.724212 0.250000
O O12 0.606051 0.733012 0.000000
#
# Coordination Sequence:
#
# PCOD9495768 Si02
#       4
#    16  16  16  16
#     4  11  21  33  48  68  90 116 150 186 221 262
#     4  10  19  30  43  63  89 120 152 186 223 262
#     4   9  16  25  39  57  82 113 147 180 216 259
#     4  11  21  35  51  67  89 117 147 183 223 265
#
# _framework density 14.950106
#
# number of rings (size 3 to 8) (size 9 to 14) (size 15 to 20)
#    0.000    1.750    0.000    9.000    0.000    3.000 
#    0.000    0.000    0.000    0.000    0.000    0.000 
#    0.000    1.000    0.000   10.500    0.000    5.750 
#
# Total GULP energy -178504.768737 kJ/mol
# GULP energy per Si atom -5578.274023 kJ/mol
# Density = 1.491608 g / cm^3
# Si number density = 14.950106 Si / 1000 Ang^3
#
#
#
# Elastic Constant Matrix: (Units=GPa)
#
#
# Indices 1 2 3 4 5 6 
#
# 1 68.9311 51.8683 36.4780 0.0000 0.0000 0.0000
# 2 51.8683 154.3786 63.5188 0.0000 0.0000 0.0000
# 3 36.4780 63.5188 129.9708 0.0000 0.0000 0.0000
# 4 0.0000 0.0000 0.0000 25.8727 0.0000 0.0000
# 5 0.0000 0.0000 0.0000 0.0000 21.5931 0.0000
# 6 0.0000 0.0000 0.0000 0.0000 0.0000 17.9511
#
#
#
# Elastic Compliance Matrix: (Units=1/GPa)
#
#
# Indices 1 2 3 4 5 6 
#
# 1 0.020285 -0.005599 -0.002957 0.000000 0.000000 0.000000
# 2 -0.005599 0.009653 -0.003146 0.000000 0.000000 0.000000
# 3 -0.002957 -0.003146 0.010062 0.000000 0.000000 0.000000
# 4 0.000000 0.000000 0.000000 0.038651 0.000000 0.000000
# 5 0.000000 0.000000 0.000000 0.000000 0.046311 0.000000
# 6 0.000000 0.000000 0.000000 0.000000 0.000000 0.055707
#
#
# Mechanical properties :
#
#
# Convention : Reuss Voigt Hill
#
# Bulk Modulus (GPa) = 60.25693 73.00120 66.62907
# Shear Modulus (GPa) = 23.85447 26.51109 25.18278
#
# Velocity S-wave (km/s) = 3.99884 4.21563 4.10866
# Velocity P-wave (km/s) = 7.85581 8.52240 8.19589
#
# Compressibility (1/GPa) = 0.01659560
#
# Stress axis : x y z
#
# Youngs Moduli (GPa) = 49.29775 103.59288 99.38752
#
# Poissons Ratio (x) = 0.57998 0.29390
# Poissons Ratio (y) = 0.27600 0.31270
# Poissons Ratio (z) = 0.14578 0.32594
#
# Static dielectric constant tensor:
#      x y z
#    x 1.463490 0.000000 0.000000 
#    y 0.000000 1.532040 0.000000 
#    z 0.000000 0.000000 1.497280 
# 
# From -- ./inp_files/5472.got.cif
#   From: 2010.05.17/outbox.cif.g08.bks.cpg/sg66_3_cif.got.tgz:5472.got - 2010.06.03 17:51:23.
