data_PCOD9495606
_publ_section_title
;
Structure prediction by ZEFSAII (Michael W. Deem and Ramdas Pophale) SiO2 
 PCOD9495606
Probable space group: C C C M
;
_chemical_formula_sum "Si O2"
_cell_formula_units_Z 80
_cell_length_a 14.288734
_cell_length_b 9.744883
_cell_length_c 24.687299
_cell_angle_alpha 90.000000
_cell_angle_beta 90.000000
_cell_angle_gamma 90.000000
_cell_volume 3437.509901
_symmetry_space_group_name_H-M "C C C M"
_symmetry_group_IT_number 66
_symmetry_cell_setting 'orthorhombic'
loop_
_space_group_symop_operation_xyz
x,y,z
-x,-y,z
x,-y,1/2-z
-x,y,1/2-z
-x,-y,-z
x,y,-z
-x,y,1/2+z
x,-y,1/2+z
1/2+x,1/2+y,z
1/2-x,1/2-y,z
1/2+x,1/2-y,1/2-z
1/2-x,1/2+y,1/2-z
1/2-x,1/2-y,-z
1/2+x,1/2+y,-z
1/2-x,1/2+y,1/2+z
1/2+x,1/2-y,1/2+z
loop_
_atom_site_type_symbol
_atom_site_label
_atom_site_fract_x
_atom_site_fract_y
_atom_site_fract_z
Si Si1 0.130300 0.426343 0.871779
Si Si2 0.294817 0.403468 0.942119
Si Si3 0.611373 0.155376 0.257691
Si Si4 0.856848 0.735139 0.353604
Si Si5 0.489744 0.278932 0.937270
O O1 0.234674 0.456477 0.892946
O O2 0.130463 0.321538 0.821236
O O3 0.101408 0.578898 0.854673
O O4 0.065629 0.359351 0.917926
O O5 0.250000 0.250000 0.946091
O O6 0.405106 0.388168 0.935247
O O7 0.275493 0.473184 0.000000
O O8 0.500000 0.149490 0.250000
O O9 0.643192 0.261138 0.211322
O O10 0.651221 0.000000 0.250000
O O11 0.750000 0.750000 0.371795
O O12 0.927228 0.807801 0.395139
O O13 0.520401 0.266847 0.000000
#
# Coordination Sequence:
#
# PCOD9495606 Si02
#       5
#    16  16  16  16  16
#     4  10  18  34  59  79 102 137 175 219 262 307
#     4   8  16  31  53  81 102 126 177 226 256 297
#     4   9  17  33  54  76 101 132 171 213 258 309
#     4  11  23  35  50  80 114 139 170 212 265 319
#     4  10  20  35  55  79 107 138 177 220 260 307
#
# _framework density 23.272662
#
# number of rings (size 3 to 8) (size 9 to 14) (size 15 to 20)
#    0.000    2.400    2.000    2.400    0.000    5.200 
#    0.000    1.000    0.000    2.400    0.000    0.000 
#    0.000    0.000    0.000    0.000    0.000    0.000 
#
# Total GULP energy -222792.216701 kJ/mol
# GULP energy per Si atom -5569.805418 kJ/mol
# Density = 2.321969 g / cm^3
# Si number density = 23.272662 Si / 1000 Ang^3
#
#
#
# Elastic Constant Matrix: (Units=GPa)
#
#
# Indices 1 2 3 4 5 6 
#
# 1 146.8551 -9.8188 73.7889 0.0000 0.0000 0.0000
# 2 -9.8188 38.0822 13.7392 0.0000 0.0000 0.0000
# 3 73.7889 13.7392 175.7486 0.0000 0.0000 0.0000
# 4 0.0000 0.0000 0.0000 5.6589 0.0000 0.0000
# 5 0.0000 0.0000 0.0000 0.0000 -5.8593 0.0000
# 6 0.0000 0.0000 0.0000 0.0000 0.0000 15.4519
#
#
#
# Elastic Compliance Matrix: (Units=1/GPa)
#
#
# Indices 1 2 3 4 5 6 
#
# 1 0.009148 0.003853 -0.004142 0.000000 0.000000 0.000000
# 2 0.003853 0.028644 -0.003857 0.000000 0.000000 0.000000
# 3 -0.004142 -0.003857 0.007731 0.000000 0.000000 0.000000
# 4 0.000000 0.000000 0.000000 0.176713 0.000000 0.000000
# 5 0.000000 0.000000 0.000000 0.000000 -0.170669 0.000000
# 6 0.000000 0.000000 0.000000 0.000000 0.000000 0.064717
#
#
# Mechanical properties :
#
#
# Convention : Reuss Voigt Hill
#
# Bulk Modulus (GPa) = 26.85948 57.34492 42.10220
# Shear Modulus (GPa) = 36.49991 21.91541 29.20766
#
# Velocity S-wave (km/s) = 3.96455 3.07201 3.54647
# Velocity P-wave (km/s) = 5.70291 6.10549 5.90763
#
# Compressibility (1/GPa) = 0.03723080
#
# Stress axis : x y z
#
# Youngs Moduli (GPa) = 109.30940 34.91135 129.35628
#
# Poissons Ratio (x) = -0.13452 0.53582
# Poissons Ratio (y) = -0.42119 0.49893
# Poissons Ratio (z) = 0.45278 0.13465
#
# Static dielectric constant tensor:
#      x y z
#    x 1.914800 0.000000 0.000000 
#    y 0.000000 1.950210 0.000000 
#    z 0.000000 0.000000 2.061230 
# 
# From -- ./inp_files/56559.got.cif
#   From: 2010.05.17/outbox.cif.g08.bks.cpg/sg66_29_cif.got.tgz:56559.got - 2010.06.03 17:51:23.
