data_PCOD9495475
_publ_section_title
;
Structure prediction by ZEFSAII (Michael W. Deem and Ramdas Pophale) SiO2 
 PCOD9495475
Probable space group: C C C M
;
_chemical_formula_sum "Si O2"
_cell_formula_units_Z 64
_cell_length_a 20.235054
_cell_length_b 21.257106
_cell_length_c 8.524038
_cell_angle_alpha 90.000000
_cell_angle_beta 90.000000
_cell_angle_gamma 90.000000
_cell_volume 3666.518520
_symmetry_space_group_name_H-M "C C C M"
_symmetry_group_IT_number 66
_symmetry_cell_setting 'orthorhombic'
loop_
_space_group_symop_operation_xyz
x,y,z
-x,-y,z
x,-y,1/2-z
-x,y,1/2-z
-x,-y,-z
x,y,-z
-x,y,1/2+z
x,-y,1/2+z
1/2+x,1/2+y,z
1/2-x,1/2-y,z
1/2+x,1/2-y,1/2-z
1/2-x,1/2+y,1/2-z
1/2-x,1/2-y,-z
1/2+x,1/2+y,-z
1/2-x,1/2+y,1/2+z
1/2+x,1/2-y,1/2+z
loop_
_atom_site_type_symbol
_atom_site_label
_atom_site_fract_x
_atom_site_fract_y
_atom_site_fract_z
Si Si1 0.793038 0.432661 0.811732
Si Si2 0.928915 0.619263 0.187111
Si Si3 0.429556 0.737914 0.811424
Si Si4 0.790155 0.812007 0.691018
O O1 0.770196 0.500000 0.750000
O O2 0.866955 0.419278 0.751104
O O3 0.746388 0.375224 0.756965
O O4 0.794032 0.432697 0.000000
O O5 0.920861 0.691235 0.246681
O O6 0.000000 0.596799 0.250000
O O7 0.929547 0.618521 0.000000
O O8 0.500000 0.714276 0.750000
O O9 0.366336 0.696930 0.762759
O O10 0.431150 0.741867 0.000000
O O11 0.788492 0.812115 0.500000
O O12 0.750000 0.750000 0.742385
#
# Coordination Sequence:
#
# PCOD9495475 Si02
#       4
#    16  16  16  16
#     4  11  22  38  56  78 108 142 181 221 268 320
#     4  11  21  34  52  78 109 145 181 218 262 313
#     4  10  18  32  54  81 109 140 177 220 270 315
#     4   9  17  33  57  79 104 143 179 215 265 321
#
# _framework density 17.455249999999999
#
# number of rings (size 3 to 8) (size 9 to 14) (size 15 to 20)
#    0.000    1.750    2.500    5.250    0.000    0.500 
#    0.000    8.750    0.000    0.750    0.000    5.250 
#    0.000    0.000    0.000    0.000    0.000    0.000 
#
# Total GULP energy -178682.256137 kJ/mol
# GULP energy per Si atom -5583.820504 kJ/mol
# Density = 1.741552 g / cm^3
# Si number density = 17.455250 Si / 1000 Ang^3
#
#
#
# Elastic Constant Matrix: (Units=GPa)
#
#
# Indices 1 2 3 4 5 6 
#
# 1 133.3724 75.2293 28.1839 0.0000 0.0000 0.0000
# 2 75.2293 119.6720 25.6592 0.0000 0.0000 0.0000
# 3 28.1839 25.6592 75.9174 0.0000 0.0000 0.0000
# 4 0.0000 0.0000 0.0000 42.4174 0.0000 0.0000
# 5 0.0000 0.0000 0.0000 0.0000 -45.4838 0.0000
# 6 0.0000 0.0000 0.0000 0.0000 0.0000 25.7190
#
#
#
# Elastic Compliance Matrix: (Units=1/GPa)
#
#
# Indices 1 2 3 4 5 6 
#
# 1 0.011902 -0.007045 -0.002037 0.000000 0.000000 0.000000
# 2 -0.007045 0.013179 -0.001839 0.000000 0.000000 0.000000
# 3 -0.002037 -0.001839 0.014550 0.000000 0.000000 0.000000
# 4 0.000000 0.000000 0.000000 0.023575 0.000000 0.000000
# 5 0.000000 0.000000 0.000000 0.000000 -0.021986 0.000000
# 6 0.000000 0.000000 0.000000 0.000000 0.000000 0.038882
#
#
# Mechanical properties :
#
#
# Convention : Reuss Voigt Hill
#
# Bulk Modulus (GPa) = 56.21624 65.23406 60.72515
# Shear Modulus (GPa) = 46.34969 17.85648 32.10308
#
# Velocity S-wave (km/s) = 5.15859 3.20189 4.29320
# Velocity P-wave (km/s) = 8.23148 7.15002 7.70973
#
# Compressibility (1/GPa) = 0.01778845
#
# Stress axis : x y z
#
# Youngs Moduli (GPa) = 84.01777 75.87653 68.72785
#
# Poissons Ratio (x) = 0.53457 0.14003
# Poissons Ratio (y) = 0.59193 0.12639
# Poissons Ratio (z) = 0.17118 0.13953
#
# Static dielectric constant tensor:
#      x y z
#    x 1.603390 0.000000 0.000000 
#    y 0.000000 1.584140 0.000000 
#    z 0.000000 0.000000 1.593050 
# 
# From -- ./inp_files/6157.got.cif
#   From: 2010.05.17/outbox.cif.g08.bks.cpg/sg66_4_cif.got.tgz:6157.got - 2010.06.03 17:51:23.
