data_PCOD9495976
_publ_section_title
;
Structure prediction by ZEFSAII (Michael W. Deem and Ramdas Pophale) SiO2 
 PCOD9495976
Probable space group: C C C M
;
_chemical_formula_sum "Si O2"
_cell_formula_units_Z 96
_cell_length_a 25.336540
_cell_length_b 10.843993
_cell_length_c 14.885408
_cell_angle_alpha 90.000000
_cell_angle_beta 90.000000
_cell_angle_gamma 90.000000
_cell_volume 4089.754869
_symmetry_space_group_name_H-M "C C C M"
_symmetry_group_IT_number 66
_symmetry_cell_setting 'orthorhombic'
loop_
_space_group_symop_operation_xyz
x,y,z
-x,-y,z
x,-y,1/2-z
-x,y,1/2-z
-x,-y,-z
x,y,-z
-x,y,1/2+z
x,-y,1/2+z
1/2+x,1/2+y,z
1/2-x,1/2-y,z
1/2+x,1/2-y,1/2-z
1/2-x,1/2+y,1/2-z
1/2-x,1/2-y,-z
1/2+x,1/2+y,-z
1/2-x,1/2+y,1/2+z
1/2+x,1/2-y,1/2+z
loop_
_atom_site_type_symbol
_atom_site_label
_atom_site_fract_x
_atom_site_fract_y
_atom_site_fract_z
Si Si1 0.659590 0.056020 0.899150
Si Si2 0.991063 0.175119 0.649482
Si Si3 0.117688 0.077599 0.895420
Si Si4 0.807744 0.700016 0.890490
Si Si5 0.052573 0.553699 0.350912
Si Si6 0.613915 0.308278 0.893371
O O1 0.645606 0.189151 0.856616
O O2 0.689616 0.940908 0.854613
O O3 0.602486 0.990568 0.904324
O O4 0.681274 0.077232 0.000000
O O5 0.049970 0.201392 0.613969
O O6 0.000000 0.131762 0.750000
O O7 0.946411 0.089399 0.605774
O O8 0.959199 0.303197 0.654123
O O9 0.148872 0.198010 0.859613
O O10 0.129584 0.942356 0.855178
O O11 0.133369 0.072299 0.000000
O O12 0.750000 0.750000 0.871298
O O13 0.813644 0.689548 0.000000
O O14 0.057992 0.500000 0.250000
O O15 0.000000 0.500000 0.392754
O O16 0.624551 0.307962 0.000000
#
# Coordination Sequence:
#
# PCOD9495976 Si02
#       6
#    16  16  16  16  16  16
#     4  10  19  32  53  78 103 138 180 218 261 316
#     4  12  21  32  51  78 109 147 183 214 260 321
#     4  10  21  36  52  76 112 145 175 220 271 312
#     4   9  18  34  57  82 102 128 177 229 268 313
#     4  11  19  32  47  75 112 139 176 218 264 309
#     4  10  21  34  49  75 111 145 176 214 265 325
#
# _framework density 23.473289999999999
#
# number of rings (size 3 to 8) (size 9 to 14) (size 15 to 20)
#    0.000    1.667    5.000    1.000    0.000    3.667 
#    0.000    0.833    0.000    5.000    4.333    0.000 
#    0.000    0.000    0.000    0.000    0.000    0.167 
#
# Total GULP energy -267601.505400 kJ/mol
# GULP energy per Si atom -5575.031363 kJ/mol
# Density = 2.341986 g / cm^3
# Si number density = 23.473290 Si / 1000 Ang^3
#
#
#
# Elastic Constant Matrix: (Units=GPa)
#
#
# Indices 1 2 3 4 5 6 
#
# 1 76.7788 42.8190 -3.9803 0.0000 0.0000 0.0000
# 2 42.8190 226.2807 14.8423 0.0000 0.0000 0.0000
# 3 -3.9803 14.8423 43.6307 0.0000 0.0000 0.0000
# 4 0.0000 0.0000 0.0000 6.9543 0.0000 0.0000
# 5 0.0000 0.0000 0.0000 0.0000-1178.4575 0.0000
# 6 0.0000 0.0000 0.0000 0.0000 0.0000 29.6209
#
#
#
# Elastic Compliance Matrix: (Units=1/GPa)
#
#
# Indices 1 2 3 4 5 6 
#
# 1 0.014794 -0.002954 0.002354 0.000000 0.000000 0.000000
# 2 -0.002954 0.005110 -0.002008 0.000000 0.000000 0.000000
# 3 0.002354 -0.002008 0.023817 0.000000 0.000000 0.000000
# 4 0.000000 0.000000 0.000000 0.143796 0.000000 0.000000
# 5 0.000000 0.000000 0.000000 0.000000 -0.000849 0.000000
# 6 0.000000 0.000000 0.000000 0.000000 0.000000 0.033760
#
#
# Mechanical properties :
#
#
# Convention : Reuss Voigt Hill
#
# Bulk Modulus (GPa) = 25.96943 50.45024 38.20984
# Shear Modulus (GPa) = 20.96624 -208.84252 -93.93814
#
# Velocity S-wave (km/s) = 2.99188 -9.44264 -6.33293
# Velocity P-wave (km/s) = 4.79818 9.86637 6.09601
#
# Compressibility (1/GPa) = 0.03850681
#
# Stress axis : x y z
#
# Youngs Moduli (GPa) = 67.59573 195.69688 41.98603
#
# Poissons Ratio (x) = 0.57806 -0.09885
# Poissons Ratio (y) = 0.19967 0.08430
# Poissons Ratio (z) = -0.15915 0.39292
#
# Static dielectric constant tensor:
#      x y z
#    x 1.869000 0.000000 0.000000 
#    y 0.000000 1.997500 0.000000 
#    z 0.000000 0.000000 1.821820 
# 
# From -- ./inp_files/43552.got.cif
#   From: 2010.05.17/outbox.cif.g08.bks.cpg/sg66_22_cif.got.tgz:43552.got - 2010.06.03 17:51:23.
