data_PCOD9495196
_publ_section_title
;
Structure prediction by ZEFSAII (Michael W. Deem and Ramdas Pophale) SiO2 
 PCOD9495196
Probable space group: C C C M
;
_chemical_formula_sum "Si O2"
_cell_formula_units_Z 96
_cell_length_a 14.977051
_cell_length_b 16.497454
_cell_length_c 20.979942
_cell_angle_alpha 90.000000
_cell_angle_beta 90.000000
_cell_angle_gamma 90.000000
_cell_volume 5183.791413
_symmetry_space_group_name_H-M "C C C M"
_symmetry_group_IT_number 66
_symmetry_cell_setting 'orthorhombic'
loop_
_space_group_symop_operation_xyz
x,y,z
-x,-y,z
x,-y,1/2-z
-x,y,1/2-z
-x,-y,-z
x,y,-z
-x,y,1/2+z
x,-y,1/2+z
1/2+x,1/2+y,z
1/2-x,1/2-y,z
1/2+x,1/2-y,1/2-z
1/2-x,1/2+y,1/2-z
1/2-x,1/2-y,-z
1/2+x,1/2+y,-z
1/2-x,1/2+y,1/2+z
1/2+x,1/2-y,1/2+z
loop_
_atom_site_type_symbol
_atom_site_label
_atom_site_fract_x
_atom_site_fract_y
_atom_site_fract_z
Si Si1 0.698641 0.449046 0.571748
Si Si2 0.958396 0.818383 0.927300
Si Si3 0.223611 0.059638 0.307033
Si Si4 0.426571 0.310923 0.303376
Si Si5 0.099179 0.628289 0.758219
Si Si6 0.826394 0.315634 0.623091
O O1 0.700277 0.481850 0.500000
O O2 0.610142 0.393684 0.579147
O O3 0.704431 0.516274 0.626168
O O4 0.779727 0.385392 0.581890
O O5 0.901793 0.736620 0.912520
O O6 0.031952 0.824990 0.872838
O O7 0.991221 0.816926 0.000000
O O8 0.164883 0.139974 0.297941
O O9 0.328292 0.077692 0.297135
O O10 0.196203 0.000000 0.250000
O O11 0.500000 0.336699 0.250000
O O12 0.411299 0.215948 0.291422
O O13 0.137615 0.645492 0.687853
O O14 0.000000 0.593792 0.750000
O O15 0.750000 0.250000 0.640054
#
# Coordination Sequence:
#
# PCOD9495196 Si02
#       6
#    16  16  16  16  16  16
#     4  10  22  38  58  87 124 159 194 239 291 349
#     4  10  20  36  61  91 119 154 197 241 291 347
#     4  12  24  38  59  86 120 158 195 238 295 354
#     4  11  22  38  60  88 119 151 195 246 292 344
#     4  11  22  39  63  87 113 149 199 249 291 342
#     4  10  17  35  62  88 115 149 193 243 291 340
#
# _framework density 18.519262999999999
#
# number of rings (size 3 to 8) (size 9 to 14) (size 15 to 20)
#    0.000    1.333    5.000    3.000    0.000    5.333 
#    0.000    2.500    0.000    3.000    0.000    0.000 
#    0.000    0.000    0.000    0.000    0.000    0.000 
#
# Total GULP energy -268162.311096 kJ/mol
# GULP energy per Si atom -5586.714814 kJ/mol
# Density = 1.847711 g / cm^3
# Si number density = 18.519263 Si / 1000 Ang^3
#
#
#
# Elastic Constant Matrix: (Units=GPa)
#
#
# Indices 1 2 3 4 5 6 
#
# 1 53.0881 11.4202 19.9413 0.0000 0.0000 0.0000
# 2 11.4202 58.3097 24.7444 0.0000 0.0000 0.0000
# 3 19.9413 24.7444 138.4944 0.0000 0.0000 0.0000
# 4 0.0000 0.0000 0.0000 19.2462 0.0000 0.0000
# 5 0.0000 0.0000 0.0000 0.0000 152.2621 0.0000
# 6 0.0000 0.0000 0.0000 0.0000 0.0000 3.5813
#
#
#
# Elastic Compliance Matrix: (Units=1/GPa)
#
#
# Indices 1 2 3 4 5 6 
#
# 1 0.020379 -0.002971 -0.002403 0.000000 0.000000 0.000000
# 2 -0.002971 0.018990 -0.002965 0.000000 0.000000 0.000000
# 3 -0.002403 -0.002965 0.008096 0.000000 0.000000 0.000000
# 4 0.000000 0.000000 0.000000 0.051958 0.000000 0.000000
# 5 0.000000 0.000000 0.000000 0.000000 0.006568 0.000000
# 6 0.000000 0.000000 0.000000 0.000000 0.000000 0.279228
#
#
# Mechanical properties :
#
#
# Convention : Reuss Voigt Hill
#
# Bulk Modulus (GPa) = 32.48293 40.23377 36.35835
# Shear Modulus (GPa) = 12.13122 47.93702 30.03412
#
# Velocity S-wave (km/s) = 2.56219 5.09325 4.03150
# Velocity P-wave (km/s) = 5.13140 7.50738 6.43008
#
# Compressibility (1/GPa) = 0.03078540
#
# Stress axis : x y z
#
# Youngs Moduli (GPa) = 49.07119 52.65931 123.51298
#
# Poissons Ratio (x) = 0.15647 0.29684
# Poissons Ratio (y) = 0.14581 0.36622
# Poissons Ratio (z) = 0.11794 0.15614
#
# Static dielectric constant tensor:
#      x y z
#    x 1.651560 0.000000 0.000000 
#    y 0.000000 1.643860 0.000000 
#    z 0.000000 0.000000 1.613830 
# 
# From -- ./inp_files/49922.got.cif
#   From: 2010.05.17/outbox.cif.g08.bks.cpg/sg66_25_cif.got.tgz:49922.got - 2010.06.03 17:51:23.
