data_PCOD9495245
_publ_section_title
;
Structure prediction by ZEFSAII (Michael W. Deem and Ramdas Pophale) SiO2 
 PCOD9495245
Probable space group: C C C M
;
_chemical_formula_sum "Si O2"
_cell_formula_units_Z 112
_cell_length_a 16.996092
_cell_length_b 11.342046
_cell_length_c 28.256856
_cell_angle_alpha 90.000000
_cell_angle_beta 90.000000
_cell_angle_gamma 90.000000
_cell_volume 5447.087053
_symmetry_space_group_name_H-M "C C C M"
_symmetry_group_IT_number 66
_symmetry_cell_setting 'orthorhombic'
loop_
_space_group_symop_operation_xyz
x,y,z
-x,-y,z
x,-y,1/2-z
-x,y,1/2-z
-x,-y,-z
x,y,-z
-x,y,1/2+z
x,-y,1/2+z
1/2+x,1/2+y,z
1/2-x,1/2-y,z
1/2+x,1/2-y,1/2-z
1/2-x,1/2+y,1/2-z
1/2-x,1/2-y,-z
1/2+x,1/2+y,-z
1/2-x,1/2+y,1/2+z
1/2+x,1/2-y,1/2+z
loop_
_atom_site_type_symbol
_atom_site_label
_atom_site_fract_x
_atom_site_fract_y
_atom_site_fract_z
Si Si1 0.075678 0.063145 0.554911
Si Si2 0.403493 0.890376 0.846400
Si Si3 0.456989 0.839785 0.947379
Si Si4 0.631980 0.195042 0.585057
Si Si5 0.428855 0.837689 0.318854
Si Si6 0.282209 0.426537 0.054520
Si Si7 0.193364 0.360154 0.738640
O O1 0.080092 0.020477 0.500000
O O2 0.059331 0.200296 0.553395
O O3 0.160792 0.027797 0.574425
O O4 0.000000 0.000000 0.577371
O O5 0.407981 0.884592 0.902790
O O6 0.478565 0.817103 0.826015
O O7 0.327649 0.853759 0.816908
O O8 0.417680 0.025755 0.833042
O O9 0.550103 0.852616 0.936166
O O10 0.438707 0.885037 0.000000
O O11 0.615625 0.231155 0.639296
O O12 0.663416 0.308927 0.557109
O O13 0.703385 0.103150 0.582545
O O14 0.386199 0.832375 0.268765
O O15 0.259376 0.449114 0.000000
O O16 0.215126 0.500000 0.750000
O O17 0.250000 0.250000 0.750754
#
# Coordination Sequence:
#
# PCOD9495245 Si02
#       7
#    16  16  16  16  16  16  16
#     4   9  16  28  45  67 101 152 198 226 278 356
#     4   9  19  38  59  84 110 151 199 238 286 353
#     4  10  18  32  53  77 110 149 195 243 286 346
#     4  10  18  28  47  77 106 139 183 235 286 337
#     4   9  19  36  60  84 111 146 193 236 292 359
#     4  10  18  28  43  69 108 147 184 230 286 345
#     4  10  21  40  66  92 118 152 193 247 303 360
#
# _framework density 20.561447999999999
#
# number of rings (size 3 to 8) (size 9 to 14) (size 15 to 20)
#    0.000    2.429    1.429    2.143    2.000    1.714 
#    5.143    7.143    0.000    1.286    0.000    0.000 
#    0.000    0.000    0.000    0.000    0.000    0.000 
#
# Total GULP energy -312037.732154 kJ/mol
# GULP energy per Si atom -5572.102360 kJ/mol
# Density = 2.051465 g / cm^3
# Si number density = 20.561448 Si / 1000 Ang^3
#
#
#
# Elastic Constant Matrix: (Units=GPa)
#
#
# Indices 1 2 3 4 5 6 
#
# 1 61.4679 33.9475 30.9840 0.0000 0.0000 0.0000
# 2 33.9475 58.6304 15.8242 0.0000 0.0000 0.0000
# 3 30.9840 15.8242 111.2209 0.0000 0.0000 0.0000
# 4 0.0000 0.0000 0.0000 -0.5600 0.0000 0.0000
# 5 0.0000 0.0000 0.0000 0.0000 15.7210 0.0000
# 6 0.0000 0.0000 0.0000 0.0000 0.0000 31.3887
#
#
#
# Elastic Compliance Matrix: (Units=1/GPa)
#
#
# Indices 1 2 3 4 5 6 
#
# 1 0.026767 -0.014024 -0.005461 0.000000 0.000000 0.000000
# 2 -0.014024 0.025085 0.000338 0.000000 0.000000 0.000000
# 3 -0.005461 0.000338 0.010464 0.000000 0.000000 0.000000
# 4 0.000000 0.000000 0.000000 -1.785823 0.000000 0.000000
# 5 0.000000 0.000000 0.000000 0.000000 0.063609 0.000000
# 6 0.000000 0.000000 0.000000 0.000000 0.000000 0.031859
#
#
# Mechanical properties :
#
#
# Convention : Reuss Voigt Hill
#
# Bulk Modulus (GPa) = 41.63064 43.64785 42.63924
# Shear Modulus (GPa) = -3.16108 19.34751 8.09321
#
# Velocity S-wave (km/s) = -1.24126 3.07084 1.98612
# Velocity P-wave (km/s) = 4.27043 5.81786 5.10314
#
# Compressibility (1/GPa) = 0.02402077
#
# Stress axis : x y z
#
# Youngs Moduli (GPa) = 37.35964 39.86459 95.56122
#
# Poissons Ratio (x) = 0.55907 0.52190
# Poissons Ratio (y) = 0.52394 -0.03229
# Poissons Ratio (z) = 0.20404 -0.01347
#
# Static dielectric constant tensor:
#      x y z
#    x 1.779730 0.000000 0.000000 
#    y 0.000000 1.777290 0.000000 
#    z 0.000000 0.000000 1.777100 
# 
# From -- ./inp_files/69558.got.cif
#   From: 2010.05.17/outbox.cif.g08.bks.cpg/sg66_35_cif.got.tgz:69558.got - 2010.06.03 17:51:23.
