data_PCOD9495872
_publ_section_title
;
Structure prediction by ZEFSAII (Michael W. Deem and Ramdas Pophale) SiO2 
 PCOD9495872
Probable space group: C C C M
;
_chemical_formula_sum "Si O2"
_cell_formula_units_Z 104
_cell_length_a 17.137285
_cell_length_b 12.549479
_cell_length_c 24.728389
_cell_angle_alpha 90.000000
_cell_angle_beta 90.000000
_cell_angle_gamma 90.000000
_cell_volume 5318.186208
_symmetry_space_group_name_H-M "C C C M"
_symmetry_group_IT_number 66
_symmetry_cell_setting 'orthorhombic'
loop_
_space_group_symop_operation_xyz
x,y,z
-x,-y,z
x,-y,1/2-z
-x,y,1/2-z
-x,-y,-z
x,y,-z
-x,y,1/2+z
x,-y,1/2+z
1/2+x,1/2+y,z
1/2-x,1/2-y,z
1/2+x,1/2-y,1/2-z
1/2-x,1/2+y,1/2-z
1/2-x,1/2-y,-z
1/2+x,1/2+y,-z
1/2-x,1/2+y,1/2+z
1/2+x,1/2-y,1/2+z
loop_
_atom_site_type_symbol
_atom_site_label
_atom_site_fract_x
_atom_site_fract_y
_atom_site_fract_z
Si Si1 0.909059 0.713247 0.438569
Si Si2 0.677774 0.998002 0.091929
Si Si3 0.000000 0.000000 0.862653
Si Si4 0.352000 0.555197 0.936995
Si Si5 0.920836 0.552649 0.191615
Si Si6 0.342245 0.766113 0.441515
Si Si7 0.459224 0.727230 0.648677
O O1 0.941699 0.714490 0.500000
O O2 0.862975 0.604498 0.429243
O O3 0.852752 0.815891 0.434239
O O4 0.974220 0.729077 0.392454
O O5 0.770022 0.009319 0.083379
O O6 0.651088 0.977117 0.153430
O O7 0.645840 0.893143 0.062022
O O8 0.015126 0.110763 0.831229
O O9 0.925498 0.019667 0.901327
O O10 0.362271 0.526471 0.000000
O O11 0.910758 0.500000 0.250000
O O12 0.936995 0.679537 0.190539
O O13 0.000000 0.500000 0.168011
O O14 0.368757 0.725725 0.500000
O O15 0.250000 0.750000 0.437436
O O16 0.385566 0.714538 0.391299
#
# Coordination Sequence:
#
# PCOD9495872 Si02
#       7
#    16  16   8  16  16  16  16
#     4  10  19  31  50  82 120 156 191 230 280 343
#     4  11  20  33  55  82 111 151 197 249 294 341
#     4  10  21  36  58  85 124 164 195 232 267 342
#     4  10  20  33  53  83 124 169 201 224 269 338
#     4  10  21  40  63  85 105 140 190 251 307 360
#     4  10  20  31  47  76 118 161 195 230 274 332
#     4  10  20  35  55  86 113 151 193 233 287 342
#
# _framework density 19.555540000000001
#
# number of rings (size 3 to 8) (size 9 to 14) (size 15 to 20)
#    0.000    1.846    1.538    3.462    0.000    4.308 
#    0.000    2.308    0.000   12.923    0.000    0.000 
#    0.000    0.000    0.000    0.000    0.000    0.000 
#
# Total GULP energy -290253.820108 kJ/mol
# GULP energy per Si atom -5581.804233 kJ/mol
# Density = 1.951103 g / cm^3
# Si number density = 19.555540 Si / 1000 Ang^3
#
#
#
# Elastic Constant Matrix: (Units=GPa)
#
#
# Indices 1 2 3 4 5 6 
#
# 1 48.3781 7.6367 5.8767 0.0000 0.0000 0.0000
# 2 7.6367 165.2961 32.3402 0.0000 0.0000 0.0000
# 3 5.8767 32.3402 66.3832 0.0000 0.0000 0.0000
# 4 0.0000 0.0000 0.0000 31.8734 0.0000 0.0000
# 5 0.0000 0.0000 0.0000 0.0000 17.6805 0.0000
# 6 0.0000 0.0000 0.0000 0.0000 0.0000 26.3499
#
#
#
# Elastic Compliance Matrix: (Units=1/GPa)
#
#
# Indices 1 2 3 4 5 6 
#
# 1 0.020962 -0.000669 -0.001530 0.000000 0.000000 0.000000
# 2 -0.000669 0.006709 -0.003209 0.000000 0.000000 0.000000
# 3 -0.001530 -0.003209 0.016763 0.000000 0.000000 0.000000
# 4 0.000000 0.000000 0.000000 0.031374 0.000000 0.000000
# 5 0.000000 0.000000 0.000000 0.000000 0.056560 0.000000
# 6 0.000000 0.000000 0.000000 0.000000 0.000000 0.037951
#
#
# Mechanical properties :
#
#
# Convention : Reuss Voigt Hill
#
# Bulk Modulus (GPa) = 29.74632 41.30717 35.52674
# Shear Modulus (GPa) = 25.99573 30.79435 28.39504
#
# Velocity S-wave (km/s) = 3.64995 3.97257 3.81467
# Velocity P-wave (km/s) = 5.74518 6.49697 6.13260
#
# Compressibility (1/GPa) = 0.03361761
#
# Stress axis : x y z
#
# Youngs Moduli (GPa) = 47.70547 149.06462 59.65590
#
# Poissons Ratio (x) = 0.09975 0.09126
# Poissons Ratio (y) = 0.03192 0.19143
# Poissons Ratio (z) = 0.07297 0.47834
#
# Static dielectric constant tensor:
#      x y z
#    x 1.674310 0.000000 0.000000 
#    y 0.000000 1.742710 0.000000 
#    z 0.000000 0.000000 1.676300 
# 
# From -- ./inp_files/65270.got.cif
#   From: 2010.05.17/outbox.cif.g08.bks.cpg/sg66_33_cif.got.tgz:65270.got - 2010.06.03 17:51:23.
