data_PCOD9495651
_publ_section_title
;
Structure prediction by ZEFSAII (Michael W. Deem and Ramdas Pophale) SiO2 
 PCOD9495651
Probable space group: C C C M
;
_chemical_formula_sum "Si O2"
_cell_formula_units_Z 116
_cell_length_a 28.385224
_cell_length_b 22.637255
_cell_length_c 9.379070
_cell_angle_alpha 90.000000
_cell_angle_beta 90.000000
_cell_angle_gamma 90.000000
_cell_volume 6026.648552
_symmetry_space_group_name_H-M "C C C M"
_symmetry_group_IT_number 66
_symmetry_cell_setting 'orthorhombic'
loop_
_space_group_symop_operation_xyz
x,y,z
-x,-y,z
x,-y,1/2-z
-x,y,1/2-z
-x,-y,-z
x,y,-z
-x,y,1/2+z
x,-y,1/2+z
1/2+x,1/2+y,z
1/2-x,1/2-y,z
1/2+x,1/2-y,1/2-z
1/2-x,1/2+y,1/2-z
1/2-x,1/2-y,-z
1/2+x,1/2+y,-z
1/2-x,1/2+y,1/2+z
1/2+x,1/2-y,1/2+z
loop_
_atom_site_type_symbol
_atom_site_label
_atom_site_fract_x
_atom_site_fract_y
_atom_site_fract_z
Si Si1 0.302407 0.278413 0.669956
Si Si2 0.952590 0.807345 0.335044
Si Si3 0.000000 0.000000 0.750000
Si Si4 0.220800 0.556433 0.828817
Si Si5 0.547676 0.832792 0.667304
Si Si6 0.082982 0.909928 0.660793
Si Si7 0.851471 0.659489 0.327337
Si Si8 0.811559 0.097688 0.331534
O O1 0.309603 0.292254 0.500000
O O2 0.250000 0.250000 0.680947
O O3 0.336777 0.225327 0.716085
O O4 0.310347 0.335884 0.765907
O O5 0.958879 0.819870 0.500000
O O6 0.943007 0.737907 0.320318
O O7 0.918505 0.855555 0.269710
O O8 0.000000 0.818432 0.250000
O O9 0.961133 0.955167 0.820785
O O10 0.199313 0.500000 0.750000
O O11 0.189417 0.613594 0.793112
O O12 0.272123 0.565472 0.761382
O O13 0.222918 0.549888 0.000000
O O14 0.500000 0.847135 0.750000
O O15 0.541012 0.845892 0.500000
O O16 0.596670 0.859779 0.722240
O O17 0.079502 0.886315 0.500000
O O18 0.136648 0.932226 0.678016
O O19 0.854133 0.661826 0.500000
O O20 0.799233 0.099008 0.500000
#
# Coordination Sequence:
#
# PCOD9495651 Si02
#       8
#    16  16   4  16  16  16  16  16
#     4  10  18  35  62  91 120 157 201 241 294 367
#     4  10  19  33  56  81 111 146 184 230 286 346
#     4  12  26  44  64  78 102 152 210 260 302 348
#     4  11  23  42  63  86 115 155 200 242 289 350
#     4   9  18  33  55  86 118 150 185 227 279 343
#     4  11  25  42  58  79 108 144 196 251 300 350
#     4   9  18  35  60  86 118 156 197 238 287 352
#     4  11  24  40  59  89 123 154 192 251 311 361
#
# _framework density 19.247844000000001
#
# number of rings (size 3 to 8) (size 9 to 14) (size 15 to 20)
#    0.000    1.793    2.069    2.276    0.966    3.586 
#    0.000    2.069    0.000    0.414    0.000    2.897 
#    0.000    0.000    0.000    0.000    0.000    0.000 
#
# Total GULP energy -323277.325376 kJ/mol
# GULP energy per Si atom -5573.746989 kJ/mol
# Density = 1.920404 g / cm^3
# Si number density = 19.247844 Si / 1000 Ang^3
#
#
#
# Elastic Constant Matrix: (Units=GPa)
#
#
# Indices 1 2 3 4 5 6 
#
# 1 125.2669 14.9514 36.4538 0.0000 0.0000 0.0000
# 2 14.9514 61.0124 27.4952 0.0000 0.0000 0.0000
# 3 36.4538 27.4952 71.9444 0.0000 0.0000 0.0000
# 4 0.0000 0.0000 0.0000 21.0520 0.0000 0.0000
# 5 0.0000 0.0000 0.0000 0.0000 24.4626 0.0000
# 6 0.0000 0.0000 0.0000 0.0000 0.0000 -130.6471
#
#
#
# Elastic Compliance Matrix: (Units=1/GPa)
#
#
# Indices 1 2 3 4 5 6 
#
# 1 0.009365 -0.000189 -0.004673 0.000000 0.000000 0.000000
# 2 -0.000189 0.019804 -0.007473 0.000000 0.000000 0.000000
# 3 -0.004673 -0.007473 0.019123 0.000000 0.000000 0.000000
# 4 0.000000 0.000000 0.000000 0.047501 0.000000 0.000000
# 5 0.000000 0.000000 0.000000 0.000000 0.040879 0.000000
# 6 0.000000 0.000000 0.000000 0.000000 0.000000 -0.007654
#
#
# Mechanical properties :
#
#
# Convention : Reuss Voigt Hill
#
# Bulk Modulus (GPa) = 42.33189 46.22495 44.27842
# Shear Modulus (GPa) = 30.94765 -5.07161 12.93802
#
# Velocity S-wave (km/s) = 4.01415 -1.62500 2.59546
# Velocity P-wave (km/s) = 6.59737 4.53288 5.66005
#
# Compressibility (1/GPa) = 0.02362285
#
# Stress axis : x y z
#
# Youngs Moduli (GPa) = 106.77545 50.49467 52.29203
#
# Poissons Ratio (x) = 0.00955 0.24437
# Poissons Ratio (y) = 0.02019 0.39077
# Poissons Ratio (z) = 0.49898 0.37734
#
# Static dielectric constant tensor:
#      x y z
#    x 1.731970 0.000000 0.000000 
#    y 0.000000 1.706240 0.000000 
#    z 0.000000 0.000000 1.643160 
# 
# From -- ./inp_files/10603.got.cif
#   From: 2010.05.17/outbox.cif.g08.bks.cpg/sg66_6_cif.got.tgz:10603.got - 2010.06.03 17:51:23.
