data_PCOD9495554
_publ_section_title
;
Structure prediction by ZEFSAII (Michael W. Deem and Ramdas Pophale) SiO2 
 PCOD9495554
Probable space group: C C C M
;
_chemical_formula_sum "Si O2"
_cell_formula_units_Z 80
_cell_length_a 22.519605
_cell_length_b 12.128344
_cell_length_c 14.299124
_cell_angle_alpha 90.000000
_cell_angle_beta 90.000000
_cell_angle_gamma 90.000000
_cell_volume 3905.455623
_symmetry_space_group_name_H-M "C C C M"
_symmetry_group_IT_number 66
_symmetry_cell_setting 'orthorhombic'
loop_
_space_group_symop_operation_xyz
x,y,z
-x,-y,z
x,-y,1/2-z
-x,y,1/2-z
-x,-y,-z
x,y,-z
-x,y,1/2+z
x,-y,1/2+z
1/2+x,1/2+y,z
1/2-x,1/2-y,z
1/2+x,1/2-y,1/2-z
1/2-x,1/2+y,1/2-z
1/2-x,1/2-y,-z
1/2+x,1/2+y,-z
1/2-x,1/2+y,1/2+z
1/2+x,1/2-y,1/2+z
loop_
_atom_site_type_symbol
_atom_site_label
_atom_site_fract_x
_atom_site_fract_y
_atom_site_fract_z
Si Si1 0.665765 0.691767 0.110388
Si Si2 0.043014 0.091878 0.105786
Si Si3 0.784682 0.576923 0.159841
Si Si4 0.501861 0.825930 0.362681
Si Si5 0.096715 0.497685 0.364127
O O1 0.606350 0.631315 0.146643
O O2 0.722149 0.610480 0.115699
O O3 0.682677 0.802214 0.168744
O O4 0.657688 0.722497 0.000000
O O5 0.005399 0.203658 0.102659
O O6 0.057474 0.053897 0.000000
O O7 0.000000 0.000000 0.148175
O O8 0.772900 0.500000 0.250000
O O9 0.835882 0.510786 0.105031
O O10 0.500000 0.823620 0.250000
O O11 0.561516 0.888426 0.391018
O O12 0.445841 0.901115 0.392247
O O13 0.098578 0.500000 0.250000
#
# Coordination Sequence:
#
# PCOD9495554 Si02
#       5
#    16  16  16  16  16
#     4  10  21  39  59  82 116 156 195 232 287 355
#     4  10  21  38  55  75 109 150 192 234 275 338
#     4  10  18  33  57  85 113 142 189 241 285 331
#     4   9  16  31  52  79 107 137 180 224 289 338
#     4   8  15  28  51  79 110 137 163 228 291 331
#
# _framework density 20.484165999999998
#
# number of rings (size 3 to 8) (size 9 to 14) (size 15 to 20)
#    0.000    2.600    2.000    2.400    0.000    0.400 
#    3.600    4.000    0.000    0.000    0.000   15.400 
#    0.000    0.000    0.000    0.000    0.000    0.000 
#
# Total GULP energy -222829.577582 kJ/mol
# GULP energy per Si atom -5570.739440 kJ/mol
# Density = 2.043754 g / cm^3
# Si number density = 20.484166 Si / 1000 Ang^3
#
#
#
# Elastic Constant Matrix: (Units=GPa)
#
#
# Indices 1 2 3 4 5 6 
#
# 1 144.1999 80.1930 7.7040 0.0000 0.0000 0.0000
# 2 80.1930 126.2684 18.3007 0.0000 0.0000 0.0000
# 3 7.7040 18.3007 86.8441 0.0000 0.0000 0.0000
# 4 0.0000 0.0000 0.0000 20.7806 0.0000 0.0000
# 5 0.0000 0.0000 0.0000 0.0000 35.3304 0.0000
# 6 0.0000 0.0000 0.0000 0.0000 0.0000 41.5045
#
#
#
# Elastic Compliance Matrix: (Units=1/GPa)
#
#
# Indices 1 2 3 4 5 6 
#
# 1 0.010743 -0.006895 0.000500 0.000000 0.000000 0.000000
# 2 -0.006895 0.012595 -0.002042 0.000000 0.000000 0.000000
# 3 0.000500 -0.002042 0.011901 0.000000 0.000000 0.000000
# 4 0.000000 0.000000 0.000000 0.048122 0.000000 0.000000
# 5 0.000000 0.000000 0.000000 0.000000 0.028304 0.000000
# 6 0.000000 0.000000 0.000000 0.000000 0.000000 0.024094
#
#
# Mechanical properties :
#
#
# Convention : Reuss Voigt Hill
#
# Bulk Modulus (GPa) = 54.45651 63.30087 58.87869
# Shear Modulus (GPa) = 31.49520 36.26408 33.87964
#
# Velocity S-wave (km/s) = 3.92540 4.21211 4.07128
# Velocity P-wave (km/s) = 6.86931 7.39089 7.13487
#
# Compressibility (1/GPa) = 0.01836328
#
# Stress axis : x y z
#
# Youngs Moduli (GPa) = 93.08699 79.39823 84.02704
#
# Poissons Ratio (x) = 0.54746 -0.04202
# Poissons Ratio (y) = 0.64185 0.17162
# Poissons Ratio (z) = -0.04655 0.16217
#
# Static dielectric constant tensor:
#      x y z
#    x 1.763020 0.000000 0.000000 
#    y 0.000000 1.728010 0.000000 
#    z 0.000000 0.000000 1.785210 
# 
# From -- ./inp_files/32123.got.cif
#   From: 2010.05.17/outbox.cif.g08.bks.cpg/sg66_17_cif.got.tgz:32123.got - 2010.06.03 17:51:23.
