data_PCOD9495270
_publ_section_title
;
Structure prediction by ZEFSAII (Michael W. Deem and Ramdas Pophale) SiO2 
 PCOD9495270
Probable space group: C C C M
;
_chemical_formula_sum "Si O2"
_cell_formula_units_Z 80
_cell_length_a 35.795999
_cell_length_b 14.511886
_cell_length_c 10.451371
_cell_angle_alpha 90.000000
_cell_angle_beta 90.000000
_cell_angle_gamma 90.000000
_cell_volume 5429.147113
_symmetry_space_group_name_H-M "C C C M"
_symmetry_group_IT_number 66
_symmetry_cell_setting 'orthorhombic'
loop_
_space_group_symop_operation_xyz
x,y,z
-x,-y,z
x,-y,1/2-z
-x,y,1/2-z
-x,-y,-z
x,y,-z
-x,y,1/2+z
x,-y,1/2+z
1/2+x,1/2+y,z
1/2-x,1/2-y,z
1/2+x,1/2-y,1/2-z
1/2-x,1/2+y,1/2-z
1/2-x,1/2-y,-z
1/2+x,1/2+y,-z
1/2-x,1/2+y,1/2+z
1/2+x,1/2-y,1/2+z
loop_
_atom_site_type_symbol
_atom_site_label
_atom_site_fract_x
_atom_site_fract_y
_atom_site_fract_z
Si Si1 0.589920 0.388698 0.251897
Si Si2 0.160284 0.216139 0.848739
Si Si3 0.956168 0.112446 0.000000
Si Si4 0.773692 0.921703 0.147415
Si Si5 0.041427 0.110647 0.000000
Si Si6 0.315074 0.080151 0.850563
O O1 0.595927 0.500000 0.250000
O O2 0.628879 0.336344 0.268437
O O3 0.567183 0.362544 0.125306
O O4 0.564155 0.364203 0.373368
O O5 0.200105 0.166100 0.830192
O O6 0.164217 0.324204 0.821470
O O7 0.151146 0.205698 0.000000
O O8 0.998934 0.145988 0.000000
O O9 0.959433 0.000994 0.000000
O O10 0.729615 0.901815 0.159661
O O11 0.783388 0.000000 0.250000
O O12 0.780142 0.952433 0.000000
O O13 0.324391 0.000000 0.750000
O O14 0.322137 0.055137 0.000000
#
# Coordination Sequence:
#
# PCOD9495270 Si02
#       6
#    16  16   8  16   8  16
#     4  10  18  29  44  67  96 124 152 183 215 262
#     4  10  18  30  47  66  91 123 154 184 227 274
#     4   9  18  28  44  66  92 123 155 181 214 252
#     4   9  17  30  47  67  90 120 154 186 223 269
#     4   9  16  30  46  62  90 129 155 175 210 266
#     4   9  18  33  50  65  85 116 157 197 230 268
#
# _framework density 14.735279
#
# number of rings (size 3 to 8) (size 9 to 14) (size 15 to 20)
#    0.000    2.600    1.000    1.800    0.000    4.800 
#    3.600    0.000    0.000    4.800    0.000    0.000 
#    0.000    4.800    0.000    0.000    0.000    0.000 
#
# Total GULP energy -222830.711070 kJ/mol
# GULP energy per Si atom -5570.767777 kJ/mol
# Density = 1.470174 g / cm^3
# Si number density = 14.735279 Si / 1000 Ang^3
#
#
#
# Elastic Constant Matrix: (Units=GPa)
#
#
# Indices 1 2 3 4 5 6 
#
# 1 55.7627 38.4388 41.6044 0.0000 0.0000 0.0000
# 2 38.4388 68.9917 48.2749 0.0000 0.0000 0.0000
# 3 41.6044 48.2749 100.6929 0.0000 0.0000 0.0000
# 4 0.0000 0.0000 0.0000 18.3888 0.0000 0.0000
# 5 0.0000 0.0000 0.0000 0.0000 17.4249 0.0000
# 6 0.0000 0.0000 0.0000 0.0000 0.0000 10.7951
#
#
#
# Elastic Compliance Matrix: (Units=1/GPa)
#
#
# Indices 1 2 3 4 5 6 
#
# 1 0.032140 -0.012964 -0.007065 0.000000 0.000000 0.000000
# 2 -0.012964 0.027040 -0.007608 0.000000 0.000000 0.000000
# 3 -0.007065 -0.007608 0.016497 0.000000 0.000000 0.000000
# 4 0.000000 0.000000 0.000000 0.054381 0.000000 0.000000
# 5 0.000000 0.000000 0.000000 0.000000 0.057389 0.000000
# 6 0.000000 0.000000 0.000000 0.000000 0.000000 0.092634
#
#
# Mechanical properties :
#
#
# Convention : Reuss Voigt Hill
#
# Bulk Modulus (GPa) = 49.00435 53.56482 51.28458
# Shear Modulus (GPa) = 14.61321 15.79706 15.20514
#
# Velocity S-wave (km/s) = 3.15257 3.27778 3.21578
# Velocity P-wave (km/s) = 6.82497 7.12429 6.97624
#
# Compressibility (1/GPa) = 0.02040635
#
# Stress axis : x y z
#
# Youngs Moduli (GPa) = 31.11367 36.98175 60.61573
#
# Poissons Ratio (x) = 0.47942 0.42822
# Poissons Ratio (y) = 0.40335 0.46113
# Poissons Ratio (z) = 0.21980 0.28134
#
# Static dielectric constant tensor:
#      x y z
#    x 1.484250 0.000000 0.000000 
#    y 0.000000 1.455870 0.000000 
#    z 0.000000 0.000000 1.495110 
# 
# From -- ./inp_files/21265.got.cif
#   From: 2010.05.17/outbox.cif.g08.bks.cpg/sg66_11_cif.got.tgz:21265.got - 2010.06.03 17:51:23.
