data_PCOD9495995
_publ_section_title
;
Structure prediction by ZEFSAII (Michael W. Deem and Ramdas Pophale) SiO2 
 PCOD9495995
Probable space group: C C C M
;
_chemical_formula_sum "Si O2"
_cell_formula_units_Z 72
_cell_length_a 20.895479
_cell_length_b 7.418538
_cell_length_c 24.604572
_cell_angle_alpha 90.000000
_cell_angle_beta 90.000000
_cell_angle_gamma 90.000000
_cell_volume 3814.050786
_symmetry_space_group_name_H-M "C C C M"
_symmetry_group_IT_number 66
_symmetry_cell_setting 'orthorhombic'
loop_
_space_group_symop_operation_xyz
x,y,z
-x,-y,z
x,-y,1/2-z
-x,y,1/2-z
-x,-y,-z
x,y,-z
-x,y,1/2+z
x,-y,1/2+z
1/2+x,1/2+y,z
1/2-x,1/2-y,z
1/2+x,1/2-y,1/2-z
1/2-x,1/2+y,1/2-z
1/2-x,1/2-y,-z
1/2+x,1/2+y,-z
1/2-x,1/2+y,1/2+z
1/2+x,1/2-y,1/2+z
loop_
_atom_site_type_symbol
_atom_site_label
_atom_site_fract_x
_atom_site_fract_y
_atom_site_fract_z
Si Si1 0.250000 0.750000 0.392749
Si Si2 0.285862 0.939673 0.812156
Si Si3 0.616959 0.728858 0.061488
Si Si4 0.070131 0.472267 0.642437
Si Si5 0.439009 0.633387 0.937284
O O1 0.248974 0.580146 0.352201
O O2 0.310249 0.781324 0.430858
O O3 0.250000 0.750000 0.819543
O O4 0.362924 0.945555 0.825091
O O5 0.277907 0.000000 0.750000
O O6 0.615601 0.514921 0.072416
O O7 0.579603 0.851090 0.104498
O O8 0.593316 0.758027 0.000000
O O9 0.064288 0.298641 0.603243
O O10 0.000000 0.500000 0.670383
O O11 0.500000 0.500000 0.930917
O O12 0.436955 0.695559 0.000000
#
# Coordination Sequence:
#
# PCOD9495995 Si02
#       5
#     8  16  16  16  16
#     4  10  21  38  60  86 112 150 195 242 292 340
#     4  11  23  42  65  83 108 149 199 250 299 354
#     4  10  20  34  56  86 122 157 191 230 278 346
#     4  11  22  36  58  88 120 151 192 241 292 343
#     4  10  19  32  53  82 119 158 190 221 273 346
#
# _framework density 18.877566999999999
#
# number of rings (size 3 to 8) (size 9 to 14) (size 15 to 20)
#    0.000    1.556    3.333    2.333    0.000    1.333 
#    0.000    0.000    0.000   10.667    0.000    0.000 
#    0.000    0.000    0.000    0.000    0.000    0.000 
#
# Total GULP energy -200542.861473 kJ/mol
# GULP energy per Si atom -5570.635041 kJ/mol
# Density = 1.883460 g / cm^3
# Si number density = 18.877567 Si / 1000 Ang^3
#
#
#
# Elastic Constant Matrix: (Units=GPa)
#
#
# Indices 1 2 3 4 5 6 
#
# 1 69.7577 8.8094 14.1468 0.0000 0.0000 0.0000
# 2 8.8094 100.1535 28.3211 0.0000 0.0000 0.0000
# 3 14.1468 28.3211 44.7644 0.0000 0.0000 0.0000
# 4 0.0000 0.0000 0.0000 21.1393 0.0000 0.0000
# 5 0.0000 0.0000 0.0000 0.0000 5.9458 0.0000
# 6 0.0000 0.0000 0.0000 0.0000 0.0000 25.0369
#
#
#
# Elastic Compliance Matrix: (Units=1/GPa)
#
#
# Indices 1 2 3 4 5 6 
#
# 1 0.015317 0.000026 -0.004857 0.000000 0.000000 0.000000
# 2 0.000026 0.012160 -0.007702 0.000000 0.000000 0.000000
# 3 -0.004857 -0.007702 0.028747 0.000000 0.000000 0.000000
# 4 0.000000 0.000000 0.000000 0.047305 0.000000 0.000000
# 5 0.000000 0.000000 0.000000 0.000000 0.168187 0.000000
# 6 0.000000 0.000000 0.000000 0.000000 0.000000 0.039941
#
#
# Mechanical properties :
#
#
# Convention : Reuss Voigt Hill
#
# Bulk Modulus (GPa) = 32.09372 35.24781 33.67077
# Shear Modulus (GPa) = 14.40470 21.31761 17.86116
#
# Velocity S-wave (km/s) = 2.76535 3.36409 3.07930
# Velocity P-wave (km/s) = 5.21863 5.81393 5.52430
#
# Compressibility (1/GPa) = 0.03115874
#
# Stress axis : x y z
#
# Youngs Moduli (GPa) = 65.28662 82.23524 34.78639
#
# Poissons Ratio (x) = -0.00216 0.16897
# Poissons Ratio (y) = -0.00171 0.26791
# Poissons Ratio (z) = 0.31711 0.63335
#
# Static dielectric constant tensor:
#      x y z
#    x 1.750420 0.000000 0.000000 
#    y 0.000000 1.668830 0.000000 
#    z 0.000000 0.000000 1.619500 
# 
# From -- ./inp_files/61466.got.cif
#   From: 2010.05.17/outbox.cif.g08.bks.cpg/sg66_31_cif.got.tgz:61466.got - 2010.06.03 17:51:23.
