data_PCOD9495001
_publ_section_title
;
Structure prediction by ZEFSAII (Michael W. Deem and Ramdas Pophale) SiO2 
 PCOD9495001
Probable space group: C C C M
;
_chemical_formula_sum "Si O2"
_cell_formula_units_Z 80
_cell_length_a 23.560626
_cell_length_b 29.839597
_cell_length_c 8.740997
_cell_angle_alpha 90.000000
_cell_angle_beta 90.000000
_cell_angle_gamma 90.000000
_cell_volume 6145.266903
_symmetry_space_group_name_H-M "C C C M"
_symmetry_group_IT_number 66
_symmetry_cell_setting 'orthorhombic'
loop_
_space_group_symop_operation_xyz
x,y,z
-x,-y,z
x,-y,1/2-z
-x,y,1/2-z
-x,-y,-z
x,y,-z
-x,y,1/2+z
x,-y,1/2+z
1/2+x,1/2+y,z
1/2-x,1/2-y,z
1/2+x,1/2-y,1/2-z
1/2-x,1/2+y,1/2-z
1/2-x,1/2-y,-z
1/2+x,1/2+y,-z
1/2-x,1/2+y,1/2+z
1/2+x,1/2-y,1/2+z
loop_
_atom_site_type_symbol
_atom_site_label
_atom_site_fract_x
_atom_site_fract_y
_atom_site_fract_z
Si Si1 0.561839 0.048631 0.181837
Si Si2 0.834563 0.230833 0.817337
Si Si3 0.869850 0.370776 0.317186
Si Si4 0.937062 0.721297 0.183403
Si Si5 0.764581 0.315378 0.683433
O O1 0.500000 0.060782 0.250000
O O2 0.606049 0.086541 0.230732
O O3 0.576746 0.000000 0.250000
O O4 0.557306 0.045479 0.000000
O O5 0.897297 0.239846 0.753592
O O6 0.799968 0.274129 0.755381
O O7 0.798374 0.189176 0.751439
O O8 0.834100 0.230116 0.000000
O O9 0.874833 0.377707 0.500000
O O10 0.907840 0.326802 0.279065
O O11 0.804391 0.358005 0.283063
O O12 0.000000 0.722592 0.250000
O O13 0.937397 0.725155 0.000000
O O14 0.762725 0.309657 0.500000
#
# Coordination Sequence:
#
# PCOD9495001 Si02
#       5
#    16  16  16  16  16
#     4  11  21  32  45  57  74  97 124 157 194 235
#     4  10  17  25  38  55  75  97 123 154 186 224
#     4   9  18  30  43  58  75  95 123 158 195 231
#     4  10  19  29  40  55  76 101 128 159 193 228
#     4   9  16  27  41  55  73  96 121 153 189 224
#
# _framework density 13.018148999999999
#
# number of rings (size 3 to 8) (size 9 to 14) (size 15 to 20)
#    0.000    2.200    0.000    8.400    0.000    6.400 
#    0.000    0.000    0.000    0.000    0.000    0.000 
#    0.000    0.000    0.000    0.000    0.000    1.000 
#
# Total GULP energy -222884.885838 kJ/mol
# GULP energy per Si atom -5572.122146 kJ/mol
# Density = 1.298852 g / cm^3
# Si number density = 13.018149 Si / 1000 Ang^3
#
#
#
# Elastic Constant Matrix: (Units=GPa)
#
#
# Indices 1 2 3 4 5 6 
#
# 1 73.5527 40.9694 41.3087 0.0000 0.0000 0.0000
# 2 40.9694 54.8200 39.0416 0.0000 0.0000 0.0000
# 3 41.3087 39.0416 86.8874 0.0000 0.0000 0.0000
# 4 0.0000 0.0000 0.0000 16.2790 0.0000 0.0000
# 5 0.0000 0.0000 0.0000 0.0000 27.8082 0.0000
# 6 0.0000 0.0000 0.0000 0.0000 0.0000 20.7125
#
#
#
# Elastic Compliance Matrix: (Units=1/GPa)
#
#
# Indices 1 2 3 4 5 6 
#
# 1 0.024726 -0.014863 -0.005077 0.000000 0.000000 0.000000
# 2 -0.014863 0.035761 -0.009002 0.000000 0.000000 0.000000
# 3 -0.005077 -0.009002 0.017968 0.000000 0.000000 0.000000
# 4 0.000000 0.000000 0.000000 0.061429 0.000000 0.000000
# 5 0.000000 0.000000 0.000000 0.000000 0.035961 0.000000
# 6 0.000000 0.000000 0.000000 0.000000 0.000000 0.048280
#
#
# Mechanical properties :
#
#
# Convention : Reuss Voigt Hill
#
# Bulk Modulus (GPa) = 48.61450 50.87772 49.74611
# Shear Modulus (GPa) = 17.30916 19.22263 18.26590
#
# Velocity S-wave (km/s) = 3.65035 3.84683 3.74987
# Velocity P-wave (km/s) = 7.42909 7.67449 7.55279
#
# Compressibility (1/GPa) = 0.02057000
#
# Stress axis : x y z
#
# Youngs Moduli (GPa) = 40.44350 27.96380 55.65512
#
# Poissons Ratio (x) = 0.41563 0.28255
# Poissons Ratio (y) = 0.60112 0.50101
# Poissons Ratio (z) = 0.20533 0.25173
#
# Static dielectric constant tensor:
#      x y z
#    x 1.455000 0.000000 0.000000 
#    y 0.000000 1.413280 0.000000 
#    z 0.000000 0.000000 1.430910 
# 
# From -- ./inp_files/8203.got.cif
#   From: 2010.05.17/outbox.cif.g08.bks.cpg/sg66_5_cif.got.tgz:8203.got - 2010.06.03 17:51:23.
