data_PCOD9495022
_publ_section_title
;
Structure prediction by ZEFSAII (Michael W. Deem and Ramdas Pophale) SiO2 
 PCOD9495022
Probable space group: C C C M
;
_chemical_formula_sum "Si O2"
_cell_formula_units_Z 80
_cell_length_a 18.869060
_cell_length_b 37.794169
_cell_length_c 8.657504
_cell_angle_alpha 90.000000
_cell_angle_beta 90.000000
_cell_angle_gamma 90.000000
_cell_volume 6174.016234
_symmetry_space_group_name_H-M "C C C M"
_symmetry_group_IT_number 66
_symmetry_cell_setting 'orthorhombic'
loop_
_space_group_symop_operation_xyz
x,y,z
-x,-y,z
x,-y,1/2-z
-x,y,1/2-z
-x,-y,-z
x,y,-z
-x,y,1/2+z
x,-y,1/2+z
1/2+x,1/2+y,z
1/2-x,1/2-y,z
1/2+x,1/2-y,1/2-z
1/2-x,1/2+y,1/2-z
1/2-x,1/2-y,-z
1/2+x,1/2+y,-z
1/2-x,1/2+y,1/2+z
1/2+x,1/2-y,1/2+z
loop_
_atom_site_type_symbol
_atom_site_label
_atom_site_fract_x
_atom_site_fract_y
_atom_site_fract_z
Si Si1 0.286318 0.288923 0.822286
Si Si2 0.079826 0.610014 0.684234
Si Si3 0.847267 0.321105 0.182631
Si Si4 0.080538 0.536339 0.815292
Si Si5 0.421819 0.249316 0.186365
O O1 0.250000 0.250000 0.822818
O O2 0.234830 0.313098 0.721971
O O3 0.366073 0.280292 0.770145
O O4 0.286388 0.301478 0.000000
O O5 0.075745 0.607079 0.500000
O O6 0.125138 0.643695 0.735102
O O7 0.110432 0.573487 0.754438
O O8 0.000000 0.614761 0.750000
O O9 0.891783 0.287586 0.246598
O O10 0.857941 0.323866 0.000000
O O11 0.113308 0.500000 0.750000
O O12 0.000000 0.536782 0.750000
O O13 0.078897 0.535500 0.000000
O O14 0.500000 0.255476 0.250000
O O15 0.421669 0.246861 0.000000
#
# Coordination Sequence:
#
# PCOD9495022 Si02
#       5
#    16  16  16  16  16
#     4   8  16  30  43  55  73  97 122 151 188 228
#     4  11  20  30  41  55  75  98 126 160 195 227
#     4  11  20  29  41  57  76  98 125 157 193 231
#     4  10  17  27  40  55  73  95 123 153 187 223
#     4  10  19  30  43  58  76  97 124 157 192 228
#
# _framework density 12.957528999999999
#
# number of rings (size 3 to 8) (size 9 to 14) (size 15 to 20)
#    0.000    2.000    0.000    9.600    0.000    4.400 
#    0.000    0.000    0.000    0.000    0.000    0.000 
#    0.000    0.000    0.000    0.000    0.000    1.000 
#
# Total GULP energy -222979.682169 kJ/mol
# GULP energy per Si atom -5574.492054 kJ/mol
# Density = 1.292804 g / cm^3
# Si number density = 12.957529 Si / 1000 Ang^3
#
#
#
# Elastic Constant Matrix: (Units=GPa)
#
#
# Indices 1 2 3 4 5 6 
#
# 1 73.7476 31.6416 26.8513 0.0000 0.0000 0.0000
# 2 31.6416 74.1548 38.5152 0.0000 0.0000 0.0000
# 3 26.8513 38.5152 109.3705 0.0000 0.0000 0.0000
# 4 0.0000 0.0000 0.0000 21.1470 0.0000 0.0000
# 5 0.0000 0.0000 0.0000 0.0000 -110.4344 0.0000
# 6 0.0000 0.0000 0.0000 0.0000 0.0000 10.7678
#
#
#
# Elastic Compliance Matrix: (Units=1/GPa)
#
#
# Indices 1 2 3 4 5 6 
#
# 1 0.016940 -0.006203 -0.001975 0.000000 0.000000 0.000000
# 2 -0.006203 0.018775 -0.005089 0.000000 0.000000 0.000000
# 3 -0.001975 -0.005089 0.011420 0.000000 0.000000 0.000000
# 4 0.000000 0.000000 0.000000 0.047288 0.000000 0.000000
# 5 0.000000 0.000000 0.000000 0.000000 -0.009055 0.000000
# 6 0.000000 0.000000 0.000000 0.000000 0.000000 0.092869
#
#
# Mechanical properties :
#
#
# Convention : Reuss Voigt Hill
#
# Bulk Modulus (GPa) = 48.53704 50.14323 49.34014
# Shear Modulus (GPa) = 23.62535 -5.01959 9.30288
#
# Velocity S-wave (km/s) = 4.27463 -1.97035 2.68237
# Velocity P-wave (km/s) = 7.86786 5.79705 6.91046
#
# Compressibility (1/GPa) = 0.02060282
#
# Stress axis : x y z
#
# Youngs Moduli (GPa) = 59.03197 53.26219 87.56500
#
# Poissons Ratio (x) = 0.33036 0.17291
# Poissons Ratio (y) = 0.36615 0.44561
# Poissons Ratio (z) = 0.11657 0.27105
#
# Static dielectric constant tensor:
#      x y z
#    x 1.423260 0.000000 0.000000 
#    y 0.000000 1.437370 0.000000 
#    z 0.000000 0.000000 1.433860 
# 
# From -- ./inp_files/8221.got.cif
#   From: 2010.05.17/outbox.cif.g08.bks.cpg/sg66_5_cif.got.tgz:8221.got - 2010.06.03 17:51:23.
