data_PCOD9495867
_publ_section_title
;
Structure prediction by ZEFSAII (Michael W. Deem and Ramdas Pophale) SiO2 
 PCOD9495867
Probable space group: C C C M
;
_chemical_formula_sum "Si O2"
_cell_formula_units_Z 72
_cell_length_a 10.846824
_cell_length_b 26.557378
_cell_length_c 14.620143
_cell_angle_alpha 90.000000
_cell_angle_beta 90.000000
_cell_angle_gamma 90.000000
_cell_volume 4211.525251
_symmetry_space_group_name_H-M "C C C M"
_symmetry_group_IT_number 66
_symmetry_cell_setting 'orthorhombic'
loop_
_space_group_symop_operation_xyz
x,y,z
-x,-y,z
x,-y,1/2-z
-x,y,1/2-z
-x,-y,-z
x,y,-z
-x,y,1/2+z
x,-y,1/2+z
1/2+x,1/2+y,z
1/2-x,1/2-y,z
1/2+x,1/2-y,1/2-z
1/2-x,1/2+y,1/2-z
1/2-x,1/2-y,-z
1/2+x,1/2+y,-z
1/2-x,1/2+y,1/2+z
1/2+x,1/2-y,1/2+z
loop_
_atom_site_type_symbol
_atom_site_label
_atom_site_fract_x
_atom_site_fract_y
_atom_site_fract_z
Si Si1 0.500000 0.856492 0.750000
Si Si2 0.421634 0.449768 0.107931
Si Si3 0.686127 0.944210 0.764907
Si Si4 0.160476 0.100895 0.604183
Si Si5 0.679735 0.198752 0.893208
O O1 0.597818 0.897393 0.790479
O O2 0.427084 0.822157 0.824747
O O3 0.500000 0.500000 0.129334
O O4 0.296966 0.447672 0.163312
O O5 0.518108 0.405371 0.131138
O O6 0.395948 0.449083 0.000000
O O7 0.750775 0.930289 0.669256
O O8 0.632015 0.000000 0.750000
O O9 0.168814 0.081715 0.500000
O O10 0.213474 0.156636 0.607125
O O11 0.750000 0.250000 0.865894
O O12 0.636744 0.203550 0.000000
#
# Coordination Sequence:
#
# PCOD9495867 Si02
#       5
#     8  16  16  16  16
#     4  10  23  38  52  86 110 138 185 232 268 330
#     4  10  19  31  50  78 110 143 184 223 259 312
#     4  11  20  32  52  75 113 150 179 214 268 317
#     4   9  18  32  52  79 106 138 183 223 261 318
#     4   9  19  40  63  78 104 145 183 226 284 338
#
# _framework density 17.095943999999999
#
# number of rings (size 3 to 8) (size 9 to 14) (size 15 to 20)
#    0.000    2.222    2.222    1.000    0.000    0.889 
#    8.000    0.000    0.000    7.333    0.000    0.000 
#    0.000    0.000    0.000    0.000    0.000    0.000 
#
# Total GULP energy -200453.840901 kJ/mol
# GULP energy per Si atom -5568.162247 kJ/mol
# Density = 1.705703 g / cm^3
# Si number density = 17.095944 Si / 1000 Ang^3
#
#
#
# Elastic Constant Matrix: (Units=GPa)
#
#
# Indices 1 2 3 4 5 6 
#
# 1 120.2782 58.1422 56.4544 0.0000 0.0000 0.0000
# 2 58.1422 107.2010 55.9445 0.0000 0.0000 0.0000
# 3 56.4544 55.9445 76.2447 0.0000 0.0000 0.0000
# 4 0.0000 0.0000 0.0000 20.2469 0.0000 0.0000
# 5 0.0000 0.0000 0.0000 0.0000 69.7278 0.0000
# 6 0.0000 0.0000 0.0000 0.0000 0.0000 31.5003
#
#
#
# Elastic Compliance Matrix: (Units=1/GPa)
#
#
# Indices 1 2 3 4 5 6 
#
# 1 0.013468 -0.003404 -0.007474 0.000000 0.000000 0.000000
# 2 -0.003404 0.015977 -0.009203 0.000000 0.000000 0.000000
# 3 -0.007474 -0.009203 0.025403 0.000000 0.000000 0.000000
# 4 0.000000 0.000000 0.000000 0.049390 0.000000 0.000000
# 5 0.000000 0.000000 0.000000 0.000000 0.014341 0.000000
# 6 0.000000 0.000000 0.000000 0.000000 0.000000 0.031746
#
#
# Mechanical properties :
#
#
# Convention : Reuss Voigt Hill
#
# Bulk Modulus (GPa) = 68.09594 71.64512 69.87053
# Shear Modulus (GPa) = 25.59091 33.17386 29.38239
#
# Velocity S-wave (km/s) = 3.87318 4.40984 4.15019
# Velocity P-wave (km/s) = 7.74081 8.24181 7.99524
#
# Compressibility (1/GPa) = 0.01468516
#
# Stress axis : x y z
#
# Youngs Moduli (GPa) = 74.25194 62.59003 39.36604
#
# Poissons Ratio (x) = 0.21304 0.29424
# Poissons Ratio (y) = 0.25273 0.36228
# Poissons Ratio (z) = 0.55499 0.57601
#
# Static dielectric constant tensor:
#      x y z
#    x 1.582310 0.000000 0.000000 
#    y 0.000000 1.616890 0.000000 
#    z 0.000000 0.000000 1.592910 
# 
# From -- ./inp_files/26293.got.cif
#   From: 2010.05.17/outbox.cif.g08.bks.cpg/sg66_14_cif.got.tgz:26293.got - 2010.06.03 17:51:23.
