data_PCOD9495385
_publ_section_title
;
Structure prediction by ZEFSAII (Michael W. Deem and Ramdas Pophale) SiO2 
 PCOD9495385
Probable space group: C C C M
;
_chemical_formula_sum "Si O2"
_cell_formula_units_Z 96
_cell_length_a 21.567801
_cell_length_b 31.680704
_cell_length_c 8.248157
_cell_angle_alpha 90.000000
_cell_angle_beta 90.000000
_cell_angle_gamma 90.000000
_cell_volume 5635.826444
_symmetry_space_group_name_H-M "C C C M"
_symmetry_group_IT_number 66
_symmetry_cell_setting 'orthorhombic'
loop_
_space_group_symop_operation_xyz
x,y,z
-x,-y,z
x,-y,1/2-z
-x,y,1/2-z
-x,-y,-z
x,y,-z
-x,y,1/2+z
x,-y,1/2+z
1/2+x,1/2+y,z
1/2-x,1/2-y,z
1/2+x,1/2-y,1/2-z
1/2-x,1/2+y,1/2-z
1/2-x,1/2-y,-z
1/2+x,1/2+y,-z
1/2-x,1/2+y,1/2+z
1/2+x,1/2-y,1/2+z
loop_
_atom_site_type_symbol
_atom_site_label
_atom_site_fract_x
_atom_site_fract_y
_atom_site_fract_z
Si Si1 0.565787 0.248008 0.695340
Si Si2 0.729128 0.862308 0.693747
Si Si3 0.434025 0.063462 0.687800
Si Si4 0.406498 0.154305 0.190738
Si Si5 0.797674 0.455533 0.805032
Si Si6 0.302277 0.715589 0.303669
O O1 0.500000 0.266395 0.750000
O O2 0.567392 0.247229 0.500000
O O3 0.569461 0.199234 0.750999
O O4 0.629014 0.270579 0.749890
O O5 0.717941 0.860887 0.500000
O O6 0.667542 0.845950 0.783995
O O7 0.735710 0.911665 0.740717
O O8 0.783176 0.830210 0.738907
O O9 0.500000 0.048086 0.750000
O O10 0.431875 0.053370 0.500000
O O11 0.431375 0.113970 0.713808
O O12 0.368798 0.047689 0.761638
O O13 0.420694 0.149036 0.000000
O O14 0.770385 0.500000 0.750000
O O15 0.800368 0.455801 0.000000
O O16 0.301312 0.714754 0.500000
O O17 0.250000 0.750000 0.252571
#
# Coordination Sequence:
#
# PCOD9495385 Si02
#       6
#    16  16  16  16  16  16
#     4  10  21  33  47  69  99 132 167 208 246 287
#     4  10  20  33  50  75  99 123 161 209 250 293
#     4  10  20  32  44  64  90 120 161 207 249 299
#     4  10  18  31  48  66  92 130 167 206 249 290
#     4   9  20  35  49  67  92 118 155 202 250 300
#     4  10  19  35  53  72 100 134 173 208 242 294
#
# _framework density 17.033881000000001
#
# number of rings (size 3 to 8) (size 9 to 14) (size 15 to 20)
#    0.000    2.167    1.667    3.000    0.000    8.000 
#    0.000    1.667    0.000    0.000    0.000    0.000 
#    0.000    0.667    0.000    7.333    0.000    5.333 
#
# Total GULP energy -267762.641008 kJ/mol
# GULP energy per Si atom -5578.388354 kJ/mol
# Density = 1.699511 g / cm^3
# Si number density = 17.033881 Si / 1000 Ang^3
#
#
#
# Elastic Constant Matrix: (Units=GPa)
#
#
# Indices 1 2 3 4 5 6 
#
# 1 89.1675 55.2355 4.6851 0.0000 0.0000 0.0000
# 2 55.2355 120.8828 7.4746 0.0000 0.0000 0.0000
# 3 4.6851 7.4746 11.0977 0.0000 0.0000 0.0000
# 4 0.0000 0.0000 0.0000 9.0504 0.0000 0.0000
# 5 0.0000 0.0000 0.0000 0.0000 23.7998 0.0000
# 6 0.0000 0.0000 0.0000 0.0000 0.0000 -3.0781
#
#
#
# Elastic Compliance Matrix: (Units=1/GPa)
#
#
# Indices 1 2 3 4 5 6 
#
# 1 0.015680 -0.007049 -0.001872 0.000000 0.000000 0.000000
# 2 -0.007049 0.011801 -0.004972 0.000000 0.000000 0.000000
# 3 -0.001872 -0.004972 0.094248 0.000000 0.000000 0.000000
# 4 0.000000 0.000000 0.000000 0.110493 0.000000 0.000000
# 5 0.000000 0.000000 0.000000 0.000000 0.042017 0.000000
# 6 0.000000 0.000000 0.000000 0.000000 0.000000 -0.324879
#
#
# Mechanical properties :
#
#
# Convention : Reuss Voigt Hill
#
# Bulk Modulus (GPa) = 10.64484 39.54874 25.09679
# Shear Modulus (GPa) = 591.03741 16.20461 303.62101
#
# Velocity S-wave (km/s) = 18.64754 3.08769 13.36534
# Velocity P-wave (km/s) = 21.67727 5.99832 15.90415
#
# Compressibility (1/GPa) = 0.09394219
#
# Stress axis : x y z
#
# Youngs Moduli (GPa) = 63.77694 84.74011 10.61031
#
# Poissons Ratio (x) = 0.59732 0.01986
# Poissons Ratio (y) = 0.44955 0.05276
# Poissons Ratio (z) = 0.11938 0.42136
#
# Static dielectric constant tensor:
#      x y z
#    x 1.597780 0.000000 0.000000 
#    y 0.000000 1.596890 0.000000 
#    z 0.000000 0.000000 1.597610 
# 
# From -- ./inp_files/7975.got.cif
#   From: 2010.05.17/outbox.cif.g08.bks.cpg/sg66_4_cif.got.tgz:7975.got - 2010.06.03 17:51:23.
