data_PCOD9495490
_publ_section_title
;
Structure prediction by ZEFSAII (Michael W. Deem and Ramdas Pophale) SiO2 
 PCOD9495490
Probable space group: C C C M
;
_chemical_formula_sum "Si O2"
_cell_formula_units_Z 112
_cell_length_a 13.180111
_cell_length_b 25.931962
_cell_length_c 15.987263
_cell_angle_alpha 90.000000
_cell_angle_beta 90.000000
_cell_angle_gamma 90.000000
_cell_volume 5464.224872
_symmetry_space_group_name_H-M "C C C M"
_symmetry_group_IT_number 66
_symmetry_cell_setting 'orthorhombic'
loop_
_space_group_symop_operation_xyz
x,y,z
-x,-y,z
x,-y,1/2-z
-x,y,1/2-z
-x,-y,-z
x,y,-z
-x,y,1/2+z
x,-y,1/2+z
1/2+x,1/2+y,z
1/2-x,1/2-y,z
1/2+x,1/2-y,1/2-z
1/2-x,1/2+y,1/2-z
1/2-x,1/2-y,-z
1/2+x,1/2+y,-z
1/2-x,1/2+y,1/2+z
1/2+x,1/2-y,1/2+z
loop_
_atom_site_type_symbol
_atom_site_label
_atom_site_fract_x
_atom_site_fract_y
_atom_site_fract_z
Si Si1 0.091390 0.541294 0.900841
Si Si2 0.794082 0.387447 0.405478
Si Si3 0.563151 0.739395 0.407870
Si Si4 0.762388 0.946248 0.259485
Si Si5 0.496400 0.844344 0.099583
Si Si6 0.384774 0.656961 0.217254
Si Si7 0.167436 0.792446 0.381883
O O1 0.176954 0.539766 0.828797
O O2 0.050116 0.599475 0.889695
O O3 0.000000 0.500000 0.887163
O O4 0.122546 0.535845 0.000000
O O5 0.817538 0.407517 0.500000
O O6 0.778169 0.428739 0.332454
O O7 0.698856 0.349261 0.412806
O O8 0.886789 0.351143 0.375159
O O9 0.606429 0.744532 0.500000
O O10 0.563037 0.795531 0.363147
O O11 0.612528 0.690271 0.365725
O O12 0.442907 0.726024 0.409340
O O13 0.826353 0.896740 0.288346
O O14 0.822358 0.000000 0.250000
O O15 0.499732 0.834078 0.000000
O O16 0.500000 0.647910 0.250000
O O17 0.335734 0.696351 0.283439
O O18 0.250000 0.750000 0.405159
#
# Coordination Sequence:
#
# PCOD9495490 Si02
#       7
#    16  16  16  16  16  16  16
#     4  10  22  41  62  88 125 160 202 260 314 370
#     4  10  20  34  54  85 121 151 193 252 301 355
#     4  10  19  33  55  83 118 157 197 244 306 375
#     4  11  24  40  62  87 111 159 214 255 311 376
#     4   9  18  32  53  83 117 156 193 233 300 368
#     4   9  22  40  55  82 120 154 201 258 313 366
#     4  10  18  32  55  84 115 152 196 247 300 356
#
# _framework density 20.496962
#
# number of rings (size 3 to 8) (size 9 to 14) (size 15 to 20)
#    0.000    2.143    1.429    1.286    0.000    7.429 
#    2.571    0.000    0.000    3.429    0.000    7.000 
#    0.000    0.000    0.000    0.000    0.000    0.000 
#
# Total GULP energy -312065.117733 kJ/mol
# GULP energy per Si atom -5572.591388 kJ/mol
# Density = 2.045031 g / cm^3
# Si number density = 20.496962 Si / 1000 Ang^3
#
#
#
# Elastic Constant Matrix: (Units=GPa)
#
#
# Indices 1 2 3 4 5 6 
#
# 1 22.9848 29.1787 26.5658 0.0000 0.0000 0.0000
# 2 29.1787 168.6113 54.8264 0.0000 0.0000 0.0000
# 3 26.5658 54.8264 87.0519 0.0000 0.0000 0.0000
# 4 0.0000 0.0000 0.0000 11.8204 0.0000 0.0000
# 5 0.0000 0.0000 0.0000 0.0000 3.8393 0.0000
# 6 0.0000 0.0000 0.0000 0.0000 0.0000 29.2286
#
#
#
# Elastic Compliance Matrix: (Units=1/GPa)
#
#
# Indices 1 2 3 4 5 6 
#
# 1 0.072875 -0.006765 -0.017979 0.000000 0.000000 0.000000
# 2 -0.006765 0.008086 -0.003028 0.000000 0.000000 0.000000
# 3 -0.017979 -0.003028 0.018881 0.000000 0.000000 0.000000
# 4 0.000000 0.000000 0.000000 0.084599 0.000000 0.000000
# 5 0.000000 0.000000 0.000000 0.000000 0.260467 0.000000
# 6 0.000000 0.000000 0.000000 0.000000 0.000000 0.034213
#
#
# Mechanical properties :
#
#
# Convention : Reuss Voigt Hill
#
# Bulk Modulus (GPa) = 22.57429 55.53222 39.05326
# Shear Modulus (GPa) = 9.10031 20.18279 14.64155
#
# Velocity S-wave (km/s) = 2.10938 3.14135 2.67559
# Velocity P-wave (km/s) = 4.11947 6.34895 5.35160
#
# Compressibility (1/GPa) = 0.04429817
#
# Stress axis : x y z
#
# Youngs Moduli (GPa) = 13.72216 123.66710 52.96274
#
# Poissons Ratio (x) = 0.83664 0.95219
# Poissons Ratio (y) = 0.09283 0.16038
# Poissons Ratio (z) = 0.24670 0.37449
#
# Static dielectric constant tensor:
#      x y z
#    x 1.763410 0.000000 0.000000 
#    y 0.000000 1.751670 0.000000 
#    z 0.000000 0.000000 1.808970 
# 
# From -- ./inp_files/28656.got.cif
#   From: 2010.05.17/outbox.cif.g08.bks.cpg/sg66_15_cif.got.tgz:28656.got - 2010.06.03 17:51:23.
