data_PCOD9495641
_publ_section_title
;
Structure prediction by ZEFSAII (Michael W. Deem and Ramdas Pophale) SiO2 
 PCOD9495641
Probable space group: C C C M
;
_chemical_formula_sum "Si O2"
_cell_formula_units_Z 56
_cell_length_a 19.216503
_cell_length_b 5.853961
_cell_length_c 21.102505
_cell_angle_alpha 90.000000
_cell_angle_beta 90.000000
_cell_angle_gamma 90.000000
_cell_volume 2373.876902
_symmetry_space_group_name_H-M "C C C M"
_symmetry_group_IT_number 66
_symmetry_cell_setting 'orthorhombic'
loop_
_space_group_symop_operation_xyz
x,y,z
-x,-y,z
x,-y,1/2-z
-x,y,1/2-z
-x,-y,-z
x,y,-z
-x,y,1/2+z
x,-y,1/2+z
1/2+x,1/2+y,z
1/2-x,1/2-y,z
1/2+x,1/2-y,1/2-z
1/2-x,1/2+y,1/2-z
1/2-x,1/2-y,-z
1/2+x,1/2+y,-z
1/2-x,1/2+y,1/2+z
1/2+x,1/2-y,1/2+z
loop_
_atom_site_type_symbol
_atom_site_label
_atom_site_fract_x
_atom_site_fract_y
_atom_site_fract_z
Si Si1 0.610429 0.500000 0.750000
Si Si2 0.391119 0.472070 0.394336
Si Si3 0.750000 0.750000 0.356229
Si Si4 0.438389 0.176231 0.500000
Si Si5 0.183963 0.500000 0.750000
Si Si6 0.833251 0.298228 0.500000
O O1 0.582224 0.497443 0.677450
O O2 0.644483 0.242495 0.748710
O O3 0.319195 0.326409 0.390562
O O4 0.442623 0.326837 0.437261
O O5 0.367518 0.686970 0.436833
O O6 0.768679 0.533712 0.311661
O O7 0.500000 0.000000 0.500000
O O8 0.363151 0.052466 0.500000
O O9 0.750000 0.250000 0.500000
#
# Coordination Sequence:
#
# PCOD9495641 Si02
#       6
#     8  16   8   8   8   8
#     4  10  23  38  64 103 143 187 235 303 374 439
#     4  10  23  38  63 102 134 182 238 295 355 433
#     4  10  18  35  58  98 144 175 224 294 370 425
#     4  11  26  49  68  94 140 199 242 291 362 439
#     4  10  21  32  56  98 154 188 214 283 392 451
#     4  11  24  39  72 100 138 177 234 298 355 435
#
# _framework density 23.590104
#
# number of rings (size 3 to 8) (size 9 to 14) (size 15 to 20)
#    0.000    1.714    0.000    5.143   12.000    4.571 
#    0.000    0.000    0.000    5.143    0.000    0.000 
#    0.000    0.000    0.000    0.000    0.000    0.000 
#
# Total GULP energy -156083.479375 kJ/mol
# GULP energy per Si atom -5574.409978 kJ/mol
# Density = 2.353641 g / cm^3
# Si number density = 23.590104 Si / 1000 Ang^3
#
#
#
# Elastic Constant Matrix: (Units=GPa)
#
#
# Indices 1 2 3 4 5 6 
#
# 1 83.0762 40.0173 35.3228 0.0000 0.0000 0.0000
# 2 40.0173 136.0767 66.3907 0.0000 0.0000 0.0000
# 3 35.3228 66.3907 230.5088 0.0000 0.0000 0.0000
# 4 0.0000 0.0000 0.0000 13.3697 0.0000 0.0000
# 5 0.0000 0.0000 0.0000 0.0000 -60.1526 0.0000
# 6 0.0000 0.0000 0.0000 0.0000 0.0000 35.8502
#
#
#
# Elastic Compliance Matrix: (Units=1/GPa)
#
#
# Indices 1 2 3 4 5 6 
#
# 1 0.014276 -0.003643 -0.001138 0.000000 0.000000 0.000000
# 2 -0.003643 0.009480 -0.002172 0.000000 0.000000 0.000000
# 3 -0.001138 -0.002172 0.005138 0.000000 0.000000 0.000000
# 4 0.000000 0.000000 0.000000 0.074796 0.000000 0.000000
# 5 0.000000 0.000000 0.000000 0.000000 -0.016624 0.000000
# 6 0.000000 0.000000 0.000000 0.000000 0.000000 0.027894
#
#
# Mechanical properties :
#
#
# Convention : Reuss Voigt Hill
#
# Bulk Modulus (GPa) = 66.72328 81.45817 74.09072
# Shear Modulus (GPa) = 37.35189 18.34218 27.84704
#
# Velocity S-wave (km/s) = 3.98348 2.79146 3.43950
# Velocity P-wave (km/s) = 7.03586 6.70785 6.87381
#
# Compressibility (1/GPa) = 0.01498727
#
# Stress axis : x y z
#
# Youngs Moduli (GPa) = 70.04810 105.48694 194.61699
#
# Poissons Ratio (x) = 0.38427 0.22156
# Poissons Ratio (y) = 0.25517 0.42274
# Poissons Ratio (z) = 0.07974 0.22913
#
# Static dielectric constant tensor:
#      x y z
#    x 1.958710 0.000000 0.000000 
#    y 0.000000 1.928690 0.000000 
#    z 0.000000 0.000000 1.927280 
# 
# From -- ./inp_files/59157.got.cif
#   From: 2010.05.17/outbox.cif.g08.bks.cpg/sg66_30_cif.got.tgz:59157.got - 2010.06.03 17:51:23.
