data_PCOD9495374
_publ_section_title
;
Structure prediction by ZEFSAII (Michael W. Deem and Ramdas Pophale) SiO2 
 PCOD9495374
Probable space group: C C C M
;
_chemical_formula_sum "Si O2"
_cell_formula_units_Z 32
_cell_length_a 18.466581
_cell_length_b 9.361322
_cell_length_c 8.087851
_cell_angle_alpha 90.000000
_cell_angle_beta 90.000000
_cell_angle_gamma 90.000000
_cell_volume 1398.159832
_symmetry_space_group_name_H-M "C C C M"
_symmetry_group_IT_number 66
_symmetry_cell_setting 'orthorhombic'
loop_
_space_group_symop_operation_xyz
x,y,z
-x,-y,z
x,-y,1/2-z
-x,y,1/2-z
-x,-y,-z
x,y,-z
-x,y,1/2+z
x,-y,1/2+z
1/2+x,1/2+y,z
1/2-x,1/2-y,z
1/2+x,1/2-y,1/2-z
1/2-x,1/2+y,1/2-z
1/2-x,1/2-y,-z
1/2+x,1/2+y,-z
1/2-x,1/2+y,1/2+z
1/2+x,1/2-y,1/2+z
loop_
_atom_site_type_symbol
_atom_site_label
_atom_site_fract_x
_atom_site_fract_y
_atom_site_fract_z
Si Si1 0.085019 0.969432 0.500000
Si Si2 0.082258 0.691630 0.313823
Si Si3 0.835132 0.272523 0.000000
O O1 0.097355 0.859995 0.348469
O O2 0.128256 0.115123 0.500000
O O3 0.000000 0.000000 0.500000
O O4 0.088452 0.629936 0.500000
O O5 0.000000 0.673710 0.250000
O O6 0.135828 0.651336 0.166405
O O7 0.750000 0.250000 0.000000
#
# Coordination Sequence:
#
# PCOD9495374 Si02
#       3
#     8  16   8
#     4  10  18  30  55  78  93 139 187 199 241 331
#     4  10  19  29  55  74  95 137 187 199 243 324
#     4  12  22  30  42  78 120 132 158 232 272 276
#
# _framework density 22.887225999999998
#
# number of rings (size 3 to 8) (size 9 to 14) (size 15 to 20)
#    1.500    0.000    7.500    1.500    0.000    1.000 
#    0.000    0.000    0.000    0.000    0.000    0.000 
#    0.000   24.000    0.000    0.000    0.000    0.000 
#
# Total GULP energy -89283.566076 kJ/mol
# GULP energy per Si atom -5580.222880 kJ/mol
# Density = 2.283513 g / cm^3
# Si number density = 22.887226 Si / 1000 Ang^3
#
#
#
# Elastic Constant Matrix: (Units=GPa)
#
#
# Indices 1 2 3 4 5 6 
#
# 1 173.5361 9.0299 101.2690 0.0000 0.0000 0.0000
# 2 9.0299 107.4896 32.5670 0.0000 0.0000 0.0000
# 3 101.2690 32.5670 269.2567 0.0000 0.0000 0.0000
# 4 0.0000 0.0000 0.0000 32.9796 0.0000 0.0000
# 5 0.0000 0.0000 0.0000 0.0000 27.0654 0.0000
# 6 0.0000 0.0000 0.0000 0.0000 0.0000 9.3572
#
#
#
# Elastic Compliance Matrix: (Units=1/GPa)
#
#
# Indices 1 2 3 4 5 6 
#
# 1 0.007388 0.000230 -0.002807 0.000000 0.000000 0.000000
# 2 0.000230 0.009664 -0.001255 0.000000 0.000000 0.000000
# 3 -0.002807 -0.001255 0.004921 0.000000 0.000000 0.000000
# 4 0.000000 0.000000 0.000000 0.030322 0.000000 0.000000
# 5 0.000000 0.000000 0.000000 0.000000 0.036947 0.000000
# 6 0.000000 0.000000 0.000000 0.000000 0.000000 0.106869
#
#
# Mechanical properties :
#
#
# Convention : Reuss Voigt Hill
#
# Bulk Modulus (GPa) = 69.88351 92.89047 81.38699
# Shear Modulus (GPa) = 23.97546 41.04156 32.50851
#
# Velocity S-wave (km/s) = 3.24010 4.23922 3.77288
# Velocity P-wave (km/s) = 6.67816 8.03963 7.39031
#
# Compressibility (1/GPa) = 0.01430953
#
# Stress axis : x y z
#
# Youngs Moduli (GPa) = 135.34824 103.47404 203.19726
#
# Poissons Ratio (x) = -0.02376 0.57029
# Poissons Ratio (y) = -0.03108 0.25507
# Poissons Ratio (z) = 0.37987 0.12989
#
# Static dielectric constant tensor:
#      x y z
#    x 1.729340 0.000000 0.000000 
#    y 0.000000 1.908220 0.000000 
#    z 0.000000 0.000000 1.943770 
# 
# From -- ./inp_files/2995.got.cif
#   From: 2010.05.17/outbox.cif.g08.bks.cpg/sg66_2_cif.got.tgz:2995.got - 2010.06.03 17:51:23.
