data_PCOD9495804
_publ_section_title
;
Structure prediction by ZEFSAII (Michael W. Deem and Ramdas Pophale) SiO2 
 PCOD9495804
Probable space group: C C C M
;
_chemical_formula_sum "Si O2"
_cell_formula_units_Z 120
_cell_length_a 14.374518
_cell_length_b 29.149708
_cell_length_c 15.496539
_cell_angle_alpha 90.000000
_cell_angle_beta 90.000000
_cell_angle_gamma 90.000000
_cell_volume 6493.251332
_symmetry_space_group_name_H-M "C C C M"
_symmetry_group_IT_number 66
_symmetry_cell_setting 'orthorhombic'
loop_
_space_group_symop_operation_xyz
x,y,z
-x,-y,z
x,-y,1/2-z
-x,y,1/2-z
-x,-y,-z
x,y,-z
-x,y,1/2+z
x,-y,1/2+z
1/2+x,1/2+y,z
1/2-x,1/2-y,z
1/2+x,1/2-y,1/2-z
1/2-x,1/2+y,1/2-z
1/2-x,1/2-y,-z
1/2+x,1/2+y,-z
1/2-x,1/2+y,1/2+z
1/2+x,1/2-y,1/2+z
loop_
_atom_site_type_symbol
_atom_site_label
_atom_site_fract_x
_atom_site_fract_y
_atom_site_fract_z
Si Si1 0.521036 0.299614 0.899667
Si Si2 0.309165 0.924224 0.406689
Si Si3 0.513884 0.900441 0.648428
Si Si4 0.339345 0.022380 0.339601
Si Si5 0.297303 0.406798 0.732012
Si Si6 0.736337 0.327178 0.098282
Si Si7 0.000000 0.870619 0.250000
Si Si8 0.067674 0.702777 0.897524
O O1 0.632691 0.307381 0.901346
O O2 0.483700 0.337210 0.832636
O O3 0.510926 0.247219 0.866278
O O4 0.489009 0.304398 0.000000
O O5 0.271557 0.910749 0.500000
O O6 0.415171 0.907626 0.396573
O O7 0.248857 0.905939 0.326668
O O8 0.316901 0.979305 0.398741
O O9 0.500000 0.906892 0.750000
O O10 0.589685 0.939408 0.624016
O O11 0.543254 0.847892 0.634389
O O12 0.244546 0.047848 0.311973
O O13 0.378064 0.000000 0.250000
O O14 0.261385 0.365838 0.671230
O O15 0.407892 0.400826 0.736231
O O16 0.821361 0.293077 0.116277
O O17 0.752291 0.345268 0.000000
O O18 0.052523 0.703188 0.000000
#
# Coordination Sequence:
#
# PCOD9495804 Si02
#       8
#    16  16  16  16  16  16   8  16
#     4   9  19  34  53  81 114 145 188 240 281 330
#     4  11  24  37  56  85 118 156 187 221 281 351
#     4  12  20  33  56  81 116 155 189 226 267 330
#     4  10  20  36  55  76 111 145 186 237 283 322
#     4  10  20  39  58  82 113 145 190 243 283 338
#     4   9  16  31  55  82 110 145 190 239 288 326
#     4  10  22  38  63  84 104 150 197 230 302 342
#     4  10  19  30  49  81 116 146 181 230 280 328
#
# _framework density 18.480726000000001
#
# number of rings (size 3 to 8) (size 9 to 14) (size 15 to 20)
#    0.000    1.867    4.000    1.200    0.933    4.267 
#    0.000    3.000    0.000    0.800    0.000    2.800 
#    0.000    0.000    0.000    0.000    0.000    0.000 
#
# Total GULP energy -334400.502687 kJ/mol
# GULP energy per Si atom -5573.341711 kJ/mol
# Density = 1.843866 g / cm^3
# Si number density = 18.480726 Si / 1000 Ang^3
#
#
#
# Elastic Constant Matrix: (Units=GPa)
#
#
# Indices 1 2 3 4 5 6 
#
# 1 69.3178 25.6546 6.4144 0.0000 0.0000 0.0000
# 2 25.6546 76.8961 13.0192 0.0000 0.0000 0.0000
# 3 6.4144 13.0192 70.6617 0.0000 0.0000 0.0000
# 4 0.0000 0.0000 0.0000 20.9227 0.0000 0.0000
# 5 0.0000 0.0000 0.0000 0.0000 26.2427 0.0000
# 6 0.0000 0.0000 0.0000 0.0000 0.0000 18.5780
#
#
#
# Elastic Compliance Matrix: (Units=1/GPa)
#
#
# Indices 1 2 3 4 5 6 
#
# 1 0.016476 -0.005412 -0.000498 0.000000 0.000000 0.000000
# 2 -0.005412 0.015201 -0.002309 0.000000 0.000000 0.000000
# 3 -0.000498 -0.002309 0.014623 0.000000 0.000000 0.000000
# 4 0.000000 0.000000 0.000000 0.047795 0.000000 0.000000
# 5 0.000000 0.000000 0.000000 0.000000 0.038106 0.000000
# 6 0.000000 0.000000 0.000000 0.000000 0.000000 0.053827
#
#
# Mechanical properties :
#
#
# Convention : Reuss Voigt Hill
#
# Bulk Modulus (GPa) = 33.49055 34.11688 33.80371
# Shear Modulus (GPa) = 23.53819 24.60118 24.06968
#
# Velocity S-wave (km/s) = 3.57271 3.65249 3.61282
# Velocity P-wave (km/s) = 5.93129 6.02399 5.97782
#
# Compressibility (1/GPa) = 0.02985917
#
# Stress axis : x y z
#
# Youngs Moduli (GPa) = 60.69612 65.78406 68.38686
#
# Poissons Ratio (x) = 0.35604 0.03408
# Poissons Ratio (y) = 0.32850 0.15794
# Poissons Ratio (z) = 0.03025 0.15193
#
# Static dielectric constant tensor:
#      x y z
#    x 1.638580 0.000000 0.000000 
#    y 0.000000 1.679090 0.000000 
#    z 0.000000 0.000000 1.665950 
# 
# From -- ./inp_files/29053.got.cif
#   From: 2010.05.17/outbox.cif.g08.bks.cpg/sg66_15_cif.got.tgz:29053.got - 2010.06.03 17:51:23.
