data_PCOD9495402
_publ_section_title
;
Structure prediction by ZEFSAII (Michael W. Deem and Ramdas Pophale) SiO2 
 PCOD9495402
Probable space group: C C C M
;
_chemical_formula_sum "Si O2"
_cell_formula_units_Z 96
_cell_length_a 12.345310
_cell_length_b 25.832590
_cell_length_c 18.208870
_cell_angle_alpha 90.000000
_cell_angle_beta 90.000000
_cell_angle_gamma 90.000000
_cell_volume 5807.014980
_symmetry_space_group_name_H-M "C C C M"
_symmetry_group_IT_number 66
_symmetry_cell_setting 'orthorhombic'
loop_
_space_group_symop_operation_xyz
x,y,z
-x,-y,z
x,-y,1/2-z
-x,y,1/2-z
-x,-y,-z
x,y,-z
-x,y,1/2+z
x,-y,1/2+z
1/2+x,1/2+y,z
1/2-x,1/2-y,z
1/2+x,1/2-y,1/2-z
1/2-x,1/2+y,1/2-z
1/2-x,1/2-y,-z
1/2+x,1/2+y,-z
1/2-x,1/2+y,1/2+z
1/2+x,1/2-y,1/2+z
loop_
_atom_site_type_symbol
_atom_site_label
_atom_site_fract_x
_atom_site_fract_y
_atom_site_fract_z
Si Si1 0.475552 0.703276 0.832401
Si Si2 0.886245 0.614810 0.918135
Si Si3 0.741785 0.349065 0.797166
Si Si4 0.088899 0.692427 0.913251
Si Si5 0.123588 0.440120 0.230486
Si Si6 0.781715 0.192247 0.637231
O O1 0.500000 0.724212 0.750000
O O2 0.382771 0.660053 0.820954
O O3 0.438117 0.750571 0.882980
O O4 0.589927 0.683647 0.862875
O O5 0.871216 0.571868 0.855998
O O6 0.781940 0.651487 0.911389
O O7 0.987523 0.653265 0.902421
O O8 0.899456 0.593894 0.000000
O O9 0.813821 0.328164 0.863473
O O10 0.788795 0.404813 0.773108
O O11 0.756161 0.315916 0.722053
O O12 0.112925 0.693962 0.000000
O O13 0.137369 0.500000 0.250000
O O14 0.000000 0.424419 0.250000
O O15 0.750000 0.250000 0.614626
#
# Coordination Sequence:
#
# PCOD9495402 Si02
#       6
#    16  16  16  16  16  16
#     4  10  20  32  50  75 107 147 184 210 253 312
#     4  10  21  34  53  80 113 139 170 223 274 316
#     4  10  20  33  51  74 106 137 179 226 265 320
#     4  11  21  32  48  76 112 145 171 209 267 326
#     4  10  20  37  60  80  99 137 186 231 279 323
#     4  10  18  31  52  75 104 146 183 214 249 313
#
# _framework density 16.531728999999999
#
# number of rings (size 3 to 8) (size 9 to 14) (size 15 to 20)
#    0.000    1.833    3.333    2.500    2.333    2.333 
#    0.000    2.500    0.000   12.500    0.000    1.167 
#    0.000    0.000    0.000    0.000    0.000    0.000 
#
# Total GULP energy -267632.745675 kJ/mol
# GULP energy per Si atom -5575.682202 kJ/mol
# Density = 1.649410 g / cm^3
# Si number density = 16.531729 Si / 1000 Ang^3
#
#
#
# Elastic Constant Matrix: (Units=GPa)
#
#
# Indices 1 2 3 4 5 6 
#
# 1 99.7108 32.5323 45.9700 0.0000 0.0000 0.0000
# 2 32.5323 78.9292 45.6263 0.0000 0.0000 0.0000
# 3 45.9700 45.6263 90.3277 0.0000 0.0000 0.0000
# 4 0.0000 0.0000 0.0000 13.3231 0.0000 0.0000
# 5 0.0000 0.0000 0.0000 0.0000 7.1540 0.0000
# 6 0.0000 0.0000 0.0000 0.0000 0.0000 14.9658
#
#
#
# Elastic Compliance Matrix: (Units=1/GPa)
#
#
# Indices 1 2 3 4 5 6 
#
# 1 0.013375 -0.002229 -0.005681 0.000000 0.000000 0.000000
# 2 -0.002229 0.018266 -0.008092 0.000000 0.000000 0.000000
# 3 -0.005681 -0.008092 0.018050 0.000000 0.000000 0.000000
# 4 0.000000 0.000000 0.000000 0.075057 0.000000 0.000000
# 5 0.000000 0.000000 0.000000 0.000000 0.139783 0.000000
# 6 0.000000 0.000000 0.000000 0.000000 0.000000 0.066819
#
#
# Mechanical properties :
#
#
# Convention : Reuss Voigt Hill
#
# Bulk Modulus (GPa) = 56.54019 57.46944 57.00481
# Shear Modulus (GPa) = 13.54093 16.74450 15.14271
#
# Velocity S-wave (km/s) = 2.86507 3.18602 3.02980
# Velocity P-wave (km/s) = 6.72459 6.95506 6.84080
#
# Compressibility (1/GPa) = 0.01768654
#
# Stress axis : x y z
#
# Youngs Moduli (GPa) = 74.76378 54.74616 55.40252
#
# Poissons Ratio (x) = 0.12202 0.31476
# Poissons Ratio (y) = 0.16663 0.44833
# Poissons Ratio (z) = 0.42475 0.44302
#
# Static dielectric constant tensor:
#      x y z
#    x 1.581200 0.000000 0.000000 
#    y 0.000000 1.528060 0.000000 
#    z 0.000000 0.000000 1.576910 
# 
# From -- ./inp_files/38824.got.cif
#   From: 2010.05.17/outbox.cif.g08.bks.cpg/sg66_20_cif.got.tgz:38824.got - 2010.06.03 17:51:23.
