data_PCOD9495400
_publ_section_title
;
Structure prediction by ZEFSAII (Michael W. Deem and Ramdas Pophale) SiO2 
 PCOD9495400
Probable space group: C C C M
;
_chemical_formula_sum "Si O2"
_cell_formula_units_Z 112
_cell_length_a 12.099250
_cell_length_b 27.887943
_cell_length_c 14.313123
_cell_angle_alpha 90.000000
_cell_angle_beta 90.000000
_cell_angle_gamma 90.000000
_cell_volume 4829.579684
_symmetry_space_group_name_H-M "C C C M"
_symmetry_group_IT_number 66
_symmetry_cell_setting 'orthorhombic'
loop_
_space_group_symop_operation_xyz
x,y,z
-x,-y,z
x,-y,1/2-z
-x,y,1/2-z
-x,-y,-z
x,y,-z
-x,y,1/2+z
x,-y,1/2+z
1/2+x,1/2+y,z
1/2-x,1/2-y,z
1/2+x,1/2-y,1/2-z
1/2-x,1/2+y,1/2-z
1/2-x,1/2-y,-z
1/2+x,1/2+y,-z
1/2-x,1/2+y,1/2+z
1/2+x,1/2-y,1/2+z
loop_
_atom_site_type_symbol
_atom_site_label
_atom_site_fract_x
_atom_site_fract_y
_atom_site_fract_z
Si Si1 0.569168 0.070060 0.385848
Si Si2 0.698898 0.162462 0.386646
Si Si3 0.829290 0.891528 0.614963
Si Si4 0.700204 0.798576 0.392386
Si Si5 0.970908 0.258923 0.355894
Si Si6 0.832794 0.529349 0.385801
Si Si7 0.556150 0.650590 0.105221
O O1 0.568809 0.070779 0.500000
O O2 0.617502 0.120371 0.354240
O O3 0.443935 0.058113 0.357909
O O4 0.646753 0.025450 0.356691
O O5 0.703985 0.161979 0.500000
O O6 0.644030 0.213199 0.362871
O O7 0.822180 0.151784 0.351166
O O8 0.831211 0.892267 0.500000
O O9 0.748162 0.848055 0.644670
O O10 0.774750 0.941511 0.645092
O O11 0.952563 0.877911 0.646597
O O12 0.737969 0.798249 0.500000
O O13 0.750000 0.750000 0.348216
O O14 0.568575 0.793396 0.391805
O O15 0.974977 0.206856 0.401440
O O16 0.000000 0.249465 0.250000
O O17 0.831756 0.528879 0.500000
O O18 0.569777 0.631209 0.000000
#
# Coordination Sequence:
#
# PCOD9495400 Si02
#       7
#    16  16  16  16  16  16  16
#     4   8  14  26  46  75 106 135 167 208 258 308
#     4  10  20  35  55  74 101 143 183 210 253 326
#     4   9  16  28  49  76 103 133 169 210 259 308
#     4  10  18  31  52  73  96 126 167 216 256 301
#     4  12  24  35  50  73 104 134 174 221 268 315
#     4   8  13  23  44  76 110 133 158 208 267 310
#     4  10  20  36  53  72 103 143 181 215 255 318
#
# _framework density 23.190424
#
# number of rings (size 3 to 8) (size 9 to 14) (size 15 to 20)
#    0.000    2.429    1.429    3.429    0.000    4.571 
#    0.000    0.714    0.000    4.286    0.000    8.000 
#    0.000    1.143    0.000    0.000    0.000    0.000 
#
# Total GULP energy -312917.788498 kJ/mol
# GULP energy per Si atom -5587.817652 kJ/mol
# Density = 2.313764 g / cm^3
# Si number density = 23.190424 Si / 1000 Ang^3
#
#
#
# Elastic Constant Matrix: (Units=GPa)
#
#
# Indices 1 2 3 4 5 6 
#
# 1 130.7382 52.2913 1.0730 0.0000 0.0000 0.0000
# 2 52.2913 70.3447 14.9574 0.0000 0.0000 0.0000
# 3 1.0730 14.9574 55.2590 0.0000 0.0000 0.0000
# 4 0.0000 0.0000 0.0000 -84.7839 0.0000 0.0000
# 5 0.0000 0.0000 0.0000 0.0000 14.2529 0.0000
# 6 0.0000 0.0000 0.0000 0.0000 0.0000 42.3476
#
#
#
# Elastic Compliance Matrix: (Units=1/GPa)
#
#
# Indices 1 2 3 4 5 6 
#
# 1 0.011120 -0.008722 0.002145 0.000000 0.000000 0.000000
# 2 -0.008722 0.021925 -0.005765 0.000000 0.000000 0.000000
# 3 0.002145 -0.005765 0.019616 0.000000 0.000000 0.000000
# 4 0.000000 0.000000 0.000000 -0.011795 0.000000 0.000000
# 5 0.000000 0.000000 0.000000 0.000000 0.070161 0.000000
# 6 0.000000 0.000000 0.000000 0.000000 0.000000 0.023614
#
#
# Mechanical properties :
#
#
# Convention : Reuss Voigt Hill
#
# Bulk Modulus (GPa) = 35.74534 43.66502 39.70518
# Shear Modulus (GPa) = 29.64696 6.89799 18.27247
#
# Velocity S-wave (km/s) = 3.57937 1.72654 2.81006
# Velocity P-wave (km/s) = 5.70349 4.77958 5.26185
#
# Compressibility (1/GPa) = 0.02797567
#
# Stress axis : x y z
#
# Youngs Moduli (GPa) = 89.92921 45.60950 50.98007
#
# Poissons Ratio (x) = 0.39781 -0.10935
# Poissons Ratio (y) = 0.78437 0.29392
# Poissons Ratio (z) = -0.19290 0.26295
#
# Static dielectric constant tensor:
#      x y z
#    x 1.868210 0.000000 0.000000 
#    y 0.000000 1.836230 0.000000 
#    z 0.000000 0.000000 1.953780 
# 
# From -- ./inp_files/26964.got.cif
#   From: 2010.05.17/outbox.cif.g08.bks.cpg/sg66_14_cif.got.tgz:26964.got - 2010.06.03 17:51:23.
