data_PCOD9495272
_publ_section_title
;
Structure prediction by ZEFSAII (Michael W. Deem and Ramdas Pophale) SiO2 
 PCOD9495272
Probable space group: C C C M
;
_chemical_formula_sum "Si O2"
_cell_formula_units_Z 80
_cell_length_a 24.758890
_cell_length_b 23.967229
_cell_length_c 9.058362
_cell_angle_alpha 90.000000
_cell_angle_beta 90.000000
_cell_angle_gamma 90.000000
_cell_volume 5375.250004
_symmetry_space_group_name_H-M "C C C M"
_symmetry_group_IT_number 66
_symmetry_cell_setting 'orthorhombic'
loop_
_space_group_symop_operation_xyz
x,y,z
-x,-y,z
x,-y,1/2-z
-x,y,1/2-z
-x,-y,-z
x,y,-z
-x,y,1/2+z
x,-y,1/2+z
1/2+x,1/2+y,z
1/2-x,1/2-y,z
1/2+x,1/2-y,1/2-z
1/2-x,1/2+y,1/2-z
1/2-x,1/2-y,-z
1/2+x,1/2+y,-z
1/2-x,1/2+y,1/2+z
1/2+x,1/2-y,1/2+z
loop_
_atom_site_type_symbol
_atom_site_label
_atom_site_fract_x
_atom_site_fract_y
_atom_site_fract_z
Si Si1 0.444371 0.109534 0.176574
Si Si2 0.336127 0.272389 0.676143
Si Si3 0.829384 0.559006 0.822742
Si Si4 0.267996 0.840131 0.823445
Si Si5 0.556010 0.241215 0.323893
O O1 0.500000 0.089910 0.250000
O O2 0.390565 0.076813 0.221349
O O3 0.437094 0.175199 0.214190
O O4 0.449760 0.105719 0.000000
O O5 0.345519 0.274802 0.500000
O O6 0.306433 0.213270 0.706435
O O7 0.292522 0.319965 0.714489
O O8 0.392164 0.273112 0.761660
O O9 0.816335 0.500000 0.750000
O O10 0.789890 0.607149 0.764099
O O11 0.827311 0.555991 0.000000
O O12 0.270086 0.850301 0.000000
O O13 0.500000 0.259512 0.250000
O O14 0.552802 0.245647 0.500000
#
# Coordination Sequence:
#
# PCOD9495272 Si02
#       5
#    16  16  16  16  16
#     4   9  19  32  45  62  86 118 157 198 236 274
#     4   9  17  30  49  71  94 120 151 188 233 284
#     4  11  22  35  48  66  90 120 160 201 240 279
#     4   9  18  32  49  69  92 120 153 190 235 282
#     4  10  18  29  45  68  95 124 156 191 233 277
#
# _framework density 14.883029000000001
#
# number of rings (size 3 to 8) (size 9 to 14) (size 15 to 20)
#    0.000    2.400    2.000    2.400    0.000    3.600 
#    0.000    4.000    0.000    0.000    0.000    0.000 
#    0.000    0.800    0.000    8.400    0.000    3.600 
#
# Total GULP energy -223088.520740 kJ/mol
# GULP energy per Si atom -5577.213018 kJ/mol
# Density = 1.484915 g / cm^3
# Si number density = 14.883029 Si / 1000 Ang^3
#
#
#
# Elastic Constant Matrix: (Units=GPa)
#
#
# Indices 1 2 3 4 5 6 
#
# 1 118.9536 56.5101 57.6005 0.0000 0.0000 0.0000
# 2 56.5101 78.7601 41.8122 0.0000 0.0000 0.0000
# 3 57.6005 41.8122 43.3454 0.0000 0.0000 0.0000
# 4 0.0000 0.0000 0.0000 10.3193 0.0000 0.0000
# 5 0.0000 0.0000 0.0000 0.0000 29.5413 0.0000
# 6 0.0000 0.0000 0.0000 0.0000 0.0000 17.4336
#
#
#
# Elastic Compliance Matrix: (Units=1/GPa)
#
#
# Indices 1 2 3 4 5 6 
#
# 1 0.023592 -0.000581 -0.030791 0.000000 0.000000 0.000000
# 2 -0.000581 0.026038 -0.024344 0.000000 0.000000 0.000000
# 3 -0.030791 -0.024344 0.087470 0.000000 0.000000 0.000000
# 4 0.000000 0.000000 0.000000 0.096906 0.000000 0.000000
# 5 0.000000 0.000000 0.000000 0.000000 0.033851 0.000000
# 6 0.000000 0.000000 0.000000 0.000000 0.000000 0.057361
#
#
# Mechanical properties :
#
#
# Convention : Reuss Voigt Hill
#
# Bulk Modulus (GPa) = 38.95855 61.43387 50.19621
# Shear Modulus (GPa) = 11.23075 17.13458 14.18266
#
# Velocity S-wave (km/s) = 2.74998 3.39674 3.09032
# Velocity P-wave (km/s) = 6.02632 7.53334 6.82157
#
# Compressibility (1/GPa) = 0.02566831
#
# Stress axis : x y z
#
# Youngs Moduli (GPa) = 42.38650 38.40566 11.43243
#
# Poissons Ratio (x) = 0.02233 0.35201
# Poissons Ratio (y) = 0.02464 0.27831
# Poissons Ratio (z) = 1.30510 0.93496
#
# Static dielectric constant tensor:
#      x y z
#    x 1.490890 0.000000 0.000000 
#    y 0.000000 1.471920 0.000000 
#    z 0.000000 0.000000 1.489080 
# 
# From -- ./inp_files/8212.got.cif
#   From: 2010.05.17/outbox.cif.g08.bks.cpg/sg66_5_cif.got.tgz:8212.got - 2010.06.03 17:51:23.
