data_PCOD9495558
_publ_section_title
;
Structure prediction by ZEFSAII (Michael W. Deem and Ramdas Pophale) SiO2 
 PCOD9495558
Probable space group: C C C M
;
_chemical_formula_sum "Si O2"
_cell_formula_units_Z 64
_cell_length_a 18.070294
_cell_length_b 10.348002
_cell_length_c 15.575850
_cell_angle_alpha 90.000000
_cell_angle_beta 90.000000
_cell_angle_gamma 90.000000
_cell_volume 2912.550597
_symmetry_space_group_name_H-M "C C C M"
_symmetry_group_IT_number 66
_symmetry_cell_setting 'orthorhombic'
loop_
_space_group_symop_operation_xyz
x,y,z
-x,-y,z
x,-y,1/2-z
-x,y,1/2-z
-x,-y,-z
x,y,-z
-x,y,1/2+z
x,-y,1/2+z
1/2+x,1/2+y,z
1/2-x,1/2-y,z
1/2+x,1/2-y,1/2-z
1/2-x,1/2+y,1/2-z
1/2-x,1/2-y,-z
1/2+x,1/2+y,-z
1/2-x,1/2+y,1/2+z
1/2+x,1/2-y,1/2+z
loop_
_atom_site_type_symbol
_atom_site_label
_atom_site_fract_x
_atom_site_fract_y
_atom_site_fract_z
Si Si1 0.760840 0.610514 0.599621
Si Si2 0.909052 0.957987 0.594876
Si Si3 0.468974 0.290670 0.159489
Si Si4 0.818778 0.656050 0.103774
O O1 0.786408 0.632373 0.500000
O O2 0.750000 0.750000 0.642866
O O3 0.677207 0.561334 0.598021
O O4 0.807153 0.491109 0.635997
O O5 0.923837 0.014308 0.500000
O O6 0.956704 0.827345 0.605884
O O7 0.932055 0.066678 0.662276
O O8 0.500000 0.244710 0.250000
O O9 0.400962 0.205495 0.126197
O O10 0.750000 0.750000 0.131618
O O11 0.813051 0.651700 0.000000
#
# Coordination Sequence:
#
# PCOD9495558 Si02
#       4
#    16  16  16  16
#     4   9  18  33  58  91 122 153 201 268 330 378
#     4  10  18  33  58  86 119 163 214 265 320 381
#     4  11  21  33  54  86 127 163 207 262 323 387
#     4  10  18  34  61  93 122 157 213 272 322 379
#
# _framework density 21.973866999999998
#
# number of rings (size 3 to 8) (size 9 to 14) (size 15 to 20)
#    0.000    2.000    2.500    4.500    0.000    0.000 
#    0.000    2.500    0.000    9.000    0.000    0.000 
#    0.000    0.000    0.000    0.000    0.000    8.750 
#
# Total GULP energy -178176.345680 kJ/mol
# GULP energy per Si atom -5568.010802 kJ/mol
# Density = 2.192385 g / cm^3
# Si number density = 21.973867 Si / 1000 Ang^3
#
#
#
# Elastic Constant Matrix: (Units=GPa)
#
#
# Indices 1 2 3 4 5 6 
#
# 1 76.3168 33.1807 3.5934 0.0000 0.0000 0.0000
# 2 33.1807 138.0838 11.5386 0.0000 0.0000 0.0000
# 3 3.5934 11.5386 36.6056 0.0000 0.0000 0.0000
# 4 0.0000 0.0000 0.0000 5.2094 0.0000 0.0000
# 5 0.0000 0.0000 0.0000 0.0000 87.6406 0.0000
# 6 0.0000 0.0000 0.0000 0.0000 0.0000 49.4576
#
#
#
# Elastic Compliance Matrix: (Units=1/GPa)
#
#
# Indices 1 2 3 4 5 6 
#
# 1 0.014636 -0.003489 -0.000337 0.000000 0.000000 0.000000
# 2 -0.003489 0.008270 -0.002264 0.000000 0.000000 0.000000
# 3 -0.000337 -0.002264 0.028065 0.000000 0.000000 0.000000
# 4 0.000000 0.000000 0.000000 0.191960 0.000000 0.000000
# 5 0.000000 0.000000 0.000000 0.000000 0.011410 0.000000
# 6 0.000000 0.000000 0.000000 0.000000 0.000000 0.020219
#
#
# Mechanical properties :
#
#
# Convention : Reuss Voigt Hill
#
# Bulk Modulus (GPa) = 25.77951 38.62574 32.20263
# Shear Modulus (GPa) = 16.68498 41.97441 29.32969
#
# Velocity S-wave (km/s) = 2.75855 4.37532 3.65739
# Velocity P-wave (km/s) = 4.68012 6.56816 5.70282
#
# Compressibility (1/GPa) = 0.03879049
#
# Stress axis : x y z
#
# Youngs Moduli (GPa) = 68.32478 120.92612 35.63155
#
# Poissons Ratio (x) = 0.42188 0.01201
# Poissons Ratio (y) = 0.23837 0.08068
# Poissons Ratio (z) = 0.02303 0.27380
#
# Static dielectric constant tensor:
#      x y z
#    x 1.812150 0.000000 0.000000 
#    y 0.000000 1.868630 0.000000 
#    z 0.000000 0.000000 1.832410 
# 
# From -- ./inp_files/25813.got.cif
#   From: 2010.05.17/outbox.cif.g08.bks.cpg/sg66_13_cif.got.tgz:25813.got - 2010.06.03 17:51:23.
