data_PCOD9495132
_publ_section_title
;
Structure prediction by ZEFSAII (Michael W. Deem and Ramdas Pophale) SiO2 
 PCOD9495132
Probable space group: C C C M
;
_chemical_formula_sum "Si O2"
_cell_formula_units_Z 80
_cell_length_a 6.684037
_cell_length_b 20.781866
_cell_length_c 23.474264
_cell_angle_alpha 90.000000
_cell_angle_beta 90.000000
_cell_angle_gamma 90.000000
_cell_volume 3260.733986
_symmetry_space_group_name_H-M "C C C M"
_symmetry_group_IT_number 66
_symmetry_cell_setting 'orthorhombic'
loop_
_space_group_symop_operation_xyz
x,y,z
-x,-y,z
x,-y,1/2-z
-x,y,1/2-z
-x,-y,-z
x,y,-z
-x,y,1/2+z
x,-y,1/2+z
1/2+x,1/2+y,z
1/2-x,1/2-y,z
1/2+x,1/2-y,1/2-z
1/2-x,1/2+y,1/2-z
1/2-x,1/2-y,-z
1/2+x,1/2+y,-z
1/2-x,1/2+y,1/2+z
1/2+x,1/2-y,1/2+z
loop_
_atom_site_type_symbol
_atom_site_label
_atom_site_fract_x
_atom_site_fract_y
_atom_site_fract_z
Si Si1 0.100546 0.861226 0.875494
Si Si2 0.122859 0.799790 0.000000
Si Si3 0.647141 0.883740 0.885376
Si Si4 0.519360 0.232360 0.682457
Si Si5 0.762403 0.018250 0.933269
Si Si6 0.126262 0.698696 0.500000
O O1 0.873995 0.883067 0.860658
O O2 0.109266 0.794303 0.839452
O O3 0.234626 0.925505 0.884917
O O4 0.113237 0.836671 0.940253
O O5 0.126622 0.716022 0.000000
O O6 0.875472 0.780807 0.000000
O O7 0.507248 0.840132 0.843538
O O8 0.642573 0.955923 0.910592
O O9 0.632247 0.841266 0.942035
O O10 0.500000 0.229091 0.750000
O O11 0.750000 0.250000 0.666682
O O12 0.709487 0.034802 0.000000
O O13 0.000000 0.000000 0.936910
#
# Coordination Sequence:
#
# PCOD9495132 Si02
#       6
#    16   8  16  16  16   8
#     4  10  18  33  52  82 120 149 185 237 297 356
#     4  12  22  29  47  85 121 153 185 234 299 350
#     4  10  17  30  56  86 114 149 189 236 294 362
#     4  10  21  36  57  83 110 151 207 262 300 347
#     4   9  16  25  51  89 121 144 174 226 292 366
#     4  12  16  29  53  81 115 151 188 233 289 366
#
# _framework density 24.534351999999998
#
# number of rings (size 3 to 8) (size 9 to 14) (size 15 to 20)
#    0.000    1.800    6.000    0.600    0.000    0.800 
#    0.000    0.000    0.000   17.400    0.000    7.000 
#    0.000    0.000    0.000    0.000    0.000    0.000 
#
# Total GULP energy -223045.600945 kJ/mol
# GULP energy per Si atom -5576.140024 kJ/mol
# Density = 2.447851 g / cm^3
# Si number density = 24.534352 Si / 1000 Ang^3
#
#
#
# Elastic Constant Matrix: (Units=GPa)
#
#
# Indices 1 2 3 4 5 6 
#
# 1 127.6838 71.6979 4.2680 0.0000 0.0000 0.0000
# 2 71.6979 215.7019 87.7968 0.0000 0.0000 0.0000
# 3 4.2680 87.7968 126.7693 0.0000 0.0000 0.0000
# 4 0.0000 0.0000 0.0000 12.2558 0.0000 0.0000
# 5 0.0000 0.0000 0.0000 0.0000 6.5845 0.0000
# 6 0.0000 0.0000 0.0000 0.0000 0.0000 74.5227
#
#
#
# Elastic Compliance Matrix: (Units=1/GPa)
#
#
# Indices 1 2 3 4 5 6 
#
# 1 0.010306 -0.004574 0.002821 0.000000 0.000000 0.000000
# 2 -0.004574 0.008486 -0.005723 0.000000 0.000000 0.000000
# 3 0.002821 -0.005723 0.011757 0.000000 0.000000 0.000000
# 4 0.000000 0.000000 0.000000 0.081594 0.000000 0.000000
# 5 0.000000 0.000000 0.000000 0.000000 0.151872 0.000000
# 6 0.000000 0.000000 0.000000 0.000000 0.000000 0.013419
#
#
# Mechanical properties :
#
#
# Convention : Reuss Voigt Hill
#
# Bulk Modulus (GPa) = 64.11725 88.63113 76.37419
# Shear Modulus (GPa) = 16.80194 39.09875 27.95034
#
# Velocity S-wave (km/s) = 2.61977 3.99636 3.37891
# Velocity P-wave (km/s) = 5.94486 7.58276 6.81321
#
# Compressibility (1/GPa) = 0.01559643
#
# Stress axis : x y z
#
# Youngs Moduli (GPa) = 97.03282 117.84551 85.05609
#
# Poissons Ratio (x) = 0.53898 -0.23991
# Poissons Ratio (y) = 0.44379 0.48677
# Poissons Ratio (z) = -0.27369 0.67443
#
# Static dielectric constant tensor:
#      x y z
#    x 2.178880 0.000000 0.000000 
#    y 0.000000 2.061830 0.000000 
#    z 0.000000 0.000000 1.791970 
# 
# From -- ./inp_files/48454.got.cif
#   From: 2010.05.17/outbox.cif.g08.bks.cpg/sg66_25_cif.got.tgz:48454.got - 2010.06.03 17:51:23.
