data_PCOD9495274
_publ_section_title
;
Structure prediction by ZEFSAII (Michael W. Deem and Ramdas Pophale) SiO2 
 PCOD9495274
Probable space group: C C C M
;
_chemical_formula_sum "Si O2"
_cell_formula_units_Z 96
_cell_length_a 26.748032
_cell_length_b 29.158303
_cell_length_c 8.752264
_cell_angle_alpha 90.000000
_cell_angle_beta 90.000000
_cell_angle_gamma 90.000000
_cell_volume 6826.128945
_symmetry_space_group_name_H-M "C C C M"
_symmetry_group_IT_number 66
_symmetry_cell_setting 'orthorhombic'
loop_
_space_group_symop_operation_xyz
x,y,z
-x,-y,z
x,-y,1/2-z
-x,y,1/2-z
-x,-y,-z
x,y,-z
-x,y,1/2+z
x,-y,1/2+z
1/2+x,1/2+y,z
1/2-x,1/2-y,z
1/2+x,1/2-y,1/2-z
1/2-x,1/2+y,1/2-z
1/2-x,1/2-y,-z
1/2+x,1/2+y,-z
1/2-x,1/2+y,1/2+z
1/2+x,1/2-y,1/2+z
loop_
_atom_site_type_symbol
_atom_site_label
_atom_site_fract_x
_atom_site_fract_y
_atom_site_fract_z
Si Si1 0.801601 0.720583 0.676866
Si Si2 0.245240 0.138885 0.180674
Si Si3 0.292029 0.451956 0.682257
Si Si4 0.052585 0.858838 0.181864
Si Si5 0.356776 0.697079 0.319416
Si Si6 0.096039 0.951227 0.683270
O O1 0.814862 0.713656 0.500000
O O2 0.750000 0.750000 0.680870
O O3 0.787815 0.673025 0.758088
O O4 0.841739 0.752514 0.761108
O O5 0.241226 0.091143 0.269098
O O6 0.192207 0.165119 0.204996
O O7 0.250623 0.131253 0.000000
O O8 0.272890 0.500000 0.750000
O O9 0.297430 0.454794 0.500000
O O10 0.347003 0.445217 0.756949
O O11 0.097254 0.825097 0.230393
O O12 0.065014 0.908426 0.254604
O O13 0.000000 0.842749 0.250000
O O14 0.050117 0.862909 0.000000
O O15 0.367136 0.697343 0.500000
O O16 0.095859 0.952089 0.500000
O O17 0.078312 0.000000 0.750000
#
# Coordination Sequence:
#
# PCOD9495274 Si02
#       6
#    16  16  16  16  16  16
#     4   9  17  28  44  66  89 111 139 171 211 256
#     4  10  18  29  46  66  89 113 142 176 214 257
#     4  11  20  30  45  64  87 115 146 179 218 261
#     4  12  24  37  51  66  84 109 142 181 225 270
#     4  10  19  32  48  65  87 111 139 176 218 261
#     4  11  21  35  50  65  82 106 140 180 225 269
#
# _framework density 14.063608
#
# number of rings (size 3 to 8) (size 9 to 14) (size 15 to 20)
#    0.000    1.500    1.667    7.000    0.000    3.667 
#    0.000    1.667    0.000    0.000    0.000    0.000 
#    0.000    0.000    0.000    0.000    0.000    0.833 
#
# Total GULP energy -268039.154018 kJ/mol
# GULP energy per Si atom -5584.149042 kJ/mol
# Density = 1.403160 g / cm^3
# Si number density = 14.063608 Si / 1000 Ang^3
#
#
#
# Elastic Constant Matrix: (Units=GPa)
#
#
# Indices 1 2 3 4 5 6 
#
# 1 37.1479 32.4607 34.4182 0.0000 0.0000 0.0000
# 2 32.4607 71.7364 54.8446 0.0000 0.0000 0.0000
# 3 34.4182 54.8446 135.3196 0.0000 0.0000 0.0000
# 4 0.0000 0.0000 0.0000 26.7454 0.0000 0.0000
# 5 0.0000 0.0000 0.0000 0.0000 15.6435 0.0000
# 6 0.0000 0.0000 0.0000 0.0000 0.0000 11.4581
#
#
#
# Elastic Compliance Matrix: (Units=1/GPa)
#
#
# Indices 1 2 3 4 5 6 
#
# 1 0.046571 -0.017413 -0.004788 0.000000 0.000000 0.000000
# 2 -0.017413 0.026710 -0.006396 0.000000 0.000000 0.000000
# 3 -0.004788 -0.006396 0.011200 0.000000 0.000000 0.000000
# 4 0.000000 0.000000 0.000000 0.037390 0.000000 0.000000
# 5 0.000000 0.000000 0.000000 0.000000 0.063924 0.000000
# 6 0.000000 0.000000 0.000000 0.000000 0.000000 0.087275
#
#
# Mechanical properties :
#
#
# Convention : Reuss Voigt Hill
#
# Bulk Modulus (GPa) = 36.64813 54.18344 45.41579
# Shear Modulus (GPa) = 14.73362 18.93474 16.83418
#
# Velocity S-wave (km/s) = 3.24024 3.67326 3.46353
# Velocity P-wave (km/s) = 6.33358 7.52340 6.95399
#
# Compressibility (1/GPa) = 0.02728652
#
# Stress axis : x y z
#
# Youngs Moduli (GPa) = 21.47237 37.43980 89.28496
#
# Poissons Ratio (x) = 0.65194 0.42748
# Poissons Ratio (y) = 0.37390 0.57109
# Poissons Ratio (z) = 0.10281 0.23948
#
# Static dielectric constant tensor:
#      x y z
#    x 1.442400 0.000000 0.000000 
#    y 0.000000 1.468690 0.000000 
#    z 0.000000 0.000000 1.466330 
# 
# From -- ./inp_files/9278.got.cif
#   From: 2010.05.17/outbox.cif.g08.bks.cpg/sg66_5_cif.got.tgz:9278.got - 2010.06.03 17:51:23.
