data_PCOD9495848
_publ_section_title
;
Structure prediction by ZEFSAII (Michael W. Deem and Ramdas Pophale) SiO2 
 PCOD9495848
Probable space group: C C C M
;
_chemical_formula_sum "Si O2"
_cell_formula_units_Z 72
_cell_length_a 27.380613
_cell_length_b 5.267378
_cell_length_c 25.790383
_cell_angle_alpha 90.000000
_cell_angle_beta 90.000000
_cell_angle_gamma 90.000000
_cell_volume 3719.593192
_symmetry_space_group_name_H-M "C C C M"
_symmetry_group_IT_number 66
_symmetry_cell_setting 'orthorhombic'
loop_
_space_group_symop_operation_xyz
x,y,z
-x,-y,z
x,-y,1/2-z
-x,y,1/2-z
-x,-y,-z
x,y,-z
-x,y,1/2+z
x,-y,1/2+z
1/2+x,1/2+y,z
1/2-x,1/2-y,z
1/2+x,1/2-y,1/2-z
1/2-x,1/2+y,1/2-z
1/2-x,1/2-y,-z
1/2+x,1/2+y,-z
1/2-x,1/2+y,1/2+z
1/2+x,1/2-y,1/2+z
loop_
_atom_site_type_symbol
_atom_site_label
_atom_site_fract_x
_atom_site_fract_y
_atom_site_fract_z
Si Si1 0.215871 0.501833 0.000000
Si Si2 0.112697 0.927085 0.062497
Si Si3 0.191702 0.735114 0.399250
Si Si4 0.690398 0.754268 0.781029
Si Si5 0.444729 0.061741 0.063091
O O1 0.250000 0.250000 0.000000
O O2 0.184718 0.461890 0.052685
O O3 0.250000 0.750000 0.000000
O O4 0.165824 0.008047 0.082128
O O5 0.077408 0.164977 0.077090
O O6 0.089144 0.668241 0.081954
O O7 0.115012 0.918083 0.000000
O O8 0.250000 0.750000 0.394457
O O9 0.174001 0.705044 0.340430
O O10 0.675281 0.500000 0.750000
O O11 0.750000 0.750000 0.781335
O O12 0.674333 0.000000 0.750000
O O13 0.500000 0.000000 0.079335
O O14 0.444667 0.056389 0.000000
#
# Coordination Sequence:
#
# PCOD9495848 Si02
#       5
#     8  16  16  16  16
#     4  10  22  34  48  72 105 150 183 210 264 326
#     4  10  19  31  49  74 102 138 177 211 262 324
#     4  10  21  36  52  76 112 147 182 224 267 327
#     4   9  19  34  52  70  94 136 187 230 266 300
#     4   9  18  32  49  69  98 135 176 220 261 309
#
# _framework density 19.356957000000001
#
# number of rings (size 3 to 8) (size 9 to 14) (size 15 to 20)
#    0.000    2.444    1.111    0.667    0.000   14.222 
#    0.000    0.000    0.000    0.000    0.000    0.000 
#    0.000   13.333    0.000    0.000    0.000    0.000 
#
# Total GULP energy -200727.680912 kJ/mol
# GULP energy per Si atom -5575.768914 kJ/mol
# Density = 1.931290 g / cm^3
# Si number density = 19.356957 Si / 1000 Ang^3
#
#
#
# Elastic Constant Matrix: (Units=GPa)
#
#
# Indices 1 2 3 4 5 6 
#
# 1 84.3857 25.7173 1.0986 0.0000 0.0000 0.0000
# 2 25.7173 130.1517 56.3743 0.0000 0.0000 0.0000
# 3 1.0986 56.3743 138.8042 0.0000 0.0000 0.0000
# 4 0.0000 0.0000 0.0000 8.6676 0.0000 0.0000
# 5 0.0000 0.0000 0.0000 0.0000 -5.1317 0.0000
# 6 0.0000 0.0000 0.0000 0.0000 0.0000 24.3859
#
#
#
# Elastic Compliance Matrix: (Units=1/GPa)
#
#
# Indices 1 2 3 4 5 6 
#
# 1 0.012751 -0.003004 0.001119 0.000000 0.000000 0.000000
# 2 -0.003004 0.010031 -0.004050 0.000000 0.000000 0.000000
# 3 0.001119 -0.004050 0.008841 0.000000 0.000000 0.000000
# 4 0.000000 0.000000 0.000000 0.115372 0.000000 0.000000
# 5 0.000000 0.000000 0.000000 0.000000 -0.194867 0.000000
# 6 0.000000 0.000000 0.000000 0.000000 0.000000 0.041007
#
#
# Mechanical properties :
#
#
# Convention : Reuss Voigt Hill
#
# Bulk Modulus (GPa) = 50.62696 57.74689 54.18693
# Shear Modulus (GPa) = 431.39580 23.59447 227.49514
#
# Velocity S-wave (km/s) = 14.94481 3.49508 10.85272
# Velocity P-wave (km/s) = 18.00021 6.79594 13.60501
#
# Compressibility (1/GPa) = 0.01975232
#
# Stress axis : x y z
#
# Youngs Moduli (GPa) = 78.42279 99.68694 113.11482
#
# Poissons Ratio (x) = 0.29950 -0.12661
# Poissons Ratio (y) = 0.23562 0.45816
# Poissons Ratio (z) = -0.08778 0.40377
#
# Static dielectric constant tensor:
#      x y z
#    x 2.092010 0.000000 0.000000 
#    y 0.000000 1.760860 0.000000 
#    z 0.000000 0.000000 1.711540 
# 
# From -- ./inp_files/66207.got.cif
#   From: 2010.05.17/outbox.cif.g08.bks.cpg/sg66_34_cif.got.tgz:66207.got - 2010.06.03 17:51:23.
