data_PCOD9495303
_publ_section_title
;
Structure prediction by ZEFSAII (Michael W. Deem and Ramdas Pophale) SiO2 
 PCOD9495303
Probable space group: C C C M
;
_chemical_formula_sum "Si O2"
_cell_formula_units_Z 96
_cell_length_a 8.066458
_cell_length_b 24.900851
_cell_length_c 25.818407
_cell_angle_alpha 90.000000
_cell_angle_beta 90.000000
_cell_angle_gamma 90.000000
_cell_volume 5185.928315
_symmetry_space_group_name_H-M "C C C M"
_symmetry_group_IT_number 66
_symmetry_cell_setting 'orthorhombic'
loop_
_space_group_symop_operation_xyz
x,y,z
-x,-y,z
x,-y,1/2-z
-x,y,1/2-z
-x,-y,-z
x,y,-z
-x,y,1/2+z
x,-y,1/2+z
1/2+x,1/2+y,z
1/2-x,1/2-y,z
1/2+x,1/2-y,1/2-z
1/2-x,1/2+y,1/2-z
1/2-x,1/2-y,-z
1/2+x,1/2+y,-z
1/2-x,1/2+y,1/2+z
1/2+x,1/2-y,1/2+z
loop_
_atom_site_type_symbol
_atom_site_label
_atom_site_fract_x
_atom_site_fract_y
_atom_site_fract_z
Si Si1 0.623955 0.453736 0.135822
Si Si2 0.522347 0.852560 0.139193
Si Si3 0.947805 0.749865 0.193754
Si Si4 0.383338 0.630774 0.312484
Si Si5 0.670367 0.923464 0.722155
Si Si6 0.579980 0.058726 0.938298
O O1 0.500000 0.500000 0.121608
O O2 0.507474 0.406813 0.156639
O O3 0.741306 0.467483 0.185616
O O4 0.739262 0.441212 0.087488
O O5 0.489844 0.788764 0.147668
O O6 0.713187 0.859468 0.156135
O O7 0.398832 0.880118 0.180752
O O8 0.502902 0.888605 0.087880
O O9 0.750000 0.750000 0.193147
O O10 0.982812 0.813107 0.192883
O O11 0.000000 0.727164 0.250000
O O12 0.306166 0.602671 0.260784
O O13 0.500000 0.940377 0.750000
O O14 0.500000 0.000000 0.924421
O O15 0.579885 0.062687 0.000000
#
# Coordination Sequence:
#
# PCOD9495303 Si02
#       6
#    16  16  16  16  16  16
#     4  11  22  35  53  79 108 136 176 227 274 311
#     4   9  18  34  55  79 105 140 183 221 255 307
#     4  10  18  29  51  80 113 150 183 209 243 301
#     4  10  19  32  51  82 118 148 179 213 255 305
#     4   9  18  33  49  72 112 152 182 206 244 313
#     4  10  22  42  63  77  95 131 178 226 277 331
#
# _framework density 18.511631999999999
#
# number of rings (size 3 to 8) (size 9 to 14) (size 15 to 20)
#    0.000    2.167    0.000    5.000    0.000    3.000 
#    0.000    6.667    0.000   10.000    0.000    0.000 
#    0.000    0.000    0.000    0.000    0.000    0.000 
#
# Total GULP energy -267330.751064 kJ/mol
# GULP energy per Si atom -5569.390647 kJ/mol
# Density = 1.846950 g / cm^3
# Si number density = 18.511632 Si / 1000 Ang^3
#
#
#
# Elastic Constant Matrix: (Units=GPa)
#
#
# Indices 1 2 3 4 5 6 
#
# 1 70.3180 21.1065 30.8784 0.0000 0.0000 0.0000
# 2 21.1065 88.6846 51.8208 0.0000 0.0000 0.0000
# 3 30.8784 51.8208 96.2664 0.0000 0.0000 0.0000
# 4 0.0000 0.0000 0.0000 13.6800 0.0000 0.0000
# 5 0.0000 0.0000 0.0000 0.0000 17.1450 0.0000
# 6 0.0000 0.0000 0.0000 0.0000 0.0000 6.7627
#
#
#
# Elastic Compliance Matrix: (Units=1/GPa)
#
#
# Indices 1 2 3 4 5 6 
#
# 1 0.016644 -0.001228 -0.004678 0.000000 0.000000 0.000000
# 2 -0.001228 0.016541 -0.008510 0.000000 0.000000 0.000000
# 3 -0.004678 -0.008510 0.016469 0.000000 0.000000 0.000000
# 4 0.000000 0.000000 0.000000 0.073099 0.000000 0.000000
# 5 0.000000 0.000000 0.000000 0.000000 0.058326 0.000000
# 6 0.000000 0.000000 0.000000 0.000000 0.000000 0.147870
#
#
# Mechanical properties :
#
#
# Convention : Reuss Voigt Hill
#
# Bulk Modulus (GPa) = 48.02496 51.43113 49.72804
# Shear Modulus (GPa) = 13.70908 17.61509 15.66209
#
# Velocity S-wave (km/s) = 2.72429 3.08810 2.91188
# Velocity P-wave (km/s) = 5.99125 6.36856 6.18279
#
# Compressibility (1/GPa) = 0.02082250
#
# Stress axis : x y z
#
# Youngs Moduli (GPa) = 60.08269 60.45626 60.71882
#
# Poissons Ratio (x) = 0.07423 0.28402
# Poissons Ratio (y) = 0.07377 0.51673
# Poissons Ratio (z) = 0.28105 0.51450
#
# Static dielectric constant tensor:
#      x y z
#    x 1.665610 0.000000 0.000000 
#    y 0.000000 1.750490 0.000000 
#    z 0.000000 0.000000 1.631030 
# 
# From -- ./inp_files/55669.got.cif
#   From: 2010.05.17/outbox.cif.g08.bks.cpg/sg66_28_cif.got.tgz:55669.got - 2010.06.03 17:51:23.
