data_PCOD9495193
_publ_section_title
;
Structure prediction by ZEFSAII (Michael W. Deem and Ramdas Pophale) SiO2 
 PCOD9495193
Probable space group: C C C M
;
_chemical_formula_sum "Si O2"
_cell_formula_units_Z 80
_cell_length_a 12.414881
_cell_length_b 15.398120
_cell_length_c 19.145979
_cell_angle_alpha 90.000000
_cell_angle_beta 90.000000
_cell_angle_gamma 90.000000
_cell_volume 3660.056917
_symmetry_space_group_name_H-M "C C C M"
_symmetry_group_IT_number 66
_symmetry_cell_setting 'orthorhombic'
loop_
_space_group_symop_operation_xyz
x,y,z
-x,-y,z
x,-y,1/2-z
-x,y,1/2-z
-x,-y,-z
x,y,-z
-x,y,1/2+z
x,-y,1/2+z
1/2+x,1/2+y,z
1/2-x,1/2-y,z
1/2+x,1/2-y,1/2-z
1/2-x,1/2+y,1/2-z
1/2-x,1/2-y,-z
1/2+x,1/2+y,-z
1/2-x,1/2+y,1/2+z
1/2+x,1/2-y,1/2+z
loop_
_atom_site_type_symbol
_atom_site_label
_atom_site_fract_x
_atom_site_fract_y
_atom_site_fract_z
Si Si1 0.618555 0.826894 0.579938
Si Si2 0.293503 0.467047 0.169442
Si Si3 0.444974 0.892661 0.324651
Si Si4 0.646474 0.353740 0.867045
Si Si5 0.366843 0.707171 0.714970
O O1 0.643244 0.848337 0.500000
O O2 0.528494 0.890003 0.611706
O O3 0.598560 0.722223 0.584311
O O4 0.723886 0.840227 0.627695
O O5 0.298849 0.500000 0.250000
O O6 0.166122 0.443622 0.160079
O O7 0.352767 0.541936 0.124945
O O8 0.354411 0.375392 0.165111
O O9 0.500000 0.915330 0.250000
O O10 0.424851 0.790008 0.315443
O O11 0.601141 0.329665 0.790671
O O12 0.250000 0.750000 0.727746
#
# Coordination Sequence:
#
# PCOD9495193 Si02
#       5
#    16  16  16  16  16
#     4  11  22  35  55  78 111 151 186 219 277 350
#     4   9  19  30  54  83 109 136 182 234 280 325
#     4  11  19  33  56  83 112 141 181 236 284 324
#     4  10  17  35  52  75 109 145 184 219 274 331
#     4   9  15  30  53  81 106 138 176 225 273 331
#
# _framework density 21.857583000000002
#
# number of rings (size 3 to 8) (size 9 to 14) (size 15 to 20)
#    0.000    2.000    4.000    3.600    0.000    2.800 
#    0.000    4.000    0.000    9.000    0.000    0.000 
#    0.000    0.000    0.000    0.000    0.000    0.000 
#
# Total GULP energy -222800.587450 kJ/mol
# GULP energy per Si atom -5570.014686 kJ/mol
# Density = 2.180783 g / cm^3
# Si number density = 21.857583 Si / 1000 Ang^3
#
#
#
# Elastic Constant Matrix: (Units=GPa)
#
#
# Indices 1 2 3 4 5 6 
#
# 1 37.5531 10.6546 6.7963 0.0000 0.0000 0.0000
# 2 10.6546 159.8026 6.3763 0.0000 0.0000 0.0000
# 3 6.7963 6.3763 44.9407 0.0000 0.0000 0.0000
# 4 0.0000 0.0000 0.0000 3.0865 0.0000 0.0000
# 5 0.0000 0.0000 0.0000 0.0000 -0.4808 0.0000
# 6 0.0000 0.0000 0.0000 0.0000 0.0000 36.6885
#
#
#
# Elastic Compliance Matrix: (Units=1/GPa)
#
#
# Indices 1 2 3 4 5 6 
#
# 1 0.027829 -0.001697 -0.003968 0.000000 0.000000 0.000000
# 2 -0.001697 0.006397 -0.000651 0.000000 0.000000 0.000000
# 3 -0.003968 -0.000651 0.022944 0.000000 0.000000 0.000000
# 4 0.000000 0.000000 0.000000 0.323991 0.000000 0.000000
# 5 0.000000 0.000000 0.000000 0.000000 -2.079844 0.000000
# 6 0.000000 0.000000 0.000000 0.000000 0.000000 0.027256
#
#
# Mechanical properties :
#
#
# Convention : Reuss Voigt Hill
#
# Bulk Modulus (GPa) = 22.45279 32.21674 27.33476
# Shear Modulus (GPa) = -3.04145 22.42345 9.69100
#
# Velocity S-wave (km/s) = -1.18089 3.20642 2.10792
# Velocity P-wave (km/s) = 2.90435 5.33663 4.29621
#
# Compressibility (1/GPa) = 0.04453790
#
# Stress axis : x y z
#
# Youngs Moduli (GPa) = 35.93435 156.32700 43.58449
#
# Poissons Ratio (x) = 0.26530 0.17293
# Poissons Ratio (y) = 0.06098 0.02837
# Poissons Ratio (z) = 0.14257 0.10176
#
# Static dielectric constant tensor:
#      x y z
#    x 1.925970 0.000000 0.000000 
#    y 0.000000 1.897120 0.000000 
#    z 0.000000 0.000000 1.738440 
# 
# From -- ./inp_files/49744.got.cif
#   From: 2010.05.17/outbox.cif.g08.bks.cpg/sg66_25_cif.got.tgz:49744.got - 2010.06.03 17:51:23.
