data_PCOD9495438
_publ_section_title
;
Structure prediction by ZEFSAII (Michael W. Deem and Ramdas Pophale) SiO2 
 PCOD9495438
Probable space group: C C C M
;
_chemical_formula_sum "Si O2"
_cell_formula_units_Z 96
_cell_length_a 19.631635
_cell_length_b 30.353619
_cell_length_c 8.099487
_cell_angle_alpha 90.000000
_cell_angle_beta 90.000000
_cell_angle_gamma 90.000000
_cell_volume 4826.412778
_symmetry_space_group_name_H-M "C C C M"
_symmetry_group_IT_number 66
_symmetry_cell_setting 'orthorhombic'
loop_
_space_group_symop_operation_xyz
x,y,z
-x,-y,z
x,-y,1/2-z
-x,y,1/2-z
-x,-y,-z
x,y,-z
-x,y,1/2+z
x,-y,1/2+z
1/2+x,1/2+y,z
1/2-x,1/2-y,z
1/2+x,1/2-y,1/2-z
1/2-x,1/2+y,1/2-z
1/2-x,1/2-y,-z
1/2+x,1/2+y,-z
1/2-x,1/2+y,1/2+z
1/2+x,1/2-y,1/2+z
loop_
_atom_site_type_symbol
_atom_site_label
_atom_site_fract_x
_atom_site_fract_y
_atom_site_fract_z
Si Si1 0.813895 0.120072 0.690244
Si Si2 0.782374 0.547209 0.695185
Si Si3 0.570011 0.077037 0.805346
Si Si4 0.424916 0.176801 0.808698
Si Si5 0.421719 0.450210 0.802322
Si Si6 0.725512 0.201122 0.702231
O O1 0.832359 0.129806 0.500000
O O2 0.752360 0.085418 0.701200
O O3 0.875512 0.090383 0.763531
O O4 0.780625 0.164665 0.762018
O O5 0.756029 0.500000 0.750000
O O6 0.770506 0.554327 0.500000
O O7 0.862637 0.549843 0.727677
O O8 0.500000 0.055289 0.750000
O O9 0.575340 0.124072 0.715487
O O10 0.566873 0.086400 0.000000
O O11 0.500000 0.192220 0.750000
O O12 0.352157 0.192909 0.736655
O O13 0.422674 0.188117 0.000000
O O14 0.401453 0.500000 0.750000
O O15 0.500000 0.444391 0.750000
O O16 0.416764 0.449382 0.000000
O O17 0.724158 0.197055 0.500000
O O18 0.750000 0.250000 0.743292
#
# Coordination Sequence:
#
# PCOD9495438 Si02
#       6
#    16  16  16  16  16  16
#     4  10  20  36  57  80 107 141 182 226 271 323
#     4  11  23  35  51  76 107 142 179 221 266 318
#     4  10  20  33  50  73 102 138 178 218 261 309
#     4  10  18  31  55  79 105 140 179 224 266 318
#     4  10  20  34  55  81 110 143 180 222 268 331
#     4   9  18  34  57  83 108 141 184 227 274 329
#
# _framework density 19.890549
#
# number of rings (size 3 to 8) (size 9 to 14) (size 15 to 20)
#    0.000    2.000    1.667    4.000    0.000    5.000 
#    0.000    2.500    0.000    4.500    0.000    0.000 
#    0.000    0.000    0.000    0.000    0.000    0.000 
#
# Total GULP energy -267575.914493 kJ/mol
# GULP energy per Si atom -5574.498219 kJ/mol
# Density = 1.984528 g / cm^3
# Si number density = 19.890549 Si / 1000 Ang^3
#
#
#
# Elastic Constant Matrix: (Units=GPa)
#
#
# Indices 1 2 3 4 5 6 
#
# 1 149.6890 61.6482 19.1613 0.0000 0.0000 0.0000
# 2 61.6482 126.0140 1.5443 0.0000 0.0000 0.0000
# 3 19.1613 1.5443 8.4329 0.0000 0.0000 0.0000
# 4 0.0000 0.0000 0.0000 6.6474 0.0000 0.0000
# 5 0.0000 0.0000 0.0000 0.0000 -19.0596 0.0000
# 6 0.0000 0.0000 0.0000 0.0000 0.0000 23.9226
#
#
#
# Elastic Compliance Matrix: (Units=1/GPa)
#
#
# Indices 1 2 3 4 5 6 
#
# 1 0.012616 -0.005834 -0.027597 0.000000 0.000000 0.000000
# 2 -0.005834 0.010651 0.011305 0.000000 0.000000 0.000000
# 3 -0.027597 0.011305 0.179219 0.000000 0.000000 0.000000
# 4 0.000000 0.000000 0.000000 0.150434 0.000000 0.000000
# 5 0.000000 0.000000 0.000000 0.000000 -0.052467 0.000000
# 6 0.000000 0.000000 0.000000 0.000000 0.000000 0.041802
#
#
# Mechanical properties :
#
#
# Convention : Reuss Voigt Hill
#
# Bulk Modulus (GPa) = 6.31977 49.87151 28.09564
# Shear Modulus (GPa) = 11.38300 15.75421 13.56861
#
# Velocity S-wave (km/s) = 2.39484 2.81738 2.61466
# Velocity P-wave (km/s) = 3.29107 5.97586 4.82401
#
# Compressibility (1/GPa) = 0.15823364
#
# Stress axis : x y z
#
# Youngs Moduli (GPa) = 79.26641 93.88792 5.57976
#
# Poissons Ratio (x) = 0.54771 0.15399
# Poissons Ratio (y) = 0.46241 -0.06308
# Poissons Ratio (z) = 2.18753 -1.06138
#
# Static dielectric constant tensor:
#      x y z
#    x 1.746110 0.000000 0.000000 
#    y 0.000000 1.671690 0.000000 
#    z 0.000000 0.000000 1.722890 
# 
# From -- ./inp_files/8024.got.cif
#   From: 2010.05.17/outbox.cif.g08.bks.cpg/sg66_5_cif.got.tgz:8024.got - 2010.06.03 17:51:23.
