data_PCOD9495088
_publ_section_title
;
Structure prediction by ZEFSAII (Michael W. Deem and Ramdas Pophale) SiO2 
 PCOD9495088
Probable space group: C C C M
;
_chemical_formula_sum "Si O2"
_cell_formula_units_Z 112
_cell_length_a 24.048602
_cell_length_b 13.154218
_cell_length_c 19.858730
_cell_angle_alpha 90.000000
_cell_angle_beta 90.000000
_cell_angle_gamma 90.000000
_cell_volume 6282.121636
_symmetry_space_group_name_H-M "C C C M"
_symmetry_group_IT_number 66
_symmetry_cell_setting 'orthorhombic'
loop_
_space_group_symop_operation_xyz
x,y,z
-x,-y,z
x,-y,1/2-z
-x,y,1/2-z
-x,-y,-z
x,y,-z
-x,y,1/2+z
x,-y,1/2+z
1/2+x,1/2+y,z
1/2-x,1/2-y,z
1/2+x,1/2-y,1/2-z
1/2-x,1/2+y,1/2-z
1/2-x,1/2-y,-z
1/2+x,1/2+y,-z
1/2-x,1/2+y,1/2+z
1/2+x,1/2-y,1/2+z
loop_
_atom_site_type_symbol
_atom_site_label
_atom_site_fract_x
_atom_site_fract_y
_atom_site_fract_z
Si Si1 0.769212 0.405987 0.421751
Si Si2 0.636153 0.563847 0.684595
Si Si3 0.231592 0.572390 0.186863
Si Si4 0.636695 0.391079 0.577065
Si Si5 0.870957 0.687324 0.146091
Si Si6 0.629107 0.208994 0.194085
Si Si7 0.935882 0.511785 0.668551
O O1 0.786788 0.405425 0.500000
O O2 0.775270 0.512946 0.383354
O O3 0.704081 0.379644 0.419993
O O4 0.807885 0.333155 0.377527
O O5 0.616980 0.500000 0.750000
O O6 0.702464 0.584592 0.696044
O O7 0.625682 0.489192 0.622526
O O8 0.614009 0.677071 0.672992
O O9 0.212413 0.500000 0.250000
O O10 0.192689 0.670626 0.184521
O O11 0.620811 0.405805 0.500000
O O12 0.610670 0.287956 0.606650
O O13 0.877241 0.708328 0.225038
O O14 0.902467 0.580749 0.134688
O O15 0.591628 0.122235 0.158890
O O16 0.932631 0.500000 0.750000
O O17 0.000000 0.500000 0.649322
#
# Coordination Sequence:
#
# PCOD9495088 Si02
#       7
#    16  16  16  16  16  16  16
#     4  10  19  30  46  74 109 141 176 213 255 308
#     4  10  20  30  48  76 108 141 174 212 246 306
#     4  10  17  29  46  73 107 141 173 209 253 307
#     4  10  21  34  48  74 110 146 177 209 254 310
#     4  11  18  30  53  76 101 135 175 217 263 306
#     4  11  18  31  52  77 105 136 174 218 262 309
#     4   9  19  34  54  82 106 129 166 221 277 315
#
# _framework density 17.828372999999999
#
# number of rings (size 3 to 8) (size 9 to 14) (size 15 to 20)
#    0.000    1.857    4.286    1.714    0.000    2.286 
#    0.000    0.714    0.000    6.000    0.000    1.000 
#    0.000    0.000    0.000    0.000    0.000    0.000 
#
# Total GULP energy -312020.551699 kJ/mol
# GULP energy per Si atom -5571.795566 kJ/mol
# Density = 1.778779 g / cm^3
# Si number density = 17.828373 Si / 1000 Ang^3
#
#
#
# Elastic Constant Matrix: (Units=GPa)
#
#
# Indices 1 2 3 4 5 6 
#
# 1 28.9559 28.5553 16.6333 0.0000 0.0000 0.0000
# 2 28.5553 173.0932 55.5142 0.0000 0.0000 0.0000
# 3 16.6333 55.5142 80.0626 0.0000 0.0000 0.0000
# 4 0.0000 0.0000 0.0000 0.3162 0.0000 0.0000
# 5 0.0000 0.0000 0.0000 0.0000 10.8182 0.0000
# 6 0.0000 0.0000 0.0000 0.0000 0.0000 9.2275
#
#
#
# Elastic Compliance Matrix: (Units=1/GPa)
#
#
# Indices 1 2 3 4 5 6 
#
# 1 0.042831 -0.005417 -0.005143 0.000000 0.000000 0.000000
# 2 -0.005417 0.008114 -0.004501 0.000000 0.000000 0.000000
# 3 -0.005143 -0.004501 0.016680 0.000000 0.000000 0.000000
# 4 0.000000 0.000000 0.000000 3.162629 0.000000 0.000000
# 5 0.000000 0.000000 0.000000 0.000000 0.092437 0.000000
# 6 0.000000 0.000000 0.000000 0.000000 0.000000 0.108371
#
#
# Mechanical properties :
#
#
# Convention : Reuss Voigt Hill
#
# Bulk Modulus (GPa) = 26.66337 53.72415 40.19376
# Shear Modulus (GPa) = 1.43939 16.16631 8.80285
#
# Velocity S-wave (km/s) = 0.89951 3.01454 2.22447
# Velocity P-wave (km/s) = 4.00835 6.50508 5.40291
#
# Compressibility (1/GPa) = 0.03750464
#
# Stress axis : x y z
#
# Youngs Moduli (GPa) = 23.34757 123.23775 59.95350
#
# Poissons Ratio (x) = 0.66753 0.30831
# Poissons Ratio (y) = 0.12646 0.26986
# Poissons Ratio (z) = 0.12007 0.55470
#
# Static dielectric constant tensor:
#      x y z
#    x 1.623710 0.000000 0.000000 
#    y 0.000000 1.656030 0.000000 
#    z 0.000000 0.000000 1.589560 
# 
# From -- ./inp_files/52612.got.cif
#   From: 2010.05.17/outbox.cif.g08.bks.cpg/sg66_27_cif.got.tgz:52612.got - 2010.06.03 17:51:23.
