data_PCOD9495938
_publ_section_title
;
Structure prediction by ZEFSAII (Michael W. Deem and Ramdas Pophale) SiO2 
 PCOD9495938
Probable space group: C C C M
;
_chemical_formula_sum "Si O2"
_cell_formula_units_Z 120
_cell_length_a 12.443574
_cell_length_b 20.807180
_cell_length_c 24.201246
_cell_angle_alpha 90.000000
_cell_angle_beta 90.000000
_cell_angle_gamma 90.000000
_cell_volume 6266.082163
_symmetry_space_group_name_H-M "C C C M"
_symmetry_group_IT_number 66
_symmetry_cell_setting 'orthorhombic'
loop_
_space_group_symop_operation_xyz
x,y,z
-x,-y,z
x,-y,1/2-z
-x,y,1/2-z
-x,-y,-z
x,y,-z
-x,y,1/2+z
x,-y,1/2+z
1/2+x,1/2+y,z
1/2-x,1/2-y,z
1/2+x,1/2-y,1/2-z
1/2-x,1/2+y,1/2-z
1/2-x,1/2-y,-z
1/2+x,1/2+y,-z
1/2-x,1/2+y,1/2+z
1/2+x,1/2-y,1/2+z
loop_
_atom_site_type_symbol
_atom_site_label
_atom_site_fract_x
_atom_site_fract_y
_atom_site_fract_z
Si Si1 0.330934 0.120544 0.063499
Si Si2 0.119564 0.481320 0.601375
Si Si3 0.709453 0.544634 0.302086
Si Si4 0.616214 0.298089 0.061901
Si Si5 0.907693 0.115434 0.434856
Si Si6 0.500000 0.500000 0.636943
Si Si7 0.260502 0.179289 0.671763
Si Si8 0.940222 0.657079 0.405638
O O1 0.211223 0.137344 0.083122
O O2 0.431597 0.150421 0.095566
O O3 0.342341 0.042833 0.066676
O O4 0.343499 0.141272 0.000000
O O5 0.204793 0.471703 0.650022
O O6 0.103837 0.411823 0.572293
O O7 0.000000 0.500000 0.622122
O O8 0.729781 0.500000 0.250000
O O9 0.591819 0.531052 0.325759
O O10 0.720058 0.620629 0.291866
O O11 0.501473 0.332193 0.070475
O O12 0.692658 0.318214 0.113235
O O13 0.595949 0.221611 0.063556
O O14 0.655792 0.315791 0.000000
O O15 0.898325 0.099367 0.500000
O O16 0.944799 0.053633 0.401040
O O17 0.250000 0.250000 0.696213
O O18 0.382732 0.165413 0.653538
#
# Coordination Sequence:
#
# PCOD9495938 Si02
#       8
#    16  16  16  16  16   8  16  16
#     4  10  19  32  50  76 111 150 188 226 271 328
#     4   9  19  36  54  79 112 143 177 228 282 336
#     4  11  22  37  61  88 103 138 190 241 295 340
#     4  10  19  32  51  79 114 154 194 223 267 338
#     4  10  21  34  53  77 111 153 186 225 275 333
#     4  12  20  38  58  80 112 138 184 238 286 336
#     4   9  19  37  57  83 117 150 180 233 291 341
#     4   9  19  31  50  77 110 146 185 222 270 329
#
# _framework density 19.150722999999999
#
# number of rings (size 3 to 8) (size 9 to 14) (size 15 to 20)
#    0.000    2.133    2.667    0.800    0.000    6.667 
#    0.000    4.000    0.000    3.200    3.467    0.000 
#    0.000    0.000    0.000    0.000    0.000    0.000 
#
# Total GULP energy -334507.345761 kJ/mol
# GULP energy per Si atom -5575.122429 kJ/mol
# Density = 1.910713 g / cm^3
# Si number density = 19.150723 Si / 1000 Ang^3
#
#
#
# Elastic Constant Matrix: (Units=GPa)
#
#
# Indices 1 2 3 4 5 6 
#
# 1 130.2741 30.9287 25.4777 0.0000 0.0000 0.0000
# 2 30.9287 103.6663 26.3059 0.0000 0.0000 0.0000
# 3 25.4777 26.3059 37.6435 0.0000 0.0000 0.0000
# 4 0.0000 0.0000 0.0000 28.5890 0.0000 0.0000
# 5 0.0000 0.0000 0.0000 0.0000 -13.3152 0.0000
# 6 0.0000 0.0000 0.0000 0.0000 0.0000 27.5854
#
#
#
# Elastic Compliance Matrix: (Units=1/GPa)
#
#
# Indices 1 2 3 4 5 6 
#
# 1 0.009008 -0.001386 -0.005128 0.000000 0.000000 0.000000
# 2 -0.001386 0.011939 -0.007405 0.000000 0.000000 0.000000
# 3 -0.005128 -0.007405 0.035210 0.000000 0.000000 0.000000
# 4 0.000000 0.000000 0.000000 0.034978 0.000000 0.000000
# 5 0.000000 0.000000 0.000000 0.000000 -0.075102 0.000000
# 6 0.000000 0.000000 0.000000 0.000000 0.000000 0.036251
#
#
# Mechanical properties :
#
#
# Convention : Reuss Voigt Hill
#
# Bulk Modulus (GPa) = 35.31197 48.55650 41.93424
# Shear Modulus (GPa) = 55.82636 21.16327 38.49481
#
# Velocity S-wave (km/s) = 5.40503 3.32790 4.48827
# Velocity P-wave (km/s) = 7.57835 6.33849 6.98598
#
# Compressibility (1/GPa) = 0.02831901
#
# Stress axis : x y z
#
# Youngs Moduli (GPa) = 111.01062 83.75931 28.40067
#
# Poissons Ratio (x) = 0.11611 0.14564
# Poissons Ratio (y) = 0.15389 0.21030
# Poissons Ratio (z) = 0.56927 0.62023
#
# Static dielectric constant tensor:
#      x y z
#    x 1.685040 0.000000 0.000000 
#    y 0.000000 1.689400 0.000000 
#    z 0.000000 0.000000 1.644430 
# 
# From -- ./inp_files/57224.got.cif
#   From: 2010.05.17/outbox.cif.g08.bks.cpg/sg66_29_cif.got.tgz:57224.got - 2010.06.03 17:51:23.
