data_PCOD9495220
_publ_section_title
;
Structure prediction by ZEFSAII (Michael W. Deem and Ramdas Pophale) SiO2 
 PCOD9495220
Probable space group: C C C M
;
_chemical_formula_sum "Si O2"
_cell_formula_units_Z 96
_cell_length_a 10.198406
_cell_length_b 15.109544
_cell_length_c 28.582542
_cell_angle_alpha 90.000000
_cell_angle_beta 90.000000
_cell_angle_gamma 90.000000
_cell_volume 4404.377196
_symmetry_space_group_name_H-M "C C C M"
_symmetry_group_IT_number 66
_symmetry_cell_setting 'orthorhombic'
loop_
_space_group_symop_operation_xyz
x,y,z
-x,-y,z
x,-y,1/2-z
-x,y,1/2-z
-x,-y,-z
x,y,-z
-x,y,1/2+z
x,-y,1/2+z
1/2+x,1/2+y,z
1/2-x,1/2-y,z
1/2+x,1/2-y,1/2-z
1/2-x,1/2+y,1/2-z
1/2-x,1/2-y,-z
1/2+x,1/2+y,-z
1/2-x,1/2+y,1/2+z
1/2+x,1/2-y,1/2+z
loop_
_atom_site_type_symbol
_atom_site_label
_atom_site_fract_x
_atom_site_fract_y
_atom_site_fract_z
Si Si1 0.842803 0.170956 0.746508
Si Si2 0.267117 0.586914 0.163835
Si Si3 0.521857 0.107598 0.103716
Si Si4 0.908991 0.413289 0.000000
Si Si5 0.602153 0.417121 0.000000
Si Si6 0.245155 0.878299 0.357157
Si Si7 0.990002 0.892008 0.596338
O O1 0.750000 0.250000 0.764465
O O2 0.796952 0.093453 0.781418
O O3 0.799510 0.156556 0.693172
O O4 0.000000 0.184386 0.750000
O O5 0.136501 0.627265 0.140971
O O6 0.258243 0.484373 0.149510
O O7 0.392004 0.629752 0.138169
O O8 0.387230 0.146820 0.123824
O O9 0.500000 0.000000 0.102792
O O10 0.560283 0.132231 0.050270
O O11 0.755522 0.441632 0.000000
O O12 0.000000 0.500000 0.000000
O O13 0.500000 0.500000 0.000000
O O14 0.571498 0.365601 0.952713
O O15 0.133672 0.856248 0.394605
O O16 0.000000 0.000000 0.596295
#
# Coordination Sequence:
#
# PCOD9495220 Si02
#       7
#    16  16  16   8   8  16  16
#     4  12  27  42  59  83 113 147 189 239 293 345
#     4  10  19  37  60  84 112 151 191 233 278 332
#     4   9  19  31  52  83 121 152 183 227 283 339
#     4  10  18  28  44  78 125 156 179 223 291 338
#     4  10  18  26  46  80 119 154 188 232 274 333
#     4  10  21  37  59  86 112 151 194 233 281 334
#     4   9  17  29  51  81 114 144 188 232 276 322
#
# _framework density 21.796498
#
# number of rings (size 3 to 8) (size 9 to 14) (size 15 to 20)
#    0.000    2.000    3.333    0.500    9.333    0.667 
#    0.000    2.500    0.000    0.000    0.000    7.000 
#    0.000    0.000    0.000    0.000    0.000    0.000 
#
# Total GULP energy -267773.905125 kJ/mol
# GULP energy per Si atom -5578.623023 kJ/mol
# Density = 2.174689 g / cm^3
# Si number density = 21.796498 Si / 1000 Ang^3
#
#
#
# Elastic Constant Matrix: (Units=GPa)
#
#
# Indices 1 2 3 4 5 6 
#
# 1 213.4399 24.2910 75.8626 0.0000 0.0000 0.0000
# 2 24.2910 35.1065 1.9918 0.0000 0.0000 0.0000
# 3 75.8626 1.9918 139.8048 0.0000 0.0000 0.0000
# 4 0.0000 0.0000 0.0000 -16.9183 0.0000 0.0000
# 5 0.0000 0.0000 0.0000 0.0000 31.6012 0.0000
# 6 0.0000 0.0000 0.0000 0.0000 0.0000 4.1472
#
#
#
# Elastic Compliance Matrix: (Units=1/GPa)
#
#
# Indices 1 2 3 4 5 6 
#
# 1 0.006373 -0.004217 -0.003398 0.000000 0.000000 0.000000
# 2 -0.004217 0.031298 0.001842 0.000000 0.000000 0.000000
# 3 -0.003398 0.001842 0.008970 0.000000 0.000000 0.000000
# 4 0.000000 0.000000 0.000000 -0.059108 0.000000 0.000000
# 5 0.000000 0.000000 0.000000 0.000000 0.031644 0.000000
# 6 0.000000 0.000000 0.000000 0.000000 0.000000 0.241129
#
#
# Mechanical properties :
#
#
# Convention : Reuss Voigt Hill
#
# Bulk Modulus (GPa) = 28.49316 65.84912 47.17114
# Shear Modulus (GPa) = 17.63352 22.84641 20.23996
#
# Velocity S-wave (km/s) = 2.84739 3.24106 3.05058
# Velocity P-wave (km/s) = 4.88988 6.65450 5.83923
#
# Compressibility (1/GPa) = 0.03509615
#
# Stress axis : x y z
#
# Youngs Moduli (GPa) = 156.91684 31.95103 111.47706
#
# Poissons Ratio (x) = 0.13473 0.37880
# Poissons Ratio (y) = 0.66167 -0.20536
# Poissons Ratio (z) = 0.53321 -0.05886
#
# Static dielectric constant tensor:
#      x y z
#    x 1.886330 0.000000 0.000000 
#    y 0.000000 1.928970 0.000000 
#    z 0.000000 0.000000 1.802490 
# 
# From -- ./inp_files/62806.got.cif
#   From: 2010.05.17/outbox.cif.g08.bks.cpg/sg66_32_cif.got.tgz:62806.got - 2010.06.03 17:51:23.
