data_PCOD9495661
_publ_section_title
;
Structure prediction by ZEFSAII (Michael W. Deem and Ramdas Pophale) SiO2 
 PCOD9495661
Probable space group: C C C M
;
_chemical_formula_sum "Si O2"
_cell_formula_units_Z 56
_cell_length_a 10.806446
_cell_length_b 20.808454
_cell_length_c 10.644147
_cell_angle_alpha 90.000000
_cell_angle_beta 90.000000
_cell_angle_gamma 90.000000
_cell_volume 2393.500740
_symmetry_space_group_name_H-M "C C C M"
_symmetry_group_IT_number 66
_symmetry_cell_setting 'orthorhombic'
loop_
_space_group_symop_operation_xyz
x,y,z
-x,-y,z
x,-y,1/2-z
-x,y,1/2-z
-x,-y,-z
x,y,-z
-x,y,1/2+z
x,-y,1/2+z
1/2+x,1/2+y,z
1/2-x,1/2-y,z
1/2+x,1/2-y,1/2-z
1/2-x,1/2+y,1/2-z
1/2-x,1/2-y,-z
1/2+x,1/2+y,-z
1/2-x,1/2+y,1/2+z
1/2+x,1/2-y,1/2+z
loop_
_atom_site_type_symbol
_atom_site_label
_atom_site_fract_x
_atom_site_fract_y
_atom_site_fract_z
Si Si1 0.616100 0.588364 0.000000
Si Si2 0.635773 0.795756 0.148564
Si Si3 0.291594 0.070137 0.761116
Si Si4 0.476129 0.280827 0.500000
Si Si5 0.662822 0.401153 0.000000
O O1 0.690710 0.569216 0.875055
O O2 0.584725 0.664994 0.000000
O O3 0.526888 0.432866 0.000000
O O4 0.750000 0.750000 0.193489
O O5 0.633629 0.864925 0.212056
O O6 0.663614 0.809559 0.000000
O O7 0.503551 0.760497 0.123542
O O8 0.228442 0.080254 0.627108
O O9 0.353129 0.000000 0.750000
O O10 0.355573 0.323721 0.500000
#
# Coordination Sequence:
#
# PCOD9495661 Si02
#       5
#     8  16  16   8   8
#     4  10  18  36  48  66 102 160 174 199 259 332
#     4   9  14  33  57  65  90 156 202 203 237 333
#     4  12  21  31  50  82 117 144 176 218 270 325
#     4   8  16  34  56  67  90 159 206 199 244 337
#     4  10  23  31  47  85 110 140 183 228 258 310
#
# _framework density 23.396691000000001
#
# number of rings (size 3 to 8) (size 9 to 14) (size 15 to 20)
#    1.714    0.286    4.286    1.714    0.000    3.429 
#    0.000    0.714    0.000    1.714    0.000    0.000 
#    0.000    6.857    0.000    0.286    0.000    0.000 
#
# Total GULP energy -155981.223905 kJ/mol
# GULP energy per Si atom -5570.757997 kJ/mol
# Density = 2.334344 g / cm^3
# Si number density = 23.396691 Si / 1000 Ang^3
#
#
#
# Elastic Constant Matrix: (Units=GPa)
#
#
# Indices 1 2 3 4 5 6 
#
# 1 52.0387 27.3533 29.3908 0.0000 0.0000 0.0000
# 2 27.3533 215.0591 39.5944 0.0000 0.0000 0.0000
# 3 29.3908 39.5944 164.0335 0.0000 0.0000 0.0000
# 4 0.0000 0.0000 0.0000 64.5356 0.0000 0.0000
# 5 0.0000 0.0000 0.0000 0.0000 3.6073 0.0000
# 6 0.0000 0.0000 0.0000 0.0000 0.0000 13.1173
#
#
#
# Elastic Compliance Matrix: (Units=1/GPa)
#
#
# Indices 1 2 3 4 5 6 
#
# 1 0.022334 -0.002202 -0.003470 0.000000 0.000000 0.000000
# 2 -0.002202 0.005083 -0.000832 0.000000 0.000000 0.000000
# 3 -0.003470 -0.000832 0.006919 0.000000 0.000000 0.000000
# 4 0.000000 0.000000 0.000000 0.015495 0.000000 0.000000
# 5 0.000000 0.000000 0.000000 0.000000 0.277218 0.000000
# 6 0.000000 0.000000 0.000000 0.000000 0.000000 0.076235
#
#
# Mechanical properties :
#
#
# Convention : Reuss Voigt Hill
#
# Bulk Modulus (GPa) = 46.88870 69.31203 58.10037
# Shear Modulus (GPa) = 11.80910 38.57155 25.19033
#
# Velocity S-wave (km/s) = 2.24907 4.06469 3.28481
# Velocity P-wave (km/s) = 5.17964 7.19152 6.26684
#
# Compressibility (1/GPa) = 0.02132710
#
# Stress axis : x y z
#
# Youngs Moduli (GPa) = 44.77542 196.72689 144.52876
#
# Poissons Ratio (x) = 0.43314 0.50154
# Poissons Ratio (y) = 0.09858 0.12032
# Poissons Ratio (z) = 0.15538 0.16377
#
# Static dielectric constant tensor:
#      x y z
#    x 1.922510 0.000000 0.000000 
#    y 0.000000 2.001860 0.000000 
#    z 0.000000 0.000000 1.901110 
# 
# From -- ./inp_files/17375.got.cif
#   From: 2010.05.17/outbox.cif.g08.bks.cpg/sg66_9_cif.got.tgz:17375.got - 2010.06.03 17:51:23.
