data_PCOD9495432
_publ_section_title
;
Structure prediction by ZEFSAII (Michael W. Deem and Ramdas Pophale) SiO2 
 PCOD9495432
Probable space group: C C C M
;
_chemical_formula_sum "Si O2"
_cell_formula_units_Z 96
_cell_length_a 16.950020
_cell_length_b 30.582313
_cell_length_c 7.612915
_cell_angle_alpha 90.000000
_cell_angle_beta 90.000000
_cell_angle_gamma 90.000000
_cell_volume 3946.312968
_symmetry_space_group_name_H-M "C C C M"
_symmetry_group_IT_number 66
_symmetry_cell_setting 'orthorhombic'
loop_
_space_group_symop_operation_xyz
x,y,z
-x,-y,z
x,-y,1/2-z
-x,y,1/2-z
-x,-y,-z
x,y,-z
-x,y,1/2+z
x,-y,1/2+z
1/2+x,1/2+y,z
1/2-x,1/2-y,z
1/2+x,1/2-y,1/2-z
1/2-x,1/2+y,1/2-z
1/2-x,1/2-y,-z
1/2+x,1/2+y,-z
1/2-x,1/2+y,1/2+z
1/2+x,1/2-y,1/2+z
loop_
_atom_site_type_symbol
_atom_site_label
_atom_site_fract_x
_atom_site_fract_y
_atom_site_fract_z
Si Si1 0.295484 0.453265 0.291740
Si Si2 0.586261 0.237819 0.709892
Si Si3 0.116171 0.450365 0.806011
Si Si4 0.861739 0.355082 0.284958
Si Si5 0.795014 0.805795 0.800157
Si Si6 0.590060 0.376119 0.208472
O O1 0.331909 0.500000 0.250000
O O2 0.279187 0.449713 0.500000
O O3 0.211765 0.451477 0.195246
O O4 0.355101 0.416172 0.236858
O O5 0.500000 0.256866 0.750000
O O6 0.593888 0.238600 0.500000
O O7 0.588010 0.187219 0.767333
O O8 0.665985 0.261641 0.779435
O O9 0.093590 0.500000 0.750000
O O10 0.106147 0.402134 0.718250
O O11 0.081734 0.446606 0.000000
O O12 0.859760 0.359090 0.500000
O O13 0.773429 0.338299 0.227891
O O14 0.874341 0.834401 0.802438
O O15 0.769221 0.796860 0.000000
O O16 0.500000 0.384170 0.250000
O O17 0.599114 0.369437 0.000000
#
# Coordination Sequence:
#
# PCOD9495432 Si02
#       6
#    16  16  16  16  16  16
#     4  10  20  33  49  70  98 134 175 222 271 319
#     4  10  21  37  57  82 112 144 182 223 271 325
#     4  10  18  31  54  81 109 138 175 219 271 323
#     4   9  18  34  58  84 108 143 184 222 264 323
#     4  10  19  35  58  80 105 140 183 226 265 313
#     4  11  23  35  49  71 103 141 181 224 270 320
#
# _framework density 24.326504
#
# number of rings (size 3 to 8) (size 9 to 14) (size 15 to 20)
#    0.000    2.000    1.667    3.500    0.000    6.333 
#    0.000    4.167    0.000    2.500    0.000    3.500 
#    0.000    0.000    0.000    0.000    0.000    0.000 
#
# Total GULP energy -267700.943316 kJ/mol
# GULP energy per Si atom -5577.102986 kJ/mol
# Density = 2.427114 g / cm^3
# Si number density = 24.326504 Si / 1000 Ang^3
#
#
#
# Elastic Constant Matrix: (Units=GPa)
#
#
# Indices 1 2 3 4 5 6 
#
# 1 109.5059 14.4278 -3.8073 0.0000 0.0000 0.0000
# 2 14.4278 157.6239 8.2899 0.0000 0.0000 0.0000
# 3 -3.8073 8.2899 54.2100 0.0000 0.0000 0.0000
# 4 0.0000 0.0000 0.0000 11.3884 0.0000 0.0000
# 5 0.0000 0.0000 0.0000 0.0000 777.2647 0.0000
# 6 0.0000 0.0000 0.0000 0.0000 0.0000 25.0147
#
#
#
# Elastic Compliance Matrix: (Units=1/GPa)
#
#
# Indices 1 2 3 4 5 6 
#
# 1 0.009277 -0.000891 0.000788 0.000000 0.000000 0.000000
# 2 -0.000891 0.006481 -0.001054 0.000000 0.000000 0.000000
# 3 0.000788 -0.001054 0.018663 0.000000 0.000000 0.000000
# 4 0.000000 0.000000 0.000000 0.087808 0.000000 0.000000
# 5 0.000000 0.000000 0.000000 0.000000 0.001287 0.000000
# 6 0.000000 0.000000 0.000000 0.000000 0.000000 0.039976
#
#
# Mechanical properties :
#
#
# Convention : Reuss Voigt Hill
#
# Bulk Modulus (GPa) = 31.14487 39.90673 35.52580
# Shear Modulus (GPa) = 28.32731 182.89555 105.61143
#
# Velocity S-wave (km/s) = 3.41612 8.68026 6.59609
# Velocity P-wave (km/s) = 5.32828 10.81216 8.52330
#
# Compressibility (1/GPa) = 0.03210802
#
# Stress axis : x y z
#
# Youngs Moduli (GPa) = 107.79760 154.29376 53.58134
#
# Poissons Ratio (x) = 0.13741 -0.04221
# Poissons Ratio (y) = 0.09600 0.05646
# Poissons Ratio (z) = -0.08491 0.16257
#
# Static dielectric constant tensor:
#      x y z
#    x 1.913110 0.000000 0.000000 
#    y 0.000000 2.031130 0.000000 
#    z 0.000000 0.000000 3.177990 
# 
# From -- ./inp_files/8004.got.cif
#   From: 2010.05.17/outbox.cif.g08.bks.cpg/sg66_5_cif.got.tgz:8004.got - 2010.06.03 17:51:23.
