data_PCOD9495707
_publ_section_title
;
Structure prediction by ZEFSAII (Michael W. Deem and Ramdas Pophale) SiO2 
 PCOD9495707
Probable space group: C C C M
;
_chemical_formula_sum "Si O2"
_cell_formula_units_Z 48
_cell_length_a 13.244494
_cell_length_b 5.777110
_cell_length_c 27.728571
_cell_angle_alpha 90.000000
_cell_angle_beta 90.000000
_cell_angle_gamma 90.000000
_cell_volume 2121.648802
_symmetry_space_group_name_H-M "C C C M"
_symmetry_group_IT_number 66
_symmetry_cell_setting 'orthorhombic'
loop_
_space_group_symop_operation_xyz
x,y,z
-x,-y,z
x,-y,1/2-z
-x,y,1/2-z
-x,-y,-z
x,y,-z
-x,y,1/2+z
x,-y,1/2+z
1/2+x,1/2+y,z
1/2-x,1/2-y,z
1/2+x,1/2-y,1/2-z
1/2-x,1/2+y,1/2-z
1/2-x,1/2-y,-z
1/2+x,1/2+y,-z
1/2-x,1/2+y,1/2+z
1/2+x,1/2-y,1/2+z
loop_
_atom_site_type_symbol
_atom_site_label
_atom_site_fract_x
_atom_site_fract_y
_atom_site_fract_z
Si Si1 0.750000 0.750000 0.398247
Si Si2 0.102007 0.617755 0.352388
Si Si3 0.861191 0.868893 0.053133
Si Si4 0.250000 0.250000 0.223242
O O1 0.811382 0.568706 0.366028
O O2 0.667140 0.628486 0.432146
O O3 0.081543 0.754886 0.402172
O O4 0.152027 0.772083 0.311288
O O5 0.000000 0.500000 0.335747
O O6 0.750000 0.750000 0.052173
O O7 0.905823 0.843191 0.000000
O O8 0.239628 0.500000 0.250000
#
# Coordination Sequence:
#
# PCOD9495707 Si02
#       4
#     8  16  16   8
#     4  10  18  40  63  96 142 185 224 285 335 408
#     4  11  24  44  69 100 138 179 228 291 353 420
#     4   9  18  35  64  99 139 185 229 276 337 415
#     4  12  27  52  76 100 139 181 238 307 368 428
#
# _framework density 22.623912000000001
#
# number of rings (size 3 to 8) (size 9 to 14) (size 15 to 20)
#    0.000    1.667    5.000    1.500    0.000    4.000 
#    0.000    6.667    0.000    0.000    0.000    0.000 
#    0.000    0.000    0.000    0.000    0.000    0.000 
#
# Total GULP energy -134029.396915 kJ/mol
# GULP energy per Si atom -5584.558205 kJ/mol
# Density = 2.257242 g / cm^3
# Si number density = 22.623912 Si / 1000 Ang^3
#
#
#
# Elastic Constant Matrix: (Units=GPa)
#
#
# Indices 1 2 3 4 5 6 
#
# 1 83.8755 8.8280 33.5333 0.0000 0.0000 0.0000
# 2 8.8280 84.4972 37.4536 0.0000 0.0000 0.0000
# 3 33.5333 37.4536 111.6601 0.0000 0.0000 0.0000
# 4 0.0000 0.0000 0.0000 14.8459 0.0000 0.0000
# 5 0.0000 0.0000 0.0000 0.0000 -29.3949 0.0000
# 6 0.0000 0.0000 0.0000 0.0000 0.0000 33.7633
#
#
#
# Elastic Compliance Matrix: (Units=1/GPa)
#
#
# Indices 1 2 3 4 5 6 
#
# 1 0.013564 0.000456 -0.004227 0.000000 0.000000 0.000000
# 2 0.000456 0.013917 -0.004805 0.000000 0.000000 0.000000
# 3 -0.004227 -0.004805 0.011837 0.000000 0.000000 0.000000
# 4 0.000000 0.000000 0.000000 0.067359 0.000000 0.000000
# 5 0.000000 0.000000 0.000000 0.000000 -0.034019 0.000000
# 6 0.000000 0.000000 0.000000 0.000000 0.000000 0.029618
#
#
# Mechanical properties :
#
#
# Convention : Reuss Voigt Hill
#
# Bulk Modulus (GPa) = 45.11190 48.85143 46.98166
# Shear Modulus (GPa) = 39.42750 17.19071 28.30911
#
# Velocity S-wave (km/s) = 4.17914 2.75952 3.54120
# Velocity P-wave (km/s) = 6.57800 5.63853 6.12630
#
# Compressibility (1/GPa) = 0.02216710
#
# Stress axis : x y z
#
# Youngs Moduli (GPa) = 73.72349 71.85497 84.48213
#
# Poissons Ratio (x) = -0.03279 0.35707
# Poissons Ratio (y) = -0.03364 0.40595
# Poissons Ratio (z) = 0.31160 0.34527
#
# Static dielectric constant tensor:
#      x y z
#    x 1.842150 0.000000 0.000000 
#    y 0.000000 1.956390 0.000000 
#    z 0.000000 0.000000 1.882880 
# 
# From -- ./inp_files/60899.got.cif
#   From: 2010.05.17/outbox.cif.g08.bks.cpg/sg66_31_cif.got.tgz:60899.got - 2010.06.03 17:51:23.
