data_PCOD9495390
_publ_section_title
;
Structure prediction by ZEFSAII (Michael W. Deem and Ramdas Pophale) SiO2 
 PCOD9495390
Probable space group: C C C M
;
_chemical_formula_sum "Si O2"
_cell_formula_units_Z 80
_cell_length_a 13.782218
_cell_length_b 17.981411
_cell_length_c 14.191417
_cell_angle_alpha 90.000000
_cell_angle_beta 90.000000
_cell_angle_gamma 90.000000
_cell_volume 3516.969843
_symmetry_space_group_name_H-M "C C C M"
_symmetry_group_IT_number 66
_symmetry_cell_setting 'orthorhombic'
loop_
_space_group_symop_operation_xyz
x,y,z
-x,-y,z
x,-y,1/2-z
-x,y,1/2-z
-x,-y,-z
x,y,-z
-x,y,1/2+z
x,-y,1/2+z
1/2+x,1/2+y,z
1/2-x,1/2-y,z
1/2+x,1/2-y,1/2-z
1/2-x,1/2+y,1/2-z
1/2-x,1/2-y,-z
1/2+x,1/2+y,-z
1/2-x,1/2+y,1/2+z
1/2+x,1/2-y,1/2+z
loop_
_atom_site_type_symbol
_atom_site_label
_atom_site_fract_x
_atom_site_fract_y
_atom_site_fract_z
Si Si1 0.663592 0.416967 0.232787
Si Si2 0.489331 0.154595 0.113198
Si Si3 0.350214 0.044690 0.391624
Si Si4 0.790136 0.373158 0.606639
Si Si5 0.143053 0.217381 0.612395
O O1 0.622748 0.500000 0.250000
O O2 0.765004 0.429379 0.176481
O O3 0.695349 0.379450 0.330481
O O4 0.612369 0.356823 0.167803
O O5 0.548320 0.079990 0.140464
O O6 0.381341 0.170627 0.150166
O O7 0.563816 0.220052 0.131292
O O8 0.474902 0.149229 0.000000
O O9 0.334657 0.071625 0.500000
O O10 0.337638 0.956257 0.395190
O O11 0.766698 0.350429 0.500000
O O12 0.146523 0.202821 0.500000
O O13 0.250000 0.250000 0.638741
#
# Coordination Sequence:
#
# PCOD9495390 Si02
#       5
#    16  16  16  16  16
#     4  10  19  29  45  72 105 141 174 205 256 313
#     4   9  16  27  45  67  95 134 173 213 255 294
#     4   9  15  26  43  66  99 135 169 204 243 293
#     4   9  18  29  42  66 101 138 173 204 244 304
#     4  10  18  31  50  71  98 134 178 224 263 301
#
# _framework density 22.746853000000002
#
# number of rings (size 3 to 8) (size 9 to 14) (size 15 to 20)
#    0.000    2.600    2.000    1.200    0.000    4.000 
#    0.000    3.000    0.000    0.600    0.000    2.800 
#    0.000    3.200    0.000   21.400    0.000    6.600 
#
# Total GULP energy -223319.476798 kJ/mol
# GULP energy per Si atom -5582.986920 kJ/mol
# Density = 2.269508 g / cm^3
# Si number density = 22.746853 Si / 1000 Ang^3
#
#
#
# Elastic Constant Matrix: (Units=GPa)
#
#
# Indices 1 2 3 4 5 6 
#
# 1 22.6592 8.5971 7.6998 0.0000 0.0000 0.0000
# 2 8.5971 96.4113 21.5326 0.0000 0.0000 0.0000
# 3 7.6998 21.5326 87.0456 0.0000 0.0000 0.0000
# 4 0.0000 0.0000 0.0000 32.7153 0.0000 0.0000
# 5 0.0000 0.0000 0.0000 0.0000 1.4062 0.0000
# 6 0.0000 0.0000 0.0000 0.0000 0.0000 18.6043
#
#
#
# Elastic Compliance Matrix: (Units=1/GPa)
#
#
# Indices 1 2 3 4 5 6 
#
# 1 0.046541 -0.003420 -0.003271 0.000000 0.000000 0.000000
# 2 -0.003420 0.011230 -0.002476 0.000000 0.000000 0.000000
# 3 -0.003271 -0.002476 0.012390 0.000000 0.000000 0.000000
# 4 0.000000 0.000000 0.000000 0.030567 0.000000 0.000000
# 5 0.000000 0.000000 0.000000 0.000000 0.711113 0.000000
# 6 0.000000 0.000000 0.000000 0.000000 0.000000 0.053751
#
#
# Mechanical properties :
#
#
# Convention : Reuss Voigt Hill
#
# Bulk Modulus (GPa) = 19.29427 31.30838 25.30132
# Shear Modulus (GPa) = 5.54816 21.76427 13.65621
#
# Velocity S-wave (km/s) = 1.56345 3.09658 2.45287
# Velocity P-wave (km/s) = 3.42925 5.15546 4.37827
#
# Compressibility (1/GPa) = 0.05182887
#
# Stress axis : x y z
#
# Youngs Moduli (GPa) = 21.48639 89.04690 80.71056
#
# Poissons Ratio (x) = 0.30450 0.26400
# Poissons Ratio (y) = 0.07347 0.19980
# Poissons Ratio (z) = 0.07028 0.22044
#
# Static dielectric constant tensor:
#      x y z
#    x 1.852510 0.000000 0.000000 
#    y 0.000000 1.923840 0.000000 
#    z 0.000000 0.000000 1.897490 
# 
# From -- ./inp_files/28084.got.cif
#   From: 2010.05.17/outbox.cif.g08.bks.cpg/sg66_15_cif.got.tgz:28084.got - 2010.06.03 17:51:23.
