data_PCOD9495521
_publ_section_title
;
Structure prediction by ZEFSAII (Michael W. Deem and Ramdas Pophale) SiO2 
 PCOD9495521
Probable space group: C C C M
;
_chemical_formula_sum "Si O2"
_cell_formula_units_Z 116
_cell_length_a 11.516094
_cell_length_b 16.924307
_cell_length_c 32.228962
_cell_angle_alpha 90.000000
_cell_angle_beta 90.000000
_cell_angle_gamma 90.000000
_cell_volume 6281.486261
_symmetry_space_group_name_H-M "C C C M"
_symmetry_group_IT_number 66
_symmetry_cell_setting 'orthorhombic'
loop_
_space_group_symop_operation_xyz
x,y,z
-x,-y,z
x,-y,1/2-z
-x,y,1/2-z
-x,-y,-z
x,y,-z
-x,y,1/2+z
x,-y,1/2+z
1/2+x,1/2+y,z
1/2-x,1/2-y,z
1/2+x,1/2-y,1/2-z
1/2-x,1/2+y,1/2-z
1/2-x,1/2-y,-z
1/2+x,1/2+y,-z
1/2-x,1/2+y,1/2+z
1/2+x,1/2-y,1/2+z
loop_
_atom_site_type_symbol
_atom_site_label
_atom_site_fract_x
_atom_site_fract_y
_atom_site_fract_z
Si Si1 0.493028 0.191918 0.132490
Si Si2 0.130581 0.702225 0.452565
Si Si3 0.863792 0.484856 0.546767
Si Si4 0.138449 0.905937 0.747390
Si Si5 0.500000 0.000000 0.750000
Si Si6 0.848301 0.815031 0.331223
Si Si7 0.292585 0.067180 0.626126
Si Si8 0.670979 0.083624 0.685213
O O1 0.456118 0.216697 0.085916
O O2 0.535076 0.267155 0.159347
O O3 0.597053 0.126592 0.130407
O O4 0.388577 0.147750 0.155721
O O5 0.087218 0.717949 0.500000
O O6 0.250000 0.750000 0.447019
O O7 0.156249 0.608538 0.450584
O O8 0.841733 0.511842 0.500000
O O9 0.792654 0.531685 0.580568
O O10 0.000000 0.500000 0.555896
O O11 0.175771 0.854758 0.786846
O O12 0.212607 0.883721 0.707024
O O13 0.000000 0.897128 0.750000
O O14 0.162153 0.000000 0.750000
O O15 0.418962 0.944759 0.721118
O O16 0.750000 0.750000 0.337549
O O17 0.822981 0.884610 0.363464
O O18 0.305944 0.994856 0.658114
#
# Coordination Sequence:
#
# PCOD9495521 Si02
#       8
#    16  16  16  16   4  16  16  16
#     4  11  22  37  61  94 127 159 210 267 321 370
#     4  10  21  37  60  93 131 162 200 263 327 381
#     4  10  18  32  62  94 120 157 211 263 306 367
#     4  11  24  42  59  81 118 167 215 254 316 384
#     4  12  20  32  58  92 118 148 210 270 312 352
#     4  10  24  40  57  86 130 163 198 264 324 372
#     4  11  18  38  59  92 123 160 205 259 315 376
#     4  12  21  36  67  90 114 160 220 264 311 375
#
# _framework density 18.466967
#
# number of rings (size 3 to 8) (size 9 to 14) (size 15 to 20)
#    0.000    1.241    6.207    0.000    1.931    2.207 
#    0.000    0.690    0.000    2.483    0.000    2.897 
#    0.000    0.000    0.000    0.000    0.000    0.000 
#
# Total GULP energy -323497.046822 kJ/mol
# GULP energy per Si atom -5577.535290 kJ/mol
# Density = 1.842494 g / cm^3
# Si number density = 18.466967 Si / 1000 Ang^3
#
#
#
# Elastic Constant Matrix: (Units=GPa)
#
#
# Indices 1 2 3 4 5 6 
#
# 1 59.1685 32.8985 22.2094 0.0000 0.0000 0.0000
# 2 32.8985 91.6930 40.8170 0.0000 0.0000 0.0000
# 3 22.2094 40.8170 84.6628 0.0000 0.0000 0.0000
# 4 0.0000 0.0000 0.0000 29.9764 0.0000 0.0000
# 5 0.0000 0.0000 0.0000 0.0000 19.4383 0.0000
# 6 0.0000 0.0000 0.0000 0.0000 0.0000 -7.6062
#
#
#
# Elastic Compliance Matrix: (Units=1/GPa)
#
#
# Indices 1 2 3 4 5 6 
#
# 1 0.021503 -0.006626 -0.002446 0.000000 0.000000 0.000000
# 2 -0.006626 0.015928 -0.005941 0.000000 0.000000 0.000000
# 3 -0.002446 -0.005941 0.015317 0.000000 0.000000 0.000000
# 4 0.000000 0.000000 0.000000 0.033360 0.000000 0.000000
# 5 0.000000 0.000000 0.000000 0.000000 0.051445 0.000000
# 6 0.000000 0.000000 0.000000 0.000000 0.000000 -0.131472
#
#
# Mechanical properties :
#
#
# Convention : Reuss Voigt Hill
#
# Bulk Modulus (GPa) = 44.01017 47.48602 45.74809
# Shear Modulus (GPa) = 114.46249 17.66832 66.06540
#
# Velocity S-wave (km/s) = 7.88142 3.09650 5.98770
# Velocity P-wave (km/s) = 10.32986 6.20921 8.52233
#
# Compressibility (1/GPa) = 0.02272202
#
# Stress axis : x y z
#
# Youngs Moduli (GPa) = 46.50421 62.78278 65.28503
#
# Poissons Ratio (x) = 0.41601 0.15971
# Poissons Ratio (y) = 0.30815 0.38785
# Poissons Ratio (z) = 0.11377 0.37298
#
# Static dielectric constant tensor:
#      x y z
#    x 1.653920 0.000000 0.000000 
#    y 0.000000 1.624680 0.000000 
#    z 0.000000 0.000000 1.683150 
# 
# From -- ./inp_files/63853.got.cif
#   From: 2010.05.17/outbox.cif.g08.bks.cpg/sg66_32_cif.got.tgz:63853.got - 2010.06.03 17:51:23.
