data_PCOD9495857
_publ_section_title
;
Structure prediction by ZEFSAII (Michael W. Deem and Ramdas Pophale) SiO2 
 PCOD9495857
Probable space group: C C C M
;
_chemical_formula_sum "Si O2"
_cell_formula_units_Z 48
_cell_length_a 15.582168
_cell_length_b 22.915927
_cell_length_c 5.576737
_cell_angle_alpha 90.000000
_cell_angle_beta 90.000000
_cell_angle_gamma 90.000000
_cell_volume 1991.340269
_symmetry_space_group_name_H-M "C C C M"
_symmetry_group_IT_number 66
_symmetry_cell_setting 'orthorhombic'
loop_
_space_group_symop_operation_xyz
x,y,z
-x,-y,z
x,-y,1/2-z
-x,y,1/2-z
-x,-y,-z
x,y,-z
-x,y,1/2+z
x,-y,1/2+z
1/2+x,1/2+y,z
1/2-x,1/2-y,z
1/2+x,1/2-y,1/2-z
1/2-x,1/2+y,1/2-z
1/2-x,1/2-y,-z
1/2+x,1/2+y,-z
1/2-x,1/2+y,1/2+z
1/2+x,1/2-y,1/2+z
loop_
_atom_site_type_symbol
_atom_site_label
_atom_site_fract_x
_atom_site_fract_y
_atom_site_fract_z
Si Si1 0.207797 0.686957 0.000000
Si Si2 0.153643 0.900506 0.500000
Si Si3 0.155443 0.644331 0.500000
Si Si4 0.403510 0.976964 0.500000
Si Si5 0.521404 0.299908 0.500000
Si Si6 0.125705 0.898294 0.000000
O O1 0.250000 0.750000 0.000000
O O2 0.157015 0.678823 0.249766
O O3 0.286074 0.639995 0.000000
O O4 0.254888 0.891818 0.500000
O O5 0.112567 0.833897 0.500000
O O6 0.124534 0.929467 0.254109
O O7 0.088118 0.592580 0.500000
O O8 0.500000 0.000000 0.500000
O O9 0.362464 0.000000 0.250000
O O10 0.500000 0.268470 0.750000
O O11 0.453400 0.353449 0.500000
#
# Coordination Sequence:
#
# PCOD9495857 Si02
#       6
#     8   8   8   8   8   8
#     4  10  19  31  49  79 115 153 188 230 298 372
#     4   8  14  23  39  64  91 121 158 214 272 312
#     4  10  19  33  53  81 110 141 189 248 299 360
#     4  10  21  38  61  90 107 147 199 267 319 388
#     4   8  12  20  34  56  82 121 159 205 241 289
#     4   8  14  23  37  60  92 131 176 215 243 314
#
# _framework density 24.104368000000001
#
# number of rings (size 3 to 8) (size 9 to 14) (size 15 to 20)
#    0.000    3.000    0.000    1.500    0.000    0.000 
#    0.000    0.000    0.000    0.000  130.000    0.000 
#    0.000  100.000    0.000    0.000    0.000    0.000 
#
# Total GULP energy -133892.976291 kJ/mol
# GULP energy per Si atom -5578.874012 kJ/mol
# Density = 2.404951 g / cm^3
# Si number density = 24.104368 Si / 1000 Ang^3
#
#
#
# Elastic Constant Matrix: (Units=GPa)
#
#
# Indices 1 2 3 4 5 6 
#
# 1 62.7794 9.9322 -3.1361 0.0000 0.0000 0.0000
# 2 9.9322 99.5387 60.2090 0.0000 0.0000 0.0000
# 3 -3.1361 60.2090 310.6494 0.0000 0.0000 0.0000
# 4 0.0000 0.0000 0.0000 11.9489 0.0000 0.0000
# 5 0.0000 0.0000 0.0000 0.0000 -28.1699 0.0000
# 6 0.0000 0.0000 0.0000 0.0000 0.0000 2.4227
#
#
#
# Elastic Compliance Matrix: (Units=1/GPa)
#
#
# Indices 1 2 3 4 5 6 
#
# 1 0.016265 -0.001951 0.000542 0.000000 0.000000 0.000000
# 2 -0.001951 0.011615 -0.002271 0.000000 0.000000 0.000000
# 3 0.000542 -0.002271 0.003665 0.000000 0.000000 0.000000
# 4 0.000000 0.000000 0.000000 0.083690 0.000000 0.000000
# 5 0.000000 0.000000 0.000000 0.000000 -0.035499 0.000000
# 6 0.000000 0.000000 0.000000 0.000000 0.000000 0.412760
#
#
# Mechanical properties :
#
#
# Convention : Reuss Voigt Hill
#
# Bulk Modulus (GPa) = 41.34807 67.44196 54.39501
# Shear Modulus (GPa) = 9.84416 24.30450 17.07433
#
# Velocity S-wave (km/s) = 2.02308 3.17882 2.66437
# Velocity P-wave (km/s) = 4.75900 6.44307 5.66398
#
# Compressibility (1/GPa) = 0.02418493
#
# Stress axis : x y z
#
# Youngs Moduli (GPa) = 61.48341 86.09871 272.87701
#
# Poissons Ratio (x) = 0.16798 -0.14799
# Poissons Ratio (y) = 0.11995 0.61965
# Poissons Ratio (z) = -0.03334 0.19551
#
# Static dielectric constant tensor:
#      x y z
#    x 1.915590 0.000000 0.000000 
#    y 0.000000 1.842840 0.000000 
#    z 0.000000 0.000000 1.977860 
# 
# From -- ./inp_files/643.got.cif
#   From: 2010.05.17/outbox.cif.g08.bks.cpg/sg66_1_cif.got.tgz:643.got - 2010.06.03 17:51:23.
