data_PCOD9495282
_publ_section_title
;
Structure prediction by ZEFSAII (Michael W. Deem and Ramdas Pophale) SiO2 
 PCOD9495282
Probable space group: C C C M
;
_chemical_formula_sum "Si O2"
_cell_formula_units_Z 128
_cell_length_a 19.197219
_cell_length_b 22.090543
_cell_length_c 18.478497
_cell_angle_alpha 90.000000
_cell_angle_beta 90.000000
_cell_angle_gamma 90.000000
_cell_volume 7836.305421
_symmetry_space_group_name_H-M "C C C M"
_symmetry_group_IT_number 66
_symmetry_cell_setting 'orthorhombic'
loop_
_space_group_symop_operation_xyz
x,y,z
-x,-y,z
x,-y,1/2-z
-x,y,1/2-z
-x,-y,-z
x,y,-z
-x,y,1/2+z
x,-y,1/2+z
1/2+x,1/2+y,z
1/2-x,1/2-y,z
1/2+x,1/2-y,1/2-z
1/2-x,1/2+y,1/2-z
1/2-x,1/2-y,-z
1/2+x,1/2+y,-z
1/2-x,1/2+y,1/2+z
1/2+x,1/2-y,1/2+z
loop_
_atom_site_type_symbol
_atom_site_label
_atom_site_fract_x
_atom_site_fract_y
_atom_site_fract_z
Si Si1 0.235936 0.376977 0.418178
Si Si2 0.887662 0.857754 0.367444
Si Si3 0.375647 0.778363 0.913872
Si Si4 0.149840 0.465535 0.321329
Si Si5 0.417196 0.567783 0.731248
Si Si6 0.024501 0.929780 0.417304
Si Si7 0.528777 0.869166 0.324331
Si Si8 0.436907 0.048926 0.081538
O O1 0.215301 0.395185 0.500000
O O2 0.318466 0.376854 0.410246
O O3 0.199743 0.311241 0.406704
O O4 0.204432 0.421604 0.358973
O O5 0.886170 0.785498 0.374760
O O6 0.883973 0.883615 0.285516
O O7 0.957327 0.887515 0.401223
O O8 0.428826 0.824982 0.876599
O O9 0.388117 0.770900 0.000000
O O10 0.173881 0.500000 0.250000
O O11 0.081549 0.424304 0.303903
O O12 0.125750 0.514864 0.379748
O O13 0.391437 0.500000 0.750000
O O14 0.500000 0.568061 0.750000
O O15 0.418092 0.580224 0.645428
O O16 0.047714 0.920727 0.500000
O O17 0.000000 0.000000 0.409719
O O18 0.500000 0.841608 0.250000
O O19 0.465647 0.897231 0.369681
O O20 0.500000 0.000000 0.078419
O O21 0.421089 0.067679 0.000000
#
# Coordination Sequence:
#
# PCOD9495282 Si02
#       8
#    16  16  16  16  16  16  16  16
#     4  10  21  35  50  71 102 132 169 210 248 292
#     4  11  20  33  55  72  98 136 167 197 249 301
#     4  10  21  35  49  72 103 131 169 211 247 291
#     4  10  18  30  47  70  98 132 163 207 244 295
#     4   9  16  32  48  73 104 127 157 200 243 293
#     4  10  18  31  53  77 103 131 161 200 247 298
#     4  10  18  29  48  70  99 131 165 202 248 295
#     4   9  16  26  45  68  93 130 167 199 243 289
#
# _framework density 16.334229000000001
#
# number of rings (size 3 to 8) (size 9 to 14) (size 15 to 20)
#    0.000    2.125    3.750    2.250    0.000    6.000 
#    0.000    0.000    0.000    0.000    0.000    0.000 
#    0.000    1.000    0.000    0.000    0.000    0.000 
#
# Total GULP energy -356608.146952 kJ/mol
# GULP energy per Si atom -5572.002296 kJ/mol
# Density = 1.629705 g / cm^3
# Si number density = 16.334229 Si / 1000 Ang^3
#
#
#
# Elastic Constant Matrix: (Units=GPa)
#
#
# Indices 1 2 3 4 5 6 
#
# 1 29.0332 22.6392 16.6844 0.0000 0.0000 0.0000
# 2 22.6392 85.5879 52.4764 0.0000 0.0000 0.0000
# 3 16.6844 52.4764 136.0019 0.0000 0.0000 0.0000
# 4 0.0000 0.0000 0.0000 23.7969 0.0000 0.0000
# 5 0.0000 0.0000 0.0000 0.0000 16.1382 0.0000
# 6 0.0000 0.0000 0.0000 0.0000 0.0000 14.3335
#
#
#
# Elastic Compliance Matrix: (Units=1/GPa)
#
#
# Indices 1 2 3 4 5 6 
#
# 1 0.043537 -0.010795 -0.001176 0.000000 0.000000 0.000000
# 2 -0.010795 0.017981 -0.005614 0.000000 0.000000 0.000000
# 3 -0.001176 -0.005614 0.009663 0.000000 0.000000 0.000000
# 4 0.000000 0.000000 0.000000 0.042022 0.000000 0.000000
# 5 0.000000 0.000000 0.000000 0.000000 0.061965 0.000000
# 6 0.000000 0.000000 0.000000 0.000000 0.000000 0.069767
#
#
# Mechanical properties :
#
#
# Convention : Reuss Voigt Hill
#
# Bulk Modulus (GPa) = 27.76859 48.24699 38.00779
# Shear Modulus (GPa) = 17.11694 21.44192 19.27943
#
# Velocity S-wave (km/s) = 3.24067 3.62705 3.43929
# Velocity P-wave (km/s) = 5.57133 6.86601 6.25227
#
# Compressibility (1/GPa) = 0.03601191
#
# Stress axis : x y z
#
# Youngs Moduli (GPa) = 22.96912 55.61318 103.48607
#
# Poissons Ratio (x) = 0.60036 0.12166
# Poissons Ratio (y) = 0.24796 0.58095
# Poissons Ratio (z) = 0.02700 0.31220
#
# Static dielectric constant tensor:
#      x y z
#    x 1.539540 0.000000 0.000000 
#    y 0.000000 1.542200 0.000000 
#    z 0.000000 0.000000 1.578330 
# 
# From -- ./inp_files/43193.got.cif
#   From: 2010.05.17/outbox.cif.g08.bks.cpg/sg66_22_cif.got.tgz:43193.got - 2010.06.03 17:51:23.
