data_PCOD9495891
_publ_section_title
;
Structure prediction by ZEFSAII (Michael W. Deem and Ramdas Pophale) SiO2 
 PCOD9495891
Probable space group: C C C M
;
_chemical_formula_sum "Si O2"
_cell_formula_units_Z 88
_cell_length_a 14.843423
_cell_length_b 14.108512
_cell_length_c 22.695776
_cell_angle_alpha 90.000000
_cell_angle_beta 90.000000
_cell_angle_gamma 90.000000
_cell_volume 4752.917897
_symmetry_space_group_name_H-M "C C C M"
_symmetry_group_IT_number 66
_symmetry_cell_setting 'orthorhombic'
loop_
_space_group_symop_operation_xyz
x,y,z
-x,-y,z
x,-y,1/2-z
-x,y,1/2-z
-x,-y,-z
x,y,-z
-x,y,1/2+z
x,-y,1/2+z
1/2+x,1/2+y,z
1/2-x,1/2-y,z
1/2+x,1/2-y,1/2-z
1/2-x,1/2+y,1/2-z
1/2-x,1/2-y,-z
1/2+x,1/2+y,-z
1/2-x,1/2+y,1/2+z
1/2+x,1/2-y,1/2+z
loop_
_atom_site_type_symbol
_atom_site_label
_atom_site_fract_x
_atom_site_fract_y
_atom_site_fract_z
Si Si1 0.531241 0.224779 0.181428
Si Si2 0.263095 0.636791 0.568412
Si Si3 0.687313 0.114330 0.788315
Si Si4 0.623454 0.918020 0.163910
Si Si5 0.556531 0.588863 0.861545
Si Si6 0.148577 0.000000 0.750000
O O1 0.500000 0.233934 0.250000
O O2 0.637915 0.201280 0.180172
O O3 0.470058 0.137327 0.157500
O O4 0.504181 0.318542 0.146954
O O5 0.261042 0.609709 0.500000
O O6 0.250000 0.750000 0.572664
O O7 0.183368 0.589570 0.606026
O O8 0.357405 0.610770 0.598585
O O9 0.673215 0.134096 0.718711
O O10 0.626743 0.025251 0.811602
O O11 0.787259 0.070797 0.788291
O O12 0.500000 0.500000 0.884603
O O13 0.591971 0.559041 0.796640
#
# Coordination Sequence:
#
# PCOD9495891 Si02
#       6
#    16  16  16  16  16   8
#     4  10  19  31  52  86 115 150 176 229 291 354
#     4  11  22  38  62  84 109 159 212 245 280 338
#     4   9  17  30  57  86 112 144 183 224 305 354
#     4   9  16  33  56  82 114 141 188 238 286 344
#     4  12  23  38  55  84 123 154 192 244 292 347
#     4  10  19  36  57  84 118 158 186 231 287 370
#
# _framework density 18.514942000000001
#
# number of rings (size 3 to 8) (size 9 to 14) (size 15 to 20)
#    0.000    2.000    5.455    1.909    0.000    4.000 
#    0.000    2.727    0.000    3.273    0.000    1.273 
#    0.000    0.000    0.000    0.000    0.000    0.000 
#
# Total GULP energy -245152.433669 kJ/mol
# GULP energy per Si atom -5571.646220 kJ/mol
# Density = 1.847280 g / cm^3
# Si number density = 18.514942 Si / 1000 Ang^3
#
#
#
# Elastic Constant Matrix: (Units=GPa)
#
#
# Indices 1 2 3 4 5 6 
#
# 1 78.1970 33.5995 38.2241 0.0000 0.0000 0.0000
# 2 33.5995 55.5114 37.6813 0.0000 0.0000 0.0000
# 3 38.2241 37.6813 99.9489 0.0000 0.0000 0.0000
# 4 0.0000 0.0000 0.0000 15.9930 0.0000 0.0000
# 5 0.0000 0.0000 0.0000 0.0000 10.2836 0.0000
# 6 0.0000 0.0000 0.0000 0.0000 0.0000 28.0998
#
#
#
# Elastic Compliance Matrix: (Units=1/GPa)
#
#
# Indices 1 2 3 4 5 6 
#
# 1 0.018293 -0.008498 -0.003792 0.000000 0.000000 0.000000
# 2 -0.008498 0.028158 -0.007366 0.000000 0.000000 0.000000
# 3 -0.003792 -0.007366 0.014232 0.000000 0.000000 0.000000
# 4 0.000000 0.000000 0.000000 0.062527 0.000000 0.000000
# 5 0.000000 0.000000 0.000000 0.000000 0.097242 0.000000
# 6 0.000000 0.000000 0.000000 0.000000 0.000000 0.035587
#
#
# Mechanical properties :
#
#
# Convention : Reuss Voigt Hill
#
# Bulk Modulus (GPa) = 46.79161 50.29633 48.54397
# Shear Modulus (GPa) = 16.53020 19.15211 17.84116
#
# Velocity S-wave (km/s) = 2.99122 3.21972 3.10757
# Velocity P-wave (km/s) = 6.10386 6.40674 6.25713
#
# Compressibility (1/GPa) = 0.02137135
#
# Stress axis : x y z
#
# Youngs Moduli (GPa) = 54.66432 35.51392 70.26304
#
# Poissons Ratio (x) = 0.30181 0.26645
# Poissons Ratio (y) = 0.46456 0.51753
# Poissons Ratio (z) = 0.20729 0.26158
#
# Static dielectric constant tensor:
#      x y z
#    x 1.689580 0.000000 0.000000 
#    y 0.000000 1.699930 0.000000 
#    z 0.000000 0.000000 1.600890 
# 
# From -- ./inp_files/58134.got.cif
#   From: 2010.05.17/outbox.cif.g08.bks.cpg/sg66_30_cif.got.tgz:58134.got - 2010.06.03 17:51:23.
