data_PCOD9495601
_publ_section_title
;
Structure prediction by ZEFSAII (Michael W. Deem and Ramdas Pophale) SiO2 
 PCOD9495601
Probable space group: C C C M
;
_chemical_formula_sum "Si O2"
_cell_formula_units_Z 104
_cell_length_a 15.446955
_cell_length_b 16.552852
_cell_length_c 21.084807
_cell_angle_alpha 90.000000
_cell_angle_beta 90.000000
_cell_angle_gamma 90.000000
_cell_volume 5391.198759
_symmetry_space_group_name_H-M "C C C M"
_symmetry_group_IT_number 66
_symmetry_cell_setting 'orthorhombic'
loop_
_space_group_symop_operation_xyz
x,y,z
-x,-y,z
x,-y,1/2-z
-x,y,1/2-z
-x,-y,-z
x,y,-z
-x,y,1/2+z
x,-y,1/2+z
1/2+x,1/2+y,z
1/2-x,1/2-y,z
1/2+x,1/2-y,1/2-z
1/2-x,1/2+y,1/2-z
1/2-x,1/2-y,-z
1/2+x,1/2+y,-z
1/2-x,1/2+y,1/2+z
1/2+x,1/2-y,1/2+z
loop_
_atom_site_type_symbol
_atom_site_label
_atom_site_fract_x
_atom_site_fract_y
_atom_site_fract_z
Si Si1 0.305169 0.074841 0.926062
Si Si2 0.700815 0.575679 0.430472
Si Si3 0.882894 0.840981 0.074725
Si Si4 0.463290 0.416120 0.342799
Si Si5 0.250000 0.750000 0.105170
Si Si6 0.092163 0.312879 0.838941
Si Si7 0.907318 0.257995 0.800713
O O1 0.210763 0.117197 0.918154
O O2 0.369557 0.108209 0.872597
O O3 0.282941 0.980730 0.917290
O O4 0.332717 0.088837 0.000000
O O5 0.667522 0.550571 0.500000
O O6 0.625238 0.564797 0.379905
O O7 0.727550 0.668780 0.431424
O O8 0.880848 0.756531 0.111605
O O9 0.962233 0.887816 0.107894
O O10 0.899462 0.830835 0.000000
O O11 0.500000 0.500000 0.315342
O O12 0.438529 0.336593 0.301221
O O13 0.168885 0.733522 0.150020
O O14 0.123164 0.288453 0.768232
O O15 0.989122 0.308407 0.827029
#
# Coordination Sequence:
#
# PCOD9495601 Si02
#       7
#    16  16  16  16   8  16  16
#     4  10  20  33  56  89 120 148 191 241 294 358
#     4  10  20  35  58  89 120 156 195 244 299 356
#     4  10  19  30  53  87 120 156 188 227 299 367
#     4  10  18  34  58  85 123 155 190 242 295 360
#     4  10  21  40  60  78 115 158 204 244 282 364
#     4  10  20  38  55  79 116 154 191 249 289 345
#     4   9  22  38  59  80 109 162 204 237 294 353
#
# _framework density 19.290700000000001
#
# number of rings (size 3 to 8) (size 9 to 14) (size 15 to 20)
#    0.000    2.154    1.538    1.615    2.154    1.846 
#    0.000   10.000    0.000    3.692    0.000    0.000 
#    0.000    0.000    0.000    0.000    0.000    0.000 
#
# Total GULP energy -289889.553491 kJ/mol
# GULP energy per Si atom -5574.799106 kJ/mol
# Density = 1.924679 g / cm^3
# Si number density = 19.290700 Si / 1000 Ang^3
#
#
#
# Elastic Constant Matrix: (Units=GPa)
#
#
# Indices 1 2 3 4 5 6 
#
# 1 43.6597 26.4201 35.6494 0.0000 0.0000 0.0000
# 2 26.4201 80.4644 43.1964 0.0000 0.0000 0.0000
# 3 35.6494 43.1964 113.9597 0.0000 0.0000 0.0000
# 4 0.0000 0.0000 0.0000 71.9425 0.0000 0.0000
# 5 0.0000 0.0000 0.0000 0.0000 15.5692 0.0000
# 6 0.0000 0.0000 0.0000 0.0000 0.0000 30.2586
#
#
#
# Elastic Compliance Matrix: (Units=1/GPa)
#
#
# Indices 1 2 3 4 5 6 
#
# 1 0.033435 -0.006734 -0.007907 0.000000 0.000000 0.000000
# 2 -0.006734 0.016959 -0.004322 0.000000 0.000000 0.000000
# 3 -0.007907 -0.004322 0.012887 0.000000 0.000000 0.000000
# 4 0.000000 0.000000 0.000000 0.013900 0.000000 0.000000
# 5 0.000000 0.000000 0.000000 0.000000 0.064230 0.000000
# 6 0.000000 0.000000 0.000000 0.000000 0.000000 0.033048
#
#
# Mechanical properties :
#
#
# Convention : Reuss Voigt Hill
#
# Bulk Modulus (GPa) = 39.43812 49.84619 44.64215
# Shear Modulus (GPa) = 22.64121 32.40857 27.52489
#
# Velocity S-wave (km/s) = 3.42963 4.10324 3.78146
# Velocity P-wave (km/s) = 6.01428 6.95301 6.50061
#
# Compressibility (1/GPa) = 0.02535618
#
# Stress axis : x y z
#
# Youngs Moduli (GPa) = 29.90833 58.96598 77.59897
#
# Poissons Ratio (x) = 0.39705 0.61358
# Poissons Ratio (y) = 0.20139 0.33537
# Poissons Ratio (z) = 0.23649 0.25484
#
# Static dielectric constant tensor:
#      x y z
#    x 1.660860 0.000000 0.000000 
#    y 0.000000 1.722540 0.000000 
#    z 0.000000 0.000000 1.682170 
# 
# From -- ./inp_files/51119.got.cif
#   From: 2010.05.17/outbox.cif.g08.bks.cpg/sg66_26_cif.got.tgz:51119.got - 2010.06.03 17:51:23.
