data_PCOD9495769
_publ_section_title
;
Structure prediction by ZEFSAII (Michael W. Deem and Ramdas Pophale) SiO2 
 PCOD9495769
Probable space group: C C C M
;
_chemical_formula_sum "Si O2"
_cell_formula_units_Z 96
_cell_length_a 25.204720
_cell_length_b 25.794334
_cell_length_c 9.347589
_cell_angle_alpha 90.000000
_cell_angle_beta 90.000000
_cell_angle_gamma 90.000000
_cell_volume 6077.231848
_symmetry_space_group_name_H-M "C C C M"
_symmetry_group_IT_number 66
_symmetry_cell_setting 'orthorhombic'
loop_
_space_group_symop_operation_xyz
x,y,z
-x,-y,z
x,-y,1/2-z
-x,y,1/2-z
-x,-y,-z
x,y,-z
-x,y,1/2+z
x,-y,1/2+z
1/2+x,1/2+y,z
1/2-x,1/2-y,z
1/2+x,1/2-y,1/2-z
1/2-x,1/2+y,1/2-z
1/2-x,1/2-y,-z
1/2+x,1/2+y,-z
1/2-x,1/2+y,1/2+z
1/2+x,1/2-y,1/2+z
loop_
_atom_site_type_symbol
_atom_site_label
_atom_site_fract_x
_atom_site_fract_y
_atom_site_fract_z
Si Si1 0.447595 0.744043 0.664553
Si Si2 0.948675 0.880751 0.836979
Si Si3 0.121406 0.050094 0.662942
Si Si4 0.337904 0.252856 0.328079
Si Si5 0.749174 0.449441 0.163871
Si Si6 0.249065 0.166016 0.327485
O O1 0.500000 0.762137 0.750000
O O2 0.447211 0.762436 0.500000
O O3 0.450527 0.681340 0.660128
O O4 0.392927 0.755309 0.747011
O O5 0.898454 0.900397 0.749068
O O6 0.000000 0.899613 0.750000
O O7 0.947966 0.899662 0.000000
O O8 0.102143 0.050811 0.500000
O O9 0.185019 0.048304 0.659479
O O10 0.102189 0.000000 0.750000
O O11 0.346764 0.256791 0.500000
O O12 0.297739 0.205039 0.302226
O O13 0.304625 0.304125 0.280561
O O14 0.767699 0.500000 0.250000
O O15 0.759847 0.392046 0.226747
O O16 0.768620 0.452116 0.000000
O O17 0.243414 0.160974 0.500000
#
# Coordination Sequence:
#
# PCOD9495769 Si02
#       6
#    16  16  16  16  16  16
#     4  10  20  32  46  65  89 116 146 182 222 265
#     4  10  20  32  44  58  77 103 138 178 219 260
#     4  10  19  30  44  60  79 105 139 179 220 259
#     4   9  16  29  49  69  90 119 153 187 224 268
#     4   9  17  29  44  63  87 115 146 178 213 257
#     4   8  15  28  47  69  92 120 152 184 223 271
#
# _framework density 15.796666
#
# number of rings (size 3 to 8) (size 9 to 14) (size 15 to 20)
#    0.000    2.667    0.000    3.500    0.000    4.333 
#    0.000    5.000    0.000    0.000    0.000    0.000 
#    0.000    0.667    0.000    7.667    0.000    2.333 
#
# Total GULP energy -267358.825586 kJ/mol
# GULP energy per Si atom -5569.975533 kJ/mol
# Density = 1.576071 g / cm^3
# Si number density = 15.796666 Si / 1000 Ang^3
#
#
#
# Elastic Constant Matrix: (Units=GPa)
#
#
# Indices 1 2 3 4 5 6 
#
# 1 76.3747 16.6422 39.2302 0.0000 0.0000 0.0000
# 2 16.6422 80.8454 26.3990 0.0000 0.0000 0.0000
# 3 39.2302 26.3990 90.2559 0.0000 0.0000 0.0000
# 4 0.0000 0.0000 0.0000 17.6143 0.0000 0.0000
# 5 0.0000 0.0000 0.0000 0.0000 18.1968 0.0000
# 6 0.0000 0.0000 0.0000 0.0000 0.0000 16.6481
#
#
#
# Elastic Compliance Matrix: (Units=1/GPa)
#
#
# Indices 1 2 3 4 5 6 
#
# 1 0.016961 -0.001199 -0.007022 0.000000 0.000000 0.000000
# 2 -0.001199 0.013760 -0.003504 0.000000 0.000000 0.000000
# 3 -0.007022 -0.003504 0.015156 0.000000 0.000000 0.000000
# 4 0.000000 0.000000 0.000000 0.056772 0.000000 0.000000
# 5 0.000000 0.000000 0.000000 0.000000 0.054955 0.000000
# 6 0.000000 0.000000 0.000000 0.000000 0.000000 0.060067
#
#
# Mechanical properties :
#
#
# Convention : Reuss Voigt Hill
#
# Bulk Modulus (GPa) = 44.58380 45.77986 45.18183
# Shear Modulus (GPa) = 20.11293 21.50548 20.80920
#
# Velocity S-wave (km/s) = 3.57212 3.69371 3.63342
# Velocity P-wave (km/s) = 6.73039 6.87277 6.80195
#
# Compressibility (1/GPa) = 0.02242967
#
# Stress axis : x y z
#
# Youngs Moduli (GPa) = 58.95791 72.67376 65.97858
#
# Poissons Ratio (x) = 0.08711 0.46328
# Poissons Ratio (y) = 0.07067 0.23117
# Poissons Ratio (z) = 0.41398 0.25463
#
# Static dielectric constant tensor:
#      x y z
#    x 1.520650 0.000000 0.000000 
#    y 0.000000 1.556520 0.000000 
#    z 0.000000 0.000000 1.544900 
# 
# From -- ./inp_files/7946.got.cif
#   From: 2010.05.17/outbox.cif.g08.bks.cpg/sg66_4_cif.got.tgz:7946.got - 2010.06.03 17:51:23.
