data_PCOD9495907
_publ_section_title
;
Structure prediction by ZEFSAII (Michael W. Deem and Ramdas Pophale) SiO2 
 PCOD9495907
Probable space group: C C C M
;
_chemical_formula_sum "Si O2"
_cell_formula_units_Z 80
_cell_length_a 35.125240
_cell_length_b 5.076001
_cell_length_c 27.340024
_cell_angle_alpha 90.000000
_cell_angle_beta 90.000000
_cell_angle_gamma 90.000000
_cell_volume 4874.610176
_symmetry_space_group_name_H-M "C C C M"
_symmetry_group_IT_number 66
_symmetry_cell_setting 'orthorhombic'
loop_
_space_group_symop_operation_xyz
x,y,z
-x,-y,z
x,-y,1/2-z
-x,y,1/2-z
-x,-y,-z
x,y,-z
-x,y,1/2+z
x,-y,1/2+z
1/2+x,1/2+y,z
1/2-x,1/2-y,z
1/2+x,1/2-y,1/2-z
1/2-x,1/2+y,1/2-z
1/2-x,1/2-y,-z
1/2+x,1/2+y,-z
1/2-x,1/2+y,1/2+z
1/2+x,1/2-y,1/2+z
loop_
_atom_site_type_symbol
_atom_site_label
_atom_site_fract_x
_atom_site_fract_y
_atom_site_fract_z
Si Si1 0.543343 0.484272 0.809234
Si Si2 0.408314 0.991661 0.690996
Si Si3 0.223579 0.500000 0.750000
Si Si4 0.222460 0.998748 0.500000
Si Si5 0.794481 0.835132 0.895449
Si Si6 0.674470 0.850853 0.655028
O O1 0.500000 0.500000 0.827408
O O2 0.541560 0.500000 0.750000
O O3 0.559452 0.200965 0.821933
O O4 0.574208 0.708200 0.823207
O O5 0.369475 0.097051 0.667450
O O6 0.402663 0.000000 0.750000
O O7 0.250000 0.250000 0.760536
O O8 0.198027 0.436592 0.703031
O O9 0.250000 0.750000 0.500000
O O10 0.200727 0.965432 0.551058
O O11 0.250000 0.250000 0.500000
O O12 0.750000 0.750000 0.888171
O O13 0.815405 0.558915 0.887467
O O14 0.811143 0.057668 0.858872
#
# Coordination Sequence:
#
# PCOD9495907 Si02
#       6
#    16  16   8   8  16  16
#     4   9  17  29  48  68  90 125 169 204 234 280
#     4  10  19  32  46  67  99 132 164 198 241 288
#     4  12  24  34  46  64  93 134 177 204 228 268
#     4  10  20  36  56  74  90 116 159 218 271 308
#     4  11  22  36  54  71  94 124 170 213 258 299
#     4  12  22  35  49  71  99 135 165 207 244 289
#
# _framework density 16.411569
#
# number of rings (size 3 to 8) (size 9 to 14) (size 15 to 20)
#    0.000    1.400    1.000    7.800    0.000    2.400 
#    0.000    0.000    0.000    0.000    0.000    0.000 
#    0.000    0.000    0.000   63.000    0.000    0.000 
#
# Total GULP energy -223001.370695 kJ/mol
# GULP energy per Si atom -5575.034267 kJ/mol
# Density = 1.637422 g / cm^3
# Si number density = 16.411569 Si / 1000 Ang^3
#
#
#
# Elastic Constant Matrix: (Units=GPa)
#
#
# Indices 1 2 3 4 5 6 
#
# 1 92.9472 8.9888 12.2994 0.0000 0.0000 0.0000
# 2 8.9888 83.7423 -0.2099 0.0000 0.0000 0.0000
# 3 12.2994 -0.2099 39.4465 0.0000 0.0000 0.0000
# 4 0.0000 0.0000 0.0000 23.4183 0.0000 0.0000
# 5 0.0000 0.0000 0.0000 0.0000 5.1032 0.0000
# 6 0.0000 0.0000 0.0000 0.0000 0.0000 22.0077
#
#
#
# Elastic Compliance Matrix: (Units=1/GPa)
#
#
# Indices 1 2 3 4 5 6 
#
# 1 0.011346 -0.001227 -0.003544 0.000000 0.000000 0.000000
# 2 -0.001227 0.012074 0.000447 0.000000 0.000000 0.000000
# 3 -0.003544 0.000447 0.026458 0.000000 0.000000 0.000000
# 4 0.000000 0.000000 0.000000 0.042702 0.000000 0.000000
# 5 0.000000 0.000000 0.000000 0.000000 0.195955 0.000000
# 6 0.000000 0.000000 0.000000 0.000000 0.000000 0.045439
#
#
# Mechanical properties :
#
#
# Convention : Reuss Voigt Hill
#
# Bulk Modulus (GPa) = 24.25407 28.69916 26.47661
# Shear Modulus (GPa) = 14.03053 23.10970 18.57012
#
# Velocity S-wave (km/s) = 2.92707 3.75658 3.36747
# Velocity P-wave (km/s) = 5.12195 6.02835 5.59354
#
# Compressibility (1/GPa) = 0.04123019
#
# Stress axis : x y z
#
# Youngs Moduli (GPa) = 88.13328 82.82122 37.79537
#
# Poissons Ratio (x) = 0.10160 0.13396
# Poissons Ratio (y) = 0.10812 -0.01689
# Poissons Ratio (z) = 0.31237 -0.03700
#
# Static dielectric constant tensor:
#      x y z
#    x 1.566780 0.000000 0.000000 
#    y 0.000000 1.561130 0.000000 
#    z 0.000000 0.000000 1.597700 
# 
# From -- ./inp_files/60343.got.cif
#   From: 2010.05.17/outbox.cif.g08.bks.cpg/sg66_31_cif.got.tgz:60343.got - 2010.06.03 17:51:23.
