data_PCOD9495715
_publ_section_title
;
Structure prediction by ZEFSAII (Michael W. Deem and Ramdas Pophale) SiO2 
 PCOD9495715
Probable space group: C C C M
;
_chemical_formula_sum "Si O2"
_cell_formula_units_Z 80
_cell_length_a 29.441029
_cell_length_b 23.559026
_cell_length_c 8.919996
_cell_angle_alpha 90.000000
_cell_angle_beta 90.000000
_cell_angle_gamma 90.000000
_cell_volume 6186.926777
_symmetry_space_group_name_H-M "C C C M"
_symmetry_group_IT_number 66
_symmetry_cell_setting 'orthorhombic'
loop_
_space_group_symop_operation_xyz
x,y,z
-x,-y,z
x,-y,1/2-z
-x,y,1/2-z
-x,-y,-z
x,y,-z
-x,y,1/2+z
x,-y,1/2+z
1/2+x,1/2+y,z
1/2-x,1/2-y,z
1/2+x,1/2-y,1/2-z
1/2-x,1/2+y,1/2-z
1/2-x,1/2-y,-z
1/2+x,1/2+y,-z
1/2-x,1/2+y,1/2+z
1/2+x,1/2-y,1/2+z
loop_
_atom_site_type_symbol
_atom_site_label
_atom_site_fract_x
_atom_site_fract_y
_atom_site_fract_z
Si Si1 0.871236 0.131415 0.321545
Si Si2 0.220964 0.938255 0.677965
Si Si3 0.228950 0.339130 0.675295
Si Si4 0.823123 0.767887 0.324049
Si Si5 0.450638 0.438960 0.320061
O O1 0.878827 0.128916 0.500000
O O2 0.827374 0.091832 0.285520
O O3 0.858176 0.194929 0.270239
O O4 0.913852 0.106673 0.232600
O O5 0.223548 0.942980 0.500000
O O6 0.260358 0.896256 0.736268
O O7 0.223242 0.000000 0.750000
O O8 0.221317 0.351727 0.500000
O O9 0.189514 0.295868 0.726940
O O10 0.275643 0.302706 0.684025
O O11 0.835940 0.766250 0.500000
O O12 0.437040 0.500000 0.250000
O O13 0.500000 0.426079 0.250000
O O14 0.453264 0.443014 0.500000
#
# Coordination Sequence:
#
# PCOD9495715 Si02
#       5
#    16  16  16  16  16
#     4  10  19  29  41  58  76  96 124 158 192 227
#     4  10  19  27  37  53  74  99 127 158 191 224
#     4   8  14  25  39  53  72  95 121 151 185 223
#     4   8  14  25  40  56  72  94 120 150 187 223
#     4  11  21  33  46  58  74  96 123 156 194 235
#
# _framework density 12.930491
#
# number of rings (size 3 to 8) (size 9 to 14) (size 15 to 20)
#    0.000    2.600    0.000    5.400    0.000    4.800 
#    0.000    4.000    0.000    0.000    0.000    0.000 
#    0.000    0.000    0.000    0.000    0.000    1.000 
#
# Total GULP energy -222794.934278 kJ/mol
# GULP energy per Si atom -5569.873357 kJ/mol
# Density = 1.290106 g / cm^3
# Si number density = 12.930491 Si / 1000 Ang^3
#
#
#
# Elastic Constant Matrix: (Units=GPa)
#
#
# Indices 1 2 3 4 5 6 
#
# 1 43.2286 30.7995 31.8629 0.0000 0.0000 0.0000
# 2 30.7995 67.8619 38.4315 0.0000 0.0000 0.0000
# 3 31.8629 38.4315 62.7986 0.0000 0.0000 0.0000
# 4 0.0000 0.0000 0.0000 22.3000 0.0000 0.0000
# 5 0.0000 0.0000 0.0000 0.0000 9.5876 0.0000
# 6 0.0000 0.0000 0.0000 0.0000 0.0000 20.6080
#
#
#
# Elastic Compliance Matrix: (Units=1/GPa)
#
#
# Indices 1 2 3 4 5 6 
#
# 1 0.041353 -0.010538 -0.014533 0.000000 0.000000 0.000000
# 2 -0.010538 0.025237 -0.010098 0.000000 0.000000 0.000000
# 3 -0.014533 -0.010098 0.029477 0.000000 0.000000 0.000000
# 4 0.000000 0.000000 0.000000 0.044843 0.000000 0.000000
# 5 0.000000 0.000000 0.000000 0.000000 0.104302 0.000000
# 6 0.000000 0.000000 0.000000 0.000000 0.000000 0.048525
#
#
# Mechanical properties :
#
#
# Convention : Reuss Voigt Hill
#
# Bulk Modulus (GPa) = 38.86493 41.78631 40.32562
# Shear Modulus (GPa) = 13.41741 15.35212 14.38476
#
# Velocity S-wave (km/s) = 3.22476 3.44943 3.33899
# Velocity P-wave (km/s) = 6.63231 6.94630 6.79112
#
# Compressibility (1/GPa) = 0.02573014
#
# Stress axis : x y z
#
# Youngs Moduli (GPa) = 24.18227 39.62407 33.92455
#
# Poissons Ratio (x) = 0.41756 0.49301
# Poissons Ratio (y) = 0.25483 0.34257
# Poissons Ratio (z) = 0.35143 0.40012
#
# Static dielectric constant tensor:
#      x y z
#    x 1.408970 0.000000 0.000000 
#    y 0.000000 1.429800 0.000000 
#    z 0.000000 0.000000 1.429360 
# 
# From -- ./inp_files/8202.got.cif
#   From: 2010.05.17/outbox.cif.g08.bks.cpg/sg66_5_cif.got.tgz:8202.got - 2010.06.03 17:51:23.
