data_PCOD9495484
_publ_section_title
;
Structure prediction by ZEFSAII (Michael W. Deem and Ramdas Pophale) SiO2 
 PCOD9495484
Probable space group: C C C M
;
_chemical_formula_sum "Si O2"
_cell_formula_units_Z 88
_cell_length_a 14.009707
_cell_length_b 15.874490
_cell_length_c 19.980903
_cell_angle_alpha 90.000000
_cell_angle_beta 90.000000
_cell_angle_gamma 90.000000
_cell_volume 4443.691959
_symmetry_space_group_name_H-M "C C C M"
_symmetry_group_IT_number 66
_symmetry_cell_setting 'orthorhombic'
loop_
_space_group_symop_operation_xyz
x,y,z
-x,-y,z
x,-y,1/2-z
-x,y,1/2-z
-x,-y,-z
x,y,-z
-x,y,1/2+z
x,-y,1/2+z
1/2+x,1/2+y,z
1/2-x,1/2-y,z
1/2+x,1/2-y,1/2-z
1/2-x,1/2+y,1/2-z
1/2-x,1/2-y,-z
1/2+x,1/2+y,-z
1/2-x,1/2+y,1/2+z
1/2+x,1/2-y,1/2+z
loop_
_atom_site_type_symbol
_atom_site_label
_atom_site_fract_x
_atom_site_fract_y
_atom_site_fract_z
Si Si1 0.356566 0.226747 0.835616
Si Si2 0.691137 0.966192 0.824283
Si Si3 0.480335 0.192225 0.425667
Si Si4 0.105193 0.025071 0.328570
Si Si5 0.000000 0.500000 0.396517
Si Si6 0.639802 0.722027 0.311268
O O1 0.250000 0.250000 0.853166
O O2 0.345337 0.128731 0.818910
O O3 0.425059 0.238252 0.898313
O O4 0.391472 0.270268 0.766907
O O5 0.700208 0.000000 0.750000
O O6 0.797290 0.979633 0.855306
O O7 0.601006 0.010051 0.858595
O O8 0.449608 0.219063 0.500000
O O9 0.504892 0.092519 0.429357
O O10 0.408985 0.216501 0.365349
O O11 0.123193 0.125421 0.332799
O O12 0.100874 0.000000 0.250000
O O13 0.000000 0.000000 0.356446
O O14 0.750000 0.750000 0.309107
#
# Coordination Sequence:
#
# PCOD9495484 Si02
#       6
#    16  16  16  16   8  16
#     4  10  21  35  61  86 117 151 200 254 302 360
#     4  10  18  32  54  87 118 149 194 250 314 358
#     4  11  24  38  59  86 121 160 201 251 310 372
#     4  10  21  32  56  89 124 158 194 247 317 376
#     4  10  20  38  58  80 115 160 207 250 303 376
#     4  11  22  38  62  93 120 160 209 256 307 367
#
# _framework density 19.803352
#
# number of rings (size 3 to 8) (size 9 to 14) (size 15 to 20)
#    0.000    1.636    0.000    7.636    7.636    3.636 
#    0.000    0.000    0.000    1.636    0.000    0.000 
#    0.000    0.000    0.000    0.000    0.000    0.000 
#
# Total GULP energy -244973.523055 kJ/mol
# GULP energy per Si atom -5567.580069 kJ/mol
# Density = 1.975828 g / cm^3
# Si number density = 19.803352 Si / 1000 Ang^3
#
#
#
# Elastic Constant Matrix: (Units=GPa)
#
#
# Indices 1 2 3 4 5 6 
#
# 1 127.9851 -12.0003 18.5357 0.0000 0.0000 0.0000
# 2 -12.0003 48.9031 -5.0649 0.0000 0.0000 0.0000
# 3 18.5357 -5.0649 50.6309 0.0000 0.0000 0.0000
# 4 0.0000 0.0000 0.0000 7.0169 0.0000 0.0000
# 5 0.0000 0.0000 0.0000 0.0000 2.5087 0.0000
# 6 0.0000 0.0000 0.0000 0.0000 0.0000 33.4634
#
#
#
# Elastic Compliance Matrix: (Units=1/GPa)
#
#
# Indices 1 2 3 4 5 6 
#
# 1 0.008398 0.001761 -0.002898 0.000000 0.000000 0.000000
# 2 0.001761 0.021032 0.001459 0.000000 0.000000 0.000000
# 3 -0.002898 0.001459 0.020958 0.000000 0.000000 0.000000
# 4 0.000000 0.000000 0.000000 0.142512 0.000000 0.000000
# 5 0.000000 0.000000 0.000000 0.000000 0.398619 0.000000
# 6 0.000000 0.000000 0.000000 0.000000 0.000000 0.029883
#
#
# Mechanical properties :
#
#
# Convention : Reuss Voigt Hill
#
# Bulk Modulus (GPa) = 19.59589 25.60668 22.60128
# Shear Modulus (GPa) = 7.83982 23.66771 15.75376
#
# Velocity S-wave (km/s) = 1.99184 3.46083 2.82354
# Velocity P-wave (km/s) = 3.89957 5.37850 4.69760
#
# Compressibility (1/GPa) = 0.05103112
#
# Stress axis : x y z
#
# Youngs Moduli (GPa) = 119.07222 47.54706 47.71480
#
# Poissons Ratio (x) = -0.08371 0.13830
# Poissons Ratio (y) = -0.20965 -0.06963
# Poissons Ratio (z) = 0.34512 -0.06939
#
# Static dielectric constant tensor:
#      x y z
#    x 1.862380 0.000000 0.000000 
#    y 0.000000 1.727980 0.000000 
#    z 0.000000 0.000000 1.731610 
# 
# From -- ./inp_files/49860.got.cif
#   From: 2010.05.17/outbox.cif.g08.bks.cpg/sg66_25_cif.got.tgz:49860.got - 2010.06.03 17:51:23.
