data_PCOD9495224
_publ_section_title
;
Structure prediction by ZEFSAII (Michael W. Deem and Ramdas Pophale) SiO2 
 PCOD9495224
Probable space group: C C C M
;
_chemical_formula_sum "Si O2"
_cell_formula_units_Z 112
_cell_length_a 12.782782
_cell_length_b 21.120769
_cell_length_c 15.713143
_cell_angle_alpha 90.000000
_cell_angle_beta 90.000000
_cell_angle_gamma 90.000000
_cell_volume 4242.268693
_symmetry_space_group_name_H-M "C C C M"
_symmetry_group_IT_number 66
_symmetry_cell_setting 'orthorhombic'
loop_
_space_group_symop_operation_xyz
x,y,z
-x,-y,z
x,-y,1/2-z
-x,y,1/2-z
-x,-y,-z
x,y,-z
-x,y,1/2+z
x,-y,1/2+z
1/2+x,1/2+y,z
1/2-x,1/2-y,z
1/2+x,1/2-y,1/2-z
1/2-x,1/2+y,1/2-z
1/2-x,1/2-y,-z
1/2+x,1/2+y,-z
1/2-x,1/2+y,1/2+z
1/2+x,1/2-y,1/2+z
loop_
_atom_site_type_symbol
_atom_site_label
_atom_site_fract_x
_atom_site_fract_y
_atom_site_fract_z
Si Si1 0.605978 0.626869 0.406801
Si Si2 0.335137 0.478853 0.907210
Si Si3 0.384326 0.018759 0.350765
Si Si4 0.339441 0.834945 0.093768
Si Si5 0.886290 0.656210 0.237161
Si Si6 0.637151 0.628602 0.215450
Si Si7 0.874643 0.246115 0.405297
O O1 0.554247 0.638500 0.500000
O O2 0.628546 0.551237 0.406525
O O3 0.714947 0.665619 0.413193
O O4 0.584095 0.636833 0.306790
O O5 0.209669 0.481495 0.895765
O O6 0.382127 0.437832 0.831594
O O7 0.360037 0.451352 0.000000
O O8 0.365930 0.092071 0.377787
O O9 0.500000 0.000000 0.378633
O O10 0.374137 0.000000 0.250000
O O11 0.374711 0.799038 0.178900
O O12 0.381623 0.821186 0.000000
O O13 0.766231 0.630405 0.228396
O O14 0.905443 0.694114 0.151027
O O15 0.000000 0.620989 0.250000
O O16 0.608151 0.682969 0.148534
O O17 0.917344 0.247016 0.500000
O O18 0.750000 0.250000 0.411780
#
# Coordination Sequence:
#
# PCOD9495224 Si02
#       7
#    16  16  16  16  16  16  16
#     4   8  15  28  44  64  94 125 155 195 238 284
#     4  10  18  27  41  65  95 131 169 203 239 284
#     4  10  19  27  38  55  91 131 165 200 238 283
#     4   9  18  30  42  59  87 123 160 198 242 287
#     4  10  21  33  48  67  92 124 168 219 263 303
#     4  10  18  31  50  69  94 130 171 209 250 298
#     4   9  19  36  53  71  95 124 164 217 268 310
#
# _framework density 26.400969
#
# number of rings (size 3 to 8) (size 9 to 14) (size 15 to 20)
#    0.000    2.571    0.000    4.714    4.000    2.286 
#    0.000    0.714    0.000    4.286    0.000    0.000 
#    0.000    2.286    0.000    8.571    0.000    2.143 
#
# Total GULP energy -312632.925524 kJ/mol
# GULP energy per Si atom -5582.730813 kJ/mol
# Density = 2.634088 g / cm^3
# Si number density = 26.400969 Si / 1000 Ang^3
#
#
#
# Elastic Constant Matrix: (Units=GPa)
#
#
# Indices 1 2 3 4 5 6 
#
# 1 118.5337 24.2534 40.6205 0.0000 0.0000 0.0000
# 2 24.2534 51.0455 37.3381 0.0000 0.0000 0.0000
# 3 40.6205 37.3381 279.2761 0.0000 0.0000 0.0000
# 4 0.0000 0.0000 0.0000 -6.2424 0.0000 0.0000
# 5 0.0000 0.0000 0.0000 0.0000 101.1313 0.0000
# 6 0.0000 0.0000 0.0000 0.0000 0.0000 28.1447
#
#
#
# Elastic Compliance Matrix: (Units=1/GPa)
#
#
# Indices 1 2 3 4 5 6 
#
# 1 0.009530 -0.003895 -0.000865 0.000000 0.000000 0.000000
# 2 -0.003895 0.023306 -0.002549 0.000000 0.000000 0.000000
# 3 -0.000865 -0.002549 0.004047 0.000000 0.000000 0.000000
# 4 0.000000 0.000000 0.000000 -0.160194 0.000000 0.000000
# 5 0.000000 0.000000 0.000000 0.000000 0.009888 0.000000
# 6 0.000000 0.000000 0.000000 0.000000 0.000000 0.035531
#
#
# Mechanical properties :
#
#
# Convention : Reuss Voigt Hill
#
# Bulk Modulus (GPa) = 44.91629 72.58659 58.75144
# Shear Modulus (GPa) = -89.52324 47.71626 -20.90349
#
# Velocity S-wave (km/s) = -5.82947 4.25593 -2.81689
# Velocity P-wave (km/s) = 5.31603 7.19056 3.42374
#
# Compressibility (1/GPa) = 0.02226364
#
# Stress axis : x y z
#
# Youngs Moduli (GPa) = 104.93242 42.90784 247.07256
#
# Poissons Ratio (x) = 0.16713 0.21381
# Poissons Ratio (y) = 0.40871 0.62988
# Poissons Ratio (z) = 0.09081 0.10939
#
# Static dielectric constant tensor:
#      x y z
#    x 2.087660 0.000000 0.000000 
#    y 0.000000 2.106920 0.000000 
#    z 0.000000 0.000000 2.165860 
# 
# From -- ./inp_files/28726.got.cif
#   From: 2010.05.17/outbox.cif.g08.bks.cpg/sg66_15_cif.got.tgz:28726.got - 2010.06.03 17:51:23.
