data_PCOD9495168
_publ_section_title
;
Structure prediction by ZEFSAII (Michael W. Deem and Ramdas Pophale) SiO2 
 PCOD9495168
Probable space group: C C C M
;
_chemical_formula_sum "Si O2"
_cell_formula_units_Z 64
_cell_length_a 7.707661
_cell_length_b 17.977415
_cell_length_c 21.033883
_cell_angle_alpha 90.000000
_cell_angle_beta 90.000000
_cell_angle_gamma 90.000000
_cell_volume 2914.535188
_symmetry_space_group_name_H-M "C C C M"
_symmetry_group_IT_number 66
_symmetry_cell_setting 'orthorhombic'
loop_
_space_group_symop_operation_xyz
x,y,z
-x,-y,z
x,-y,1/2-z
-x,y,1/2-z
-x,-y,-z
x,y,-z
-x,y,1/2+z
x,-y,1/2+z
1/2+x,1/2+y,z
1/2-x,1/2-y,z
1/2+x,1/2-y,1/2-z
1/2-x,1/2+y,1/2-z
1/2-x,1/2-y,-z
1/2+x,1/2+y,-z
1/2-x,1/2+y,1/2+z
1/2+x,1/2-y,1/2+z
loop_
_atom_site_type_symbol
_atom_site_label
_atom_site_fract_x
_atom_site_fract_y
_atom_site_fract_z
Si Si1 0.506282 0.182018 0.070662
Si Si2 0.643205 0.815604 0.798213
Si Si3 0.779719 0.074513 0.388080
Si Si4 0.331084 0.414686 0.573030
O O1 0.437900 0.218937 0.135759
O O2 0.380004 0.109107 0.071910
O O3 0.702674 0.154475 0.081043
O O4 0.490705 0.217174 0.000000
O O5 0.500000 0.842187 0.750000
O O6 0.750000 0.750000 0.766717
O O7 0.756624 0.884690 0.821052
O O8 0.966048 0.098270 0.415659
O O9 0.774932 0.985792 0.385808
O O10 0.310246 0.439312 0.500000
#
# Coordination Sequence:
#
# PCOD9495168 Si02
#       4
#    16  16  16  16
#     4   9  19  35  60  95 124 153 194 244 299 360
#     4  10  24  43  62  79 114 166 212 256 303 352
#     4   9  19  33  59  93 122 161 194 236 289 368
#     4  10  17  32  61  98 136 158 178 229 314 380
#
# _framework density 21.958905999999999
#
# number of rings (size 3 to 8) (size 9 to 14) (size 15 to 20)
#    1.500    1.000    0.000    3.750    0.000    4.500 
#    0.000    2.500    0.000    6.750    0.000    0.000 
#    0.000    0.000    0.000    0.000    0.000    0.000 
#
# Total GULP energy -178275.701790 kJ/mol
# GULP energy per Si atom -5571.115681 kJ/mol
# Density = 2.190893 g / cm^3
# Si number density = 21.958906 Si / 1000 Ang^3
#
#
#
# Elastic Constant Matrix: (Units=GPa)
#
#
# Indices 1 2 3 4 5 6 
#
# 1 68.7939 4.1551 5.2524 0.0000 0.0000 0.0000
# 2 4.1551 42.4012 9.9310 0.0000 0.0000 0.0000
# 3 5.2524 9.9310 25.4841 0.0000 0.0000 0.0000
# 4 0.0000 0.0000 0.0000 -7.9355 0.0000 0.0000
# 5 0.0000 0.0000 0.0000 0.0000 27.3229 0.0000
# 6 0.0000 0.0000 0.0000 0.0000 0.0000 14.6069
#
#
#
# Elastic Compliance Matrix: (Units=1/GPa)
#
#
# Indices 1 2 3 4 5 6 
#
# 1 0.014794 -0.000809 -0.002734 0.000000 0.000000 0.000000
# 2 -0.000809 0.025997 -0.009964 0.000000 0.000000 0.000000
# 3 -0.002734 -0.009964 0.043687 0.000000 0.000000 0.000000
# 4 0.000000 0.000000 0.000000 -0.126017 0.000000 0.000000
# 5 0.000000 0.000000 0.000000 0.000000 0.036599 0.000000
# 6 0.000000 0.000000 0.000000 0.000000 0.000000 0.068461
#
#
# Mechanical properties :
#
#
# Convention : Reuss Voigt Hill
#
# Bulk Modulus (GPa) = 17.40248 19.48403 18.44326
# Shear Modulus (GPa) = 45.58285 14.62156 30.10221
#
# Velocity S-wave (km/s) = 4.56107 2.58323 3.70651
# Velocity P-wave (km/s) = 5.97327 4.21777 5.17057
#
# Compressibility (1/GPa) = 0.05746308
#
# Stress axis : x y z
#
# Youngs Moduli (GPa) = 67.59594 38.46545 22.89034
#
# Poissons Ratio (x) = 0.03114 0.06257
# Poissons Ratio (y) = 0.05472 0.22808
# Poissons Ratio (z) = 0.18478 0.38328
#
# Static dielectric constant tensor:
#      x y z
#    x 1.882130 0.000000 0.000000 
#    y 0.000000 1.807800 0.000000 
#    z 0.000000 0.000000 1.800480 
# 
# From -- ./inp_files/46852.got.cif
#   From: 2010.05.17/outbox.cif.g08.bks.cpg/sg66_24_cif.got.tgz:46852.got - 2010.06.03 17:51:23.
