data_PCOD9495486
_publ_section_title
;
Structure prediction by ZEFSAII (Michael W. Deem and Ramdas Pophale) SiO2 
 PCOD9495486
Probable space group: C C C M
;
_chemical_formula_sum "Si O2"
_cell_formula_units_Z 80
_cell_length_a 18.930198
_cell_length_b 14.076041
_cell_length_c 14.908298
_cell_angle_alpha 90.000000
_cell_angle_beta 90.000000
_cell_angle_gamma 90.000000
_cell_volume 3972.498527
_symmetry_space_group_name_H-M "C C C M"
_symmetry_group_IT_number 66
_symmetry_cell_setting 'orthorhombic'
loop_
_space_group_symop_operation_xyz
x,y,z
-x,-y,z
x,-y,1/2-z
-x,y,1/2-z
-x,-y,-z
x,y,-z
-x,y,1/2+z
x,-y,1/2+z
1/2+x,1/2+y,z
1/2-x,1/2-y,z
1/2+x,1/2-y,1/2-z
1/2-x,1/2+y,1/2-z
1/2-x,1/2-y,-z
1/2+x,1/2+y,-z
1/2-x,1/2+y,1/2+z
1/2+x,1/2-y,1/2+z
loop_
_atom_site_type_symbol
_atom_site_label
_atom_site_fract_x
_atom_site_fract_y
_atom_site_fract_z
Si Si1 0.113401 0.533495 0.152198
Si Si2 0.523306 0.858300 0.103926
Si Si3 0.965060 0.853284 0.109175
Si Si4 0.252910 0.643774 0.105304
Si Si5 0.391363 0.540468 0.890172
O O1 0.134976 0.500000 0.250000
O O2 0.044659 0.601291 0.155573
O O3 0.178748 0.589527 0.111340
O O4 0.084212 0.437792 0.105853
O O5 0.546305 0.754977 0.137744
O O6 0.499912 0.848800 0.000000
O O7 0.043293 0.890513 0.133436
O O8 0.911088 0.934340 0.141037
O O9 0.961460 0.853397 0.000000
O O10 0.250000 0.750000 0.144900
O O11 0.317414 0.581577 0.142646
O O12 0.269755 0.655566 0.000000
O O13 0.390489 0.536583 0.000000
#
# Coordination Sequence:
#
# PCOD9495486 Si02
#       5
#    16  16  16  16  16
#     4  11  22  35  49  72 105 135 165 209 265 318
#     4  10  18  32  55  77  97 128 173 215 253 306
#     4   8  14  26  48  77 102 125 157 206 260 299
#     4  10  19  33  55  79 102 135 180 223 259 303
#     4   8  14  26  46  75 106 127 156 207 258 298
#
# _framework density 20.138458
#
# number of rings (size 3 to 8) (size 9 to 14) (size 15 to 20)
#    0.000    2.600    0.000    6.000    0.000    3.200 
#    0.000    3.000    0.000    4.800    0.000    7.000 
#    0.000    0.000    0.000    0.000    0.000    0.000 
#
# Total GULP energy -223125.569486 kJ/mol
# GULP energy per Si atom -5578.139237 kJ/mol
# Density = 2.009262 g / cm^3
# Si number density = 20.138458 Si / 1000 Ang^3
#
#
#
# Elastic Constant Matrix: (Units=GPa)
#
#
# Indices 1 2 3 4 5 6 
#
# 1 131.9993 94.3998 -12.9832 0.0000 0.0000 0.0000
# 2 94.3998 209.8618 -5.0790 0.0000 0.0000 0.0000
# 3 -12.9832 -5.0790 14.8851 0.0000 0.0000 0.0000
# 4 0.0000 0.0000 0.0000 -9.2093 0.0000 0.0000
# 5 0.0000 0.0000 0.0000 0.0000 10.6918 0.0000
# 6 0.0000 0.0000 0.0000 0.0000 0.0000 12.8743
#
#
#
# Elastic Compliance Matrix: (Units=1/GPa)
#
#
# Indices 1 2 3 4 5 6 
#
# 1 0.012227 -0.005286 0.008862 0.000000 0.000000 0.000000
# 2 -0.005286 0.007090 -0.002191 0.000000 0.000000 0.000000
# 3 0.008862 -0.002191 0.074163 0.000000 0.000000 0.000000
# 4 0.000000 0.000000 0.000000 -0.108586 0.000000 0.000000
# 5 0.000000 0.000000 0.000000 0.000000 0.093529 0.000000
# 6 0.000000 0.000000 0.000000 0.000000 0.000000 0.077674
#
#
# Mechanical properties :
#
#
# Convention : Reuss Voigt Hill
#
# Bulk Modulus (GPa) = 10.38967 56.60237 33.49602
# Shear Modulus (GPa) = 26.96703 21.56527 24.26615
#
# Velocity S-wave (km/s) = 3.66332 3.27593 3.47503
# Velocity P-wave (km/s) = 4.80245 6.51741 5.72451
#
# Compressibility (1/GPa) = 0.09624948
#
# Stress axis : x y z
#
# Youngs Moduli (GPa) = 81.78302 141.05156 13.48381
#
# Poissons Ratio (x) = 0.74555 -0.11949
# Poissons Ratio (y) = 0.43228 0.02955
# Poissons Ratio (z) = -0.72473 0.30908
#
# Static dielectric constant tensor:
#      x y z
#    x 1.675600 0.000000 0.000000 
#    y 0.000000 1.735170 0.000000 
#    z 0.000000 0.000000 1.765650 
# 
# From -- ./inp_files/41472.got.cif
#   From: 2010.05.17/outbox.cif.g08.bks.cpg/sg66_21_cif.got.tgz:41472.got - 2010.06.03 17:51:23.
