data_PCOD9495054
_publ_section_title
;
Structure prediction by ZEFSAII (Michael W. Deem and Ramdas Pophale) SiO2 
 PCOD9495054
Probable space group: C C C M
;
_chemical_formula_sum "Si O2"
_cell_formula_units_Z 112
_cell_length_a 13.931109
_cell_length_b 27.825179
_cell_length_c 15.659511
_cell_angle_alpha 90.000000
_cell_angle_beta 90.000000
_cell_angle_gamma 90.000000
_cell_volume 6070.183967
_symmetry_space_group_name_H-M "C C C M"
_symmetry_group_IT_number 66
_symmetry_cell_setting 'orthorhombic'
loop_
_space_group_symop_operation_xyz
x,y,z
-x,-y,z
x,-y,1/2-z
-x,y,1/2-z
-x,-y,-z
x,y,-z
-x,y,1/2+z
x,-y,1/2+z
1/2+x,1/2+y,z
1/2-x,1/2-y,z
1/2+x,1/2-y,1/2-z
1/2-x,1/2+y,1/2-z
1/2-x,1/2-y,-z
1/2+x,1/2+y,-z
1/2-x,1/2+y,1/2+z
1/2+x,1/2-y,1/2+z
loop_
_atom_site_type_symbol
_atom_site_label
_atom_site_fract_x
_atom_site_fract_y
_atom_site_fract_z
Si Si1 0.857107 0.522234 0.158772
Si Si2 0.449721 0.065675 0.403913
Si Si3 0.809342 0.799826 0.789228
Si Si4 0.302834 0.698111 0.093257
Si Si5 0.981939 0.768953 0.094910
Si Si6 0.208252 0.378910 0.900432
Si Si7 0.000880 0.338430 0.351523
O O1 0.834784 0.500000 0.250000
O O2 0.868637 0.474810 0.100909
O O3 0.789988 0.565811 0.130572
O O4 0.963156 0.547042 0.155414
O O5 0.488743 0.066403 0.500000
O O6 0.424488 0.119702 0.377240
O O7 0.750000 0.750000 0.799422
O O8 0.789183 0.817714 0.692001
O O9 0.913904 0.785135 0.827006
O O10 0.774410 0.842704 0.849020
O O11 0.250000 0.750000 0.091657
O O12 0.418116 0.703207 0.092217
O O13 0.275678 0.675241 0.000000
O O14 0.013271 0.713590 0.108704
O O15 0.935055 0.772962 0.000000
O O16 0.100947 0.358410 0.884349
O O17 0.229329 0.377308 0.000000
O O18 0.000000 0.333856 0.250000
#
# Coordination Sequence:
#
# PCOD9495054 Si02
#       7
#    16  16  16  16  16  16  16
#     4  10  18  31  46  64  92 135 179 224 277 335
#     4  10  17  28  45  65  94 135 184 233 280 330
#     4  11  21  34  56  79 110 149 192 237 282 334
#     4   9  20  37  54  73 104 148 185 227 280 332
#     4  11  21  34  53  79 111 147 191 234 279 334
#     4  11  22  35  51  75 109 146 188 242 297 336
#     4  11  20  29  45  71 105 143 191 232 274 331
#
# _framework density 18.450839999999999
#
# number of rings (size 3 to 8) (size 9 to 14) (size 15 to 20)
#    0.000    1.571    1.429    8.143    2.000    0.571 
#    0.000    0.000    0.000    1.714    0.000    0.000 
#    0.000    2.286    0.000    8.571    1.714    0.000 
#
# Total GULP energy -311925.067435 kJ/mol
# GULP energy per Si atom -5570.090490 kJ/mol
# Density = 1.840885 g / cm^3
# Si number density = 18.450840 Si / 1000 Ang^3
#
#
#
# Elastic Constant Matrix: (Units=GPa)
#
#
# Indices 1 2 3 4 5 6 
#
# 1 33.6985 10.8648 17.8190 0.0000 0.0000 0.0000
# 2 10.8648 94.2439 44.4031 0.0000 0.0000 0.0000
# 3 17.8190 44.4031 166.3512 0.0000 0.0000 0.0000
# 4 0.0000 0.0000 0.0000 29.1146 0.0000 0.0000
# 5 0.0000 0.0000 0.0000 0.0000 18.7591 0.0000
# 6 0.0000 0.0000 0.0000 0.0000 0.0000 13.5260
#
#
#
# Elastic Compliance Matrix: (Units=1/GPa)
#
#
# Indices 1 2 3 4 5 6 
#
# 1 0.031911 -0.002366 -0.002787 0.000000 0.000000 0.000000
# 2 -0.002366 0.012313 -0.003033 0.000000 0.000000 0.000000
# 3 -0.002787 -0.003033 0.007119 0.000000 0.000000 0.000000
# 4 0.000000 0.000000 0.000000 0.034347 0.000000 0.000000
# 5 0.000000 0.000000 0.000000 0.000000 0.053307 0.000000
# 6 0.000000 0.000000 0.000000 0.000000 0.000000 0.073932
#
#
# Mechanical properties :
#
#
# Convention : Reuss Voigt Hill
#
# Bulk Modulus (GPa) = 28.59438 48.94081 38.76760
# Shear Modulus (GPa) = 20.75047 27.02704 23.88876
#
# Velocity S-wave (km/s) = 3.35720 3.83144 3.60213
# Velocity P-wave (km/s) = 5.52801 6.79381 6.19333
#
# Compressibility (1/GPa) = 0.03497191
#
# Stress axis : x y z
#
# Youngs Moduli (GPa) = 31.33690 81.21790 140.45957
#
# Poissons Ratio (x) = 0.19215 0.39142
# Poissons Ratio (y) = 0.07414 0.42603
# Poissons Ratio (z) = 0.08733 0.24634
#
# Static dielectric constant tensor:
#      x y z
#    x 1.666250 0.000000 0.000000 
#    y 0.000000 1.677340 0.000000 
#    z 0.000000 0.000000 1.722180 
# 
# From -- ./inp_files/29013.got.cif
#   From: 2010.05.17/outbox.cif.g08.bks.cpg/sg66_15_cif.got.tgz:29013.got - 2010.06.03 17:51:23.
