data_PCOD9495395
_publ_section_title
;
Structure prediction by ZEFSAII (Michael W. Deem and Ramdas Pophale) SiO2 
 PCOD9495395
Probable space group: C C C M
;
_chemical_formula_sum "Si O2"
_cell_formula_units_Z 104
_cell_length_a 14.118360
_cell_length_b 27.579895
_cell_length_c 14.880460
_cell_angle_alpha 90.000000
_cell_angle_beta 90.000000
_cell_angle_gamma 90.000000
_cell_volume 5794.196465
_symmetry_space_group_name_H-M "C C C M"
_symmetry_group_IT_number 66
_symmetry_cell_setting 'orthorhombic'
loop_
_space_group_symop_operation_xyz
x,y,z
-x,-y,z
x,-y,1/2-z
-x,y,1/2-z
-x,-y,-z
x,y,-z
-x,y,1/2+z
x,-y,1/2+z
1/2+x,1/2+y,z
1/2-x,1/2-y,z
1/2+x,1/2-y,1/2-z
1/2-x,1/2+y,1/2-z
1/2-x,1/2-y,-z
1/2+x,1/2+y,-z
1/2-x,1/2+y,1/2+z
1/2+x,1/2-y,1/2+z
loop_
_atom_site_type_symbol
_atom_site_label
_atom_site_fract_x
_atom_site_fract_y
_atom_site_fract_z
Si Si1 0.874558 0.834959 0.392428
Si Si2 0.254706 0.637961 0.609151
Si Si3 0.624081 0.546306 0.890686
Si Si4 0.595708 0.195116 0.301086
Si Si5 0.594631 0.439392 0.109576
Si Si6 0.250000 0.750000 0.180541
Si Si7 0.426979 0.293767 0.106669
O O1 0.882347 0.838361 0.500000
O O2 0.857036 0.889727 0.359160
O O3 0.798492 0.794072 0.372134
O O4 0.976897 0.817467 0.357101
O O5 0.246237 0.639632 0.500000
O O6 0.299506 0.586358 0.635882
O O7 0.155922 0.652328 0.654033
O O8 0.332344 0.678704 0.638418
O O9 0.516829 0.561367 0.865140
O O10 0.637212 0.490774 0.860380
O O11 0.624462 0.546419 0.000000
O O12 0.500000 0.180550 0.250000
O O13 0.666501 0.224346 0.235906
O O14 0.571779 0.236958 0.373197
O O15 0.596877 0.440465 0.000000
O O16 0.426670 0.301174 0.000000
#
# Coordination Sequence:
#
# PCOD9495395 Si02
#       7
#    16  16  16  16  16   8  16
#     4  10  19  32  49  73 105 138 167 200 246 306
#     4  10  18  31  52  78 103 134 171 214 260 308
#     4   8  13  23  46  79 105 127 156 195 250 306
#     4  12  23  35  47  69 101 138 181 219 257 300
#     4   8  13  24  45  75 108 131 153 195 249 303
#     4  12  23  34  49  68  96 140 176 208 251 306
#     4  10  18  31  51  74 102 134 171 211 254 304
#
# _framework density 17.948993999999999
#
# number of rings (size 3 to 8) (size 9 to 14) (size 15 to 20)
#    0.000    2.154    4.615    1.615    0.000    1.231 
#    0.000    0.000    0.000    0.923    0.000    4.308 
#    0.000    4.923    0.000    0.000    0.000    0.000 
#
# Total GULP energy -290034.385891 kJ/mol
# GULP energy per Si atom -5577.584344 kJ/mol
# Density = 1.790814 g / cm^3
# Si number density = 17.948994 Si / 1000 Ang^3
#
#
#
# Elastic Constant Matrix: (Units=GPa)
#
#
# Indices 1 2 3 4 5 6 
#
# 1 98.6895 64.1049 27.0563 0.0000 0.0000 0.0000
# 2 64.1049 161.2366 25.1173 0.0000 0.0000 0.0000
# 3 27.0563 25.1173 33.2558 0.0000 0.0000 0.0000
# 4 0.0000 0.0000 0.0000 -10.7523 0.0000 0.0000
# 5 0.0000 0.0000 0.0000 0.0000 11.7796 0.0000
# 6 0.0000 0.0000 0.0000 0.0000 0.0000 32.9882
#
#
#
# Elastic Compliance Matrix: (Units=1/GPa)
#
#
# Indices 1 2 3 4 5 6 
#
# 1 0.015805 -0.004851 -0.009194 0.000000 0.000000 0.000000
# 2 -0.004851 0.008518 -0.002487 0.000000 0.000000 0.000000
# 3 -0.009194 -0.002487 0.039428 0.000000 0.000000 0.000000
# 4 0.000000 0.000000 0.000000 -0.093003 0.000000 0.000000
# 5 0.000000 0.000000 0.000000 0.000000 0.084892 0.000000
# 6 0.000000 0.000000 0.000000 0.000000 0.000000 0.030314
#
#
# Mechanical properties :
#
#
# Convention : Reuss Voigt Hill
#
# Bulk Modulus (GPa) = 32.58738 58.41544 45.50141
# Shear Modulus (GPa) = 38.68531 18.59666 28.64098
#
# Velocity S-wave (km/s) = 4.64755 3.22232 3.99894
# Velocity P-wave (km/s) = 6.85526 6.81618 6.83575
#
# Compressibility (1/GPa) = 0.03068673
#
# Stress axis : x y z
#
# Youngs Moduli (GPa) = 63.27210 117.39464 25.36244
#
# Poissons Ratio (x) = 0.56953 0.23319
# Poissons Ratio (y) = 0.30696 0.06307
# Poissons Ratio (z) = 0.58174 0.29192
#
# Static dielectric constant tensor:
#      x y z
#    x 1.597850 0.000000 0.000000 
#    y 0.000000 1.648330 0.000000 
#    z 0.000000 0.000000 1.677070 
# 
# From -- ./inp_files/40678.got.cif
#   From: 2010.05.17/outbox.cif.g08.bks.cpg/sg66_21_cif.got.tgz:40678.got - 2010.06.03 17:51:23.
