data_PCOD9495989
_publ_section_title
;
Structure prediction by ZEFSAII (Michael W. Deem and Ramdas Pophale) SiO2 
 PCOD9495989
Probable space group: C C C M
;
_chemical_formula_sum "Si O2"
_cell_formula_units_Z 96
_cell_length_a 10.108232
_cell_length_b 19.385321
_cell_length_c 25.041007
_cell_angle_alpha 90.000000
_cell_angle_beta 90.000000
_cell_angle_gamma 90.000000
_cell_volume 4906.818427
_symmetry_space_group_name_H-M "C C C M"
_symmetry_group_IT_number 66
_symmetry_cell_setting 'orthorhombic'
loop_
_space_group_symop_operation_xyz
x,y,z
-x,-y,z
x,-y,1/2-z
-x,y,1/2-z
-x,-y,-z
x,y,-z
-x,y,1/2+z
x,-y,1/2+z
1/2+x,1/2+y,z
1/2-x,1/2-y,z
1/2+x,1/2-y,1/2-z
1/2-x,1/2+y,1/2-z
1/2-x,1/2-y,-z
1/2+x,1/2+y,-z
1/2-x,1/2+y,1/2+z
1/2+x,1/2-y,1/2+z
loop_
_atom_site_type_symbol
_atom_site_label
_atom_site_fract_x
_atom_site_fract_y
_atom_site_fract_z
Si Si1 0.835055 0.584708 0.840435
Si Si2 0.223245 0.167418 0.063256
Si Si3 0.339599 0.147875 0.562078
Si Si4 0.549535 0.286863 0.936911
Si Si5 0.660965 0.817443 0.255486
Si Si6 0.147671 0.434094 0.339463
O O1 0.804193 0.616448 0.898536
O O2 0.795731 0.642276 0.797940
O O3 0.783093 0.507285 0.829301
O O4 0.990172 0.570394 0.830317
O O5 0.250000 0.250000 0.069100
O O6 0.069493 0.165652 0.081914
O O7 0.239741 0.151002 0.000000
O O8 0.369405 0.136173 0.500000
O O9 0.434920 0.208888 0.584551
O O10 0.191812 0.178282 0.566444
O O11 0.342117 0.081288 0.597897
O O12 0.522288 0.276770 0.000000
O O13 0.500000 0.804596 0.250000
O O14 0.750000 0.750000 0.261951
O O15 0.694197 0.870008 0.303835
#
# Coordination Sequence:
#
# PCOD9495989 Si02
#       6
#    16  16  16  16  16  16
#     4  10  21  38  56  80 113 147 180 224 280 332
#     4  10  19  32  53  81 112 147 188 231 275 323
#     4   9  17  31  52  79 110 145 184 227 271 319
#     4   8  16  30  49  75 109 146 184 226 268 316
#     4  10  22  41  64  86 108 143 187 236 281 334
#     4  10  21  36  58  82 109 146 185 223 273 339
#
# _framework density 19.564612
#
# number of rings (size 3 to 8) (size 9 to 14) (size 15 to 20)
#    0.000    2.500    0.000    3.000    2.333    6.000 
#    0.000    2.500    0.000    4.000    0.000    0.000 
#    0.000    0.000    0.000    0.000    0.000    0.000 
#
# Total GULP energy -267211.988976 kJ/mol
# GULP energy per Si atom -5566.916437 kJ/mol
# Density = 1.952008 g / cm^3
# Si number density = 19.564612 Si / 1000 Ang^3
#
#
#
# Elastic Constant Matrix: (Units=GPa)
#
#
# Indices 1 2 3 4 5 6 
#
# 1 33.9035 29.5933 3.3009 0.0000 0.0000 0.0000
# 2 29.5933 132.0224 49.7616 0.0000 0.0000 0.0000
# 3 3.3009 49.7616 70.8329 0.0000 0.0000 0.0000
# 4 0.0000 0.0000 0.0000 -18.9391 0.0000 0.0000
# 5 0.0000 0.0000 0.0000 0.0000 17.8889 0.0000
# 6 0.0000 0.0000 0.0000 0.0000 0.0000 22.0477
#
#
#
# Elastic Compliance Matrix: (Units=1/GPa)
#
#
# Indices 1 2 3 4 5 6 
#
# 1 0.038335 -0.010772 0.005781 0.000000 0.000000 0.000000
# 2 -0.010772 0.013329 -0.008862 0.000000 0.000000 0.000000
# 3 0.005781 -0.008862 0.020074 0.000000 0.000000 0.000000
# 4 0.000000 0.000000 0.000000 -0.052801 0.000000 0.000000
# 5 0.000000 0.000000 0.000000 0.000000 0.055901 0.000000
# 6 0.000000 0.000000 0.000000 0.000000 0.000000 0.045356
#
#
# Mechanical properties :
#
#
# Convention : Reuss Voigt Hill
#
# Bulk Modulus (GPa) = 22.71050 44.67451 33.69250
# Shear Modulus (GPa) = 30.75441 14.47302 22.61371
#
# Velocity S-wave (km/s) = 3.96907 2.72279 3.40346
# Velocity P-wave (km/s) = 5.71296 5.72440 5.71868
#
# Compressibility (1/GPa) = 0.04403249
#
# Stress axis : x y z
#
# Youngs Moduli (GPa) = 26.08577 75.02241 49.81523
#
# Poissons Ratio (x) = 0.80814 -0.28798
# Poissons Ratio (y) = 0.28099 0.44147
# Poissons Ratio (z) = -0.15080 0.66486
#
# Static dielectric constant tensor:
#      x y z
#    x 1.628350 0.000000 0.000000 
#    y 0.000000 1.730940 0.000000 
#    z 0.000000 0.000000 1.713990 
# 
# From -- ./inp_files/63731.got.cif
#   From: 2010.05.17/outbox.cif.g08.bks.cpg/sg66_32_cif.got.tgz:63731.got - 2010.06.03 17:51:23.
