data_PCOD9495427
_publ_section_title
;
Structure prediction by ZEFSAII (Michael W. Deem and Ramdas Pophale) SiO2 
 PCOD9495427
Probable space group: C C C M
;
_chemical_formula_sum "Si O2"
_cell_formula_units_Z 104
_cell_length_a 21.199645
_cell_length_b 19.192688
_cell_length_c 14.033998
_cell_angle_alpha 90.000000
_cell_angle_beta 90.000000
_cell_angle_gamma 90.000000
_cell_volume 5710.127455
_symmetry_space_group_name_H-M "C C C M"
_symmetry_group_IT_number 66
_symmetry_cell_setting 'orthorhombic'
loop_
_space_group_symop_operation_xyz
x,y,z
-x,-y,z
x,-y,1/2-z
-x,y,1/2-z
-x,-y,-z
x,y,-z
-x,y,1/2+z
x,-y,1/2+z
1/2+x,1/2+y,z
1/2-x,1/2-y,z
1/2+x,1/2-y,1/2-z
1/2-x,1/2+y,1/2-z
1/2-x,1/2-y,-z
1/2+x,1/2+y,-z
1/2-x,1/2+y,1/2+z
1/2+x,1/2-y,1/2+z
loop_
_atom_site_type_symbol
_atom_site_label
_atom_site_fract_x
_atom_site_fract_y
_atom_site_fract_z
Si Si1 0.179129 0.460409 0.392774
Si Si2 0.712159 0.653953 0.894264
Si Si3 0.500000 0.679057 0.750000
Si Si4 0.955276 0.934324 0.393318
Si Si5 0.403572 0.758900 0.386460
Si Si6 0.178991 0.001682 0.636496
Si Si7 0.337880 0.888143 0.301025
O O1 0.156765 0.446485 0.500000
O O2 0.255626 0.462467 0.393317
O O3 0.161695 0.538731 0.358488
O O4 0.156402 0.408214 0.310070
O O5 0.659743 0.711739 0.875755
O O6 0.679297 0.578414 0.895797
O O7 0.769133 0.646091 0.820533
O O8 0.740265 0.665905 0.000000
O O9 0.539241 0.627111 0.682213
O O10 0.456788 0.723893 0.679078
O O11 0.974903 0.911865 0.500000
O O12 0.883851 0.960694 0.395515
O O13 0.000000 0.000000 0.367405
O O14 0.418069 0.760685 0.500000
O O15 0.387710 0.834774 0.344420
O O16 0.179632 0.000000 0.750000
#
# Coordination Sequence:
#
# PCOD9495427 Si02
#       7
#    16  16   8  16  16  16  16
#     4  10  19  33  56  87 115 139 174 225 294 356
#     4  10  18  31  53  83 112 143 188 233 279 331
#     4  12  25  38  54  77 112 156 198 236 278 325
#     4  11  22  35  52  77 111 154 202 239 272 319
#     4  11  23  39  58  79 110 151 195 237 277 332
#     4  11  17  30  51  78 112 149 181 227 278 329
#     4  10  19  35  58  86 114 145 183 233 290 341
#
# _framework density 18.213253999999999
#
# number of rings (size 3 to 8) (size 9 to 14) (size 15 to 20)
#    0.000    1.385    3.077    7.615    0.000    3.692 
#    0.000    1.538    0.000    3.692    0.000    5.385 
#    0.000    0.000    0.000    0.000    0.000    0.000 
#
# Total GULP energy -290334.055505 kJ/mol
# GULP energy per Si atom -5583.347221 kJ/mol
# Density = 1.817180 g / cm^3
# Si number density = 18.213254 Si / 1000 Ang^3
#
#
#
# Elastic Constant Matrix: (Units=GPa)
#
#
# Indices 1 2 3 4 5 6 
#
# 1 41.7114 48.4924 34.7170 0.0000 0.0000 0.0000
# 2 48.4924 91.4069 59.6628 0.0000 0.0000 0.0000
# 3 34.7170 59.6628 179.3300 0.0000 0.0000 0.0000
# 4 0.0000 0.0000 0.0000 -16.0662 0.0000 0.0000
# 5 0.0000 0.0000 0.0000 0.0000 38.5960 0.0000
# 6 0.0000 0.0000 0.0000 0.0000 0.0000 28.2072
#
#
#
# Elastic Compliance Matrix: (Units=1/GPa)
#
#
# Indices 1 2 3 4 5 6 
#
# 1 0.062819 -0.032431 -0.001372 0.000000 0.000000 0.000000
# 2 -0.032431 0.030718 -0.003941 0.000000 0.000000 0.000000
# 3 -0.001372 -0.003941 0.007153 0.000000 0.000000 0.000000
# 4 0.000000 0.000000 0.000000 -0.062243 0.000000 0.000000
# 5 0.000000 0.000000 0.000000 0.000000 0.025909 0.000000
# 6 0.000000 0.000000 0.000000 0.000000 0.000000 0.035452
#
#
# Mechanical properties :
#
#
# Convention : Reuss Voigt Hill
#
# Bulk Modulus (GPa) = 39.67918 66.46583 53.07251
# Shear Modulus (GPa) = 27.21867 21.45248 24.33558
#
# Velocity S-wave (km/s) = 3.87000 3.43571 3.65930
# Velocity P-wave (km/s) = 6.46547 7.23264 6.85979
#
# Compressibility (1/GPa) = 0.02520213
#
# Stress axis : x y z
#
# Youngs Moduli (GPa) = 15.91870 32.55452 139.79932
#
# Poissons Ratio (x) = 1.05578 0.19175
# Poissons Ratio (y) = 0.51626 0.55099
# Poissons Ratio (z) = 0.02183 0.12831
#
# Static dielectric constant tensor:
#      x y z
#    x 1.619460 0.000000 0.000000 
#    y 0.000000 1.628140 0.000000 
#    z 0.000000 0.000000 1.654280 
# 
# From -- ./inp_files/31370.got.cif
#   From: 2010.05.17/outbox.cif.g08.bks.cpg/sg66_16_cif.got.tgz:31370.got - 2010.06.03 17:51:23.
