data_PCOD9495887
_publ_section_title
;
Structure prediction by ZEFSAII (Michael W. Deem and Ramdas Pophale) SiO2 
 PCOD9495887
Probable space group: C C C M
;
_chemical_formula_sum "Si O2"
_cell_formula_units_Z 112
_cell_length_a 27.422150
_cell_length_b 14.016356
_cell_length_c 14.660762
_cell_angle_alpha 90.000000
_cell_angle_beta 90.000000
_cell_angle_gamma 90.000000
_cell_volume 5634.990202
_symmetry_space_group_name_H-M "C C C M"
_symmetry_group_IT_number 66
_symmetry_cell_setting 'orthorhombic'
loop_
_space_group_symop_operation_xyz
x,y,z
-x,-y,z
x,-y,1/2-z
-x,y,1/2-z
-x,-y,-z
x,y,-z
-x,y,1/2+z
x,-y,1/2+z
1/2+x,1/2+y,z
1/2-x,1/2-y,z
1/2+x,1/2-y,1/2-z
1/2-x,1/2+y,1/2-z
1/2-x,1/2-y,-z
1/2+x,1/2+y,-z
1/2-x,1/2+y,1/2+z
1/2+x,1/2-y,1/2+z
loop_
_atom_site_type_symbol
_atom_site_label
_atom_site_fract_x
_atom_site_fract_y
_atom_site_fract_z
Si Si1 0.045128 0.299831 0.394240
Si Si2 0.648884 0.042267 0.391895
Si Si3 0.304415 0.222832 0.208086
Si Si4 0.950917 0.604930 0.893382
Si Si5 0.156047 0.321322 0.393219
Si Si6 0.988904 0.104104 0.643156
Si Si7 0.109161 0.803901 0.395836
O O1 0.050851 0.326915 0.500000
O O2 0.100127 0.302601 0.358661
O O3 0.004521 0.372877 0.354634
O O4 0.020535 0.194555 0.391795
O O5 0.649079 0.071540 0.500000
O O6 0.678515 0.119799 0.333348
O O7 0.592078 0.037161 0.359334
O O8 0.666694 0.934310 0.388916
O O9 0.250000 0.250000 0.180386
O O10 0.309911 0.224702 0.317240
O O11 0.344113 0.295284 0.166886
O O12 0.922014 0.705700 0.889251
O O13 0.958331 0.580458 0.000000
O O14 0.160231 0.291448 0.500000
O O15 0.931642 0.120201 0.628994
O O16 0.000000 0.103606 0.750000
O O17 0.000000 0.000000 0.604596
O O18 0.124679 0.815528 0.500000
#
# Coordination Sequence:
#
# PCOD9495887 Si02
#       7
#    16  16  16  16  16  16  16
#     4   9  17  30  50  77 109 147 185 217 264 330
#     4   9  18  34  57  85 114 142 178 226 281 344
#     4  11  22  37  60  81 105 145 189 246 300 347
#     4   7  12  25  47  78 112 141 168 205 253 313
#     4  10  21  36  56  81 114 151 188 228 276 350
#     4  10  19  31  52  80 116 157 191 230 278 338
#     4   9  18  33  54  83 112 141 185 237 285 336
#
# _framework density 19.875810000000001
#
# number of rings (size 3 to 8) (size 9 to 14) (size 15 to 20)
#    0.000    2.714    0.000    3.857    0.000    3.143 
#    0.000    2.857   12.571    5.143    0.000    0.000 
#    0.000    0.000    0.000    0.000    0.000    0.000 
#
# Total GULP energy -312060.054323 kJ/mol
# GULP energy per Si atom -5572.500970 kJ/mol
# Density = 1.983057 g / cm^3
# Si number density = 19.875810 Si / 1000 Ang^3
#
#
#
# Elastic Constant Matrix: (Units=GPa)
#
#
# Indices 1 2 3 4 5 6 
#
# 1 115.5060 34.0536 27.7378 0.0000 0.0000 0.0000
# 2 34.0536 41.9376 8.4045 0.0000 0.0000 0.0000
# 3 27.7378 8.4045 89.9955 0.0000 0.0000 0.0000
# 4 0.0000 0.0000 0.0000 -585.9729 0.0000 0.0000
# 5 0.0000 0.0000 0.0000 0.0000 15.3607 0.0000
# 6 0.0000 0.0000 0.0000 0.0000 0.0000 14.5533
#
#
#
# Elastic Compliance Matrix: (Units=1/GPa)
#
#
# Indices 1 2 3 4 5 6 
#
# 1 0.012062 -0.009222 -0.002857 0.000000 0.000000 0.000000
# 2 -0.009222 0.031351 -0.000085 0.000000 0.000000 0.000000
# 3 -0.002857 -0.000085 0.012000 0.000000 0.000000 0.000000
# 4 0.000000 0.000000 0.000000 -0.001707 0.000000 0.000000
# 5 0.000000 0.000000 0.000000 0.000000 0.065101 0.000000
# 6 0.000000 0.000000 0.000000 0.000000 0.000000 0.068713
#
#
# Mechanical properties :
#
#
# Convention : Reuss Voigt Hill
#
# Bulk Modulus (GPa) = 32.17010 43.09231 37.63121
# Shear Modulus (GPa) = 22.50114 -99.39557 -38.44721
#
# Velocity S-wave (km/s) = 3.36830 -7.07933 -4.40292
# Velocity P-wave (km/s) = 5.59892 6.71526 2.62171
#
# Compressibility (1/GPa) = 0.03108476
#
# Stress axis : x y z
#
# Youngs Moduli (GPa) = 82.90164 31.89722 83.33286
#
# Poissons Ratio (x) = 0.29417 0.23805
# Poissons Ratio (y) = 0.76455 0.00711
# Poissons Ratio (z) = 0.23681 0.00272
#
# Static dielectric constant tensor:
#      x y z
#    x 1.710090 0.000000 0.000000 
#    y 0.000000 1.734890 0.000000 
#    z 0.000000 0.000000 1.742480 
# 
# From -- ./inp_files/33311.got.cif
#   From: 2010.05.17/outbox.cif.g08.bks.cpg/sg66_17_cif.got.tgz:33311.got - 2010.06.03 17:51:23.
