data_PCOD9495157
_publ_section_title
;
Structure prediction by ZEFSAII (Michael W. Deem and Ramdas Pophale) SiO2 
 PCOD9495157
Probable space group: C C C M
;
_chemical_formula_sum "Si O2"
_cell_formula_units_Z 88
_cell_length_a 15.330801
_cell_length_b 8.682115
_cell_length_c 29.781085
_cell_angle_alpha 90.000000
_cell_angle_beta 90.000000
_cell_angle_gamma 90.000000
_cell_volume 3963.974906
_symmetry_space_group_name_H-M "C C C M"
_symmetry_group_IT_number 66
_symmetry_cell_setting 'orthorhombic'
loop_
_space_group_symop_operation_xyz
x,y,z
-x,-y,z
x,-y,1/2-z
-x,y,1/2-z
-x,-y,-z
x,y,-z
-x,y,1/2+z
x,-y,1/2+z
1/2+x,1/2+y,z
1/2-x,1/2-y,z
1/2+x,1/2-y,1/2-z
1/2-x,1/2+y,1/2-z
1/2-x,1/2-y,-z
1/2+x,1/2+y,-z
1/2-x,1/2+y,1/2+z
1/2+x,1/2-y,1/2+z
loop_
_atom_site_type_symbol
_atom_site_label
_atom_site_fract_x
_atom_site_fract_y
_atom_site_fract_z
Si Si1 0.056035 0.201497 0.709083
Si Si2 0.501655 0.186075 0.882969
Si Si3 0.652196 0.199884 0.550722
Si Si4 0.654439 0.000000 0.250000
Si Si5 0.185348 0.371970 0.581407
Si Si6 0.726690 0.429001 0.824085
O O1 0.997464 0.250460 0.666886
O O2 0.099425 0.359197 0.729611
O O3 0.125646 0.078467 0.689385
O O4 0.000000 0.147121 0.750000
O O5 0.424055 0.243689 0.914752
O O6 0.599063 0.216476 0.901511
O O7 0.500000 0.000000 0.880687
O O8 0.634605 0.254586 0.500000
O O9 0.750000 0.250000 0.563405
O O10 0.655493 0.014194 0.551871
O O11 0.719004 0.959987 0.208528
O O12 0.250000 0.250000 0.559530
O O13 0.237419 0.440635 0.625082
O O14 0.750000 0.250000 0.813209
#
# Coordination Sequence:
#
# PCOD9495157 Si02
#       6
#    16  16  16   8  16  16
#     4  11  20  32  53  85 118 157 205 250 292 353
#     4  10  19  35  62  90 117 156 205 257 303 361
#     4  10  24  44  63  91 125 156 199 260 323 380
#     4  10  17  32  55  76 110 158 196 243 294 343
#     4  10  18  38  67  90 121 156 204 255 308 366
#     4   9  18  34  52  79 118 157 193 249 295 343
#
# _framework density 22.199938
#
# number of rings (size 3 to 8) (size 9 to 14) (size 15 to 20)
#    0.000    2.000    5.455    1.364    2.545    3.636 
#    3.273    1.364    0.000    2.182    0.000    0.000 
#    0.000    0.000    0.000    0.000    0.000    0.000 
#
# Total GULP energy -245426.866898 kJ/mol
# GULP energy per Si atom -5577.883339 kJ/mol
# Density = 2.214941 g / cm^3
# Si number density = 22.199938 Si / 1000 Ang^3
#
#
#
# Elastic Constant Matrix: (Units=GPa)
#
#
# Indices 1 2 3 4 5 6 
#
# 1 132.4264 17.5842 90.2304 0.0000 0.0000 0.0000
# 2 17.5842 32.5434 19.4059 0.0000 0.0000 0.0000
# 3 90.2304 19.4059 128.4973 0.0000 0.0000 0.0000
# 4 0.0000 0.0000 0.0000 -22.5328 0.0000 0.0000
# 5 0.0000 0.0000 0.0000 0.0000 25.9200 0.0000
# 6 0.0000 0.0000 0.0000 0.0000 0.0000 13.9380
#
#
#
# Elastic Compliance Matrix: (Units=1/GPa)
#
#
# Indices 1 2 3 4 5 6 
#
# 1 0.014590 -0.001950 -0.009951 0.000000 0.000000 0.000000
# 2 -0.001950 0.034030 -0.003770 0.000000 0.000000 0.000000
# 3 -0.009951 -0.003770 0.015339 0.000000 0.000000 0.000000
# 4 0.000000 0.000000 0.000000 -0.044380 0.000000 0.000000
# 5 0.000000 0.000000 0.000000 0.000000 0.038580 0.000000
# 6 0.000000 0.000000 0.000000 0.000000 0.000000 0.071747
#
#
# Mechanical properties :
#
#
# Convention : Reuss Voigt Hill
#
# Bulk Modulus (GPa) = 30.65813 60.87867 45.76840
# Shear Modulus (GPa) = 29.04937 14.54813 21.79875
#
# Velocity S-wave (km/s) = 3.62129 2.56270 3.13697
# Velocity P-wave (km/s) = 5.59687 6.01989 5.81223
#
# Compressibility (1/GPa) = 0.03261778
#
# Stress axis : x y z
#
# Youngs Moduli (GPa) = 68.53794 29.38596 65.19275
#
# Poissons Ratio (x) = 0.05730 0.64873
# Poissons Ratio (y) = 0.13364 0.24578
# Poissons Ratio (z) = 0.68201 0.11079
#
# Static dielectric constant tensor:
#      x y z
#    x 1.938690 0.000000 0.000000 
#    y 0.000000 1.828210 0.000000 
#    z 0.000000 0.000000 1.848150 
# 
# From -- ./inp_files/64540.got.cif
#   From: 2010.05.17/outbox.cif.g08.bks.cpg/sg66_33_cif.got.tgz:64540.got - 2010.06.03 17:51:23.
