data_PCOD9495236
_publ_section_title
;
Structure prediction by ZEFSAII (Michael W. Deem and Ramdas Pophale) SiO2 
 PCOD9495236
Probable space group: C C C M
;
_chemical_formula_sum "Si O2"
_cell_formula_units_Z 84
_cell_length_a 14.369821
_cell_length_b 28.253486
_cell_length_c 9.660527
_cell_angle_alpha 90.000000
_cell_angle_beta 90.000000
_cell_angle_gamma 90.000000
_cell_volume 3922.150163
_symmetry_space_group_name_H-M "C C C M"
_symmetry_group_IT_number 66
_symmetry_cell_setting 'orthorhombic'
loop_
_space_group_symop_operation_xyz
x,y,z
-x,-y,z
x,-y,1/2-z
-x,y,1/2-z
-x,-y,-z
x,y,-z
-x,y,1/2+z
x,-y,1/2+z
1/2+x,1/2+y,z
1/2-x,1/2-y,z
1/2+x,1/2-y,1/2-z
1/2-x,1/2+y,1/2-z
1/2-x,1/2-y,-z
1/2+x,1/2+y,-z
1/2-x,1/2+y,1/2+z
1/2+x,1/2-y,1/2+z
loop_
_atom_site_type_symbol
_atom_site_label
_atom_site_fract_x
_atom_site_fract_y
_atom_site_fract_z
Si Si1 0.000000 0.000000 0.250000
Si Si2 0.636252 0.859109 0.838442
Si Si3 0.641133 0.755819 0.168276
Si Si4 0.641588 0.428859 0.851401
Si Si5 0.137231 0.846080 0.341843
Si Si6 0.858017 0.547398 0.664964
O O1 0.068495 0.029685 0.345225
O O2 0.603963 0.807023 0.786878
O O3 0.749112 0.851568 0.839673
O O4 0.611208 0.903898 0.742416
O O5 0.609067 0.867173 0.000000
O O6 0.750000 0.750000 0.204411
O O7 0.604496 0.704751 0.214541
O O8 0.636440 0.756750 0.000000
O O9 0.607740 0.391103 0.741866
O O10 0.745200 0.448764 0.825789
O O11 0.646121 0.404639 0.000000
O O12 0.107671 0.849239 0.500000
O O13 0.886294 0.500000 0.750000
O O14 0.882331 0.545528 0.500000
#
# Coordination Sequence:
#
# PCOD9495236 Si02
#       6
#     4  16  16  16  16  16
#     4  12  22  36  44  50  66  96 128 166 204 244
#     4   8  13  22  37  55  72  91 114 139 168 209
#     4   7  10  19  36  56  73  89 109 131 163 213
#     4  10  21  32  42  54  66  85 118 159 198 234
#     4   8  14  25  41  56  71  89 108 136 178 225
#     4  10  18  28  38  51  70  93 121 152 188 225
#
# _framework density 21.416823999999998
#
# number of rings (size 3 to 8) (size 9 to 14) (size 15 to 20)
#    0.000    3.238    0.952    3.143    0.000    2.286 
#    0.000    0.952    0.000    5.714    0.000    0.000 
#    0.000    0.000    0.000    0.000    0.000    0.000 
#
# Total GULP energy -233869.432048 kJ/mol
# GULP energy per Si atom -5568.319811 kJ/mol
# Density = 2.136808 g / cm^3
# Si number density = 21.416824 Si / 1000 Ang^3
#
#
#
# Elastic Constant Matrix: (Units=GPa)
#
#
# Indices 1 2 3 4 5 6 
#
# 1 61.3201 3.5801 6.5444 0.0000 0.0000 0.0000
# 2 3.5801 190.1172 83.2549 0.0000 0.0000 0.0000
# 3 6.5444 83.2549 75.2827 0.0000 0.0000 0.0000
# 4 0.0000 0.0000 0.0000 -8.4852 0.0000 0.0000
# 5 0.0000 0.0000 0.0000 0.0000 -5.0756 0.0000
# 6 0.0000 0.0000 0.0000 0.0000 0.0000 -21.3958
#
#
#
# Elastic Compliance Matrix: (Units=1/GPa)
#
#
# Indices 1 2 3 4 5 6 
#
# 1 0.016498 0.000615 -0.002115 0.000000 0.000000 0.000000
# 2 0.000615 0.010222 -0.011358 0.000000 0.000000 0.000000
# 3 -0.002115 -0.011358 0.026028 0.000000 0.000000 0.000000
# 4 0.000000 0.000000 0.000000 -0.117852 0.000000 0.000000
# 5 0.000000 0.000000 0.000000 0.000000 -0.197020 0.000000
# 6 0.000000 0.000000 0.000000 0.000000 0.000000 -0.046738
#
#
# Mechanical properties :
#
#
# Convention : Reuss Voigt Hill
#
# Bulk Modulus (GPa) = 36.99201 57.05321 47.02261
# Shear Modulus (GPa) = -18.23912 8.56472 -4.83720
#
# Velocity S-wave (km/s) = -2.92143 2.00193 -1.50449
# Velocity P-wave (km/s) = 2.43521 5.66047 4.35724
#
# Compressibility (1/GPa) = 0.02703286
#
# Stress axis : x y z
#
# Youngs Moduli (GPa) = 60.61475 97.82583 38.41998
#
# Poissons Ratio (x) = -0.06020 0.08125
# Poissons Ratio (y) = -0.03730 0.43638
# Poissons Ratio (z) = 0.12818 1.11113
#
# Static dielectric constant tensor:
#      x y z
#    x 1.832820 0.000000 0.000000 
#    y 0.000000 1.819760 0.000000 
#    z 0.000000 0.000000 1.782890 
# 
# From -- ./inp_files/9251.got.cif
#   From: 2010.05.17/outbox.cif.g08.bks.cpg/sg66_5_cif.got.tgz:9251.got - 2010.06.03 17:51:23.
