data_PCOD9495540
_publ_section_title
;
Structure prediction by ZEFSAII (Michael W. Deem and Ramdas Pophale) SiO2 
 PCOD9495540
Probable space group: C C C M
;
_chemical_formula_sum "Si O2"
_cell_formula_units_Z 64
_cell_length_a 21.322036
_cell_length_b 11.651678
_cell_length_c 11.513418
_cell_angle_alpha 90.000000
_cell_angle_beta 90.000000
_cell_angle_gamma 90.000000
_cell_volume 2860.364759
_symmetry_space_group_name_H-M "C C C M"
_symmetry_group_IT_number 66
_symmetry_cell_setting 'orthorhombic'
loop_
_space_group_symop_operation_xyz
x,y,z
-x,-y,z
x,-y,1/2-z
-x,y,1/2-z
-x,-y,-z
x,y,-z
-x,y,1/2+z
x,-y,1/2+z
1/2+x,1/2+y,z
1/2-x,1/2-y,z
1/2+x,1/2-y,1/2-z
1/2-x,1/2+y,1/2-z
1/2-x,1/2-y,-z
1/2+x,1/2+y,-z
1/2-x,1/2+y,1/2+z
1/2+x,1/2-y,1/2+z
loop_
_atom_site_type_symbol
_atom_site_label
_atom_site_fract_x
_atom_site_fract_y
_atom_site_fract_z
Si Si1 0.908146 0.897242 0.680347
Si Si2 0.204078 0.637605 0.000000
Si Si3 0.004216 0.856923 0.500000
Si Si4 0.138972 0.724298 0.500000
Si Si5 0.317544 0.477293 0.000000
Si Si6 0.678536 0.203525 0.741842
O O1 0.960744 0.829968 0.609779
O O2 0.856507 0.964741 0.604152
O O3 0.868514 0.810206 0.754001
O O4 0.937685 0.000000 0.750000
O O5 0.250000 0.750000 0.000000
O O6 0.249052 0.528870 0.000000
O O7 0.172122 0.645965 0.871115
O O8 0.069068 0.786464 0.500000
O O9 0.000000 0.000000 0.500000
O O10 0.156600 0.653323 0.617101
O O11 0.181274 0.840674 0.500000
O O12 0.750000 0.250000 0.734560
#
# Coordination Sequence:
#
# PCOD9495540 Si02
#       6
#    16   8   8   8   8  16
#     4  11  19  32  51  76 106 145 192 219 253 314
#     4  10  18  33  55  70  94 140 193 227 265 327
#     4  11  21  33  46  74 112 153 185 214 258 318
#     4  12  24  35  51  80 116 148 182 225 272 316
#     4  11  18  34  50  73 103 143 187 220 263 315
#     4  11  21  35  53  73 101 146 190 228 273 316
#
# _framework density 22.374769000000001
#
# number of rings (size 3 to 8) (size 9 to 14) (size 15 to 20)
#    0.000    1.000   10.000    1.125    0.000    3.500 
#    0.000    0.000    0.000    0.000    0.000    0.000 
#    0.000    0.000    0.000  130.500    0.000    0.250 
#
# Total GULP energy -178305.894168 kJ/mol
# GULP energy per Si atom -5572.059193 kJ/mol
# Density = 2.232384 g / cm^3
# Si number density = 22.374769 Si / 1000 Ang^3
#
#
#
# Elastic Constant Matrix: (Units=GPa)
#
#
# Indices 1 2 3 4 5 6 
#
# 1 124.7007 29.5363 58.8871 0.0000 0.0000 0.0000
# 2 29.5363 40.4752 14.3004 0.0000 0.0000 0.0000
# 3 58.8871 14.3004 198.5932 0.0000 0.0000 0.0000
# 4 0.0000 0.0000 0.0000 48.8523 0.0000 0.0000
# 5 0.0000 0.0000 0.0000 0.0000 -13.4411 0.0000
# 6 0.0000 0.0000 0.0000 0.0000 0.0000 7.8992
#
#
#
# Elastic Compliance Matrix: (Units=1/GPa)
#
#
# Indices 1 2 3 4 5 6 
#
# 1 0.010987 -0.007046 -0.002750 0.000000 0.000000 0.000000
# 2 -0.007046 0.029870 -0.000062 0.000000 0.000000 0.000000
# 3 -0.002750 -0.000062 0.005855 0.000000 0.000000 0.000000
# 4 0.000000 0.000000 0.000000 0.020470 0.000000 0.000000
# 5 0.000000 0.000000 0.000000 0.000000 -0.074398 0.000000
# 6 0.000000 0.000000 0.000000 0.000000 0.000000 0.126595
#
#
# Mechanical properties :
#
#
# Convention : Reuss Voigt Hill
#
# Bulk Modulus (GPa) = 37.04210 63.24632 50.14421
# Shear Modulus (GPa) = 33.76256 26.06510 29.91383
#
# Velocity S-wave (km/s) = 3.88874 3.41681 3.66039
# Velocity P-wave (km/s) = 6.06254 6.62528 6.35014
#
# Compressibility (1/GPa) = 0.02699631
#
# Stress axis : x y z
#
# Youngs Moduli (GPa) = 91.01742 33.47859 170.78136
#
# Poissons Ratio (x) = 0.23588 0.46973
# Poissons Ratio (y) = 0.64129 0.01053
# Poissons Ratio (z) = 0.25034 0.00206
#
# Static dielectric constant tensor:
#      x y z
#    x 1.845430 0.000000 0.000000 
#    y 0.000000 1.152880 0.000000 
#    z 0.000000 0.000000 2.074790 
# 
# From -- ./inp_files/14707.got.cif
#   From: 2010.05.17/outbox.cif.g08.bks.cpg/sg66_8_cif.got.tgz:14707.got - 2010.06.03 17:51:23.
