data_PCOD9495048
_publ_section_title
;
Structure prediction by ZEFSAII (Michael W. Deem and Ramdas Pophale) SiO2 
 PCOD9495048
Probable space group: C C C M
;
_chemical_formula_sum "Si O2"
_cell_formula_units_Z 84
_cell_length_a 15.345930
_cell_length_b 7.297291
_cell_length_c 32.096849
_cell_angle_alpha 90.000000
_cell_angle_beta 90.000000
_cell_angle_gamma 90.000000
_cell_volume 3594.324451
_symmetry_space_group_name_H-M "C C C M"
_symmetry_group_IT_number 66
_symmetry_cell_setting 'orthorhombic'
loop_
_space_group_symop_operation_xyz
x,y,z
-x,-y,z
x,-y,1/2-z
-x,y,1/2-z
-x,-y,-z
x,y,-z
-x,y,1/2+z
x,-y,1/2+z
1/2+x,1/2+y,z
1/2-x,1/2-y,z
1/2+x,1/2-y,1/2-z
1/2-x,1/2+y,1/2-z
1/2-x,1/2-y,-z
1/2+x,1/2+y,-z
1/2-x,1/2+y,1/2+z
1/2+x,1/2-y,1/2+z
loop_
_atom_site_type_symbol
_atom_site_label
_atom_site_fract_x
_atom_site_fract_y
_atom_site_fract_z
Si Si1 0.101580 0.534020 0.849292
Si Si2 0.242487 0.968508 0.797811
Si Si3 0.000000 0.500000 0.500000
Si Si4 0.852655 0.959671 0.453751
Si Si5 0.402149 0.468188 0.361736
Si Si6 0.152982 0.484152 0.439745
O O1 0.161248 0.468007 0.811366
O O2 0.111089 0.750236 0.858377
O O3 0.140162 0.457167 0.892221
O O4 0.000000 0.500000 0.843706
O O5 0.250000 0.750000 0.802340
O O6 0.171725 0.042732 0.830707
O O7 0.219788 0.000000 0.750000
O O8 0.071529 0.562544 0.464484
O O9 0.889327 0.001665 0.500000
O O10 0.893865 0.026237 0.410232
O O11 0.855062 0.736584 0.449159
O O12 0.751882 0.022805 0.452896
O O13 0.500000 0.500000 0.346949
#
# Coordination Sequence:
#
# PCOD9495048 Si02
#       6
#    16  16   4  16  16  16
#     4  10  20  36  59  86 114 145 187 239 281 332
#     4  10  22  41  63  84 113 147 188 236 290 345
#     4  12  16  22  48  88 112 138 192 234 282 306
#     4  10  17  31  51  76 112 153 191 222 273 332
#     4  10  22  38  57  84 117 153 188 231 285 342
#     4  10  17  27  49  82 111 144 189 237 270 320
#
# _framework density 23.370177999999999
#
# number of rings (size 3 to 8) (size 9 to 14) (size 15 to 20)
#    0.000    1.905    4.762    0.571    0.000    2.667 
#    0.000    3.810    0.000    0.000    0.000    4.000 
#    0.000    0.000    0.000    0.000    0.000    0.000 
#
# Total GULP energy -233974.429332 kJ/mol
# GULP energy per Si atom -5570.819746 kJ/mol
# Density = 2.331699 g / cm^3
# Si number density = 23.370178 Si / 1000 Ang^3
#
#
#
# Elastic Constant Matrix: (Units=GPa)
#
#
# Indices 1 2 3 4 5 6 
#
# 1 139.4339 -10.9721 75.2173 0.0000 0.0000 0.0000
# 2 -10.9721 67.8456 1.8273 0.0000 0.0000 0.0000
# 3 75.2173 1.8273 167.1922 0.0000 0.0000 0.0000
# 4 0.0000 0.0000 0.0000 13.9551 0.0000 0.0000
# 5 0.0000 0.0000 0.0000 0.0000 -11.6039 0.0000
# 6 0.0000 0.0000 0.0000 0.0000 0.0000 12.0205
#
#
#
# Elastic Compliance Matrix: (Units=1/GPa)
#
#
# Indices 1 2 3 4 5 6 
#
# 1 0.009658 0.001679 -0.004363 0.000000 0.000000 0.000000
# 2 0.001679 0.015036 -0.000920 0.000000 0.000000 0.000000
# 3 -0.004363 -0.000920 0.007954 0.000000 0.000000 0.000000
# 4 0.000000 0.000000 0.000000 0.071658 0.000000 0.000000
# 5 0.000000 0.000000 0.000000 0.000000 -0.086178 0.000000
# 6 0.000000 0.000000 0.000000 0.000000 0.000000 0.083191
#
#
# Mechanical properties :
#
#
# Convention : Reuss Voigt Hill
#
# Bulk Modulus (GPa) = 39.30788 56.29073 47.79930
# Shear Modulus (GPa) = 42.73250 23.43429 33.08339
#
# Velocity S-wave (km/s) = 4.28074 3.17005 3.76656
# Velocity P-wave (km/s) = 6.42567 6.12681 6.27802
#
# Compressibility (1/GPa) = 0.02544019
#
# Stress axis : x y z
#
# Youngs Moduli (GPa) = 103.54387 66.50832 125.72064
#
# Poissons Ratio (x) = -0.11169 0.54855
# Poissons Ratio (y) = -0.17389 0.11565
# Poissons Ratio (z) = 0.45179 0.06118
#
# Static dielectric constant tensor:
#      x y z
#    x 1.845760 0.000000 0.000000 
#    y 0.000000 2.009380 0.000000 
#    z 0.000000 0.000000 1.803870 
# 
# From -- ./inp_files/68865.got.cif
#   From: 2010.05.17/outbox.cif.g08.bks.cpg/sg66_35_cif.got.tgz:68865.got - 2010.06.03 17:51:23.
