data_PCOD9495346
_publ_section_title
;
Structure prediction by ZEFSAII (Michael W. Deem and Ramdas Pophale) SiO2 
 PCOD9495346
Probable space group: C C C M
;
_chemical_formula_sum "Si O2"
_cell_formula_units_Z 96
_cell_length_a 23.315419
_cell_length_b 26.150951
_cell_length_c 8.938315
_cell_angle_alpha 90.000000
_cell_angle_beta 90.000000
_cell_angle_gamma 90.000000
_cell_volume 5449.872817
_symmetry_space_group_name_H-M "C C C M"
_symmetry_group_IT_number 66
_symmetry_cell_setting 'orthorhombic'
loop_
_space_group_symop_operation_xyz
x,y,z
-x,-y,z
x,-y,1/2-z
-x,y,1/2-z
-x,-y,-z
x,y,-z
-x,y,1/2+z
x,-y,1/2+z
1/2+x,1/2+y,z
1/2-x,1/2-y,z
1/2+x,1/2-y,1/2-z
1/2-x,1/2+y,1/2-z
1/2-x,1/2-y,-z
1/2+x,1/2+y,-z
1/2-x,1/2+y,1/2+z
1/2+x,1/2-y,1/2+z
loop_
_atom_site_type_symbol
_atom_site_label
_atom_site_fract_x
_atom_site_fract_y
_atom_site_fract_z
Si Si1 0.748975 0.310468 0.837321
Si Si2 0.829394 0.944668 0.680665
Si Si3 0.305083 0.055042 0.321980
Si Si4 0.853073 0.348718 0.674247
Si Si5 0.882899 0.157212 0.173281
Si Si6 0.062059 0.256354 0.179861
O O1 0.750000 0.250000 0.842131
O O2 0.789398 0.327241 0.703950
O O3 0.683525 0.326107 0.826763
O O4 0.771450 0.330113 0.000000
O O5 0.832042 0.946634 0.500000
O O6 0.762184 0.931956 0.717294
O O7 0.875043 0.901185 0.729375
O O8 0.841205 0.000000 0.750000
O O9 0.308248 0.051029 0.500000
O O10 0.348895 0.097793 0.261791
O O11 0.316573 0.000000 0.250000
O O12 0.863788 0.358130 0.500000
O O13 0.895717 0.303277 0.725624
O O14 0.916085 0.200907 0.263146
O O15 0.903224 0.157122 0.000000
O O16 0.000000 0.265613 0.250000
O O17 0.059943 0.255750 0.000000
#
# Coordination Sequence:
#
# PCOD9495346 Si02
#       6
#    16  16  16  16  16  16
#     4  10  18  30  50  77 109 146 179 211 266 331
#     4   9  18  31  49  77 112 148 181 213 256 315
#     4  10  19  33  52  79 114 151 185 216 262 320
#     4  11  22  34  52  80 112 143 179 224 271 324
#     4  10  19  34  55  79 110 145 181 220 267 325
#     4  11  25  41  57  79 105 140 185 231 280 326
#
# _framework density 17.615089000000001
#
# number of rings (size 3 to 8) (size 9 to 14) (size 15 to 20)
#    0.000    1.833    3.333    1.500    0.000    4.333 
#    0.000    0.000    0.000    1.000    0.000    7.000 
#    0.000    0.000    0.000    0.000    0.000    0.000 
#
# Total GULP energy -267447.711312 kJ/mol
# GULP energy per Si atom -5571.827319 kJ/mol
# Density = 1.757500 g / cm^3
# Si number density = 17.615089 Si / 1000 Ang^3
#
#
#
# Elastic Constant Matrix: (Units=GPa)
#
#
# Indices 1 2 3 4 5 6 
#
# 1 40.5390 22.9236 23.3039 0.0000 0.0000 0.0000
# 2 22.9236 119.8293 45.7333 0.0000 0.0000 0.0000
# 3 23.3039 45.7333 50.6576 0.0000 0.0000 0.0000
# 4 0.0000 0.0000 0.0000 27.8779 0.0000 0.0000
# 5 0.0000 0.0000 0.0000 0.0000 16.7926 0.0000
# 6 0.0000 0.0000 0.0000 0.0000 0.0000 9.5276
#
#
#
# Elastic Compliance Matrix: (Units=1/GPa)
#
#
# Indices 1 2 3 4 5 6 
#
# 1 0.033587 -0.000806 -0.014723 0.000000 0.000000 0.000000
# 2 -0.000806 0.012751 -0.011141 0.000000 0.000000 0.000000
# 3 -0.014723 -0.011141 0.036572 0.000000 0.000000 0.000000
# 4 0.000000 0.000000 0.000000 0.035871 0.000000 0.000000
# 5 0.000000 0.000000 0.000000 0.000000 0.059550 0.000000
# 6 0.000000 0.000000 0.000000 0.000000 0.000000 0.104958
#
#
# Mechanical properties :
#
#
# Convention : Reuss Voigt Hill
#
# Bulk Modulus (GPa) = 33.81892 43.88305 38.85098
# Shear Modulus (GPa) = 14.43061 18.77731 16.60396
#
# Velocity S-wave (km/s) = 2.86530 3.26847 3.07351
# Velocity P-wave (km/s) = 5.49428 6.26180 5.89056
#
# Compressibility (1/GPa) = 0.02956925
#
# Stress axis : x y z
#
# Youngs Moduli (GPa) = 29.77338 78.42236 27.34360
#
# Poissons Ratio (x) = 0.06321 0.40259
# Poissons Ratio (y) = 0.02400 0.30464
# Poissons Ratio (z) = 0.43836 0.87371
#
# Static dielectric constant tensor:
#      x y z
#    x 1.577100 0.000000 0.000000 
#    y 0.000000 1.683920 0.000000 
#    z 0.000000 0.000000 1.620290 
# 
# From -- ./inp_files/7967.got.cif
#   From: 2010.05.17/outbox.cif.g08.bks.cpg/sg66_4_cif.got.tgz:7967.got - 2010.06.03 17:51:23.
