data_PCOD9495306
_publ_section_title
;
Structure prediction by ZEFSAII (Michael W. Deem and Ramdas Pophale) SiO2 
 PCOD9495306
Probable space group: C C C M
;
_chemical_formula_sum "Si O2"
_cell_formula_units_Z 80
_cell_length_a 8.413881
_cell_length_b 20.248959
_cell_length_c 23.480012
_cell_angle_alpha 90.000000
_cell_angle_beta 90.000000
_cell_angle_gamma 90.000000
_cell_volume 4000.344386
_symmetry_space_group_name_H-M "C C C M"
_symmetry_group_IT_number 66
_symmetry_cell_setting 'orthorhombic'
loop_
_space_group_symop_operation_xyz
x,y,z
-x,-y,z
x,-y,1/2-z
-x,y,1/2-z
-x,-y,-z
x,y,-z
-x,y,1/2+z
x,-y,1/2+z
1/2+x,1/2+y,z
1/2-x,1/2-y,z
1/2+x,1/2-y,1/2-z
1/2-x,1/2+y,1/2-z
1/2-x,1/2-y,-z
1/2+x,1/2+y,-z
1/2-x,1/2+y,1/2+z
1/2+x,1/2-y,1/2+z
loop_
_atom_site_type_symbol
_atom_site_label
_atom_site_fract_x
_atom_site_fract_y
_atom_site_fract_z
Si Si1 0.688392 0.997631 0.500000
Si Si2 0.567780 0.671761 0.900202
Si Si3 0.941788 0.929222 0.315058
Si Si4 0.371441 0.942011 0.118586
Si Si5 0.458259 0.421962 0.000000
Si Si6 0.440748 0.182334 0.931130
O O1 0.721629 0.965108 0.438871
O O2 0.500000 0.000000 0.500000
O O3 0.767088 0.068972 0.500000
O O4 0.524730 0.634515 0.842647
O O5 0.504915 0.745609 0.908832
O O6 0.756151 0.675639 0.912710
O O7 0.496660 0.621825 0.946738
O O8 0.754691 0.928832 0.331171
O O9 0.000000 0.929794 0.250000
O O10 0.000000 0.000000 0.340009
O O11 0.463444 0.876561 0.098510
O O12 0.500000 0.000000 0.132180
O O13 0.500000 0.500000 0.000000
O O14 0.457243 0.182332 0.000000
#
# Coordination Sequence:
#
# PCOD9495306 Si02
#       6
#     8  16  16  16   8  16
#     4  10  18  29  54  92 132 158 195 252 316 388
#     4  11  21  39  62  93 132 176 217 261 330 393
#     4  11  25  46  65  89 129 174 228 283 316 377
#     4  11  22  39  68 101 136 170 213 274 332 397
#     4  12  20  30  56  88 121 163 214 256 323 388
#     4  11  21  40  63  97 139 174 207 267 339 406
#
# _framework density 19.998279
#
# number of rings (size 3 to 8) (size 9 to 14) (size 15 to 20)
#    0.000    1.000    3.000    7.200    0.000    0.800 
#    0.000   12.000    0.000    0.000    0.000    0.000 
#    0.000    0.000    0.000    0.000    0.000    0.000 
#
# Total GULP energy -223156.536416 kJ/mol
# GULP energy per Si atom -5578.913410 kJ/mol
# Density = 1.995276 g / cm^3
# Si number density = 19.998279 Si / 1000 Ang^3
#
#
#
# Elastic Constant Matrix: (Units=GPa)
#
#
# Indices 1 2 3 4 5 6 
#
# 1 86.0364 55.5184 47.7108 0.0000 0.0000 0.0000
# 2 55.5184 199.4789 58.6512 0.0000 0.0000 0.0000
# 3 47.7108 58.6512 110.5443 0.0000 0.0000 0.0000
# 4 0.0000 0.0000 0.0000 32.4500 0.0000 0.0000
# 5 0.0000 0.0000 0.0000 0.0000 23.3225 0.0000
# 6 0.0000 0.0000 0.0000 0.0000 0.0000 39.9153
#
#
#
# Elastic Compliance Matrix: (Units=1/GPa)
#
#
# Indices 1 2 3 4 5 6 
#
# 1 0.016660 -0.002989 -0.005604 0.000000 0.000000 0.000000
# 2 -0.002989 0.006476 -0.002146 0.000000 0.000000 0.000000
# 3 -0.005604 -0.002146 0.012604 0.000000 0.000000 0.000000
# 4 0.000000 0.000000 0.000000 0.030817 0.000000 0.000000
# 5 0.000000 0.000000 0.000000 0.000000 0.042877 0.000000
# 6 0.000000 0.000000 0.000000 0.000000 0.000000 0.025053
#
#
# Mechanical properties :
#
#
# Convention : Reuss Voigt Hill
#
# Bulk Modulus (GPa) = 70.12331 79.98006 75.05168
# Shear Modulus (GPa) = 31.11047 34.74951 32.92999
#
# Velocity S-wave (km/s) = 3.94846 4.17301 4.06228
# Velocity P-wave (km/s) = 7.47850 7.95606 7.72097
#
# Compressibility (1/GPa) = 0.01426059
#
# Stress axis : x y z
#
# Youngs Moduli (GPa) = 60.02562 154.42015 79.34252
#
# Poissons Ratio (x) = 0.46153 0.44467
# Poissons Ratio (y) = 0.17940 0.17026
# Poissons Ratio (z) = 0.33641 0.33137
#
# Static dielectric constant tensor:
#      x y z
#    x 1.887530 0.000000 0.000000 
#    y 0.000000 1.721690 0.000000 
#    z 0.000000 0.000000 1.731930 
# 
# From -- ./inp_files/55386.got.cif
#   From: 2010.05.17/outbox.cif.g08.bks.cpg/sg66_28_cif.got.tgz:55386.got - 2010.06.03 17:51:23.
