data_PCOD9495425
_publ_section_title
;
Structure prediction by ZEFSAII (Michael W. Deem and Ramdas Pophale) SiO2 
 PCOD9495425
Probable space group: C C C M
;
_chemical_formula_sum "Si O2"
_cell_formula_units_Z 112
_cell_length_a 21.087383
_cell_length_b 11.738891
_cell_length_c 22.528587
_cell_angle_alpha 90.000000
_cell_angle_beta 90.000000
_cell_angle_gamma 90.000000
_cell_volume 5576.782534
_symmetry_space_group_name_H-M "C C C M"
_symmetry_group_IT_number 66
_symmetry_cell_setting 'orthorhombic'
loop_
_space_group_symop_operation_xyz
x,y,z
-x,-y,z
x,-y,1/2-z
-x,y,1/2-z
-x,-y,-z
x,y,-z
-x,y,1/2+z
x,-y,1/2+z
1/2+x,1/2+y,z
1/2-x,1/2-y,z
1/2+x,1/2-y,1/2-z
1/2-x,1/2+y,1/2-z
1/2-x,1/2-y,-z
1/2+x,1/2+y,-z
1/2-x,1/2+y,1/2+z
1/2+x,1/2-y,1/2+z
loop_
_atom_site_type_symbol
_atom_site_label
_atom_site_fract_x
_atom_site_fract_y
_atom_site_fract_z
Si Si1 0.883524 0.390313 0.622330
Si Si2 0.680823 0.280693 0.068699
Si Si3 0.754092 0.614280 0.932465
Si Si4 0.381774 0.490062 0.071621
Si Si5 0.534251 0.713318 0.931399
Si Si6 0.573591 0.137562 0.250875
Si Si7 0.918963 0.641992 0.620221
O O1 0.810941 0.421737 0.610286
O O2 0.906154 0.299229 0.573759
O O3 0.893824 0.333276 0.686941
O O4 0.925626 0.505163 0.618914
O O5 0.750000 0.250000 0.094694
O O6 0.635129 0.382315 0.092858
O O7 0.636689 0.171784 0.075093
O O8 0.692251 0.311684 0.000000
O O9 0.750000 0.750000 0.932476
O O10 0.684865 0.570951 0.915563
O O11 0.767235 0.574691 0.000000
O O12 0.439877 0.408908 0.091866
O O13 0.390722 0.493797 0.000000
O O14 0.479973 0.782859 0.896861
O O15 0.514107 0.700113 0.000000
O O16 0.500000 0.173461 0.250000
O O17 0.601611 0.173231 0.187565
O O18 0.574551 0.000000 0.250000
#
# Coordination Sequence:
#
# PCOD9495425 Si02
#       7
#    16  16  16  16  16  16  16
#     4  11  20  33  55  82 111 144 183 233 281 331
#     4  10  21  38  58  80 110 151 190 227 277 336
#     4  10  18  31  53  82 112 143 177 219 281 344
#     4   9  19  35  53  79 118 153 181 217 272 348
#     4  11  21  32  52  85 117 143 176 227 286 336
#     4   9  18  35  54  75 106 147 186 222 275 331
#     4  11  22  35  55  80 108 144 191 236 276 331
#
# _framework density 20.083265000000001
#
# number of rings (size 3 to 8) (size 9 to 14) (size 15 to 20)
#    0.000    1.857    2.857    2.143    0.000    4.571 
#    0.000    2.857    0.000    0.857    0.000    0.000 
#    0.000    0.000    0.000    0.000    0.000    0.000 
#
# Total GULP energy -311897.880746 kJ/mol
# GULP energy per Si atom -5569.605013 kJ/mol
# Density = 2.003755 g / cm^3
# Si number density = 20.083265 Si / 1000 Ang^3
#
#
#
# Elastic Constant Matrix: (Units=GPa)
#
#
# Indices 1 2 3 4 5 6 
#
# 1 74.3344 29.7923 25.1638 0.0000 0.0000 0.0000
# 2 29.7923 84.1714 12.7978 0.0000 0.0000 0.0000
# 3 25.1638 12.7978 60.3662 0.0000 0.0000 0.0000
# 4 0.0000 0.0000 0.0000 5.8507 0.0000 0.0000
# 5 0.0000 0.0000 0.0000 0.0000 8.4396 0.0000
# 6 0.0000 0.0000 0.0000 0.0000 0.0000 36.5868
#
#
#
# Elastic Compliance Matrix: (Units=1/GPa)
#
#
# Indices 1 2 3 4 5 6 
#
# 1 0.017699 -0.005314 -0.006251 0.000000 0.000000 0.000000
# 2 -0.005314 0.013872 -0.000726 0.000000 0.000000 0.000000
# 3 -0.006251 -0.000726 0.019325 0.000000 0.000000 0.000000
# 4 0.000000 0.000000 0.000000 0.170920 0.000000 0.000000
# 5 0.000000 0.000000 0.000000 0.000000 0.118489 0.000000
# 6 0.000000 0.000000 0.000000 0.000000 0.000000 0.027332
#
#
# Mechanical properties :
#
#
# Convention : Reuss Voigt Hill
#
# Bulk Modulus (GPa) = 38.00266 39.37556 38.68911
# Shear Modulus (GPa) = 12.46916 20.24995 16.35956
#
# Velocity S-wave (km/s) = 2.49444 3.17882 2.85719
# Velocity P-wave (km/s) = 5.22110 5.75516 5.49463
#
# Compressibility (1/GPa) = 0.02631395
#
# Stress axis : x y z
#
# Youngs Moduli (GPa) = 56.50151 72.08906 51.74588
#
# Poissons Ratio (x) = 0.38308 0.32347
# Poissons Ratio (y) = 0.30025 0.03755
# Poissons Ratio (z) = 0.35320 0.05232
#
# Static dielectric constant tensor:
#      x y z
#    x 1.757240 0.000000 0.000000 
#    y 0.000000 1.778290 0.000000 
#    z 0.000000 0.000000 1.731830 
# 
# From -- ./inp_files/59565.got.cif
#   From: 2010.05.17/outbox.cif.g08.bks.cpg/sg66_30_cif.got.tgz:59565.got - 2010.06.03 17:51:23.
