data_PCOD9495116
_publ_section_title
;
Structure prediction by ZEFSAII (Michael W. Deem and Ramdas Pophale) SiO2 
 PCOD9495116
Probable space group: C C C M
;
_chemical_formula_sum "Si O2"
_cell_formula_units_Z 80
_cell_length_a 22.366192
_cell_length_b 24.089479
_cell_length_c 10.323807
_cell_angle_alpha 90.000000
_cell_angle_beta 90.000000
_cell_angle_gamma 90.000000
_cell_volume 5562.363070
_symmetry_space_group_name_H-M "C C C M"
_symmetry_group_IT_number 66
_symmetry_cell_setting 'orthorhombic'
loop_
_space_group_symop_operation_xyz
x,y,z
-x,-y,z
x,-y,1/2-z
-x,y,1/2-z
-x,-y,-z
x,y,-z
-x,y,1/2+z
x,-y,1/2+z
1/2+x,1/2+y,z
1/2-x,1/2-y,z
1/2+x,1/2-y,1/2-z
1/2-x,1/2+y,1/2-z
1/2-x,1/2-y,-z
1/2+x,1/2+y,-z
1/2-x,1/2+y,1/2+z
1/2+x,1/2-y,1/2+z
loop_
_atom_site_type_symbol
_atom_site_label
_atom_site_fract_x
_atom_site_fract_y
_atom_site_fract_z
Si Si1 0.433476 0.116065 0.500000
Si Si2 0.858688 0.501017 0.500000
Si Si3 0.130313 0.332044 0.257372
Si Si4 0.924015 0.615337 0.000000
Si Si5 0.257023 0.614794 0.842394
Si Si6 0.272925 0.000000 0.250000
Si Si7 0.817414 0.225006 0.149469
O O1 0.412126 0.149197 0.373946
O O2 0.504579 0.111862 0.500000
O O3 0.398483 0.056928 0.500000
O O4 0.900228 0.447395 0.500000
O O5 0.816305 0.497723 0.374451
O O6 0.102282 0.353558 0.125198
O O7 0.193833 0.361929 0.288579
O O8 0.143270 0.266242 0.264789
O O9 0.265154 0.555442 0.775385
O O10 0.307434 0.660960 0.813972
O O11 0.252288 0.610449 0.000000
O O12 0.750000 0.250000 0.150264
O O13 0.838089 0.228525 0.000000
#
# Coordination Sequence:
#
# PCOD9495116 Si02
#       7
#     8   8  16   8  16   8  16
#     4  12  21  36  48  59  83 131 173 194 219 270
#     4  12  21  34  44  58  92 126 164 196 231 258
#     4  11  18  34  47  65  87 114 156 201 234 270
#     4  12  25  30  44  67  93 119 157 206 247 254
#     4  10  17  30  50  69  87 120 157 183 226 284
#     4  12  18  30  49  66  92 122 151 198 224 266
#     4   8  15  28  51  68  80 112 155 188 222 283
#
# _framework density 14.382376000000001
#
# number of rings (size 3 to 8) (size 9 to 14) (size 15 to 20)
#    0.000    1.400    7.000    2.100    0.000    0.000 
#    0.000    8.500    0.000    0.000    0.000    0.000 
#    0.000    0.000    0.000    5.400    0.000    0.000 
#
# Total GULP energy -222969.511624 kJ/mol
# GULP energy per Si atom -5574.237791 kJ/mol
# Density = 1.434964 g / cm^3
# Si number density = 14.382376 Si / 1000 Ang^3
#
#
#
# Elastic Constant Matrix: (Units=GPa)
#
#
# Indices 1 2 3 4 5 6 
#
# 1 32.1104 43.8871 27.7189 0.0000 0.0000 0.0000
# 2 43.8871 144.4719 46.8509 0.0000 0.0000 0.0000
# 3 27.7189 46.8509 101.8360 0.0000 0.0000 0.0000
# 4 0.0000 0.0000 0.0000 20.0311 0.0000 0.0000
# 5 0.0000 0.0000 0.0000 0.0000 -40.7576 0.0000
# 6 0.0000 0.0000 0.0000 0.0000 0.0000 10.0213
#
#
#
# Elastic Compliance Matrix: (Units=1/GPa)
#
#
# Indices 1 2 3 4 5 6 
#
# 1 0.059955 -0.015186 -0.009333 0.000000 0.000000 0.000000
# 2 -0.015186 0.011982 -0.001379 0.000000 0.000000 0.000000
# 3 -0.009333 -0.001379 0.012994 0.000000 0.000000 0.000000
# 4 0.000000 0.000000 0.000000 0.049922 0.000000 0.000000
# 5 0.000000 0.000000 0.000000 0.000000 -0.024535 0.000000
# 6 0.000000 0.000000 0.000000 0.000000 0.000000 0.099788
#
#
# Mechanical properties :
#
#
# Convention : Reuss Voigt Hill
#
# Bulk Modulus (GPa) = 30.17891 57.25911 43.71901
# Shear Modulus (GPa) = 18.31854 8.52305 13.42080
#
# Velocity S-wave (km/s) = 3.57274 2.43699 3.05805
# Velocity P-wave (km/s) = 6.16831 6.91498 6.55229
#
# Compressibility (1/GPa) = 0.03313572
#
# Stress axis : x y z
#
# Youngs Moduli (GPa) = 16.67917 83.45690 76.95661
#
# Poissons Ratio (x) = 1.26742 0.71820
# Poissons Ratio (y) = 0.25330 0.10612
# Poissons Ratio (z) = 0.15566 0.11508
#
# Static dielectric constant tensor:
#      x y z
#    x 1.440700 0.000000 0.000000 
#    y 0.000000 1.520280 0.000000 
#    z 0.000000 0.000000 1.471890 
# 
# From -- ./inp_files/6808.got.cif
#   From: 2010.05.17/outbox.cif.g08.bks.cpg/sg66_4_cif.got.tgz:6808.got - 2010.06.03 17:51:23.
