data_PCOD9495542
_publ_section_title
;
Structure prediction by ZEFSAII (Michael W. Deem and Ramdas Pophale) SiO2 
 PCOD9495542
Probable space group: C C C M
;
_chemical_formula_sum "Si O2"
_cell_formula_units_Z 68
_cell_length_a 9.255057
_cell_length_b 20.550904
_cell_length_c 19.800312
_cell_angle_alpha 90.000000
_cell_angle_beta 90.000000
_cell_angle_gamma 90.000000
_cell_volume 3766.015143
_symmetry_space_group_name_H-M "C C C M"
_symmetry_group_IT_number 66
_symmetry_cell_setting 'orthorhombic'
loop_
_space_group_symop_operation_xyz
x,y,z
-x,-y,z
x,-y,1/2-z
-x,y,1/2-z
-x,-y,-z
x,y,-z
-x,y,1/2+z
x,-y,1/2+z
1/2+x,1/2+y,z
1/2-x,1/2-y,z
1/2+x,1/2-y,1/2-z
1/2-x,1/2+y,1/2-z
1/2-x,1/2-y,-z
1/2+x,1/2+y,-z
1/2-x,1/2+y,1/2+z
1/2+x,1/2-y,1/2+z
loop_
_atom_site_type_symbol
_atom_site_label
_atom_site_fract_x
_atom_site_fract_y
_atom_site_fract_z
Si Si1 0.674756 0.922258 0.423203
Si Si2 0.147480 0.564564 0.374889
Si Si3 0.171725 0.182172 0.329530
Si Si4 0.831217 0.182915 0.668122
Si Si5 0.000000 0.500000 0.750000
O O1 0.711586 0.905979 0.500000
O O2 0.501863 0.916073 0.411606
O O3 0.756025 0.876135 0.370787
O O4 0.705729 0.998327 0.408233
O O5 0.258685 0.622988 0.370494
O O6 0.096870 0.543662 0.299434
O O7 0.250000 0.250000 0.346450
O O8 0.188179 0.172077 0.248890
O O9 0.001693 0.187453 0.344627
O O10 0.750000 0.250000 0.651349
#
# Coordination Sequence:
#
# PCOD9495542 Si02
#       5
#    16  16  16  16   4
#     4  10  21  37  56  77 108 148 182 215 259 316
#     4  10  18  33  55  80 107 139 181 223 264 314
#     4  10  21  36  56  82 111 141 174 219 273 323
#     4  10  20  35  57  84 109 135 175 226 275 319
#     4   8  16  28  54  82 104 136 172 222 276 316
#
# _framework density 18.056222000000002
#
# number of rings (size 3 to 8) (size 9 to 14) (size 15 to 20)
#    0.000    2.353    0.000    5.647    0.000    5.176 
#    0.000    5.882    0.000    4.941    0.000    0.000 
#    0.000    0.000    0.000    0.000    0.000    0.000 
#
# Total GULP energy -189789.150923 kJ/mol
# GULP energy per Si atom -5582.033851 kJ/mol
# Density = 1.801513 g / cm^3
# Si number density = 18.056222 Si / 1000 Ang^3
#
#
#
# Elastic Constant Matrix: (Units=GPa)
#
#
# Indices 1 2 3 4 5 6 
#
# 1 103.7919 98.7131 25.9151 0.0000 0.0000 0.0000
# 2 98.7131 137.1621 31.2297 0.0000 0.0000 0.0000
# 3 25.9151 31.2297 51.4173 0.0000 0.0000 0.0000
# 4 0.0000 0.0000 0.0000 -17.5607 0.0000 0.0000
# 5 0.0000 0.0000 0.0000 0.0000 -7.5320 0.0000
# 6 0.0000 0.0000 0.0000 0.0000 0.0000 42.7663
#
#
#
# Elastic Compliance Matrix: (Units=1/GPa)
#
#
# Indices 1 2 3 4 5 6 
#
# 1 0.030785 -0.021612 -0.002390 0.000000 0.000000 0.000000
# 2 -0.021612 0.023632 -0.003461 0.000000 0.000000 0.000000
# 3 -0.002390 -0.003461 0.022755 0.000000 0.000000 0.000000
# 4 0.000000 0.000000 0.000000 -0.056945 0.000000 0.000000
# 5 0.000000 0.000000 0.000000 0.000000 -0.132767 0.000000
# 6 0.000000 0.000000 0.000000 0.000000 0.000000 0.023383
#
#
# Mechanical properties :
#
#
# Convention : Reuss Voigt Hill
#
# Bulk Modulus (GPa) = 44.94818 67.12078 56.03448
# Shear Modulus (GPa) = -186.45864 12.63562 -86.91151
#
# Velocity S-wave (km/s) = -10.17299 2.64823 -6.94538
# Velocity P-wave (km/s) = 10.63197 6.82677 5.76342
#
# Compressibility (1/GPa) = 0.02224784
#
# Stress axis : x y z
#
# Youngs Moduli (GPa) = 32.48289 42.31531 43.94557
#
# Poissons Ratio (x) = 0.91450 0.10503
# Poissons Ratio (y) = 0.70201 0.15210
# Poissons Ratio (z) = 0.07763 0.14645
#
# Static dielectric constant tensor:
#      x y z
#    x 1.598190 0.000000 0.000000 
#    y 0.000000 1.600860 0.000000 
#    z 0.000000 0.000000 1.611700 
# 
# From -- ./inp_files/46754.got.cif
#   From: 2010.05.17/outbox.cif.g08.bks.cpg/sg66_24_cif.got.tgz:46754.got - 2010.06.03 17:51:23.
