data_PCOD9495465
_publ_section_title
;
Structure prediction by ZEFSAII (Michael W. Deem and Ramdas Pophale) SiO2 
 PCOD9495465
Probable space group: C C C M
;
_chemical_formula_sum "Si O2"
_cell_formula_units_Z 112
_cell_length_a 17.878693
_cell_length_b 18.520577
_cell_length_c 14.612567
_cell_angle_alpha 90.000000
_cell_angle_beta 90.000000
_cell_angle_gamma 90.000000
_cell_volume 4838.567403
_symmetry_space_group_name_H-M "C C C M"
_symmetry_group_IT_number 66
_symmetry_cell_setting 'orthorhombic'
loop_
_space_group_symop_operation_xyz
x,y,z
-x,-y,z
x,-y,1/2-z
-x,y,1/2-z
-x,-y,-z
x,y,-z
-x,y,1/2+z
x,-y,1/2+z
1/2+x,1/2+y,z
1/2-x,1/2-y,z
1/2+x,1/2-y,1/2-z
1/2-x,1/2+y,1/2-z
1/2-x,1/2-y,-z
1/2+x,1/2+y,-z
1/2-x,1/2+y,1/2+z
1/2+x,1/2-y,1/2+z
loop_
_atom_site_type_symbol
_atom_site_label
_atom_site_fract_x
_atom_site_fract_y
_atom_site_fract_z
Si Si1 0.911035 0.693118 0.387810
Si Si2 0.267396 0.110797 0.602434
Si Si3 0.496285 0.668716 0.388476
Si Si4 0.465758 0.076964 0.110181
Si Si5 0.652380 0.606774 0.110920
Si Si6 0.387379 0.445289 0.611867
Si Si7 0.696141 0.043586 0.656968
O O1 0.906285 0.693703 0.500000
O O2 0.830493 0.662866 0.355442
O O3 0.947272 0.768526 0.358153
O O4 0.974178 0.635616 0.361578
O O5 0.253820 0.139479 0.500000
O O6 0.185287 0.099867 0.644808
O O7 0.298541 0.028263 0.593329
O O8 0.494671 0.673268 0.500000
O O9 0.409641 0.664994 0.358645
O O10 0.537074 0.594393 0.362946
O O11 0.383320 0.081282 0.149980
O O12 0.500000 0.000000 0.134603
O O13 0.458378 0.080755 0.000000
O O14 0.621664 0.527785 0.139620
O O15 0.738259 0.600996 0.141049
O O16 0.654072 0.609359 0.000000
O O17 0.384090 0.445702 0.500000
O O18 0.705193 0.000000 0.750000
#
# Coordination Sequence:
#
# PCOD9495465 Si02
#       7
#    16  16  16  16  16  16  16
#     4   9  17  28  46  75 107 134 165 204 252 314
#     4   9  16  30  49  74 105 134 165 209 265 309
#     4   9  16  27  46  78 109 131 166 213 255 306
#     4  10  18  32  53  75 102 133 164 206 265 317
#     4   9  17  31  51  75 105 135 165 209 263 310
#     4   8  14  24  45  74 104 133 163 205 258 303
#     4  11  21  32  50  78  98 129 173 223 258 300
#
# _framework density 23.147348000000001
#
# number of rings (size 3 to 8) (size 9 to 14) (size 15 to 20)
#    0.000    2.714    1.429    2.571    0.000    2.571 
#    0.000    3.571    0.000   10.286   22.286    0.000 
#    0.000    0.000    0.000    0.000    0.000    0.000 
#
# Total GULP energy -312452.418396 kJ/mol
# GULP energy per Si atom -5579.507471 kJ/mol
# Density = 2.309466 g / cm^3
# Si number density = 23.147348 Si / 1000 Ang^3
#
#
#
# Elastic Constant Matrix: (Units=GPa)
#
#
# Indices 1 2 3 4 5 6 
#
# 1 172.8504 27.0488 5.8207 0.0000 0.0000 0.0000
# 2 27.0488 32.3532 -0.7544 0.0000 0.0000 0.0000
# 3 5.8207 -0.7544 56.2358 0.0000 0.0000 0.0000
# 4 0.0000 0.0000 0.0000 13.1706 0.0000 0.0000
# 5 0.0000 0.0000 0.0000 0.0000 -3.5996 0.0000
# 6 0.0000 0.0000 0.0000 0.0000 0.0000 45.5811
#
#
#
# Elastic Compliance Matrix: (Units=1/GPa)
#
#
# Indices 1 2 3 4 5 6 
#
# 1 0.006689 -0.005610 -0.000768 0.000000 0.000000 0.000000
# 2 -0.005610 0.035624 0.001059 0.000000 0.000000 0.000000
# 3 -0.000768 0.001059 0.017876 0.000000 0.000000 0.000000
# 4 0.000000 0.000000 0.000000 0.075926 0.000000 0.000000
# 5 0.000000 0.000000 0.000000 0.000000 -0.277808 0.000000
# 6 0.000000 0.000000 0.000000 0.000000 0.000000 0.021939
#
#
# Mechanical properties :
#
#
# Convention : Reuss Voigt Hill
#
# Bulk Modulus (GPa) = 20.18147 36.18552 28.18350
# Shear Modulus (GPa) = -53.99693 26.31871 -13.83911
#
# Velocity S-wave (km/s) = -4.83509 3.37561 -2.44779
# Velocity P-wave (km/s) = 4.73637 5.55515 2.05261
#
# Compressibility (1/GPa) = 0.04955040
#
# Stress axis : x y z
#
# Youngs Moduli (GPa) = 149.49594 28.07091 55.94117
#
# Poissons Ratio (x) = 0.15749 0.04294
# Poissons Ratio (y) = 0.83872 -0.05922
# Poissons Ratio (z) = 0.11476 -0.02972
#
# Static dielectric constant tensor:
#      x y z
#    x 1.863660 0.000000 0.000000 
#    y 0.000000 1.872370 0.000000 
#    z 0.000000 0.000000 2.122070 
# 
# From -- ./inp_files/51194.got.cif
#   From: 2010.05.17/outbox.cif.g08.bks.cpg/sg66_26_cif.got.tgz:51194.got - 2010.06.03 17:51:23.
