data_PCOD9495523
_publ_section_title
;
Structure prediction by ZEFSAII (Michael W. Deem and Ramdas Pophale) SiO2 
 PCOD9495523
Probable space group: C C C M
;
_chemical_formula_sum "Si O2"
_cell_formula_units_Z 88
_cell_length_a 10.755666
_cell_length_b 29.216905
_cell_length_c 15.770766
_cell_angle_alpha 90.000000
_cell_angle_beta 90.000000
_cell_angle_gamma 90.000000
_cell_volume 4955.920189
_symmetry_space_group_name_H-M "C C C M"
_symmetry_group_IT_number 66
_symmetry_cell_setting 'orthorhombic'
loop_
_space_group_symop_operation_xyz
x,y,z
-x,-y,z
x,-y,1/2-z
-x,y,1/2-z
-x,-y,-z
x,y,-z
-x,y,1/2+z
x,-y,1/2+z
1/2+x,1/2+y,z
1/2-x,1/2-y,z
1/2+x,1/2-y,1/2-z
1/2-x,1/2+y,1/2-z
1/2-x,1/2-y,-z
1/2+x,1/2+y,-z
1/2-x,1/2+y,1/2+z
1/2+x,1/2-y,1/2+z
loop_
_atom_site_type_symbol
_atom_site_label
_atom_site_fract_x
_atom_site_fract_y
_atom_site_fract_z
Si Si1 0.172798 0.865942 0.400426
Si Si2 0.489606 0.446840 0.352067
Si Si3 0.646433 0.845213 0.755832
Si Si4 0.952258 0.800074 0.404857
Si Si5 0.250000 0.250000 0.700839
Si Si6 0.733419 0.613200 0.406201
O O1 0.200185 0.859565 0.500000
O O2 0.093830 0.912685 0.389262
O O3 0.292371 0.866542 0.340123
O O4 0.078866 0.824215 0.372972
O O5 0.500000 0.500000 0.374577
O O6 0.500000 0.442290 0.250000
O O7 0.357440 0.428501 0.384611
O O8 0.500000 0.839619 0.750000
O O9 0.710682 0.795458 0.749442
O O10 0.681667 0.875660 0.673815
O O11 0.975726 0.782643 0.500000
O O12 0.874064 0.763129 0.352785
O O13 0.857575 0.842786 0.410077
O O14 0.790812 0.608156 0.500000
#
# Coordination Sequence:
#
# PCOD9495523 Si02
#       6
#    16  16  16  16   8  16
#     4  10  21  38  58  82 119 155 185 235 291 343
#     4  10  18  32  62  98 121 143 180 231 285 345
#     4  11  24  38  55  79 107 153 201 240 289 341
#     4   8  16  31  53  80 107 140 179 226 285 341
#     4  10  21  32  57  78 106 142 190 242 292 338
#     4   9  18  34  55  81 114 146 179 225 279 342
#
# _framework density 17.756540999999999
#
# number of rings (size 3 to 8) (size 9 to 14) (size 15 to 20)
#    0.000    2.364    1.818    1.909    2.545    2.909 
#    0.000    0.455    0.000    2.182    0.000    2.545 
#    0.000    0.000    0.000    0.000    0.000    0.000 
#
# Total GULP energy -245104.894574 kJ/mol
# GULP energy per Si atom -5570.565786 kJ/mol
# Density = 1.771613 g / cm^3
# Si number density = 17.756541 Si / 1000 Ang^3
#
#
#
# Elastic Constant Matrix: (Units=GPa)
#
#
# Indices 1 2 3 4 5 6 
#
# 1 91.3455 20.5709 55.4390 0.0000 0.0000 0.0000
# 2 20.5709 82.6993 35.3479 0.0000 0.0000 0.0000
# 3 55.4390 35.3479 101.2505 0.0000 0.0000 0.0000
# 4 0.0000 0.0000 0.0000 12.9982 0.0000 0.0000
# 5 0.0000 0.0000 0.0000 0.0000 -0.3777 0.0000
# 6 0.0000 0.0000 0.0000 0.0000 0.0000 18.3562
#
#
#
# Elastic Compliance Matrix: (Units=1/GPa)
#
#
# Indices 1 2 3 4 5 6 
#
# 1 0.016402 -0.000284 -0.008882 0.000000 0.000000 0.000000
# 2 -0.000284 0.014218 -0.004808 0.000000 0.000000 0.000000
# 3 -0.008882 -0.004808 0.016418 0.000000 0.000000 0.000000
# 4 0.000000 0.000000 0.000000 0.076934 0.000000 0.000000
# 5 0.000000 0.000000 0.000000 0.000000 -2.647913 0.000000
# 6 0.000000 0.000000 0.000000 0.000000 0.000000 0.054478
#
#
# Mechanical properties :
#
#
# Convention : Reuss Voigt Hill
#
# Bulk Modulus (GPa) = 52.38180 55.33452 53.85816
# Shear Modulus (GPa) = -2.05326 17.12452 7.53563
#
# Velocity S-wave (km/s) = -1.07650 3.10886 2.06230
# Velocity P-wave (km/s) = 5.29329 6.64208 6.00567
#
# Compressibility (1/GPa) = 0.01909060
#
# Stress axis : x y z
#
# Youngs Moduli (GPa) = 60.96928 70.33460 60.90791
#
# Poissons Ratio (x) = 0.01994 0.54096
# Poissons Ratio (y) = 0.01729 0.29287
# Poissons Ratio (z) = 0.54151 0.33819
#
# Static dielectric constant tensor:
#      x y z
#    x 1.605240 0.000000 0.000000 
#    y 0.000000 1.601580 0.000000 
#    z 0.000000 0.000000 1.653280 
# 
# From -- ./inp_files/26883.got.cif
#   From: 2010.05.17/outbox.cif.g08.bks.cpg/sg66_14_cif.got.tgz:26883.got - 2010.06.03 17:51:23.
