data_PCOD9495971
_publ_section_title
;
Structure prediction by ZEFSAII (Michael W. Deem and Ramdas Pophale) SiO2 
 PCOD9495971
Probable space group: C C C M
;
_chemical_formula_sum "Si O2"
_cell_formula_units_Z 72
_cell_length_a 10.470127
_cell_length_b 21.601762
_cell_length_c 18.130918
_cell_angle_alpha 90.000000
_cell_angle_beta 90.000000
_cell_angle_gamma 90.000000
_cell_volume 4100.727590
_symmetry_space_group_name_H-M "C C C M"
_symmetry_group_IT_number 66
_symmetry_cell_setting 'orthorhombic'
loop_
_space_group_symop_operation_xyz
x,y,z
-x,-y,z
x,-y,1/2-z
-x,y,1/2-z
-x,-y,-z
x,y,-z
-x,y,1/2+z
x,-y,1/2+z
1/2+x,1/2+y,z
1/2-x,1/2-y,z
1/2+x,1/2-y,1/2-z
1/2-x,1/2+y,1/2-z
1/2-x,1/2-y,-z
1/2+x,1/2+y,-z
1/2-x,1/2+y,1/2+z
1/2+x,1/2-y,1/2+z
loop_
_atom_site_type_symbol
_atom_site_label
_atom_site_fract_x
_atom_site_fract_y
_atom_site_fract_z
Si Si1 0.359411 0.644661 0.768856
Si Si2 0.728959 0.823504 0.582856
Si Si3 0.250000 0.250000 0.828630
Si Si4 0.428504 0.850565 0.412568
Si Si5 0.875422 0.432271 0.286732
O O1 0.500000 0.622657 0.750000
O O2 0.322607 0.650968 0.854467
O O3 0.338133 0.709178 0.725444
O O4 0.254327 0.599452 0.735932
O O5 0.755907 0.847096 0.500000
O O6 0.750000 0.750000 0.582488
O O7 0.579375 0.836526 0.599153
O O8 0.339008 0.203125 0.876213
O O9 0.406118 0.852324 0.500000
O O10 0.395840 0.915966 0.372581
O O11 0.872414 0.500000 0.250000
O O12 0.000000 0.400582 0.250000
#
# Coordination Sequence:
#
# PCOD9495971 Si02
#       5
#    16  16   8  16  16
#     4  11  21  34  56  83 113 155 192 236 286 349
#     4  10  19  32  52  81 119 152 185 228 286 352
#     4  10  21  30  57  84 122 152 192 228 281 364
#     4  10  20  36  57  87 119 153 192 240 296 350
#     4  10  21  39  59  80 111 147 199 250 283 338
#
# _framework density 17.557860000000002
#
# number of rings (size 3 to 8) (size 9 to 14) (size 15 to 20)
#    0.000    1.778    3.333    1.667    0.000    0.444 
#    0.000    7.778    0.000    0.000    0.000    7.778 
#    0.000    0.000    0.000    0.000    0.000    0.000 
#
# Total GULP energy -200500.178306 kJ/mol
# GULP energy per Si atom -5569.449397 kJ/mol
# Density = 1.751790 g / cm^3
# Si number density = 17.557860 Si / 1000 Ang^3
#
#
#
# Elastic Constant Matrix: (Units=GPa)
#
#
# Indices 1 2 3 4 5 6 
#
# 1 138.8838 29.8744 66.0172 0.0000 0.0000 0.0000
# 2 29.8744 64.8852 39.8170 0.0000 0.0000 0.0000
# 3 66.0172 39.8170 153.2723 0.0000 0.0000 0.0000
# 4 0.0000 0.0000 0.0000 -2.5103 0.0000 0.0000
# 5 0.0000 0.0000 0.0000 0.0000 20.1937 0.0000
# 6 0.0000 0.0000 0.0000 0.0000 0.0000 4.1563
#
#
#
# Elastic Compliance Matrix: (Units=1/GPa)
#
#
# Indices 1 2 3 4 5 6 
#
# 1 0.009304 -0.002171 -0.003444 0.000000 0.000000 0.000000
# 2 -0.002171 0.018841 -0.003960 0.000000 0.000000 0.000000
# 3 -0.003444 -0.003960 0.009036 0.000000 0.000000 0.000000
# 4 0.000000 0.000000 0.000000 -0.398358 0.000000 0.000000
# 5 0.000000 0.000000 0.000000 0.000000 0.049520 0.000000
# 6 0.000000 0.000000 0.000000 0.000000 0.000000 0.240601
#
#
# Mechanical properties :
#
#
# Convention : Reuss Voigt Hill
#
# Bulk Modulus (GPa) = 55.45167 69.82873 62.64020
# Shear Modulus (GPa) = -108.94191 19.12345 -44.90923
#
# Velocity S-wave (km/s) = -7.88556 3.30383 -5.06294
# Velocity P-wave (km/s) = 7.15951 7.37636 1.25541
#
# Compressibility (1/GPa) = 0.01803372
#
# Stress axis : x y z
#
# Youngs Moduli (GPa) = 107.48037 53.07564 110.66665
#
# Poissons Ratio (x) = 0.11521 0.38108
# Poissons Ratio (y) = 0.23330 0.43819
# Poissons Ratio (z) = 0.37011 0.21016
#
# Static dielectric constant tensor:
#      x y z
#    x 1.586480 0.000000 0.000000 
#    y 0.000000 1.635130 0.000000 
#    z 0.000000 0.000000 1.629630 
# 
# From -- ./inp_files/36754.got.cif
#   From: 2010.05.17/outbox.cif.g08.bks.cpg/sg66_19_cif.got.tgz:36754.got - 2010.06.03 17:51:23.
