data_PCOD9495186
_publ_section_title
;
Structure prediction by ZEFSAII (Michael W. Deem and Ramdas Pophale) SiO2 
 PCOD9495186
Probable space group: C C C M
;
_chemical_formula_sum "Si O2"
_cell_formula_units_Z 80
_cell_length_a 20.211506
_cell_length_b 9.838882
_cell_length_c 21.051202
_cell_angle_alpha 90.000000
_cell_angle_beta 90.000000
_cell_angle_gamma 90.000000
_cell_volume 4186.213033
_symmetry_space_group_name_H-M "C C C M"
_symmetry_group_IT_number 66
_symmetry_cell_setting 'orthorhombic'
loop_
_space_group_symop_operation_xyz
x,y,z
-x,-y,z
x,-y,1/2-z
-x,y,1/2-z
-x,-y,-z
x,y,-z
-x,y,1/2+z
x,-y,1/2+z
1/2+x,1/2+y,z
1/2-x,1/2-y,z
1/2+x,1/2-y,1/2-z
1/2-x,1/2+y,1/2-z
1/2-x,1/2-y,-z
1/2+x,1/2+y,-z
1/2-x,1/2+y,1/2+z
1/2+x,1/2-y,1/2+z
loop_
_atom_site_type_symbol
_atom_site_label
_atom_site_fract_x
_atom_site_fract_y
_atom_site_fract_z
Si Si1 0.000000 0.500000 0.610056
Si Si2 0.462738 0.794075 0.000000
Si Si3 0.243347 0.900978 0.130478
Si Si4 0.634628 0.056170 0.679607
Si Si5 0.819115 0.181458 0.375709
Si Si6 0.833143 0.144532 0.000000
Si Si7 0.594797 0.365353 0.500000
O O1 0.020528 0.379179 0.562906
O O2 0.061553 0.539015 0.653339
O O3 0.383934 0.768610 0.000000
O O4 0.481908 0.325383 0.000000
O O5 0.250000 0.750000 0.161519
O O6 0.212886 0.871158 0.061164
O O7 0.315220 0.969739 0.135224
O O8 0.196258 0.029544 0.150514
O O9 0.654222 0.214192 0.676361
O O10 0.642275 0.000000 0.750000
O O11 0.750000 0.250000 0.397879
O O12 0.868674 0.185507 0.435727
O O13 0.886323 0.022776 0.000000
#
# Coordination Sequence:
#
# PCOD9495186 Si02
#       7
#     8   8  16  16  16   8   8
#     4  11  23  38  60  86 119 155 202 256 308 377
#     4  11  21  35  57  91 123 152 199 244 315 382
#     4  10  21  37  60  88 121 156 199 250 309 367
#     4  11  23  40  60  83 116 161 207 257 304 362
#     4   9  19  35  57  88 117 153 196 248 305 362
#     4  10  21  35  58  91 125 161 189 250 314 378
#     4  10  17  34  57  85 123 156 191 241 307 377
#
# _framework density 19.110351000000001
#
# number of rings (size 3 to 8) (size 9 to 14) (size 15 to 20)
#    0.000    1.800    2.000    2.400    0.000    6.400 
#    0.000    0.000    0.000    0.000    0.000    2.800 
#    0.000    0.000    0.000    0.000    0.000    0.000 
#
# Total GULP energy -222784.328159 kJ/mol
# GULP energy per Si atom -5569.608204 kJ/mol
# Density = 1.906686 g / cm^3
# Si number density = 19.110351 Si / 1000 Ang^3
#
#
#
# Elastic Constant Matrix: (Units=GPa)
#
#
# Indices 1 2 3 4 5 6 
#
# 1 126.1578 42.0205 53.4749 0.0000 0.0000 0.0000
# 2 42.0205 144.7296 37.0514 0.0000 0.0000 0.0000
# 3 53.4749 37.0514 62.4740 0.0000 0.0000 0.0000
# 4 0.0000 0.0000 0.0000 4.7682 0.0000 0.0000
# 5 0.0000 0.0000 0.0000 0.0000 2.9522 0.0000
# 6 0.0000 0.0000 0.0000 0.0000 0.0000 26.4157
#
#
#
# Elastic Compliance Matrix: (Units=1/GPa)
#
#
# Indices 1 2 3 4 5 6 
#
# 1 0.012575 -0.001056 -0.010138 0.000000 0.000000 0.000000
# 2 -0.001056 0.008235 -0.003980 0.000000 0.000000 0.000000
# 3 -0.010138 -0.003980 0.027045 0.000000 0.000000 0.000000
# 4 0.000000 0.000000 0.000000 0.209723 0.000000 0.000000
# 5 0.000000 0.000000 0.000000 0.000000 0.338726 0.000000
# 6 0.000000 0.000000 0.000000 0.000000 0.000000 0.037856
#
#
# Mechanical properties :
#
#
# Convention : Reuss Voigt Hill
#
# Bulk Modulus (GPa) = 57.11852 66.49500 61.80676
# Shear Modulus (GPa) = 7.45885 20.21486 13.83686
#
# Velocity S-wave (km/s) = 1.97776 3.25591 2.69374
# Velocity P-wave (km/s) = 5.93035 7.00038 6.48747
#
# Compressibility (1/GPa) = 0.01750746
#
# Stress axis : x y z
#
# Youngs Moduli (GPa) = 79.52039 121.43425 36.97583
#
# Poissons Ratio (x) = 0.12821 0.37485
# Poissons Ratio (y) = 0.08396 0.14717
# Poissons Ratio (z) = 0.80616 0.48333
#
# Static dielectric constant tensor:
#      x y z
#    x 1.660180 0.000000 0.000000 
#    y 0.000000 1.742250 0.000000 
#    z 0.000000 0.000000 1.637710 
# 
# From -- ./inp_files/59352.got.cif
#   From: 2010.05.17/outbox.cif.g08.bks.cpg/sg66_30_cif.got.tgz:59352.got - 2010.06.03 17:51:23.
