data_PCOD9495677
_publ_section_title
;
Structure prediction by ZEFSAII (Michael W. Deem and Ramdas Pophale) SiO2 
 PCOD9495677
Probable space group: C C C M
;
_chemical_formula_sum "Si O2"
_cell_formula_units_Z 112
_cell_length_a 20.143747
_cell_length_b 15.503845
_cell_length_c 16.559922
_cell_angle_alpha 90.000000
_cell_angle_beta 90.000000
_cell_angle_gamma 90.000000
_cell_volume 5171.755237
_symmetry_space_group_name_H-M "C C C M"
_symmetry_group_IT_number 66
_symmetry_cell_setting 'orthorhombic'
loop_
_space_group_symop_operation_xyz
x,y,z
-x,-y,z
x,-y,1/2-z
-x,y,1/2-z
-x,-y,-z
x,y,-z
-x,y,1/2+z
x,-y,1/2+z
1/2+x,1/2+y,z
1/2-x,1/2-y,z
1/2+x,1/2-y,1/2-z
1/2-x,1/2+y,1/2-z
1/2-x,1/2-y,-z
1/2+x,1/2+y,-z
1/2-x,1/2+y,1/2+z
1/2+x,1/2-y,1/2+z
loop_
_atom_site_type_symbol
_atom_site_label
_atom_site_fract_x
_atom_site_fract_y
_atom_site_fract_z
Si Si1 0.243710 0.998259 0.846076
Si Si2 0.928376 0.361860 0.707782
Si Si3 0.396389 0.188293 0.377252
Si Si4 0.963295 0.217094 0.405021
Si Si5 0.115085 0.492884 0.913707
Si Si6 0.803694 0.812662 0.671969
Si Si7 0.110627 0.915315 0.699879
O O1 0.307137 0.025340 0.897260
O O2 0.228482 0.898651 0.863700
O O3 0.261067 0.000000 0.750000
O O4 0.175547 0.052975 0.851228
O O5 0.883084 0.338943 0.783475
O O6 0.919538 0.291251 0.637727
O O7 0.921158 0.451712 0.662606
O O8 0.000000 0.355685 0.750000
O O9 0.462882 0.243840 0.391811
O O10 0.398079 0.094903 0.416287
O O11 0.337509 0.253502 0.395657
O O12 0.951769 0.205879 0.500000
O O13 0.944645 0.131393 0.354248
O O14 0.093416 0.455750 0.000000
O O15 0.750000 0.750000 0.713035
O O16 0.859151 0.849032 0.734016
O O17 0.088203 0.000000 0.750000
#
# Coordination Sequence:
#
# PCOD9495677 Si02
#       7
#    16  16  16  16  16  16  16
#     4   9  20  38  63  93 125 167 218 265 314 393
#     4  10  23  41  64  92 121 171 218 257 317 393
#     4  11  22  39  65  92 123 174 225 267 314 396
#     4  11  23  41  64  99 135 166 209 273 333 390
#     4  12  24  39  59  95 137 169 208 274 342 394
#     4  10  18  36  64  95 118 159 227 271 308 370
#     4   9  21  39  66  99 128 174 220 270 321 398
#
# _framework density 21.656089000000001
#
# number of rings (size 3 to 8) (size 9 to 14) (size 15 to 20)
#    0.000    2.000    2.857    2.143    2.000    4.571 
#    0.000   11.429    0.000    7.286    0.000    0.000 
#    0.000    0.000    0.000    0.000    0.000    0.000 
#
# Total GULP energy -312351.889957 kJ/mol
# GULP energy per Si atom -5577.712321 kJ/mol
# Density = 2.160680 g / cm^3
# Si number density = 21.656089 Si / 1000 Ang^3
#
#
#
# Elastic Constant Matrix: (Units=GPa)
#
#
# Indices 1 2 3 4 5 6 
#
# 1 38.9539 13.2158 22.0409 0.0000 0.0000 0.0000
# 2 13.2158 113.5780 41.1031 0.0000 0.0000 0.0000
# 3 22.0409 41.1031 118.8203 0.0000 0.0000 0.0000
# 4 0.0000 0.0000 0.0000 18.3547 0.0000 0.0000
# 5 0.0000 0.0000 0.0000 0.0000 -14.5358 0.0000
# 6 0.0000 0.0000 0.0000 0.0000 0.0000 34.6625
#
#
#
# Elastic Compliance Matrix: (Units=1/GPa)
#
#
# Indices 1 2 3 4 5 6 
#
# 1 0.028943 -0.001629 -0.004805 0.000000 0.000000 0.000000
# 2 -0.001629 0.010156 -0.003211 0.000000 0.000000 0.000000
# 3 -0.004805 -0.003211 0.010418 0.000000 0.000000 0.000000
# 4 0.000000 0.000000 0.000000 0.054482 0.000000 0.000000
# 5 0.000000 0.000000 0.000000 0.000000 -0.068796 0.000000
# 6 0.000000 0.000000 0.000000 0.000000 0.000000 0.028850
#
#
# Mechanical properties :
#
#
# Convention : Reuss Voigt Hill
#
# Bulk Modulus (GPa) = 33.08323 47.11908 40.10116
# Shear Modulus (GPa) = 53.52200 20.69577 37.10888
#
# Velocity S-wave (km/s) = 4.97676 3.09472 4.14400
# Velocity P-wave (km/s) = 6.95227 5.88004 6.43851
#
# Compressibility (1/GPa) = 0.03022679
#
# Stress axis : x y z
#
# Youngs Moduli (GPa) = 34.55068 98.46264 95.98496
#
# Poissons Ratio (x) = 0.16037 0.46125
# Poissons Ratio (y) = 0.05627 0.30822
# Poissons Ratio (z) = 0.16603 0.31618
#
# Static dielectric constant tensor:
#      x y z
#    x 1.882140 0.000000 0.000000 
#    y 0.000000 1.828370 0.000000 
#    z 0.000000 0.000000 1.836700 
# 
# From -- ./inp_files/32446.got.cif
#   From: 2010.05.17/outbox.cif.g08.bks.cpg/sg66_17_cif.got.tgz:32446.got - 2010.06.03 17:51:23.
