data_PCOD9495763
_publ_section_title
;
Structure prediction by ZEFSAII (Michael W. Deem and Ramdas Pophale) SiO2 
 PCOD9495763
Probable space group: C C C M
;
_chemical_formula_sum "Si O2"
_cell_formula_units_Z 80
_cell_length_a 20.936640
_cell_length_b 20.435143
_cell_length_c 11.468115
_cell_angle_alpha 90.000000
_cell_angle_beta 90.000000
_cell_angle_gamma 90.000000
_cell_volume 4906.555390
_symmetry_space_group_name_H-M "C C C M"
_symmetry_group_IT_number 66
_symmetry_cell_setting 'orthorhombic'
loop_
_space_group_symop_operation_xyz
x,y,z
-x,-y,z
x,-y,1/2-z
-x,y,1/2-z
-x,-y,-z
x,y,-z
-x,y,1/2+z
x,-y,1/2+z
1/2+x,1/2+y,z
1/2-x,1/2-y,z
1/2+x,1/2-y,1/2-z
1/2-x,1/2+y,1/2-z
1/2-x,1/2-y,-z
1/2+x,1/2+y,-z
1/2-x,1/2+y,1/2+z
1/2+x,1/2-y,1/2+z
loop_
_atom_site_type_symbol
_atom_site_label
_atom_site_fract_x
_atom_site_fract_y
_atom_site_fract_z
Si Si1 0.855452 0.770205 0.500000
Si Si2 0.813391 0.427251 0.216979
Si Si3 0.230474 0.644955 0.000000
Si Si4 0.067273 0.743719 0.788542
Si Si5 0.311319 0.204710 0.860737
Si Si6 0.956314 0.595198 0.637519
O O1 0.830430 0.694495 0.500000
O O2 0.792108 0.811288 0.500000
O O3 0.896881 0.783445 0.612795
O O4 0.794185 0.500000 0.250000
O O5 0.771997 0.399181 0.112629
O O6 0.808477 0.370235 0.314464
O O7 0.885752 0.430936 0.166408
O O8 0.121319 0.730829 0.690899
O O9 0.048550 0.673796 0.847351
O O10 0.000000 0.772827 0.750000
O O11 0.250000 0.250000 0.821898
O O12 0.312399 0.205819 0.000000
O O13 0.974063 0.580612 0.500000
O O14 0.000000 0.574723 0.750000
#
# Coordination Sequence:
#
# PCOD9495763 Si02
#       6
#     8  16   8  16  16  16
#     4  11  18  34  60  77 102 144 175 223 265 322
#     4  11  22  35  53  75 103 138 183 230 262 312
#     4  11  20  36  56  76 105 137 188 215 269 326
#     4  10  19  29  51  78 107 135 177 219 265 313
#     4  10  21  36  53  75 107 143 173 213 275 325
#     4  10  19  34  49  71 105 148 193 225 263 307
#
# _framework density 16.304718000000001
#
# number of rings (size 3 to 8) (size 9 to 14) (size 15 to 20)
#    0.000    1.600    6.000    1.200    2.800    5.200 
#    0.000    1.000    0.000    0.000    0.000    0.000 
#    0.000   19.200    0.000    0.000    0.000    0.000 
#
# Total GULP energy -222820.110602 kJ/mol
# GULP energy per Si atom -5570.502765 kJ/mol
# Density = 1.626761 g / cm^3
# Si number density = 16.304718 Si / 1000 Ang^3
#
#
#
# Elastic Constant Matrix: (Units=GPa)
#
#
# Indices 1 2 3 4 5 6 
#
# 1 102.2500 35.9177 54.6162 0.0000 0.0000 0.0000
# 2 35.9177 61.7336 39.1093 0.0000 0.0000 0.0000
# 3 54.6162 39.1093 125.2880 0.0000 0.0000 0.0000
# 4 0.0000 0.0000 0.0000 -8.9867 0.0000 0.0000
# 5 0.0000 0.0000 0.0000 0.0000 28.2207 0.0000
# 6 0.0000 0.0000 0.0000 0.0000 0.0000 14.1067
#
#
#
# Elastic Compliance Matrix: (Units=1/GPa)
#
#
# Indices 1 2 3 4 5 6 
#
# 1 0.014035 -0.005347 -0.004449 0.000000 0.000000 0.000000
# 2 -0.005347 0.022229 -0.004608 0.000000 0.000000 0.000000
# 3 -0.004449 -0.004608 0.011359 0.000000 0.000000 0.000000
# 4 0.000000 0.000000 0.000000 -0.111276 0.000000 0.000000
# 5 0.000000 0.000000 0.000000 0.000000 0.035435 0.000000
# 6 0.000000 0.000000 0.000000 0.000000 0.000000 0.070888
#
#
# Mechanical properties :
#
#
# Convention : Reuss Voigt Hill
#
# Bulk Modulus (GPa) = 53.14916 60.95092 57.05004
# Shear Modulus (GPa) = 64.30899 17.31003 40.80951
#
# Velocity S-wave (km/s) = 6.28710 3.26184 5.00835
# Velocity P-wave (km/s) = 9.23968 7.18677 8.27712
#
# Compressibility (1/GPa) = 0.01881497
#
# Stress axis : x y z
#
# Youngs Moduli (GPa) = 71.25245 44.98654 88.03286
#
# Poissons Ratio (x) = 0.24055 0.39165
# Poissons Ratio (y) = 0.38100 0.40565
# Poissons Ratio (z) = 0.31700 0.20729
#
# Static dielectric constant tensor:
#      x y z
#    x 1.574070 0.000000 0.000000 
#    y 0.000000 1.546110 0.000000 
#    z 0.000000 0.000000 1.583330 
# 
# From -- ./inp_files/17790.got.cif
#   From: 2010.05.17/outbox.cif.g08.bks.cpg/sg66_9_cif.got.tgz:17790.got - 2010.06.03 17:51:23.
