data_PCOD9495603
_publ_section_title
;
Structure prediction by ZEFSAII (Michael W. Deem and Ramdas Pophale) SiO2 
 PCOD9495603
Probable space group: C C C M
;
_chemical_formula_sum "Si O2"
_cell_formula_units_Z 80
_cell_length_a 12.682150
_cell_length_b 15.502765
_cell_length_c 22.516128
_cell_angle_alpha 90.000000
_cell_angle_beta 90.000000
_cell_angle_gamma 90.000000
_cell_volume 4426.859701
_symmetry_space_group_name_H-M "C C C M"
_symmetry_group_IT_number 66
_symmetry_cell_setting 'orthorhombic'
loop_
_space_group_symop_operation_xyz
x,y,z
-x,-y,z
x,-y,1/2-z
-x,y,1/2-z
-x,-y,-z
x,y,-z
-x,y,1/2+z
x,-y,1/2+z
1/2+x,1/2+y,z
1/2-x,1/2-y,z
1/2+x,1/2-y,1/2-z
1/2-x,1/2+y,1/2-z
1/2-x,1/2-y,-z
1/2+x,1/2+y,-z
1/2-x,1/2+y,1/2+z
1/2+x,1/2-y,1/2+z
loop_
_atom_site_type_symbol
_atom_site_label
_atom_site_fract_x
_atom_site_fract_y
_atom_site_fract_z
Si Si1 0.113906 0.043146 0.500000
Si Si2 0.167126 0.980669 0.627953
Si Si3 0.618139 0.020320 0.180028
Si Si4 0.368375 0.788882 0.869280
Si Si5 0.482839 0.626696 0.820058
Si Si6 0.123970 0.248502 0.500000
O O1 0.097993 0.146393 0.500000
O O2 0.169328 0.009989 0.559573
O O3 0.000000 0.000000 0.500000
O O4 0.086904 0.902860 0.643386
O O5 0.285097 0.968634 0.650872
O O6 0.109793 0.060618 0.661284
O O7 0.635641 0.120039 0.163281
O O8 0.500000 0.000000 0.158797
O O9 0.622095 0.000000 0.250000
O O10 0.250000 0.750000 0.869680
O O11 0.444436 0.721636 0.836495
O O12 0.406889 0.792622 0.937969
O O13 0.500000 0.618026 0.750000
O O14 0.250000 0.250000 0.500000
#
# Coordination Sequence:
#
# PCOD9495603 Si02
#       6
#     8  16  16  16  16   8
#     4  12  18  34  62  97 128 155 198 259 315 362
#     4  11  20  38  58  94 127 158 198 258 310 362
#     4  11  25  43  59  85 127 165 207 254 311 375
#     4  11  21  39  62  92 118 161 205 254 303 363
#     4  11  21  33  61  92 125 155 204 251 311 363
#     4  10  18  34  58  89 118 151 204 253 288 354
#
# _framework density 18.071501999999999
#
# number of rings (size 3 to 8) (size 9 to 14) (size 15 to 20)
#    0.000    1.000    6.000    3.600    2.800    0.000 
#    0.000    3.000    0.000    0.000    0.000    4.200 
#    0.000    0.000    0.000    0.000    0.000    0.000 
#
# Total GULP energy -223230.103128 kJ/mol
# GULP energy per Si atom -5580.752578 kJ/mol
# Density = 1.803037 g / cm^3
# Si number density = 18.071502 Si / 1000 Ang^3
#
#
#
# Elastic Constant Matrix: (Units=GPa)
#
#
# Indices 1 2 3 4 5 6 
#
# 1 115.5650 19.5318 28.3223 0.0000 0.0000 0.0000
# 2 19.5318 85.7508 29.4419 0.0000 0.0000 0.0000
# 3 28.3223 29.4419 151.1279 0.0000 0.0000 0.0000
# 4 0.0000 0.0000 0.0000 20.6399 0.0000 0.0000
# 5 0.0000 0.0000 0.0000 0.0000 1177.3965 0.0000
# 6 0.0000 0.0000 0.0000 0.0000 0.0000 26.5448
#
#
#
# Elastic Compliance Matrix: (Units=1/GPa)
#
#
# Indices 1 2 3 4 5 6 
#
# 1 0.009276 -0.001625 -0.001422 0.000000 0.000000 0.000000
# 2 -0.001625 0.012782 -0.002186 0.000000 0.000000 0.000000
# 3 -0.001422 -0.002186 0.007309 0.000000 0.000000 0.000000
# 4 0.000000 0.000000 0.000000 0.048450 0.000000 0.000000
# 5 0.000000 0.000000 0.000000 0.000000 0.000849 0.000000
# 6 0.000000 0.000000 0.000000 0.000000 0.000000 0.037672
#
#
# Mechanical properties :
#
#
# Convention : Reuss Voigt Hill
#
# Bulk Modulus (GPa) = 52.90149 56.33729 54.61939
# Shear Modulus (GPa) = 37.56449 263.25941 150.41195
#
# Velocity S-wave (km/s) = 4.56418 12.08275 9.13303
# Velocity P-wave (km/s) = 7.55729 15.02995 11.89563
#
# Compressibility (1/GPa) = 0.01890306
#
# Stress axis : x y z
#
# Youngs Moduli (GPa) = 107.80266 78.23378 136.81403
#
# Poissons Ratio (x) = 0.12710 0.19454
# Poissons Ratio (y) = 0.17514 0.29903
# Poissons Ratio (z) = 0.15329 0.17099
#
# Static dielectric constant tensor:
#      x y z
#    x 1.622050 0.000000 0.000000 
#    y 0.000000 1.614450 0.000000 
#    z 0.000000 0.000000 1.612610 
# 
# From -- ./inp_files/56642.got.cif
#   From: 2010.05.17/outbox.cif.g08.bks.cpg/sg66_29_cif.got.tgz:56642.got - 2010.06.03 17:51:23.
