data_PCOD9495952
_publ_section_title
;
Structure prediction by ZEFSAII (Michael W. Deem and Ramdas Pophale) SiO2 
 PCOD9495952
Probable space group: C C C M
;
_chemical_formula_sum "Si O2"
_cell_formula_units_Z 80
_cell_length_a 19.087054
_cell_length_b 13.961597
_cell_length_c 16.105123
_cell_angle_alpha 90.000000
_cell_angle_beta 90.000000
_cell_angle_gamma 90.000000
_cell_volume 4291.785876
_symmetry_space_group_name_H-M "C C C M"
_symmetry_group_IT_number 66
_symmetry_cell_setting 'orthorhombic'
loop_
_space_group_symop_operation_xyz
x,y,z
-x,-y,z
x,-y,1/2-z
-x,y,1/2-z
-x,-y,-z
x,y,-z
-x,y,1/2+z
x,-y,1/2+z
1/2+x,1/2+y,z
1/2-x,1/2-y,z
1/2+x,1/2-y,1/2-z
1/2-x,1/2+y,1/2-z
1/2-x,1/2-y,-z
1/2+x,1/2+y,-z
1/2-x,1/2+y,1/2+z
1/2+x,1/2-y,1/2+z
loop_
_atom_site_type_symbol
_atom_site_label
_atom_site_fract_x
_atom_site_fract_y
_atom_site_fract_z
Si Si1 0.472923 0.858268 0.156833
Si Si2 0.536020 0.352095 0.100377
Si Si3 0.607018 0.545856 0.101258
Si Si4 0.893522 0.462854 0.403421
Si Si5 0.748116 0.139416 0.398478
O O1 0.500000 0.859895 0.250000
O O2 0.448030 0.752792 0.133445
O O3 0.540744 0.890300 0.103208
O O4 0.415828 0.940929 0.143528
O O5 0.587341 0.438032 0.127414
O O6 0.457621 0.385485 0.125794
O O7 0.537270 0.348893 0.000000
O O8 0.681750 0.584915 0.128974
O O9 0.607236 0.545729 0.000000
O O10 0.883883 0.487871 0.500000
O O11 0.823114 0.412762 0.372013
O O12 0.747686 0.139521 0.500000
O O13 0.750000 0.250000 0.372138
#
# Coordination Sequence:
#
# PCOD9495952 Si02
#       5
#    16  16  16  16  16
#     4  11  21  33  49  70  99 132 163 202 248 293
#     4   9  16  30  53  75  98 128 164 203 242 289
#     4   8  15  28  49  78 102 123 160 209 249 280
#     4  10  19  32  52  74  95 123 165 208 245 292
#     4   9  16  27  48  78 105 126 157 205 252 291
#
# _framework density 18.640260000000001
#
# number of rings (size 3 to 8) (size 9 to 14) (size 15 to 20)
#    0.000    2.600    0.000    6.000    0.000    3.200 
#    0.000    3.000    0.000   16.800    0.000    0.000 
#    0.000    0.000    0.000    0.000    0.000    0.200 
#
# Total GULP energy -223168.094961 kJ/mol
# GULP energy per Si atom -5579.202374 kJ/mol
# Density = 1.859783 g / cm^3
# Si number density = 18.640260 Si / 1000 Ang^3
#
#
#
# Elastic Constant Matrix: (Units=GPa)
#
#
# Indices 1 2 3 4 5 6 
#
# 1 142.9870 90.3408 6.4733 0.0000 0.0000 0.0000
# 2 90.3408 174.0499 20.7491 0.0000 0.0000 0.0000
# 3 6.4733 20.7491 28.3911 0.0000 0.0000 0.0000
# 4 0.0000 0.0000 0.0000 2.9203 0.0000 0.0000
# 5 0.0000 0.0000 0.0000 0.0000 4.7974 0.0000
# 6 0.0000 0.0000 0.0000 0.0000 0.0000 19.9402
#
#
#
# Elastic Compliance Matrix: (Units=1/GPa)
#
#
# Indices 1 2 3 4 5 6 
#
# 1 0.010484 -0.005649 0.001738 0.000000 0.000000 0.000000
# 2 -0.005649 0.009338 -0.005536 0.000000 0.000000 0.000000
# 3 0.001738 -0.005536 0.038872 0.000000 0.000000 0.000000
# 4 0.000000 0.000000 0.000000 0.342429 0.000000 0.000000
# 5 0.000000 0.000000 0.000000 0.000000 0.208447 0.000000
# 6 0.000000 0.000000 0.000000 0.000000 0.000000 0.050150
#
#
# Mechanical properties :
#
#
# Convention : Reuss Voigt Hill
#
# Bulk Modulus (GPa) = 25.12599 64.50604 44.81602
# Shear Modulus (GPa) = 7.22669 20.72256 13.97463
#
# Velocity S-wave (km/s) = 1.97113 3.33785 2.74104
# Velocity P-wave (km/s) = 4.32309 7.03817 5.84059
#
# Compressibility (1/GPa) = 0.03979942
#
# Stress axis : x y z
#
# Youngs Moduli (GPa) = 95.38329 107.09447 25.72539
#
# Poissons Ratio (x) = 0.60497 -0.04471
# Poissons Ratio (y) = 0.53881 0.14242
# Poissons Ratio (z) = -0.16578 0.59290
#
# Static dielectric constant tensor:
#      x y z
#    x 1.635390 0.000000 0.000000 
#    y 0.000000 1.632200 0.000000 
#    z 0.000000 0.000000 1.668090 
# 
# From -- ./inp_files/41444.got.cif
#   From: 2010.05.17/outbox.cif.g08.bks.cpg/sg66_21_cif.got.tgz:41444.got - 2010.06.03 17:51:23.
