data_PCOD9495937
_publ_section_title
;
Structure prediction by ZEFSAII (Michael W. Deem and Ramdas Pophale) SiO2 
 PCOD9495937
Probable space group: C C C M
;
_chemical_formula_sum "Si O2"
_cell_formula_units_Z 88
_cell_length_a 16.869379
_cell_length_b 28.792626
_cell_length_c 9.471590
_cell_angle_alpha 90.000000
_cell_angle_beta 90.000000
_cell_angle_gamma 90.000000
_cell_volume 4600.481217
_symmetry_space_group_name_H-M "C C C M"
_symmetry_group_IT_number 66
_symmetry_cell_setting 'orthorhombic'
loop_
_space_group_symop_operation_xyz
x,y,z
-x,-y,z
x,-y,1/2-z
-x,y,1/2-z
-x,-y,-z
x,y,-z
-x,y,1/2+z
x,-y,1/2+z
1/2+x,1/2+y,z
1/2-x,1/2-y,z
1/2+x,1/2-y,1/2-z
1/2-x,1/2+y,1/2-z
1/2-x,1/2-y,-z
1/2+x,1/2+y,-z
1/2-x,1/2+y,1/2+z
1/2+x,1/2-y,1/2+z
loop_
_atom_site_type_symbol
_atom_site_label
_atom_site_fract_x
_atom_site_fract_y
_atom_site_fract_z
Si Si1 0.581943 0.772879 0.670044
Si Si2 0.000000 0.122814 0.750000
Si Si3 0.251622 0.593670 0.828690
Si Si4 0.151479 0.180954 0.663335
Si Si5 0.419966 0.119157 0.332550
Si Si6 0.614228 0.456809 0.660681
O O1 0.500000 0.763776 0.750000
O O2 0.572157 0.767757 0.500000
O O3 0.642338 0.732994 0.720573
O O4 0.601288 0.826634 0.696341
O O5 0.065414 0.155490 0.675422
O O6 0.053880 0.086851 0.838547
O O7 0.284783 0.644356 0.781090
O O8 0.158670 0.590261 0.797993
O O9 0.306905 0.558706 0.744028
O O10 0.263074 0.589829 0.000000
O O11 0.172837 0.186554 0.500000
O O12 0.500000 0.107516 0.250000
O O13 0.434500 0.115471 0.500000
O O14 0.582835 0.500000 0.750000
O O15 0.629855 0.470399 0.500000
#
# Coordination Sequence:
#
# PCOD9495937 Si02
#       6
#    16   8  16  16  16  16
#     4   9  16  27  44  69 100 137 178 218 255 295
#     4  10  19  32  50  76 108 146 180 210 247 296
#     4   9  19  35  52  74 103 135 173 217 267 316
#     4   9  16  27  45  69 101 139 177 215 248 290
#     4   9  18  32  52  75 101 135 174 218 266 317
#     4  11  23  37  56  80 107 139 175 216 263 314
#
# _framework density 19.128433999999999
#
# number of rings (size 3 to 8) (size 9 to 14) (size 15 to 20)
#    0.000    2.545    0.909    1.364    0.000    4.364 
#    0.000    3.636    0.000    0.545    0.000   11.455 
#    0.000    0.000    0.000    0.000    0.000    0.000 
#
# Total GULP energy -245057.355270 kJ/mol
# GULP energy per Si atom -5569.485347 kJ/mol
# Density = 1.908490 g / cm^3
# Si number density = 19.128434 Si / 1000 Ang^3
#
#
#
# Elastic Constant Matrix: (Units=GPa)
#
#
# Indices 1 2 3 4 5 6 
#
# 1 123.6822 23.3247 39.1421 0.0000 0.0000 0.0000
# 2 23.3247 26.1381 19.8714 0.0000 0.0000 0.0000
# 3 39.1421 19.8714 59.0955 0.0000 0.0000 0.0000
# 4 0.0000 0.0000 0.0000 19.1234 0.0000 0.0000
# 5 0.0000 0.0000 0.0000 0.0000 14.5948 0.0000
# 6 0.0000 0.0000 0.0000 0.0000 0.0000 11.5823
#
#
#
# Elastic Compliance Matrix: (Units=1/GPa)
#
#
# Indices 1 2 3 4 5 6 
#
# 1 0.010817 -0.005650 -0.005265 0.000000 0.000000 0.000000
# 2 -0.005650 0.054349 -0.014533 0.000000 0.000000 0.000000
# 3 -0.005265 -0.014533 0.025296 0.000000 0.000000 0.000000
# 4 0.000000 0.000000 0.000000 0.052292 0.000000 0.000000
# 5 0.000000 0.000000 0.000000 0.000000 0.068518 0.000000
# 6 0.000000 0.000000 0.000000 0.000000 0.000000 0.086338
#
#
# Mechanical properties :
#
#
# Convention : Reuss Voigt Hill
#
# Bulk Modulus (GPa) = 25.27424 41.51023 33.39224
# Shear Modulus (GPa) = 13.82385 17.49861 15.66123
#
# Velocity S-wave (km/s) = 2.69120 3.02784 2.86447
# Velocity P-wave (km/s) = 4.78522 5.82852 5.33245
#
# Compressibility (1/GPa) = 0.03956598
#
# Stress axis : x y z
#
# Youngs Moduli (GPa) = 92.44788 18.39962 39.53241
#
# Poissons Ratio (x) = 0.10396 0.20813
# Poissons Ratio (y) = 0.52234 0.57452
# Poissons Ratio (z) = 0.48671 0.26740
#
# Static dielectric constant tensor:
#      x y z
#    x 1.669090 0.000000 0.000000 
#    y 0.000000 1.726480 0.000000 
#    z 0.000000 0.000000 1.677600 
# 
# From -- ./inp_files/7036.got.cif
#   From: 2010.05.17/outbox.cif.g08.bks.cpg/sg66_4_cif.got.tgz:7036.got - 2010.06.03 17:51:23.
