data_PCOD9495138
_publ_section_title
;
Structure prediction by ZEFSAII (Michael W. Deem and Ramdas Pophale) SiO2 
 PCOD9495138
Probable space group: C C C M
;
_chemical_formula_sum "Si O2"
_cell_formula_units_Z 112
_cell_length_a 16.028281
_cell_length_b 15.700855
_cell_length_c 23.102702
_cell_angle_alpha 90.000000
_cell_angle_beta 90.000000
_cell_angle_gamma 90.000000
_cell_volume 5813.973216
_symmetry_space_group_name_H-M "C C C M"
_symmetry_group_IT_number 66
_symmetry_cell_setting 'orthorhombic'
loop_
_space_group_symop_operation_xyz
x,y,z
-x,-y,z
x,-y,1/2-z
-x,y,1/2-z
-x,-y,-z
x,y,-z
-x,y,1/2+z
x,-y,1/2+z
1/2+x,1/2+y,z
1/2-x,1/2-y,z
1/2+x,1/2-y,1/2-z
1/2-x,1/2+y,1/2-z
1/2-x,1/2-y,-z
1/2+x,1/2+y,-z
1/2-x,1/2+y,1/2+z
1/2+x,1/2-y,1/2+z
loop_
_atom_site_type_symbol
_atom_site_label
_atom_site_fract_x
_atom_site_fract_y
_atom_site_fract_z
Si Si1 0.435519 0.749558 0.303331
Si Si2 0.905529 0.025496 0.066575
Si Si3 0.434786 0.705785 0.110888
Si Si4 0.254589 0.471690 0.649863
Si Si5 0.915534 0.453692 0.687568
Si Si6 0.684976 0.326154 0.220270
Si Si7 0.813451 0.670329 0.564262
O O1 0.500000 0.738152 0.250000
O O2 0.473303 0.715480 0.363291
O O3 0.424954 0.851784 0.306990
O O4 0.357299 0.694232 0.281608
O O5 0.912821 0.128164 0.069196
O O6 0.836051 0.997384 0.113718
O O7 0.887539 0.999087 0.000000
O O8 0.000000 0.000000 0.082667
O O9 0.379942 0.687278 0.168028
O O10 0.402323 0.792216 0.082643
O O11 0.174598 0.531146 0.658409
O O12 0.279765 0.420269 0.708485
O O13 0.218524 0.396532 0.609716
O O14 0.909152 0.500000 0.750000
O O15 0.000000 0.500000 0.661841
O O16 0.750000 0.250000 0.212200
O O17 0.814319 0.634013 0.500000
O O18 0.750000 0.750000 0.564950
#
# Coordination Sequence:
#
# PCOD9495138 Si02
#       7
#    16  16  16  16  16  16  16
#     4  10  20  34  54  77 110 154 187 222 274 338
#     4  10  21  39  61  81 109 149 192 237 295 347
#     4  10  18  33  56  81 110 137 182 234 284 335
#     4  11  20  35  57  86 117 142 188 245 285 328
#     4  11  21  34  56  82 117 159 192 219 274 356
#     4  10  17  31  53  78 109 141 179 226 279 325
#     4  11  18  28  55  86 105 129 174 235 295 331
#
# _framework density 19.263935
#
# number of rings (size 3 to 8) (size 9 to 14) (size 15 to 20)
#    0.000    1.571    5.714    2.571    0.000    0.000 
#    5.143    0.000    0.000    9.429    0.000    2.000 
#    0.000    0.000    0.000    0.000    0.000    0.000 
#
# Total GULP energy -312031.506065 kJ/mol
# GULP energy per Si atom -5571.991180 kJ/mol
# Density = 1.922009 g / cm^3
# Si number density = 19.263935 Si / 1000 Ang^3
#
#
#
# Elastic Constant Matrix: (Units=GPa)
#
#
# Indices 1 2 3 4 5 6 
#
# 1 105.7129 14.7432 32.8082 0.0000 0.0000 0.0000
# 2 14.7432 14.4731 6.8856 0.0000 0.0000 0.0000
# 3 32.8082 6.8856 43.4971 0.0000 0.0000 0.0000
# 4 0.0000 0.0000 0.0000 16.2567 0.0000 0.0000
# 5 0.0000 0.0000 0.0000 0.0000 26.8265 0.0000
# 6 0.0000 0.0000 0.0000 0.0000 0.0000 18.3320
#
#
#
# Elastic Compliance Matrix: (Units=1/GPa)
#
#
# Indices 1 2 3 4 5 6 
#
# 1 0.013486 -0.009623 -0.008648 0.000000 0.000000 0.000000
# 2 -0.009623 0.081587 -0.005657 0.000000 0.000000 0.000000
# 3 -0.008648 -0.005657 0.030409 0.000000 0.000000 0.000000
# 4 0.000000 0.000000 0.000000 0.061513 0.000000 0.000000
# 5 0.000000 0.000000 0.000000 0.000000 0.037277 0.000000
# 6 0.000000 0.000000 0.000000 0.000000 0.000000 0.054549
#
#
# Mechanical properties :
#
#
# Convention : Reuss Voigt Hill
#
# Bulk Modulus (GPa) = 12.88244 30.28410 21.58327
# Shear Modulus (GPa) = 14.18229 19.56613 16.87421
#
# Velocity S-wave (km/s) = 2.71626 3.19044 2.96285
# Velocity P-wave (km/s) = 4.06685 5.41541 4.78884
#
# Compressibility (1/GPa) = 0.07762506
#
# Stress axis : x y z
#
# Youngs Moduli (GPa) = 74.15277 12.25680 32.88532
#
# Poissons Ratio (x) = 0.11795 0.28441
# Poissons Ratio (y) = 0.71356 0.18604
# Poissons Ratio (z) = 0.64130 0.06934
#
# Static dielectric constant tensor:
#      x y z
#    x 1.766760 0.000000 0.000000 
#    y 0.000000 1.709060 0.000000 
#    z 0.000000 0.000000 1.687390 
# 
# From -- ./inp_files/64639.got.cif
#   From: 2010.05.17/outbox.cif.g08.bks.cpg/sg66_33_cif.got.tgz:64639.got - 2010.06.03 17:51:23.
