data_PCOD9495161
_publ_section_title
;
Structure prediction by ZEFSAII (Michael W. Deem and Ramdas Pophale) SiO2 
 PCOD9495161
Probable space group: C C C M
;
_chemical_formula_sum "Si O2"
_cell_formula_units_Z 96
_cell_length_a 27.318480
_cell_length_b 21.053914
_cell_length_c 8.557308
_cell_angle_alpha 90.000000
_cell_angle_beta 90.000000
_cell_angle_gamma 90.000000
_cell_volume 4921.829215
_symmetry_space_group_name_H-M "C C C M"
_symmetry_group_IT_number 66
_symmetry_cell_setting 'orthorhombic'
loop_
_space_group_symop_operation_xyz
x,y,z
-x,-y,z
x,-y,1/2-z
-x,y,1/2-z
-x,-y,-z
x,y,-z
-x,y,1/2+z
x,-y,1/2+z
1/2+x,1/2+y,z
1/2-x,1/2-y,z
1/2+x,1/2-y,1/2-z
1/2-x,1/2+y,1/2-z
1/2-x,1/2-y,-z
1/2+x,1/2+y,-z
1/2-x,1/2+y,1/2+z
1/2+x,1/2-y,1/2+z
loop_
_atom_site_type_symbol
_atom_site_label
_atom_site_fract_x
_atom_site_fract_y
_atom_site_fract_z
Si Si1 0.329332 0.931114 0.688427
Si Si2 0.201153 0.789422 0.669524
Si Si3 0.112169 0.308223 0.818435
Si Si4 0.720076 0.588749 0.323175
Si Si5 0.615046 0.565341 0.185220
Si Si6 0.554107 0.309726 0.310018
O O1 0.328697 0.929412 0.500000
O O2 0.365619 0.874407 0.745324
O O3 0.273077 0.921703 0.745339
O O4 0.345245 0.000000 0.750000
O O5 0.194456 0.823782 0.500000
O O6 0.250000 0.750000 0.657786
O O7 0.157641 0.740308 0.683619
O O8 0.209024 0.836507 0.810986
O O9 0.070622 0.260872 0.751999
O O10 0.099120 0.321528 0.000000
O O11 0.721871 0.564962 0.500000
O O12 0.671808 0.564430 0.236313
O O13 0.592101 0.500000 0.250000
O O14 0.589830 0.631757 0.238176
O O15 0.611353 0.563337 0.000000
O O16 0.500000 0.323495 0.250000
O O17 0.555562 0.307767 0.500000
#
# Coordination Sequence:
#
# PCOD9495161 Si02
#       6
#    16  16  16  16  16  16
#     4  11  22  38  58  83 117 157 195 233 280 340
#     4  10  17  32  56  80 108 150 193 229 277 334
#     4   9  18  36  61  82 108 150 192 229 283 346
#     4  12  23  34  52  84 121 156 195 236 275 323
#     4  11  23  40  60  82 115 156 197 235 280 336
#     4  10  22  41  64  87 110 142 186 238 292 347
#
# _framework density 19.504943999999998
#
# number of rings (size 3 to 8) (size 9 to 14) (size 15 to 20)
#    0.000    1.500    3.333    3.000    0.000    2.000 
#    0.000    3.333    0.000    0.500    0.000    3.500 
#    0.000    0.000    0.000    0.000    0.000    0.000 
#
# Total GULP energy -267455.741892 kJ/mol
# GULP energy per Si atom -5571.994623 kJ/mol
# Density = 1.946055 g / cm^3
# Si number density = 19.504944 Si / 1000 Ang^3
#
#
#
# Elastic Constant Matrix: (Units=GPa)
#
#
# Indices 1 2 3 4 5 6 
#
# 1 68.5721 50.1823 13.1869 0.0000 0.0000 0.0000
# 2 50.1823 149.9092 27.6582 0.0000 0.0000 0.0000
# 3 13.1869 27.6582 44.7242 0.0000 0.0000 0.0000
# 4 0.0000 0.0000 0.0000 22.4299 0.0000 0.0000
# 5 0.0000 0.0000 0.0000 0.0000 17.4268 0.0000
# 6 0.0000 0.0000 0.0000 0.0000 0.0000 5.8565
#
#
#
# Elastic Compliance Matrix: (Units=1/GPa)
#
#
# Indices 1 2 3 4 5 6 
#
# 1 0.019461 -0.006159 -0.001930 0.000000 0.000000 0.000000
# 2 -0.006159 0.009479 -0.004046 0.000000 0.000000 0.000000
# 3 -0.001930 -0.004046 0.025430 0.000000 0.000000 0.000000
# 4 0.000000 0.000000 0.000000 0.044583 0.000000 0.000000
# 5 0.000000 0.000000 0.000000 0.000000 0.057383 0.000000
# 6 0.000000 0.000000 0.000000 0.000000 0.000000 0.170750
#
#
# Mechanical properties :
#
#
# Convention : Reuss Voigt Hill
#
# Bulk Modulus (GPa) = 33.22036 49.47337 41.34686
# Shear Modulus (GPa) = 13.83550 20.62118 17.22834
#
# Velocity S-wave (km/s) = 2.66622 3.25503 2.97523
# Velocity P-wave (km/s) = 5.15238 6.28861 5.74864
#
# Compressibility (1/GPa) = 0.03010202
#
# Stress axis : x y z
#
# Youngs Moduli (GPa) = 51.38403 105.49831 39.32323
#
# Poissons Ratio (x) = 0.64973 0.07587
# Poissons Ratio (y) = 0.31646 0.15910
# Poissons Ratio (z) = 0.09915 0.42684
#
# Static dielectric constant tensor:
#      x y z
#    x 1.707380 0.000000 0.000000 
#    y 0.000000 1.767170 0.000000 
#    z 0.000000 0.000000 1.725720 
# 
# From -- ./inp_files/10266.got.cif
#   From: 2010.05.17/outbox.cif.g08.bks.cpg/sg66_6_cif.got.tgz:10266.got - 2010.06.03 17:51:23.
