data_PCOD9495194
_publ_section_title
;
Structure prediction by ZEFSAII (Michael W. Deem and Ramdas Pophale) SiO2 
 PCOD9495194
Probable space group: C C C M
;
_chemical_formula_sum "Si O2"
_cell_formula_units_Z 80
_cell_length_a 12.822618
_cell_length_b 21.542918
_cell_length_c 13.379093
_cell_angle_alpha 90.000000
_cell_angle_beta 90.000000
_cell_angle_gamma 90.000000
_cell_volume 3695.795270
_symmetry_space_group_name_H-M "C C C M"
_symmetry_group_IT_number 66
_symmetry_cell_setting 'orthorhombic'
loop_
_space_group_symop_operation_xyz
x,y,z
-x,-y,z
x,-y,1/2-z
-x,y,1/2-z
-x,-y,-z
x,y,-z
-x,y,1/2+z
x,-y,1/2+z
1/2+x,1/2+y,z
1/2-x,1/2-y,z
1/2+x,1/2-y,1/2-z
1/2-x,1/2+y,1/2-z
1/2-x,1/2-y,-z
1/2+x,1/2+y,-z
1/2-x,1/2+y,1/2+z
1/2+x,1/2-y,1/2+z
loop_
_atom_site_type_symbol
_atom_site_label
_atom_site_fract_x
_atom_site_fract_y
_atom_site_fract_z
Si Si1 0.728126 0.088736 0.163210
Si Si2 0.151895 0.207945 0.673633
Si Si3 0.996696 0.385010 0.367571
Si Si4 0.075940 0.753395 0.608505
Si Si5 0.296512 0.948195 0.391465
O O1 0.817924 0.138176 0.145229
O O2 0.619784 0.111916 0.112277
O O3 0.725145 0.085453 0.285573
O O4 0.739598 0.018761 0.124973
O O5 0.250000 0.250000 0.643047
O O6 0.043659 0.225575 0.622936
O O7 0.134847 0.221706 0.793027
O O8 0.936710 0.321430 0.392911
O O9 0.000000 0.386673 0.250000
O O10 0.922217 0.441237 0.397993
O O11 0.117617 0.773349 0.500000
O O12 0.255986 0.925684 0.500000
#
# Coordination Sequence:
#
# PCOD9495194 Si02
#       5
#    16  16  16  16  16
#     4  10  21  36  58  82 121 165 198 243 310 375
#     4  11  21  41  60  84 128 170 207 255 313 378
#     4  10  17  35  55  83 125 158 192 243 307 372
#     4  11  23  37  60  93 123 163 213 260 310 371
#     4  10  21  35  55  87 118 155 205 252 301 365
#
# _framework density 21.646221000000001
#
# number of rings (size 3 to 8) (size 9 to 14) (size 15 to 20)
#    0.000    1.600    4.000    2.400    0.000    7.200 
#    0.000    0.000    0.000    9.600    0.000   11.200 
#    0.000    0.000    0.000    0.000    0.000    0.000 
#
# Total GULP energy -222907.406443 kJ/mol
# GULP energy per Si atom -5572.685161 kJ/mol
# Density = 2.159695 g / cm^3
# Si number density = 21.646221 Si / 1000 Ang^3
#
#
#
# Elastic Constant Matrix: (Units=GPa)
#
#
# Indices 1 2 3 4 5 6 
#
# 1 54.5631 31.2734 -16.2937 0.0000 0.0000 0.0000
# 2 31.2734 96.7307 -3.9953 0.0000 0.0000 0.0000
# 3 -16.2937 -3.9953 129.0919 0.0000 0.0000 0.0000
# 4 0.0000 0.0000 0.0000 -4.2854 0.0000 0.0000
# 5 0.0000 0.0000 0.0000 0.0000 -16.5816 0.0000
# 6 0.0000 0.0000 0.0000 0.0000 0.0000 43.1677
#
#
#
# Elastic Compliance Matrix: (Units=1/GPa)
#
#
# Indices 1 2 3 4 5 6 
#
# 1 0.023416 -0.007458 0.002725 0.000000 0.000000 0.000000
# 2 -0.007458 0.012727 -0.000547 0.000000 0.000000 0.000000
# 3 0.002725 -0.000547 0.008073 0.000000 0.000000 0.000000
# 4 0.000000 0.000000 0.000000 -0.233348 0.000000 0.000000
# 5 0.000000 0.000000 0.000000 0.000000 -0.060308 0.000000
# 6 0.000000 0.000000 0.000000 0.000000 0.000000 0.023165
#
#
# Mechanical properties :
#
#
# Convention : Reuss Voigt Hill
#
# Bulk Modulus (GPa) = 29.71390 33.59494 31.65442
# Shear Modulus (GPa) = -24.45042 22.42021 -1.01510
#
# Velocity S-wave (km/s) = -3.36452 3.22181 -0.68554
# Velocity P-wave (km/s) = 1.15605 5.42160 3.74548
#
# Compressibility (1/GPa) = 0.03365428
#
# Stress axis : x y z
#
# Youngs Moduli (GPa) = 42.70660 78.57612 123.86385
#
# Poissons Ratio (x) = 0.58601 -0.33749
# Poissons Ratio (y) = 0.31850 0.06781
# Poissons Ratio (z) = -0.11636 0.04302
#
# Static dielectric constant tensor:
#      x y z
#    x 1.768950 0.000000 0.000000 
#    y 0.000000 1.769650 0.000000 
#    z 0.000000 0.000000 1.866450 
# 
# From -- ./inp_files/28119.got.cif
#   From: 2010.05.17/outbox.cif.g08.bks.cpg/sg66_15_cif.got.tgz:28119.got - 2010.06.03 17:51:23.
