data_PCOD9495162
_publ_section_title
;
Structure prediction by ZEFSAII (Michael W. Deem and Ramdas Pophale) SiO2 
 PCOD9495162
Probable space group: C C C M
;
_chemical_formula_sum "Si O2"
_cell_formula_units_Z 96
_cell_length_a 27.772944
_cell_length_b 20.949490
_cell_length_c 8.352567
_cell_angle_alpha 90.000000
_cell_angle_beta 90.000000
_cell_angle_gamma 90.000000
_cell_volume 4859.765810
_symmetry_space_group_name_H-M "C C C M"
_symmetry_group_IT_number 66
_symmetry_cell_setting 'orthorhombic'
loop_
_space_group_symop_operation_xyz
x,y,z
-x,-y,z
x,-y,1/2-z
-x,y,1/2-z
-x,-y,-z
x,y,-z
-x,y,1/2+z
x,-y,1/2+z
1/2+x,1/2+y,z
1/2-x,1/2-y,z
1/2+x,1/2-y,1/2-z
1/2-x,1/2+y,1/2-z
1/2-x,1/2-y,-z
1/2+x,1/2+y,-z
1/2-x,1/2+y,1/2+z
1/2+x,1/2-y,1/2+z
loop_
_atom_site_type_symbol
_atom_site_label
_atom_site_fract_x
_atom_site_fract_y
_atom_site_fract_z
Si Si1 0.554099 0.693777 0.309104
Si Si2 0.216362 0.084522 0.680683
Si Si3 0.614129 0.808508 0.182581
Si Si4 0.387615 0.566457 0.195304
Si Si5 0.173112 0.429757 0.691835
Si Si6 0.698320 0.732697 0.681970
O O1 0.500000 0.684516 0.250000
O O2 0.556284 0.691937 0.500000
O O3 0.572552 0.764535 0.259669
O O4 0.586413 0.632632 0.253760
O O5 0.219561 0.056319 0.500000
O O6 0.167136 0.062694 0.764353
O O7 0.270646 0.079495 0.749196
O O8 0.202010 0.158023 0.663955
O O9 0.636370 0.874183 0.253257
O O10 0.658364 0.759669 0.204375
O O11 0.601436 0.820628 0.000000
O O12 0.411939 0.500000 0.250000
O O13 0.385147 0.567708 0.000000
O O14 0.158126 0.500000 0.750000
O O15 0.174573 0.427447 0.500000
O O16 0.691729 0.760177 0.500000
O O17 0.750000 0.750000 0.746066
#
# Coordination Sequence:
#
# PCOD9495162 Si02
#       6
#    16  16  16  16  16  16
#     4  11  24  44  67  89 115 150 196 252 311 367
#     4   9  17  32  55  82 117 162 204 239 286 345
#     4  12  24  38  59  89 120 155 201 251 302 362
#     4  10  21  37  58  84 119 161 202 244 294 349
#     4  11  22  38  59  87 124 166 205 246 296 355
#     4  10  17  32  56  81 113 158 203 243 295 351
#
# _framework density 19.754038000000001
#
# number of rings (size 3 to 8) (size 9 to 14) (size 15 to 20)
#    0.000    1.500    3.333    3.000    0.000    2.000 
#    0.000    2.500    0.000    0.500    0.000    3.500 
#    0.000    0.000    0.000    0.000    0.000    0.000 
#
# Total GULP energy -267237.333989 kJ/mol
# GULP energy per Si atom -5567.444458 kJ/mol
# Density = 1.970908 g / cm^3
# Si number density = 19.754038 Si / 1000 Ang^3
#
#
#
# Elastic Constant Matrix: (Units=GPa)
#
#
# Indices 1 2 3 4 5 6 
#
# 1 90.1136 53.1940 17.0744 0.0000 0.0000 0.0000
# 2 53.1940 155.3314 25.7290 0.0000 0.0000 0.0000
# 3 17.0744 25.7290 42.2154 0.0000 0.0000 0.0000
# 4 0.0000 0.0000 0.0000 33.3841 0.0000 0.0000
# 5 0.0000 0.0000 0.0000 0.0000 28.5384 0.0000
# 6 0.0000 0.0000 0.0000 0.0000 0.0000 8.2438
#
#
#
# Elastic Compliance Matrix: (Units=1/GPa)
#
#
# Indices 1 2 3 4 5 6 
#
# 1 0.014266 -0.004371 -0.003106 0.000000 0.000000 0.000000
# 2 -0.004371 0.008500 -0.003413 0.000000 0.000000 0.000000
# 3 -0.003106 -0.003413 0.027024 0.000000 0.000000 0.000000
# 4 0.000000 0.000000 0.000000 0.029954 0.000000 0.000000
# 5 0.000000 0.000000 0.000000 0.000000 0.035040 0.000000
# 6 0.000000 0.000000 0.000000 0.000000 0.000000 0.121304
#
#
# Mechanical properties :
#
#
# Convention : Reuss Voigt Hill
#
# Bulk Modulus (GPa) = 35.70041 53.29502 44.49771
# Shear Modulus (GPa) = 18.71227 26.81079 22.76153
#
# Velocity S-wave (km/s) = 3.08110 3.68806 3.39816
# Velocity P-wave (km/s) = 5.54701 6.72113 6.16210
#
# Compressibility (1/GPa) = 0.02801088
#
# Stress axis : x y z
#
# Youngs Moduli (GPa) = 70.09791 117.64786 37.00389
#
# Poissons Ratio (x) = 0.51423 0.11493
# Poissons Ratio (y) = 0.30639 0.12628
# Poissons Ratio (z) = 0.21772 0.40149
#
# Static dielectric constant tensor:
#      x y z
#    x 1.719370 0.000000 0.000000 
#    y 0.000000 1.723940 0.000000 
#    z 0.000000 0.000000 1.746930 
# 
# From -- ./inp_files/10275.got.cif
#   From: 2010.05.17/outbox.cif.g08.bks.cpg/sg66_6_cif.got.tgz:10275.got - 2010.06.03 17:51:23.
