data_PCOD9495172
_publ_section_title
;
Structure prediction by ZEFSAII (Michael W. Deem and Ramdas Pophale) SiO2 
 PCOD9495172
Probable space group: C C C M
;
_chemical_formula_sum "Si O2"
_cell_formula_units_Z 80
_cell_length_a 28.440424
_cell_length_b 7.423422
_cell_length_c 16.214769
_cell_angle_alpha 90.000000
_cell_angle_beta 90.000000
_cell_angle_gamma 90.000000
_cell_volume 3423.347470
_symmetry_space_group_name_H-M "C C C M"
_symmetry_group_IT_number 66
_symmetry_cell_setting 'orthorhombic'
loop_
_space_group_symop_operation_xyz
x,y,z
-x,-y,z
x,-y,1/2-z
-x,y,1/2-z
-x,-y,-z
x,y,-z
-x,y,1/2+z
x,-y,1/2+z
1/2+x,1/2+y,z
1/2-x,1/2-y,z
1/2+x,1/2-y,1/2-z
1/2-x,1/2+y,1/2-z
1/2-x,1/2-y,-z
1/2+x,1/2+y,-z
1/2-x,1/2+y,1/2+z
1/2+x,1/2-y,1/2+z
loop_
_atom_site_type_symbol
_atom_site_label
_atom_site_fract_x
_atom_site_fract_y
_atom_site_fract_z
Si Si1 0.884703 0.261535 0.343673
Si Si2 0.946519 0.270162 0.500000
Si Si3 0.286733 0.855433 0.812953
Si Si4 0.945323 0.711526 0.500000
Si Si5 0.385894 0.800973 0.843553
Si Si6 0.787730 0.909498 0.091769
O O1 0.919684 0.206356 0.417394
O O2 0.899619 0.234564 0.248109
O O3 0.884873 0.480508 0.351218
O O4 0.833886 0.167171 0.359826
O O5 0.945774 0.490981 0.500000
O O6 0.001303 0.222596 0.500000
O O7 0.250000 0.750000 0.755411
O O8 0.330732 0.755069 0.851833
O O9 0.307623 0.000000 0.750000
O O10 0.248109 0.939340 0.873324
O O11 0.917797 0.767169 0.582565
O O12 0.750000 0.750000 0.082389
O O13 0.804663 0.959662 0.000000
#
# Coordination Sequence:
#
# PCOD9495172 Si02
#       6
#    16   8  16   8  16  16
#     4  10  17  33  55  80 111 156 194 245 297 360
#     4   9  18  32  52  80 112 146 203 253 300 362
#     4  12  23  37  56  84 122 159 201 242 291 363
#     4   9  20  32  48  81 116 153 189 255 308 361
#     4  10  19  32  53  78 117 159 191 240 308 350
#     4  11  21  34  58  85 112 157 202 236 295 362
#
# _framework density 23.368939000000001
#
# number of rings (size 3 to 8) (size 9 to 14) (size 15 to 20)
#    0.000    1.600    5.000    1.800    1.400    1.200 
#    0.000    4.000    0.000    0.000    0.000    2.800 
#    0.000    4.800    0.000    0.000    0.000    0.000 
#
# Total GULP energy -223044.991287 kJ/mol
# GULP energy per Si atom -5576.124782 kJ/mol
# Density = 2.331575 g / cm^3
# Si number density = 23.368939 Si / 1000 Ang^3
#
#
#
# Elastic Constant Matrix: (Units=GPa)
#
#
# Indices 1 2 3 4 5 6 
#
# 1 213.0844 20.0645 126.2977 0.0000 0.0000 0.0000
# 2 20.0645 60.3955 22.1559 0.0000 0.0000 0.0000
# 3 126.2977 22.1559 221.8447 0.0000 0.0000 0.0000
# 4 0.0000 0.0000 0.0000 -3.5408 0.0000 0.0000
# 5 0.0000 0.0000 0.0000 0.0000 34.2537 0.0000
# 6 0.0000 0.0000 0.0000 0.0000 0.0000 17.5124
#
#
#
# Elastic Compliance Matrix: (Units=1/GPa)
#
#
# Indices 1 2 3 4 5 6 
#
# 1 0.007131 -0.000913 -0.003969 0.000000 0.000000 0.000000
# 2 -0.000913 0.017304 -0.001208 0.000000 0.000000 0.000000
# 3 -0.003969 -0.001208 0.006888 0.000000 0.000000 0.000000
# 4 0.000000 0.000000 0.000000 -0.282421 0.000000 0.000000
# 5 0.000000 0.000000 0.000000 0.000000 0.029194 0.000000
# 6 0.000000 0.000000 0.000000 0.000000 0.000000 0.057102
#
#
# Mechanical properties :
#
#
# Convention : Reuss Voigt Hill
#
# Bulk Modulus (GPa) = 52.23899 92.48451 72.36175
# Shear Modulus (GPa) = -34.19021 31.43215 -1.37903
#
# Velocity S-wave (km/s) = -3.82915 3.67146 -0.76902
# Velocity P-wave (km/s) = 1.68900 7.59174 5.49942
#
# Compressibility (1/GPa) = 0.01914279
#
# Stress axis : x y z
#
# Youngs Moduli (GPa) = 140.22806 57.78949 145.18612
#
# Poissons Ratio (x) = 0.05278 0.57619
# Poissons Ratio (y) = 0.12806 0.17542
# Poissons Ratio (z) = 0.55652 0.06983
#
# Static dielectric constant tensor:
#      x y z
#    x 1.830850 0.000000 0.000000 
#    y 0.000000 3.053410 0.000000 
#    z 0.000000 0.000000 1.901970 
# 
# From -- ./inp_files/44148.got.cif
#   From: 2010.05.17/outbox.cif.g08.bks.cpg/sg66_23_cif.got.tgz:44148.got - 2010.06.03 17:51:23.
