data_PCOD9495557
_publ_section_title
;
Structure prediction by ZEFSAII (Michael W. Deem and Ramdas Pophale) SiO2 
 PCOD9495557
Probable space group: C C C M
;
_chemical_formula_sum "Si O2"
_cell_formula_units_Z 96
_cell_length_a 19.336855
_cell_length_b 17.661405
_cell_length_c 16.941523
_cell_angle_alpha 90.000000
_cell_angle_beta 90.000000
_cell_angle_gamma 90.000000
_cell_volume 5785.801636
_symmetry_space_group_name_H-M "C C C M"
_symmetry_group_IT_number 66
_symmetry_cell_setting 'orthorhombic'
loop_
_space_group_symop_operation_xyz
x,y,z
-x,-y,z
x,-y,1/2-z
-x,y,1/2-z
-x,-y,-z
x,y,-z
-x,y,1/2+z
x,-y,1/2+z
1/2+x,1/2+y,z
1/2-x,1/2-y,z
1/2+x,1/2-y,1/2-z
1/2-x,1/2+y,1/2-z
1/2-x,1/2-y,-z
1/2+x,1/2+y,-z
1/2-x,1/2+y,1/2+z
1/2+x,1/2-y,1/2+z
loop_
_atom_site_type_symbol
_atom_site_label
_atom_site_fract_x
_atom_site_fract_y
_atom_site_fract_z
Si Si1 0.194427 0.029742 0.586864
Si Si2 0.074561 0.208862 0.213191
Si Si3 0.709294 0.932598 0.800148
Si Si4 0.794635 0.823493 0.319423
Si Si5 0.175038 0.706371 0.404904
Si Si6 0.074457 0.964649 0.668845
O O1 0.223086 0.020725 0.500000
O O2 0.190929 0.117383 0.610932
O O3 0.238641 0.982868 0.649062
O O4 0.120229 0.990998 0.596466
O O5 0.133674 0.203863 0.280615
O O6 0.112166 0.252660 0.141280
O O7 0.066477 0.123680 0.181715
O O8 0.000000 0.233718 0.250000
O O9 0.750465 0.874073 0.743252
O O10 0.675209 0.876306 0.863745
O O11 0.671050 0.000000 0.750000
O O12 0.750000 0.750000 0.340880
O O13 0.166867 0.704027 0.500000
O O14 0.250000 0.750000 0.390149
O O15 0.105879 0.000000 0.750000
O O16 0.000000 0.000000 0.661115
#
# Coordination Sequence:
#
# PCOD9495557 Si02
#       6
#    16  16  16  16  16  16
#     4  11  21  31  49  79 109 137 176 230 280 326
#     4  12  20  33  55  82 111 154 190 220 273 339
#     4  10  18  33  58  81 105 137 185 231 285 338
#     4  11  19  35  54  75 107 144 190 225 268 337
#     4  11  21  36  58  89 119 143 184 246 294 322
#     4  11  18  33  51  70 105 150 182 216 254 317
#
# _framework density 16.592343
#
# number of rings (size 3 to 8) (size 9 to 14) (size 15 to 20)
#    0.000    1.000    8.333    1.000    0.000    2.667 
#    0.000    2.500    0.000    0.500    0.000    1.167 
#    0.000    0.000    0.000    0.000    0.000    0.000 
#
# Total GULP energy -267233.894054 kJ/mol
# GULP energy per Si atom -5567.372793 kJ/mol
# Density = 1.655458 g / cm^3
# Si number density = 16.592343 Si / 1000 Ang^3
#
#
#
# Elastic Constant Matrix: (Units=GPa)
#
#
# Indices 1 2 3 4 5 6 
#
# 1 69.2083 40.7529 14.6275 0.0000 0.0000 0.0000
# 2 40.7529 91.8110 31.1045 0.0000 0.0000 0.0000
# 3 14.6275 31.1045 58.9909 0.0000 0.0000 0.0000
# 4 0.0000 0.0000 0.0000 -11.4521 0.0000 0.0000
# 5 0.0000 0.0000 0.0000 0.0000 16.1101 0.0000
# 6 0.0000 0.0000 0.0000 0.0000 0.0000 27.6206
#
#
#
# Elastic Compliance Matrix: (Units=1/GPa)
#
#
# Indices 1 2 3 4 5 6 
#
# 1 0.019568 -0.008573 -0.000332 0.000000 0.000000 0.000000
# 2 -0.008573 0.017017 -0.006847 0.000000 0.000000 0.000000
# 3 -0.000332 -0.006847 0.020644 0.000000 0.000000 0.000000
# 4 0.000000 0.000000 0.000000 -0.087320 0.000000 0.000000
# 5 0.000000 0.000000 0.000000 0.000000 0.062073 0.000000
# 6 0.000000 0.000000 0.000000 0.000000 0.000000 0.036205
#
#
# Mechanical properties :
#
#
# Convention : Reuss Voigt Hill
#
# Bulk Modulus (GPa) = 38.87202 43.66444 41.26823
# Shear Modulus (GPa) = 46.18313 15.35741 30.77027
#
# Velocity S-wave (km/s) = 5.28152 3.04562 4.31105
# Velocity P-wave (km/s) = 7.78917 6.22422 7.05025
#
# Compressibility (1/GPa) = 0.02572545
#
# Stress axis : x y z
#
# Youngs Moduli (GPa) = 51.10505 58.76459 48.43989
#
# Poissons Ratio (x) = 0.50381 0.01606
# Poissons Ratio (y) = 0.43814 0.33166
# Poissons Ratio (z) = 0.01694 0.40235
#
# Static dielectric constant tensor:
#      x y z
#    x 1.574850 0.000000 0.000000 
#    y 0.000000 1.602130 0.000000 
#    z 0.000000 0.000000 1.614900 
# 
# From -- ./inp_files/41708.got.cif
#   From: 2010.05.17/outbox.cif.g08.bks.cpg/sg66_21_cif.got.tgz:41708.got - 2010.06.03 17:51:23.
