data_PCOD9495431
_publ_section_title
;
Structure prediction by ZEFSAII (Michael W. Deem and Ramdas Pophale) SiO2 
 PCOD9495431
Probable space group: C C C M
;
_chemical_formula_sum "Si O2"
_cell_formula_units_Z 96
_cell_length_a 13.040331
_cell_length_b 17.048105
_cell_length_c 19.466346
_cell_angle_alpha 90.000000
_cell_angle_beta 90.000000
_cell_angle_gamma 90.000000
_cell_volume 4327.620457
_symmetry_space_group_name_H-M "C C C M"
_symmetry_group_IT_number 66
_symmetry_cell_setting 'orthorhombic'
loop_
_space_group_symop_operation_xyz
x,y,z
-x,-y,z
x,-y,1/2-z
-x,y,1/2-z
-x,-y,-z
x,y,-z
-x,y,1/2+z
x,-y,1/2+z
1/2+x,1/2+y,z
1/2-x,1/2-y,z
1/2+x,1/2-y,1/2-z
1/2-x,1/2+y,1/2-z
1/2-x,1/2-y,-z
1/2+x,1/2+y,-z
1/2-x,1/2+y,1/2+z
1/2+x,1/2-y,1/2+z
loop_
_atom_site_type_symbol
_atom_site_label
_atom_site_fract_x
_atom_site_fract_y
_atom_site_fract_z
Si Si1 0.785332 0.461157 0.578039
Si Si2 0.917660 0.880960 0.922327
Si Si3 0.311651 0.066501 0.304252
Si Si4 0.421018 0.382524 0.303981
Si Si5 0.135123 0.723067 0.727000
Si Si6 0.910376 0.298628 0.576998
O O1 0.774030 0.488196 0.500000
O O2 0.672408 0.436606 0.605319
O O3 0.839100 0.528166 0.622729
O O4 0.844164 0.378076 0.576605
O O5 0.873138 0.792165 0.926482
O O6 0.017803 0.880143 0.875365
O O7 0.942485 0.904905 0.000000
O O8 0.189111 0.078382 0.307270
O O9 0.355393 0.147423 0.275511
O O10 0.338447 0.000000 0.250000
O O11 0.500000 0.418532 0.250000
O O12 0.398813 0.296636 0.272335
O O13 0.250000 0.750000 0.702774
O O14 0.065861 0.703903 0.659873
O O15 0.965989 0.303784 0.500000
#
# Coordination Sequence:
#
# PCOD9495431 Si02
#       6
#    16  16  16  16  16  16
#     4  10  20  34  55  82 110 141 178 221 268 320
#     4  10  20  34  55  82 110 141 178 221 268 320
#     4  11  22  35  53  78 109 142 177 219 269 322
#     4  11  22  35  53  78 109 142 177 219 269 322
#     4  10  20  35  53  76 104 141 184 220 256 314
#     4  10  18  31  54  81 107 139 182 224 261 308
#
# _framework density 22.183091999999998
#
# number of rings (size 3 to 8) (size 9 to 14) (size 15 to 20)
#    0.000    1.667    3.333    2.500    0.000    6.667 
#    0.000    2.500    0.000    6.500    0.000    3.500 
#    0.000    0.000    0.000    0.000    0.000    0.000 
#
# Total GULP energy -267236.474819 kJ/mol
# GULP energy per Si atom -5567.426559 kJ/mol
# Density = 2.213260 g / cm^3
# Si number density = 22.183092 Si / 1000 Ang^3
#
#
#
# Elastic Constant Matrix: (Units=GPa)
#
#
# Indices 1 2 3 4 5 6 
#
# 1 21.6702 2.6946 17.9089 0.0000 0.0000 0.0000
# 2 2.6946 106.0882 43.3733 0.0000 0.0000 0.0000
# 3 17.9089 43.3733 121.1769 0.0000 0.0000 0.0000
# 4 0.0000 0.0000 0.0000 65.5942 0.0000 0.0000
# 5 0.0000 0.0000 0.0000 0.0000 10.8626 0.0000
# 6 0.0000 0.0000 0.0000 0.0000 0.0000 13.0628
#
#
#
# Elastic Compliance Matrix: (Units=1/GPa)
#
#
# Indices 1 2 3 4 5 6 
#
# 1 0.052991 0.002174 -0.008610 0.000000 0.000000 0.000000
# 2 0.002174 0.011131 -0.004306 0.000000 0.000000 0.000000
# 3 -0.008610 -0.004306 0.011066 0.000000 0.000000 0.000000
# 4 0.000000 0.000000 0.000000 0.015245 0.000000 0.000000
# 5 0.000000 0.000000 0.000000 0.000000 0.092059 0.000000
# 6 0.000000 0.000000 0.000000 0.000000 0.000000 0.076553
#
#
# Mechanical properties :
#
#
# Convention : Reuss Voigt Hill
#
# Bulk Modulus (GPa) = 18.61990 41.87655 30.24822
# Shear Modulus (GPa) = 16.75432 30.23449 23.49440
#
# Velocity S-wave (km/s) = 2.75121 3.69582 3.25793
# Velocity P-wave (km/s) = 4.30164 6.09351 5.27423
#
# Compressibility (1/GPa) = 0.05370599
#
# Stress axis : x y z
#
# Youngs Moduli (GPa) = 18.87096 89.83775 90.36722
#
# Poissons Ratio (x) = -0.19532 0.77805
# Poissons Ratio (y) = -0.04103 0.38908
# Poissons Ratio (z) = 0.16248 0.38680
#
# Static dielectric constant tensor:
#      x y z
#    x 1.886580 0.000000 0.000000 
#    y 0.000000 1.796290 0.000000 
#    z 0.000000 0.000000 1.888170 
# 
# From -- ./inp_files/41748.got.cif
#   From: 2010.05.17/outbox.cif.g08.bks.cpg/sg66_21_cif.got.tgz:41748.got - 2010.06.03 17:51:23.
