data_PCOD9495456
_publ_section_title
;
Structure prediction by ZEFSAII (Michael W. Deem and Ramdas Pophale) SiO2 
 PCOD9495456
Probable space group: C C C M
;
_chemical_formula_sum "Si O2"
_cell_formula_units_Z 68
_cell_length_a 20.907816
_cell_length_b 9.332046
_cell_length_c 20.761066
_cell_angle_alpha 90.000000
_cell_angle_beta 90.000000
_cell_angle_gamma 90.000000
_cell_volume 4050.747656
_symmetry_space_group_name_H-M "C C C M"
_symmetry_group_IT_number 66
_symmetry_cell_setting 'orthorhombic'
loop_
_space_group_symop_operation_xyz
x,y,z
-x,-y,z
x,-y,1/2-z
-x,y,1/2-z
-x,-y,-z
x,y,-z
-x,y,1/2+z
x,-y,1/2+z
1/2+x,1/2+y,z
1/2-x,1/2-y,z
1/2+x,1/2-y,1/2-z
1/2-x,1/2+y,1/2-z
1/2-x,1/2-y,-z
1/2+x,1/2+y,-z
1/2-x,1/2+y,1/2+z
1/2+x,1/2-y,1/2+z
loop_
_atom_site_type_symbol
_atom_site_label
_atom_site_fract_x
_atom_site_fract_y
_atom_site_fract_z
Si Si1 0.500000 0.000000 0.250000
Si Si2 0.932552 0.353643 0.633992
Si Si3 0.181150 0.175380 0.923436
Si Si4 0.189072 0.157894 0.578302
Si Si5 0.434435 0.169688 0.576716
O O1 0.454384 0.901975 0.294695
O O2 0.872114 0.254744 0.619446
O O3 0.922390 0.505717 0.597741
O O4 0.996901 0.285841 0.604087
O O5 0.250000 0.250000 0.917201
O O6 0.189304 0.009112 0.905026
O O7 0.162796 0.183974 0.000000
O O8 0.190208 0.163544 0.500000
O O9 0.250000 0.250000 0.600878
O O10 0.123738 0.232819 0.599958
O O11 0.437034 0.175063 0.500000
#
# Coordination Sequence:
#
# PCOD9495456 Si02
#       5
#     4  16  16  16  16
#     4   8  20  36  54  70  92 132 180 218 252 292
#     4  10  18  32  52  71  97 131 170 213 249 297
#     4  10  19  30  50  81 110 134 163 205 259 314
#     4   9  17  28  43  70 109 141 162 193 247 314
#     4   9  16  27  47  73  99 129 160 199 255 308
#
# _framework density 16.787025
#
# number of rings (size 3 to 8) (size 9 to 14) (size 15 to 20)
#    0.000    2.824    0.000    4.235    0.000    4.706 
#    0.000    3.529    0.000   22.588    0.000    0.000 
#    0.000    0.000    0.000    0.000    0.000    0.000 
#
# Total GULP energy -189404.390491 kJ/mol
# GULP energy per Si atom -5570.717367 kJ/mol
# Density = 1.674882 g / cm^3
# Si number density = 16.787025 Si / 1000 Ang^3
#
#
#
# Elastic Constant Matrix: (Units=GPa)
#
#
# Indices 1 2 3 4 5 6 
#
# 1 145.8301 93.6515 44.1093 0.0000 0.0000 0.0000
# 2 93.6515 99.8865 30.6428 0.0000 0.0000 0.0000
# 3 44.1093 30.6428 65.8197 0.0000 0.0000 0.0000
# 4 0.0000 0.0000 0.0000 -103.2870 0.0000 0.0000
# 5 0.0000 0.0000 0.0000 0.0000 -64.7853 0.0000
# 6 0.0000 0.0000 0.0000 0.0000 0.0000 40.0599
#
#
#
# Elastic Compliance Matrix: (Units=1/GPa)
#
#
# Indices 1 2 3 4 5 6 
#
# 1 0.018576 -0.015863 -0.005064 0.000000 0.000000 0.000000
# 2 -0.015863 0.025226 -0.001113 0.000000 0.000000 0.000000
# 3 -0.005064 -0.001113 0.019105 0.000000 0.000000 0.000000
# 4 0.000000 0.000000 0.000000 -0.009682 0.000000 0.000000
# 5 0.000000 0.000000 0.000000 0.000000 -0.015436 0.000000
# 6 0.000000 0.000000 0.000000 0.000000 0.000000 0.024963
#
#
# Mechanical properties :
#
#
# Convention : Reuss Voigt Hill
#
# Bulk Modulus (GPa) = 53.11666 72.03816 62.57741
# Shear Modulus (GPa) = 44.20546 -16.06031 14.07257
#
# Velocity S-wave (km/s) = 5.13715 -3.09643 2.89848
# Velocity P-wave (km/s) = 8.17907 5.49748 6.96848
#
# Compressibility (1/GPa) = 0.01882649
#
# Stress axis : x y z
#
# Youngs Moduli (GPa) = 53.83227 39.64169 52.34294
#
# Poissons Ratio (x) = 0.62885 0.26505
# Poissons Ratio (y) = 0.85396 0.05827
# Poissons Ratio (z) = 0.27259 0.04413
#
# Static dielectric constant tensor:
#      x y z
#    x 1.574590 0.000000 0.000000 
#    y 0.000000 1.562060 0.000000 
#    z 0.000000 0.000000 1.566490 
# 
# From -- ./inp_files/50604.got.cif
#   From: 2010.05.17/outbox.cif.g08.bks.cpg/sg66_26_cif.got.tgz:50604.got - 2010.06.03 17:51:23.
