data_PCOD9495254
_publ_section_title
;
Structure prediction by ZEFSAII (Michael W. Deem and Ramdas Pophale) SiO2 
 PCOD9495254
Probable space group: C C C M
;
_chemical_formula_sum "Si O2"
_cell_formula_units_Z 80
_cell_length_a 18.460547
_cell_length_b 28.397347
_cell_length_c 7.510149
_cell_angle_alpha 90.000000
_cell_angle_beta 90.000000
_cell_angle_gamma 90.000000
_cell_volume 3937.049608
_symmetry_space_group_name_H-M "C C C M"
_symmetry_group_IT_number 66
_symmetry_cell_setting 'orthorhombic'
loop_
_space_group_symop_operation_xyz
x,y,z
-x,-y,z
x,-y,1/2-z
-x,y,1/2-z
-x,-y,-z
x,y,-z
-x,y,1/2+z
x,-y,1/2+z
1/2+x,1/2+y,z
1/2-x,1/2-y,z
1/2+x,1/2-y,1/2-z
1/2-x,1/2+y,1/2-z
1/2-x,1/2-y,-z
1/2+x,1/2+y,-z
1/2-x,1/2+y,1/2+z
1/2+x,1/2-y,1/2+z
loop_
_atom_site_type_symbol
_atom_site_label
_atom_site_fract_x
_atom_site_fract_y
_atom_site_fract_z
Si Si1 0.874571 0.316479 0.716803
Si Si2 0.265697 0.948461 0.287247
Si Si3 0.285193 0.651896 0.282790
Si Si4 0.418649 0.714043 0.713208
Si Si5 0.579152 0.081708 0.287363
O O1 0.877751 0.316446 0.500000
O O2 0.789949 0.322178 0.765151
O O3 0.907033 0.267383 0.781294
O O4 0.914447 0.364082 0.777967
O O5 0.268443 0.944000 0.500000
O O6 0.223021 0.902304 0.222811
O O7 0.348915 0.944417 0.219192
O O8 0.235611 0.000000 0.250000
O O9 0.287336 0.651638 0.500000
O O10 0.355690 0.679593 0.219444
O O11 0.500000 0.698001 0.750000
O O12 0.410101 0.716270 0.500000
O O13 0.500000 0.061817 0.250000
O O14 0.585441 0.083095 0.500000
#
# Coordination Sequence:
#
# PCOD9495254 Si02
#       5
#    16  16  16  16  16
#     4   8  14  26  45  67  89 118 154 181 203 244
#     4   9  18  32  48  65  84 110 148 189 224 258
#     4   8  15  29  48  67  87 115 151 184 212 253
#     4  10  18  28  46  70  94 118 144 177 217 260
#     4   9  17  28  42  63  92 120 146 178 213 253
#
# _framework density 20.319785
#
# number of rings (size 3 to 8) (size 9 to 14) (size 15 to 20)
#    0.000    3.200    0.000    3.600    0.000    3.600 
#    0.000    3.000    0.000    5.400    0.000    4.200 
#    0.000    0.000    0.000    0.000    0.000    0.000 
#
# Total GULP energy -223114.044769 kJ/mol
# GULP energy per Si atom -5577.851119 kJ/mol
# Density = 2.027354 g / cm^3
# Si number density = 20.319785 Si / 1000 Ang^3
#
#
#
# Elastic Constant Matrix: (Units=GPa)
#
#
# Indices 1 2 3 4 5 6 
#
# 1 80.5580 29.3519 -6.9897 0.0000 0.0000 0.0000
# 2 29.3519 85.2144 -0.0109 0.0000 0.0000 0.0000
# 3 -6.9897 -0.0109 51.5646 0.0000 0.0000 0.0000
# 4 0.0000 0.0000 0.0000 8.3954 0.0000 0.0000
# 5 0.0000 0.0000 0.0000 0.0000 11.0247 0.0000
# 6 0.0000 0.0000 0.0000 0.0000 0.0000 3.1513
#
#
#
# Elastic Compliance Matrix: (Units=1/GPa)
#
#
# Indices 1 2 3 4 5 6 
#
# 1 0.014388 -0.004956 0.001949 0.000000 0.000000 0.000000
# 2 -0.004956 0.013442 -0.000669 0.000000 0.000000 0.000000
# 3 0.001949 -0.000669 0.019657 0.000000 0.000000 0.000000
# 4 0.000000 0.000000 0.000000 0.119113 0.000000 0.000000
# 5 0.000000 0.000000 0.000000 0.000000 0.090705 0.000000
# 6 0.000000 0.000000 0.000000 0.000000 0.000000 0.317334
#
#
# Mechanical properties :
#
#
# Convention : Reuss Voigt Hill
#
# Bulk Modulus (GPa) = 24.91479 29.11550 27.01515
# Shear Modulus (GPa) = 8.39816 17.51332 12.95574
#
# Velocity S-wave (km/s) = 2.03518 2.93897 2.52780
# Velocity P-wave (km/s) = 4.22026 5.08689 4.67371
#
# Compressibility (1/GPa) = 0.04013680
#
# Stress axis : x y z
#
# Youngs Moduli (GPa) = 69.50137 74.39359 50.87178
#
# Poissons Ratio (x) = 0.36867 -0.09917
# Poissons Ratio (y) = 0.34443 0.03403
# Poissons Ratio (z) = -0.13548 0.04976
#
# Static dielectric constant tensor:
#      x y z
#    x 1.701890 0.000000 0.000000 
#    y 0.000000 1.734400 0.000000 
#    z 0.000000 0.000000 1.796790 
# 
# From -- ./inp_files/6667.got.cif
#   From: 2010.05.17/outbox.cif.g08.bks.cpg/sg66_4_cif.got.tgz:6667.got - 2010.06.03 17:51:23.
