data_PCOD9495565
_publ_section_title
;
Structure prediction by ZEFSAII (Michael W. Deem and Ramdas Pophale) SiO2 
 PCOD9495565
Probable space group: C C C M
;
_chemical_formula_sum "Si O2"
_cell_formula_units_Z 72
_cell_length_a 8.678995
_cell_length_b 29.328721
_cell_length_c 15.861564
_cell_angle_alpha 90.000000
_cell_angle_beta 90.000000
_cell_angle_gamma 90.000000
_cell_volume 4037.463138
_symmetry_space_group_name_H-M "C C C M"
_symmetry_group_IT_number 66
_symmetry_cell_setting 'orthorhombic'
loop_
_space_group_symop_operation_xyz
x,y,z
-x,-y,z
x,-y,1/2-z
-x,y,1/2-z
-x,-y,-z
x,y,-z
-x,y,1/2+z
x,-y,1/2+z
1/2+x,1/2+y,z
1/2-x,1/2-y,z
1/2+x,1/2-y,1/2-z
1/2-x,1/2+y,1/2-z
1/2-x,1/2-y,-z
1/2+x,1/2+y,-z
1/2-x,1/2+y,1/2+z
1/2+x,1/2-y,1/2+z
loop_
_atom_site_type_symbol
_atom_site_label
_atom_site_fract_x
_atom_site_fract_y
_atom_site_fract_z
Si Si1 0.102516 0.718915 0.500000
Si Si2 0.577080 0.111210 0.841982
Si Si3 0.152437 0.386367 0.000000
Si Si4 0.158300 0.971846 0.500000
Si Si5 0.679922 0.014657 0.840512
Si Si6 0.396218 0.783555 0.165498
O O1 0.250000 0.750000 0.500000
O O2 0.170141 0.667762 0.500000
O O3 0.998931 0.726488 0.417005
O O4 0.500000 0.105628 0.750000
O O5 0.451649 0.105014 0.916508
O O6 0.691950 0.068996 0.851613
O O7 0.644434 0.162416 0.844004
O O8 0.306006 0.417310 0.000000
O O9 0.242558 0.989122 0.583372
O O10 0.000000 0.000000 0.500000
O O11 0.500000 0.000000 0.841351
O O12 0.743610 0.000000 0.750000
O O13 0.500000 0.779100 0.250000
O O14 0.250000 0.750000 0.169701
#
# Coordination Sequence:
#
# PCOD9495565 Si02
#       6
#     8  16   8   8  16  16
#     4  10  21  38  59  80 111 148 190 235 281 333
#     4  10  18  33  59  85 102 139 191 232 267 322
#     4  10  19  35  55  79 109 145 181 225 273 333
#     4  12  24  36  51  82 121 147 174 225 289 333
#     4  11  19  35  62  81 104 142 192 231 260 329
#     4  10  21  37  59  84 115 144 186 236 287 343
#
# _framework density 17.832979000000002
#
# number of rings (size 3 to 8) (size 9 to 14) (size 15 to 20)
#    0.000    1.556    4.444    2.000    0.000    0.444 
#    4.000    0.000    0.000    0.000    0.000    0.000 
#    0.000    0.000    0.000    0.000    0.000    0.000 
#
# Total GULP energy -200673.904346 kJ/mol
# GULP energy per Si atom -5574.275121 kJ/mol
# Density = 1.779239 g / cm^3
# Si number density = 17.832979 Si / 1000 Ang^3
#
#
#
# Elastic Constant Matrix: (Units=GPa)
#
#
# Indices 1 2 3 4 5 6 
#
# 1 65.7863 64.2096 40.4558 0.0000 0.0000 0.0000
# 2 64.2096 144.1760 36.0365 0.0000 0.0000 0.0000
# 3 40.4558 36.0365 147.8948 0.0000 0.0000 0.0000
# 4 0.0000 0.0000 0.0000 7.7136 0.0000 0.0000
# 5 0.0000 0.0000 0.0000 0.0000 20.3468 0.0000
# 6 0.0000 0.0000 0.0000 0.0000 0.0000 31.4120
#
#
#
# Elastic Compliance Matrix: (Units=1/GPa)
#
#
# Indices 1 2 3 4 5 6 
#
# 1 0.030394 -0.012201 -0.005341 0.000000 0.000000 0.000000
# 2 -0.012201 0.012284 0.000344 0.000000 0.000000 0.000000
# 3 -0.005341 0.000344 0.008139 0.000000 0.000000 0.000000
# 4 0.000000 0.000000 0.000000 0.129641 0.000000 0.000000
# 5 0.000000 0.000000 0.000000 0.000000 0.049148 0.000000
# 6 0.000000 0.000000 0.000000 0.000000 0.000000 0.031835
#
#
# Mechanical properties :
#
#
# Convention : Reuss Voigt Hill
#
# Bulk Modulus (GPa) = 60.89848 71.02897 65.96372
# Shear Modulus (GPa) = 16.59422 26.37150 21.48286
#
# Velocity S-wave (km/s) = 3.05378 3.84970 3.47460
# Velocity P-wave (km/s) = 6.83063 7.72508 7.29158
#
# Compressibility (1/GPa) = 0.01642077
#
# Stress axis : x y z
#
# Youngs Moduli (GPa) = 32.90116 81.40856 122.87020
#
# Poissons Ratio (x) = 0.99328 0.65627
# Poissons Ratio (y) = 0.40143 -0.04233
# Poissons Ratio (z) = 0.17573 -0.02804
#
# Static dielectric constant tensor:
#      x y z
#    x 1.586510 0.000000 0.000000 
#    y 0.000000 1.649280 0.000000 
#    z 0.000000 0.000000 1.615090 
# 
# From -- ./inp_files/24518.got.cif
#   From: 2010.05.17/outbox.cif.g08.bks.cpg/sg66_13_cif.got.tgz:24518.got - 2010.06.03 17:51:23.
