data_PCOD9495967
_publ_section_title
;
Structure prediction by ZEFSAII (Michael W. Deem and Ramdas Pophale) SiO2 
 PCOD9495967
Probable space group: C C C M
;
_chemical_formula_sum "Si O2"
_cell_formula_units_Z 96
_cell_length_a 9.441462
_cell_length_b 32.922709
_cell_length_c 14.694289
_cell_angle_alpha 90.000000
_cell_angle_beta 90.000000
_cell_angle_gamma 90.000000
_cell_volume 4567.550839
_symmetry_space_group_name_H-M "C C C M"
_symmetry_group_IT_number 66
_symmetry_cell_setting 'orthorhombic'
loop_
_space_group_symop_operation_xyz
x,y,z
-x,-y,z
x,-y,1/2-z
-x,y,1/2-z
-x,-y,-z
x,y,-z
-x,y,1/2+z
x,-y,1/2+z
1/2+x,1/2+y,z
1/2-x,1/2-y,z
1/2+x,1/2-y,1/2-z
1/2-x,1/2+y,1/2-z
1/2-x,1/2-y,-z
1/2+x,1/2+y,-z
1/2-x,1/2+y,1/2+z
1/2+x,1/2-y,1/2+z
loop_
_atom_site_type_symbol
_atom_site_label
_atom_site_fract_x
_atom_site_fract_y
_atom_site_fract_z
Si Si1 0.660795 0.115447 0.609768
Si Si2 0.343010 0.873903 0.108210
Si Si3 0.679311 0.291240 0.143500
Si Si4 0.821926 0.962461 0.889218
Si Si5 0.399894 0.323826 0.822715
Si Si6 0.856159 0.946621 0.388739
O O1 0.659162 0.115528 0.500000
O O2 0.503247 0.124888 0.643194
O O3 0.708948 0.070724 0.640079
O O4 0.779516 0.148146 0.637481
O O5 0.274738 0.830052 0.122443
O O6 0.239423 0.909329 0.144028
O O7 0.351603 0.880724 0.000000
O O8 0.750000 0.250000 0.110295
O O9 0.517882 0.302469 0.113871
O O10 0.665131 0.290740 0.253727
O O11 0.978563 0.947003 0.862191
O O12 0.799689 0.008956 0.860670
O O13 0.821831 0.963276 0.000000
O O14 0.500000 0.348226 0.750000
O O15 0.856134 0.945175 0.500000
#
# Coordination Sequence:
#
# PCOD9495967 Si02
#       6
#    16  16  16  16  16  16
#     4  10  19  32  52  80 112 140 171 216 267 311
#     4  10  20  31  50  81 112 141 172 218 270 308
#     4   9  20  38  57  76  97 135 177 221 259 326
#     4   8  14  25  46  72 103 142 174 211 249 299
#     4   8  21  37  54  80  97 136 177 213 262 321
#     4   8  14  26  44  72 105 138 179 211 250 302
#
# _framework density 21.017828000000002
#
# number of rings (size 3 to 8) (size 9 to 14) (size 15 to 20)
#    1.000    2.000    0.000    2.000    0.000    6.333 
#    0.000    3.333    0.000    3.500    4.333    2.333 
#    0.000    0.000    0.000    0.000    0.000    0.000 
#
# Total GULP energy -267345.505362 kJ/mol
# GULP energy per Si atom -5569.698028 kJ/mol
# Density = 2.096999 g / cm^3
# Si number density = 21.017828 Si / 1000 Ang^3
#
#
#
# Elastic Constant Matrix: (Units=GPa)
#
#
# Indices 1 2 3 4 5 6 
#
# 1 127.2312 91.8151 7.8829 0.0000 0.0000 0.0000
# 2 91.8151 146.7108 7.2053 0.0000 0.0000 0.0000
# 3 7.8829 7.2053 50.7599 0.0000 0.0000 0.0000
# 4 0.0000 0.0000 0.0000 17.3003 0.0000 0.0000
# 5 0.0000 0.0000 0.0000 0.0000 16.3589 0.0000
# 6 0.0000 0.0000 0.0000 0.0000 0.0000 24.4640
#
#
#
# Elastic Compliance Matrix: (Units=1/GPa)
#
#
# Indices 1 2 3 4 5 6 
#
# 1 0.014379 -0.008952 -0.000962 0.000000 0.000000 0.000000
# 2 -0.008952 0.012437 -0.000375 0.000000 0.000000 0.000000
# 3 -0.000962 -0.000375 0.019903 0.000000 0.000000 0.000000
# 4 0.000000 0.000000 0.000000 0.057802 0.000000 0.000000
# 5 0.000000 0.000000 0.000000 0.000000 0.061129 0.000000
# 6 0.000000 0.000000 0.000000 0.000000 0.000000 0.040876
#
#
# Mechanical properties :
#
#
# Convention : Reuss Voigt Hill
#
# Bulk Modulus (GPa) = 38.25437 59.83427 49.04432
# Shear Modulus (GPa) = 21.20276 26.14455 23.67366
#
# Velocity S-wave (km/s) = 3.17961 3.53075 3.35977
# Velocity P-wave (km/s) = 5.63208 6.71951 6.19968
#
# Compressibility (1/GPa) = 0.02614081
#
# Stress axis : x y z
#
# Youngs Moduli (GPa) = 69.54532 80.40759 50.24289
#
# Poissons Ratio (x) = 0.71977 0.04835
# Poissons Ratio (y) = 0.62254 0.01885
# Poissons Ratio (z) = 0.06693 0.03017
#
# Static dielectric constant tensor:
#      x y z
#    x 1.765370 0.000000 0.000000 
#    y 0.000000 1.739500 0.000000 
#    z 0.000000 0.000000 1.861240 
# 
# From -- ./inp_files/47321.got.cif
#   From: 2010.05.17/outbox.cif.g08.bks.cpg/sg66_24_cif.got.tgz:47321.got - 2010.06.03 17:51:23.
