data_PCOD9495391
_publ_section_title
;
Structure prediction by ZEFSAII (Michael W. Deem and Ramdas Pophale) SiO2 
 PCOD9495391
Probable space group: C C C M
;
_chemical_formula_sum "Si O2"
_cell_formula_units_Z 112
_cell_length_a 26.733805
_cell_length_b 10.723258
_cell_length_c 15.693238
_cell_angle_alpha 90.000000
_cell_angle_beta 90.000000
_cell_angle_gamma 90.000000
_cell_volume 4498.835281
_symmetry_space_group_name_H-M "C C C M"
_symmetry_group_IT_number 66
_symmetry_cell_setting 'orthorhombic'
loop_
_space_group_symop_operation_xyz
x,y,z
-x,-y,z
x,-y,1/2-z
-x,y,1/2-z
-x,-y,-z
x,y,-z
-x,y,1/2+z
x,-y,1/2+z
1/2+x,1/2+y,z
1/2-x,1/2-y,z
1/2+x,1/2-y,1/2-z
1/2-x,1/2+y,1/2-z
1/2-x,1/2-y,-z
1/2+x,1/2+y,-z
1/2-x,1/2+y,1/2+z
1/2+x,1/2-y,1/2+z
loop_
_atom_site_type_symbol
_atom_site_label
_atom_site_fract_x
_atom_site_fract_y
_atom_site_fract_z
Si Si1 0.700469 0.819498 0.387181
Si Si2 0.727730 0.541554 0.907558
Si Si3 0.109205 0.316098 0.098720
Si Si4 0.947567 0.572615 0.402485
Si Si5 0.443000 0.704518 0.765341
Si Si6 0.200667 0.632567 0.295306
Si Si7 0.373404 0.618359 0.093262
O O1 0.750000 0.750000 0.417576
O O2 0.720630 0.957167 0.407305
O O3 0.695768 0.787271 0.288509
O O4 0.649247 0.759039 0.416775
O O5 0.742560 0.619680 0.826385
O O6 0.676892 0.464577 0.895585
O O7 0.724495 0.601995 0.000000
O O8 0.092403 0.461099 0.103605
O O9 0.080330 0.239632 0.172994
O O10 0.166102 0.317327 0.129811
O O11 0.102204 0.275505 0.000000
O O12 0.947402 0.624951 0.500000
O O13 0.944495 0.671372 0.326009
O O14 0.000000 0.500000 0.393593
O O15 0.500000 0.663321 0.750000
O O16 0.409948 0.614228 0.826058
O O17 0.183852 0.500000 0.250000
O O18 0.395372 0.584253 0.000000
#
# Coordination Sequence:
#
# PCOD9495391 Si02
#       7
#    16  16  16  16  16  16  16
#     4   9  17  30  50  77 105 136 168 212 272 328
#     4   9  18  31  49  75 102 133 177 224 266 318
#     4  11  22  32  45  67  98 137 181 219 260 318
#     4  10  20  32  45  63  92 130 171 220 268 315
#     4  12  22  33  50  69 101 141 185 228 270 324
#     4  10  18  31  50  73 101 139 174 211 260 316
#     4  10  20  34  51  75 106 140 180 231 282 316
#
# _framework density 24.895333000000001
#
# number of rings (size 3 to 8) (size 9 to 14) (size 15 to 20)
#    0.000    1.857    2.857    2.571    2.000    2.286 
#    0.000    0.000    0.000    1.714    0.000    1.000 
#    0.000   14.286    0.000   64.143    0.000    0.000 
#
# Total GULP energy -312431.108903 kJ/mol
# GULP energy per Si atom -5579.126945 kJ/mol
# Density = 2.483867 g / cm^3
# Si number density = 24.895333 Si / 1000 Ang^3
#
#
#
# Elastic Constant Matrix: (Units=GPa)
#
#
# Indices 1 2 3 4 5 6 
#
# 1 130.4642 11.9698 73.1635 0.0000 0.0000 0.0000
# 2 11.9698 25.6451 28.2229 0.0000 0.0000 0.0000
# 3 73.1635 28.2229 249.9984 0.0000 0.0000 0.0000
# 4 0.0000 0.0000 0.0000 -27.4186 0.0000 0.0000
# 5 0.0000 0.0000 0.0000 0.0000 11.0587 0.0000
# 6 0.0000 0.0000 0.0000 0.0000 0.0000 21.7007
#
#
#
# Elastic Compliance Matrix: (Units=1/GPa)
#
#
# Indices 1 2 3 4 5 6 
#
# 1 0.009222 -0.001523 -0.002527 0.000000 0.000000 0.000000
# 2 -0.001523 0.044777 -0.004609 0.000000 0.000000 0.000000
# 3 -0.002527 -0.004609 0.005260 0.000000 0.000000 0.000000
# 4 0.000000 0.000000 0.000000 -0.036472 0.000000 0.000000
# 5 0.000000 0.000000 0.000000 0.000000 0.090427 0.000000
# 6 0.000000 0.000000 0.000000 0.000000 0.000000 0.046082
#
#
# Mechanical properties :
#
#
# Convention : Reuss Voigt Hill
#
# Bulk Modulus (GPa) = 23.84355 70.31337 47.07846
# Shear Modulus (GPa) = 26.23374 20.58492 23.40933
#
# Velocity S-wave (km/s) = 3.24969 2.87863 3.06977
# Velocity P-wave (km/s) = 4.86610 6.27325 5.61394
#
# Compressibility (1/GPa) = 0.04194007
#
# Stress axis : x y z
#
# Youngs Moduli (GPa) = 108.43953 22.33274 190.11935
#
# Poissons Ratio (x) = 0.03402 0.48040
# Poissons Ratio (y) = 0.16520 0.87629
# Poissons Ratio (z) = 0.27401 0.10294
#
# Static dielectric constant tensor:
#      x y z
#    x 1.995060 0.000000 0.000000 
#    y 0.000000 2.248120 0.000000 
#    z 0.000000 0.000000 1.932960 
# 
# From -- ./inp_files/33306.got.cif
#   From: 2010.05.17/outbox.cif.g08.bks.cpg/sg66_17_cif.got.tgz:33306.got - 2010.06.03 17:51:23.
