data_PCOD9495702
_publ_section_title
;
Structure prediction by ZEFSAII (Michael W. Deem and Ramdas Pophale) SiO2 
 PCOD9495702
Probable space group: C C C M
;
_chemical_formula_sum "Si O2"
_cell_formula_units_Z 80
_cell_length_a 10.347830
_cell_length_b 20.760973
_cell_length_c 17.629938
_cell_angle_alpha 90.000000
_cell_angle_beta 90.000000
_cell_angle_gamma 90.000000
_cell_volume 3787.457550
_symmetry_space_group_name_H-M "C C C M"
_symmetry_group_IT_number 66
_symmetry_cell_setting 'orthorhombic'
loop_
_space_group_symop_operation_xyz
x,y,z
-x,-y,z
x,-y,1/2-z
-x,y,1/2-z
-x,-y,-z
x,y,-z
-x,y,1/2+z
x,-y,1/2+z
1/2+x,1/2+y,z
1/2-x,1/2-y,z
1/2+x,1/2-y,1/2-z
1/2-x,1/2+y,1/2-z
1/2-x,1/2-y,-z
1/2+x,1/2+y,-z
1/2-x,1/2+y,1/2+z
1/2+x,1/2-y,1/2+z
loop_
_atom_site_type_symbol
_atom_site_label
_atom_site_fract_x
_atom_site_fract_y
_atom_site_fract_z
Si Si1 0.302677 0.387040 0.298995
Si Si2 0.045337 0.714165 0.000000
Si Si3 0.101566 0.590342 0.500000
Si Si4 0.726721 0.984802 0.584771
Si Si5 0.864014 0.172167 0.500000
Si Si6 0.250000 0.750000 0.871963
Si Si7 0.087653 0.089593 0.141315
O O1 0.209817 0.433716 0.348245
O O2 0.279770 0.313430 0.322713
O O3 0.309997 0.394722 0.208504
O O4 0.445223 0.410780 0.324297
O O5 0.129745 0.733785 0.927052
O O6 0.017520 0.637978 0.000000
O O7 0.910996 0.754375 0.000000
O O8 0.120441 0.541136 0.570249
O O9 0.223309 0.638790 0.500000
O O10 0.742402 0.955018 0.500000
O O11 0.855715 0.025905 0.602573
O O12 0.921365 0.143105 0.423243
#
# Coordination Sequence:
#
# PCOD9495702 Si02
#       7
#    16   8   8  16   8   8  16
#     4  11  22  38  55  90 128 164 200 263 322 375
#     4  11  21  40  62  87 131 168 224 249 315 380
#     4   8  20  36  61  97 112 164 210 265 304 375
#     4   9  20  35  61  90 115 157 202 260 315 369
#     4  10  18  38  65  88 117 162 209 265 308 385
#     4  11  26  38  60  91 132 176 206 265 310 384
#     4  10  20  37  61  89 122 154 212 263 319 369
#
# _framework density 21.122349
#
# number of rings (size 3 to 8) (size 9 to 14) (size 15 to 20)
#    0.600    1.400    3.000    1.500    4.200    2.400 
#    7.200    2.000    0.000    0.000    0.000    5.600 
#    0.000    0.000    0.000    0.000    0.000    0.000 
#
# Total GULP energy -222823.329396 kJ/mol
# GULP energy per Si atom -5570.583235 kJ/mol
# Density = 2.107427 g / cm^3
# Si number density = 21.122349 Si / 1000 Ang^3
#
#
#
# Elastic Constant Matrix: (Units=GPa)
#
#
# Indices 1 2 3 4 5 6 
#
# 1 55.7678 43.9583 10.7405 0.0000 0.0000 0.0000
# 2 43.9583 138.0815 50.5172 0.0000 0.0000 0.0000
# 3 10.7405 50.5172 129.6047 0.0000 0.0000 0.0000
# 4 0.0000 0.0000 0.0000 19.1835 0.0000 0.0000
# 5 0.0000 0.0000 0.0000 0.0000 2.0501 0.0000
# 6 0.0000 0.0000 0.0000 0.0000 0.0000 36.8192
#
#
#
# Elastic Compliance Matrix: (Units=1/GPa)
#
#
# Indices 1 2 3 4 5 6 
#
# 1 0.024087 -0.008092 0.001158 0.000000 0.000000 0.000000
# 2 -0.008092 0.011165 -0.003681 0.000000 0.000000 0.000000
# 3 0.001158 -0.003681 0.009055 0.000000 0.000000 0.000000
# 4 0.000000 0.000000 0.000000 0.052128 0.000000 0.000000
# 5 0.000000 0.000000 0.000000 0.000000 0.487770 0.000000
# 6 0.000000 0.000000 0.000000 0.000000 0.000000 0.027160
#
#
# Mechanical properties :
#
#
# Convention : Reuss Voigt Hill
#
# Bulk Modulus (GPa) = 43.33479 59.32066 51.32772
# Shear Modulus (GPa) = 7.80901 26.15977 16.98439
#
# Velocity S-wave (km/s) = 1.92485 3.52303 2.83873
# Velocity P-wave (km/s) = 5.04982 6.68538 5.92431
#
# Compressibility (1/GPa) = 0.02307615
#
# Stress axis : x y z
#
# Youngs Moduli (GPa) = 41.51686 89.56682 110.43990
#
# Poissons Ratio (x) = 0.72474 -0.12787
# Poissons Ratio (y) = 0.33594 0.40656
# Poissons Ratio (z) = -0.04807 0.32972
#
# Static dielectric constant tensor:
#      x y z
#    x 1.828060 0.000000 0.000000 
#    y 0.000000 1.758370 0.000000 
#    z 0.000000 0.000000 1.834380 
# 
# From -- ./inp_files/38603.got.cif
#   From: 2010.05.17/outbox.cif.g08.bks.cpg/sg66_20_cif.got.tgz:38603.got - 2010.06.03 17:51:23.
