data_PCOD9495783
_publ_section_title
;
Structure prediction by ZEFSAII (Michael W. Deem and Ramdas Pophale) SiO2 
 PCOD9495783
Probable space group: C C C M
;
_chemical_formula_sum "Si O2"
_cell_formula_units_Z 72
_cell_length_a 13.679794
_cell_length_b 26.640638
_cell_length_c 7.767509
_cell_angle_alpha 90.000000
_cell_angle_beta 90.000000
_cell_angle_gamma 90.000000
_cell_volume 2830.778862
_symmetry_space_group_name_H-M "C C C M"
_symmetry_group_IT_number 66
_symmetry_cell_setting 'orthorhombic'
loop_
_space_group_symop_operation_xyz
x,y,z
-x,-y,z
x,-y,1/2-z
-x,y,1/2-z
-x,-y,-z
x,y,-z
-x,y,1/2+z
x,-y,1/2+z
1/2+x,1/2+y,z
1/2-x,1/2-y,z
1/2+x,1/2-y,1/2-z
1/2-x,1/2+y,1/2-z
1/2-x,1/2-y,-z
1/2+x,1/2+y,-z
1/2-x,1/2+y,1/2+z
1/2+x,1/2-y,1/2+z
loop_
_atom_site_type_symbol
_atom_site_label
_atom_site_fract_x
_atom_site_fract_y
_atom_site_fract_z
Si Si1 0.364729 0.164816 0.307743
Si Si2 0.180334 0.445390 0.794872
Si Si3 0.364539 0.308922 0.691456
Si Si4 0.897468 0.920166 0.205043
Si Si5 0.074480 0.733865 0.500000
O O1 0.396474 0.179011 0.500000
O O2 0.364310 0.104539 0.289120
O O3 0.252747 0.185570 0.292796
O O4 0.416992 0.190571 0.150579
O O5 0.138630 0.500000 0.750000
O O6 0.295268 0.444886 0.740322
O O7 0.175600 0.438563 0.000000
O O8 0.389061 0.288449 0.500000
O O9 0.399245 0.365990 0.704884
O O10 0.405929 0.276699 0.846847
O O11 0.000000 0.945416 0.250000
O O12 0.892046 0.913130 0.000000
#
# Coordination Sequence:
#
# PCOD9495783 Si02
#       5
#    16  16  16  16   8
#     4  10  19  30  46  68  93 120 151 193 242 289
#     4  10  20  34  49  66  92 125 166 214 252 289
#     4  10  19  30  46  68  93 120 151 193 242 289
#     4  10  20  34  49  66  92 125 166 214 252 289
#     4  12  19  30  48  70  96 118 150 197 240 287
#
# _framework density 25.434695000000001
#
# number of rings (size 3 to 8) (size 9 to 14) (size 15 to 20)
#    0.000    1.778    2.222    4.000    0.000    4.889 
#    0.000    2.222    0.000    0.000    0.000    0.000 
#    0.000    0.000    0.000    0.000    0.000    3.333 
#
# Total GULP energy -200752.229832 kJ/mol
# GULP energy per Si atom -5576.450829 kJ/mol
# Density = 2.537680 g / cm^3
# Si number density = 25.434695 Si / 1000 Ang^3
#
#
#
# Elastic Constant Matrix: (Units=GPa)
#
#
# Indices 1 2 3 4 5 6 
#
# 1 73.7961 -4.8737 39.4527 0.0000 0.0000 0.0000
# 2 -4.8737 216.4042 68.0096 0.0000 0.0000 0.0000
# 3 39.4527 68.0096 226.2161 0.0000 0.0000 0.0000
# 4 0.0000 0.0000 0.0000 -0.8457 0.0000 0.0000
# 5 0.0000 0.0000 0.0000 0.0000 38.3443 0.0000
# 6 0.0000 0.0000 0.0000 0.0000 0.0000 -29.4314
#
#
#
# Elastic Compliance Matrix: (Units=1/GPa)
#
#
# Indices 1 2 3 4 5 6 
#
# 1 0.015270 0.001304 -0.003055 0.000000 0.000000 0.000000
# 2 0.001304 0.005215 -0.001795 0.000000 0.000000 0.000000
# 3 -0.003055 -0.001795 0.005493 0.000000 0.000000 0.000000
# 4 0.000000 0.000000 0.000000 -1.182489 0.000000 0.000000
# 5 0.000000 0.000000 0.000000 0.000000 0.026079 0.000000
# 6 0.000000 0.000000 0.000000 0.000000 0.000000 -0.033977
#
#
# Mechanical properties :
#
#
# Convention : Reuss Voigt Hill
#
# Bulk Modulus (GPa) = 52.95103 80.17706 66.56405
# Shear Modulus (GPa) = -4.34397 29.20195 12.42899
#
# Velocity S-wave (km/s) = -1.30828 3.39206 2.21297
# Velocity P-wave (km/s) = 4.31063 6.85074 5.72338
#
# Compressibility (1/GPa) = 0.01888537
#
# Stress axis : x y z
#
# Youngs Moduli (GPa) = 65.48631 191.77262 182.04716
#
# Poissons Ratio (x) = -0.25009 0.55620
# Poissons Ratio (y) = -0.08540 0.32680
# Poissons Ratio (z) = 0.20008 0.34426
#
# Static dielectric constant tensor:
#      x y z
#    x 2.181610 0.000000 0.000000 
#    y 0.000000 1.962700 0.000000 
#    z 0.000000 0.000000 1.910320 
# 
# From -- ./inp_files/7670.got.cif
#   From: 2010.05.17/outbox.cif.g08.bks.cpg/sg66_4_cif.got.tgz:7670.got - 2010.06.03 17:51:23.
