data_PCOD9495401
_publ_section_title
;
Structure prediction by ZEFSAII (Michael W. Deem and Ramdas Pophale) SiO2 
 PCOD9495401
Probable space group: C C C M
;
_chemical_formula_sum "Si O2"
_cell_formula_units_Z 56
_cell_length_a 14.655433
_cell_length_b 12.045899
_cell_length_c 15.939384
_cell_angle_alpha 90.000000
_cell_angle_beta 90.000000
_cell_angle_gamma 90.000000
_cell_volume 2813.904832
_symmetry_space_group_name_H-M "C C C M"
_symmetry_group_IT_number 66
_symmetry_cell_setting 'orthorhombic'
loop_
_space_group_symop_operation_xyz
x,y,z
-x,-y,z
x,-y,1/2-z
-x,y,1/2-z
-x,-y,-z
x,y,-z
-x,y,1/2+z
x,-y,1/2+z
1/2+x,1/2+y,z
1/2-x,1/2-y,z
1/2+x,1/2-y,1/2-z
1/2-x,1/2+y,1/2-z
1/2-x,1/2-y,-z
1/2+x,1/2+y,-z
1/2-x,1/2+y,1/2+z
1/2+x,1/2-y,1/2+z
loop_
_atom_site_type_symbol
_atom_site_label
_atom_site_fract_x
_atom_site_fract_y
_atom_site_fract_z
Si Si1 0.680444 0.500000 0.250000
Si Si2 0.850879 0.699243 0.500000
Si Si3 0.639704 0.731505 0.680465
Si Si4 0.180247 0.349621 0.840067
Si Si5 0.399130 0.954178 0.500000
O O1 0.626390 0.603946 0.290107
O O2 0.750686 0.551040 0.182705
O O3 0.750000 0.750000 0.500000
O O4 0.896432 0.737722 0.588253
O O5 0.840223 0.566916 0.500000
O O6 0.750000 0.750000 0.674843
O O7 0.620101 0.812009 0.759430
O O8 0.250000 0.250000 0.860537
O O9 0.120691 0.383513 0.918034
O O10 0.500000 0.000000 0.500000
#
# Coordination Sequence:
#
# PCOD9495401 Si02
#       5
#     8   8  16  16   8
#     4   8  14  28  51  78 101 126 174 224 260 302
#     4  10  18  31  52  75 102 137 176 214 256 314
#     4   8  15  27  47  74 100 130 174 220 255 302
#     4   9  17  31  49  72 103 139 176 215 257 313
#     4  12  23  33  48  79 112 141 173 216 270 312
#
# _framework density 19.90117
#
# number of rings (size 3 to 8) (size 9 to 14) (size 15 to 20)
#    0.000    3.429    0.000    5.571    0.000    0.000 
#    0.000    7.857    0.000    0.000    0.000   44.000 
#    0.000    0.000    0.000    0.000    0.000    0.000 
#
# Total GULP energy -155925.918335 kJ/mol
# GULP energy per Si atom -5568.782798 kJ/mol
# Density = 1.985587 g / cm^3
# Si number density = 19.901170 Si / 1000 Ang^3
#
#
#
# Elastic Constant Matrix: (Units=GPa)
#
#
# Indices 1 2 3 4 5 6 
#
# 1 32.8492 5.3601 26.4259 0.0000 0.0000 0.0000
# 2 5.3601 85.2611 68.0063 0.0000 0.0000 0.0000
# 3 26.4259 68.0063 227.8152 0.0000 0.0000 0.0000
# 4 0.0000 0.0000 0.0000 15.2150 0.0000 0.0000
# 5 0.0000 0.0000 0.0000 0.0000 -15.0197 0.0000
# 6 0.0000 0.0000 0.0000 0.0000 0.0000 10.6442
#
#
#
# Elastic Compliance Matrix: (Units=1/GPa)
#
#
# Indices 1 2 3 4 5 6 
#
# 1 0.033687 0.001311 -0.004299 0.000000 0.000000 0.000000
# 2 0.001311 0.015445 -0.004763 0.000000 0.000000 0.000000
# 3 -0.004299 -0.004763 0.006310 0.000000 0.000000 0.000000
# 4 0.000000 0.000000 0.000000 0.065725 0.000000 0.000000
# 5 0.000000 0.000000 0.000000 0.000000 -0.066579 0.000000
# 6 0.000000 0.000000 0.000000 0.000000 0.000000 0.093947
#
#
# Mechanical properties :
#
#
# Convention : Reuss Voigt Hill
#
# Bulk Modulus (GPa) = 25.03715 60.61223 42.82469
# Shear Modulus (GPa) = 28.19298 18.57678 23.38488
#
# Velocity S-wave (km/s) = 3.76792 3.05856 3.43162
# Velocity P-wave (km/s) = 5.61585 6.55712 6.10465
#
# Compressibility (1/GPa) = 0.03994065
#
# Stress axis : x y z
#
# Youngs Moduli (GPa) = 29.68545 64.74551 158.48057
#
# Poissons Ratio (x) = -0.08489 0.68130
# Poissons Ratio (y) = -0.03892 0.75479
# Poissons Ratio (z) = 0.12762 0.30836
#
# Static dielectric constant tensor:
#      x y z
#    x 1.659170 0.000000 0.000000 
#    y 0.000000 1.732380 0.000000 
#    z 0.000000 0.000000 1.775530 
# 
# From -- ./inp_files/29532.got.cif
#   From: 2010.05.17/outbox.cif.g08.bks.cpg/sg66_15_cif.got.tgz:29532.got - 2010.06.03 17:51:23.
