data_PCOD9495787
_publ_section_title
;
Structure prediction by ZEFSAII (Michael W. Deem and Ramdas Pophale) SiO2 
 PCOD9495787
Probable space group: C C C M
;
_chemical_formula_sum "Si O2"
_cell_formula_units_Z 112
_cell_length_a 17.766714
_cell_length_b 18.253377
_cell_length_c 14.050172
_cell_angle_alpha 90.000000
_cell_angle_beta 90.000000
_cell_angle_gamma 90.000000
_cell_volume 4556.506308
_symmetry_space_group_name_H-M "C C C M"
_symmetry_group_IT_number 66
_symmetry_cell_setting 'orthorhombic'
loop_
_space_group_symop_operation_xyz
x,y,z
-x,-y,z
x,-y,1/2-z
-x,y,1/2-z
-x,-y,-z
x,y,-z
-x,y,1/2+z
x,-y,1/2+z
1/2+x,1/2+y,z
1/2-x,1/2-y,z
1/2+x,1/2-y,1/2-z
1/2-x,1/2+y,1/2-z
1/2-x,1/2-y,-z
1/2+x,1/2+y,-z
1/2-x,1/2+y,1/2+z
1/2+x,1/2-y,1/2+z
loop_
_atom_site_type_symbol
_atom_site_label
_atom_site_fract_x
_atom_site_fract_y
_atom_site_fract_z
Si Si1 0.899502 0.705844 0.393755
Si Si2 0.273827 0.102406 0.616372
Si Si3 0.494028 0.667981 0.383644
Si Si4 0.483842 0.081457 0.138969
Si Si5 0.657389 0.611107 0.116181
Si Si6 0.387928 0.447485 0.615314
Si Si7 0.685591 0.061848 0.613358
O O1 0.877387 0.732482 0.500000
O O2 0.825400 0.669314 0.349057
O O3 0.950074 0.768997 0.348426
O O4 0.958760 0.639381 0.402714
O O5 0.277932 0.104781 0.500000
O O6 0.185930 0.099835 0.641922
O O7 0.308188 0.023187 0.646781
O O8 0.493121 0.673242 0.500000
O O9 0.407139 0.667373 0.353118
O O10 0.535635 0.592351 0.357579
O O11 0.500000 0.081145 0.250000
O O12 0.395698 0.096093 0.127999
O O13 0.500000 0.000000 0.102161
O O14 0.626959 0.530575 0.144831
O O15 0.743897 0.609781 0.148889
O O16 0.658420 0.614782 0.000000
O O17 0.388569 0.450277 0.500000
O O18 0.695854 0.055740 0.500000
#
# Coordination Sequence:
#
# PCOD9495787 Si02
#       7
#    16  16  16  16  16  16  16
#     4  10  19  30  46  71 103 132 161 199 243 296
#     4   8  14  24  40  66  97 130 162 194 240 291
#     4   9  16  25  40  69 104 134 163 198 241 286
#     4  11  22  34  50  72  91 120 158 203 247 297
#     4   8  14  25  43  70 101 131 164 199 238 287
#     4   8  13  22  39  65 101 136 161 195 244 289
#     4   9  16  29  50  73  97 126 162 202 243 288
#
# _framework density 24.580235999999999
#
# number of rings (size 3 to 8) (size 9 to 14) (size 15 to 20)
#    0.000    3.000    1.429    2.571    0.000    2.857 
#    0.000    3.571    0.000    3.429    7.429    0.000 
#    0.000    1.143    0.000    0.000    0.000    0.000 
#
# Total GULP energy -312849.377406 kJ/mol
# GULP energy per Si atom -5586.596025 kJ/mol
# Density = 2.452429 g / cm^3
# Si number density = 24.580236 Si / 1000 Ang^3
#
#
#
# Elastic Constant Matrix: (Units=GPa)
#
#
# Indices 1 2 3 4 5 6 
#
# 1 174.6043 26.7151 -0.1881 0.0000 0.0000 0.0000
# 2 26.7151 36.8020 4.6109 0.0000 0.0000 0.0000
# 3 -0.1881 4.6109 80.4139 0.0000 0.0000 0.0000
# 4 0.0000 0.0000 0.0000 6.4648 0.0000 0.0000
# 5 0.0000 0.0000 0.0000 0.0000 4.9242 0.0000
# 6 0.0000 0.0000 0.0000 0.0000 0.0000 29.7145
#
#
#
# Elastic Compliance Matrix: (Units=1/GPa)
#
#
# Indices 1 2 3 4 5 6 
#
# 1 0.006449 -0.004717 0.000286 0.000000 0.000000 0.000000
# 2 -0.004717 0.030820 -0.001778 0.000000 0.000000 0.000000
# 3 0.000286 -0.001778 0.012538 0.000000 0.000000 0.000000
# 4 0.000000 0.000000 0.000000 0.154683 0.000000 0.000000
# 5 0.000000 0.000000 0.000000 0.000000 0.203079 0.000000
# 6 0.000000 0.000000 0.000000 0.000000 0.000000 0.033654
#
#
# Mechanical properties :
#
#
# Convention : Reuss Voigt Hill
#
# Bulk Modulus (GPa) = 26.74716 39.34401 33.04558
# Shear Modulus (GPa) = 10.72718 25.59952 18.16335
#
# Velocity S-wave (km/s) = 2.09132 3.23068 2.72130
# Velocity P-wave (km/s) = 4.09105 5.47334 4.83188
#
# Compressibility (1/GPa) = 0.03738715
#
# Stress axis : x y z
#
# Youngs Moduli (GPa) = 155.05482 32.44673 79.75570
#
# Poissons Ratio (x) = 0.15307 -0.02278
# Poissons Ratio (y) = 0.73146 0.14182
# Poissons Ratio (z) = -0.04428 0.05770
#
# Static dielectric constant tensor:
#      x y z
#    x 1.940260 0.000000 0.000000 
#    y 0.000000 1.942930 0.000000 
#    z 0.000000 0.000000 1.984320 
# 
# From -- ./inp_files/51195.got.cif
#   From: 2010.05.17/outbox.cif.g08.bks.cpg/sg66_26_cif.got.tgz:51195.got - 2010.06.03 17:51:23.
