data_PCOD9495674
_publ_section_title
;
Structure prediction by ZEFSAII (Michael W. Deem and Ramdas Pophale) SiO2 
 PCOD9495674
Probable space group: C C C M
;
_chemical_formula_sum "Si O2"
_cell_formula_units_Z 80
_cell_length_a 24.424337
_cell_length_b 16.012745
_cell_length_c 11.681265
_cell_angle_alpha 90.000000
_cell_angle_beta 90.000000
_cell_angle_gamma 90.000000
_cell_volume 4568.550687
_symmetry_space_group_name_H-M "C C C M"
_symmetry_group_IT_number 66
_symmetry_cell_setting 'orthorhombic'
loop_
_space_group_symop_operation_xyz
x,y,z
-x,-y,z
x,-y,1/2-z
-x,y,1/2-z
-x,-y,-z
x,y,-z
-x,y,1/2+z
x,-y,1/2+z
1/2+x,1/2+y,z
1/2-x,1/2-y,z
1/2+x,1/2-y,1/2-z
1/2-x,1/2+y,1/2-z
1/2-x,1/2-y,-z
1/2+x,1/2+y,-z
1/2-x,1/2+y,1/2+z
1/2+x,1/2-y,1/2+z
loop_
_atom_site_type_symbol
_atom_site_label
_atom_site_fract_x
_atom_site_fract_y
_atom_site_fract_z
Si Si1 0.740316 0.648918 0.000000
Si Si2 0.861329 0.337381 0.500000
Si Si3 0.716365 0.162456 0.131688
Si Si4 0.500000 0.181183 0.250000
Si Si5 0.521466 0.093435 0.500000
Si Si6 0.120563 0.744608 0.741528
Si Si7 0.187169 0.092436 0.236090
O O1 0.750000 0.750000 0.000000
O O2 0.708180 0.617796 0.889466
O O3 0.802937 0.617443 0.000000
O O4 0.912653 0.399234 0.500000
O O5 0.866799 0.278672 0.610448
O O6 0.750000 0.250000 0.143803
O O7 0.658070 0.178425 0.189625
O O8 0.757441 0.097481 0.188755
O O9 0.708790 0.143541 0.000000
O O10 0.504310 0.133406 0.374830
O O11 0.556314 0.232948 0.240141
O O12 0.500000 0.000000 0.500000
O O13 0.143945 0.835965 0.770659
O O14 0.164130 0.000000 0.250000
#
# Coordination Sequence:
#
# PCOD9495674 Si02
#       7
#     8   8  16   8   8  16  16
#     4  12  18  38  63  81 109 161 199 226 282 363
#     4  10  18  36  64  79 103 151 199 226 271 353
#     4   9  18  33  53  76 110 146 176 220 283 344
#     4  10  23  38  63  84 108 160 198 224 283 358
#     4  10  22  42  59  86 117 143 189 250 288 326
#     4  10  19  38  58  80 108 150 194 229 273 348
#     4  11  22  34  55  87 116 143 186 245 287 325
#
# _framework density 17.511023000000002
#
# number of rings (size 3 to 8) (size 9 to 14) (size 15 to 20)
#    0.000    1.800    4.000    0.900    2.800    0.000 
#    3.600    0.500    0.000    0.000    0.000    5.600 
#    0.000    0.000    0.000    0.000    0.000    0.000 
#
# Total GULP energy -222846.017429 kJ/mol
# GULP energy per Si atom -5571.150436 kJ/mol
# Density = 1.747117 g / cm^3
# Si number density = 17.511023 Si / 1000 Ang^3
#
#
#
# Elastic Constant Matrix: (Units=GPa)
#
#
# Indices 1 2 3 4 5 6 
#
# 1 142.8560 40.8587 31.6255 0.0000 0.0000 0.0000
# 2 40.8587 81.0754 11.6639 0.0000 0.0000 0.0000
# 3 31.6255 11.6639 86.1719 0.0000 0.0000 0.0000
# 4 0.0000 0.0000 0.0000 8.6716 0.0000 0.0000
# 5 0.0000 0.0000 0.0000 0.0000 67.7980 0.0000
# 6 0.0000 0.0000 0.0000 0.0000 0.0000 17.4638
#
#
#
# Elastic Compliance Matrix: (Units=1/GPa)
#
#
# Indices 1 2 3 4 5 6 
#
# 1 0.008740 -0.004021 -0.002663 0.000000 0.000000 0.000000
# 2 -0.004021 0.014429 -0.000477 0.000000 0.000000 0.000000
# 3 -0.002663 -0.000477 0.012647 0.000000 0.000000 0.000000
# 4 0.000000 0.000000 0.000000 0.115319 0.000000 0.000000
# 5 0.000000 0.000000 0.000000 0.000000 0.014750 0.000000
# 6 0.000000 0.000000 0.000000 0.000000 0.000000 0.057261
#
#
# Mechanical properties :
#
#
# Convention : Reuss Voigt Hill
#
# Bulk Modulus (GPa) = 46.52831 53.15549 49.84190
# Shear Modulus (GPa) = 20.43867 33.85035 27.14451
#
# Velocity S-wave (km/s) = 3.42012 4.40146 3.94145
# Velocity P-wave (km/s) = 6.49807 7.50012 7.01700
#
# Compressibility (1/GPa) = 0.02149229
#
# Stress axis : x y z
#
# Youngs Moduli (GPa) = 114.41909 69.30272 79.07179
#
# Poissons Ratio (x) = 0.27869 0.21059
# Poissons Ratio (y) = 0.46012 0.03774
# Poissons Ratio (z) = 0.30472 0.03308
#
# Static dielectric constant tensor:
#      x y z
#    x 1.596120 0.000000 0.000000 
#    y 0.000000 1.608370 0.000000 
#    z 0.000000 0.000000 1.497530 
# 
# From -- ./inp_files/16593.got.cif
#   From: 2010.05.17/outbox.cif.g08.bks.cpg/sg66_9_cif.got.tgz:16593.got - 2010.06.03 17:51:23.
