data_PCOD9495696
_publ_section_title
;
Structure prediction by ZEFSAII (Michael W. Deem and Ramdas Pophale) SiO2 
 PCOD9495696
Probable space group: C C C M
;
_chemical_formula_sum "Si O2"
_cell_formula_units_Z 88
_cell_length_a 23.844319
_cell_length_b 5.150720
_cell_length_c 32.895426
_cell_angle_alpha 90.000000
_cell_angle_beta 90.000000
_cell_angle_gamma 90.000000
_cell_volume 4040.065256
_symmetry_space_group_name_H-M "C C C M"
_symmetry_group_IT_number 66
_symmetry_cell_setting 'orthorhombic'
loop_
_space_group_symop_operation_xyz
x,y,z
-x,-y,z
x,-y,1/2-z
-x,y,1/2-z
-x,-y,-z
x,y,-z
-x,y,1/2+z
x,-y,1/2+z
1/2+x,1/2+y,z
1/2-x,1/2-y,z
1/2+x,1/2-y,1/2-z
1/2-x,1/2+y,1/2-z
1/2-x,1/2-y,-z
1/2+x,1/2+y,-z
1/2-x,1/2+y,1/2+z
1/2+x,1/2-y,1/2+z
loop_
_atom_site_type_symbol
_atom_site_label
_atom_site_fract_x
_atom_site_fract_y
_atom_site_fract_z
Si Si1 0.641266 0.017123 0.906885
Si Si2 0.804659 0.872624 0.338682
Si Si3 0.057505 0.391405 0.845352
Si Si4 0.084810 0.085908 0.295980
Si Si5 0.750000 0.750000 0.095601
Si Si6 0.037875 0.239495 0.547240
O O1 0.665151 0.166682 0.867757
O O2 0.599189 0.828356 0.882711
O O3 0.598253 0.195480 0.932317
O O4 0.697643 0.894054 0.926860
O O5 0.750000 0.750000 0.318053
O O6 0.849881 0.970268 0.306943
O O7 0.782075 0.065987 0.372862
O O8 0.051960 0.124717 0.822181
O O9 0.000000 0.500000 0.863238
O O10 0.073497 0.620006 0.812146
O O11 0.073999 0.000000 0.250000
O O12 0.049938 0.173738 0.500000
O O13 0.000000 0.500000 0.547357
O O14 0.000000 0.000000 0.563867
#
# Coordination Sequence:
#
# PCOD9495696 Si02
#       6
#    16  16  16  16   8  16
#     4  10  21  36  64  88 121 158 205 249 304 366
#     4   9  20  37  56  85 113 156 199 254 298 355
#     4  11  23  38  59  86 115 156 202 247 299 366
#     4  11  23  40  56  83 119 154 199 250 309 366
#     4  10  18  38  61  84 122 152 204 258 308 350
#     4  10  23  41  64  96 131 163 198 248 306 365
#
# _framework density 21.781828000000001
#
# number of rings (size 3 to 8) (size 9 to 14) (size 15 to 20)
#    0.000    1.818    1.818    1.636    2.545    5.091 
#    1.636    0.455    0.000    4.909    0.000    0.000 
#    0.000    0.000    0.000    0.000    0.000    0.000 
#
# Total GULP energy -244985.845222 kJ/mol
# GULP energy per Si atom -5567.860119 kJ/mol
# Density = 2.173225 g / cm^3
# Si number density = 21.781828 Si / 1000 Ang^3
#
#
#
# Elastic Constant Matrix: (Units=GPa)
#
#
# Indices 1 2 3 4 5 6 
#
# 1 169.8450 41.5312 34.2880 0.0000 0.0000 0.0000
# 2 41.5312 88.3453 6.7584 0.0000 0.0000 0.0000
# 3 34.2880 6.7584 60.6308 0.0000 0.0000 0.0000
# 4 0.0000 0.0000 0.0000 13.6394 0.0000 0.0000
# 5 0.0000 0.0000 0.0000 0.0000 -125.9877 0.0000
# 6 0.0000 0.0000 0.0000 0.0000 0.0000 39.1414
#
#
#
# Elastic Compliance Matrix: (Units=1/GPa)
#
#
# Indices 1 2 3 4 5 6 
#
# 1 0.007450 -0.003207 -0.003856 0.000000 0.000000 0.000000
# 2 -0.003207 0.012797 0.000387 0.000000 0.000000 0.000000
# 3 -0.003856 0.000387 0.018631 0.000000 0.000000 0.000000
# 4 0.000000 0.000000 0.000000 0.073317 0.000000 0.000000
# 5 0.000000 0.000000 0.000000 0.000000 -0.007937 0.000000
# 6 0.000000 0.000000 0.000000 0.000000 0.000000 0.025548
#
#
# Mechanical properties :
#
#
# Convention : Reuss Voigt Hill
#
# Bulk Modulus (GPa) = 39.17474 53.77513 46.47494
# Shear Modulus (GPa) = 32.96690 1.10819 17.03754
#
# Velocity S-wave (km/s) = 3.89460 0.71405 2.79980
# Velocity P-wave (km/s) = 6.18449 5.04197 5.64223
#
# Compressibility (1/GPa) = 0.02552665
#
# Stress axis : x y z
#
# Youngs Moduli (GPa) = 134.22024 78.14072 53.67498
#
# Poissons Ratio (x) = 0.25064 0.20696
# Poissons Ratio (y) = 0.43051 -0.02079
# Poissons Ratio (z) = 0.51753 -0.03027
#
# Static dielectric constant tensor:
#      x y z
#    x 1.730790 0.000000 0.000000 
#    y 0.000000 1.760460 0.000000 
#    z 0.000000 0.000000 1.771060 
# 
# From -- ./inp_files/70386.got.cif
#   From: 2010.05.17/outbox.cif.g08.bks.cpg/sg66_36_cif.got.tgz:70386.got - 2010.06.03 17:51:23.
