data_PCOD9495936
_publ_section_title
;
Structure prediction by ZEFSAII (Michael W. Deem and Ramdas Pophale) SiO2 
 PCOD9495936
Probable space group: C C C M
;
_chemical_formula_sum "Si O2"
_cell_formula_units_Z 88
_cell_length_a 30.706229
_cell_length_b 16.710866
_cell_length_c 7.549282
_cell_angle_alpha 90.000000
_cell_angle_beta 90.000000
_cell_angle_gamma 90.000000
_cell_volume 3873.745545
_symmetry_space_group_name_H-M "C C C M"
_symmetry_group_IT_number 66
_symmetry_cell_setting 'orthorhombic'
loop_
_space_group_symop_operation_xyz
x,y,z
-x,-y,z
x,-y,1/2-z
-x,y,1/2-z
-x,-y,-z
x,y,-z
-x,y,1/2+z
x,-y,1/2+z
1/2+x,1/2+y,z
1/2-x,1/2-y,z
1/2+x,1/2-y,1/2-z
1/2-x,1/2+y,1/2-z
1/2-x,1/2-y,-z
1/2+x,1/2+y,-z
1/2-x,1/2+y,1/2+z
1/2+x,1/2-y,1/2+z
loop_
_atom_site_type_symbol
_atom_site_label
_atom_site_fract_x
_atom_site_fract_y
_atom_site_fract_z
Si Si1 0.048992 0.616139 0.713565
Si Si2 0.272694 0.406490 0.212856
Si Si3 0.682119 0.152334 0.298025
Si Si4 0.141665 0.183496 0.216894
Si Si5 0.378177 0.000000 0.250000
Si Si6 0.047873 0.198088 0.788639
O O1 0.058697 0.611208 0.500000
O O2 0.084868 0.563774 0.812805
O O3 0.049420 0.708899 0.769894
O O4 0.000000 0.588409 0.750000
O O5 0.269283 0.500000 0.250000
O O6 0.229392 0.362801 0.284805
O O7 0.318248 0.370717 0.277683
O O8 0.272311 0.396777 0.000000
O O9 0.690638 0.177523 0.500000
O O10 0.653491 0.225479 0.226612
O O11 0.656158 0.068628 0.307754
O O12 0.093029 0.160225 0.277019
O O13 0.140594 0.180352 0.000000
O O14 0.000000 0.164109 0.750000
O O15 0.050148 0.200807 0.000000
#
# Coordination Sequence:
#
# PCOD9495936 Si02
#       6
#    16  16  16  16   8  16
#     4  10  21  34  48  69 102 140 181 219 253 296
#     4  10  20  35  57  82 106 135 170 215 264 311
#     4  10  19  32  50  76 106 140 181 217 249 298
#     4   9  17  33  57  78 101 135 179 216 251 304
#     4  12  19  28  48  72 108 142 169 216 262 288
#     4   9  17  32  52  74 100 131 170 216 258 302
#
# _framework density 22.717033000000001
#
# number of rings (size 3 to 8) (size 9 to 14) (size 15 to 20)
#    0.000    2.182    2.727    1.364    0.000    4.364 
#    0.000    0.909    0.000    6.000    0.000    3.818 
#    0.000    0.000    0.000    0.000    0.000    0.000 
#
# Total GULP energy -244942.269853 kJ/mol
# GULP energy per Si atom -5566.869769 kJ/mol
# Density = 2.266533 g / cm^3
# Si number density = 22.717033 Si / 1000 Ang^3
#
#
#
# Elastic Constant Matrix: (Units=GPa)
#
#
# Indices 1 2 3 4 5 6 
#
# 1 242.8649 23.0771 7.8525 0.0000 0.0000 0.0000
# 2 23.0771 12.0131 -5.6103 0.0000 0.0000 0.0000
# 3 7.8525 -5.6103 59.1021 0.0000 0.0000 0.0000
# 4 0.0000 0.0000 0.0000 6.7140 0.0000 0.0000
# 5 0.0000 0.0000 0.0000 0.0000 9.3242 0.0000
# 6 0.0000 0.0000 0.0000 0.0000 0.0000 31.0213
#
#
#
# Elastic Compliance Matrix: (Units=1/GPa)
#
#
# Indices 1 2 3 4 5 6 
#
# 1 0.005198 -0.010786 -0.001714 0.000000 0.000000 0.000000
# 2 -0.010786 0.109484 0.011826 0.000000 0.000000 0.000000
# 3 -0.001714 0.011826 0.018270 0.000000 0.000000 0.000000
# 4 0.000000 0.000000 0.000000 0.148942 0.000000 0.000000
# 5 0.000000 0.000000 0.000000 0.000000 0.107248 0.000000
# 6 0.000000 0.000000 0.000000 0.000000 0.000000 0.032236
#
#
# Mechanical properties :
#
#
# Convention : Reuss Voigt Hill
#
# Bulk Modulus (GPa) = 7.59857 40.51319 24.05588
# Shear Modulus (GPa) = 10.71596 28.65595 19.68596
#
# Velocity S-wave (km/s) = 2.17426 3.55552 2.94695
# Velocity P-wave (km/s) = 3.10730 5.89306 4.71081
#
# Compressibility (1/GPa) = 0.13160375
#
# Stress axis : x y z
#
# Youngs Moduli (GPa) = 192.38935 9.13375 54.73381
#
# Poissons Ratio (x) = 0.09851 0.09384
# Poissons Ratio (y) = 2.07503 -0.64727
# Poissons Ratio (z) = 0.32984 -0.10801
#
# Static dielectric constant tensor:
#      x y z
#    x 1.887750 0.000000 0.000000 
#    y 0.000000 1.796530 0.000000 
#    z 0.000000 0.000000 1.954320 
# 
# From -- ./inp_files/11397.got.cif
#   From: 2010.05.17/outbox.cif.g08.bks.cpg/sg66_6_cif.got.tgz:11397.got - 2010.06.03 17:51:23.
