data_PCOD9495911
_publ_section_title
;
Structure prediction by ZEFSAII (Michael W. Deem and Ramdas Pophale) SiO2 
 PCOD9495911
Probable space group: C C C M
;
_chemical_formula_sum "Si O2"
_cell_formula_units_Z 116
_cell_length_a 23.137957
_cell_length_b 32.601272
_cell_length_c 7.628789
_cell_angle_alpha 90.000000
_cell_angle_beta 90.000000
_cell_angle_gamma 90.000000
_cell_volume 5754.600221
_symmetry_space_group_name_H-M "C C C M"
_symmetry_group_IT_number 66
_symmetry_cell_setting 'orthorhombic'
loop_
_space_group_symop_operation_xyz
x,y,z
-x,-y,z
x,-y,1/2-z
-x,y,1/2-z
-x,-y,-z
x,y,-z
-x,y,1/2+z
x,-y,1/2+z
1/2+x,1/2+y,z
1/2-x,1/2-y,z
1/2+x,1/2-y,1/2-z
1/2-x,1/2+y,1/2-z
1/2-x,1/2-y,-z
1/2+x,1/2+y,-z
1/2-x,1/2+y,1/2+z
1/2+x,1/2-y,1/2+z
loop_
_atom_site_type_symbol
_atom_site_label
_atom_site_fract_x
_atom_site_fract_y
_atom_site_fract_z
Si Si1 0.329768 0.603389 0.715524
Si Si2 0.566739 0.547425 0.206545
Si Si3 0.500000 0.000000 0.750000
Si Si4 0.097639 0.570388 0.293137
Si Si5 0.297537 0.306839 0.786370
Si Si6 0.565216 0.839714 0.210666
Si Si7 0.830985 0.282705 0.285959
Si Si8 0.275916 0.046829 0.789599
O O1 0.329934 0.603535 0.500000
O O2 0.386201 0.578978 0.779676
O O3 0.325028 0.650529 0.772153
O O4 0.272848 0.578322 0.771905
O O5 0.579564 0.500000 0.250000
O O6 0.500000 0.555939 0.250000
O O7 0.571446 0.550578 0.000000
O O8 0.450394 0.964785 0.719152
O O9 0.106631 0.576796 0.500000
O O10 0.076287 0.614029 0.220655
O O11 0.159740 0.556537 0.219793
O O12 0.230132 0.303084 0.734842
O O13 0.328564 0.264811 0.730064
O O14 0.298163 0.306832 0.000000
O O15 0.500000 0.826974 0.250000
O O16 0.614399 0.808739 0.275725
O O17 0.570359 0.840862 0.000000
O O18 0.831843 0.282698 0.500000
O O19 0.260248 0.000000 0.750000
O O20 0.277714 0.050490 0.000000
#
# Coordination Sequence:
#
# PCOD9495911 Si02
#       8
#    16  16   4  16  16  16  16  16
#     4   9  17  28  46  69  96 121 152 191 237 278
#     4  10  19  32  49  70  93 126 158 190 226 275
#     4  12  18  32  44  62  88 132 164 188 230 272
#     4  10  20  31  46  64  91 127 164 196 231 271
#     4   8  13  25  45  71  94 118 148 190 234 277
#     4  10  19  32  47  69  94 122 155 194 233 275
#     4   8  14  25  46  70  94 118 151 191 233 274
#     4  10  19  32  47  68  94 125 157 197 237 274
#
# _framework density 20.157785000000001
#
# number of rings (size 3 to 8) (size 9 to 14) (size 15 to 20)
#    0.000    2.621    1.379    3.103    0.000    3.310 
#    0.000    2.069    0.000    0.000    0.000    5.793 
#    0.000    0.000    0.000    0.000    0.000    0.000 
#
# Total GULP energy -323191.810121 kJ/mol
# GULP energy per Si atom -5572.272588 kJ/mol
# Density = 2.011190 g / cm^3
# Si number density = 20.157785 Si / 1000 Ang^3
#
#
#
# Elastic Constant Matrix: (Units=GPa)
#
#
# Indices 1 2 3 4 5 6 
#
# 1 192.4885 173.6176 -11.4030 0.0000 0.0000 0.0000
# 2 173.6176 229.5624 -10.8323 0.0000 0.0000 0.0000
# 3 -11.4030 -10.8323 45.5628 0.0000 0.0000 0.0000
# 4 0.0000 0.0000 0.0000 6.7766 0.0000 0.0000
# 5 0.0000 0.0000 0.0000 0.0000 7.2402 0.0000
# 6 0.0000 0.0000 0.0000 0.0000 0.0000 13.5780
#
#
#
# Elastic Compliance Matrix: (Units=1/GPa)
#
#
# Indices 1 2 3 4 5 6 
#
# 1 0.016406 -0.012353 0.001169 0.000000 0.000000 0.000000
# 2 -0.012353 0.013706 0.000167 0.000000 0.000000 0.000000
# 3 0.001169 0.000167 0.022280 0.000000 0.000000 0.000000
# 4 0.000000 0.000000 0.000000 0.147567 0.000000 0.000000
# 5 0.000000 0.000000 0.000000 0.000000 0.138118 0.000000
# 6 0.000000 0.000000 0.000000 0.000000 0.000000 0.073648
#
#
# Mechanical properties :
#
#
# Convention : Reuss Voigt Hill
#
# Bulk Modulus (GPa) = 32.93861 85.59759 59.26810
# Shear Modulus (GPa) = 11.26435 26.60105 18.93270
#
# Velocity S-wave (km/s) = 2.36648 3.63663 3.06800
# Velocity P-wave (km/s) = 4.88291 7.75818 6.48198
#
# Compressibility (1/GPa) = 0.03035951
#
# Stress axis : x y z
#
# Youngs Moduli (GPa) = 60.95306 72.95901 44.88323
#
# Poissons Ratio (x) = 0.90124 -0.05248
# Poissons Ratio (y) = 0.75294 -0.00750
# Poissons Ratio (z) = -0.07126 -0.01219
#
# Static dielectric constant tensor:
#      x y z
#    x 1.719770 0.000000 0.000000 
#    y 0.000000 1.716830 0.000000 
#    z 0.000000 0.000000 1.775670 
# 
# From -- ./inp_files/9610.got.cif
#   From: 2010.05.17/outbox.cif.g08.bks.cpg/sg66_5_cif.got.tgz:9610.got - 2010.06.03 17:51:23.
