data_PCOD9495927
_publ_section_title
;
Structure prediction by ZEFSAII (Michael W. Deem and Ramdas Pophale) SiO2 
 PCOD9495927
Probable space group: C C C M
;
_chemical_formula_sum "Si O2"
_cell_formula_units_Z 96
_cell_length_a 26.240505
_cell_length_b 11.256983
_cell_length_c 19.354416
_cell_angle_alpha 90.000000
_cell_angle_beta 90.000000
_cell_angle_gamma 90.000000
_cell_volume 5717.080014
_symmetry_space_group_name_H-M "C C C M"
_symmetry_group_IT_number 66
_symmetry_cell_setting 'orthorhombic'
loop_
_space_group_symop_operation_xyz
x,y,z
-x,-y,z
x,-y,1/2-z
-x,y,1/2-z
-x,-y,-z
x,y,-z
-x,y,1/2+z
x,-y,1/2+z
1/2+x,1/2+y,z
1/2-x,1/2-y,z
1/2+x,1/2-y,1/2-z
1/2-x,1/2+y,1/2-z
1/2-x,1/2-y,-z
1/2+x,1/2+y,-z
1/2-x,1/2+y,1/2+z
1/2+x,1/2-y,1/2+z
loop_
_atom_site_type_symbol
_atom_site_label
_atom_site_fract_x
_atom_site_fract_y
_atom_site_fract_z
Si Si1 0.620071 0.745860 0.079336
Si Si2 0.686519 0.570468 0.853047
Si Si3 0.358076 0.077935 0.319366
Si Si4 0.209739 0.438340 0.922237
Si Si5 0.940711 0.527019 0.917777
Si Si6 0.803053 0.814241 0.704260
O O1 0.634083 0.630635 0.122908
O O2 0.671050 0.827776 0.082887
O O3 0.575682 0.837540 0.100716
O O4 0.611263 0.712439 0.000000
O O5 0.732191 0.593483 0.906719
O O6 0.701854 0.634223 0.781607
O O7 0.684236 0.429343 0.841408
O O8 0.345996 0.213024 0.300127
O O9 0.363159 0.000000 0.250000
O O10 0.310327 0.027295 0.363520
O O11 0.406007 0.056007 0.369587
O O12 0.204881 0.486694 0.000000
O O13 0.000000 0.500000 0.908611
O O14 0.928303 0.512863 0.000000
O O15 0.750000 0.750000 0.685953
#
# Coordination Sequence:
#
# PCOD9495927 Si02
#       6
#    16  16  16  16  16  16
#     4   9  17  30  50  74  97 128 170 215 261 309
#     4  11  20  31  48  69 105 145 183 215 254 314
#     4  11  20  34  54  78 107 138 176 222 271 321
#     4  10  19  32  50  73 102 139 183 222 257 305
#     4   9  19  37  60  82 103 129 168 225 282 322
#     4  11  21  32  46  72 105 147 182 212 261 316
#
# _framework density 16.791789000000001
#
# number of rings (size 3 to 8) (size 9 to 14) (size 15 to 20)
#    0.000    1.833    1.667    6.500    0.000    1.667 
#    0.000    4.167    0.000    1.000    0.000    5.833 
#    0.000    0.000    0.000    0.000    0.000    0.000 
#
# Total GULP energy -267636.623590 kJ/mol
# GULP energy per Si atom -5575.762991 kJ/mol
# Density = 1.675357 g / cm^3
# Si number density = 16.791789 Si / 1000 Ang^3
#
#
#
# Elastic Constant Matrix: (Units=GPa)
#
#
# Indices 1 2 3 4 5 6 
#
# 1 88.2095 49.5018 29.3742 0.0000 0.0000 0.0000
# 2 49.5018 120.0530 38.0164 0.0000 0.0000 0.0000
# 3 29.3742 38.0164 63.4468 0.0000 0.0000 0.0000
# 4 0.0000 0.0000 0.0000 18.6662 0.0000 0.0000
# 5 0.0000 0.0000 0.0000 0.0000 6.4195 0.0000
# 6 0.0000 0.0000 0.0000 0.0000 0.0000 20.4820
#
#
#
# Elastic Compliance Matrix: (Units=1/GPa)
#
#
# Indices 1 2 3 4 5 6 
#
# 1 0.015589 -0.005112 -0.004154 0.000000 0.000000 0.000000
# 2 -0.005112 0.011957 -0.004797 0.000000 0.000000 0.000000
# 3 -0.004154 -0.004797 0.020559 0.000000 0.000000 0.000000
# 4 0.000000 0.000000 0.000000 0.053573 0.000000 0.000000
# 5 0.000000 0.000000 0.000000 0.000000 0.155776 0.000000
# 6 0.000000 0.000000 0.000000 0.000000 0.000000 0.048823
#
#
# Mechanical properties :
#
#
# Convention : Reuss Voigt Hill
#
# Bulk Modulus (GPa) = 50.05740 56.16601 53.11170
# Shear Modulus (GPa) = 14.66002 19.43467 17.04735
#
# Velocity S-wave (km/s) = 2.95794 3.40574 3.18971
# Velocity P-wave (km/s) = 6.44525 6.99904 6.72784
#
# Compressibility (1/GPa) = 0.01997707
#
# Stress axis : x y z
#
# Youngs Moduli (GPa) = 64.14804 83.63402 48.64055
#
# Poissons Ratio (x) = 0.42757 0.20205
# Poissons Ratio (y) = 0.32795 0.23335
# Poissons Ratio (z) = 0.26647 0.40123
#
# Static dielectric constant tensor:
#      x y z
#    x 1.563380 0.000000 0.000000 
#    y 0.000000 1.587480 0.000000 
#    z 0.000000 0.000000 1.586790 
# 
# From -- ./inp_files/44250.got.cif
#   From: 2010.05.17/outbox.cif.g08.bks.cpg/sg66_23_cif.got.tgz:44250.got - 2010.06.03 17:51:23.
