data_PCOD9495321
_publ_section_title
;
Structure prediction by ZEFSAII (Michael W. Deem and Ramdas Pophale) SiO2 
 PCOD9495321
Probable space group: C C C M
;
_chemical_formula_sum "Si O2"
_cell_formula_units_Z 96
_cell_length_a 12.091452
_cell_length_b 26.738516
_cell_length_c 15.330213
_cell_angle_alpha 90.000000
_cell_angle_beta 90.000000
_cell_angle_gamma 90.000000
_cell_volume 4956.372575
_symmetry_space_group_name_H-M "C C C M"
_symmetry_group_IT_number 66
_symmetry_cell_setting 'orthorhombic'
loop_
_space_group_symop_operation_xyz
x,y,z
-x,-y,z
x,-y,1/2-z
-x,y,1/2-z
-x,-y,-z
x,y,-z
-x,y,1/2+z
x,-y,1/2+z
1/2+x,1/2+y,z
1/2-x,1/2-y,z
1/2+x,1/2-y,1/2-z
1/2-x,1/2+y,1/2-z
1/2-x,1/2-y,-z
1/2+x,1/2+y,-z
1/2-x,1/2+y,1/2+z
1/2+x,1/2-y,1/2+z
loop_
_atom_site_type_symbol
_atom_site_label
_atom_site_fract_x
_atom_site_fract_y
_atom_site_fract_z
Si Si1 0.544075 0.323524 0.155305
Si Si2 0.799354 0.801813 0.897600
Si Si3 0.100543 0.643118 0.605009
Si Si4 0.743509 0.122499 0.104855
Si Si5 0.094438 0.283556 0.395243
Si Si6 0.449260 0.947132 0.107165
O O1 0.500000 0.335055 0.250000
O O2 0.428874 0.312821 0.105929
O O3 0.629265 0.366353 0.126969
O O4 0.605121 0.269709 0.150071
O O5 0.750000 0.750000 0.859997
O O6 0.723025 0.846445 0.860721
O O7 0.771994 0.799854 0.000000
O O8 0.101714 0.635704 0.500000
O O9 0.026632 0.692588 0.620044
O O10 0.034815 0.595452 0.638287
O O11 0.676143 0.172260 0.132960
O O12 0.672429 0.073882 0.133943
O O13 0.736630 0.122230 0.000000
O O14 0.107855 0.275570 0.500000
O O15 0.500000 0.000000 0.135490
O O16 0.447277 0.948359 0.000000
#
# Coordination Sequence:
#
# PCOD9495321 Si02
#       6
#    16  16  16  16  16  16
#     4  12  23  30  41  66 104 139 172 203 248 296
#     4  10  18  30  48  65  91 132 173 203 233 291
#     4   8  14  26  47  73  95 122 158 197 245 294
#     4   9  18  32  51  72  98 134 172 209 258 317
#     4   9  16  31  50  66  92 132 176 211 244 301
#     4   8  14  27  52  83 104 115 145 210 272 303
#
# _framework density 19.369002999999999
#
# number of rings (size 3 to 8) (size 9 to 14) (size 15 to 20)
#    0.000    2.667    1.667    4.000    0.000    2.667 
#    0.000    0.000    0.000    1.000    0.000    9.333 
#    0.000    0.000    0.000    0.000    0.000    0.667 
#
# Total GULP energy -267249.986939 kJ/mol
# GULP energy per Si atom -5567.708061 kJ/mol
# Density = 1.932492 g / cm^3
# Si number density = 19.369003 Si / 1000 Ang^3
#
#
#
# Elastic Constant Matrix: (Units=GPa)
#
#
# Indices 1 2 3 4 5 6 
#
# 1 121.8602 67.8153 11.8997 0.0000 0.0000 0.0000
# 2 67.8153 111.9630 11.0735 0.0000 0.0000 0.0000
# 3 11.8997 11.0735 9.2419 0.0000 0.0000 0.0000
# 4 0.0000 0.0000 0.0000 -13.7619 0.0000 0.0000
# 5 0.0000 0.0000 0.0000 0.0000 6.3158 0.0000
# 6 0.0000 0.0000 0.0000 0.0000 0.0000 12.2669
#
#
#
# Elastic Compliance Matrix: (Units=1/GPa)
#
#
# Indices 1 2 3 4 5 6 
#
# 1 0.012907 -0.007004 -0.008227 0.000000 0.000000 0.000000
# 2 -0.007004 0.013933 -0.007676 0.000000 0.000000 0.000000
# 3 -0.008227 -0.007676 0.127993 0.000000 0.000000 0.000000
# 4 0.000000 0.000000 0.000000 -0.072664 0.000000 0.000000
# 5 0.000000 0.000000 0.000000 0.000000 0.158334 0.000000
# 6 0.000000 0.000000 0.000000 0.000000 0.000000 0.081520
#
#
# Mechanical properties :
#
#
# Convention : Reuss Voigt Hill
#
# Bulk Modulus (GPa) = 9.17272 47.18245 28.17758
# Shear Modulus (GPa) = 12.37084 11.11594 11.74339
#
# Velocity S-wave (km/s) = 2.52998 2.39823 2.46498
# Velocity P-wave (km/s) = 3.64423 5.66404 4.76244
#
# Compressibility (1/GPa) = 0.10901898
#
# Stress axis : x y z
#
# Youngs Moduli (GPa) = 77.47527 71.77144 7.81296
#
# Poissons Ratio (x) = 0.50270 0.06428
# Poissons Ratio (y) = 0.54266 0.05997
# Poissons Ratio (z) = 0.63738 0.55091
#
# Static dielectric constant tensor:
#      x y z
#    x 1.840940 0.000000 0.000000 
#    y 0.000000 1.683780 0.000000 
#    z 0.000000 0.000000 1.697350 
# 
# From -- ./inp_files/39035.got.cif
#   From: 2010.05.17/outbox.cif.g08.bks.cpg/sg66_20_cif.got.tgz:39035.got - 2010.06.03 17:51:23.
