data_PCOD9495582
_publ_section_title
;
Structure prediction by ZEFSAII (Michael W. Deem and Ramdas Pophale) SiO2 
 PCOD9495582
Probable space group: C C C M
;
_chemical_formula_sum "Si O2"
_cell_formula_units_Z 56
_cell_length_a 26.978948
_cell_length_b 13.994325
_cell_length_c 9.602866
_cell_angle_alpha 90.000000
_cell_angle_beta 90.000000
_cell_angle_gamma 90.000000
_cell_volume 3625.582863
_symmetry_space_group_name_H-M "C C C M"
_symmetry_group_IT_number 66
_symmetry_cell_setting 'orthorhombic'
loop_
_space_group_symop_operation_xyz
x,y,z
-x,-y,z
x,-y,1/2-z
-x,y,1/2-z
-x,-y,-z
x,y,-z
-x,y,1/2+z
x,-y,1/2+z
1/2+x,1/2+y,z
1/2-x,1/2-y,z
1/2+x,1/2-y,1/2-z
1/2-x,1/2+y,1/2-z
1/2-x,1/2-y,-z
1/2+x,1/2+y,-z
1/2-x,1/2+y,1/2+z
1/2+x,1/2-y,1/2+z
loop_
_atom_site_type_symbol
_atom_site_label
_atom_site_fract_x
_atom_site_fract_y
_atom_site_fract_z
Si Si1 0.452740 0.099947 0.833158
Si Si2 0.798934 0.182508 0.500000
Si Si3 0.654550 0.816179 0.794331
Si Si4 0.796759 0.677409 0.500000
Si Si5 0.784343 0.548949 0.000000
O O1 0.500000 0.142086 0.750000
O O2 0.402635 0.159648 0.816591
O O3 0.444161 0.000000 0.750000
O O4 0.461709 0.086503 0.000000
O O5 0.750000 0.250000 0.500000
O O6 0.830123 0.217722 0.630858
O O7 0.773071 0.081141 0.500000
O O8 0.670803 0.808040 0.636888
O O9 0.686474 0.901177 0.870207
O O10 0.750000 0.750000 0.500000
O O11 0.784678 0.564425 0.500000
#
# Coordination Sequence:
#
# PCOD9495582 Si02
#       5
#    16   8  16   8   8
#     4  11  21  32  47  70  98 131 168 202 244 294
#     4   8  16  34  49  64  88 130 168 191 227 295
#     4  10  20  32  49  68  97 131 166 195 241 283
#     4  12  22  30  46  77 102 124 160 211 239 286
#     4  10  18  34  51  64  94 137 164 187 245 296
#
# _framework density 15.445793
#
# number of rings (size 3 to 8) (size 9 to 14) (size 15 to 20)
#    0.000    2.000    2.857    6.857    4.000    0.000 
#    0.000    0.000    0.000    0.000    0.000    0.000 
#    0.000    6.857    0.000    0.000    0.000    0.000 
#
# Total GULP energy -155913.750493 kJ/mol
# GULP energy per Si atom -5568.348232 kJ/mol
# Density = 1.541064 g / cm^3
# Si number density = 15.445793 Si / 1000 Ang^3
#
#
#
# Elastic Constant Matrix: (Units=GPa)
#
#
# Indices 1 2 3 4 5 6 
#
# 1 132.8326 36.5126 60.3673 0.0000 0.0000 0.0000
# 2 36.5126 36.6581 26.2346 0.0000 0.0000 0.0000
# 3 60.3673 26.2346 172.1010 0.0000 0.0000 0.0000
# 4 0.0000 0.0000 0.0000 -4.1134 0.0000 0.0000
# 5 0.0000 0.0000 0.0000 0.0000 27.7034 0.0000
# 6 0.0000 0.0000 0.0000 0.0000 0.0000 25.2342
#
#
#
# Elastic Compliance Matrix: (Units=1/GPa)
#
#
# Indices 1 2 3 4 5 6 
#
# 1 0.011259 -0.009415 -0.002514 0.000000 0.000000 0.000000
# 2 -0.009415 0.038492 -0.002565 0.000000 0.000000 0.000000
# 3 -0.002514 -0.002565 0.007083 0.000000 0.000000 0.000000
# 4 0.000000 0.000000 0.000000 -0.243110 0.000000 0.000000
# 5 0.000000 0.000000 0.000000 0.000000 0.036097 0.000000
# 6 0.000000 0.000000 0.000000 0.000000 0.000000 0.039629
#
#
# Mechanical properties :
#
#
# Convention : Reuss Voigt Hill
#
# Bulk Modulus (GPa) = 35.91145 65.31340 50.61242
# Shear Modulus (GPa) = -69.17504 24.33001 -22.42251
#
# Velocity S-wave (km/s) = -6.69947 3.97317 -3.81424
# Velocity P-wave (km/s) = 6.04512 7.96401 3.66620
#
# Compressibility (1/GPa) = 0.02784627
#
# Stress axis : x y z
#
# Youngs Moduli (GPa) = 88.82013 25.97919 141.17490
#
# Poissons Ratio (x) = 0.24459 0.35491
# Poissons Ratio (y) = 0.83623 0.36215
# Poissons Ratio (z) = 0.22329 0.06664
#
# Static dielectric constant tensor:
#      x y z
#    x 1.528350 0.000000 0.000000 
#    y 0.000000 1.526730 0.000000 
#    z 0.000000 0.000000 1.534600 
# 
# From -- ./inp_files/9837.got.cif
#   From: 2010.05.17/outbox.cif.g08.bks.cpg/sg66_5_cif.got.tgz:9837.got - 2010.06.03 17:51:23.
