data_PCOD9495637
_publ_section_title
;
Structure prediction by ZEFSAII (Michael W. Deem and Ramdas Pophale) SiO2 
 PCOD9495637
Probable space group: C C C M
;
_chemical_formula_sum "Si O2"
_cell_formula_units_Z 112
_cell_length_a 12.350365
_cell_length_b 26.383292
_cell_length_c 18.603595
_cell_angle_alpha 90.000000
_cell_angle_beta 90.000000
_cell_angle_gamma 90.000000
_cell_volume 6061.856528
_symmetry_space_group_name_H-M "C C C M"
_symmetry_group_IT_number 66
_symmetry_cell_setting 'orthorhombic'
loop_
_space_group_symop_operation_xyz
x,y,z
-x,-y,z
x,-y,1/2-z
-x,y,1/2-z
-x,-y,-z
x,y,-z
-x,y,1/2+z
x,-y,1/2+z
1/2+x,1/2+y,z
1/2-x,1/2-y,z
1/2+x,1/2-y,1/2-z
1/2-x,1/2+y,1/2-z
1/2-x,1/2-y,-z
1/2+x,1/2+y,-z
1/2-x,1/2+y,1/2+z
1/2+x,1/2-y,1/2+z
loop_
_atom_site_type_symbol
_atom_site_label
_atom_site_fract_x
_atom_site_fract_y
_atom_site_fract_z
Si Si1 0.780819 0.192000 0.586238
Si Si2 0.487502 0.646064 0.082206
Si Si3 0.356609 0.892308 0.669013
Si Si4 0.057846 0.046541 0.327594
Si Si5 0.753201 0.805984 0.583393
Si Si6 0.387739 0.108220 0.659968
Si Si7 0.697452 0.994719 0.330192
O O1 0.763289 0.185849 0.500000
O O2 0.750000 0.250000 0.604114
O O3 0.906316 0.178301 0.601627
O O4 0.710202 0.151937 0.630842
O O5 0.464055 0.598226 0.132024
O O6 0.378275 0.678257 0.084771
O O7 0.503187 0.628491 0.000000
O O8 0.483879 0.885122 0.653948
O O9 0.349909 0.890326 0.756189
O O10 0.312721 0.947654 0.642708
O O11 0.181587 0.028132 0.321788
O O12 0.000000 0.051371 0.250000
O O13 0.000000 0.000000 0.367255
O O14 0.717637 0.802721 0.500000
O O15 0.750000 0.750000 0.616481
O O16 0.679936 0.848409 0.620563
O O17 0.363575 0.051291 0.631312
O O18 0.648317 0.000000 0.250000
#
# Coordination Sequence:
#
# PCOD9495637 Si02
#       7
#    16  16  16  16  16  16  16
#     4  10  23  41  61  83 113 156 197 237 288 347
#     4  10  22  39  57  85 117 147 190 240 292 339
#     4  10  22  38  60  86 118 153 194 238 286 340
#     4  11  20  32  57  88 113 152 192 228 279 344
#     4  10  22  39  62  86 114 153 194 241 291 344
#     4  10  21  38  60  89 116 152 193 237 290 344
#     4  10  18  35  57  86 118 149 189 233 286 344
#
# _framework density 18.476186999999999
#
# number of rings (size 3 to 8) (size 9 to 14) (size 15 to 20)
#    0.000    1.857    2.857    1.286    4.000    3.143 
#    0.000    1.429    0.000    1.714    0.000    0.000 
#    0.000    0.000    0.000    0.000    0.000    0.000 
#
# Total GULP energy -312131.387633 kJ/mol
# GULP energy per Si atom -5573.774779 kJ/mol
# Density = 1.843413 g / cm^3
# Si number density = 18.476187 Si / 1000 Ang^3
#
#
#
# Elastic Constant Matrix: (Units=GPa)
#
#
# Indices 1 2 3 4 5 6 
#
# 1 111.8594 63.9289 40.5060 0.0000 0.0000 0.0000
# 2 63.9289 184.4170 57.2233 0.0000 0.0000 0.0000
# 3 40.5060 57.2233 37.0861 0.0000 0.0000 0.0000
# 4 0.0000 0.0000 0.0000 33.7956 0.0000 0.0000
# 5 0.0000 0.0000 0.0000 0.0000 1.2090 0.0000
# 6 0.0000 0.0000 0.0000 0.0000 0.0000 6.9852
#
#
#
# Elastic Compliance Matrix: (Units=1/GPa)
#
#
# Indices 1 2 3 4 5 6 
#
# 1 0.014794 -0.000220 -0.015818 0.000000 0.000000 0.000000
# 2 -0.000220 0.010407 -0.015817 0.000000 0.000000 0.000000
# 3 -0.015818 -0.015817 0.068647 0.000000 0.000000 0.000000
# 4 0.000000 0.000000 0.000000 0.029590 0.000000 0.000000
# 5 0.000000 0.000000 0.000000 0.000000 0.827096 0.000000
# 6 0.000000 0.000000 0.000000 0.000000 0.000000 0.143160
#
#
# Mechanical properties :
#
#
# Convention : Reuss Voigt Hill
#
# Bulk Modulus (GPa) = 33.18266 72.96433 53.07349
# Shear Modulus (GPa) = 4.28284 19.84492 12.06388
#
# Velocity S-wave (km/s) = 1.52416 3.28087 2.55805
# Velocity P-wave (km/s) = 4.59305 7.34363 6.12475
#
# Compressibility (1/GPa) = 0.03013622
#
# Stress axis : x y z
#
# Youngs Moduli (GPa) = 67.59686 96.09220 14.56729
#
# Poissons Ratio (x) = 0.02113 0.23043
# Poissons Ratio (y) = 0.01486 0.23041
# Poissons Ratio (z) = 1.06928 1.51990
#
# Static dielectric constant tensor:
#      x y z
#    x 1.664270 0.000000 0.000000 
#    y 0.000000 1.684690 0.000000 
#    z 0.000000 0.000000 1.645750 
# 
# From -- ./inp_files/49041.got.cif
#   From: 2010.05.17/outbox.cif.g08.bks.cpg/sg66_25_cif.got.tgz:49041.got - 2010.06.03 17:51:23.
