data_PCOD9495435
_publ_section_title
;
Structure prediction by ZEFSAII (Michael W. Deem and Ramdas Pophale) SiO2 
 PCOD9495435
Probable space group: C C C M
;
_chemical_formula_sum "Si O2"
_cell_formula_units_Z 112
_cell_length_a 27.286899
_cell_length_b 11.642648
_cell_length_c 17.848513
_cell_angle_alpha 90.000000
_cell_angle_beta 90.000000
_cell_angle_gamma 90.000000
_cell_volume 5670.325510
_symmetry_space_group_name_H-M "C C C M"
_symmetry_group_IT_number 66
_symmetry_cell_setting 'orthorhombic'
loop_
_space_group_symop_operation_xyz
x,y,z
-x,-y,z
x,-y,1/2-z
-x,y,1/2-z
-x,-y,-z
x,y,-z
-x,y,1/2+z
x,-y,1/2+z
1/2+x,1/2+y,z
1/2-x,1/2-y,z
1/2+x,1/2-y,1/2-z
1/2-x,1/2+y,1/2-z
1/2-x,1/2-y,-z
1/2+x,1/2+y,-z
1/2-x,1/2+y,1/2+z
1/2+x,1/2-y,1/2+z
loop_
_atom_site_type_symbol
_atom_site_label
_atom_site_fract_x
_atom_site_fract_y
_atom_site_fract_z
Si Si1 0.943578 0.486741 0.339104
Si Si2 0.246979 0.385473 0.591462
Si Si3 0.096917 0.141278 0.586279
Si Si4 0.860311 0.377990 0.086244
Si Si5 0.405064 0.751530 0.409573
Si Si6 0.498149 0.637719 0.664726
Si Si7 0.334814 0.444695 0.091365
O O1 0.944763 0.500000 0.250000
O O2 0.907512 0.582723 0.369996
O O3 0.917240 0.370690 0.368232
O O4 0.000000 0.500000 0.366269
O O5 0.249096 0.382376 0.500000
O O6 0.250000 0.250000 0.615192
O O7 0.191928 0.421993 0.613750
O O8 0.286142 0.483846 0.615282
O O9 0.084005 0.119267 0.500000
O O10 0.138022 0.239708 0.587319
O O11 0.121270 0.027390 0.618158
O O12 0.047987 0.177924 0.626633
O O13 0.865992 0.414489 0.000000
O O14 0.405692 0.765691 0.500000
O O15 0.451184 0.675770 0.382161
O O16 0.354401 0.683407 0.388998
O O17 0.500000 0.500000 0.666201
O O18 0.500000 0.681847 0.750000
O O19 0.333550 0.446128 0.000000
#
# Coordination Sequence:
#
# PCOD9495435 Si02
#       7
#    16  16  16  16  16  16  16
#     4  11  26  44  62  82 113 161 210 259 316 380
#     4   9  15  29  56  92 125 154 196 248 299 355
#     4  10  18  31  54  84 115 153 199 254 305 356
#     4  10  20  35  61  89 115 152 203 252 294 356
#     4  11  23  39  61  87 122 164 207 262 317 375
#     4  11  23  34  51  83 125 162 204 248 310 381
#     4   9  17  31  54  90 127 153 191 250 316 365
#
# _framework density 19.751951999999999
#
# number of rings (size 3 to 8) (size 9 to 14) (size 15 to 20)
#    0.000    1.857    2.857    1.714    4.000    2.857 
#    0.000    0.714    0.000    6.857    0.000    0.000 
#    0.000    0.000    0.000    0.000    0.000    0.000 
#
# Total GULP energy -311873.277237 kJ/mol
# GULP energy per Si atom -5569.165665 kJ/mol
# Density = 1.970700 g / cm^3
# Si number density = 19.751952 Si / 1000 Ang^3
#
#
#
# Elastic Constant Matrix: (Units=GPa)
#
#
# Indices 1 2 3 4 5 6 
#
# 1 126.0998 34.8727 29.5595 0.0000 0.0000 0.0000
# 2 34.8727 89.9286 20.8813 0.0000 0.0000 0.0000
# 3 29.5595 20.8813 41.7864 0.0000 0.0000 0.0000
# 4 0.0000 0.0000 0.0000 -17.9137 0.0000 0.0000
# 5 0.0000 0.0000 0.0000 0.0000 -0.7600 0.0000
# 6 0.0000 0.0000 0.0000 0.0000 0.0000 31.9500
#
#
#
# Elastic Compliance Matrix: (Units=1/GPa)
#
#
# Indices 1 2 3 4 5 6 
#
# 1 0.009989 -0.002526 -0.005804 0.000000 0.000000 0.000000
# 2 -0.002526 0.013218 -0.004819 0.000000 0.000000 0.000000
# 3 -0.005804 -0.004819 0.030445 0.000000 0.000000 0.000000
# 4 0.000000 0.000000 0.000000 -0.055823 0.000000 0.000000
# 5 0.000000 0.000000 0.000000 0.000000 -1.315813 0.000000
# 6 0.000000 0.000000 0.000000 0.000000 0.000000 0.031299
#
#
# Mechanical properties :
#
#
# Convention : Reuss Voigt Hill
#
# Bulk Modulus (GPa) = 36.55598 47.60466 42.08032
# Shear Modulus (GPa) = -3.99594 14.15534 5.07970
#
# Velocity S-wave (km/s) = -1.42389 2.67995 1.60541
# Velocity P-wave (km/s) = 3.98051 5.80773 4.97866
#
# Compressibility (1/GPa) = 0.02735530
#
# Stress axis : x y z
#
# Youngs Moduli (GPa) = 100.10661 75.65259 32.84617
#
# Poissons Ratio (x) = 0.19110 0.19064
# Poissons Ratio (y) = 0.25287 0.15827
# Poissons Ratio (z) = 0.58103 0.36453
#
# Static dielectric constant tensor:
#      x y z
#    x 1.703510 0.000000 0.000000 
#    y 0.000000 1.813230 0.000000 
#    z 0.000000 0.000000 1.820740 
# 
# From -- ./inp_files/53137.got.cif
#   From: 2010.05.17/outbox.cif.g08.bks.cpg/sg66_27_cif.got.tgz:53137.got - 2010.06.03 17:51:23.
