data_PCOD9495623
_publ_section_title
;
Structure prediction by ZEFSAII (Michael W. Deem and Ramdas Pophale) SiO2 
 PCOD9495623
Probable space group: C C C M
;
_chemical_formula_sum "Si O2"
_cell_formula_units_Z 64
_cell_length_a 12.776112
_cell_length_b 16.307111
_cell_length_c 16.171550
_cell_angle_alpha 90.000000
_cell_angle_beta 90.000000
_cell_angle_gamma 90.000000
_cell_volume 3369.204605
_symmetry_space_group_name_H-M "C C C M"
_symmetry_group_IT_number 66
_symmetry_cell_setting 'orthorhombic'
loop_
_space_group_symop_operation_xyz
x,y,z
-x,-y,z
x,-y,1/2-z
-x,y,1/2-z
-x,-y,-z
x,y,-z
-x,y,1/2+z
x,-y,1/2+z
1/2+x,1/2+y,z
1/2-x,1/2-y,z
1/2+x,1/2-y,1/2-z
1/2-x,1/2+y,1/2-z
1/2-x,1/2-y,-z
1/2+x,1/2+y,-z
1/2-x,1/2+y,1/2+z
1/2+x,1/2-y,1/2+z
loop_
_atom_site_type_symbol
_atom_site_label
_atom_site_fract_x
_atom_site_fract_y
_atom_site_fract_z
Si Si1 0.663622 0.019103 0.098870
Si Si2 0.363909 0.290233 0.099246
Si Si3 0.111597 0.974094 0.345128
Si Si4 0.481530 0.868120 0.398952
O O1 0.593132 0.095495 0.128573
O O2 0.784936 0.017116 0.119445
O O3 0.605324 0.935546 0.127259
O O4 0.654323 0.018647 0.000000
O O5 0.250000 0.250000 0.112376
O O6 0.375016 0.377036 0.142911
O O7 0.448486 0.222458 0.126968
O O8 0.373514 0.304100 0.000000
O O9 0.109156 0.000000 0.250000
O O10 0.000000 0.000000 0.383238
O O11 0.479698 0.866666 0.500000
#
# Coordination Sequence:
#
# PCOD9495623 Si02
#       4
#    16  16  16  16
#     4   9  16  32  59  88 115 139 175 236 292 334
#     4  10  18  34  63  90 108 143 197 239 275 337
#     4  11  24  39  51  75 119 162 196 227 280 342
#     4   8  15  29  57  93 114 129 172 240 292 323
#
# _framework density 18.995581000000001
#
# number of rings (size 3 to 8) (size 9 to 14) (size 15 to 20)
#    0.000    2.500    2.500    2.250    0.000    2.000 
#    0.000    8.750    0.000    4.500    0.000    0.000 
#    0.000    0.000    0.000    0.000    0.000    0.000 
#
# Total GULP energy -178390.165513 kJ/mol
# GULP energy per Si atom -5574.692672 kJ/mol
# Density = 1.895235 g / cm^3
# Si number density = 18.995581 Si / 1000 Ang^3
#
#
#
# Elastic Constant Matrix: (Units=GPa)
#
#
# Indices 1 2 3 4 5 6 
#
# 1 157.7089 72.0093 17.3231 0.0000 0.0000 0.0000
# 2 72.0093 149.2428 40.1011 0.0000 0.0000 0.0000
# 3 17.3231 40.1011 18.7054 0.0000 0.0000 0.0000
# 4 0.0000 0.0000 0.0000 115.2669 0.0000 0.0000
# 5 0.0000 0.0000 0.0000 0.0000 22.6452 0.0000
# 6 0.0000 0.0000 0.0000 0.0000 0.0000 31.5310
#
#
#
# Elastic Compliance Matrix: (Units=1/GPa)
#
#
# Indices 1 2 3 4 5 6 
#
# 1 0.008167 -0.004501 0.002086 0.000000 0.000000 0.000000
# 2 -0.004501 0.018285 -0.035032 0.000000 0.000000 0.000000
# 3 0.002086 -0.035032 0.126631 0.000000 0.000000 0.000000
# 4 0.000000 0.000000 0.000000 0.008676 0.000000 0.000000
# 5 0.000000 0.000000 0.000000 0.000000 0.044160 0.000000
# 6 0.000000 0.000000 0.000000 0.000000 0.000000 0.031715
#
#
# Mechanical properties :
#
#
# Convention : Reuss Voigt Hill
#
# Bulk Modulus (GPa) = 12.78946 64.94709 38.86828
# Shear Modulus (GPa) = 14.76713 46.97017 30.86865
#
# Velocity S-wave (km/s) = 2.79121 4.97801 4.03556
# Velocity P-wave (km/s) = 4.13948 8.20400 6.49773
#
# Compressibility (1/GPa) = 0.07818937
#
# Stress axis : x y z
#
# Youngs Moduli (GPa) = 122.44721 54.68922 7.89695
#
# Poissons Ratio (x) = 0.24615 -0.01647
# Poissons Ratio (y) = 0.55113 0.27664
# Poissons Ratio (z) = -0.25542 1.91587
#
# Static dielectric constant tensor:
#      x y z
#    x 1.705800 0.000000 0.000000 
#    y 0.000000 1.647840 0.000000 
#    z 0.000000 0.000000 1.681100 
# 
# From -- ./inp_files/29699.got.cif
#   From: 2010.05.17/outbox.cif.g08.bks.cpg/sg66_15_cif.got.tgz:29699.got - 2010.06.03 17:51:23.
