data_PCOD9495943
_publ_section_title
;
Structure prediction by ZEFSAII (Michael W. Deem and Ramdas Pophale) SiO2 
 PCOD9495943
Probable space group: C C C M
;
_chemical_formula_sum "Si O2"
_cell_formula_units_Z 80
_cell_length_a 7.399093
_cell_length_b 27.172118
_cell_length_c 18.494119
_cell_angle_alpha 90.000000
_cell_angle_beta 90.000000
_cell_angle_gamma 90.000000
_cell_volume 3718.224650
_symmetry_space_group_name_H-M "C C C M"
_symmetry_group_IT_number 66
_symmetry_cell_setting 'orthorhombic'
loop_
_space_group_symop_operation_xyz
x,y,z
-x,-y,z
x,-y,1/2-z
-x,y,1/2-z
-x,-y,-z
x,y,-z
-x,y,1/2+z
x,-y,1/2+z
1/2+x,1/2+y,z
1/2-x,1/2-y,z
1/2+x,1/2-y,1/2-z
1/2-x,1/2+y,1/2-z
1/2-x,1/2-y,-z
1/2+x,1/2+y,-z
1/2-x,1/2+y,1/2+z
1/2+x,1/2-y,1/2+z
loop_
_atom_site_type_symbol
_atom_site_label
_atom_site_fract_x
_atom_site_fract_y
_atom_site_fract_z
Si Si1 0.410785 0.946801 0.916548
Si Si2 0.534285 0.748218 0.334209
Si Si3 0.471976 0.841896 0.081298
Si Si4 0.947309 0.945531 0.665939
Si Si5 0.029929 0.151419 0.416911
O O1 0.534034 0.898196 0.908058
O O2 0.264325 0.943707 0.853164
O O3 0.500000 0.000000 0.912539
O O4 0.335243 0.942675 0.000000
O O5 0.500000 0.741977 0.250000
O O6 0.750000 0.750000 0.345646
O O7 0.465417 0.800627 0.363227
O O8 0.465577 0.701016 0.378011
O O9 0.251367 0.846134 0.084706
O O10 0.516648 0.825616 0.000000
O O11 0.024859 0.898396 0.623988
O O12 0.000000 0.942198 0.750000
O O13 0.000000 0.000000 0.639043
O O14 0.973892 0.150172 0.500000
#
# Coordination Sequence:
#
# PCOD9495943 Si02
#       5
#    16  16  16  16  16
#     4   9  18  35  58  81 105 137 180 226 266 309
#     4  10  19  32  51  75 103 133 166 206 257 313
#     4   8  15  30  53  78 100 127 171 219 257 301
#     4  10  20  34  51  78 112 141 172 212 264 320
#     4   9  17  31  54  78  99 130 173 217 255 301
#
# _framework density 21.515644000000002
#
# number of rings (size 3 to 8) (size 9 to 14) (size 15 to 20)
#    0.000    2.800    0.000    3.000    0.000    4.000 
#    0.000   16.000    0.000    4.800    0.000    0.000 
#    0.000    0.000    0.000    0.000    0.000    0.000 
#
# Total GULP energy -223091.857700 kJ/mol
# GULP energy per Si atom -5577.296442 kJ/mol
# Density = 2.146667 g / cm^3
# Si number density = 21.515644 Si / 1000 Ang^3
#
#
#
# Elastic Constant Matrix: (Units=GPa)
#
#
# Indices 1 2 3 4 5 6 
#
# 1 50.9804 3.2683 16.4070 0.0000 0.0000 0.0000
# 2 3.2683 215.5290 104.9894 0.0000 0.0000 0.0000
# 3 16.4070 104.9894 142.3298 0.0000 0.0000 0.0000
# 4 0.0000 0.0000 0.0000 46.3384 0.0000 0.0000
# 5 0.0000 0.0000 0.0000 0.0000 -15.2175 0.0000
# 6 0.0000 0.0000 0.0000 0.0000 0.0000 7.1319
#
#
#
# Elastic Compliance Matrix: (Units=1/GPa)
#
#
# Indices 1 2 3 4 5 6 
#
# 1 0.020608 0.001318 -0.003348 0.000000 0.000000 0.000000
# 2 0.001318 0.007326 -0.005556 0.000000 0.000000 0.000000
# 3 -0.003348 -0.005556 0.011510 0.000000 0.000000 0.000000
# 4 0.000000 0.000000 0.000000 0.021580 0.000000 0.000000
# 5 0.000000 0.000000 0.000000 0.000000 -0.065714 0.000000
# 6 0.000000 0.000000 0.000000 0.000000 0.000000 0.140215
#
#
# Mechanical properties :
#
#
# Convention : Reuss Voigt Hill
#
# Bulk Modulus (GPa) = 41.19758 73.12983 57.16370
# Shear Modulus (GPa) = 31.48813 26.59552 29.04182
#
# Velocity S-wave (km/s) = 3.82972 3.51964 3.67795
# Velocity P-wave (km/s) = 6.22455 7.11197 6.68300
#
# Compressibility (1/GPa) = 0.02427327
#
# Stress axis : x y z
#
# Youngs Moduli (GPa) = 48.52386 136.49385 86.87752
#
# Poissons Ratio (x) = -0.17997 0.29088
# Poissons Ratio (y) = -0.06398 0.48271
# Poissons Ratio (z) = 0.16247 0.75839
#
# Static dielectric constant tensor:
#      x y z
#    x 1.851970 0.000000 0.000000 
#    y 0.000000 1.812050 0.000000 
#    z 0.000000 0.000000 1.741710 
# 
# From -- ./inp_files/36997.got.cif
#   From: 2010.05.17/outbox.cif.g08.bks.cpg/sg66_19_cif.got.tgz:36997.got - 2010.06.03 17:51:23.
