data_PCOD9495770
_publ_section_title
;
Structure prediction by ZEFSAII (Michael W. Deem and Ramdas Pophale) SiO2 
 PCOD9495770
Probable space group: C C C M
;
_chemical_formula_sum "Si O2"
_cell_formula_units_Z 128
_cell_length_a 17.889839
_cell_length_b 24.776847
_cell_length_c 18.984149
_cell_angle_alpha 90.000000
_cell_angle_beta 90.000000
_cell_angle_gamma 90.000000
_cell_volume 8414.796255
_symmetry_space_group_name_H-M "C C C M"
_symmetry_group_IT_number 66
_symmetry_cell_setting 'orthorhombic'
loop_
_space_group_symop_operation_xyz
x,y,z
-x,-y,z
x,-y,1/2-z
-x,y,1/2-z
-x,-y,-z
x,y,-z
-x,y,1/2+z
x,-y,1/2+z
1/2+x,1/2+y,z
1/2-x,1/2-y,z
1/2+x,1/2-y,1/2-z
1/2-x,1/2+y,1/2-z
1/2-x,1/2-y,-z
1/2+x,1/2+y,-z
1/2-x,1/2+y,1/2+z
1/2+x,1/2-y,1/2+z
loop_
_atom_site_type_symbol
_atom_site_label
_atom_site_fract_x
_atom_site_fract_y
_atom_site_fract_z
Si Si1 0.009536 0.914391 0.579067
Si Si2 0.336543 0.548668 0.082798
Si Si3 0.519871 0.284812 0.421143
Si Si4 0.873355 0.040487 0.312583
Si Si5 0.196294 0.873934 0.206319
Si Si6 0.073588 0.779142 0.792926
Si Si7 0.829712 0.279843 0.577437
Si Si8 0.810955 0.701196 0.773603
O O1 0.037520 0.930202 0.500000
O O2 0.014767 0.849628 0.583426
O O3 0.057482 0.936642 0.643331
O O4 0.924956 0.935605 0.584048
O O5 0.328568 0.493582 0.127928
O O6 0.299345 0.594010 0.132715
O O7 0.314793 0.546359 0.000000
O O8 0.500403 0.268939 0.500000
O O9 0.460049 0.262146 0.367380
O O10 0.603951 0.263436 0.408351
O O11 0.828389 0.086587 0.270400
O O12 0.897029 0.000000 0.250000
O O13 0.131624 0.828354 0.200814
O O14 0.272827 0.844477 0.227097
O O15 0.115608 0.729302 0.757066
O O16 0.000000 0.796884 0.750000
O O17 0.843311 0.304202 0.500000
O O18 0.750000 0.250000 0.573598
O O19 0.825694 0.316880 0.646140
O O20 0.750000 0.750000 0.776812
#
# Coordination Sequence:
#
# PCOD9495770 Si02
#       8
#    16  16  16  16  16  16  16  16
#     4  10  19  30  44  62  90 123 158 197 233 269
#     4  10  20  34  47  61  88 123 160 197 236 272
#     4  10  19  30  46  68  91 126 165 195 228 273
#     4  10  21  31  43  64  87 117 157 199 239 273
#     4  10  21  32  47  66  95 124 159 195 233 277
#     4  11  18  30  48  68  91 124 159 193 229 271
#     4   9  17  29  43  63  93 124 155 189 231 274
#     4   9  19  31  45  67  92 122 156 192 231 276
#
# _framework density 15.211301000000001
#
# number of rings (size 3 to 8) (size 9 to 14) (size 15 to 20)
#    0.000    2.125    2.500    1.500    3.500    4.000 
#    0.000    1.250    0.000    2.250    0.000    0.000 
#    0.000    4.500    0.000    1.125    0.000    0.000 
#
# Total GULP energy -356446.283538 kJ/mol
# GULP energy per Si atom -5569.473180 kJ/mol
# Density = 1.517668 g / cm^3
# Si number density = 15.211301 Si / 1000 Ang^3
#
#
#
# Elastic Constant Matrix: (Units=GPa)
#
#
# Indices 1 2 3 4 5 6 
#
# 1 41.5313 13.1888 32.0264 0.0000 0.0000 0.0000
# 2 13.1888 25.4026 33.3377 0.0000 0.0000 0.0000
# 3 32.0264 33.3377 136.3319 0.0000 0.0000 0.0000
# 4 0.0000 0.0000 0.0000 28.1425 0.0000 0.0000
# 5 0.0000 0.0000 0.0000 0.0000 12.0096 0.0000
# 6 0.0000 0.0000 0.0000 0.0000 0.0000 10.6645
#
#
#
# Elastic Compliance Matrix: (Units=1/GPa)
#
#
# Indices 1 2 3 4 5 6 
#
# 1 0.030918 -0.009602 -0.004915 0.000000 0.000000 0.000000
# 2 -0.009602 0.060952 -0.012649 0.000000 0.000000 0.000000
# 3 -0.004915 -0.012649 0.011583 0.000000 0.000000 0.000000
# 4 0.000000 0.000000 0.000000 0.035533 0.000000 0.000000
# 5 0.000000 0.000000 0.000000 0.000000 0.083266 0.000000
# 6 0.000000 0.000000 0.000000 0.000000 0.000000 0.093769
#
#
# Mechanical properties :
#
#
# Convention : Reuss Voigt Hill
#
# Bulk Modulus (GPa) = 20.35826 40.04127 30.19977
# Shear Modulus (GPa) = 12.92906 18.47753 15.70330
#
# Velocity S-wave (km/s) = 2.91858 3.48907 3.21650
# Velocity P-wave (km/s) = 4.97696 6.52779 5.80440
#
# Compressibility (1/GPa) = 0.04912010
#
# Stress axis : x y z
#
# Youngs Moduli (GPa) = 32.34403 16.40647 86.33509
#
# Poissons Ratio (x) = 0.15753 0.42434
# Poissons Ratio (y) = 0.31056 1.09206
# Poissons Ratio (z) = 0.15897 0.20753
#
# Static dielectric constant tensor:
#      x y z
#    x 1.484860 0.000000 0.000000 
#    y 0.000000 1.508530 0.000000 
#    z 0.000000 0.000000 1.568910 
# 
# From -- ./inp_files/42146.got.cif
#   From: 2010.05.17/outbox.cif.g08.bks.cpg/sg66_22_cif.got.tgz:42146.got - 2010.06.03 17:51:23.
