data_PCOD9495159
_publ_section_title
;
Structure prediction by ZEFSAII (Michael W. Deem and Ramdas Pophale) SiO2 
 PCOD9495159
Probable space group: C C C M
;
_chemical_formula_sum "Si O2"
_cell_formula_units_Z 72
_cell_length_a 14.237924
_cell_length_b 14.618460
_cell_length_c 16.857978
_cell_angle_alpha 90.000000
_cell_angle_beta 90.000000
_cell_angle_gamma 90.000000
_cell_volume 3508.760917
_symmetry_space_group_name_H-M "C C C M"
_symmetry_group_IT_number 66
_symmetry_cell_setting 'orthorhombic'
loop_
_space_group_symop_operation_xyz
x,y,z
-x,-y,z
x,-y,1/2-z
-x,y,1/2-z
-x,-y,-z
x,y,-z
-x,y,1/2+z
x,-y,1/2+z
1/2+x,1/2+y,z
1/2-x,1/2-y,z
1/2+x,1/2-y,1/2-z
1/2-x,1/2+y,1/2-z
1/2-x,1/2-y,-z
1/2+x,1/2+y,-z
1/2-x,1/2+y,1/2+z
1/2+x,1/2-y,1/2+z
loop_
_atom_site_type_symbol
_atom_site_label
_atom_site_fract_x
_atom_site_fract_y
_atom_site_fract_z
Si Si1 0.829034 0.180989 0.192304
Si Si2 0.770917 0.500000 0.250000
Si Si3 0.142399 0.762632 0.373101
Si Si4 0.491116 0.398042 0.409582
Si Si5 0.944387 0.414020 0.333890
O O1 0.750000 0.250000 0.158378
O O2 0.855083 0.223315 0.277695
O O3 0.920022 0.164838 0.139462
O O4 0.787211 0.080198 0.208810
O O5 0.841066 0.449530 0.310436
O O6 0.250000 0.750000 0.398925
O O7 0.092459 0.850896 0.407919
O O8 0.075507 0.674928 0.385666
O O9 0.500000 0.500000 0.374998
O O10 0.457181 0.406254 0.500000
O O11 0.000000 0.500000 0.370104
O O12 0.000000 0.394432 0.250000
#
# Coordination Sequence:
#
# PCOD9495159 Si02
#       5
#    16   8  16  16  16
#     4  11  21  35  65  93 120 146 201 253 302 351
#     4  10  17  32  55  96 120 150 176 251 305 354
#     4  11  21  38  63  93 114 148 205 253 303 350
#     4  11  26  43  58  82 123 170 203 240 296 358
#     4   9  18  30  55  85 122 149 177 236 309 356
#
# _framework density 20.520064000000001
#
# number of rings (size 3 to 8) (size 9 to 14) (size 15 to 20)
#    0.000    1.778    4.444    3.333    3.111    1.778 
#    0.000    0.000    0.000    0.667    0.000    0.000 
#    0.000    0.000    0.000    0.000    0.000    0.000 
#
# Total GULP energy -200964.942539 kJ/mol
# GULP energy per Si atom -5582.359515 kJ/mol
# Density = 2.047336 g / cm^3
# Si number density = 20.520064 Si / 1000 Ang^3
#
#
#
# Elastic Constant Matrix: (Units=GPa)
#
#
# Indices 1 2 3 4 5 6 
#
# 1 113.0857 51.7896 17.3984 0.0000 0.0000 0.0000
# 2 51.7896 134.0514 -0.9588 0.0000 0.0000 0.0000
# 3 17.3984 -0.9588 27.0590 0.0000 0.0000 0.0000
# 4 0.0000 0.0000 0.0000 6.7370 0.0000 0.0000
# 5 0.0000 0.0000 0.0000 0.0000 -1.6083 0.0000
# 6 0.0000 0.0000 0.0000 0.0000 0.0000 44.3048
#
#
#
# Elastic Compliance Matrix: (Units=1/GPa)
#
#
# Indices 1 2 3 4 5 6 
#
# 1 0.012284 -0.004804 -0.008069 0.000000 0.000000 0.000000
# 2 -0.004804 0.009340 0.003420 0.000000 0.000000 0.000000
# 3 -0.008069 0.003420 0.042265 0.000000 0.000000 0.000000
# 4 0.000000 0.000000 0.000000 0.148435 0.000000 0.000000
# 5 0.000000 0.000000 0.000000 0.000000 -0.621790 0.000000
# 6 0.000000 0.000000 0.000000 0.000000 0.000000 0.022571
#
#
# Mechanical properties :
#
#
# Convention : Reuss Voigt Hill
#
# Bulk Modulus (GPa) = 22.22994 45.62826 33.92910
# Shear Modulus (GPa) = -14.16453 23.61782 4.72664
#
# Velocity S-wave (km/s) = -2.63016 3.39626 1.51935
# Velocity P-wave (km/s) = 1.27793 6.13707 4.43265
#
# Compressibility (1/GPa) = 0.04498437
#
# Stress axis : x y z
#
# Youngs Moduli (GPa) = 81.40600 107.06520 23.65998
#
# Poissons Ratio (x) = 0.51430 0.19090
# Poissons Ratio (y) = 0.39104 -0.08091
# Poissons Ratio (z) = 0.65684 -0.36612
#
# Static dielectric constant tensor:
#      x y z
#    x 1.737020 0.000000 0.000000 
#    y 0.000000 1.813200 0.000000 
#    z 0.000000 0.000000 1.717990 
# 
# From -- ./inp_files/40039.got.cif
#   From: 2010.05.17/outbox.cif.g08.bks.cpg/sg66_21_cif.got.tgz:40039.got - 2010.06.03 17:51:23.
