data_PCOD9495192
_publ_section_title
;
Structure prediction by ZEFSAII (Michael W. Deem and Ramdas Pophale) SiO2 
 PCOD9495192
Probable space group: C C C M
;
_chemical_formula_sum "Si O2"
_cell_formula_units_Z 88
_cell_length_a 14.172590
_cell_length_b 11.929332
_cell_length_c 24.620644
_cell_angle_alpha 90.000000
_cell_angle_beta 90.000000
_cell_angle_gamma 90.000000
_cell_volume 4162.600744
_symmetry_space_group_name_H-M "C C C M"
_symmetry_group_IT_number 66
_symmetry_cell_setting 'orthorhombic'
loop_
_space_group_symop_operation_xyz
x,y,z
-x,-y,z
x,-y,1/2-z
-x,y,1/2-z
-x,-y,-z
x,y,-z
-x,y,1/2+z
x,-y,1/2+z
1/2+x,1/2+y,z
1/2-x,1/2-y,z
1/2+x,1/2-y,1/2-z
1/2-x,1/2+y,1/2-z
1/2-x,1/2-y,-z
1/2+x,1/2+y,-z
1/2-x,1/2+y,1/2+z
1/2+x,1/2-y,1/2+z
loop_
_atom_site_type_symbol
_atom_site_label
_atom_site_fract_x
_atom_site_fract_y
_atom_site_fract_z
Si Si1 0.479165 0.294020 0.806524
Si Si2 0.500000 0.000000 0.892909
Si Si3 0.642052 0.921647 0.198836
Si Si4 0.288820 0.589308 0.062711
Si Si5 0.894886 0.708817 0.601302
Si Si6 0.807170 0.136384 0.373912
O O1 0.500000 0.356987 0.750000
O O2 0.412510 0.191847 0.787585
O O3 0.568682 0.244315 0.839011
O O4 0.413742 0.348099 0.853150
O O5 0.585951 0.970099 0.852878
O O6 0.469413 0.884006 0.921339
O O7 0.747407 0.900353 0.178977
O O8 0.636427 0.000000 0.250000
O O9 0.204427 0.643879 0.097764
O O10 0.376421 0.674530 0.070303
O O11 0.304674 0.463563 0.082953
O O12 0.259592 0.591299 0.000000
O O13 0.750000 0.250000 0.391719
#
# Coordination Sequence:
#
# PCOD9495192 Si02
#       6
#    16   8  16  16  16  16
#     4  10  22  39  62  98 140 173 214 259 331 408
#     4  10  17  34  63  98 128 158 207 266 323 382
#     4  10  18  33  61  95 130 174 213 253 322 391
#     4  11  24  46  69  93 127 176 232 290 339 381
#     4  10  21  40  69  96 132 164 217 287 328 394
#     4  10  23  42  63  96 139 174 219 276 332 408
#
# _framework density 21.140629000000001
#
# number of rings (size 3 to 8) (size 9 to 14) (size 15 to 20)
#    0.000    1.818    1.818    3.545    0.000    2.545 
#    6.545    5.455    0.000    0.000    0.000    0.000 
#    0.000    0.000    0.000    0.000    0.000    0.000 
#
# Total GULP energy -245256.981603 kJ/mol
# GULP energy per Si atom -5574.022309 kJ/mol
# Density = 2.109251 g / cm^3
# Si number density = 21.140629 Si / 1000 Ang^3
#
#
#
# Elastic Constant Matrix: (Units=GPa)
#
#
# Indices 1 2 3 4 5 6 
#
# 1 73.0606 34.6488 47.1675 0.0000 0.0000 0.0000
# 2 34.6488 121.4563 33.1039 0.0000 0.0000 0.0000
# 3 47.1675 33.1039 61.1773 0.0000 0.0000 0.0000
# 4 0.0000 0.0000 0.0000 -13.7826 0.0000 0.0000
# 5 0.0000 0.0000 0.0000 0.0000 -49.5972 0.0000
# 6 0.0000 0.0000 0.0000 0.0000 0.0000 17.5633
#
#
#
# Elastic Compliance Matrix: (Units=1/GPa)
#
#
# Indices 1 2 3 4 5 6 
#
# 1 0.027863 -0.002456 -0.020153 0.000000 0.000000 0.000000
# 2 -0.002456 0.009874 -0.003450 0.000000 0.000000 0.000000
# 3 -0.020153 -0.003450 0.033751 0.000000 0.000000 0.000000
# 4 0.000000 0.000000 0.000000 -0.072555 0.000000 0.000000
# 5 0.000000 0.000000 0.000000 0.000000 -0.020162 0.000000
# 6 0.000000 0.000000 0.000000 0.000000 0.000000 0.056937
#
#
# Mechanical properties :
#
#
# Convention : Reuss Voigt Hill
#
# Bulk Modulus (GPa) = 51.62549 53.94829 52.78689
# Shear Modulus (GPa) = 53.03300 0.22164 26.62732
#
# Velocity S-wave (km/s) = 5.01401 0.32415 3.55284
# Velocity P-wave (km/s) = 7.61534 5.07092 6.46945
#
# Compressibility (1/GPa) = 0.01937028
#
# Stress axis : x y z
#
# Youngs Moduli (GPa) = 35.89023 101.27383 29.62897
#
# Poissons Ratio (x) = 0.24870 0.59712
# Poissons Ratio (y) = 0.08813 0.10221
# Poissons Ratio (z) = 0.72331 0.34937
#
# Static dielectric constant tensor:
#      x y z
#    x 1.849340 0.000000 0.000000 
#    y 0.000000 1.853500 0.000000 
#    z 0.000000 0.000000 1.721510 
# 
# From -- ./inp_files/58011.got.cif
#   From: 2010.05.17/outbox.cif.g08.bks.cpg/sg66_30_cif.got.tgz:58011.got - 2010.06.03 17:51:23.
