data_PCOD9495528
_publ_section_title
;
Structure prediction by ZEFSAII (Michael W. Deem and Ramdas Pophale) SiO2 
 PCOD9495528
Probable space group: C C C M
;
_chemical_formula_sum "Si O2"
_cell_formula_units_Z 112
_cell_length_a 17.367651
_cell_length_b 26.777725
_cell_length_c 14.453559
_cell_angle_alpha 90.000000
_cell_angle_beta 90.000000
_cell_angle_gamma 90.000000
_cell_volume 6721.861506
_symmetry_space_group_name_H-M "C C C M"
_symmetry_group_IT_number 66
_symmetry_cell_setting 'orthorhombic'
loop_
_space_group_symop_operation_xyz
x,y,z
-x,-y,z
x,-y,1/2-z
-x,y,1/2-z
-x,-y,-z
x,y,-z
-x,y,1/2+z
x,-y,1/2+z
1/2+x,1/2+y,z
1/2-x,1/2-y,z
1/2+x,1/2-y,1/2-z
1/2-x,1/2+y,1/2-z
1/2-x,1/2-y,-z
1/2+x,1/2+y,-z
1/2-x,1/2+y,1/2+z
1/2+x,1/2-y,1/2+z
loop_
_atom_site_type_symbol
_atom_site_label
_atom_site_fract_x
_atom_site_fract_y
_atom_site_fract_z
Si Si1 0.386310 0.971907 0.888656
Si Si2 0.679666 0.128098 0.892718
Si Si3 0.774256 0.191438 0.394044
Si Si4 0.311318 0.704899 0.899490
Si Si5 0.946030 0.574100 0.888279
Si Si6 0.414829 0.282150 0.777977
Si Si7 0.620267 0.168781 0.710602
O O1 0.323402 0.930202 0.864873
O O2 0.468186 0.945669 0.867750
O O3 0.390238 0.028802 0.854374
O O4 0.383768 0.977385 0.000000
O O5 0.762521 0.154204 0.889595
O O6 0.627553 0.157767 0.819660
O O7 0.652703 0.132312 0.000000
O O8 0.770975 0.173592 0.500000
O O9 0.750000 0.250000 0.393532
O O10 0.860406 0.189447 0.352177
O O11 0.707434 0.167218 0.331170
O O12 0.250000 0.750000 0.897598
O O13 0.366977 0.713665 0.815938
O O14 0.349726 0.705662 0.000000
O O15 0.926986 0.625356 0.838710
O O16 0.939939 0.579972 0.000000
O O17 0.500000 0.299150 0.750000
O O18 0.414636 0.223552 0.806289
#
# Coordination Sequence:
#
# PCOD9495528 Si02
#       7
#    16  16  16  16  16  16  16
#     4   8  17  33  48  69 103 134 167 207 246 285
#     4  10  19  31  50  68  91 128 165 204 243 283
#     4   9  18  35  50  65  94 129 161 201 248 293
#     4  10  18  33  52  68  91 125 164 205 249 291
#     4   9  18  32  48  70 103 138 167 202 243 288
#     4  11  22  33  46  72 100 124 164 211 250 294
#     4  11  20  30  50  71  95 131 174 202 233 295
#
# _framework density 16.662051999999999
#
# number of rings (size 3 to 8) (size 9 to 14) (size 15 to 20)
#    0.000    2.286    2.857    1.714    2.000    1.714 
#    0.000    1.429    0.000    0.000    0.000    0.000 
#    0.000    2.286    0.000    8.571    0.000    0.000 
#
# Total GULP energy -312125.541175 kJ/mol
# GULP energy per Si atom -5573.670378 kJ/mol
# Density = 1.662413 g / cm^3
# Si number density = 16.662052 Si / 1000 Ang^3
#
#
#
# Elastic Constant Matrix: (Units=GPa)
#
#
# Indices 1 2 3 4 5 6 
#
# 1 53.9751 13.5725 17.5468 0.0000 0.0000 0.0000
# 2 13.5725 64.2158 11.4428 0.0000 0.0000 0.0000
# 3 17.5468 11.4428 75.8922 0.0000 0.0000 0.0000
# 4 0.0000 0.0000 0.0000 27.9028 0.0000 0.0000
# 5 0.0000 0.0000 0.0000 0.0000 15.9368 0.0000
# 6 0.0000 0.0000 0.0000 0.0000 0.0000 22.0328
#
#
#
# Elastic Compliance Matrix: (Units=1/GPa)
#
#
# Indices 1 2 3 4 5 6 
#
# 1 0.020830 -0.003642 -0.004267 0.000000 0.000000 0.000000
# 2 -0.003642 0.016639 -0.001667 0.000000 0.000000 0.000000
# 3 -0.004267 -0.001667 0.014414 0.000000 0.000000 0.000000
# 4 0.000000 0.000000 0.000000 0.035839 0.000000 0.000000
# 5 0.000000 0.000000 0.000000 0.000000 0.062748 0.000000
# 6 0.000000 0.000000 0.000000 0.000000 0.000000 0.045387
#
#
# Mechanical properties :
#
#
# Convention : Reuss Voigt Hill
#
# Bulk Modulus (GPa) = 30.55110 31.02306 30.78708
# Shear Modulus (GPa) = 22.13176 23.27588 22.70382
#
# Velocity S-wave (km/s) = 3.64850 3.74162 3.69535
# Velocity P-wave (km/s) = 6.01035 6.10948 6.06012
#
# Compressibility (1/GPa) = 0.03273205
#
# Stress axis : x y z
#
# Youngs Moduli (GPa) = 48.00751 60.09864 69.37499
#
# Poissons Ratio (x) = 0.21890 0.29602
# Poissons Ratio (y) = 0.17486 0.11563
# Poissons Ratio (z) = 0.20484 0.10017
#
# Static dielectric constant tensor:
#      x y z
#    x 1.648060 0.000000 0.000000 
#    y 0.000000 1.583400 0.000000 
#    z 0.000000 0.000000 1.617340 
# 
# From -- ./inp_files/28884.got.cif
#   From: 2010.05.17/outbox.cif.g08.bks.cpg/sg66_15_cif.got.tgz:28884.got - 2010.06.03 17:51:23.
