data_PCOD9495878
_publ_section_title
;
Structure prediction by ZEFSAII (Michael W. Deem and Ramdas Pophale) SiO2 
 PCOD9495878
Probable space group: C C C M
;
_chemical_formula_sum "Si O2"
_cell_formula_units_Z 88
_cell_length_a 6.222289
_cell_length_b 30.641741
_cell_length_c 21.509632
_cell_angle_alpha 90.000000
_cell_angle_beta 90.000000
_cell_angle_gamma 90.000000
_cell_volume 4101.064465
_symmetry_space_group_name_H-M "C C C M"
_symmetry_group_IT_number 66
_symmetry_cell_setting 'orthorhombic'
loop_
_space_group_symop_operation_xyz
x,y,z
-x,-y,z
x,-y,1/2-z
-x,y,1/2-z
-x,-y,-z
x,y,-z
-x,y,1/2+z
x,-y,1/2+z
1/2+x,1/2+y,z
1/2-x,1/2-y,z
1/2+x,1/2-y,1/2-z
1/2-x,1/2+y,1/2-z
1/2-x,1/2-y,-z
1/2+x,1/2+y,-z
1/2-x,1/2+y,1/2+z
1/2+x,1/2-y,1/2+z
loop_
_atom_site_type_symbol
_atom_site_label
_atom_site_fract_x
_atom_site_fract_y
_atom_site_fract_z
Si Si1 0.959297 0.656936 0.683256
Si Si2 0.777242 0.698283 0.068974
Si Si3 0.500000 0.500000 0.341236
Si Si4 0.420897 0.635829 0.893644
Si Si5 0.791362 0.572614 0.154584
Si Si6 0.176898 0.446273 0.429460
O O1 0.709889 0.653233 0.665684
O O2 0.000000 0.678226 0.750000
O O3 0.078160 0.680471 0.625640
O O4 0.056311 0.607757 0.687346
O O5 0.750000 0.750000 0.074351
O O6 0.544233 0.674995 0.073313
O O7 0.867654 0.688083 0.000000
O O8 0.662241 0.465343 0.309098
O O9 0.342384 0.471899 0.385446
O O10 0.610235 0.603036 0.875112
O O11 0.251432 0.604704 0.928649
O O12 0.942050 0.551837 0.101408
O O13 0.182820 0.461996 0.500000
#
# Coordination Sequence:
#
# PCOD9495878 Si02
#       6
#    16  16   8  16  16  16
#     4  10  22  42  65  91 120 164 212 265 315 383
#     4  10  22  40  61  93 132 166 206 260 319 386
#     4  10  19  32  50  77 114 162 207 261 324 378
#     4   9  20  37  59  83 116 161 204 250 313 378
#     4   9  20  34  53  78 114 153 201 256 313 375
#     4  10  19  31  51  81 117 159 209 261 316 380
#
# _framework density 21.457843
#
# number of rings (size 3 to 8) (size 9 to 14) (size 15 to 20)
#    0.000    2.364    0.000    1.364    0.000   15.273 
#    3.273    1.818    0.000   31.636    0.000    0.000 
#    0.000    0.000    0.000    0.000    0.000    0.000 
#
# Total GULP energy -245301.539784 kJ/mol
# GULP energy per Si atom -5575.034995 kJ/mol
# Density = 2.140900 g / cm^3
# Si number density = 21.457843 Si / 1000 Ang^3
#
#
#
# Elastic Constant Matrix: (Units=GPa)
#
#
# Indices 1 2 3 4 5 6 
#
# 1 102.3264 28.0867 30.4005 0.0000 0.0000 0.0000
# 2 28.0867 107.7367 18.9724 0.0000 0.0000 0.0000
# 3 30.4005 18.9724 107.8688 0.0000 0.0000 0.0000
# 4 0.0000 0.0000 0.0000 4.8659 0.0000 0.0000
# 5 0.0000 0.0000 0.0000 0.0000 5.5937 0.0000
# 6 0.0000 0.0000 0.0000 0.0000 0.0000 23.3174
#
#
#
# Elastic Compliance Matrix: (Units=1/GPa)
#
#
# Indices 1 2 3 4 5 6 
#
# 1 0.011261 -0.002453 -0.002742 0.000000 0.000000 0.000000
# 2 -0.002453 0.010113 -0.001087 0.000000 0.000000 0.000000
# 3 -0.002742 -0.001087 0.010235 0.000000 0.000000 0.000000
# 4 0.000000 0.000000 0.000000 0.205513 0.000000 0.000000
# 5 0.000000 0.000000 0.000000 0.000000 0.178772 0.000000
# 6 0.000000 0.000000 0.000000 0.000000 0.000000 0.042886
#
#
# Mechanical properties :
#
#
# Convention : Reuss Voigt Hill
#
# Bulk Modulus (GPa) = 52.51176 52.53902 52.52539
# Shear Modulus (GPa) = 10.46702 22.78689 16.62695
#
# Velocity S-wave (km/s) = 2.21100 3.26227 2.78666
# Velocity P-wave (km/s) = 5.57164 6.22317 5.90640
#
# Compressibility (1/GPa) = 0.01904335
#
# Stress axis : x y z
#
# Youngs Moduli (GPa) = 88.80562 98.88450 97.70781
#
# Poissons Ratio (x) = 0.24254 0.26793
# Poissons Ratio (y) = 0.21781 0.10625
# Poissons Ratio (z) = 0.24352 0.10753
#
# Static dielectric constant tensor:
#      x y z
#    x 1.779020 0.000000 0.000000 
#    y 0.000000 1.808550 0.000000 
#    z 0.000000 0.000000 1.799050 
# 
# From -- ./inp_files/54450.got.cif
#   From: 2010.05.17/outbox.cif.g08.bks.cpg/sg66_28_cif.got.tgz:54450.got - 2010.06.03 17:51:23.
