data_PCOD9495556
_publ_section_title
;
Structure prediction by ZEFSAII (Michael W. Deem and Ramdas Pophale) SiO2 
 PCOD9495556
Probable space group: C C C M
;
_chemical_formula_sum "Si O2"
_cell_formula_units_Z 88
_cell_length_a 14.623115
_cell_length_b 11.514638
_cell_length_c 22.470850
_cell_angle_alpha 90.000000
_cell_angle_beta 90.000000
_cell_angle_gamma 90.000000
_cell_volume 3783.638929
_symmetry_space_group_name_H-M "C C C M"
_symmetry_group_IT_number 66
_symmetry_cell_setting 'orthorhombic'
loop_
_space_group_symop_operation_xyz
x,y,z
-x,-y,z
x,-y,1/2-z
-x,y,1/2-z
-x,-y,-z
x,y,-z
-x,y,1/2+z
x,-y,1/2+z
1/2+x,1/2+y,z
1/2-x,1/2-y,z
1/2+x,1/2-y,1/2-z
1/2-x,1/2+y,1/2-z
1/2-x,1/2-y,-z
1/2+x,1/2+y,-z
1/2-x,1/2+y,1/2+z
1/2+x,1/2-y,1/2+z
loop_
_atom_site_type_symbol
_atom_site_label
_atom_site_fract_x
_atom_site_fract_y
_atom_site_fract_z
Si Si1 0.592271 0.422958 0.000000
Si Si2 0.207085 0.865826 0.110768
Si Si3 0.847752 0.131724 0.757242
Si Si4 0.964377 0.657604 0.500000
Si Si5 0.633790 0.882028 0.784414
Si Si6 0.179802 0.351515 0.000000
Si Si7 0.374495 0.001206 0.398091
O O1 0.500000 0.500000 0.000000
O O2 0.649386 0.435017 0.938545
O O3 0.573207 0.285559 0.000000
O O4 0.250000 0.750000 0.081366
O O5 0.154032 0.844175 0.171706
O O6 0.300099 0.922925 0.135773
O O7 0.745467 0.123685 0.726301
O O8 0.893032 0.249282 0.731301
O O9 0.885662 0.000000 0.750000
O O10 0.932872 0.583704 0.441990
O O11 0.072402 0.676034 0.500000
O O12 0.591727 0.910118 0.849761
O O13 0.605095 0.000000 0.750000
O O14 0.250000 0.250000 0.000000
O O15 0.188976 0.428390 0.942300
#
# Coordination Sequence:
#
# PCOD9495556 Si02
#       7
#     8  16  16   8  16   8  16
#     4  12  28  41  62  98 140 184 244 299 373 427
#     4  12  20  39  67 100 133 185 239 288 357 442
#     4  10  19  33  59 101 147 175 236 299 347 412
#     4  11  25  47  64  92 144 188 235 305 374 440
#     4  10  18  33  58 101 138 169 236 281 343 427
#     4  11  28  43  65  95 125 182 244 295 375 420
#     4  11  21  39  68  98 135 183 230 292 360 442
#
# _framework density 23.258032
#
# number of rings (size 3 to 8) (size 9 to 14) (size 15 to 20)
#    0.000    1.091    7.273    2.455    5.091    0.000 
#    0.000    0.000    0.000    2.727    0.000    0.000 
#    0.000    0.000    0.000    0.000    0.000    0.000 
#
# Total GULP energy -244964.114052 kJ/mol
# GULP energy per Si atom -5567.366228 kJ/mol
# Density = 2.320510 g / cm^3
# Si number density = 23.258032 Si / 1000 Ang^3
#
#
#
# Elastic Constant Matrix: (Units=GPa)
#
#
# Indices 1 2 3 4 5 6 
#
# 1 99.4142 49.6418 39.5467 0.0000 0.0000 0.0000
# 2 49.6418 178.8285 50.7522 0.0000 0.0000 0.0000
# 3 39.5467 50.7522 154.2490 0.0000 0.0000 0.0000
# 4 0.0000 0.0000 0.0000 24.1612 0.0000 0.0000
# 5 0.0000 0.0000 0.0000 0.0000 18.3641 0.0000
# 6 0.0000 0.0000 0.0000 0.0000 0.0000 27.8894
#
#
#
# Elastic Compliance Matrix: (Units=1/GPa)
#
#
# Indices 1 2 3 4 5 6 
#
# 1 0.012346 -0.002789 -0.002247 0.000000 0.000000 0.000000
# 2 -0.002789 0.006798 -0.001522 0.000000 0.000000 0.000000
# 3 -0.002247 -0.001522 0.007560 0.000000 0.000000 0.000000
# 4 0.000000 0.000000 0.000000 0.041389 0.000000 0.000000
# 5 0.000000 0.000000 0.000000 0.000000 0.054454 0.000000
# 6 0.000000 0.000000 0.000000 0.000000 0.000000 0.035856
#
#
# Mechanical properties :
#
#
# Convention : Reuss Voigt Hill
#
# Bulk Modulus (GPa) = 73.60000 79.15258 76.37629
# Shear Modulus (GPa) = 28.40131 33.58633 30.99382
#
# Velocity S-wave (km/s) = 3.49827 3.80422 3.65445
# Velocity P-wave (km/s) = 6.93043 7.30769 7.12156
#
# Compressibility (1/GPa) = 0.01358696
#
# Stress axis : x y z
#
# Youngs Moduli (GPa) = 80.99940 147.10033 132.27677
#
# Poissons Ratio (x) = 0.41030 0.29729
# Poissons Ratio (y) = 0.22593 0.20128
# Poissons Ratio (z) = 0.18205 0.22383
#
# Static dielectric constant tensor:
#      x y z
#    x 2.083620 0.000000 0.000000 
#    y 0.000000 2.050040 0.000000 
#    z 0.000000 0.000000 1.859670 
# 
# From -- ./inp_files/58055.got.cif
#   From: 2010.05.17/outbox.cif.g08.bks.cpg/sg66_30_cif.got.tgz:58055.got - 2010.06.03 17:51:23.
