data_PCOD9495626
_publ_section_title
;
Structure prediction by ZEFSAII (Michael W. Deem and Ramdas Pophale) SiO2 
 PCOD9495626
Probable space group: C C C M
;
_chemical_formula_sum "Si O2"
_cell_formula_units_Z 64
_cell_length_a 17.525678
_cell_length_b 11.450807
_cell_length_c 14.482107
_cell_angle_alpha 90.000000
_cell_angle_beta 90.000000
_cell_angle_gamma 90.000000
_cell_volume 2906.314943
_symmetry_space_group_name_H-M "C C C M"
_symmetry_group_IT_number 66
_symmetry_cell_setting 'orthorhombic'
loop_
_space_group_symop_operation_xyz
x,y,z
-x,-y,z
x,-y,1/2-z
-x,y,1/2-z
-x,-y,-z
x,y,-z
-x,y,1/2+z
x,-y,1/2+z
1/2+x,1/2+y,z
1/2-x,1/2-y,z
1/2+x,1/2-y,1/2-z
1/2-x,1/2+y,1/2-z
1/2-x,1/2-y,-z
1/2+x,1/2+y,-z
1/2-x,1/2+y,1/2+z
1/2+x,1/2-y,1/2+z
loop_
_atom_site_type_symbol
_atom_site_label
_atom_site_fract_x
_atom_site_fract_y
_atom_site_fract_z
Si Si1 0.759690 0.618853 0.107508
Si Si2 0.877294 0.027856 0.890774
Si Si3 0.569618 0.068455 0.346382
Si Si4 0.005449 0.187717 0.889617
O O1 0.750000 0.750000 0.148182
O O2 0.702834 0.519811 0.145777
O O3 0.846806 0.578052 0.110721
O O4 0.735997 0.630737 0.000000
O O5 0.934536 0.918110 0.882350
O O6 0.924411 0.138494 0.852936
O O7 0.868741 0.054247 0.000000
O O8 0.538913 0.199832 0.340965
O O9 0.500000 0.000000 0.394949
O O10 0.579558 0.000000 0.250000
O O11 0.999427 0.213552 0.000000
#
# Coordination Sequence:
#
# PCOD9495626 Si02
#       4
#    16  16  16  16
#     4  10  18  34  63  96 121 147 193 250 309 365
#     4   8  15  29  59  98 119 136 183 252 311 357
#     4  11  24  39  52  77 123 171 206 238 290 364
#     4   9  16  32  60  90 117 148 192 248 303 353
#
# _framework density 22.021014000000001
#
# number of rings (size 3 to 8) (size 9 to 14) (size 15 to 20)
#    0.000    2.500    2.500    2.250    0.000    2.000 
#    0.000    6.250    0.000   10.500    0.000    0.000 
#    0.000    0.000    0.000    0.000    0.000    0.000 
#
# Total GULP energy -178415.669808 kJ/mol
# GULP energy per Si atom -5575.489681 kJ/mol
# Density = 2.197089 g / cm^3
# Si number density = 22.021014 Si / 1000 Ang^3
#
#
#
# Elastic Constant Matrix: (Units=GPa)
#
#
# Indices 1 2 3 4 5 6 
#
# 1 174.5953 48.5812 -3.0737 0.0000 0.0000 0.0000
# 2 48.5812 102.6719 17.9076 0.0000 0.0000 0.0000
# 3 -3.0737 17.9076 65.7760 0.0000 0.0000 0.0000
# 4 0.0000 0.0000 0.0000 23.5552 0.0000 0.0000
# 5 0.0000 0.0000 0.0000 0.0000 31.0956 0.0000
# 6 0.0000 0.0000 0.0000 0.0000 0.0000 40.5852
#
#
#
# Elastic Compliance Matrix: (Units=1/GPa)
#
#
# Indices 1 2 3 4 5 6 
#
# 1 0.006690 -0.003380 0.001233 0.000000 0.000000 0.000000
# 2 -0.003380 0.011934 -0.003407 0.000000 0.000000 0.000000
# 3 0.001233 -0.003407 0.016188 0.000000 0.000000 0.000000
# 4 0.000000 0.000000 0.000000 0.042453 0.000000 0.000000
# 5 0.000000 0.000000 0.000000 0.000000 0.032159 0.000000
# 6 0.000000 0.000000 0.000000 0.000000 0.000000 0.024640
#
#
# Mechanical properties :
#
#
# Convention : Reuss Voigt Hill
#
# Bulk Modulus (GPa) = 42.18909 52.20815 47.19862
# Shear Modulus (GPa) = 32.66412 37.68910 35.17661
#
# Velocity S-wave (km/s) = 3.85556 4.14152 4.00110
# Velocity P-wave (km/s) = 6.24665 6.82857 6.54408
#
# Compressibility (1/GPa) = 0.02370281
#
# Stress axis : x y z
#
# Youngs Moduli (GPa) = 149.48011 83.79764 61.77318
#
# Poissons Ratio (x) = 0.28328 -0.07616
# Poissons Ratio (y) = 0.50531 0.21045
# Poissons Ratio (z) = -0.18430 0.28549
#
# Static dielectric constant tensor:
#      x y z
#    x 1.827070 0.000000 0.000000 
#    y 0.000000 1.797200 0.000000 
#    z 0.000000 0.000000 1.872080 
# 
# From -- ./inp_files/41227.got.cif
#   From: 2010.05.17/outbox.cif.g08.bks.cpg/sg66_21_cif.got.tgz:41227.got - 2010.06.03 17:51:23.
