data_PCOD9495818
_publ_section_title
;
Structure prediction by ZEFSAII (Michael W. Deem and Ramdas Pophale) SiO2 
 PCOD9495818
Probable space group: C C C M
;
_chemical_formula_sum "Si O2"
_cell_formula_units_Z 88
_cell_length_a 26.659766
_cell_length_b 6.684815
_cell_length_c 27.435373
_cell_angle_alpha 90.000000
_cell_angle_beta 90.000000
_cell_angle_gamma 90.000000
_cell_volume 4889.411561
_symmetry_space_group_name_H-M "C C C M"
_symmetry_group_IT_number 66
_symmetry_cell_setting 'orthorhombic'
loop_
_space_group_symop_operation_xyz
x,y,z
-x,-y,z
x,-y,1/2-z
-x,y,1/2-z
-x,-y,-z
x,y,-z
-x,y,1/2+z
x,-y,1/2+z
1/2+x,1/2+y,z
1/2-x,1/2-y,z
1/2+x,1/2-y,1/2-z
1/2-x,1/2+y,1/2-z
1/2-x,1/2-y,-z
1/2+x,1/2+y,-z
1/2-x,1/2+y,1/2+z
1/2+x,1/2-y,1/2+z
loop_
_atom_site_type_symbol
_atom_site_label
_atom_site_fract_x
_atom_site_fract_y
_atom_site_fract_z
Si Si1 0.557261 0.526841 0.691714
Si Si2 0.750000 0.250000 0.110560
Si Si3 0.857231 0.751151 0.853410
Si Si4 0.701426 0.602045 0.943219
Si Si5 0.781571 0.977299 0.697388
Si Si6 0.868197 0.366057 0.799567
O O1 0.500000 0.500000 0.675913
O O2 0.559565 0.500000 0.750000
O O3 0.593555 0.369125 0.664926
O O4 0.581391 0.745466 0.687570
O O5 0.713696 0.375114 0.075007
O O6 0.745894 0.075955 0.152254
O O7 0.840924 0.812817 0.907387
O O8 0.861655 0.518736 0.843778
O O9 0.812454 0.830224 0.818512
O O10 0.750000 0.750000 0.937932
O O11 0.688134 0.601089 0.000000
O O12 0.824724 0.804386 0.703079
O O13 0.756881 0.000000 0.750000
O O14 0.871211 0.500000 0.750000
#
# Coordination Sequence:
#
# PCOD9495818 Si02
#       6
#    16   8  16  16  16  16
#     4  10  20  33  49  79 114 140 176 217 254 331
#     4  10  21  34  50  76 108 144 179 222 276 324
#     4  10  19  34  52  74 105 141 177 220 273 319
#     4  10  21  38  58  79 103 137 190 241 278 324
#     4  10  19  31  44  71 108 141 178 214 253 319
#     4  11  17  30  51  69 103 147 173 209 263 319
#
# _framework density 17.998076999999999
#
# number of rings (size 3 to 8) (size 9 to 14) (size 15 to 20)
#    0.000    1.818    3.636    2.455    0.000    1.455 
#    6.545    0.000    0.000    0.545    0.000    1.273 
#    0.000    0.000    0.000    0.000    0.000    0.000 
#
# Total GULP energy -245108.409589 kJ/mol
# GULP energy per Si atom -5570.645672 kJ/mol
# Density = 1.795711 g / cm^3
# Si number density = 17.998077 Si / 1000 Ang^3
#
#
#
# Elastic Constant Matrix: (Units=GPa)
#
#
# Indices 1 2 3 4 5 6 
#
# 1 95.6413 41.0543 37.6552 0.0000 0.0000 0.0000
# 2 41.0543 111.2189 29.7007 0.0000 0.0000 0.0000
# 3 37.6552 29.7007 134.8242 0.0000 0.0000 0.0000
# 4 0.0000 0.0000 0.0000 20.4695 0.0000 0.0000
# 5 0.0000 0.0000 0.0000 0.0000 27.8607 0.0000
# 6 0.0000 0.0000 0.0000 0.0000 0.0000 14.4611
#
#
#
# Elastic Compliance Matrix: (Units=1/GPa)
#
#
# Indices 1 2 3 4 5 6 
#
# 1 0.013356 -0.004180 -0.002809 0.000000 0.000000 0.000000
# 2 -0.004180 0.010861 -0.001225 0.000000 0.000000 0.000000
# 3 -0.002809 -0.001225 0.008472 0.000000 0.000000 0.000000
# 4 0.000000 0.000000 0.000000 0.048853 0.000000 0.000000
# 5 0.000000 0.000000 0.000000 0.000000 0.035893 0.000000
# 6 0.000000 0.000000 0.000000 0.000000 0.000000 0.069151
#
#
# Mechanical properties :
#
#
# Convention : Reuss Voigt Hill
#
# Bulk Modulus (GPa) = 61.50092 62.05609 61.77850
# Shear Modulus (GPa) = 23.98827 28.10988 26.04908
#
# Velocity S-wave (km/s) = 3.65475 3.95628 3.80850
# Velocity P-wave (km/s) = 7.21489 7.44471 7.33070
#
# Compressibility (1/GPa) = 0.01625992
#
# Stress axis : x y z
#
# Youngs Moduli (GPa) = 74.87231 92.06917 118.04096
#
# Poissons Ratio (x) = 0.38484 0.33163
# Poissons Ratio (y) = 0.31296 0.14463
# Poissons Ratio (z) = 0.21035 0.11281
#
# Static dielectric constant tensor:
#      x y z
#    x 1.657820 0.000000 0.000000 
#    y 0.000000 1.687330 0.000000 
#    z 0.000000 0.000000 1.632190 
# 
# From -- ./inp_files/66402.got.cif
#   From: 2010.05.17/outbox.cif.g08.bks.cpg/sg66_34_cif.got.tgz:66402.got - 2010.06.03 17:51:23.
