data_PCOD9495110
_publ_section_title
;
Structure prediction by ZEFSAII (Michael W. Deem and Ramdas Pophale) SiO2 
 PCOD9495110
Probable space group: C C C M
;
_chemical_formula_sum "Si O2"
_cell_formula_units_Z 112
_cell_length_a 14.031832
_cell_length_b 23.688497
_cell_length_c 21.385501
_cell_angle_alpha 90.000000
_cell_angle_beta 90.000000
_cell_angle_gamma 90.000000
_cell_volume 7108.391053
_symmetry_space_group_name_H-M "C C C M"
_symmetry_group_IT_number 66
_symmetry_cell_setting 'orthorhombic'
loop_
_space_group_symop_operation_xyz
x,y,z
-x,-y,z
x,-y,1/2-z
-x,y,1/2-z
-x,-y,-z
x,y,-z
-x,y,1/2+z
x,-y,1/2+z
1/2+x,1/2+y,z
1/2-x,1/2-y,z
1/2+x,1/2-y,1/2-z
1/2-x,1/2+y,1/2-z
1/2-x,1/2-y,-z
1/2+x,1/2+y,-z
1/2-x,1/2+y,1/2+z
1/2+x,1/2-y,1/2+z
loop_
_atom_site_type_symbol
_atom_site_label
_atom_site_fract_x
_atom_site_fract_y
_atom_site_fract_z
Si Si1 0.504698 0.567099 0.429050
Si Si2 0.822064 0.854032 0.569124
Si Si3 0.314192 0.192453 0.669682
Si Si4 0.731725 0.817806 0.804096
Si Si5 0.472211 0.263292 0.613397
Si Si6 0.838372 0.706332 0.067687
Si Si7 0.942694 0.862889 0.810715
O O1 0.500000 0.500000 0.423285
O O2 0.471340 0.582688 0.500000
O O3 0.612628 0.590637 0.424743
O O4 0.451468 0.597565 0.371831
O O5 0.778501 0.851517 0.500000
O O6 0.745698 0.847420 0.623749
O O7 0.898129 0.802355 0.575260
O O8 0.250000 0.250000 0.672480
O O9 0.324140 0.170875 0.740149
O O10 0.413388 0.210989 0.640041
O O11 0.750000 0.750000 0.805555
O O12 0.680359 0.830071 0.869904
O O13 0.833047 0.848700 0.798187
O O14 0.565146 0.242154 0.577442
O O15 0.507146 0.304056 0.669226
O O16 0.750000 0.750000 0.065224
O O17 0.841855 0.677035 0.000000
O O18 0.000000 0.884654 0.750000
#
# Coordination Sequence:
#
# PCOD9495110 Si02
#       7
#    16  16  16  16  16  16  16
#     4   9  19  34  49  66  90 121 157 197 244 290
#     4   9  17  29  45  65  87 114 151 193 229 270
#     4   9  18  28  42  62  87 120 156 186 223 271
#     4  10  17  30  40  59  90 121 153 190 224 266
#     4  10  18  28  43  61  89 127 157 184 225 273
#     4  10  19  28  39  58  86 121 159 195 223 256
#     4  11  19  29  47  67  91 125 161 192 231 276
#
# _framework density 15.756026
#
# number of rings (size 3 to 8) (size 9 to 14) (size 15 to 20)
#    0.000    2.286    2.857    3.857    0.000    4.571 
#    0.000    0.000    0.000    0.000    0.000    0.000 
#    0.000    1.143    0.000    9.571    0.571    2.714 
#
# Total GULP energy -311778.764733 kJ/mol
# GULP energy per Si atom -5567.477942 kJ/mol
# Density = 1.572016 g / cm^3
# Si number density = 15.756026 Si / 1000 Ang^3
#
#
#
# Elastic Constant Matrix: (Units=GPa)
#
#
# Indices 1 2 3 4 5 6 
#
# 1 63.6417 22.4977 36.2403 0.0000 0.0000 0.0000
# 2 22.4977 42.3452 35.5568 0.0000 0.0000 0.0000
# 3 36.2403 35.5568 134.5630 0.0000 0.0000 0.0000
# 4 0.0000 0.0000 0.0000 1.2012 0.0000 0.0000
# 5 0.0000 0.0000 0.0000 0.0000 -17.9070 0.0000
# 6 0.0000 0.0000 0.0000 0.0000 0.0000 9.0266
#
#
#
# Elastic Compliance Matrix: (Units=1/GPa)
#
#
# Indices 1 2 3 4 5 6 
#
# 1 0.020486 -0.008034 -0.003394 0.000000 0.000000 0.000000
# 2 -0.008034 0.033500 -0.006688 0.000000 0.000000 0.000000
# 3 -0.003394 -0.006688 0.010113 0.000000 0.000000 0.000000
# 4 0.000000 0.000000 0.000000 0.832493 0.000000 0.000000
# 5 0.000000 0.000000 0.000000 0.000000 -0.055844 0.000000
# 6 0.000000 0.000000 0.000000 0.000000 0.000000 0.110784
#
#
# Mechanical properties :
#
#
# Convention : Reuss Voigt Hill
#
# Bulk Modulus (GPa) = 35.88644 47.68217 41.78430
# Shear Modulus (GPa) = 5.01478 8.21451 6.61464
#
# Velocity S-wave (km/s) = 1.78597 2.28580 2.05117
# Velocity P-wave (km/s) = 5.20372 6.10696 5.67335
#
# Compressibility (1/GPa) = 0.02786568
#
# Stress axis : x y z
#
# Youngs Moduli (GPa) = 48.81421 29.85092 98.88318
#
# Poissons Ratio (x) = 0.23982 0.33565
# Poissons Ratio (y) = 0.39216 0.66136
# Poissons Ratio (z) = 0.16569 0.19965
#
# Static dielectric constant tensor:
#      x y z
#    x 1.527010 0.000000 0.000000 
#    y 0.000000 1.498030 0.000000 
#    z 0.000000 0.000000 1.596870 
# 
# From -- ./inp_files/49141.got.cif
#   From: 2010.05.17/outbox.cif.g08.bks.cpg/sg66_25_cif.got.tgz:49141.got - 2010.06.03 17:51:23.
