data_PCOD9495616
_publ_section_title
;
Structure prediction by ZEFSAII (Michael W. Deem and Ramdas Pophale) SiO2 
 PCOD9495616
Probable space group: C C C M
;
_chemical_formula_sum "Si O2"
_cell_formula_units_Z 64
_cell_length_a 18.098321
_cell_length_b 10.387807
_cell_length_c 15.865352
_cell_angle_alpha 90.000000
_cell_angle_beta 90.000000
_cell_angle_gamma 90.000000
_cell_volume 2982.715774
_symmetry_space_group_name_H-M "C C C M"
_symmetry_group_IT_number 66
_symmetry_cell_setting 'orthorhombic'
loop_
_space_group_symop_operation_xyz
x,y,z
-x,-y,z
x,-y,1/2-z
-x,y,1/2-z
-x,-y,-z
x,y,-z
-x,y,1/2+z
x,-y,1/2+z
1/2+x,1/2+y,z
1/2-x,1/2-y,z
1/2+x,1/2-y,1/2-z
1/2-x,1/2+y,1/2-z
1/2-x,1/2-y,-z
1/2+x,1/2+y,-z
1/2-x,1/2+y,1/2+z
1/2+x,1/2-y,1/2+z
loop_
_atom_site_type_symbol
_atom_site_label
_atom_site_fract_x
_atom_site_fract_y
_atom_site_fract_z
Si Si1 0.511990 0.639145 0.902482
Si Si2 0.568255 0.093431 0.398253
Si Si3 0.783803 0.451703 0.841601
Si Si4 0.158358 0.201500 0.593195
O O1 0.500000 0.500000 0.860604
O O2 0.557359 0.759635 0.866249
O O3 0.428080 0.685941 0.905502
O O4 0.538687 0.617218 0.000000
O O5 0.561773 0.098941 0.500000
O O6 0.500000 0.000000 0.369609
O O7 0.649163 0.038654 0.376552
O O8 0.763468 0.500000 0.750000
O O9 0.819310 0.309352 0.840397
O O10 0.707835 0.425725 0.892854
O O11 0.174551 0.255940 0.500000
#
# Coordination Sequence:
#
# PCOD9495616 Si02
#       4
#    16  16  16  16
#     4   9  18  35  60  89 117 149 203 261 304 358
#     4  10  18  34  61  90 114 151 207 258 298 364
#     4  11  22  36  58  88 124 154 200 262 314 361
#     4  10  20  41  67  87 115 169 217 248 305 390
#
# _framework density 21.456954
#
# number of rings (size 3 to 8) (size 9 to 14) (size 15 to 20)
#    0.000    2.000    2.500    3.000    0.000    0.500 
#    9.000    0.000    0.000    6.000    0.000    0.000 
#    0.000    0.000    0.000    0.000    0.000    0.000 
#
# Total GULP energy -178157.143725 kJ/mol
# GULP energy per Si atom -5567.410741 kJ/mol
# Density = 2.140812 g / cm^3
# Si number density = 21.456954 Si / 1000 Ang^3
#
#
#
# Elastic Constant Matrix: (Units=GPa)
#
#
# Indices 1 2 3 4 5 6 
#
# 1 63.0762 20.8977 -6.4033 0.0000 0.0000 0.0000
# 2 20.8977 137.0439 15.1357 0.0000 0.0000 0.0000
# 3 -6.4033 15.1357 39.8488 0.0000 0.0000 0.0000
# 4 0.0000 0.0000 0.0000 22.5948 0.0000 0.0000
# 5 0.0000 0.0000 0.0000 0.0000 67.9616 0.0000
# 6 0.0000 0.0000 0.0000 0.0000 0.0000 46.3001
#
#
#
# Elastic Compliance Matrix: (Units=1/GPa)
#
#
# Indices 1 2 3 4 5 6 
#
# 1 0.017271 -0.003069 0.003941 0.000000 0.000000 0.000000
# 2 -0.003069 0.008162 -0.003593 0.000000 0.000000 0.000000
# 3 0.003941 -0.003593 0.027093 0.000000 0.000000 0.000000
# 4 0.000000 0.000000 0.000000 0.044258 0.000000 0.000000
# 5 0.000000 0.000000 0.000000 0.000000 0.014714 0.000000
# 6 0.000000 0.000000 0.000000 0.000000 0.000000 0.021598
#
#
# Mechanical properties :
#
#
# Convention : Reuss Voigt Hill
#
# Bulk Modulus (GPa) = 21.23908 33.24767 27.24338
# Shear Modulus (GPa) = 32.41862 41.39388 36.90625
#
# Velocity S-wave (km/s) = 3.89121 4.39698 4.15180
# Velocity P-wave (km/s) = 5.48713 6.42703 5.97559
#
# Compressibility (1/GPa) = 0.04708302
#
# Stress axis : x y z
#
# Youngs Moduli (GPa) = 57.90169 122.52284 36.90996
#
# Poissons Ratio (x) = 0.37600 -0.14546
# Poissons Ratio (y) = 0.17769 0.13263
# Poissons Ratio (z) = -0.22818 0.44025
#
# Static dielectric constant tensor:
#      x y z
#    x 1.804350 0.000000 0.000000 
#    y 0.000000 1.856520 0.000000 
#    z 0.000000 0.000000 1.766720 
# 
# From -- ./inp_files/42369.got.cif
#   From: 2010.05.17/outbox.cif.g08.bks.cpg/sg66_22_cif.got.tgz:42369.got - 2010.06.03 17:51:23.
