data_PCOD9495605
_publ_section_title
;
Structure prediction by ZEFSAII (Michael W. Deem and Ramdas Pophale) SiO2 
 PCOD9495605
Probable space group: C C C M
;
_chemical_formula_sum "Si O2"
_cell_formula_units_Z 84
_cell_length_a 11.769012
_cell_length_b 15.411453
_cell_length_c 21.930948
_cell_angle_alpha 90.000000
_cell_angle_beta 90.000000
_cell_angle_gamma 90.000000
_cell_volume 3977.782172
_symmetry_space_group_name_H-M "C C C M"
_symmetry_group_IT_number 66
_symmetry_cell_setting 'orthorhombic'
loop_
_space_group_symop_operation_xyz
x,y,z
-x,-y,z
x,-y,1/2-z
-x,y,1/2-z
-x,-y,-z
x,y,-z
-x,y,1/2+z
x,-y,1/2+z
1/2+x,1/2+y,z
1/2-x,1/2-y,z
1/2+x,1/2-y,1/2-z
1/2-x,1/2+y,1/2-z
1/2-x,1/2-y,-z
1/2+x,1/2+y,-z
1/2-x,1/2+y,1/2+z
1/2+x,1/2-y,1/2+z
loop_
_atom_site_type_symbol
_atom_site_label
_atom_site_fract_x
_atom_site_fract_y
_atom_site_fract_z
Si Si1 0.828527 0.044828 0.433338
Si Si2 0.369452 0.895289 0.745256
Si Si3 0.339013 0.172271 0.889997
Si Si4 0.329743 0.393352 0.664244
Si Si5 0.019692 0.804265 0.928452
Si Si6 0.500000 0.500000 0.250000
O O1 0.850954 0.006614 0.500000
O O2 0.712283 0.098888 0.432791
O O3 0.930775 0.113801 0.420689
O O4 0.812616 0.972466 0.382804
O O5 0.500000 0.865723 0.750000
O O6 0.334374 0.864241 0.678350
O O7 0.280753 0.866508 0.797124
O O8 0.367644 0.000000 0.750000
O O9 0.250000 0.250000 0.893413
O O10 0.455490 0.215353 0.911264
O O11 0.383454 0.320172 0.621286
O O12 0.420314 0.435642 0.711092
O O13 0.051712 0.802699 0.000000
#
# Coordination Sequence:
#
# PCOD9495605 Si02
#       6
#    16  16  16  16  16   4
#     4  10  18  34  58  91 131 174 217 264 332 409
#     4  11  24  42  62  84 123 172 227 271 324 410
#     4  10  21  38  60  92 129 174 215 269 337 397
#     4  12  21  36  62  93 130 168 218 283 337 394
#     4  10  21  36  60  97 136 170 217 278 345 410
#     4  12  20  32  56  92 132 164 206 272 332 396
#
# _framework density 21.117294999999999
#
# number of rings (size 3 to 8) (size 9 to 14) (size 15 to 20)
#    0.000    1.333    4.762    1.143    2.667    5.333 
#    0.000    0.000    0.000    6.857    0.000    0.000 
#    0.000    0.000    0.000    0.000    0.000    0.000 
#
# Total GULP energy -234580.953302 kJ/mol
# GULP energy per Si atom -5585.260793 kJ/mol
# Density = 2.106923 g / cm^3
# Si number density = 21.117295 Si / 1000 Ang^3
#
#
#
# Elastic Constant Matrix: (Units=GPa)
#
#
# Indices 1 2 3 4 5 6 
#
# 1 120.7453 24.1319 72.4823 0.0000 0.0000 0.0000
# 2 24.1319 43.0246 31.1078 0.0000 0.0000 0.0000
# 3 72.4823 31.1078 161.0333 0.0000 0.0000 0.0000
# 4 0.0000 0.0000 0.0000 32.7848 0.0000 0.0000
# 5 0.0000 0.0000 0.0000 0.0000 28.0862 0.0000
# 6 0.0000 0.0000 0.0000 0.0000 0.0000 40.8203
#
#
#
# Elastic Compliance Matrix: (Units=1/GPa)
#
#
# Indices 1 2 3 4 5 6 
#
# 1 0.011717 -0.003207 -0.004654 0.000000 0.000000 0.000000
# 2 -0.003207 0.027893 -0.003945 0.000000 0.000000 0.000000
# 3 -0.004654 -0.003945 0.009067 0.000000 0.000000 0.000000
# 4 0.000000 0.000000 0.000000 0.030502 0.000000 0.000000
# 5 0.000000 0.000000 0.000000 0.000000 0.035605 0.000000
# 6 0.000000 0.000000 0.000000 0.000000 0.000000 0.024498
#
#
# Mechanical properties :
#
#
# Convention : Reuss Voigt Hill
#
# Bulk Modulus (GPa) = 39.89599 64.47190 52.18394
# Shear Modulus (GPa) = 29.19738 33.47700 31.33719
#
# Velocity S-wave (km/s) = 3.72241 3.98589 3.85640
# Velocity P-wave (km/s) = 6.11626 7.19581 6.67789
#
# Compressibility (1/GPa) = 0.02506518
#
# Stress axis : x y z
#
# Youngs Moduli (GPa) = 85.34815 35.85078 110.29074
#
# Poissons Ratio (x) = 0.11496 0.51333
# Poissons Ratio (y) = 0.27367 0.43510
# Poissons Ratio (z) = 0.39724 0.14143
#
# Static dielectric constant tensor:
#      x y z
#    x 1.806880 0.000000 0.000000 
#    y 0.000000 1.765350 0.000000 
#    z 0.000000 0.000000 1.768600 
# 
# From -- ./inp_files/48466.got.cif
#   From: 2010.05.17/outbox.cif.g08.bks.cpg/sg66_25_cif.got.tgz:48466.got - 2010.06.03 17:51:23.
