data_PCOD9495027
_publ_section_title
;
Structure prediction by ZEFSAII (Michael W. Deem and Ramdas Pophale) SiO2 
 PCOD9495027
Probable space group: C C C M
;
_chemical_formula_sum "Si O2"
_cell_formula_units_Z 88
_cell_length_a 13.889022
_cell_length_b 16.582087
_cell_length_c 14.414686
_cell_angle_alpha 90.000000
_cell_angle_beta 90.000000
_cell_angle_gamma 90.000000
_cell_volume 3319.831502
_symmetry_space_group_name_H-M "C C C M"
_symmetry_group_IT_number 66
_symmetry_cell_setting 'orthorhombic'
loop_
_space_group_symop_operation_xyz
x,y,z
-x,-y,z
x,-y,1/2-z
-x,y,1/2-z
-x,-y,-z
x,y,-z
-x,y,1/2+z
x,-y,1/2+z
1/2+x,1/2+y,z
1/2-x,1/2-y,z
1/2+x,1/2-y,1/2-z
1/2-x,1/2+y,1/2-z
1/2-x,1/2-y,-z
1/2+x,1/2+y,-z
1/2-x,1/2+y,1/2+z
1/2+x,1/2-y,1/2+z
loop_
_atom_site_type_symbol
_atom_site_label
_atom_site_fract_x
_atom_site_fract_y
_atom_site_fract_z
Si Si1 0.261351 0.941849 0.000000
Si Si2 0.138386 0.725785 0.000000
Si Si3 0.577308 0.929265 0.000000
Si Si4 0.142377 0.203795 0.101038
Si Si5 0.118354 0.583505 0.704394
Si Si6 0.668594 0.470568 0.344582
Si Si7 0.866778 0.741615 0.301479
O O1 0.320290 0.025275 0.000000
O O2 0.195736 0.952262 0.908656
O O3 0.341534 0.871329 0.000000
O O4 0.250000 0.750000 0.000000
O O5 0.096115 0.759662 0.095533
O O6 0.575826 0.892339 0.896369
O O7 0.500000 0.000000 0.000000
O O8 0.250000 0.250000 0.104594
O O9 0.130485 0.106121 0.099306
O O10 0.102351 0.219998 0.204197
O O11 0.106234 0.232878 0.000000
O O12 0.089081 0.500000 0.750000
O O13 0.231815 0.570697 0.689740
O O14 0.106498 0.649478 0.782338
O O15 0.618516 0.500000 0.250000
O O16 0.750000 0.750000 0.305999
#
# Coordination Sequence:
#
# PCOD9495027 Si02
#       7
#     8   8   8  16  16  16  16
#     4  10  20  30  46  60  84 120 156 202 240 280
#     4  10  20  30  44  66  90 116 152 198 238 282
#     4  10  22  34  48  66  86 116 168 222 254 282
#     4  10  18  26  37  59  86 111 148 191 224 276
#     4  10  19  30  46  62  85 119 156 204 243 284
#     4  10  17  27  41  58  82 114 152 191 225 274
#     4  10  18  28  42  64  89 115 150 196 232 290
#
# _framework density 26.507370000000002
#
# number of rings (size 3 to 8) (size 9 to 14) (size 15 to 20)
#    0.000    2.000    4.545    3.273    3.818    0.364 
#    0.000    0.000    0.000    0.000    0.000    0.000 
#    0.000    0.000    0.000    0.000    0.000    3.636 
#
# Total GULP energy -245246.914277 kJ/mol
# GULP energy per Si atom -5573.793506 kJ/mol
# Density = 2.644704 g / cm^3
# Si number density = 26.507370 Si / 1000 Ang^3
#
#
#
# Elastic Constant Matrix: (Units=GPa)
#
#
# Indices 1 2 3 4 5 6 
#
# 1 42.0717 4.7818 32.8074 0.0000 0.0000 0.0000
# 2 4.7818 81.9664 39.1693 0.0000 0.0000 0.0000
# 3 32.8074 39.1693 309.8421 0.0000 0.0000 0.0000
# 4 0.0000 0.0000 0.0000 32.9391 0.0000 0.0000
# 5 0.0000 0.0000 0.0000 0.0000 21.5688 0.0000
# 6 0.0000 0.0000 0.0000 0.0000 0.0000 -5.2753
#
#
#
# Elastic Compliance Matrix: (Units=1/GPa)
#
#
# Indices 1 2 3 4 5 6 
#
# 1 0.025912 -0.000213 -0.002717 0.000000 0.000000 0.000000
# 2 -0.000213 0.012986 -0.001619 0.000000 0.000000 0.000000
# 3 -0.002717 -0.001619 0.003720 0.000000 0.000000 0.000000
# 4 0.000000 0.000000 0.000000 0.030359 0.000000 0.000000
# 5 0.000000 0.000000 0.000000 0.000000 0.046363 0.000000
# 6 0.000000 0.000000 0.000000 0.000000 0.000000 -0.189562
#
#
# Mechanical properties :
#
#
# Convention : Reuss Voigt Hill
#
# Bulk Modulus (GPa) = 29.83351 65.26634 47.54993
# Shear Modulus (GPa) = -100.09902 33.65464 -33.22219
#
# Velocity S-wave (km/s) = -6.15180 3.56706 -3.54407
# Velocity P-wave (km/s) = 6.25942 6.45295 1.10911
#
# Compressibility (1/GPa) = 0.03351935
#
# Stress axis : x y z
#
# Youngs Moduli (GPa) = 38.59273 77.00430 268.83310
#
# Poissons Ratio (x) = 0.01644 0.73033
# Poissons Ratio (y) = 0.00824 0.43526
# Poissons Ratio (z) = 0.10484 0.12468
#
# Static dielectric constant tensor:
#      x y z
#    x 2.145370 0.000000 0.000000 
#    y 0.000000 2.142450 0.000000 
#    z 0.000000 0.000000 2.138970 
# 
# From -- ./inp_files/30063.got.cif
#   From: 2010.05.17/outbox.cif.g08.bks.cpg/sg66_16_cif.got.tgz:30063.got - 2010.06.03 17:51:23.
