data_PCOD9495825
_publ_section_title
;
Structure prediction by ZEFSAII (Michael W. Deem and Ramdas Pophale) SiO2 
 PCOD9495825
Probable space group: C C C M
;
_chemical_formula_sum "Si O2"
_cell_formula_units_Z 96
_cell_length_a 25.806481
_cell_length_b 12.144156
_cell_length_c 14.813442
_cell_angle_alpha 90.000000
_cell_angle_beta 90.000000
_cell_angle_gamma 90.000000
_cell_volume 4642.502075
_symmetry_space_group_name_H-M "C C C M"
_symmetry_group_IT_number 66
_symmetry_cell_setting 'orthorhombic'
loop_
_space_group_symop_operation_xyz
x,y,z
-x,-y,z
x,-y,1/2-z
-x,y,1/2-z
-x,-y,-z
x,y,-z
-x,y,1/2+z
x,-y,1/2+z
1/2+x,1/2+y,z
1/2-x,1/2-y,z
1/2+x,1/2-y,1/2-z
1/2-x,1/2+y,1/2-z
1/2-x,1/2-y,-z
1/2+x,1/2+y,-z
1/2-x,1/2+y,1/2+z
1/2+x,1/2-y,1/2+z
loop_
_atom_site_type_symbol
_atom_site_label
_atom_site_fract_x
_atom_site_fract_y
_atom_site_fract_z
Si Si1 0.611452 0.744383 0.400002
Si Si2 0.796699 0.393069 0.857518
Si Si3 0.942381 0.538824 0.609954
Si Si4 0.818099 0.062687 0.110533
Si Si5 0.153944 0.605439 0.341638
Si Si6 0.800278 0.816091 0.106100
O O1 0.590972 0.718378 0.500000
O O2 0.665996 0.810212 0.408580
O O3 0.573109 0.836830 0.359779
O O4 0.631777 0.631195 0.356327
O O5 0.735641 0.378874 0.861169
O O6 0.821361 0.386681 0.757684
O O7 0.808158 0.517872 0.891229
O O8 0.936246 0.537336 0.500000
O O9 0.901156 0.453619 0.650969
O O10 0.000000 0.500000 0.631564
O O11 0.813198 0.936491 0.143436
O O12 0.820138 0.063700 0.000000
O O13 0.154517 0.726924 0.381265
O O14 0.750000 0.750000 0.143033
O O15 0.791005 0.832120 0.000000
#
# Coordination Sequence:
#
# PCOD9495825 Si02
#       6
#    16  16  16  16  16  16
#     4   9  18  32  50  73  99 132 179 224 266 314
#     4  10  19  31  45  71 105 137 173 209 265 318
#     4   9  18  35  60  81  99 132 180 236 286 323
#     4  10  19  32  50  72 103 146 185 219 261 317
#     4  10  20  33  46  73 108 136 174 216 267 329
#     4  10  19  31  48  69 100 145 182 212 257 322
#
# _framework density 20.678502999999999
#
# number of rings (size 3 to 8) (size 9 to 14) (size 15 to 20)
#    0.000    2.333    1.667    1.500    0.000    4.000 
#    3.000    6.667    0.000    1.000    0.000    5.833 
#    0.000    8.000    0.000    0.167    0.000    0.000 
#
# Total GULP energy -267576.487912 kJ/mol
# GULP energy per Si atom -5574.510165 kJ/mol
# Density = 2.063144 g / cm^3
# Si number density = 20.678503 Si / 1000 Ang^3
#
#
#
# Elastic Constant Matrix: (Units=GPa)
#
#
# Indices 1 2 3 4 5 6 
#
# 1 118.5737 53.6278 9.2270 0.0000 0.0000 0.0000
# 2 53.6278 149.9944 10.7062 0.0000 0.0000 0.0000
# 3 9.2270 10.7062 50.5385 0.0000 0.0000 0.0000
# 4 0.0000 0.0000 0.0000 16.3580 0.0000 0.0000
# 5 0.0000 0.0000 0.0000 0.0000 15.2747 0.0000
# 6 0.0000 0.0000 0.0000 0.0000 0.0000 32.1903
#
#
#
# Elastic Compliance Matrix: (Units=1/GPa)
#
#
# Indices 1 2 3 4 5 6 
#
# 1 0.010120 -0.003540 -0.001098 0.000000 0.000000 0.000000
# 2 -0.003540 0.008007 -0.001050 0.000000 0.000000 0.000000
# 3 -0.001098 -0.001050 0.020210 0.000000 0.000000 0.000000
# 4 0.000000 0.000000 0.000000 0.061132 0.000000 0.000000
# 5 0.000000 0.000000 0.000000 0.000000 0.065468 0.000000
# 6 0.000000 0.000000 0.000000 0.000000 0.000000 0.031065
#
#
# Mechanical properties :
#
#
# Convention : Reuss Voigt Hill
#
# Bulk Modulus (GPa) = 37.08934 51.80319 44.44627
# Shear Modulus (GPa) = 23.10912 29.13431 26.12171
#
# Velocity S-wave (km/s) = 3.34659 3.75763 3.55805
# Velocity P-wave (km/s) = 5.73655 6.62816 6.19841
#
# Compressibility (1/GPa) = 0.02696192
#
# Stress axis : x y z
#
# Youngs Moduli (GPa) = 98.81437 124.88325 49.48100
#
# Poissons Ratio (x) = 0.44207 0.05432
# Poissons Ratio (y) = 0.34979 0.05196
# Poissons Ratio (z) = 0.10847 0.13113
#
# Static dielectric constant tensor:
#      x y z
#    x 1.721920 0.000000 0.000000 
#    y 0.000000 1.857910 0.000000 
#    z 0.000000 0.000000 1.816170 
# 
# From -- ./inp_files/44242.got.cif
#   From: 2010.05.17/outbox.cif.g08.bks.cpg/sg66_23_cif.got.tgz:44242.got - 2010.06.03 17:51:23.
