data_PCOD9495632
_publ_section_title
;
Structure prediction by ZEFSAII (Michael W. Deem and Ramdas Pophale) SiO2 
 PCOD9495632
Probable space group: C C C M
;
_chemical_formula_sum "Si O2"
_cell_formula_units_Z 96
_cell_length_a 25.071521
_cell_length_b 11.761746
_cell_length_c 17.478620
_cell_angle_alpha 90.000000
_cell_angle_beta 90.000000
_cell_angle_gamma 90.000000
_cell_volume 5154.180444
_symmetry_space_group_name_H-M "C C C M"
_symmetry_group_IT_number 66
_symmetry_cell_setting 'orthorhombic'
loop_
_space_group_symop_operation_xyz
x,y,z
-x,-y,z
x,-y,1/2-z
-x,y,1/2-z
-x,-y,-z
x,y,-z
-x,y,1/2+z
x,-y,1/2+z
1/2+x,1/2+y,z
1/2-x,1/2-y,z
1/2+x,1/2-y,1/2-z
1/2-x,1/2+y,1/2-z
1/2-x,1/2-y,-z
1/2+x,1/2+y,-z
1/2-x,1/2+y,1/2+z
1/2+x,1/2-y,1/2+z
loop_
_atom_site_type_symbol
_atom_site_label
_atom_site_fract_x
_atom_site_fract_y
_atom_site_fract_z
Si Si1 0.175899 0.448506 0.669004
Si Si2 0.795487 0.104934 0.161812
Si Si3 0.376225 0.249823 0.413052
Si Si4 0.562537 0.523188 0.409890
Si Si5 0.694664 0.814136 0.090526
Si Si6 0.148878 0.117249 0.825416
O O1 0.160525 0.500000 0.750000
O O2 0.233240 0.384918 0.679145
O O3 0.132356 0.361008 0.638012
O O4 0.188085 0.555244 0.614184
O O5 0.820125 0.182447 0.096431
O O6 0.832040 0.127774 0.237392
O O7 0.808083 0.973756 0.141644
O O8 0.384484 0.214442 0.500000
O O9 0.420121 0.346089 0.393854
O O10 0.500000 0.500000 0.404160
O O11 0.578416 0.501707 0.500000
O O12 0.594274 0.444153 0.349965
O O13 0.750000 0.750000 0.112387
O O14 0.651690 0.738485 0.135225
O O15 0.688850 0.802951 0.000000
#
# Coordination Sequence:
#
# PCOD9495632 Si02
#       6
#    16  16  16  16  16  16
#     4  12  21  34  51  74 112 158 192 228 279 348
#     4  10  19  33  52  75 109 151 189 231 285 341
#     4  10  22  36  54  82 113 147 198 250 294 347
#     4   9  19  38  64  88 112 145 187 246 309 351
#     4  11  21  31  47  73 109 149 186 225 271 335
#     4  10  18  35  51  80 110 145 190 233 280 348
#
# _framework density 18.625658000000001
#
# number of rings (size 3 to 8) (size 9 to 14) (size 15 to 20)
#    0.000    1.667    3.333    2.500    0.000    2.667 
#    0.000    6.667    0.000    1.000    0.000    5.833 
#    0.000    0.000    0.000    0.000    0.000    0.000 
#
# Total GULP energy -267588.329005 kJ/mol
# GULP energy per Si atom -5574.756854 kJ/mol
# Density = 1.858326 g / cm^3
# Si number density = 18.625658 Si / 1000 Ang^3
#
#
#
# Elastic Constant Matrix: (Units=GPa)
#
#
# Indices 1 2 3 4 5 6 
#
# 1 83.0000 41.7356 42.8056 0.0000 0.0000 0.0000
# 2 41.7356 94.3366 38.0181 0.0000 0.0000 0.0000
# 3 42.8056 38.0181 59.7551 0.0000 0.0000 0.0000
# 4 0.0000 0.0000 0.0000 36.6612 0.0000 0.0000
# 5 0.0000 0.0000 0.0000 0.0000 17.7756 0.0000
# 6 0.0000 0.0000 0.0000 0.0000 0.0000 17.0985
#
#
#
# Elastic Compliance Matrix: (Units=1/GPa)
#
#
# Indices 1 2 3 4 5 6 
#
# 1 0.020268 -0.004190 -0.011853 0.000000 0.000000 0.000000
# 2 -0.004190 0.015122 -0.006619 0.000000 0.000000 0.000000
# 3 -0.011853 -0.006619 0.029438 0.000000 0.000000 0.000000
# 4 0.000000 0.000000 0.000000 0.027277 0.000000 0.000000
# 5 0.000000 0.000000 0.000000 0.000000 0.056257 0.000000
# 6 0.000000 0.000000 0.000000 0.000000 0.000000 0.058484
#
#
# Mechanical properties :
#
#
# Convention : Reuss Voigt Hill
#
# Bulk Modulus (GPa) = 51.27666 53.57892 52.42779
# Shear Modulus (GPa) = 19.32952 21.94257 20.63604
#
# Velocity S-wave (km/s) = 3.22497 3.43604 3.33218
# Velocity P-wave (km/s) = 6.43872 6.67611 6.55849
#
# Compressibility (1/GPa) = 0.01950205
#
# Stress axis : x y z
#
# Youngs Moduli (GPa) = 49.33847 66.13023 33.97018
#
# Poissons Ratio (x) = 0.27708 0.40266
# Poissons Ratio (y) = 0.20672 0.22486
# Poissons Ratio (z) = 0.58483 0.43774
#
# Static dielectric constant tensor:
#      x y z
#    x 1.635300 0.000000 0.000000 
#    y 0.000000 1.691920 0.000000 
#    z 0.000000 0.000000 1.679870 
# 
# From -- ./inp_files/44241.got.cif
#   From: 2010.05.17/outbox.cif.g08.bks.cpg/sg66_23_cif.got.tgz:44241.got - 2010.06.03 17:51:23.
