data_PCOD9495670
_publ_section_title
;
Structure prediction by ZEFSAII (Michael W. Deem and Ramdas Pophale) SiO2 
 PCOD9495670
Probable space group: C C C M
;
_chemical_formula_sum "Si O2"
_cell_formula_units_Z 60
_cell_length_a 12.353478
_cell_length_b 8.909757
_cell_length_c 25.460523
_cell_angle_alpha 90.000000
_cell_angle_beta 90.000000
_cell_angle_gamma 90.000000
_cell_volume 2802.350326
_symmetry_space_group_name_H-M "C C C M"
_symmetry_group_IT_number 66
_symmetry_cell_setting 'orthorhombic'
loop_
_space_group_symop_operation_xyz
x,y,z
-x,-y,z
x,-y,1/2-z
-x,y,1/2-z
-x,-y,-z
x,y,-z
-x,y,1/2+z
x,-y,1/2+z
1/2+x,1/2+y,z
1/2-x,1/2-y,z
1/2+x,1/2-y,1/2-z
1/2-x,1/2+y,1/2-z
1/2-x,1/2-y,-z
1/2+x,1/2+y,-z
1/2-x,1/2+y,1/2+z
1/2+x,1/2-y,1/2+z
loop_
_atom_site_type_symbol
_atom_site_label
_atom_site_fract_x
_atom_site_fract_y
_atom_site_fract_z
Si Si1 0.546185 0.733462 0.921563
Si Si2 0.478762 0.178991 0.690839
Si Si3 0.500000 0.000000 0.500000
Si Si4 0.177157 0.050453 0.442735
Si Si5 0.250000 0.250000 0.355088
O O1 0.544567 0.755021 0.858747
O O2 0.546440 0.885469 0.953984
O O3 0.433132 0.649791 0.937781
O O4 0.640669 0.619831 0.937119
O O5 0.500000 0.232397 0.750000
O O6 0.356307 0.227396 0.678511
O O7 0.500000 0.000000 0.689820
O O8 0.228150 0.076671 0.500000
O O9 0.247133 0.108653 0.394749
#
# Coordination Sequence:
#
# PCOD9495670 Si02
#       5
#    16  16   4  16   8
#     4  10  19  33  62  93 128 178 216 267 339 397
#     4  10  22  44  65  90 132 175 220 280 336 392
#     4  12  16  30  62  94 132 170 220 258 332 400
#     4  10  18  36  58  94 135 169 216 271 333 410
#     4  10  23  40  66  96 122 179 230 264 348 404
#
# _framework density 21.410599999999999
#
# number of rings (size 3 to 8) (size 9 to 14) (size 15 to 20)
#    0.000    1.867    4.000    1.200    0.000    0.000 
#    9.600    9.333    0.000    8.000    0.000    0.000 
#    0.000    0.000    0.000    0.000    0.000    0.000 
#
# Total GULP energy -167182.185787 kJ/mol
# GULP energy per Si atom -5572.739526 kJ/mol
# Density = 2.136187 g / cm^3
# Si number density = 21.410600 Si / 1000 Ang^3
#
#
#
# Elastic Constant Matrix: (Units=GPa)
#
#
# Indices 1 2 3 4 5 6 
#
# 1 45.9448 23.2220 53.0930 0.0000 0.0000 0.0000
# 2 23.2220 102.7121 53.6714 0.0000 0.0000 0.0000
# 3 53.0930 53.6714 239.8703 0.0000 0.0000 0.0000
# 4 0.0000 0.0000 0.0000 34.4772 0.0000 0.0000
# 5 0.0000 0.0000 0.0000 0.0000 -24.9540 0.0000
# 6 0.0000 0.0000 0.0000 0.0000 0.0000 29.1379
#
#
#
# Elastic Compliance Matrix: (Units=1/GPa)
#
#
# Indices 1 2 3 4 5 6 
#
# 1 0.030511 -0.003815 -0.005900 0.000000 0.000000 0.000000
# 2 -0.003815 0.011502 -0.001729 0.000000 0.000000 0.000000
# 3 -0.005900 -0.001729 0.005862 0.000000 0.000000 0.000000
# 4 0.000000 0.000000 0.000000 0.029005 0.000000 0.000000
# 5 0.000000 0.000000 0.000000 0.000000 -0.040074 0.000000
# 6 0.000000 0.000000 0.000000 0.000000 0.000000 0.034320
#
#
# Mechanical properties :
#
#
# Convention : Reuss Voigt Hill
#
# Bulk Modulus (GPa) = 40.02147 72.05556 56.03852
# Shear Modulus (GPa) = 48.85551 24.96828 36.91189
#
# Velocity S-wave (km/s) = 4.78204 3.41862 4.15661
# Velocity P-wave (km/s) = 7.01595 7.02210 7.01902
#
# Compressibility (1/GPa) = 0.02498659
#
# Stress axis : x y z
#
# Youngs Moduli (GPa) = 32.77488 86.94055 170.60066
#
# Poissons Ratio (x) = 0.33171 1.00648
# Poissons Ratio (y) = 0.12505 0.29499
# Poissons Ratio (z) = 0.19336 0.15033
#
# Static dielectric constant tensor:
#      x y z
#    x 1.819340 0.000000 0.000000 
#    y 0.000000 1.783030 0.000000 
#    z 0.000000 0.000000 1.748390 
# 
# From -- ./inp_files/64220.got.cif
#   From: 2010.05.17/outbox.cif.g08.bks.cpg/sg66_33_cif.got.tgz:64220.got - 2010.06.03 17:51:23.
