data_PCOD9495993
_publ_section_title
;
Structure prediction by ZEFSAII (Michael W. Deem and Ramdas Pophale) SiO2 
 PCOD9495993
Probable space group: C C C M
;
_chemical_formula_sum "Si O2"
_cell_formula_units_Z 72
_cell_length_a 12.592953
_cell_length_b 32.007092
_cell_length_c 9.719108
_cell_angle_alpha 90.000000
_cell_angle_beta 90.000000
_cell_angle_gamma 90.000000
_cell_volume 3917.420654
_symmetry_space_group_name_H-M "C C C M"
_symmetry_group_IT_number 66
_symmetry_cell_setting 'orthorhombic'
loop_
_space_group_symop_operation_xyz
x,y,z
-x,-y,z
x,-y,1/2-z
-x,y,1/2-z
-x,-y,-z
x,y,-z
-x,y,1/2+z
x,-y,1/2+z
1/2+x,1/2+y,z
1/2-x,1/2-y,z
1/2+x,1/2-y,1/2-z
1/2-x,1/2+y,1/2-z
1/2-x,1/2-y,-z
1/2+x,1/2+y,-z
1/2-x,1/2+y,1/2+z
1/2+x,1/2-y,1/2+z
loop_
_atom_site_type_symbol
_atom_site_label
_atom_site_fract_x
_atom_site_fract_y
_atom_site_fract_z
Si Si1 0.592802 0.813279 0.646666
Si Si2 0.729966 0.384908 0.844870
Si Si3 0.250000 0.750000 0.267177
Si Si4 0.899388 0.175130 0.342510
Si Si5 0.396241 0.956293 0.168466
O O1 0.500000 0.820649 0.750000
O O2 0.540022 0.809197 0.500000
O O3 0.675787 0.850853 0.648039
O O4 0.660115 0.772277 0.677996
O O5 0.650176 0.365634 0.733227
O O6 0.792338 0.427597 0.813293
O O7 0.683275 0.387382 0.000000
O O8 0.188739 0.787767 0.342501
O O9 0.929719 0.166880 0.500000
O O10 0.000000 0.188195 0.250000
O O11 0.500000 0.938107 0.250000
O O12 0.380359 0.000000 0.250000
O O13 0.413858 0.960182 0.000000
#
# Coordination Sequence:
#
# PCOD9495993 Si02
#       5
#    16  16   8  16  16
#     4  10  20  33  50  71  98 133 171 213 258 305
#     4   9  20  37  54  75 105 140 176 214 260 312
#     4  10  22  36  52  74 102 136 176 216 260 310
#     4  11  23  38  57  79 105 138 178 222 267 316
#     4  10  19  32  53  82 115 147 178 216 262 315
#
# _framework density 18.379441
#
# number of rings (size 3 to 8) (size 9 to 14) (size 15 to 20)
#    0.000    2.000    0.000    4.000    0.000   10.667 
#    0.000    0.000    0.000    0.667    0.000    4.667 
#    0.000    0.000    0.000    0.000    0.000    0.000 
#
# Total GULP energy -200551.647475 kJ/mol
# GULP energy per Si atom -5570.879097 kJ/mol
# Density = 1.833761 g / cm^3
# Si number density = 18.379441 Si / 1000 Ang^3
#
#
#
# Elastic Constant Matrix: (Units=GPa)
#
#
# Indices 1 2 3 4 5 6 
#
# 1 54.3832 11.1187 44.1045 0.0000 0.0000 0.0000
# 2 11.1187 65.5468 25.6426 0.0000 0.0000 0.0000
# 3 44.1045 25.6426 157.5066 0.0000 0.0000 0.0000
# 4 0.0000 0.0000 0.0000 -53.0165 0.0000 0.0000
# 5 0.0000 0.0000 0.0000 0.0000 28.2948 0.0000
# 6 0.0000 0.0000 0.0000 0.0000 0.0000 17.1078
#
#
#
# Elastic Compliance Matrix: (Units=1/GPa)
#
#
# Indices 1 2 3 4 5 6 
#
# 1 0.023935 -0.001536 -0.006452 0.000000 0.000000 0.000000
# 2 -0.001536 0.016393 -0.002239 0.000000 0.000000 0.000000
# 3 -0.006452 -0.002239 0.008520 0.000000 0.000000 0.000000
# 4 0.000000 0.000000 0.000000 -0.018862 0.000000 0.000000
# 5 0.000000 0.000000 0.000000 0.000000 0.035342 0.000000
# 6 0.000000 0.000000 0.000000 0.000000 0.000000 0.058453
#
#
# Mechanical properties :
#
#
# Convention : Reuss Voigt Hill
#
# Bulk Modulus (GPa) = 35.21870 48.79647 42.00758
# Shear Modulus (GPa) = 32.53125 11.58194 22.05660
#
# Velocity S-wave (km/s) = 4.21168 2.51302 3.46796
# Velocity P-wave (km/s) = 6.54634 5.91840 6.24027
#
# Compressibility (1/GPa) = 0.02839401
#
# Stress axis : x y z
#
# Youngs Moduli (GPa) = 41.78045 61.00311 117.36975
#
# Poissons Ratio (x) = 0.09370 0.75727
# Poissons Ratio (y) = 0.06417 0.26275
# Poissons Ratio (z) = 0.26957 0.13657
#
# Static dielectric constant tensor:
#      x y z
#    x 1.619490 0.000000 0.000000 
#    y 0.000000 1.647910 0.000000 
#    z 0.000000 0.000000 1.654760 
# 
# From -- ./inp_files/5551.got.cif
#   From: 2010.05.17/outbox.cif.g08.bks.cpg/sg66_3_cif.got.tgz:5551.got - 2010.06.03 17:51:23.
