data_PCOD9495277
_publ_section_title
;
Structure prediction by ZEFSAII (Michael W. Deem and Ramdas Pophale) SiO2 
 PCOD9495277
Probable space group: C C C M
;
_chemical_formula_sum "Si O2"
_cell_formula_units_Z 112
_cell_length_a 17.164858
_cell_length_b 20.915967
_cell_length_c 18.432688
_cell_angle_alpha 90.000000
_cell_angle_beta 90.000000
_cell_angle_gamma 90.000000
_cell_volume 6617.696337
_symmetry_space_group_name_H-M "C C C M"
_symmetry_group_IT_number 66
_symmetry_cell_setting 'orthorhombic'
loop_
_space_group_symop_operation_xyz
x,y,z
-x,-y,z
x,-y,1/2-z
-x,y,1/2-z
-x,-y,-z
x,y,-z
-x,y,1/2+z
x,-y,1/2+z
1/2+x,1/2+y,z
1/2-x,1/2-y,z
1/2+x,1/2-y,1/2-z
1/2-x,1/2+y,1/2-z
1/2-x,1/2-y,-z
1/2+x,1/2+y,-z
1/2-x,1/2+y,1/2+z
1/2+x,1/2-y,1/2+z
loop_
_atom_site_type_symbol
_atom_site_label
_atom_site_fract_x
_atom_site_fract_y
_atom_site_fract_z
Si Si1 0.939323 0.259290 0.686450
Si Si2 0.322431 0.998353 0.919421
Si Si3 0.921946 0.741839 0.414749
Si Si4 0.965141 0.595690 0.417589
Si Si5 0.114645 0.395954 0.824770
Si Si6 0.764136 0.566039 0.712388
Si Si7 0.820176 0.200260 0.214025
O O1 0.884979 0.319886 0.670392
O O2 0.885826 0.207090 0.724145
O O3 0.000000 0.280462 0.750000
O O4 0.992553 0.241575 0.618082
O O5 0.331041 0.066249 0.880790
O O6 0.406371 0.963236 0.918920
O O7 0.271355 0.951921 0.871080
O O8 0.294063 0.004714 0.000000
O O9 0.913118 0.756788 0.500000
O O10 0.920668 0.663846 0.407641
O O11 0.860473 0.776771 0.361809
O O12 0.001142 0.599298 0.500000
O O13 0.027578 0.588643 0.353184
O O14 0.150161 0.418643 0.747891
O O15 0.736759 0.500000 0.750000
O O16 0.713426 0.629209 0.718091
O O17 0.750000 0.250000 0.226669
#
# Coordination Sequence:
#
# PCOD9495277 Si02
#       7
#    16  16  16  16  16  16  16
#     4   9  19  33  53  75 102 136 177 220 264 303
#     4  10  20  32  44  67 104 143 176 205 248 307
#     4   9  19  33  53  79 106 134 171 219 270 314
#     4   9  17  29  45  70 104 139 173 206 245 302
#     4  10  18  29  46  67  99 135 174 209 242 295
#     4  10  22  34  48  75 103 137 173 212 258 315
#     4  11  19  33  56  78 106 138 176 219 264 311
#
# _framework density 16.924318
#
# number of rings (size 3 to 8) (size 9 to 14) (size 15 to 20)
#    0.000    2.286    1.429    1.714    4.000    2.571 
#    2.571    0.000    0.000    8.571    0.000    1.000 
#    0.000    0.000    0.000    0.000    0.000    0.000 
#
# Total GULP energy -311831.926804 kJ/mol
# GULP energy per Si atom -5568.427264 kJ/mol
# Density = 1.688580 g / cm^3
# Si number density = 16.924318 Si / 1000 Ang^3
#
#
#
# Elastic Constant Matrix: (Units=GPa)
#
#
# Indices 1 2 3 4 5 6 
#
# 1 43.4218 36.9959 21.5170 0.0000 0.0000 0.0000
# 2 36.9959 96.8224 20.6240 0.0000 0.0000 0.0000
# 3 21.5170 20.6240 66.4854 0.0000 0.0000 0.0000
# 4 0.0000 0.0000 0.0000 12.3572 0.0000 0.0000
# 5 0.0000 0.0000 0.0000 0.0000 16.5499 0.0000
# 6 0.0000 0.0000 0.0000 0.0000 0.0000 22.1298
#
#
#
# Elastic Compliance Matrix: (Units=1/GPa)
#
#
# Indices 1 2 3 4 5 6 
#
# 1 0.038036 -0.012754 -0.008353 0.000000 0.000000 0.000000
# 2 -0.012754 0.015336 -0.000629 0.000000 0.000000 0.000000
# 3 -0.008353 -0.000629 0.017940 0.000000 0.000000 0.000000
# 4 0.000000 0.000000 0.000000 0.080925 0.000000 0.000000
# 5 0.000000 0.000000 0.000000 0.000000 0.060423 0.000000
# 6 0.000000 0.000000 0.000000 0.000000 0.000000 0.045188
#
#
# Mechanical properties :
#
#
# Convention : Reuss Voigt Hill
#
# Bulk Modulus (GPa) = 35.92322 40.55594 38.23958
# Shear Modulus (GPa) = 16.09784 18.71355 17.40570
#
# Velocity S-wave (km/s) = 3.08744 3.32884 3.21041
# Velocity P-wave (km/s) = 5.82938 6.22817 6.03207
#
# Compressibility (1/GPa) = 0.02783715
#
# Stress axis : x y z
#
# Youngs Moduli (GPa) = 26.29078 65.20740 55.74257
#
# Poissons Ratio (x) = 0.83167 0.46564
# Poissons Ratio (y) = 0.33532 0.03509
# Poissons Ratio (z) = 0.21962 0.04104
#
# Static dielectric constant tensor:
#      x y z
#    x 1.580710 0.000000 0.000000 
#    y 0.000000 1.568330 0.000000 
#    z 0.000000 0.000000 1.619930 
# 
# From -- ./inp_files/41985.got.cif
#   From: 2010.05.17/outbox.cif.g08.bks.cpg/sg66_21_cif.got.tgz:41985.got - 2010.06.03 17:51:23.
