data_PCOD9495635
_publ_section_title
;
Structure prediction by ZEFSAII (Michael W. Deem and Ramdas Pophale) SiO2 
 PCOD9495635
Probable space group: C C C M
;
_chemical_formula_sum "Si O2"
_cell_formula_units_Z 64
_cell_length_a 5.535676
_cell_length_b 19.073564
_cell_length_c 27.467837
_cell_angle_alpha 90.000000
_cell_angle_beta 90.000000
_cell_angle_gamma 90.000000
_cell_volume 2900.193505
_symmetry_space_group_name_H-M "C C C M"
_symmetry_group_IT_number 66
_symmetry_cell_setting 'orthorhombic'
loop_
_space_group_symop_operation_xyz
x,y,z
-x,-y,z
x,-y,1/2-z
-x,y,1/2-z
-x,-y,-z
x,y,-z
-x,y,1/2+z
x,-y,1/2+z
1/2+x,1/2+y,z
1/2-x,1/2-y,z
1/2+x,1/2-y,1/2-z
1/2-x,1/2+y,1/2-z
1/2-x,1/2-y,-z
1/2+x,1/2+y,-z
1/2-x,1/2+y,1/2+z
1/2+x,1/2-y,1/2+z
loop_
_atom_site_type_symbol
_atom_site_label
_atom_site_fract_x
_atom_site_fract_y
_atom_site_fract_z
Si Si1 0.745955 0.527464 0.306021
Si Si2 0.043039 0.670419 0.405354
Si Si3 0.100136 0.681864 0.196133
Si Si4 0.461553 0.669168 0.057510
O O1 0.500000 0.500000 0.329335
O O2 0.747955 0.500000 0.250000
O O3 0.746520 0.611021 0.303234
O O4 0.000000 0.500000 0.327586
O O5 0.276326 0.636863 0.430397
O O6 0.003211 0.749886 0.425352
O O7 0.089212 0.672256 0.347507
O O8 0.776708 0.638986 0.416066
O O9 0.250000 0.750000 0.182469
O O10 0.000000 0.691925 0.250000
O O11 0.417777 0.668544 0.000000
#
# Coordination Sequence:
#
# PCOD9495635 Si02
#       4
#    16  16  16  16
#     4  10  22  45  60  81 113 173 221 250 292 371
#     4  10  20  34  50  87 118 158 206 243 302 385
#     4  12  26  38  62  95 133 174 202 268 315 364
#     4  10  18  35  55  78 125 165 192 251 325 377
#
# _framework density 22.067492999999999
#
# number of rings (size 3 to 8) (size 9 to 14) (size 15 to 20)
#    0.000    1.500    5.000    3.750    7.000    2.000 
#    0.000    0.000    0.000    0.000    0.000    0.000 
#    0.000   34.000    0.000    0.000    0.000    0.000 
#
# Total GULP energy -178604.741670 kJ/mol
# GULP energy per Si atom -5581.398177 kJ/mol
# Density = 2.201727 g / cm^3
# Si number density = 22.067493 Si / 1000 Ang^3
#
#
#
# Elastic Constant Matrix: (Units=GPa)
#
#
# Indices 1 2 3 4 5 6 
#
# 1 181.8219 7.5647 8.2574 0.0000 0.0000 0.0000
# 2 7.5647 88.5964 -23.7102 0.0000 0.0000 0.0000
# 3 8.2574 -23.7102 131.9914 0.0000 0.0000 0.0000
# 4 0.0000 0.0000 0.0000 -13.5250 0.0000 0.0000
# 5 0.0000 0.0000 0.0000 0.0000 107.5236 0.0000
# 6 0.0000 0.0000 0.0000 0.0000 0.0000 14.5196
#
#
#
# Elastic Compliance Matrix: (Units=1/GPa)
#
#
# Indices 1 2 3 4 5 6 
#
# 1 0.005545 -0.000595 -0.000454 0.000000 0.000000 0.000000
# 2 -0.000595 0.011921 0.002179 0.000000 0.000000 0.000000
# 3 -0.000454 0.002179 0.007996 0.000000 0.000000 0.000000
# 4 0.000000 0.000000 0.000000 -0.073937 0.000000 0.000000
# 5 0.000000 0.000000 0.000000 0.000000 0.009300 0.000000
# 6 0.000000 0.000000 0.000000 0.000000 0.000000 0.068872
#
#
# Mechanical properties :
#
#
# Convention : Reuss Voigt Hill
#
# Bulk Modulus (GPa) = 36.07226 42.95927 39.51576
# Shear Modulus (GPa) = 136.31912 49.05682 92.68797
#
# Velocity S-wave (km/s) = 7.86815 4.72002 6.48793
# Velocity P-wave (km/s) = 9.94613 7.01529 8.60639
#
# Compressibility (1/GPa) = 0.02772213
#
# Stress axis : x y z
#
# Youngs Moduli (GPa) = 180.33462 83.88563 125.06254
#
# Poissons Ratio (x) = 0.04990 0.05675
# Poissons Ratio (y) = 0.10728 -0.27247
# Poissons Ratio (z) = 0.08183 -0.18276
#
# Static dielectric constant tensor:
#      x y z
#    x 1.894460 0.000000 0.000000 
#    y 0.000000 1.787930 0.000000 
#    z 0.000000 0.000000 1.795390 
# 
# From -- ./inp_files/61232.got.cif
#   From: 2010.05.17/outbox.cif.g08.bks.cpg/sg66_31_cif.got.tgz:61232.got - 2010.06.03 17:51:23.
