data_PCOD9495206
_publ_section_title
;
Structure prediction by ZEFSAII (Michael W. Deem and Ramdas Pophale) SiO2 
 PCOD9495206
Probable space group: C C C M
;
_chemical_formula_sum "Si O2"
_cell_formula_units_Z 72
_cell_length_a 14.879580
_cell_length_b 14.508312
_cell_length_c 15.801607
_cell_angle_alpha 90.000000
_cell_angle_beta 90.000000
_cell_angle_gamma 90.000000
_cell_volume 3411.212823
_symmetry_space_group_name_H-M "C C C M"
_symmetry_group_IT_number 66
_symmetry_cell_setting 'orthorhombic'
loop_
_space_group_symop_operation_xyz
x,y,z
-x,-y,z
x,-y,1/2-z
-x,y,1/2-z
-x,-y,-z
x,y,-z
-x,y,1/2+z
x,-y,1/2+z
1/2+x,1/2+y,z
1/2-x,1/2-y,z
1/2+x,1/2-y,1/2-z
1/2-x,1/2+y,1/2-z
1/2-x,1/2-y,-z
1/2+x,1/2+y,-z
1/2-x,1/2+y,1/2+z
1/2+x,1/2-y,1/2+z
loop_
_atom_site_type_symbol
_atom_site_label
_atom_site_fract_x
_atom_site_fract_y
_atom_site_fract_z
Si Si1 0.326677 0.326378 0.824766
Si Si2 0.055313 0.414321 0.661622
Si Si3 0.599859 0.386480 0.500000
Si Si4 0.723525 0.000000 0.250000
Si Si5 0.111686 0.909493 0.000000
Si Si6 0.642734 0.730541 0.646884
O O1 0.250000 0.250000 0.836562
O O2 0.376291 0.336011 0.913285
O O3 0.282184 0.423133 0.796686
O O4 0.383289 0.294777 0.743122
O O5 0.154284 0.451150 0.685854
O O6 0.079478 0.316453 0.619331
O O7 0.000000 0.500000 0.620035
O O8 0.000000 0.398574 0.750000
O O9 0.647237 0.486739 0.500000
O O10 0.495314 0.406497 0.500000
O O11 0.137568 0.854043 0.916565
O O12 0.750000 0.750000 0.650321
#
# Coordination Sequence:
#
# PCOD9495206 Si02
#       6
#    16  16   8   8   8  16
#     4  11  22  39  69  95 127 171 224 267 334 398
#     4   9  20  35  63  99 134 159 211 275 337 385
#     4  11  27  42  58  94 133 173 218 286 318 384
#     4  10  17  38  60  97 126 166 214 268 321 396
#     4  11  27  44  61  90 135 171 224 274 326 385
#     4  11  22  42  70  95 124 177 223 266 329 412
#
# _framework density 21.106862
#
# number of rings (size 3 to 8) (size 9 to 14) (size 15 to 20)
#    0.000    1.778    4.444    2.000    3.111    0.000 
#    0.000    2.778    0.000    0.000    0.000    1.556 
#    0.000    0.000    0.000    0.000    0.000    0.000 
#
# Total GULP energy -200836.286661 kJ/mol
# GULP energy per Si atom -5578.785741 kJ/mol
# Density = 2.105882 g / cm^3
# Si number density = 21.106862 Si / 1000 Ang^3
#
#
#
# Elastic Constant Matrix: (Units=GPa)
#
#
# Indices 1 2 3 4 5 6 
#
# 1 58.7073 13.3843 20.2291 0.0000 0.0000 0.0000
# 2 13.3843 79.6496 30.4861 0.0000 0.0000 0.0000
# 3 20.2291 30.4861 117.6040 0.0000 0.0000 0.0000
# 4 0.0000 0.0000 0.0000 58.2012 0.0000 0.0000
# 5 0.0000 0.0000 0.0000 0.0000 58.5479 0.0000
# 6 0.0000 0.0000 0.0000 0.0000 0.0000 43.6540
#
#
#
# Elastic Compliance Matrix: (Units=1/GPa)
#
#
# Indices 1 2 3 4 5 6 
#
# 1 0.018415 -0.002089 -0.002626 0.000000 0.000000 0.000000
# 2 -0.002089 0.014175 -0.003315 0.000000 0.000000 0.000000
# 3 -0.002626 -0.003315 0.009814 0.000000 0.000000 0.000000
# 4 0.000000 0.000000 0.000000 0.017182 0.000000 0.000000
# 5 0.000000 0.000000 0.000000 0.000000 0.017080 0.000000
# 6 0.000000 0.000000 0.000000 0.000000 0.000000 0.022907
#
#
# Mechanical properties :
#
#
# Convention : Reuss Voigt Hill
#
# Bulk Modulus (GPa) = 37.96054 42.68442 40.32248
# Shear Modulus (GPa) = 40.18805 44.87137 42.52971
#
# Velocity S-wave (km/s) = 4.36825 4.61577 4.49371
# Velocity P-wave (km/s) = 6.59288 6.97667 6.78749
#
# Compressibility (1/GPa) = 0.02634314
#
# Stress axis : x y z
#
# Youngs Moduli (GPa) = 54.30403 70.54689 101.89350
#
# Poissons Ratio (x) = 0.14740 0.26756
# Poissons Ratio (y) = 0.11346 0.33779
# Poissons Ratio (z) = 0.14260 0.23387
#
# Static dielectric constant tensor:
#      x y z
#    x 1.749610 0.000000 0.000000 
#    y 0.000000 1.814540 0.000000 
#    z 0.000000 0.000000 1.757900 
# 
# From -- ./inp_files/40084.got.cif
#   From: 2010.05.17/outbox.cif.g08.bks.cpg/sg66_21_cif.got.tgz:40084.got - 2010.06.03 17:51:23.
