data_PCOD9495564
_publ_section_title
;
Structure prediction by ZEFSAII (Michael W. Deem and Ramdas Pophale) SiO2 
 PCOD9495564
Probable space group: C C C M
;
_chemical_formula_sum "Si O2"
_cell_formula_units_Z 88
_cell_length_a 15.556237
_cell_length_b 18.441448
_cell_length_c 17.135898
_cell_angle_alpha 90.000000
_cell_angle_beta 90.000000
_cell_angle_gamma 90.000000
_cell_volume 4915.938462
_symmetry_space_group_name_H-M "C C C M"
_symmetry_group_IT_number 66
_symmetry_cell_setting 'orthorhombic'
loop_
_space_group_symop_operation_xyz
x,y,z
-x,-y,z
x,-y,1/2-z
-x,y,1/2-z
-x,-y,-z
x,y,-z
-x,y,1/2+z
x,-y,1/2+z
1/2+x,1/2+y,z
1/2-x,1/2-y,z
1/2+x,1/2-y,1/2-z
1/2-x,1/2+y,1/2-z
1/2-x,1/2-y,-z
1/2+x,1/2+y,-z
1/2-x,1/2+y,1/2+z
1/2+x,1/2-y,1/2+z
loop_
_atom_site_type_symbol
_atom_site_label
_atom_site_fract_x
_atom_site_fract_y
_atom_site_fract_z
Si Si1 0.792026 0.669490 0.908817
Si Si2 0.663571 0.458022 0.405690
Si Si3 0.583036 0.225902 0.297977
Si Si4 0.814661 0.119182 0.091984
Si Si5 0.481944 0.645195 0.408527
Si Si6 0.250000 0.750000 0.190811
O O1 0.750000 0.750000 0.901091
O O2 0.726217 0.607496 0.882339
O O3 0.877448 0.668471 0.858023
O O4 0.809481 0.659024 0.000000
O O5 0.667100 0.464074 0.500000
O O6 0.690388 0.536883 0.376286
O O7 0.567821 0.429237 0.388494
O O8 0.500000 0.201854 0.250000
O O9 0.552984 0.293945 0.350499
O O10 0.663266 0.245273 0.242074
O O11 0.760250 0.178216 0.138421
O O12 0.915981 0.138605 0.097391
O O13 0.791645 0.120984 0.000000
O O14 0.460265 0.662235 0.500000
#
# Coordination Sequence:
#
# PCOD9495564 Si02
#       6
#    16  16  16  16  16   8
#     4  10  18  33  59  84 109 145 190 234 278 329
#     4   9  17  32  59  89 114 140 183 243 288 332
#     4  12  22  36  55  83 117 154 190 232 276 335
#     4  10  21  36  56  85 116 152 190 227 285 347
#     4  10  18  34  59  87 115 145 182 232 293 351
#     4  12  23  38  55  76 120 162 192 226 277 338
#
# _framework density 17.900956999999998
#
# number of rings (size 3 to 8) (size 9 to 14) (size 15 to 20)
#    0.000    1.636    4.545    1.364    0.000    2.182 
#    0.000    3.636    0.000    2.182    0.000    3.818 
#    0.000    0.000    0.000    0.000    0.000    0.000 
#
# Total GULP energy -245434.512964 kJ/mol
# GULP energy per Si atom -5578.057113 kJ/mol
# Density = 1.786021 g / cm^3
# Si number density = 17.900957 Si / 1000 Ang^3
#
#
#
# Elastic Constant Matrix: (Units=GPa)
#
#
# Indices 1 2 3 4 5 6 
#
# 1 80.6916 24.5024 45.0422 0.0000 0.0000 0.0000
# 2 24.5024 87.7640 33.3004 0.0000 0.0000 0.0000
# 3 45.0422 33.3004 62.2026 0.0000 0.0000 0.0000
# 4 0.0000 0.0000 0.0000 3.1171 0.0000 0.0000
# 5 0.0000 0.0000 0.0000 0.0000 38.7366 0.0000
# 6 0.0000 0.0000 0.0000 0.0000 0.0000 25.4675
#
#
#
# Elastic Compliance Matrix: (Units=1/GPa)
#
#
# Indices 1 2 3 4 5 6 
#
# 1 0.020802 -0.000116 -0.015001 0.000000 0.000000 0.000000
# 2 -0.000116 0.014299 -0.007571 0.000000 0.000000 0.000000
# 3 -0.015001 -0.007571 0.030992 0.000000 0.000000 0.000000
# 4 0.000000 0.000000 0.000000 0.320814 0.000000 0.000000
# 5 0.000000 0.000000 0.000000 0.000000 0.025815 0.000000
# 6 0.000000 0.000000 0.000000 0.000000 0.000000 0.039266
#
#
# Mechanical properties :
#
#
# Convention : Reuss Voigt Hill
#
# Bulk Modulus (GPa) = 48.26908 48.48314 48.37611
# Shear Modulus (GPa) = 9.91533 21.98511 15.95022
#
# Velocity S-wave (km/s) = 2.35606 3.50830 2.98824
# Velocity P-wave (km/s) = 5.86723 6.59953 6.24413
#
# Compressibility (1/GPa) = 0.02071720
#
# Stress axis : x y z
#
# Youngs Moduli (GPa) = 48.07342 69.93334 32.26599
#
# Poissons Ratio (x) = 0.00809 0.48402
# Poissons Ratio (y) = 0.00556 0.24430
# Poissons Ratio (z) = 0.72114 0.52950
#
# Static dielectric constant tensor:
#      x y z
#    x 1.615600 0.000000 0.000000 
#    y 0.000000 1.617570 0.000000 
#    z 0.000000 0.000000 1.651350 
# 
# From -- ./inp_files/40360.got.cif
#   From: 2010.05.17/outbox.cif.g08.bks.cpg/sg66_21_cif.got.tgz:40360.got - 2010.06.03 17:51:23.
