data_PCOD9495655
_publ_section_title
;
Structure prediction by ZEFSAII (Michael W. Deem and Ramdas Pophale) SiO2 
 PCOD9495655
Probable space group: C C C M
;
_chemical_formula_sum "Si O2"
_cell_formula_units_Z 116
_cell_length_a 7.440823
_cell_length_b 31.044996
_cell_length_c 22.740530
_cell_angle_alpha 90.000000
_cell_angle_beta 90.000000
_cell_angle_gamma 90.000000
_cell_volume 5253.069713
_symmetry_space_group_name_H-M "C C C M"
_symmetry_group_IT_number 66
_symmetry_cell_setting 'orthorhombic'
loop_
_space_group_symop_operation_xyz
x,y,z
-x,-y,z
x,-y,1/2-z
-x,y,1/2-z
-x,-y,-z
x,y,-z
-x,y,1/2+z
x,-y,1/2+z
1/2+x,1/2+y,z
1/2-x,1/2-y,z
1/2+x,1/2-y,1/2-z
1/2-x,1/2+y,1/2-z
1/2-x,1/2-y,-z
1/2+x,1/2+y,-z
1/2-x,1/2+y,1/2+z
1/2+x,1/2-y,1/2+z
loop_
_atom_site_type_symbol
_atom_site_label
_atom_site_fract_x
_atom_site_fract_y
_atom_site_fract_z
Si Si1 0.775790 0.800634 0.309222
Si Si2 0.191162 0.512761 0.567448
Si Si3 0.000000 0.000000 0.250000
Si Si4 0.184059 0.799642 0.435633
Si Si5 0.872055 0.919203 0.435330
Si Si6 0.692014 0.335618 0.688084
Si Si7 0.637775 0.429392 0.337083
Si Si8 0.256595 0.325079 0.436452
O O1 0.750000 0.750000 0.306544
O O2 0.712501 0.816983 0.245488
O O3 0.687404 0.812796 0.371956
O O4 0.984223 0.817797 0.311316
O O5 0.171070 0.526563 0.500000
O O6 0.303382 0.468375 0.567182
O O7 0.261052 0.550520 0.607564
O O8 0.000000 0.500000 0.592071
O O9 0.109671 0.031913 0.208009
O O10 0.244278 0.816163 0.500000
O O11 0.250000 0.750000 0.431829
O O12 0.255446 0.822882 0.377260
O O13 0.966564 0.808190 0.435899
O O14 0.969360 0.916885 0.500000
O O15 0.747565 0.877140 0.438472
O O16 0.962171 0.913287 0.371967
O O17 0.707295 0.386947 0.693577
O O18 0.182827 0.308907 0.500000
#
# Coordination Sequence:
#
# PCOD9495655 Si02
#       8
#    16  16   4  16  16  16  16  16
#     4  10  19  34  56  77 108 148 188 244 298 351
#     4  10  22  39  62  91 126 164 201 249 311 374
#     4  12  24  32  56 100 120 152 210 262 300 344
#     4   9  16  28  49  77 109 140 175 234 294 340
#     4  10  18  35  63  91 118 154 205 253 299 360
#     4  10  21  34  54  84 110 148 199 241 293 357
#     4  12  21  36  61  90 122 159 205 260 296 359
#     4   9  18  32  54  83 110 145 191 244 294 348
#
# _framework density 22.082325999999998
#
# number of rings (size 3 to 8) (size 9 to 14) (size 15 to 20)
#    0.000    1.931    4.138    1.655    0.000    1.931 
#    0.000    0.345   12.138    0.000    0.000    0.000 
#    0.000    0.000    0.000    0.000    0.000    0.000 
#
# Total GULP energy -322886.089184 kJ/mol
# GULP energy per Si atom -5567.001538 kJ/mol
# Density = 2.203207 g / cm^3
# Si number density = 22.082326 Si / 1000 Ang^3
#
#
#
# Elastic Constant Matrix: (Units=GPa)
#
#
# Indices 1 2 3 4 5 6 
#
# 1 22.6743 8.8111 -3.6609 0.0000 0.0000 0.0000
# 2 8.8111 129.4250 39.4003 0.0000 0.0000 0.0000
# 3 -3.6609 39.4003 190.7952 0.0000 0.0000 0.0000
# 4 0.0000 0.0000 0.0000 96.1617 0.0000 0.0000
# 5 0.0000 0.0000 0.0000 0.0000 -3.5127 0.0000
# 6 0.0000 0.0000 0.0000 0.0000 0.0000 -9.0870
#
#
#
# Elastic Compliance Matrix: (Units=1/GPa)
#
#
# Indices 1 2 3 4 5 6 
#
# 1 0.045768 -0.003610 0.001624 0.000000 0.000000 0.000000
# 2 -0.003610 0.008530 -0.001831 0.000000 0.000000 0.000000
# 3 0.001624 -0.001831 0.005650 0.000000 0.000000 0.000000
# 4 0.000000 0.000000 0.000000 0.010399 0.000000 0.000000
# 5 0.000000 0.000000 0.000000 0.000000 -0.284681 0.000000
# 6 0.000000 0.000000 0.000000 0.000000 0.000000 -0.110047
#
#
# Mechanical properties :
#
#
# Convention : Reuss Voigt Hill
#
# Bulk Modulus (GPa) = 19.11545 47.99950 33.55748
# Shear Modulus (GPa) = -16.70516 36.60199 9.94841
#
# Velocity S-wave (km/s) = -2.75343 4.07569 2.12484
# Velocity P-wave (km/s) = 1.19719 6.62813 4.60971
#
# Compressibility (1/GPa) = 0.05231370
#
# Stress axis : x y z
#
# Youngs Moduli (GPa) = 21.84936 117.23930 176.97790
#
# Poissons Ratio (x) = 0.42325 -0.28736
# Poissons Ratio (y) = 0.07888 0.32399
# Poissons Ratio (z) = -0.03548 0.21463
#
# Static dielectric constant tensor:
#      x y z
#    x 1.856550 0.000000 0.000000 
#    y 0.000000 1.694860 0.000000 
#    z 0.000000 0.000000 1.840610 
# 
# From -- ./inp_files/55920.got.cif
#   From: 2010.05.17/outbox.cif.g08.bks.cpg/sg66_28_cif.got.tgz:55920.got - 2010.06.03 17:51:23.
