data_PCOD9495638
_publ_section_title
;
Structure prediction by ZEFSAII (Michael W. Deem and Ramdas Pophale) SiO2 
 PCOD9495638
Probable space group: C C C M
;
_chemical_formula_sum "Si O2"
_cell_formula_units_Z 88
_cell_length_a 9.292626
_cell_length_b 18.099527
_cell_length_c 20.132670
_cell_angle_alpha 90.000000
_cell_angle_beta 90.000000
_cell_angle_gamma 90.000000
_cell_volume 3386.156754
_symmetry_space_group_name_H-M "C C C M"
_symmetry_group_IT_number 66
_symmetry_cell_setting 'orthorhombic'
loop_
_space_group_symop_operation_xyz
x,y,z
-x,-y,z
x,-y,1/2-z
-x,y,1/2-z
-x,-y,-z
x,y,-z
-x,y,1/2+z
x,-y,1/2+z
1/2+x,1/2+y,z
1/2-x,1/2-y,z
1/2+x,1/2-y,1/2-z
1/2-x,1/2+y,1/2-z
1/2-x,1/2-y,-z
1/2+x,1/2+y,-z
1/2-x,1/2+y,1/2+z
1/2+x,1/2-y,1/2+z
loop_
_atom_site_type_symbol
_atom_site_label
_atom_site_fract_x
_atom_site_fract_y
_atom_site_fract_z
Si Si1 0.954156 0.214086 0.500000
Si Si2 0.308975 0.392772 0.279164
Si Si3 0.088784 0.770455 0.870641
Si Si4 0.280783 0.582612 0.500000
Si Si5 0.458782 0.111793 0.500000
Si Si6 0.294119 0.458601 0.854697
Si Si7 0.477308 0.109440 0.353877
O O1 0.021707 0.185908 0.568392
O O2 0.802075 0.172029 0.500000
O O3 0.000567 0.300409 0.500000
O O4 0.376611 0.319341 0.307537
O O5 0.344228 0.401878 0.202249
O O6 0.345261 0.464245 0.323654
O O7 0.136578 0.394407 0.294253
O O8 0.250000 0.750000 0.894309
O O9 0.992233 0.697903 0.856975
O O10 0.110471 0.569634 0.500000
O O11 0.336878 0.551175 0.569313
O O12 0.397786 0.095920 0.426246
O O13 0.119573 0.440963 0.851815
#
# Coordination Sequence:
#
# PCOD9495638 Si02
#       7
#     8  16  16   8   8  16  16
#     4  10  18  35  58  79 108 149 188 226 278 339
#     4  10  20  36  56  83 115 148 181 232 288 334
#     4   9  19  35  56  83 112 141 182 233 286 334
#     4  10  21  37  55  80 108 147 191 229 272 336
#     4   8  17  32  53  83 118 142 177 235 284 325
#     4  10  21  37  57  81 114 148 188 231 279 336
#     4   9  17  33  57  85 111 145 184 227 281 339
#
# _framework density 25.988164999999999
#
# number of rings (size 3 to 8) (size 9 to 14) (size 15 to 20)
#    0.000    2.545    0.000    1.636    0.000    5.091 
#    0.000   27.273    0.000    2.182    0.000    0.000 
#    0.000    0.000    0.000    0.000    0.000    0.000 
#
# Total GULP energy -245551.556182 kJ/mol
# GULP energy per Si atom -5580.717186 kJ/mol
# Density = 2.592901 g / cm^3
# Si number density = 25.988165 Si / 1000 Ang^3
#
#
#
# Elastic Constant Matrix: (Units=GPa)
#
#
# Indices 1 2 3 4 5 6 
#
# 1 77.8639 17.0367 4.7177 0.0000 0.0000 0.0000
# 2 17.0367 66.8990 26.5076 0.0000 0.0000 0.0000
# 3 4.7177 26.5076 202.9164 0.0000 0.0000 0.0000
# 4 0.0000 0.0000 0.0000 64.9071 0.0000 0.0000
# 5 0.0000 0.0000 0.0000 0.0000 47.4999 0.0000
# 6 0.0000 0.0000 0.0000 0.0000 0.0000 34.5872
#
#
#
# Elastic Compliance Matrix: (Units=1/GPa)
#
#
# Indices 1 2 3 4 5 6 
#
# 1 0.013605 -0.003522 0.000144 0.000000 0.000000 0.000000
# 2 -0.003522 0.016675 -0.002096 0.000000 0.000000 0.000000
# 3 0.000144 -0.002096 0.005199 0.000000 0.000000 0.000000
# 4 0.000000 0.000000 0.000000 0.015407 0.000000 0.000000
# 5 0.000000 0.000000 0.000000 0.000000 0.021053 0.000000
# 6 0.000000 0.000000 0.000000 0.000000 0.000000 0.028912
#
#
# Mechanical properties :
#
#
# Convention : Reuss Voigt Hill
#
# Bulk Modulus (GPa) = 40.76615 49.35593 45.06104
# Shear Modulus (GPa) = 41.67501 49.35999 45.51750
#
# Velocity S-wave (km/s) = 4.00886 4.36285 4.18960
# Velocity P-wave (km/s) = 6.09495 6.66425 6.38595
#
# Compressibility (1/GPa) = 0.02453015
#
# Stress axis : x y z
#
# Youngs Moduli (GPa) = 73.50379 59.96847 192.35698
#
# Poissons Ratio (x) = 0.21118 -0.02765
# Poissons Ratio (y) = 0.25885 0.40327
# Poissons Ratio (z) = -0.01056 0.12572
#
# Static dielectric constant tensor:
#      x y z
#    x 2.098770 0.000000 0.000000 
#    y 0.000000 2.096730 0.000000 
#    z 0.000000 0.000000 2.021630 
# 
# From -- ./inp_files/38693.got.cif
#   From: 2010.05.17/outbox.cif.g08.bks.cpg/sg66_20_cif.got.tgz:38693.got - 2010.06.03 17:51:23.
