data_PCOD9495624
_publ_section_title
;
Structure prediction by ZEFSAII (Michael W. Deem and Ramdas Pophale) SiO2 
 PCOD9495624
Probable space group: C C C M
;
_chemical_formula_sum "Si O2"
_cell_formula_units_Z 64
_cell_length_a 19.744294
_cell_length_b 7.626751
_cell_length_c 17.132962
_cell_angle_alpha 90.000000
_cell_angle_beta 90.000000
_cell_angle_gamma 90.000000
_cell_volume 2579.963896
_symmetry_space_group_name_H-M "C C C M"
_symmetry_group_IT_number 66
_symmetry_cell_setting 'orthorhombic'
loop_
_space_group_symop_operation_xyz
x,y,z
-x,-y,z
x,-y,1/2-z
-x,y,1/2-z
-x,-y,-z
x,y,-z
-x,y,1/2+z
x,-y,1/2+z
1/2+x,1/2+y,z
1/2-x,1/2-y,z
1/2+x,1/2-y,1/2-z
1/2-x,1/2+y,1/2-z
1/2-x,1/2-y,-z
1/2+x,1/2+y,-z
1/2-x,1/2+y,1/2+z
1/2+x,1/2-y,1/2+z
loop_
_atom_site_type_symbol
_atom_site_label
_atom_site_fract_x
_atom_site_fract_y
_atom_site_fract_z
Si Si1 0.794647 0.924337 0.411761
Si Si2 0.422567 0.808797 0.592690
Si Si3 0.806076 0.645337 0.805434
Si Si4 0.072657 0.267689 0.593195
O O1 0.806704 0.993163 0.500000
O O2 0.750000 0.750000 0.420514
O O3 0.866102 0.852178 0.376558
O O4 0.744184 0.053692 0.367037
O O5 0.415439 0.774253 0.500000
O O6 0.362538 0.747376 0.648396
O O7 0.495479 0.737871 0.619466
O O8 0.418051 0.021684 0.601178
O O9 0.838395 0.500000 0.750000
O O10 0.750000 0.750000 0.755613
O O11 0.072795 0.237258 0.500000
#
# Coordination Sequence:
#
# PCOD9495624 Si02
#       4
#    16  16  16  16
#     4  10  18  34  63  92 118 151 194 247 307 364
#     4   9  17  34  61  92 118 146 195 249 298 357
#     4  12  26  40  57  80 121 167 207 252 302 364
#     4   8  15  30  60  95 118 141 184 248 299 349
#
# _framework density 24.806547999999999
#
# number of rings (size 3 to 8) (size 9 to 14) (size 15 to 20)
#    0.000    2.250    2.500    3.000    0.000    2.000 
#    0.000    3.750    0.000    6.000    0.000    0.000 
#    0.000    0.000    0.000    0.000    0.000    0.000 
#
# Total GULP energy -178703.356332 kJ/mol
# GULP energy per Si atom -5584.479885 kJ/mol
# Density = 2.475009 g / cm^3
# Si number density = 24.806548 Si / 1000 Ang^3
#
#
#
# Elastic Constant Matrix: (Units=GPa)
#
#
# Indices 1 2 3 4 5 6 
#
# 1 207.5896 35.0914 41.6502 0.0000 0.0000 0.0000
# 2 35.0914 62.6298 1.5873 0.0000 0.0000 0.0000
# 3 41.6502 1.5873 58.6015 0.0000 0.0000 0.0000
# 4 0.0000 0.0000 0.0000 11.1183 0.0000 0.0000
# 5 0.0000 0.0000 0.0000 0.0000 31.9532 0.0000
# 6 0.0000 0.0000 0.0000 0.0000 0.0000 43.1674
#
#
#
# Elastic Compliance Matrix: (Units=1/GPa)
#
#
# Indices 1 2 3 4 5 6 
#
# 1 0.006267 -0.003401 -0.004362 0.000000 0.000000 0.000000
# 2 -0.003401 0.017823 0.001934 0.000000 0.000000 0.000000
# 3 -0.004362 0.001934 0.020112 0.000000 0.000000 0.000000
# 4 0.000000 0.000000 0.000000 0.089942 0.000000 0.000000
# 5 0.000000 0.000000 0.000000 0.000000 0.031296 0.000000
# 6 0.000000 0.000000 0.000000 0.000000 0.000000 0.023166
#
#
# Mechanical properties :
#
#
# Convention : Reuss Voigt Hill
#
# Bulk Modulus (GPa) = 30.72622 53.94208 42.33415
# Shear Modulus (GPa) = 23.68404 33.94725 28.81565
#
# Velocity S-wave (km/s) = 3.09325 3.70331 3.41194
# Velocity P-wave (km/s) = 5.01706 6.33074 5.71179
#
# Compressibility (1/GPa) = 0.03254549
#
# Stress axis : x y z
#
# Youngs Moduli (GPa) = 159.55676 56.10596 49.72036
#
# Poissons Ratio (x) = 0.19082 0.21690
# Poissons Ratio (y) = 0.54266 -0.09618
# Poissons Ratio (z) = 0.69604 -0.10854
#
# Static dielectric constant tensor:
#      x y z
#    x 2.010820 0.000000 0.000000 
#    y 0.000000 2.126110 0.000000 
#    z 0.000000 0.000000 1.946920 
# 
# From -- ./inp_files/36298.got.cif
#   From: 2010.05.17/outbox.cif.g08.bks.cpg/sg66_19_cif.got.tgz:36298.got - 2010.06.03 17:51:23.
