data_PCOD9495552
_publ_section_title
;
Structure prediction by ZEFSAII (Michael W. Deem and Ramdas Pophale) SiO2 
 PCOD9495552
Probable space group: C C C M
;
_chemical_formula_sum "Si O2"
_cell_formula_units_Z 112
_cell_length_a 15.214254
_cell_length_b 14.196435
_cell_length_c 26.707269
_cell_angle_alpha 90.000000
_cell_angle_beta 90.000000
_cell_angle_gamma 90.000000
_cell_volume 5768.454103
_symmetry_space_group_name_H-M "C C C M"
_symmetry_group_IT_number 66
_symmetry_cell_setting 'orthorhombic'
loop_
_space_group_symop_operation_xyz
x,y,z
-x,-y,z
x,-y,1/2-z
-x,y,1/2-z
-x,-y,-z
x,y,-z
-x,y,1/2+z
x,-y,1/2+z
1/2+x,1/2+y,z
1/2-x,1/2-y,z
1/2+x,1/2-y,1/2-z
1/2-x,1/2+y,1/2-z
1/2-x,1/2-y,-z
1/2+x,1/2+y,-z
1/2-x,1/2+y,1/2+z
1/2+x,1/2-y,1/2+z
loop_
_atom_site_type_symbol
_atom_site_label
_atom_site_fract_x
_atom_site_fract_y
_atom_site_fract_z
Si Si1 0.713360 0.090750 0.714558
Si Si2 0.249915 0.991591 0.556494
Si Si3 0.838106 0.193878 0.944588
Si Si4 0.437942 0.640325 0.850757
Si Si5 0.913483 0.311902 0.782815
Si Si6 0.599990 0.978000 0.636382
Si Si7 0.134923 0.069223 0.143090
O O1 0.669971 0.171011 0.747678
O O2 0.803174 0.110549 0.686009
O O3 0.726968 0.000000 0.750000
O O4 0.642106 0.056670 0.673169
O O5 0.268986 0.957944 0.500000
O O6 0.189842 0.924626 0.591369
O O7 0.191987 0.085849 0.551736
O O8 0.335861 0.020993 0.588457
O O9 0.750000 0.250000 0.931342
O O10 0.906996 0.196209 0.900175
O O11 0.867868 0.225621 0.000000
O O12 0.421923 0.707097 0.803729
O O13 0.383446 0.542570 0.846997
O O14 0.539939 0.615682 0.857107
O O15 0.902210 0.383440 0.829756
O O16 0.000000 0.336567 0.750000
O O17 0.500000 0.000000 0.622647
#
# Coordination Sequence:
#
# PCOD9495552 Si02
#       7
#    16  16  16  16  16  16  16
#     4   9  19  35  58  74 107 151 187 228 296 331
#     4   9  18  32  55  84 109 147 190 225 282 355
#     4   9  17  32  54  82 114 143 179 235 293 336
#     4  10  21  36  57  84 114 146 198 232 280 344
#     4  11  21  35  57  83 108 148 200 241 279 345
#     4  10  18  33  57  80 114 147 183 243 291 327
#     4   9  20  39  55  79 118 156 178 239 292 331
#
# _framework density 19.415948
#
# number of rings (size 3 to 8) (size 9 to 14) (size 15 to 20)
#    0.000    2.429    1.429    0.857    0.000    3.143 
#    0.000   10.714    0.000    0.000    0.000    1.000 
#    0.000    0.000    0.000    0.000    0.000    0.000 
#
# Total GULP energy -312436.284659 kJ/mol
# GULP energy per Si atom -5579.219369 kJ/mol
# Density = 1.937176 g / cm^3
# Si number density = 19.415948 Si / 1000 Ang^3
#
#
#
# Elastic Constant Matrix: (Units=GPa)
#
#
# Indices 1 2 3 4 5 6 
#
# 1 99.7714 25.2134 78.4215 0.0000 0.0000 0.0000
# 2 25.2134 47.2635 40.8511 0.0000 0.0000 0.0000
# 3 78.4215 40.8511 141.2982 0.0000 0.0000 0.0000
# 4 0.0000 0.0000 0.0000 21.8424 0.0000 0.0000
# 5 0.0000 0.0000 0.0000 0.0000 44.1783 0.0000
# 6 0.0000 0.0000 0.0000 0.0000 0.0000 16.9109
#
#
#
# Elastic Compliance Matrix: (Units=1/GPa)
#
#
# Indices 1 2 3 4 5 6 
#
# 1 0.017836 -0.001278 -0.009530 0.000000 0.000000 0.000000
# 2 -0.001278 0.028298 -0.007472 0.000000 0.000000 0.000000
# 3 -0.009530 -0.007472 0.014527 0.000000 0.000000 0.000000
# 4 0.000000 0.000000 0.000000 0.045783 0.000000 0.000000
# 5 0.000000 0.000000 0.000000 0.000000 0.022636 0.000000
# 6 0.000000 0.000000 0.000000 0.000000 0.000000 0.059133
#
#
# Mechanical properties :
#
#
# Convention : Reuss Voigt Hill
#
# Bulk Modulus (GPa) = 41.49176 64.14500 52.81838
# Shear Modulus (GPa) = 21.47710 26.17613 23.82662
#
# Velocity S-wave (km/s) = 3.32950 3.67574 3.50690
# Velocity P-wave (km/s) = 6.01640 7.15008 6.60760
#
# Compressibility (1/GPa) = 0.02410117
#
# Stress axis : x y z
#
# Youngs Moduli (GPa) = 56.06489 35.33816 68.83953
#
# Poissons Ratio (x) = 0.04517 0.65603
# Poissons Ratio (y) = 0.07167 0.51436
# Poissons Ratio (z) = 0.53429 0.26404
#
# Static dielectric constant tensor:
#      x y z
#    x 1.656670 0.000000 0.000000 
#    y 0.000000 1.695440 0.000000 
#    z 0.000000 0.000000 1.709050 
# 
# From -- ./inp_files/58238.got.cif
#   From: 2010.05.17/outbox.cif.g08.bks.cpg/sg66_30_cif.got.tgz:58238.got - 2010.06.03 17:51:23.
