data_PCOD9495690
_publ_section_title
;
Structure prediction by ZEFSAII (Michael W. Deem and Ramdas Pophale) SiO2 
 PCOD9495690
Probable space group: C C C M
;
_chemical_formula_sum "Si O2"
_cell_formula_units_Z 72
_cell_length_a 14.825753
_cell_length_b 12.241942
_cell_length_c 17.071514
_cell_angle_alpha 90.000000
_cell_angle_beta 90.000000
_cell_angle_gamma 90.000000
_cell_volume 3098.411647
_symmetry_space_group_name_H-M "C C C M"
_symmetry_group_IT_number 66
_symmetry_cell_setting 'orthorhombic'
loop_
_space_group_symop_operation_xyz
x,y,z
-x,-y,z
x,-y,1/2-z
-x,y,1/2-z
-x,-y,-z
x,y,-z
-x,y,1/2+z
x,-y,1/2+z
1/2+x,1/2+y,z
1/2-x,1/2-y,z
1/2+x,1/2-y,1/2-z
1/2-x,1/2+y,1/2-z
1/2-x,1/2-y,-z
1/2+x,1/2+y,-z
1/2-x,1/2+y,1/2+z
1/2+x,1/2-y,1/2+z
loop_
_atom_site_type_symbol
_atom_site_label
_atom_site_fract_x
_atom_site_fract_y
_atom_site_fract_z
Si Si1 0.218235 0.125133 0.000000
Si Si2 0.903081 0.945147 0.145434
Si Si3 0.008534 0.274553 0.833628
Si Si4 0.816585 0.833136 0.655916
Si Si5 0.499886 0.129363 0.000000
Si Si6 0.207060 0.601802 0.000000
O O1 0.250000 0.250000 0.000000
O O2 0.155311 0.097083 0.073352
O O3 0.294891 0.030993 0.000000
O O4 0.930231 0.831558 0.186606
O O5 0.847509 0.046177 0.181417
O O6 0.000000 0.000000 0.123262
O O7 0.909296 0.231096 0.854158
O O8 0.039177 0.328068 0.916238
O O9 0.000000 0.337790 0.750000
O O10 0.750000 0.750000 0.701814
O O11 0.762675 0.861141 0.576050
O O12 0.500000 0.000000 0.000000
O O13 0.607872 0.151777 0.000000
#
# Coordination Sequence:
#
# PCOD9495690 Si02
#       6
#     8  16  16  16   8   8
#     4  10  20  33  59  93 138 170 221 284 348 414
#     4   9  20  36  60  93 132 174 223 279 340 403
#     4  11  24  43  72 103 135 178 239 289 350 426
#     4  10  18  37  68  99 133 175 229 288 340 416
#     4  12  26  43  74  95 142 192 233 292 362 429
#     4  10  20  37  65 102 130 180 246 285 353 429
#
# _framework density 23.237714
#
# number of rings (size 3 to 8) (size 9 to 14) (size 15 to 20)
#    0.000    1.778    2.222    2.000    3.111    8.000 
#    0.000    1.111    4.889    0.000    0.000    0.000 
#    0.000    0.000    0.000    0.000    0.000    0.000 
#
# Total GULP energy -200576.931090 kJ/mol
# GULP energy per Si atom -5571.581419 kJ/mol
# Density = 2.318482 g / cm^3
# Si number density = 23.237714 Si / 1000 Ang^3
#
#
#
# Elastic Constant Matrix: (Units=GPa)
#
#
# Indices 1 2 3 4 5 6 
#
# 1 65.6980 38.5169 24.6915 0.0000 0.0000 0.0000
# 2 38.5169 165.8227 67.3021 0.0000 0.0000 0.0000
# 3 24.6915 67.3021 150.3624 0.0000 0.0000 0.0000
# 4 0.0000 0.0000 0.0000 30.0192 0.0000 0.0000
# 5 0.0000 0.0000 0.0000 0.0000 -38.6745 0.0000
# 6 0.0000 0.0000 0.0000 0.0000 0.0000 40.5980
#
#
#
# Elastic Compliance Matrix: (Units=1/GPa)
#
#
# Indices 1 2 3 4 5 6 
#
# 1 0.017830 -0.003609 -0.001313 0.000000 0.000000 0.000000
# 2 -0.003609 0.008100 -0.003033 0.000000 0.000000 0.000000
# 3 -0.001313 -0.003033 0.008224 0.000000 0.000000 0.000000
# 4 0.000000 0.000000 0.000000 0.033312 0.000000 0.000000
# 5 0.000000 0.000000 0.000000 0.000000 -0.025857 0.000000
# 6 0.000000 0.000000 0.000000 0.000000 0.000000 0.024632
#
#
# Mechanical properties :
#
#
# Convention : Reuss Voigt Hill
#
# Bulk Modulus (GPa) = 54.80941 71.43380 63.12160
# Shear Modulus (GPa) = 56.66958 23.14671 39.90814
#
# Velocity S-wave (km/s) = 4.94367 3.15950 4.14863
# Velocity P-wave (km/s) = 7.49827 6.64207 7.08312
#
# Compressibility (1/GPa) = 0.01824504
#
# Stress axis : x y z
#
# Youngs Moduli (GPa) = 56.08442 123.46140 121.60070
#
# Poissons Ratio (x) = 0.44555 0.15962
# Poissons Ratio (y) = 0.20240 0.36879
# Poissons Ratio (z) = 0.07362 0.37443
#
# Static dielectric constant tensor:
#      x y z
#    x 1.894980 0.000000 0.000000 
#    y 0.000000 1.939670 0.000000 
#    z 0.000000 0.000000 -0.202300 
# 
# From -- ./inp_files/41346.got.cif
#   From: 2010.05.17/outbox.cif.g08.bks.cpg/sg66_21_cif.got.tgz:41346.got - 2010.06.03 17:51:23.
