data_PCOD9495082
_publ_section_title
;
Structure prediction by ZEFSAII (Michael W. Deem and Ramdas Pophale) SiO2 
 PCOD9495082
Probable space group: C C C M
;
_chemical_formula_sum "Si O2"
_cell_formula_units_Z 80
_cell_length_a 5.345946
_cell_length_b 25.181504
_cell_length_c 33.570086
_cell_angle_alpha 90.000000
_cell_angle_beta 90.000000
_cell_angle_gamma 90.000000
_cell_volume 4519.170084
_symmetry_space_group_name_H-M "C C C M"
_symmetry_group_IT_number 66
_symmetry_cell_setting 'orthorhombic'
loop_
_space_group_symop_operation_xyz
x,y,z
-x,-y,z
x,-y,1/2-z
-x,y,1/2-z
-x,-y,-z
x,y,-z
-x,y,1/2+z
x,-y,1/2+z
1/2+x,1/2+y,z
1/2-x,1/2-y,z
1/2+x,1/2-y,1/2-z
1/2-x,1/2+y,1/2-z
1/2-x,1/2-y,-z
1/2+x,1/2+y,-z
1/2-x,1/2+y,1/2+z
1/2+x,1/2-y,1/2+z
loop_
_atom_site_type_symbol
_atom_site_label
_atom_site_fract_x
_atom_site_fract_y
_atom_site_fract_z
Si Si1 0.862218 0.193005 0.174156
Si Si2 0.247680 0.477126 0.795331
Si Si3 0.874681 0.353458 0.292706
Si Si4 0.983294 0.190495 0.081020
Si Si5 0.482901 0.188705 0.047257
O O1 0.750000 0.250000 0.186307
O O2 0.618314 0.155104 0.179167
O O3 0.940730 0.194727 0.127907
O O4 0.120658 0.179073 0.197233
O O5 0.500000 0.500000 0.813947
O O6 0.248508 0.500000 0.750000
O O7 0.221394 0.414106 0.793123
O O8 0.000000 0.500000 0.815291
O O9 0.000000 0.341183 0.250000
O O10 0.744973 0.164041 0.060397
O O11 0.244798 0.164414 0.069341
O O12 0.000195 0.250159 0.062717
O O13 0.450662 0.188888 0.000000
#
# Coordination Sequence:
#
# PCOD9495082 Si02
#       5
#    16  16  16  16  16
#     4  12  25  39  55  71 115 162 185 220 265 311
#     4  10  19  36  65  82  98 114 152 245 316 333
#     4  12  25  40  59  83  97 135 202 237 269 333
#     4  10  18  31  47  68 101 141 180 219 265 308
#     4  10  17  28  52  75  93 126 201 241 247 288
#
# _framework density 17.702363999999999
#
# number of rings (size 3 to 8) (size 9 to 14) (size 15 to 20)
#    0.000    1.200    4.000    6.600    5.600    1.600 
#    0.000    0.000    0.000    0.000    0.000    0.000 
#    0.000    0.000    0.000    0.000    0.000  412.000 
#
# Total GULP energy -222880.785514 kJ/mol
# GULP energy per Si atom -5572.019638 kJ/mol
# Density = 1.766207 g / cm^3
# Si number density = 17.702364 Si / 1000 Ang^3
#
#
#
# Elastic Constant Matrix: (Units=GPa)
#
#
# Indices 1 2 3 4 5 6 
#
# 1 225.6279 45.4116 53.3249 0.0000 0.0000 0.0000
# 2 45.4116 57.2125 38.4236 0.0000 0.0000 0.0000
# 3 53.3249 38.4236 69.6021 0.0000 0.0000 0.0000
# 4 0.0000 0.0000 0.0000 -2.1948 0.0000 0.0000
# 5 0.0000 0.0000 0.0000 0.0000 24.7702 0.0000
# 6 0.0000 0.0000 0.0000 0.0000 0.0000 24.6124
#
#
#
# Elastic Compliance Matrix: (Units=1/GPa)
#
#
# Indices 1 2 3 4 5 6 
#
# 1 0.005628 -0.002497 -0.002933 0.000000 0.000000 0.000000
# 2 -0.002497 0.028885 -0.014033 0.000000 0.000000 0.000000
# 3 -0.002933 -0.014033 0.024361 0.000000 0.000000 0.000000
# 4 0.000000 0.000000 0.000000 -0.455623 0.000000 0.000000
# 5 0.000000 0.000000 0.000000 0.000000 0.040371 0.000000
# 6 0.000000 0.000000 0.000000 0.000000 0.000000 0.040630
#
#
# Mechanical properties :
#
#
# Convention : Reuss Voigt Hill
#
# Bulk Modulus (GPa) = 50.13000 69.64029 59.88514
# Shear Modulus (GPa) = -18.50677 23.78972 2.64147
#
# Velocity S-wave (km/s) = -3.23684 3.66986 1.22286
# Velocity P-wave (km/s) = 3.79608 7.57510 5.99134
#
# Compressibility (1/GPa) = 0.01994814
#
# Stress axis : x y z
#
# Youngs Moduli (GPa) = 177.68593 34.61988 41.04849
#
# Poissons Ratio (x) = 0.08645 0.12040
# Poissons Ratio (y) = 0.44370 0.57603
# Poissons Ratio (z) = 0.52119 0.48581
#
# Static dielectric constant tensor:
#      x y z
#    x 1.682310 0.000000 0.000000 
#    y 0.000000 1.548250 0.000000 
#    z 0.000000 0.000000 1.598460 
# 
# From -- ./inp_files/67200.got.cif
#   From: 2010.05.17/outbox.cif.g08.bks.cpg/sg66_34_cif.got.tgz:67200.got - 2010.06.03 17:51:23.
