data_PCOD9495436
_publ_section_title
;
Structure prediction by ZEFSAII (Michael W. Deem and Ramdas Pophale) SiO2 
 PCOD9495436
Probable space group: C C C M
;
_chemical_formula_sum "Si O2"
_cell_formula_units_Z 112
_cell_length_a 25.981275
_cell_length_b 14.743375
_cell_length_c 14.761578
_cell_angle_alpha 90.000000
_cell_angle_beta 90.000000
_cell_angle_gamma 90.000000
_cell_volume 5654.447257
_symmetry_space_group_name_H-M "C C C M"
_symmetry_group_IT_number 66
_symmetry_cell_setting 'orthorhombic'
loop_
_space_group_symop_operation_xyz
x,y,z
-x,-y,z
x,-y,1/2-z
-x,y,1/2-z
-x,-y,-z
x,y,-z
-x,y,1/2+z
x,-y,1/2+z
1/2+x,1/2+y,z
1/2-x,1/2-y,z
1/2+x,1/2-y,1/2-z
1/2-x,1/2+y,1/2-z
1/2-x,1/2-y,-z
1/2+x,1/2+y,-z
1/2-x,1/2+y,1/2+z
1/2+x,1/2-y,1/2+z
loop_
_atom_site_type_symbol
_atom_site_label
_atom_site_fract_x
_atom_site_fract_y
_atom_site_fract_z
Si Si1 0.188408 0.250961 0.106290
Si Si2 0.132034 0.403463 0.779046
Si Si3 0.925434 0.137897 0.100769
Si Si4 0.027989 0.343570 0.845933
Si Si5 0.078184 0.646772 0.905264
Si Si6 0.041526 0.133550 0.893741
Si Si7 0.363555 0.405484 0.775790
O O1 0.250000 0.250000 0.105756
O O2 0.167330 0.338334 0.161050
O O3 0.168392 0.165226 0.164610
O O4 0.171067 0.249017 0.000000
O O5 0.154425 0.500000 0.750000
O O6 0.077466 0.407313 0.833352
O O7 0.113227 0.365841 0.682059
O O8 0.931181 0.245723 0.090750
O O9 0.883656 0.127564 0.178473
O O10 0.982766 0.107056 0.128588
O O11 0.912698 0.101372 0.000000
O O12 0.046506 0.243446 0.878142
O O13 0.000000 0.325595 0.750000
O O14 0.980491 0.388013 0.898348
O O15 0.102062 0.615246 0.000000
O O16 0.084143 0.082746 0.834865
O O17 0.048919 0.116901 0.000000
O O18 0.337073 0.500000 0.750000
#
# Coordination Sequence:
#
# PCOD9495436 Si02
#       7
#    16  16  16  16  16  16  16
#     4  11  26  49  72  91 117 156 203 262 330 389
#     4  11  22  37  63  93 123 159 207 256 309 369
#     4   9  18  33  55  85 126 173 208 244 292 353
#     4   9  16  29  51  83 125 171 207 241 288 348
#     4   9  17  32  55  86 128 170 208 244 291 356
#     4  10  18  31  54  86 127 173 217 247 285 349
#     4  12  23  37  62  93 123 159 207 258 308 368
#
# _framework density 19.807417000000001
#
# number of rings (size 3 to 8) (size 9 to 14) (size 15 to 20)
#    0.000    1.857    2.857    3.857    0.000    6.571 
#    0.000    2.143    0.000    1.714    0.000    0.000 
#    0.000    0.000    0.000    0.000    0.000    0.000 
#
# Total GULP energy -312171.602781 kJ/mol
# GULP energy per Si atom -5574.492907 kJ/mol
# Density = 1.976233 g / cm^3
# Si number density = 19.807417 Si / 1000 Ang^3
#
#
#
# Elastic Constant Matrix: (Units=GPa)
#
#
# Indices 1 2 3 4 5 6 
#
# 1 67.7885 28.7214 50.2946 0.0000 0.0000 0.0000
# 2 28.7214 94.5100 37.5668 0.0000 0.0000 0.0000
# 3 50.2946 37.5668 137.3860 0.0000 0.0000 0.0000
# 4 0.0000 0.0000 0.0000 -24.6146 0.0000 0.0000
# 5 0.0000 0.0000 0.0000 0.0000 17.3719 0.0000
# 6 0.0000 0.0000 0.0000 0.0000 0.0000 7.4121
#
#
#
# Elastic Compliance Matrix: (Units=1/GPa)
#
#
# Indices 1 2 3 4 5 6 
#
# 1 0.021406 -0.003804 -0.006796 0.000000 0.000000 0.000000
# 2 -0.003804 0.012547 -0.002038 0.000000 0.000000 0.000000
# 3 -0.006796 -0.002038 0.010324 0.000000 0.000000 0.000000
# 4 0.000000 0.000000 0.000000 -0.040626 0.000000 0.000000
# 5 0.000000 0.000000 0.000000 0.000000 0.057564 0.000000
# 6 0.000000 0.000000 0.000000 0.000000 0.000000 0.134914
#
#
# Mechanical properties :
#
#
# Convention : Reuss Voigt Hill
#
# Bulk Modulus (GPa) = 52.63081 59.20559 55.91820
# Shear Modulus (GPa) = 21.95497 12.24066 17.09781
#
# Velocity S-wave (km/s) = 3.33291 2.48862 2.94122
# Velocity P-wave (km/s) = 6.43739 6.18168 6.31083
#
# Compressibility (1/GPa) = 0.01900028
#
# Stress axis : x y z
#
# Youngs Moduli (GPa) = 46.71664 79.69984 96.86087
#
# Poissons Ratio (x) = 0.30316 0.65828
# Poissons Ratio (y) = 0.17770 0.19744
# Poissons Ratio (z) = 0.31749 0.16246
#
# Static dielectric constant tensor:
#      x y z
#    x 1.681540 0.000000 0.000000 
#    y 0.000000 1.784930 0.000000 
#    z 0.000000 0.000000 1.759950 
# 
# From -- ./inp_files/32462.got.cif
#   From: 2010.05.17/outbox.cif.g08.bks.cpg/sg66_17_cif.got.tgz:32462.got - 2010.06.03 17:51:23.
