data_PCOD9495231
_publ_section_title
;
Structure prediction by ZEFSAII (Michael W. Deem and Ramdas Pophale) SiO2 
 PCOD9495231
Probable space group: C C C M
;
_chemical_formula_sum "Si O2"
_cell_formula_units_Z 112
_cell_length_a 25.076114
_cell_length_b 14.482409
_cell_length_c 20.023473
_cell_angle_alpha 90.000000
_cell_angle_beta 90.000000
_cell_angle_gamma 90.000000
_cell_volume 7271.775296
_symmetry_space_group_name_H-M "C C C M"
_symmetry_group_IT_number 66
_symmetry_cell_setting 'orthorhombic'
loop_
_space_group_symop_operation_xyz
x,y,z
-x,-y,z
x,-y,1/2-z
-x,y,1/2-z
-x,-y,-z
x,y,-z
-x,y,1/2+z
x,-y,1/2+z
1/2+x,1/2+y,z
1/2-x,1/2-y,z
1/2+x,1/2-y,1/2-z
1/2-x,1/2+y,1/2-z
1/2-x,1/2-y,-z
1/2+x,1/2+y,-z
1/2-x,1/2+y,1/2+z
1/2+x,1/2-y,1/2+z
loop_
_atom_site_type_symbol
_atom_site_label
_atom_site_fract_x
_atom_site_fract_y
_atom_site_fract_z
Si Si1 0.390060 0.680101 0.675262
Si Si2 0.694052 0.803179 0.579517
Si Si3 0.502284 0.607173 0.668814
Si Si4 0.179107 0.000787 0.322751
Si Si5 0.310216 0.213113 0.078772
Si Si6 0.774258 0.512820 0.078199
Si Si7 0.383957 0.309432 0.329821
O O1 0.450219 0.666029 0.649938
O O2 0.366518 0.576369 0.680122
O O3 0.352485 0.736931 0.625914
O O4 0.387571 0.718027 0.751335
O O5 0.684761 0.789245 0.500000
O O6 0.750000 0.750000 0.595501
O O7 0.701361 0.912309 0.592171
O O8 0.645890 0.763675 0.623603
O O9 0.500000 0.500000 0.645774
O O10 0.500000 0.603295 0.750000
O O11 0.556957 0.657758 0.649328
O O12 0.206257 0.000000 0.250000
O O13 0.221094 0.977632 0.379029
O O14 0.152794 0.099466 0.333972
O O15 0.250000 0.250000 0.092427
O O16 0.309988 0.102896 0.090749
O O17 0.320533 0.230522 0.000000
O O18 0.760299 0.514853 0.000000
#
# Coordination Sequence:
#
# PCOD9495231 Si02
#       7
#    16  16  16  16  16  16  16
#     4  10  19  31  50  75 102 131 163 198 240 291
#     4  10  20  33  50  71  98 131 165 202 245 292
#     4   9  16  30  51  74 101 132 162 195 243 296
#     4  10  18  27  46  76 103 127 158 199 237 283
#     4  10  20  33  50  71  98 131 165 202 245 292
#     4  10  20  34  49  68  98 136 165 193 244 299
#     4  10  19  31  50  75 102 131 163 198 240 291
#
# _framework density 15.402015
#
# number of rings (size 3 to 8) (size 9 to 14) (size 15 to 20)
#    0.000    2.143    4.286    0.000    0.000    1.714 
#    0.000    0.714    0.000    1.714    0.000    6.000 
#    0.000    0.000    0.000    0.000    0.000    0.000 
#
# Total GULP energy -312037.546007 kJ/mol
# GULP energy per Si atom -5572.099036 kJ/mol
# Density = 1.536696 g / cm^3
# Si number density = 15.402015 Si / 1000 Ang^3
#
#
#
# Elastic Constant Matrix: (Units=GPa)
#
#
# Indices 1 2 3 4 5 6 
#
# 1 88.0193 25.8665 41.9420 0.0000 0.0000 0.0000
# 2 25.8665 73.1649 31.7246 0.0000 0.0000 0.0000
# 3 41.9420 31.7246 35.4296 0.0000 0.0000 0.0000
# 4 0.0000 0.0000 0.0000 19.0596 0.0000 0.0000
# 5 0.0000 0.0000 0.0000 0.0000 -29.3266 0.0000
# 6 0.0000 0.0000 0.0000 0.0000 0.0000 21.5574
#
#
#
# Elastic Compliance Matrix: (Units=1/GPa)
#
#
# Indices 1 2 3 4 5 6 
#
# 1 0.028317 0.007395 -0.040144 0.000000 0.000000 0.000000
# 2 0.007395 0.024274 -0.030490 0.000000 0.000000 0.000000
# 3 -0.040144 -0.030490 0.103049 0.000000 0.000000 0.000000
# 4 0.000000 0.000000 0.000000 0.052467 0.000000 0.000000
# 5 0.000000 0.000000 0.000000 0.000000 -0.034099 0.000000
# 6 0.000000 0.000000 0.000000 0.000000 0.000000 0.046388
#
#
# Mechanical properties :
#
#
# Convention : Reuss Voigt Hill
#
# Bulk Modulus (GPa) = 34.29023 43.96444 39.12734
# Shear Modulus (GPa) = 14.02157 8.73014 11.37585
#
# Velocity S-wave (km/s) = 3.02051 2.38338 2.72066
# Velocity P-wave (km/s) = 5.87166 6.01503 5.94378
#
# Compressibility (1/GPa) = 0.02916283
#
# Stress axis : x y z
#
# Youngs Moduli (GPa) = 35.31500 41.19645 9.70410
#
# Poissons Ratio (x) = -0.30467 0.38956
# Poissons Ratio (y) = -0.26117 0.29588
# Poissons Ratio (z) = 1.41767 1.25609
#
# Static dielectric constant tensor:
#      x y z
#    x 1.498780 0.000000 0.000000 
#    y 0.000000 1.516490 0.000000 
#    z 0.000000 0.000000 1.516810 
# 
# From -- ./inp_files/33318.got.cif
#   From: 2010.05.17/outbox.cif.g08.bks.cpg/sg66_17_cif.got.tgz:33318.got - 2010.06.03 17:51:23.
