data_PCOD9495652
_publ_section_title
;
Structure prediction by ZEFSAII (Michael W. Deem and Ramdas Pophale) SiO2 
 PCOD9495652
Probable space group: C C C M
;
_chemical_formula_sum "Si O2"
_cell_formula_units_Z 68
_cell_length_a 9.465650
_cell_length_b 12.416349
_cell_length_c 26.991739
_cell_angle_alpha 90.000000
_cell_angle_beta 90.000000
_cell_angle_gamma 90.000000
_cell_volume 3172.307070
_symmetry_space_group_name_H-M "C C C M"
_symmetry_group_IT_number 66
_symmetry_cell_setting 'orthorhombic'
loop_
_space_group_symop_operation_xyz
x,y,z
-x,-y,z
x,-y,1/2-z
-x,y,1/2-z
-x,-y,-z
x,y,-z
-x,y,1/2+z
x,-y,1/2+z
1/2+x,1/2+y,z
1/2-x,1/2-y,z
1/2+x,1/2-y,1/2-z
1/2-x,1/2+y,1/2-z
1/2-x,1/2-y,-z
1/2+x,1/2+y,-z
1/2-x,1/2+y,1/2+z
1/2+x,1/2-y,1/2+z
loop_
_atom_site_type_symbol
_atom_site_label
_atom_site_fract_x
_atom_site_fract_y
_atom_site_fract_z
Si Si1 0.483716 0.202780 0.000000
Si Si2 0.000000 0.500000 0.250000
Si Si3 0.315880 0.578911 0.500000
Si Si4 0.574835 0.120567 0.896218
Si Si5 0.342908 0.156036 0.824653
Si Si6 0.161679 0.000167 0.390187
O O1 0.565616 0.172658 0.950171
O O2 0.429968 0.325005 0.000000
O O3 0.339927 0.131699 0.000000
O O4 0.098104 0.426890 0.215330
O O5 0.331660 0.513936 0.449475
O O6 0.479502 0.186720 0.857684
O O7 0.500000 0.000000 0.898749
O O8 0.734567 0.099973 0.878995
O O9 0.250000 0.250000 0.801429
O O10 0.237691 0.099968 0.863834
O O11 0.000000 0.000000 0.374533
#
# Coordination Sequence:
#
# PCOD9495652 Si02
#       6
#     8   4   8  16  16  16
#     4  11  18  30  58  90 124 175 242 259 314 409
#     4  12  24  52  74 100 132 176 230 292 360 416
#     4  11  20  31  56  93 134 180 224 267 320 408
#     4  10  18  35  62  91 125 177 217 270 328 404
#     4  11  23  46  74  97 127 171 225 278 344 421
#     4  11  22  39  61  97 138 176 218 278 340 403
#
# _framework density 21.435503000000001
#
# number of rings (size 3 to 8) (size 9 to 14) (size 15 to 20)
#    0.000    1.176    8.235    2.824    0.000    0.000 
#    4.235    5.882    0.000    0.000    0.000    0.000 
#    0.000    0.000    0.000    0.000    0.000    0.000 
#
# Total GULP energy -190053.668628 kJ/mol
# GULP energy per Si atom -5589.813783 kJ/mol
# Density = 2.138671 g / cm^3
# Si number density = 21.435503 Si / 1000 Ang^3
#
#
#
# Elastic Constant Matrix: (Units=GPa)
#
#
# Indices 1 2 3 4 5 6 
#
# 1 172.9829 41.6614 26.3967 0.0000 0.0000 0.0000
# 2 41.6614 46.4332 15.1182 0.0000 0.0000 0.0000
# 3 26.3967 15.1182 79.5884 0.0000 0.0000 0.0000
# 4 0.0000 0.0000 0.0000 -1.3326 0.0000 0.0000
# 5 0.0000 0.0000 0.0000 0.0000 4.8322 0.0000
# 6 0.0000 0.0000 0.0000 0.0000 0.0000 40.9957
#
#
#
# Elastic Compliance Matrix: (Units=1/GPa)
#
#
# Indices 1 2 3 4 5 6 
#
# 1 0.007496 -0.006307 -0.001288 0.000000 0.000000 0.000000
# 2 -0.006307 0.028262 -0.003277 0.000000 0.000000 0.000000
# 3 -0.001288 -0.003277 0.013614 0.000000 0.000000 0.000000
# 4 0.000000 0.000000 0.000000 -0.750421 0.000000 0.000000
# 5 0.000000 0.000000 0.000000 0.000000 0.206947 0.000000
# 6 0.000000 0.000000 0.000000 0.000000 0.000000 0.024393
#
#
# Mechanical properties :
#
#
# Convention : Reuss Voigt Hill
#
# Bulk Modulus (GPa) = 36.19371 51.70632 43.95002
# Shear Modulus (GPa) = -11.39585 23.28761 5.94588
#
# Velocity S-wave (km/s) = -2.30822 3.29964 1.66729
# Velocity P-wave (km/s) = 3.13333 6.22021 4.92487
#
# Compressibility (1/GPa) = 0.02762911
#
# Stress axis : x y z
#
# Youngs Moduli (GPa) = 133.39766 35.38373 73.45176
#
# Poissons Ratio (x) = 0.22315 0.09463
# Poissons Ratio (y) = 0.84128 0.24068
# Poissons Ratio (z) = 0.17186 0.11594
#
# Static dielectric constant tensor:
#      x y z
#    x 1.812630 0.000000 0.000000 
#    y 0.000000 1.851630 0.000000 
#    z 0.000000 0.000000 1.728570 
# 
# From -- ./inp_files/62124.got.cif
#   From: 2010.05.17/outbox.cif.g08.bks.cpg/sg66_32_cif.got.tgz:62124.got - 2010.06.03 17:51:23.
