data_PCOD9495499
_publ_section_title
;
Structure prediction by ZEFSAII (Michael W. Deem and Ramdas Pophale) SiO2 
 PCOD9495499
Probable space group: C C C M
;
_chemical_formula_sum "Si O2"
_cell_formula_units_Z 64
_cell_length_a 7.569581
_cell_length_b 18.482786
_cell_length_c 18.828004
_cell_angle_alpha 90.000000
_cell_angle_beta 90.000000
_cell_angle_gamma 90.000000
_cell_volume 2634.168534
_symmetry_space_group_name_H-M "C C C M"
_symmetry_group_IT_number 66
_symmetry_cell_setting 'orthorhombic'
loop_
_space_group_symop_operation_xyz
x,y,z
-x,-y,z
x,-y,1/2-z
-x,y,1/2-z
-x,-y,-z
x,y,-z
-x,y,1/2+z
x,-y,1/2+z
1/2+x,1/2+y,z
1/2-x,1/2-y,z
1/2+x,1/2-y,1/2-z
1/2-x,1/2+y,1/2-z
1/2-x,1/2-y,-z
1/2+x,1/2+y,-z
1/2-x,1/2+y,1/2+z
1/2+x,1/2-y,1/2+z
loop_
_atom_site_type_symbol
_atom_site_label
_atom_site_fract_x
_atom_site_fract_y
_atom_site_fract_z
Si Si1 0.007797 0.586347 0.000000
Si Si2 0.500000 0.500000 0.250000
Si Si3 0.580650 0.582662 0.000000
Si Si4 0.936943 0.375176 0.848182
Si Si5 0.138508 0.127099 0.848271
Si Si6 0.000000 0.252937 0.250000
Si Si7 0.000000 0.500000 0.250000
O O1 0.795228 0.596950 0.000000
O O2 0.107667 0.615730 0.930324
O O3 0.000000 0.500000 0.000000
O O4 0.404555 0.443777 0.197333
O O5 0.500000 0.500000 0.000000
O O6 0.539606 0.618383 0.923813
O O7 0.150043 0.370420 0.852996
O O8 0.883722 0.308459 0.798557
O O9 0.895397 0.446946 0.803045
O O10 0.081404 0.199192 0.807853
#
# Coordination Sequence:
#
# PCOD9495499 Si02
#       7
#     8   4   8  16  16   8   4
#     4  10  20  37  59  87 117 151 196 243 294 346
#     4  10  18  32  56  84 112 144 194 234 290 344
#     4  10  20  37  59  87 117 151 196 243 294 346
#     4  10  20  35  56  82 114 151 193 240 287 346
#     4  10  20  35  56  82 114 151 193 240 287 346
#     4  10  22  36  50  80 114 148 192 228 294 336
#     4  10  18  32  56  84 112 144 194 234 290 344
#
# _framework density 24.296091000000001
#
# number of rings (size 3 to 8) (size 9 to 14) (size 15 to 20)
#    0.000    2.000    2.500    1.500    0.000    1.000 
#    0.000    6.250    0.000    0.000    0.000   12.250 
#    0.000    0.000    0.000    0.000    0.000    0.000 
#
# Total GULP energy -178666.638111 kJ/mol
# GULP energy per Si atom -5583.332441 kJ/mol
# Density = 2.424079 g / cm^3
# Si number density = 24.296091 Si / 1000 Ang^3
#
#
#
# Elastic Constant Matrix: (Units=GPa)
#
#
# Indices 1 2 3 4 5 6 
#
# 1 54.9760 18.8882 24.2727 0.0000 0.0000 0.0000
# 2 18.8882 191.9310 104.9667 0.0000 0.0000 0.0000
# 3 24.2727 104.9667 282.6013 0.0000 0.0000 0.0000
# 4 0.0000 0.0000 0.0000 24.5903 0.0000 0.0000
# 5 0.0000 0.0000 0.0000 0.0000 15.7145 0.0000
# 6 0.0000 0.0000 0.0000 0.0000 0.0000 33.4776
#
#
#
# Elastic Compliance Matrix: (Units=1/GPa)
#
#
# Indices 1 2 3 4 5 6 
#
# 1 0.019137 -0.001235 -0.001185 0.000000 0.000000 0.000000
# 2 -0.001235 0.006618 -0.002352 0.000000 0.000000 0.000000
# 3 -0.001185 -0.002352 0.004514 0.000000 0.000000 0.000000
# 4 0.000000 0.000000 0.000000 0.040667 0.000000 0.000000
# 5 0.000000 0.000000 0.000000 0.000000 0.063635 0.000000
# 6 0.000000 0.000000 0.000000 0.000000 0.000000 0.029871
#
#
# Mechanical properties :
#
#
# Convention : Reuss Voigt Hill
#
# Bulk Modulus (GPa) = 48.25124 91.75149 70.00137
# Shear Modulus (GPa) = 27.64037 40.18186 33.91112
#
# Velocity S-wave (km/s) = 3.37656 4.07116 3.74002
# Velocity P-wave (km/s) = 5.92489 7.74241 6.89381
#
# Compressibility (1/GPa) = 0.02072485
#
# Stress axis : x y z
#
# Youngs Moduli (GPa) = 52.25396 151.10043 221.53540
#
# Poissons Ratio (x) = 0.18666 0.26249
# Poissons Ratio (y) = 0.06455 0.52107
# Poissons Ratio (z) = 0.06191 0.35540
#
# Static dielectric constant tensor:
#      x y z
#    x 2.040020 0.000000 0.000000 
#    y 0.000000 1.871490 0.000000 
#    z 0.000000 0.000000 1.900610 
# 
# From -- ./inp_files/46710.got.cif
#   From: 2010.05.17/outbox.cif.g08.bks.cpg/sg66_24_cif.got.tgz:46710.got - 2010.06.03 17:51:23.
