data_PCOD9495917
_publ_section_title
;
Structure prediction by ZEFSAII (Michael W. Deem and Ramdas Pophale) SiO2 
 PCOD9495917
Probable space group: C C C M
;
_chemical_formula_sum "Si O2"
_cell_formula_units_Z 52
_cell_length_a 15.624384
_cell_length_b 14.191198
_cell_length_c 9.825775
_cell_angle_alpha 90.000000
_cell_angle_beta 90.000000
_cell_angle_gamma 90.000000
_cell_volume 2178.656582
_symmetry_space_group_name_H-M "C C C M"
_symmetry_group_IT_number 66
_symmetry_cell_setting 'orthorhombic'
loop_
_space_group_symop_operation_xyz
x,y,z
-x,-y,z
x,-y,1/2-z
-x,y,1/2-z
-x,-y,-z
x,y,-z
-x,y,1/2+z
x,-y,1/2+z
1/2+x,1/2+y,z
1/2-x,1/2-y,z
1/2+x,1/2-y,1/2-z
1/2-x,1/2+y,1/2-z
1/2-x,1/2-y,-z
1/2+x,1/2+y,-z
1/2-x,1/2+y,1/2+z
1/2+x,1/2-y,1/2+z
loop_
_atom_site_type_symbol
_atom_site_label
_atom_site_fract_x
_atom_site_fract_y
_atom_site_fract_z
Si Si1 0.089996 0.600507 0.000000
Si Si2 0.215090 0.441010 0.000000
Si Si3 0.000000 0.500000 0.250000
Si Si4 0.356952 0.249177 0.000000
Si Si5 0.658631 0.702260 0.500000
Si Si6 0.639911 0.600560 0.781240
O O1 0.092119 0.712078 0.000000
O O2 0.051016 0.564684 0.142828
O O3 0.180328 0.545959 0.000000
O O4 0.274517 0.425794 0.867533
O O5 0.136224 0.364558 0.000000
O O6 0.250000 0.250000 0.000000
O O7 0.391587 0.310553 0.126737
O O8 0.750000 0.750000 0.500000
O O9 0.651757 0.642425 0.634378
O O10 0.595551 0.500000 0.750000
#
# Coordination Sequence:
#
# PCOD9495917 Si02
#       6
#     8   8   4   8   8  16
#     4  11  26  45  68  88 132 173 241 272 313 390
#     4  10  21  33  55  79 127 170 195 257 322 406
#     4  10  28  50  64  90 122 194 236 264 316 358
#     4   8  17  30  43  70 109 160 190 222 307 398
#     4  12  22  32  60 101 122 165 212 275 343 392
#     4  10  19  32  48  87 128 160 191 242 339 399
#
# _framework density 23.867920000000002
#
# number of rings (size 3 to 8) (size 9 to 14) (size 15 to 20)
#    0.000    2.154    0.000    6.462   10.769    0.000 
#    0.000    0.000    0.000    0.000    0.000    3.231 
#    0.000    0.000    0.000    0.000    0.000    0.000 
#
# Total GULP energy -145037.302767 kJ/mol
# GULP energy per Si atom -5578.357799 kJ/mol
# Density = 2.381360 g / cm^3
# Si number density = 23.867920 Si / 1000 Ang^3
#
#
#
# Elastic Constant Matrix: (Units=GPa)
#
#
# Indices 1 2 3 4 5 6 
#
# 1 37.9124 31.2186 44.3158 0.0000 0.0000 0.0000
# 2 31.2186 173.5370 81.0522 0.0000 0.0000 0.0000
# 3 44.3158 81.0522 256.9701 0.0000 0.0000 0.0000
# 4 0.0000 0.0000 0.0000 52.2550 0.0000 0.0000
# 5 0.0000 0.0000 0.0000 0.0000 -0.6014 0.0000
# 6 0.0000 0.0000 0.0000 0.0000 0.0000 8.1417
#
#
#
# Elastic Compliance Matrix: (Units=1/GPa)
#
#
# Indices 1 2 3 4 5 6 
#
# 1 0.035384 -0.004123 -0.004802 0.000000 0.000000 0.000000
# 2 -0.004123 0.007238 -0.001572 0.000000 0.000000 0.000000
# 3 -0.004802 -0.001572 0.005215 0.000000 0.000000 0.000000
# 4 0.000000 0.000000 0.000000 0.019137 0.000000 0.000000
# 5 0.000000 0.000000 0.000000 0.000000 -1.662726 0.000000
# 6 0.000000 0.000000 0.000000 0.000000 0.000000 0.122824
#
#
# Mechanical properties :
#
#
# Convention : Reuss Voigt Hill
#
# Bulk Modulus (GPa) = 37.25122 86.84364 62.04743
# Shear Modulus (GPa) = -3.46504 32.74792 14.64144
#
# Velocity S-wave (km/s) = -1.20620 3.70813 2.47945
# Velocity P-wave (km/s) = 3.70152 7.40255 5.85231
#
# Compressibility (1/GPa) = 0.02684476
#
# Stress axis : x y z
#
# Youngs Moduli (GPa) = 28.26115 138.15216 191.73735
#
# Poissons Ratio (x) = 0.56957 0.92069
# Poissons Ratio (y) = 0.11651 0.30143
# Poissons Ratio (z) = 0.13571 0.21719
#
# Static dielectric constant tensor:
#      x y z
#    x 2.032820 0.000000 0.000000 
#    y 0.000000 2.017600 0.000000 
#    z 0.000000 0.000000 1.822860 
# 
# From -- ./inp_files/7295.got.cif
#   From: 2010.05.17/outbox.cif.g08.bks.cpg/sg66_4_cif.got.tgz:7295.got - 2010.06.03 17:51:23.
