data_PCOD9495093
_publ_section_title
;
Structure prediction by ZEFSAII (Michael W. Deem and Ramdas Pophale) SiO2 
 PCOD9495093
Probable space group: C C C M
;
_chemical_formula_sum "Si O2"
_cell_formula_units_Z 112
_cell_length_a 23.384028
_cell_length_b 17.894350
_cell_length_c 18.402060
_cell_angle_alpha 90.000000
_cell_angle_beta 90.000000
_cell_angle_gamma 90.000000
_cell_volume 7700.194449
_symmetry_space_group_name_H-M "C C C M"
_symmetry_group_IT_number 66
_symmetry_cell_setting 'orthorhombic'
loop_
_space_group_symop_operation_xyz
x,y,z
-x,-y,z
x,-y,1/2-z
-x,y,1/2-z
-x,-y,-z
x,y,-z
-x,y,1/2+z
x,-y,1/2+z
1/2+x,1/2+y,z
1/2-x,1/2-y,z
1/2+x,1/2-y,1/2-z
1/2-x,1/2+y,1/2-z
1/2-x,1/2-y,-z
1/2+x,1/2+y,-z
1/2-x,1/2+y,1/2+z
1/2+x,1/2-y,1/2+z
loop_
_atom_site_type_symbol
_atom_site_label
_atom_site_fract_x
_atom_site_fract_y
_atom_site_fract_z
Si Si1 0.999147 0.089172 0.337092
Si Si2 0.816327 0.273313 0.837824
Si Si3 0.897703 0.828807 0.417617
Si Si4 0.690848 0.464269 0.918504
Si Si5 0.880677 0.884212 0.085471
Si Si6 0.775132 0.572635 0.288240
Si Si7 0.203576 0.188638 0.805495
O O1 0.941073 0.117419 0.374064
O O2 0.000000 0.096286 0.250000
O O3 0.052114 0.135896 0.369204
O O4 0.000000 0.000000 0.354151
O O5 0.750000 0.250000 0.859216
O O6 0.865581 0.246003 0.891355
O O7 0.814364 0.361028 0.819859
O O8 0.826973 0.227215 0.763482
O O9 0.918756 0.821244 0.500000
O O10 0.847011 0.889834 0.416319
O O11 0.647785 0.533468 0.908205
O O12 0.736381 0.457094 0.854533
O O13 0.716140 0.471345 0.000000
O O14 0.837570 0.831797 0.129445
O O15 0.886087 0.867219 0.000000
O O16 0.801802 0.500000 0.250000
O O17 0.735191 0.616366 0.229324
O O18 0.250000 0.250000 0.828850
#
# Coordination Sequence:
#
# PCOD9495093 Si02
#       7
#    16  16  16  16  16  16  16
#     4  11  23  32  47  67  93 131 171 200 228 270
#     4   9  18  30  45  69  89 123 166 200 241 286
#     4  11  20  32  45  65 100 132 163 205 239 277
#     4  10  19  27  43  67  96 128 163 201 233 274
#     4  11  21  32  46  66  94 128 163 198 234 278
#     4  10  17  29  49  67  93 125 162 199 240 287
#     4   9  18  31  47  67  91 119 156 198 238 283
#
# _framework density 14.545087000000001
#
# number of rings (size 3 to 8) (size 9 to 14) (size 15 to 20)
#    0.000    2.143    5.714    1.286    0.000    1.714 
#    0.000    0.000    0.000    0.000    0.000    0.000 
#    0.000   14.286    0.000   17.571    0.000    0.000 
#
# Total GULP energy -311864.766556 kJ/mol
# GULP energy per Si atom -5569.013688 kJ/mol
# Density = 1.451198 g / cm^3
# Si number density = 14.545087 Si / 1000 Ang^3
#
#
#
# Elastic Constant Matrix: (Units=GPa)
#
#
# Indices 1 2 3 4 5 6 
#
# 1 48.1815 25.3232 49.8620 0.0000 0.0000 0.0000
# 2 25.3232 69.6936 32.2570 0.0000 0.0000 0.0000
# 3 49.8620 32.2570 80.4300 0.0000 0.0000 0.0000
# 4 0.0000 0.0000 0.0000 19.4087 0.0000 0.0000
# 5 0.0000 0.0000 0.0000 0.0000 16.1362 0.0000
# 6 0.0000 0.0000 0.0000 0.0000 0.0000 17.6084
#
#
#
# Elastic Compliance Matrix: (Units=1/GPa)
#
#
# Indices 1 2 3 4 5 6 
#
# 1 0.059630 -0.005595 -0.034723 0.000000 0.000000 0.000000
# 2 -0.005595 0.018144 -0.003808 0.000000 0.000000 0.000000
# 3 -0.034723 -0.003808 0.035487 0.000000 0.000000 0.000000
# 4 0.000000 0.000000 0.000000 0.051523 0.000000 0.000000
# 5 0.000000 0.000000 0.000000 0.000000 0.061972 0.000000
# 6 0.000000 0.000000 0.000000 0.000000 0.000000 0.056791
#
#
# Mechanical properties :
#
#
# Convention : Reuss Voigt Hill
#
# Bulk Modulus (GPa) = 39.98745 45.90994 42.94870
# Shear Modulus (GPa) = 13.15320 16.68819 14.92070
#
# Velocity S-wave (km/s) = 3.01043 3.39092 3.20632
# Velocity P-wave (km/s) = 6.29566 6.85299 6.58023
#
# Compressibility (1/GPa) = 0.02500785
#
# Stress axis : x y z
#
# Youngs Moduli (GPa) = 16.77018 55.11433 28.17964
#
# Poissons Ratio (x) = 0.30838 0.97848
# Poissons Ratio (y) = 0.09383 0.10731
# Poissons Ratio (z) = 0.58231 0.20988
#
# Static dielectric constant tensor:
#      x y z
#    x 1.466870 0.000000 0.000000 
#    y 0.000000 1.495520 0.000000 
#    z 0.000000 0.000000 1.502880 
# 
# From -- ./inp_files/41977.got.cif
#   From: 2010.05.17/outbox.cif.g08.bks.cpg/sg66_21_cif.got.tgz:41977.got - 2010.06.03 17:51:23.
