data_PCOD9495382
_publ_section_title
;
Structure prediction by ZEFSAII (Michael W. Deem and Ramdas Pophale) SiO2 
 PCOD9495382
Probable space group: C C C M
;
_chemical_formula_sum "Si O2"
_cell_formula_units_Z 104
_cell_length_a 21.438374
_cell_length_b 23.364044
_cell_length_c 14.019508
_cell_angle_alpha 90.000000
_cell_angle_beta 90.000000
_cell_angle_gamma 90.000000
_cell_volume 7022.190894
_symmetry_space_group_name_H-M "C C C M"
_symmetry_group_IT_number 66
_symmetry_cell_setting 'orthorhombic'
loop_
_space_group_symop_operation_xyz
x,y,z
-x,-y,z
x,-y,1/2-z
-x,y,1/2-z
-x,-y,-z
x,y,-z
-x,y,1/2+z
x,-y,1/2+z
1/2+x,1/2+y,z
1/2-x,1/2-y,z
1/2+x,1/2-y,1/2-z
1/2-x,1/2+y,1/2-z
1/2-x,1/2-y,-z
1/2+x,1/2+y,-z
1/2-x,1/2+y,1/2+z
1/2+x,1/2-y,1/2+z
loop_
_atom_site_type_symbol
_atom_site_label
_atom_site_fract_x
_atom_site_fract_y
_atom_site_fract_z
Si Si1 0.898684 0.224033 0.610142
Si Si2 0.646929 0.856440 0.108234
Si Si3 0.086645 0.336127 0.389854
Si Si4 0.074561 0.565303 0.760093
Si Si5 0.772391 0.183204 0.306569
Si Si6 0.232564 0.683679 0.895478
Si Si7 0.500000 0.239707 0.250000
O O1 0.913305 0.210721 0.500000
O O2 0.878368 0.291230 0.613485
O O3 0.840326 0.186626 0.646924
O O4 0.956128 0.222336 0.682495
O O5 0.608758 0.895634 0.181233
O O6 0.719795 0.851140 0.135540
O O7 0.639007 0.876628 0.000000
O O8 0.068590 0.327444 0.500000
O O9 0.085893 0.402549 0.359866
O O10 0.158495 0.317936 0.376409
O O11 0.042077 0.300539 0.319104
O O12 0.095997 0.500000 0.750000
O O13 0.000000 0.565993 0.750000
O O14 0.750000 0.250000 0.305135
O O15 0.768768 0.161506 0.197364
O O16 0.250000 0.750000 0.902658
O O17 0.244401 0.656948 0.000000
#
# Coordination Sequence:
#
# PCOD9495382 Si02
#       7
#    16  16  16  16  16  16   8
#     4  10  19  28  44  67  89 115 146 179 217 261
#     4  10  18  31  48  63  82 110 147 189 230 267
#     4  11  20  32  47  61  83 116 149 183 223 263
#     4  11  22  35  45  59  85 112 154 199 232 261
#     4   9  15  28  45  65  87 106 137 184 220 261
#     4   9  16  26  43  65  84 106 138 175 217 266
#     4  12  18  30  43  62  92 118 147 178 212 264
#
# _framework density 14.810192000000001
#
# number of rings (size 3 to 8) (size 9 to 14) (size 15 to 20)
#    0.000    1.846    3.846    2.769    0.000    4.308 
#    0.000    2.308    0.000    0.000    0.000    0.000 
#    0.000    0.000    0.000    0.692    0.308    4.000 
#
# Total GULP energy -289675.746938 kJ/mol
# GULP energy per Si atom -5570.687441 kJ/mol
# Density = 1.477648 g / cm^3
# Si number density = 14.810192 Si / 1000 Ang^3
#
#
#
# Elastic Constant Matrix: (Units=GPa)
#
#
# Indices 1 2 3 4 5 6 
#
# 1 84.0228 27.5269 54.5332 0.0000 0.0000 0.0000
# 2 27.5269 27.7420 13.0502 0.0000 0.0000 0.0000
# 3 54.5332 13.0502 127.3225 0.0000 0.0000 0.0000
# 4 0.0000 0.0000 0.0000 10.6438 0.0000 0.0000
# 5 0.0000 0.0000 0.0000 0.0000 11.9118 0.0000
# 6 0.0000 0.0000 0.0000 0.0000 0.0000 11.4522
#
#
#
# Elastic Compliance Matrix: (Units=1/GPa)
#
#
# Indices 1 2 3 4 5 6 
#
# 1 0.023563 -0.019577 -0.008086 0.000000 0.000000 0.000000
# 2 -0.019577 0.054137 0.002836 0.000000 0.000000 0.000000
# 3 -0.008086 0.002836 0.011027 0.000000 0.000000 0.000000
# 4 0.000000 0.000000 0.000000 0.093952 0.000000 0.000000
# 5 0.000000 0.000000 0.000000 0.000000 0.083950 0.000000
# 6 0.000000 0.000000 0.000000 0.000000 0.000000 0.087320
#
#
# Mechanical properties :
#
#
# Convention : Reuss Voigt Hill
#
# Bulk Modulus (GPa) = 25.59254 47.70089 36.64672
# Shear Modulus (GPa) = 12.00120 16.40002 14.20061
#
# Velocity S-wave (km/s) = 2.84972 3.33129 3.09987
# Velocity P-wave (km/s) = 5.30526 6.86110 6.13272
#
# Compressibility (1/GPa) = 0.03907389
#
# Stress axis : x y z
#
# Youngs Moduli (GPa) = 42.43968 18.47163 90.69039
#
# Poissons Ratio (x) = 0.36161 0.73329
# Poissons Ratio (y) = 0.83082 -0.25719
# Poissons Ratio (z) = 0.34315 -0.05238
#
# Static dielectric constant tensor:
#      x y z
#    x 1.554840 0.000000 0.000000 
#    y 0.000000 1.462600 0.000000 
#    z 0.000000 0.000000 1.552930 
# 
# From -- ./inp_files/30438.got.cif
#   From: 2010.05.17/outbox.cif.g08.bks.cpg/sg66_16_cif.got.tgz:30438.got - 2010.06.03 17:51:23.
