data_PCOD9495069
_publ_section_title
;
Structure prediction by ZEFSAII (Michael W. Deem and Ramdas Pophale) SiO2 
 PCOD9495069
Probable space group: C C C M
;
_chemical_formula_sum "Si O2"
_cell_formula_units_Z 52
_cell_length_a 14.272224
_cell_length_b 19.324935
_cell_length_c 7.775097
_cell_angle_alpha 90.000000
_cell_angle_beta 90.000000
_cell_angle_gamma 90.000000
_cell_volume 2144.447957
_symmetry_space_group_name_H-M "C C C M"
_symmetry_group_IT_number 66
_symmetry_cell_setting 'orthorhombic'
loop_
_space_group_symop_operation_xyz
x,y,z
-x,-y,z
x,-y,1/2-z
-x,y,1/2-z
-x,-y,-z
x,y,-z
-x,y,1/2+z
x,-y,1/2+z
1/2+x,1/2+y,z
1/2-x,1/2-y,z
1/2+x,1/2-y,1/2-z
1/2-x,1/2+y,1/2-z
1/2-x,1/2-y,-z
1/2+x,1/2+y,-z
1/2-x,1/2+y,1/2+z
1/2+x,1/2-y,1/2+z
loop_
_atom_site_type_symbol
_atom_site_label
_atom_site_fract_x
_atom_site_fract_y
_atom_site_fract_z
Si Si1 0.250000 0.250000 0.000000
Si Si2 0.393556 0.213963 0.693745
Si Si3 0.192967 0.580148 0.697072
Si Si4 0.898271 0.081400 0.202606
O O1 0.329937 0.242874 0.846476
O O2 0.500000 0.222807 0.750000
O O3 0.376822 0.242061 0.500000
O O4 0.368080 0.132106 0.692512
O O5 0.188767 0.500000 0.750000
O O6 0.163693 0.586835 0.500000
O O7 0.302065 0.604191 0.708512
O O8 0.000000 0.111814 0.250000
O O9 0.903896 0.000000 0.250000
O O10 0.884617 0.087171 0.000000
#
# Coordination Sequence:
#
# PCOD9495069 Si02
#       4
#     4  16  16  16
#     4  12  26  52  80 110 148 202 254 320 368 448
#     4  12  25  49  80 112 150 198 251 316 388 449
#     4  11  21  38  64 104 149 193 242 296 371 457
#     4  10  17  28  47  76 119 178 228 281 345 415
#
# _framework density 24.248664999999999
#
# number of rings (size 3 to 8) (size 9 to 14) (size 15 to 20)
#    0.000    0.923    3.077    8.769    0.000    0.615 
#    0.000    4.615    0.000    0.000    0.000    0.000 
#    0.000    0.000    0.000    0.000    0.000    0.000 
#
# Total GULP energy -145038.658474 kJ/mol
# GULP energy per Si atom -5578.409941 kJ/mol
# Density = 2.419347 g / cm^3
# Si number density = 24.248665 Si / 1000 Ang^3
#
#
#
# Elastic Constant Matrix: (Units=GPa)
#
#
# Indices 1 2 3 4 5 6 
#
# 1 171.6153 28.1407 53.9224 0.0000 0.0000 0.0000
# 2 28.1407 122.6510 20.4972 0.0000 0.0000 0.0000
# 3 53.9224 20.4972 236.6666 0.0000 0.0000 0.0000
# 4 0.0000 0.0000 0.0000 34.0734 0.0000 0.0000
# 5 0.0000 0.0000 0.0000 0.0000 34.0140 0.0000
# 6 0.0000 0.0000 0.0000 0.0000 0.0000 31.3494
#
#
#
# Elastic Compliance Matrix: (Units=1/GPa)
#
#
# Indices 1 2 3 4 5 6 
#
# 1 0.006461 -0.001255 -0.001363 0.000000 0.000000 0.000000
# 2 -0.001255 0.008517 -0.000452 0.000000 0.000000 0.000000
# 3 -0.001363 -0.000452 0.004575 0.000000 0.000000 0.000000
# 4 0.000000 0.000000 0.000000 0.029348 0.000000 0.000000
# 5 0.000000 0.000000 0.000000 0.000000 0.029400 0.000000
# 6 0.000000 0.000000 0.000000 0.000000 0.000000 0.031898
#
#
# Mechanical properties :
#
#
# Convention : Reuss Voigt Hill
#
# Bulk Modulus (GPa) = 74.55319 81.78373 78.16846
# Shear Modulus (GPa) = 41.38731 48.44554 44.91642
#
# Velocity S-wave (km/s) = 4.13581 4.47460 4.30853
# Velocity P-wave (km/s) = 7.32247 7.77794 7.55364
#
# Compressibility (1/GPa) = 0.01341324
#
# Stress axis : x y z
#
# Youngs Moduli (GPa) = 154.77220 117.41840 218.57303
#
# Poissons Ratio (x) = 0.14731 0.29801
# Poissons Ratio (y) = 0.19417 0.09874
# Poissons Ratio (z) = 0.21102 0.05304
#
# Static dielectric constant tensor:
#      x y z
#    x 1.906320 0.000000 0.000000 
#    y 0.000000 2.069850 0.000000 
#    z 0.000000 0.000000 1.884210 
# 
# From -- ./inp_files/4723.got.cif
#   From: 2010.05.17/outbox.cif.g08.bks.cpg/sg66_3_cif.got.tgz:4723.got - 2010.06.03 17:51:23.
