data_PCOD9495920
_publ_section_title
;
Structure prediction by ZEFSAII (Michael W. Deem and Ramdas Pophale) SiO2 
 PCOD9495920
Probable space group: C C C M
;
_chemical_formula_sum "Si O2"
_cell_formula_units_Z 112
_cell_length_a 22.339104
_cell_length_b 15.161342
_cell_length_c 14.232356
_cell_angle_alpha 90.000000
_cell_angle_beta 90.000000
_cell_angle_gamma 90.000000
_cell_volume 4820.367979
_symmetry_space_group_name_H-M "C C C M"
_symmetry_group_IT_number 66
_symmetry_cell_setting 'orthorhombic'
loop_
_space_group_symop_operation_xyz
x,y,z
-x,-y,z
x,-y,1/2-z
-x,y,1/2-z
-x,-y,-z
x,y,-z
-x,y,1/2+z
x,-y,1/2+z
1/2+x,1/2+y,z
1/2-x,1/2-y,z
1/2+x,1/2-y,1/2-z
1/2-x,1/2+y,1/2-z
1/2-x,1/2-y,-z
1/2+x,1/2+y,-z
1/2-x,1/2+y,1/2+z
1/2+x,1/2-y,1/2+z
loop_
_atom_site_type_symbol
_atom_site_label
_atom_site_fract_x
_atom_site_fract_y
_atom_site_fract_z
Si Si1 0.134079 0.469181 0.389829
Si Si2 0.758130 0.650172 0.614856
Si Si3 0.396750 0.350298 0.884634
Si Si4 0.981604 0.361955 0.853827
Si Si5 0.382083 0.840951 0.605724
Si Si6 0.142543 0.960699 0.114854
Si Si7 0.965409 0.835749 0.386203
O O1 0.148224 0.480735 0.500000
O O2 0.180852 0.397026 0.354767
O O3 0.066945 0.431518 0.386922
O O4 0.138134 0.567516 0.347657
O O5 0.758519 0.654240 0.500000
O O6 0.750000 0.750000 0.648497
O O7 0.702360 0.589542 0.642905
O O8 0.372846 0.255464 0.850173
O O9 0.362279 0.437856 0.854986
O O10 0.466752 0.358184 0.857409
O O11 0.396018 0.346779 0.000000
O O12 0.952689 0.264402 0.855513
O O13 0.000000 0.386912 0.750000
O O14 0.045663 0.351327 0.903107
O O15 0.356667 0.836341 0.500000
O O16 0.084313 0.905023 0.144895
O O17 0.141499 0.961493 0.000000
O O18 0.964516 0.835189 0.500000
#
# Coordination Sequence:
#
# PCOD9495920 Si02
#       7
#    16  16  16  16  16  16  16
#     4  10  19  32  49  70 100 134 163 197 247 297
#     4   9  17  28  44  71 103 130 161 201 239 283
#     4   8  14  25  43  70 100 128 161 199 238 282
#     4  11  21  31  47  73  99 126 161 204 250 297
#     4   9  18  32  49  69  95 127 161 199 245 297
#     4   9  15  25  46  75 103 130 164 204 241 284
#     4   9  16  28  48  74 104 134 161 197 248 297
#
# _framework density 23.234739999999999
#
# number of rings (size 3 to 8) (size 9 to 14) (size 15 to 20)
#    0.000    2.714    0.000    3.857    0.000    6.286 
#    0.000    0.714    0.000   11.143    0.000   20.000 
#    0.000    0.000    0.000    0.000    0.000    1.286 
#
# Total GULP energy -312892.820362 kJ/mol
# GULP energy per Si atom -5587.371792 kJ/mol
# Density = 2.318186 g / cm^3
# Si number density = 23.234740 Si / 1000 Ang^3
#
#
#
# Elastic Constant Matrix: (Units=GPa)
#
#
# Indices 1 2 3 4 5 6 
#
# 1 55.5669 70.1661 6.8833 0.0000 0.0000 0.0000
# 2 70.1661 230.1621 3.5314 0.0000 0.0000 0.0000
# 3 6.8833 3.5314 52.4959 0.0000 0.0000 0.0000
# 4 0.0000 0.0000 0.0000 6.5222 0.0000 0.0000
# 5 0.0000 0.0000 0.0000 0.0000 35.8269 0.0000
# 6 0.0000 0.0000 0.0000 0.0000 0.0000 32.1297
#
#
#
# Elastic Compliance Matrix: (Units=1/GPa)
#
#
# Indices 1 2 3 4 5 6 
#
# 1 0.029821 -0.009040 -0.003302 0.000000 0.000000 0.000000
# 2 -0.009040 0.007090 0.000708 0.000000 0.000000 0.000000
# 3 -0.003302 0.000708 0.019434 0.000000 0.000000 0.000000
# 4 0.000000 0.000000 0.000000 0.153323 0.000000 0.000000
# 5 0.000000 0.000000 0.000000 0.000000 0.027912 0.000000
# 6 0.000000 0.000000 0.000000 0.000000 0.000000 0.031124
#
#
# Mechanical properties :
#
#
# Convention : Reuss Voigt Hill
#
# Bulk Modulus (GPa) = 30.23215 55.48738 42.85976
# Shear Modulus (GPa) = 16.50175 32.07202 24.28688
#
# Velocity S-wave (km/s) = 2.66788 3.71933 3.23659
# Velocity P-wave (km/s) = 4.74658 6.50981 5.69683
#
# Compressibility (1/GPa) = 0.03307737
#
# Stress axis : x y z
#
# Youngs Moduli (GPa) = 33.53343 141.04546 51.45514
#
# Poissons Ratio (x) = 1.27511 0.16990
# Poissons Ratio (y) = 0.30316 -0.03645
# Poissons Ratio (z) = 0.11073 -0.09992
#
# Static dielectric constant tensor:
#      x y z
#    x 1.815810 0.000000 0.000000 
#    y 0.000000 1.876150 0.000000 
#    z 0.000000 0.000000 1.919310 
# 
# From -- ./inp_files/32477.got.cif
#   From: 2010.05.17/outbox.cif.g08.bks.cpg/sg66_17_cif.got.tgz:32477.got - 2010.06.03 17:51:23.
