data_PCOD9495716
_publ_section_title
;
Structure prediction by ZEFSAII (Michael W. Deem and Ramdas Pophale) SiO2 
 PCOD9495716
Probable space group: C C C M
;
_chemical_formula_sum "Si O2"
_cell_formula_units_Z 80
_cell_length_a 15.549395
_cell_length_b 11.807452
_cell_length_c 17.179240
_cell_angle_alpha 90.000000
_cell_angle_beta 90.000000
_cell_angle_gamma 90.000000
_cell_volume 3154.086734
_symmetry_space_group_name_H-M "C C C M"
_symmetry_group_IT_number 66
_symmetry_cell_setting 'orthorhombic'
loop_
_space_group_symop_operation_xyz
x,y,z
-x,-y,z
x,-y,1/2-z
-x,y,1/2-z
-x,-y,-z
x,y,-z
-x,y,1/2+z
x,-y,1/2+z
1/2+x,1/2+y,z
1/2-x,1/2-y,z
1/2+x,1/2-y,1/2-z
1/2-x,1/2+y,1/2-z
1/2-x,1/2-y,-z
1/2+x,1/2+y,-z
1/2-x,1/2+y,1/2+z
1/2+x,1/2-y,1/2+z
loop_
_atom_site_type_symbol
_atom_site_label
_atom_site_fract_x
_atom_site_fract_y
_atom_site_fract_z
Si Si1 0.592886 0.045865 0.500000
Si Si2 0.651833 0.703695 0.000000
Si Si3 0.648761 0.536848 0.854830
Si Si4 0.149270 0.543305 0.332575
Si Si5 0.355423 0.261856 0.243865
Si Si6 0.852698 0.219178 0.088002
O O1 0.598320 0.181388 0.500000
O O2 0.630380 0.001714 0.418866
O O3 0.500000 0.000000 0.500000
O O4 0.750000 0.750000 0.000000
O O5 0.639454 0.623283 0.073685
O O6 0.748577 0.528398 0.831504
O O7 0.613933 0.613158 0.782089
O O8 0.628845 0.413024 0.889720
O O9 0.114853 0.500000 0.250000
O O10 0.122116 0.674252 0.323837
O O11 0.250000 0.250000 0.247076
O O12 0.385312 0.226268 0.330489
O O13 0.750000 0.250000 0.085494
O O14 0.884971 0.241880 0.000000
#
# Coordination Sequence:
#
# PCOD9495716 Si02
#       6
#     8   8  16  16  16  16
#     4  12  26  42  60  86 124 176 238 294 335 412
#     4  12  18  36  61  86 113 167 232 275 335 430
#     4  11  17  31  56  80 120 171 217 265 340 433
#     4  11  21  36  58  86 120 170 221 278 347 417
#     4   9  17  30  47  74 115 160 211 262 328 421
#     4  10  19  27  39  76 128 169 195 254 336 421
#
# _framework density 25.363918000000002
#
# number of rings (size 3 to 8) (size 9 to 14) (size 15 to 20)
#    0.000    1.400    5.000    4.800    0.000    0.400 
#    1.800    0.000    0.000    0.000    0.000    0.000 
#    0.000   12.800    2.400    0.000    0.000    0.000 
#
# Total GULP energy -223023.782303 kJ/mol
# GULP energy per Si atom -5575.594558 kJ/mol
# Density = 2.530619 g / cm^3
# Si number density = 25.363918 Si / 1000 Ang^3
#
#
#
# Elastic Constant Matrix: (Units=GPa)
#
#
# Indices 1 2 3 4 5 6 
#
# 1 20.9111 0.7457 15.4178 0.0000 0.0000 0.0000
# 2 0.7457 94.3162 32.7093 0.0000 0.0000 0.0000
# 3 15.4178 32.7093 263.2223 0.0000 0.0000 0.0000
# 4 0.0000 0.0000 0.0000 50.4220 0.0000 0.0000
# 5 0.0000 0.0000 0.0000 0.0000 -86.1588 0.0000
# 6 0.0000 0.0000 0.0000 0.0000 0.0000 6.2045
#
#
#
# Elastic Compliance Matrix: (Units=1/GPa)
#
#
# Indices 1 2 3 4 5 6 
#
# 1 0.050018 0.000649 -0.003010 0.000000 0.000000 0.000000
# 2 0.000649 0.011089 -0.001416 0.000000 0.000000 0.000000
# 3 -0.003010 -0.001416 0.004151 0.000000 0.000000 0.000000
# 4 0.000000 0.000000 0.000000 0.019833 0.000000 0.000000
# 5 0.000000 0.000000 0.000000 0.000000 -0.011606 0.000000
# 6 0.000000 0.000000 0.000000 0.000000 0.000000 0.161173
#
#
# Mechanical properties :
#
#
# Convention : Reuss Voigt Hill
#
# Bulk Modulus (GPa) = 17.33029 52.91056 35.12043
# Shear Modulus (GPa) = 19.12440 16.06534 17.59487
#
# Velocity S-wave (km/s) = 2.74889 2.51946 2.63667
# Velocity P-wave (km/s) = 4.11371 5.41936 4.81103
#
# Compressibility (1/GPa) = 0.05770244
#
# Stress axis : x y z
#
# Youngs Moduli (GPa) = 19.99285 90.18316 240.88599
#
# Poissons Ratio (x) = -0.05849 0.72514
# Poissons Ratio (y) = -0.01297 0.34107
# Poissons Ratio (z) = 0.06018 0.12769
#
# Static dielectric constant tensor:
#      x y z
#    x 1.908400 0.000000 0.000000 
#    y 0.000000 2.135970 0.000000 
#    z 0.000000 0.000000 1.981960 
# 
# From -- ./inp_files/42712.got.cif
#   From: 2010.05.17/outbox.cif.g08.bks.cpg/sg66_22_cif.got.tgz:42712.got - 2010.06.03 17:51:23.
