data_PCOD9495278
_publ_section_title
;
Structure prediction by ZEFSAII (Michael W. Deem and Ramdas Pophale) SiO2 
 PCOD9495278
Probable space group: C C C M
;
_chemical_formula_sum "Si O2"
_cell_formula_units_Z 112
_cell_length_a 29.925555
_cell_length_b 14.677623
_cell_length_c 14.383728
_cell_angle_alpha 90.000000
_cell_angle_beta 90.000000
_cell_angle_gamma 90.000000
_cell_volume 6317.851358
_symmetry_space_group_name_H-M "C C C M"
_symmetry_group_IT_number 66
_symmetry_cell_setting 'orthorhombic'
loop_
_space_group_symop_operation_xyz
x,y,z
-x,-y,z
x,-y,1/2-z
-x,y,1/2-z
-x,-y,-z
x,y,-z
-x,y,1/2+z
x,-y,1/2+z
1/2+x,1/2+y,z
1/2-x,1/2-y,z
1/2+x,1/2-y,1/2-z
1/2-x,1/2+y,1/2-z
1/2-x,1/2-y,-z
1/2+x,1/2+y,-z
1/2-x,1/2+y,1/2+z
1/2+x,1/2-y,1/2+z
loop_
_atom_site_type_symbol
_atom_site_label
_atom_site_fract_x
_atom_site_fract_y
_atom_site_fract_z
Si Si1 0.703537 0.694437 0.600421
Si Si2 0.794070 0.187350 0.693034
Si Si3 0.337141 0.974614 0.642596
Si Si4 0.952323 0.652176 0.777329
Si Si5 0.736757 0.489054 0.398033
Si Si6 0.872061 0.277545 0.607066
Si Si7 0.434997 0.972971 0.103884
O O1 0.680708 0.714478 0.500000
O O2 0.750000 0.750000 0.597438
O O3 0.686784 0.714085 0.704568
O O4 0.712821 0.586242 0.603989
O O5 0.750000 0.250000 0.675122
O O6 0.776663 0.084232 0.679593
O O7 0.836411 0.198986 0.626025
O O8 0.289608 0.008216 0.608460
O O9 0.341864 0.866976 0.627071
O O10 0.340397 0.000000 0.750000
O O11 0.381886 0.011834 0.597226
O O12 0.914497 0.714665 0.824157
O O13 0.955513 0.565416 0.849379
O O14 0.938920 0.605879 0.679961
O O15 0.000000 0.694617 0.750000
O O16 0.728552 0.446633 0.500000
O O17 0.887094 0.279416 0.500000
O O18 0.452284 0.955809 0.000000
#
# Coordination Sequence:
#
# PCOD9495278 Si02
#       7
#    16  16  16  16  16  16  16
#     4   9  20  35  49  69 100 140 181 221 266 318
#     4  11  21  33  53  75 106 143 187 228 267 312
#     4  11  18  29  45  67 102 136 179 221 263 310
#     4  10  20  34  48  67  95 132 175 222 277 332
#     4  11  21  32  50  75 103 142 187 225 265 315
#     4  11  22  36  51  73 104 137 178 234 284 323
#     4  10  18  29  46  69  96 131 175 224 272 324
#
# _framework density 17.727546
#
# number of rings (size 3 to 8) (size 9 to 14) (size 15 to 20)
#    0.000    1.571    4.286    5.143    2.000    2.286 
#    0.000    0.714    0.000    0.000    0.000    0.000 
#    0.000    2.286    0.000    8.571    0.000    0.143 
#
# Total GULP energy -311889.276790 kJ/mol
# GULP energy per Si atom -5569.451371 kJ/mol
# Density = 1.768720 g / cm^3
# Si number density = 17.727546 Si / 1000 Ang^3
#
#
#
# Elastic Constant Matrix: (Units=GPa)
#
#
# Indices 1 2 3 4 5 6 
#
# 1 76.7047 6.4576 17.1644 0.0000 0.0000 0.0000
# 2 6.4576 35.4167 4.3990 0.0000 0.0000 0.0000
# 3 17.1644 4.3990 132.4573 0.0000 0.0000 0.0000
# 4 0.0000 0.0000 0.0000 23.4727 0.0000 0.0000
# 5 0.0000 0.0000 0.0000 0.0000 18.5038 0.0000
# 6 0.0000 0.0000 0.0000 0.0000 0.0000 10.9693
#
#
#
# Elastic Compliance Matrix: (Units=1/GPa)
#
#
# Indices 1 2 3 4 5 6 
#
# 1 0.013606 -0.002271 -0.001688 0.000000 0.000000 0.000000
# 2 -0.002271 0.028731 -0.000660 0.000000 0.000000 0.000000
# 3 -0.001688 -0.000660 0.007790 0.000000 0.000000 0.000000
# 4 0.000000 0.000000 0.000000 0.042603 0.000000 0.000000
# 5 0.000000 0.000000 0.000000 0.000000 0.054043 0.000000
# 6 0.000000 0.000000 0.000000 0.000000 0.000000 0.091163
#
#
# Mechanical properties :
#
#
# Convention : Reuss Voigt Hill
#
# Bulk Modulus (GPa) = 24.45586 33.40230 28.92908
# Shear Modulus (GPa) = 19.17150 25.02636 22.09893
#
# Velocity S-wave (km/s) = 3.29211 3.76136 3.53453
# Velocity P-wave (km/s) = 5.31752 6.14384 5.74555
#
# Compressibility (1/GPa) = 0.04089000
#
# Stress axis : x y z
#
# Youngs Moduli (GPa) = 73.49772 34.80518 128.36618
#
# Poissons Ratio (x) = 0.07905 0.21664
# Poissons Ratio (y) = 0.16692 0.08471
# Poissons Ratio (z) = 0.12404 0.02297
#
# Static dielectric constant tensor:
#      x y z
#    x 1.622230 0.000000 0.000000 
#    y 0.000000 1.656990 0.000000 
#    z 0.000000 0.000000 1.691380 
# 
# From -- ./inp_files/33949.got.cif
#   From: 2010.05.17/outbox.cif.g08.bks.cpg/sg66_17_cif.got.tgz:33949.got - 2010.06.03 17:51:23.
