data_PCOD9495408
_publ_section_title
;
Structure prediction by ZEFSAII (Michael W. Deem and Ramdas Pophale) SiO2 
 PCOD9495408
Probable space group: C C C M
;
_chemical_formula_sum "Si O2"
_cell_formula_units_Z 64
_cell_length_a 20.673543
_cell_length_b 17.199589
_cell_length_c 8.696488
_cell_angle_alpha 90.000000
_cell_angle_beta 90.000000
_cell_angle_gamma 90.000000
_cell_volume 3092.266268
_symmetry_space_group_name_H-M "C C C M"
_symmetry_group_IT_number 66
_symmetry_cell_setting 'orthorhombic'
loop_
_space_group_symop_operation_xyz
x,y,z
-x,-y,z
x,-y,1/2-z
-x,y,1/2-z
-x,-y,-z
x,y,-z
-x,y,1/2+z
x,-y,1/2+z
1/2+x,1/2+y,z
1/2-x,1/2-y,z
1/2+x,1/2-y,1/2-z
1/2-x,1/2+y,1/2-z
1/2-x,1/2-y,-z
1/2+x,1/2+y,-z
1/2-x,1/2+y,1/2+z
1/2+x,1/2-y,1/2+z
loop_
_atom_site_type_symbol
_atom_site_label
_atom_site_fract_x
_atom_site_fract_y
_atom_site_fract_z
Si Si1 0.700277 0.119128 0.675979
Si Si2 0.932678 0.387097 0.820491
Si Si3 0.615151 0.260101 0.322258
Si Si4 0.336203 0.416668 0.681539
O O1 0.714750 0.097401 0.500000
O O2 0.631478 0.084854 0.731303
O O3 0.682625 0.211058 0.681400
O O4 0.760145 0.096466 0.780536
O O5 0.928220 0.293748 0.787637
O O6 0.000000 0.414175 0.750000
O O7 0.928631 0.403526 0.000000
O O8 0.592941 0.257032 0.500000
O O9 0.626467 0.346247 0.263895
O O10 0.354768 0.500000 0.750000
O O11 0.346424 0.414103 0.500000
#
# Coordination Sequence:
#
# PCOD9495408 Si02
#       4
#    16  16  16  16
#     4   9  19  34  53  76 104 134 169 213 256 300
#     4  10  18  31  52  79 104 132 170 212 256 298
#     4   9  19  34  53  76 104 134 169 213 256 300
#     4  12  23  34  51  75 106 140 172 209 255 308
#
# _framework density 20.696793
#
# number of rings (size 3 to 8) (size 9 to 14) (size 15 to 20)
#    1.500    0.500    0.000    6.000    0.000    3.000 
#    0.000    0.000    0.000    1.500    0.000   10.500 
#    0.000    0.000    0.000    0.000    0.000    0.000 
#
# Total GULP energy -178456.158692 kJ/mol
# GULP energy per Si atom -5576.754959 kJ/mol
# Density = 2.064969 g / cm^3
# Si number density = 20.696793 Si / 1000 Ang^3
#
#
#
# Elastic Constant Matrix: (Units=GPa)
#
#
# Indices 1 2 3 4 5 6 
#
# 1 27.1169 -9.8818 -17.9732 0.0000 0.0000 0.0000
# 2 -9.8818 126.2342 12.8339 0.0000 0.0000 0.0000
# 3 -17.9732 12.8339 103.4452 0.0000 0.0000 0.0000
# 4 0.0000 0.0000 0.0000 32.7385 0.0000 0.0000
# 5 0.0000 0.0000 0.0000 0.0000 26.9749 0.0000
# 6 0.0000 0.0000 0.0000 0.0000 0.0000 153.2397
#
#
#
# Elastic Compliance Matrix: (Units=1/GPa)
#
#
# Indices 1 2 3 4 5 6 
#
# 1 0.042509 0.002610 0.007062 0.000000 0.000000 0.000000
# 2 0.002610 0.008183 -0.000562 0.000000 0.000000 0.000000
# 3 0.007062 -0.000562 0.010964 0.000000 0.000000 0.000000
# 4 0.000000 0.000000 0.000000 0.030545 0.000000 0.000000
# 5 0.000000 0.000000 0.000000 0.000000 0.037071 0.000000
# 6 0.000000 0.000000 0.000000 0.000000 0.000000 0.006526
#
#
# Mechanical properties :
#
#
# Convention : Reuss Voigt Hill
#
# Bulk Modulus (GPa) = 12.51944 25.19489 18.85716
# Shear Modulus (GPa) = 34.67319 60.71178 47.69249
#
# Velocity S-wave (km/s) = 4.09747 5.42195 4.80556
# Velocity P-wave (km/s) = 5.33365 7.16914 6.31840
#
# Compressibility (1/GPa) = 0.07987579
#
# Stress axis : x y z
#
# Youngs Moduli (GPa) = 23.52438 122.20164 91.21042
#
# Poissons Ratio (x) = -0.31891 -0.64413
# Poissons Ratio (y) = -0.06139 0.05124
# Poissons Ratio (z) = -0.16613 0.06866
#
# Static dielectric constant tensor:
#      x y z
#    x 1.742230 0.000000 0.000000 
#    y 0.000000 1.801770 0.000000 
#    z 0.000000 0.000000 1.677560 
# 
# From -- ./inp_files/6396.got.cif
#   From: 2010.05.17/outbox.cif.g08.bks.cpg/sg66_4_cif.got.tgz:6396.got - 2010.06.03 17:51:23.
