data_PCOD9495063
_publ_section_title
;
Structure prediction by ZEFSAII (Michael W. Deem and Ramdas Pophale) SiO2 
 PCOD9495063
Probable space group: C C C M
;
_chemical_formula_sum "Si O2"
_cell_formula_units_Z 88
_cell_length_a 9.960610
_cell_length_b 17.093899
_cell_length_c 20.238682
_cell_angle_alpha 90.000000
_cell_angle_beta 90.000000
_cell_angle_gamma 90.000000
_cell_volume 3445.952575
_symmetry_space_group_name_H-M "C C C M"
_symmetry_group_IT_number 66
_symmetry_cell_setting 'orthorhombic'
loop_
_space_group_symop_operation_xyz
x,y,z
-x,-y,z
x,-y,1/2-z
-x,y,1/2-z
-x,-y,-z
x,y,-z
-x,y,1/2+z
x,-y,1/2+z
1/2+x,1/2+y,z
1/2-x,1/2-y,z
1/2+x,1/2-y,1/2-z
1/2-x,1/2+y,1/2-z
1/2-x,1/2-y,-z
1/2+x,1/2+y,-z
1/2-x,1/2+y,1/2+z
1/2+x,1/2-y,1/2+z
loop_
_atom_site_type_symbol
_atom_site_label
_atom_site_fract_x
_atom_site_fract_y
_atom_site_fract_z
Si Si1 0.767995 0.101202 0.574785
Si Si2 0.294184 0.072207 0.429009
Si Si3 0.480902 0.194691 0.893937
Si Si4 0.000000 0.370454 0.750000
Si Si5 0.805709 0.915616 0.225171
Si Si6 0.636741 0.682036 0.343565
O O1 0.828063 0.101648 0.500000
O O2 0.665282 0.173193 0.581552
O O3 0.836563 0.095735 0.647301
O O4 0.680088 0.019747 0.577603
O O5 0.229228 0.084011 0.500000
O O6 0.420669 0.130098 0.425288
O O7 0.193863 0.102208 0.374146
O O8 0.499802 0.180396 0.815686
O O9 0.526560 0.284106 0.895016
O O10 0.856689 0.413436 0.740576
O O11 0.866409 0.843609 0.267105
O O12 0.852410 0.000000 0.250000
O O13 0.750000 0.750000 0.348836
#
# Coordination Sequence:
#
# PCOD9495063 Si02
#       6
#    16  16  16   8  16  16
#     4  10  20  31  48  76 109 147 197 243 287 349
#     4  10  18  29  45  70 109 149 188 231 283 354
#     4  10  19  29  45  69 105 145 188 229 294 335
#     4  10  17  28  46  72  97 134 180 226 271 334
#     4  11  18  31  51  73 105 143 192 239 284 345
#     4  10  19  32  45  74 107 147 194 234 296 341
#
# _framework density 25.537206999999999
#
# number of rings (size 3 to 8) (size 9 to 14) (size 15 to 20)
#    0.000    1.818    5.455    1.364    0.000    8.364 
#    0.000    0.000    0.000    0.545    0.000    0.636 
#    0.000    0.000    0.000    5.636    0.727    0.000 
#
# Total GULP energy -245409.593840 kJ/mol
# GULP energy per Si atom -5577.490769 kJ/mol
# Density = 2.547908 g / cm^3
# Si number density = 25.537207 Si / 1000 Ang^3
#
#
#
# Elastic Constant Matrix: (Units=GPa)
#
#
# Indices 1 2 3 4 5 6 
#
# 1 55.6836 35.3188 -0.6717 0.0000 0.0000 0.0000
# 2 35.3188 111.8036 18.4761 0.0000 0.0000 0.0000
# 3 -0.6717 18.4761 179.1372 0.0000 0.0000 0.0000
# 4 0.0000 0.0000 0.0000 69.9327 0.0000 0.0000
# 5 0.0000 0.0000 0.0000 0.0000 17.8645 0.0000
# 6 0.0000 0.0000 0.0000 0.0000 0.0000 10.2196
#
#
#
# Elastic Compliance Matrix: (Units=1/GPa)
#
#
# Indices 1 2 3 4 5 6 
#
# 1 0.022581 -0.007271 0.000835 0.000000 0.000000 0.000000
# 2 -0.007271 0.011441 -0.001207 0.000000 0.000000 0.000000
# 3 0.000835 -0.001207 0.005710 0.000000 0.000000 0.000000
# 4 0.000000 0.000000 0.000000 0.014299 0.000000 0.000000
# 5 0.000000 0.000000 0.000000 0.000000 0.055977 0.000000
# 6 0.000000 0.000000 0.000000 0.000000 0.000000 0.097851
#
#
# Mechanical properties :
#
#
# Convention : Reuss Voigt Hill
#
# Bulk Modulus (GPa) = 40.91030 50.31895 45.61463
# Shear Modulus (GPa) = 21.61746 39.17010 30.39378
#
# Velocity S-wave (km/s) = 2.91264 3.92068 3.45364
# Velocity P-wave (km/s) = 5.23125 6.34371 5.81414
#
# Compressibility (1/GPa) = 0.02444372
#
# Stress axis : x y z
#
# Youngs Moduli (GPa) = 44.28577 87.40707 175.13260
#
# Poissons Ratio (x) = 0.63555 -0.14617
# Poissons Ratio (y) = 0.32201 0.21143
# Poissons Ratio (z) = -0.03696 0.10552
#
# Static dielectric constant tensor:
#      x y z
#    x 2.157230 0.000000 0.000000 
#    y 0.000000 2.045130 0.000000 
#    z 0.000000 0.000000 2.459430 
# 
# From -- ./inp_files/48541.got.cif
#   From: 2010.05.17/outbox.cif.g08.bks.cpg/sg66_25_cif.got.tgz:48541.got - 2010.06.03 17:51:23.
