data_PCOD9495842
_publ_section_title
;
Structure prediction by ZEFSAII (Michael W. Deem and Ramdas Pophale) SiO2 
 PCOD9495842
Probable space group: C C C M
;
_chemical_formula_sum "Si O2"
_cell_formula_units_Z 96
_cell_length_a 17.441361
_cell_length_b 22.041057
_cell_length_c 15.167131
_cell_angle_alpha 90.000000
_cell_angle_beta 90.000000
_cell_angle_gamma 90.000000
_cell_volume 5830.639987
_symmetry_space_group_name_H-M "C C C M"
_symmetry_group_IT_number 66
_symmetry_cell_setting 'orthorhombic'
loop_
_space_group_symop_operation_xyz
x,y,z
-x,-y,z
x,-y,1/2-z
-x,y,1/2-z
-x,-y,-z
x,y,-z
-x,y,1/2+z
x,-y,1/2+z
1/2+x,1/2+y,z
1/2-x,1/2-y,z
1/2+x,1/2-y,1/2-z
1/2-x,1/2+y,1/2-z
1/2-x,1/2-y,-z
1/2+x,1/2+y,-z
1/2-x,1/2+y,1/2+z
1/2+x,1/2-y,1/2+z
loop_
_atom_site_type_symbol
_atom_site_label
_atom_site_fract_x
_atom_site_fract_y
_atom_site_fract_z
Si Si1 0.346040 0.036815 0.342633
Si Si2 0.503009 0.890482 0.643611
Si Si3 0.990315 0.250257 0.396649
Si Si4 0.330406 0.086093 0.905554
Si Si5 0.771924 0.651420 0.264964
Si Si6 0.123427 0.230905 0.734718
O O1 0.425827 0.065565 0.376087
O O2 0.291288 0.094177 0.326369
O O3 0.360266 0.000000 0.250000
O O4 0.308681 0.984458 0.400510
O O5 0.500000 0.885294 0.750000
O O6 0.507615 0.822518 0.606695
O O7 0.421817 0.914938 0.610935
O O8 0.981184 0.232903 0.500000
O O9 0.061492 0.221549 0.342760
O O10 0.918713 0.237627 0.330093
O O11 0.290995 0.125541 0.831297
O O12 0.314490 0.113276 0.000000
O O13 0.831857 0.705810 0.282308
O O14 0.687479 0.678930 0.267596
#
# Coordination Sequence:
#
# PCOD9495842 Si02
#       6
#    16  16  16  16  16  16
#     4  10  19  31  49  69 100 143 174 205 246 299
#     4  12  17  31  49  71 106 145 178 204 238 298
#     4  11  20  34  54  77 103 135 177 216 252 303
#     4  11  22  31  47  78 106 135 177 215 249 302
#     4  10  19  35  53  69 103 141 175 207 260 307
#     4  10  20  36  54  74 101 141 176 215 260 305
#
# _framework density 16.464745000000001
#
# number of rings (size 3 to 8) (size 9 to 14) (size 15 to 20)
#    0.000    1.333    8.333    1.000    0.000    2.667 
#    0.000    4.167    0.000    0.000    0.000   21.000 
#    0.000   17.333    0.000    0.000    0.000    0.000 
#
# Total GULP energy -267553.558163 kJ/mol
# GULP energy per Si atom -5574.032462 kJ/mol
# Density = 1.642727 g / cm^3
# Si number density = 16.464745 Si / 1000 Ang^3
#
#
#
# Elastic Constant Matrix: (Units=GPa)
#
#
# Indices 1 2 3 4 5 6 
#
# 1 83.9942 42.8789 10.0775 0.0000 0.0000 0.0000
# 2 42.8789 78.2033 2.2274 0.0000 0.0000 0.0000
# 3 10.0775 2.2274 61.8873 0.0000 0.0000 0.0000
# 4 0.0000 0.0000 0.0000 -0.1603 0.0000 0.0000
# 5 0.0000 0.0000 0.0000 0.0000 -2.5848 0.0000
# 6 0.0000 0.0000 0.0000 0.0000 0.0000 28.8444
#
#
#
# Elastic Compliance Matrix: (Units=1/GPa)
#
#
# Indices 1 2 3 4 5 6 
#
# 1 0.016888 -0.009191 -0.002419 0.000000 0.000000 0.000000
# 2 -0.009191 0.017802 0.000856 0.000000 0.000000 0.000000
# 3 -0.002419 0.000856 0.016522 0.000000 0.000000 0.000000
# 4 0.000000 0.000000 0.000000 -6.238938 0.000000 0.000000
# 5 0.000000 0.000000 0.000000 0.000000 -0.386872 0.000000
# 6 0.000000 0.000000 0.000000 0.000000 0.000000 0.034669
#
#
# Mechanical properties :
#
#
# Convention : Reuss Voigt Hill
#
# Bulk Modulus (GPa) = 33.66618 37.16137 35.41378
# Shear Modulus (GPa) = -0.76822 16.47993 7.85585
#
# Velocity S-wave (km/s) = -0.68381 3.16717 2.18670
# Velocity P-wave (km/s) = 4.45739 5.99949 5.28499
#
# Compressibility (1/GPa) = 0.02970340
#
# Stress axis : x y z
#
# Youngs Moduli (GPa) = 59.21504 56.17340 60.52708
#
# Poissons Ratio (x) = 0.51627 0.14642
# Poissons Ratio (y) = 0.54422 -0.05180
# Poissons Ratio (z) = 0.14325 -0.04807
#
# Static dielectric constant tensor:
#      x y z
#    x 1.547100 0.000000 0.000000 
#    y 0.000000 1.572420 0.000000 
#    z 0.000000 0.000000 1.606960 
# 
# From -- ./inp_files/41920.got.cif
#   From: 2010.05.17/outbox.cif.g08.bks.cpg/sg66_21_cif.got.tgz:41920.got - 2010.06.03 17:51:23.
