data_PCOD9495811
_publ_section_title
;
Structure prediction by ZEFSAII (Michael W. Deem and Ramdas Pophale) SiO2 
 PCOD9495811
Probable space group: C C C M
;
_chemical_formula_sum "Si O2"
_cell_formula_units_Z 96
_cell_length_a 16.438068
_cell_length_b 15.237909
_cell_length_c 15.338451
_cell_angle_alpha 90.000000
_cell_angle_beta 90.000000
_cell_angle_gamma 90.000000
_cell_volume 3842.002575
_symmetry_space_group_name_H-M "C C C M"
_symmetry_group_IT_number 66
_symmetry_cell_setting 'orthorhombic'
loop_
_space_group_symop_operation_xyz
x,y,z
-x,-y,z
x,-y,1/2-z
-x,y,1/2-z
-x,-y,-z
x,y,-z
-x,y,1/2+z
x,-y,1/2+z
1/2+x,1/2+y,z
1/2-x,1/2-y,z
1/2+x,1/2-y,1/2-z
1/2-x,1/2+y,1/2-z
1/2-x,1/2-y,-z
1/2+x,1/2+y,-z
1/2-x,1/2+y,1/2+z
1/2+x,1/2-y,1/2+z
loop_
_atom_site_type_symbol
_atom_site_label
_atom_site_fract_x
_atom_site_fract_y
_atom_site_fract_z
Si Si1 0.668694 0.387774 0.898744
Si Si2 0.866236 0.521195 0.000000
Si Si3 0.781878 0.399225 0.255645
Si Si4 0.178655 0.322251 0.904998
Si Si5 0.026892 0.635916 0.000000
Si Si6 0.987517 0.221247 0.148876
Si Si7 0.636774 0.590390 0.896922
O O1 0.747812 0.376704 0.839054
O O2 0.598608 0.323618 0.868248
O O3 0.629320 0.485465 0.888852
O O4 0.687920 0.376031 0.000000
O O5 0.818746 0.570293 0.921889
O O6 0.953926 0.566717 0.000000
O O7 0.888417 0.419543 0.000000
O O8 0.809834 0.500000 0.250000
O O9 0.843575 0.331535 0.303087
O O10 0.701404 0.390631 0.318970
O O11 0.250000 0.250000 0.904876
O O12 0.140640 0.298157 0.000000
O O13 0.014736 0.694227 0.913605
O O14 0.000000 0.238641 0.250000
O O15 0.058952 0.152403 0.119594
O O16 0.660207 0.604261 0.000000
#
# Coordination Sequence:
#
# PCOD9495811 Si02
#       7
#    16   8  16  16   8  16  16
#     4  10  20  34  50  87 141 182 210 262 333 407
#     4   9  23  46  68  93 126 158 213 291 351 403
#     4  10  20  34  57  93 129 167 204 258 332 403
#     4   9  20  39  71  99 122 155 219 292 340 384
#     4  11  24  44  67  93 127 167 213 275 360 412
#     4  12  22  33  58  93 128 178 227 263 330 409
#     4  10  19  30  54  87 131 172 210 267 325 404
#
# _framework density 24.986968000000001
#
# number of rings (size 3 to 8) (size 9 to 14) (size 15 to 20)
#    0.500    1.333    3.333    1.000    2.333    2.667 
#    0.000    5.000    0.000    0.500    0.000    0.000 
#    0.000    0.000    0.000    0.000    0.000    0.000 
#
# Total GULP energy -267220.838369 kJ/mol
# GULP energy per Si atom -5567.100799 kJ/mol
# Density = 2.493010 g / cm^3
# Si number density = 24.986968 Si / 1000 Ang^3
#
#
#
# Elastic Constant Matrix: (Units=GPa)
#
#
# Indices 1 2 3 4 5 6 
#
# 1 69.2651 32.8653 45.1009 0.0000 0.0000 0.0000
# 2 32.8653 112.5703 81.3059 0.0000 0.0000 0.0000
# 3 45.1009 81.3059 213.8643 0.0000 0.0000 0.0000
# 4 0.0000 0.0000 0.0000 35.0093 0.0000 0.0000
# 5 0.0000 0.0000 0.0000 0.0000 13.7584 0.0000
# 6 0.0000 0.0000 0.0000 0.0000 0.0000 34.9534
#
#
#
# Elastic Compliance Matrix: (Units=1/GPa)
#
#
# Indices 1 2 3 4 5 6 
#
# 1 0.017628 -0.003393 -0.002427 0.000000 0.000000 0.000000
# 2 -0.003393 0.012899 -0.004188 0.000000 0.000000 0.000000
# 3 -0.002427 -0.004188 0.006780 0.000000 0.000000 0.000000
# 4 0.000000 0.000000 0.000000 0.028564 0.000000 0.000000
# 5 0.000000 0.000000 0.000000 0.000000 0.072683 0.000000
# 6 0.000000 0.000000 0.000000 0.000000 0.000000 0.028610
#
#
# Mechanical properties :
#
#
# Convention : Reuss Voigt Hill
#
# Bulk Modulus (GPa) = 57.84012 79.36042 68.60027
# Shear Modulus (GPa) = 25.91420 32.50605 29.21012
#
# Velocity S-wave (km/s) = 3.22391 3.61074 3.42279
# Velocity P-wave (km/s) = 6.08740 7.01519 6.56770
#
# Compressibility (1/GPa) = 0.01728904
#
# Stress axis : x y z
#
# Youngs Moduli (GPa) = 56.72813 77.52467 147.49104
#
# Poissons Ratio (x) = 0.26306 0.35803
# Poissons Ratio (y) = 0.19249 0.61774
# Poissons Ratio (z) = 0.13770 0.32470
#
# Static dielectric constant tensor:
#      x y z
#    x 2.212230 0.000000 0.000000 
#    y 0.000000 2.087640 0.000000 
#    z 0.000000 0.000000 2.031760 
# 
# From -- ./inp_files/31238.got.cif
#   From: 2010.05.17/outbox.cif.g08.bks.cpg/sg66_16_cif.got.tgz:31238.got - 2010.06.03 17:51:23.
