data_PCOD9495007
_publ_section_title
;
Structure prediction by ZEFSAII (Michael W. Deem and Ramdas Pophale) SiO2 
 PCOD9495007
Probable space group: C C C M
;
_chemical_formula_sum "Si O2"
_cell_formula_units_Z 80
_cell_length_a 30.092786
_cell_length_b 23.508989
_cell_length_c 8.607789
_cell_angle_alpha 90.000000
_cell_angle_beta 90.000000
_cell_angle_gamma 90.000000
_cell_volume 6089.588721
_symmetry_space_group_name_H-M "C C C M"
_symmetry_group_IT_number 66
_symmetry_cell_setting 'orthorhombic'
loop_
_space_group_symop_operation_xyz
x,y,z
-x,-y,z
x,-y,1/2-z
-x,y,1/2-z
-x,-y,-z
x,y,-z
-x,y,1/2+z
x,-y,1/2+z
1/2+x,1/2+y,z
1/2-x,1/2-y,z
1/2+x,1/2-y,1/2-z
1/2-x,1/2+y,1/2-z
1/2-x,1/2-y,-z
1/2+x,1/2+y,-z
1/2-x,1/2+y,1/2+z
1/2+x,1/2-y,1/2+z
loop_
_atom_site_type_symbol
_atom_site_label
_atom_site_fract_x
_atom_site_fract_y
_atom_site_fract_z
Si Si1 0.316522 0.734490 0.314351
Si Si2 0.548237 0.436879 0.185937
Si Si3 0.719451 0.436364 0.686053
Si Si4 0.269010 0.834818 0.185728
Si Si5 0.134901 0.133557 0.313169
O O1 0.313982 0.734404 0.500000
O O2 0.310257 0.798272 0.250557
O O3 0.274378 0.699748 0.245480
O O4 0.357432 0.696446 0.255873
O O5 0.558111 0.500000 0.250000
O O6 0.500000 0.419923 0.250000
O O7 0.587803 0.394203 0.228579
O O8 0.545989 0.440258 0.000000
O O9 0.722087 0.500000 0.750000
O O10 0.718846 0.435649 0.500000
O O11 0.760037 0.397460 0.748122
O O12 0.674108 0.406953 0.748105
O O13 0.269496 0.835157 0.000000
O O14 0.139123 0.135750 0.500000
#
# Coordination Sequence:
#
# PCOD9495007 Si02
#       5
#    16  16  16  16  16
#     4  10  17  26  40  57  74  95 121 153 188 225
#     4  10  20  31  44  57  74  97 125 158 196 237
#     4  11  20  29  40  56  76 100 128 159 192 228
#     4  10  17  27  40  54  74  98 122 153 187 223
#     4  10  19  30  42  58  75  96 125 160 196 231
#
# _framework density 13.137176999999999
#
# number of rings (size 3 to 8) (size 9 to 14) (size 15 to 20)
#    0.000    1.800    0.000   11.400    0.000    4.800 
#    0.000    0.000    0.000    0.000    0.000    0.000 
#    0.000    0.000    0.000    0.000    0.000    1.000 
#
# Total GULP energy -223016.823829 kJ/mol
# GULP energy per Si atom -5575.420596 kJ/mol
# Density = 1.310728 g / cm^3
# Si number density = 13.137177 Si / 1000 Ang^3
#
#
#
# Elastic Constant Matrix: (Units=GPa)
#
#
# Indices 1 2 3 4 5 6 
#
# 1 67.9794 54.5668 35.2092 0.0000 0.0000 0.0000
# 2 54.5668 88.2368 41.5365 0.0000 0.0000 0.0000
# 3 35.2092 41.5365 108.8170 0.0000 0.0000 0.0000
# 4 0.0000 0.0000 0.0000 23.3557 0.0000 0.0000
# 5 0.0000 0.0000 0.0000 0.0000 -0.6485 0.0000
# 6 0.0000 0.0000 0.0000 0.0000 0.0000 23.5350
#
#
#
# Elastic Compliance Matrix: (Units=1/GPa)
#
#
# Indices 1 2 3 4 5 6 
#
# 1 0.030103 -0.017105 -0.003211 0.000000 0.000000 0.000000
# 2 -0.017105 0.023534 -0.003449 0.000000 0.000000 0.000000
# 3 -0.003211 -0.003449 0.011545 0.000000 0.000000 0.000000
# 4 0.000000 0.000000 0.000000 0.042816 0.000000 0.000000
# 5 0.000000 0.000000 0.000000 0.000000 -1.542020 0.000000
# 6 0.000000 0.000000 0.000000 0.000000 0.000000 0.042490
#
#
# Mechanical properties :
#
#
# Convention : Reuss Voigt Hill
#
# Bulk Modulus (GPa) = 56.64640 58.62868 57.63754
# Shear Modulus (GPa) = -3.73660 18.16315 7.21328
#
# Velocity S-wave (km/s) = -1.68833 3.72233 2.34577
# Velocity P-wave (km/s) = 6.27791 7.94980 7.16280
#
# Compressibility (1/GPa) = 0.01765337
#
# Stress axis : x y z
#
# Youngs Moduli (GPa) = 33.21875 42.49095 86.61541
#
# Poissons Ratio (x) = 0.72679 0.27815
# Poissons Ratio (y) = 0.56820 0.29873
# Poissons Ratio (z) = 0.10668 0.14655
#
# Static dielectric constant tensor:
#      x y z
#    x 1.426880 0.000000 0.000000 
#    y 0.000000 1.459380 0.000000 
#    z 0.000000 0.000000 1.436990 
# 
# From -- ./inp_files/11459.got.cif
#   From: 2010.05.17/outbox.cif.g08.bks.cpg/sg66_6_cif.got.tgz:11459.got - 2010.06.03 17:51:23.
