data_PCOD9495512
_publ_section_title
;
Structure prediction by ZEFSAII (Michael W. Deem and Ramdas Pophale) SiO2 
 PCOD9495512
Probable space group: C C C M
;
_chemical_formula_sum "Si O2"
_cell_formula_units_Z 96
_cell_length_a 22.624349
_cell_length_b 14.705323
_cell_length_c 15.004450
_cell_angle_alpha 90.000000
_cell_angle_beta 90.000000
_cell_angle_gamma 90.000000
_cell_volume 4991.955903
_symmetry_space_group_name_H-M "C C C M"
_symmetry_group_IT_number 66
_symmetry_cell_setting 'orthorhombic'
loop_
_space_group_symop_operation_xyz
x,y,z
-x,-y,z
x,-y,1/2-z
-x,y,1/2-z
-x,-y,-z
x,y,-z
-x,y,1/2+z
x,-y,1/2+z
1/2+x,1/2+y,z
1/2-x,1/2-y,z
1/2+x,1/2-y,1/2-z
1/2-x,1/2+y,1/2-z
1/2-x,1/2-y,-z
1/2+x,1/2+y,-z
1/2-x,1/2+y,1/2+z
1/2+x,1/2-y,1/2+z
loop_
_atom_site_type_symbol
_atom_site_label
_atom_site_fract_x
_atom_site_fract_y
_atom_site_fract_z
Si Si1 0.865533 0.625923 0.900450
Si Si2 0.379951 0.058145 0.660690
Si Si3 0.000973 0.859246 0.605686
Si Si4 0.097725 0.899923 0.245891
Si Si5 0.182488 0.272903 0.734562
Si Si6 0.499890 0.143930 0.103921
O O1 0.855654 0.517777 0.906246
O O2 0.824908 0.680167 0.832062
O O3 0.932963 0.632740 0.863365
O O4 0.864296 0.665720 0.000000
O O5 0.343807 0.151213 0.667883
O O6 0.448061 0.085956 0.646553
O O7 0.373198 0.000000 0.750000
O O8 0.004853 0.882800 0.500000
O O9 0.948184 0.903738 0.662665
O O10 0.988151 0.751191 0.611453
O O11 0.059540 0.879422 0.664274
O O12 0.143016 0.817807 0.232821
O O13 0.125796 0.000000 0.250000
O O14 0.250000 0.250000 0.716348
O O15 0.499099 0.118323 0.000000
#
# Coordination Sequence:
#
# PCOD9495512 Si02
#       6
#    16  16  16  16  16  16
#     4  10  21  37  60  91 118 146 185 234 297 360
#     4  10  21  34  57  86 118 151 183 232 290 359
#     4  10  20  37  62  90 120 153 189 237 301 359
#     4  11  23  38  61  88 118 156 198 244 294 349
#     4  11  24  41  58  79 114 157 205 245 285 332
#     4  10  18  32  58  89 122 150 177 226 295 364
#
# _framework density 19.230937999999998
#
# number of rings (size 3 to 8) (size 9 to 14) (size 15 to 20)
#    0.000    1.667    3.333    2.000    0.000    9.667 
#    0.000    0.000    0.000    6.500    0.000    0.000 
#    0.000    0.000    0.000    0.000    0.000    0.000 
#
# Total GULP energy -267771.425343 kJ/mol
# GULP energy per Si atom -5578.571361 kJ/mol
# Density = 1.918717 g / cm^3
# Si number density = 19.230938 Si / 1000 Ang^3
#
#
#
# Elastic Constant Matrix: (Units=GPa)
#
#
# Indices 1 2 3 4 5 6 
#
# 1 79.4458 30.1053 5.8019 0.0000 0.0000 0.0000
# 2 30.1053 120.4886 -3.1840 0.0000 0.0000 0.0000
# 3 5.8019 -3.1840 70.2317 0.0000 0.0000 0.0000
# 4 0.0000 0.0000 0.0000 1.5016 0.0000 0.0000
# 5 0.0000 0.0000 0.0000 0.0000 161.4528 0.0000
# 6 0.0000 0.0000 0.0000 0.0000 0.0000 9.4724
#
#
#
# Elastic Compliance Matrix: (Units=1/GPa)
#
#
# Indices 1 2 3 4 5 6 
#
# 1 0.014025 -0.003539 -0.001319 0.000000 0.000000 0.000000
# 2 -0.003539 0.009203 0.000710 0.000000 0.000000 0.000000
# 3 -0.001319 0.000710 0.014380 0.000000 0.000000 0.000000
# 4 0.000000 0.000000 0.000000 0.665968 0.000000 0.000000
# 5 0.000000 0.000000 0.000000 0.000000 0.006194 0.000000
# 6 0.000000 0.000000 0.000000 0.000000 0.000000 0.105570
#
#
# Mechanical properties :
#
#
# Convention : Reuss Voigt Hill
#
# Bulk Modulus (GPa) = 34.11820 37.29028 35.70424
# Shear Modulus (GPa) = 5.99948 50.31486 28.15717
#
# Velocity S-wave (km/s) = 1.76818 5.12058 3.83059
# Velocity P-wave (km/s) = 4.68492 7.37518 6.17826
#
# Compressibility (1/GPa) = 0.02930987
#
# Stress axis : x y z
#
# Youngs Moduli (GPa) = 71.30319 108.66539 69.54235
#
# Poissons Ratio (x) = 0.38457 0.09173
# Poissons Ratio (y) = 0.25235 -0.04934
# Poissons Ratio (z) = 0.09405 -0.07711
#
# Static dielectric constant tensor:
#      x y z
#    x 1.636040 0.000000 0.000000 
#    y 0.000000 1.725120 0.000000 
#    z 0.000000 0.000000 1.732710 
# 
# From -- ./inp_files/31189.got.cif
#   From: 2010.05.17/outbox.cif.g08.bks.cpg/sg66_16_cif.got.tgz:31189.got - 2010.06.03 17:51:23.
