data_PCOD9495659
_publ_section_title
;
Structure prediction by ZEFSAII (Michael W. Deem and Ramdas Pophale) SiO2 
 PCOD9495659
Probable space group: C C C M
;
_chemical_formula_sum "Si O2"
_cell_formula_units_Z 80
_cell_length_a 12.030624
_cell_length_b 9.852973
_cell_length_c 28.052758
_cell_angle_alpha 90.000000
_cell_angle_beta 90.000000
_cell_angle_gamma 90.000000
_cell_volume 3325.301373
_symmetry_space_group_name_H-M "C C C M"
_symmetry_group_IT_number 66
_symmetry_cell_setting 'orthorhombic'
loop_
_space_group_symop_operation_xyz
x,y,z
-x,-y,z
x,-y,1/2-z
-x,y,1/2-z
-x,-y,-z
x,y,-z
-x,y,1/2+z
x,-y,1/2+z
1/2+x,1/2+y,z
1/2-x,1/2-y,z
1/2+x,1/2-y,1/2-z
1/2-x,1/2+y,1/2-z
1/2-x,1/2-y,-z
1/2+x,1/2+y,-z
1/2-x,1/2+y,1/2+z
1/2+x,1/2-y,1/2+z
loop_
_atom_site_type_symbol
_atom_site_label
_atom_site_fract_x
_atom_site_fract_y
_atom_site_fract_z
Si Si1 0.440554 0.219838 0.846257
Si Si2 0.372370 0.516444 0.306387
Si Si3 0.631389 0.671002 0.946370
Si Si4 0.349653 0.924478 0.846793
Si Si5 0.770709 0.589029 0.447752
O O1 0.362474 0.326527 0.820000
O O2 0.434583 0.266665 0.901838
O O3 0.569079 0.196285 0.831155
O O4 0.393577 0.072306 0.833605
O O5 0.500000 0.500000 0.323451
O O6 0.368023 0.500000 0.250000
O O7 0.277271 0.425906 0.330123
O O8 0.750000 0.750000 0.945617
O O9 0.664829 0.511652 0.939614
O O10 0.583173 0.686403 0.000000
O O11 0.351740 0.931660 0.904042
O O12 0.813812 0.549429 0.500000
O O13 0.750000 0.750000 0.448066
#
# Coordination Sequence:
#
# PCOD9495659 Si02
#       5
#    16  16  16  16  16
#     4  11  23  43  73 110 146 185 242 296 371 438
#     4  11  26  50  72 101 136 184 239 304 378 450
#     4  10  18  35  66 101 148 200 244 293 352 428
#     4  11  24  44  74 106 145 191 233 307 363 442
#     4  10  21  37  63 101 148 199 246 292 351 425
#
# _framework density 24.057970000000001
#
# number of rings (size 3 to 8) (size 9 to 14) (size 15 to 20)
#    0.000    1.400    4.000    0.600    2.800    0.800 
#   14.400    3.000    0.000    4.800    0.000    0.000 
#    0.000    0.000    0.000    0.000    0.000    0.000 
#
# Total GULP energy -223290.289050 kJ/mol
# GULP energy per Si atom -5582.257226 kJ/mol
# Density = 2.400321 g / cm^3
# Si number density = 24.057970 Si / 1000 Ang^3
#
#
#
# Elastic Constant Matrix: (Units=GPa)
#
#
# Indices 1 2 3 4 5 6 
#
# 1 133.9308 52.1460 30.9478 0.0000 0.0000 0.0000
# 2 52.1460 111.8641 3.0134 0.0000 0.0000 0.0000
# 3 30.9478 3.0134 64.0896 0.0000 0.0000 0.0000
# 4 0.0000 0.0000 0.0000 36.7069 0.0000 0.0000
# 5 0.0000 0.0000 0.0000 0.0000 -29.7477 0.0000
# 6 0.0000 0.0000 0.0000 0.0000 0.0000 40.3367
#
#
#
# Elastic Compliance Matrix: (Units=1/GPa)
#
#
# Indices 1 2 3 4 5 6 
#
# 1 0.010418 -0.004727 -0.004808 0.000000 0.000000 0.000000
# 2 -0.004727 0.011095 0.001761 0.000000 0.000000 0.000000
# 3 -0.004808 0.001761 0.017842 0.000000 0.000000 0.000000
# 4 0.000000 0.000000 0.000000 0.027243 0.000000 0.000000
# 5 0.000000 0.000000 0.000000 0.000000 -0.033616 0.000000
# 6 0.000000 0.000000 0.000000 0.000000 0.000000 0.024791
#
#
# Mechanical properties :
#
#
# Convention : Reuss Voigt Hill
#
# Bulk Modulus (GPa) = 42.00483 53.56653 47.78568
# Shear Modulus (GPa) = 61.53203 24.37768 42.95485
#
# Velocity S-wave (km/s) = 5.06281 3.18667 4.23007
# Velocity P-wave (km/s) = 7.18845 5.98780 6.61542
#
# Compressibility (1/GPa) = 0.02380678
#
# Stress axis : x y z
#
# Youngs Moduli (GPa) = 95.98710 90.12697 56.04666
#
# Poissons Ratio (x) = 0.42602 0.26950
# Poissons Ratio (y) = 0.45372 -0.09869
# Poissons Ratio (z) = 0.46155 -0.15870
#
# Static dielectric constant tensor:
#      x y z
#    x 1.733600 0.000000 0.000000 
#    y 0.000000 1.996140 0.000000 
#    z 0.000000 0.000000 1.916470 
# 
# From -- ./inp_files/65046.got.cif
#   From: 2010.05.17/outbox.cif.g08.bks.cpg/sg66_33_cif.got.tgz:65046.got - 2010.06.03 17:51:23.
