data_PCOD9495541
_publ_section_title
;
Structure prediction by ZEFSAII (Michael W. Deem and Ramdas Pophale) SiO2 
 PCOD9495541
Probable space group: C C C M
;
_chemical_formula_sum "Si O2"
_cell_formula_units_Z 128
_cell_length_a 16.634233
_cell_length_b 26.373547
_cell_length_c 17.079934
_cell_angle_alpha 90.000000
_cell_angle_beta 90.000000
_cell_angle_gamma 90.000000
_cell_volume 7493.030683
_symmetry_space_group_name_H-M "C C C M"
_symmetry_group_IT_number 66
_symmetry_cell_setting 'orthorhombic'
loop_
_space_group_symop_operation_xyz
x,y,z
-x,-y,z
x,-y,1/2-z
-x,y,1/2-z
-x,-y,-z
x,y,-z
-x,y,1/2+z
x,-y,1/2+z
1/2+x,1/2+y,z
1/2-x,1/2-y,z
1/2+x,1/2-y,1/2-z
1/2-x,1/2+y,1/2-z
1/2-x,1/2-y,-z
1/2+x,1/2+y,-z
1/2-x,1/2+y,1/2+z
1/2+x,1/2-y,1/2+z
loop_
_atom_site_type_symbol
_atom_site_label
_atom_site_fract_x
_atom_site_fract_y
_atom_site_fract_z
Si Si1 0.312990 0.703518 0.911779
Si Si2 0.584682 0.478447 0.661574
Si Si3 0.242744 0.505672 0.907269
Si Si4 0.406390 0.839804 0.727952
Si Si5 0.181104 0.396352 0.908133
Si Si6 0.228895 0.388673 0.329733
Si Si7 0.095294 0.223897 0.747302
Si Si8 0.338147 0.624581 0.321610
O O1 0.250000 0.750000 0.909617
O O2 0.267688 0.651239 0.890191
O O3 0.374302 0.714042 0.841112
O O4 0.346693 0.700944 0.000000
O O5 0.500000 0.500000 0.630079
O O6 0.590562 0.500000 0.750000
O O7 0.664322 0.496291 0.616426
O O8 0.593028 0.417253 0.663043
O O9 0.191226 0.455789 0.885869
O O10 0.215160 0.556595 0.865767
O O11 0.237967 0.511284 0.000000
O O12 0.500000 0.843262 0.750000
O O13 0.381452 0.867521 0.647532
O O14 0.352080 0.865374 0.794661
O O15 0.382007 0.780542 0.726227
O O16 0.270589 0.375264 0.888817
O O17 0.163131 0.392031 0.000000
O O18 0.290419 0.393206 0.256619
O O19 0.131145 0.180309 0.802177
O O20 0.000000 0.220117 0.750000
#
# Coordination Sequence:
#
# PCOD9495541 Si02
#       8
#    16  16  16  16  16  16  16  16
#     4  10  19  33  54  80 108 138 174 218 268 316
#     4  10  19  30  50  78 111 143 182 209 254 313
#     4  10  20  35  53  79 107 139 177 220 269 316
#     4  10  21  38  57  79 104 138 181 223 276 331
#     4   9  20  38  58  78 107 140 178 224 267 316
#     4  10  18  33  55  78 106 138 178 217 264 323
#     4  10  21  36  54  80 109 144 182 225 269 316
#     4   9  19  32  55  77 107 145 182 217 253 312
#
# _framework density 17.082540000000002
#
# number of rings (size 3 to 8) (size 9 to 14) (size 15 to 20)
#    0.000    2.250    2.500    0.375    1.750    0.250 
#    0.000    6.875    0.000    1.500    0.000    0.000 
#    0.000    0.000    0.000    0.000    0.000    0.000 
#
# Total GULP energy -356837.517245 kJ/mol
# GULP energy per Si atom -5575.586207 kJ/mol
# Density = 1.704366 g / cm^3
# Si number density = 17.082540 Si / 1000 Ang^3
#
#
#
# Elastic Constant Matrix: (Units=GPa)
#
#
# Indices 1 2 3 4 5 6 
#
# 1 67.3369 61.0501 31.2036 0.0000 0.0000 0.0000
# 2 61.0501 162.0647 62.9446 0.0000 0.0000 0.0000
# 3 31.2036 62.9446 61.9518 0.0000 0.0000 0.0000
# 4 0.0000 0.0000 0.0000 8.9181 0.0000 0.0000
# 5 0.0000 0.0000 0.0000 0.0000 7.7437 0.0000
# 6 0.0000 0.0000 0.0000 0.0000 0.0000 22.7221
#
#
#
# Elastic Compliance Matrix: (Units=1/GPa)
#
#
# Indices 1 2 3 4 5 6 
#
# 1 0.023341 -0.006982 -0.004663 0.000000 0.000000 0.000000
# 2 -0.006982 0.012281 -0.008961 0.000000 0.000000 0.000000
# 3 -0.004663 -0.008961 0.027595 0.000000 0.000000 0.000000
# 4 0.000000 0.000000 0.000000 0.112132 0.000000 0.000000
# 5 0.000000 0.000000 0.000000 0.000000 0.129138 0.000000
# 6 0.000000 0.000000 0.000000 0.000000 0.000000 0.044010
#
#
# Mechanical properties :
#
#
# Convention : Reuss Voigt Hill
#
# Bulk Modulus (GPa) = 45.44291 66.86111 56.15201
# Shear Modulus (GPa) = 12.59310 16.95377 14.77343
#
# Velocity S-wave (km/s) = 2.71807 3.15375 2.94398
# Velocity P-wave (km/s) = 6.04237 7.24476 6.67071
#
# Compressibility (1/GPa) = 0.02200563
#
# Stress axis : x y z
#
# Youngs Moduli (GPa) = 42.84249 81.42788 36.23869
#
# Poissons Ratio (x) = 0.56851 0.16898
# Poissons Ratio (y) = 0.29911 0.32474
# Poissons Ratio (z) = 0.19977 0.72968
#
# Static dielectric constant tensor:
#      x y z
#    x 1.568350 0.000000 0.000000 
#    y 0.000000 1.596620 0.000000 
#    z 0.000000 0.000000 1.569990 
# 
# From -- ./inp_files/42177.got.cif
#   From: 2010.05.17/outbox.cif.g08.bks.cpg/sg66_22_cif.got.tgz:42177.got - 2010.06.03 17:51:23.
