data_PCOD9495072
_publ_section_title
;
Structure prediction by ZEFSAII (Michael W. Deem and Ramdas Pophale) SiO2 
 PCOD9495072
Probable space group: C C C M
;
_chemical_formula_sum "Si O2"
_cell_formula_units_Z 96
_cell_length_a 30.478200
_cell_length_b 20.277470
_cell_length_c 8.732071
_cell_angle_alpha 90.000000
_cell_angle_beta 90.000000
_cell_angle_gamma 90.000000
_cell_volume 5396.601384
_symmetry_space_group_name_H-M "C C C M"
_symmetry_group_IT_number 66
_symmetry_cell_setting 'orthorhombic'
loop_
_space_group_symop_operation_xyz
x,y,z
-x,-y,z
x,-y,1/2-z
-x,y,1/2-z
-x,-y,-z
x,y,-z
-x,y,1/2+z
x,-y,1/2+z
1/2+x,1/2+y,z
1/2-x,1/2-y,z
1/2+x,1/2-y,1/2-z
1/2-x,1/2+y,1/2-z
1/2-x,1/2-y,-z
1/2+x,1/2+y,-z
1/2-x,1/2+y,1/2+z
1/2+x,1/2-y,1/2+z
loop_
_atom_site_type_symbol
_atom_site_label
_atom_site_fract_x
_atom_site_fract_y
_atom_site_fract_z
Si Si1 0.734496 0.070355 0.816778
Si Si2 0.874066 0.201264 0.683811
Si Si3 0.951255 0.296701 0.316255
Si Si4 0.450161 0.932879 0.183436
Si Si5 0.837034 0.069783 0.182536
Si Si6 0.292650 0.206930 0.184556
O O1 0.785872 0.078929 0.769711
O O2 0.709604 0.134376 0.755378
O O3 0.719573 0.000000 0.750000
O O4 0.732335 0.068011 0.000000
O O5 0.871550 0.193767 0.500000
O O6 0.920055 0.235561 0.721400
O O7 0.864815 0.131195 0.758693
O O8 0.835428 0.251747 0.729670
O O9 0.953499 0.304643 0.500000
O O10 0.931456 0.364007 0.244706
O O11 0.000000 0.287700 0.250000
O O12 0.500000 0.931913 0.250000
O O13 0.429569 0.000000 0.250000
O O14 0.451320 0.934828 0.000000
O O15 0.851929 0.000000 0.250000
O O16 0.838034 0.066930 0.000000
O O17 0.250000 0.250000 0.230059
O O18 0.292057 0.200672 0.000000
#
# Coordination Sequence:
#
# PCOD9495072 Si02
#       6
#    16  16  16  16  16  16
#     4  10  20  33  51  76 107 144 182 219 259 308
#     4  10  21  36  55  80 108 140 176 217 264 316
#     4  10  20  35  54  77 106 138 177 221 268 317
#     4  10  17  28  48  73 100 130 169 213 260 309
#     4  10  20  33  53  79 108 139 176 218 259 310
#     4  10  19  33  54  77 106 140 173 212 260 312
#
# _framework density 17.788972999999999
#
# number of rings (size 3 to 8) (size 9 to 14) (size 15 to 20)
#    0.000    2.000    1.667    4.500    0.000    3.667 
#    0.000    0.833    0.000    0.500    0.000    3.500 
#    0.000    0.000    0.000    0.000    0.000    0.000 
#
# Total GULP energy -267921.434043 kJ/mol
# GULP energy per Si atom -5581.696543 kJ/mol
# Density = 1.774848 g / cm^3
# Si number density = 17.788973 Si / 1000 Ang^3
#
#
#
# Elastic Constant Matrix: (Units=GPa)
#
#
# Indices 1 2 3 4 5 6 
#
# 1 56.9860 53.7310 27.2687 0.0000 0.0000 0.0000
# 2 53.7310 184.7470 57.5000 0.0000 0.0000 0.0000
# 3 27.2687 57.5000 64.0365 0.0000 0.0000 0.0000
# 4 0.0000 0.0000 0.0000 37.2938 0.0000 0.0000
# 5 0.0000 0.0000 0.0000 0.0000 16.8914 0.0000
# 6 0.0000 0.0000 0.0000 0.0000 0.0000 22.8803
#
#
#
# Elastic Compliance Matrix: (Units=1/GPa)
#
#
# Indices 1 2 3 4 5 6 
#
# 1 0.025675 -0.005641 -0.005868 0.000000 0.000000 0.000000
# 2 -0.005641 0.008752 -0.005456 0.000000 0.000000 0.000000
# 3 -0.005868 -0.005456 0.023014 0.000000 0.000000 0.000000
# 4 0.000000 0.000000 0.000000 0.026814 0.000000 0.000000
# 5 0.000000 0.000000 0.000000 0.000000 0.059202 0.000000
# 6 0.000000 0.000000 0.000000 0.000000 0.000000 0.043706
#
#
# Mechanical properties :
#
#
# Convention : Reuss Voigt Hill
#
# Bulk Modulus (GPa) = 42.53457 64.75209 53.64333
# Shear Modulus (GPa) = 21.84085 26.56441 24.20263
#
# Velocity S-wave (km/s) = 3.50776 3.86853 3.69255
# Velocity P-wave (km/s) = 6.35361 7.51220 6.95707
#
# Compressibility (1/GPa) = 0.02351029
#
# Stress axis : x y z
#
# Youngs Moduli (GPa) = 38.94880 114.26607 43.45146
#
# Poissons Ratio (x) = 0.64455 0.25498
# Poissons Ratio (y) = 0.21970 0.23708
# Poissons Ratio (z) = 0.22856 0.62346
#
# Static dielectric constant tensor:
#      x y z
#    x 1.612510 0.000000 0.000000 
#    y 0.000000 1.611620 0.000000 
#    z 0.000000 0.000000 1.596440 
# 
# From -- ./inp_files/10257.got.cif
#   From: 2010.05.17/outbox.cif.g08.bks.cpg/sg66_6_cif.got.tgz:10257.got - 2010.06.03 17:51:23.
