data_PCOD9495149
_publ_section_title
;
Structure prediction by ZEFSAII (Michael W. Deem and Ramdas Pophale) SiO2 
 PCOD9495149
Probable space group: C C C M
;
_chemical_formula_sum "Si O2"
_cell_formula_units_Z 112
_cell_length_a 20.432253
_cell_length_b 20.028524
_cell_length_c 14.722622
_cell_angle_alpha 90.000000
_cell_angle_beta 90.000000
_cell_angle_gamma 90.000000
_cell_volume 6024.907236
_symmetry_space_group_name_H-M "C C C M"
_symmetry_group_IT_number 66
_symmetry_cell_setting 'orthorhombic'
loop_
_space_group_symop_operation_xyz
x,y,z
-x,-y,z
x,-y,1/2-z
-x,y,1/2-z
-x,-y,-z
x,y,-z
-x,y,1/2+z
x,-y,1/2+z
1/2+x,1/2+y,z
1/2-x,1/2-y,z
1/2+x,1/2-y,1/2-z
1/2-x,1/2+y,1/2-z
1/2-x,1/2-y,-z
1/2+x,1/2+y,-z
1/2-x,1/2+y,1/2+z
1/2+x,1/2-y,1/2+z
loop_
_atom_site_type_symbol
_atom_site_label
_atom_site_fract_x
_atom_site_fract_y
_atom_site_fract_z
Si Si1 0.853771 0.788140 0.328914
Si Si2 0.746257 0.968642 0.605119
Si Si3 0.977860 0.136842 0.143716
Si Si4 0.604203 0.507848 0.391971
Si Si5 0.614903 0.639659 0.857385
Si Si6 0.262629 0.873088 0.598734
Si Si7 0.710843 0.157270 0.801068
O O1 0.915632 0.817625 0.382047
O O2 0.871783 0.812972 0.227763
O O3 0.781314 0.819224 0.342101
O O4 0.843062 0.709216 0.335082
O O5 0.737983 0.949026 0.500000
O O6 0.823692 0.962551 0.627571
O O7 0.705624 0.918994 0.667907
O O8 0.729514 0.046964 0.611767
O O9 0.951572 0.062234 0.124942
O O10 0.000000 0.142114 0.250000
O O11 0.045966 0.156941 0.097407
O O12 0.603157 0.490259 0.500000
O O13 0.602182 0.439300 0.335560
O O14 0.684548 0.638765 0.905820
O O15 0.290746 0.853469 0.500000
O O16 0.286457 0.838650 0.691255
#
# Coordination Sequence:
#
# PCOD9495149 Si02
#       7
#    16  16  16  16  16  16  16
#     4   9  19  30  43  65  88 122 172 198 229 288
#     4   9  17  30  49  71  95 119 154 201 247 288
#     4  10  19  31  44  63  90 127 163 200 237 277
#     4  10  19  30  45  68  93 123 164 203 238 283
#     4   9  18  29  44  63  95 126 154 196 236 274
#     4   9  18  31  48  73  96 121 157 199 245 296
#     4  10  17  32  49  64  92 127 160 202 244 285
#
# _framework density 18.589497000000001
#
# number of rings (size 3 to 8) (size 9 to 14) (size 15 to 20)
#    0.000    2.571    1.429    2.143    0.000    5.714 
#    0.000    8.571    0.000    0.857    0.000    0.000 
#    0.000   20.571    0.000   28.286    0.000    2.571 
#
# Total GULP energy -311832.371189 kJ/mol
# GULP energy per Si atom -5568.435200 kJ/mol
# Density = 1.854719 g / cm^3
# Si number density = 18.589497 Si / 1000 Ang^3
#
#
#
# Elastic Constant Matrix: (Units=GPa)
#
#
# Indices 1 2 3 4 5 6 
#
# 1 49.1417 29.5502 5.0315 0.0000 0.0000 0.0000
# 2 29.5502 42.8744 7.3061 0.0000 0.0000 0.0000
# 3 5.0315 7.3061 45.1259 0.0000 0.0000 0.0000
# 4 0.0000 0.0000 0.0000 -56.9464 0.0000 0.0000
# 5 0.0000 0.0000 0.0000 0.0000 -6.4093 0.0000
# 6 0.0000 0.0000 0.0000 0.0000 0.0000 31.3064
#
#
#
# Elastic Compliance Matrix: (Units=1/GPa)
#
#
# Indices 1 2 3 4 5 6 
#
# 1 0.034752 -0.023953 0.000003 0.000000 0.000000 0.000000
# 2 -0.023953 0.040495 -0.003886 0.000000 0.000000 0.000000
# 3 0.000003 -0.003886 0.022789 0.000000 0.000000 0.000000
# 4 0.000000 0.000000 0.000000 -0.017560 0.000000 0.000000
# 5 0.000000 0.000000 0.000000 0.000000 -0.156022 0.000000
# 6 0.000000 0.000000 0.000000 0.000000 0.000000 0.031942
#
#
# Mechanical properties :
#
#
# Convention : Reuss Voigt Hill
#
# Bulk Modulus (GPa) = 23.60389 24.54641 24.07515
# Shear Modulus (GPa) = 190.92277 -0.05959 95.43159
#
# Velocity S-wave (km/s) = 10.14532 -0.17923 7.17271
# Velocity P-wave (km/s) = 12.24589 3.63184 9.03195
#
# Compressibility (1/GPa) = 0.04236589
#
# Stress axis : x y z
#
# Youngs Moduli (GPa) = 28.77498 24.69442 43.88089
#
# Poissons Ratio (x) = 0.59150 -0.00014
# Poissons Ratio (y) = 0.68924 0.17050
# Poissons Ratio (z) = -0.00009 0.09595
#
# Static dielectric constant tensor:
#      x y z
#    x 1.665980 0.000000 0.000000 
#    y 0.000000 1.663140 0.000000 
#    z 0.000000 0.000000 1.719420 
# 
# From -- ./inp_files/43031.got.cif
#   From: 2010.05.17/outbox.cif.g08.bks.cpg/sg66_22_cif.got.tgz:43031.got - 2010.06.03 17:51:23.
