data_PCOD9495151
_publ_section_title
;
Structure prediction by ZEFSAII (Michael W. Deem and Ramdas Pophale) SiO2 
 PCOD9495151
Probable space group: C C C M
;
_chemical_formula_sum "Si O2"
_cell_formula_units_Z 80
_cell_length_a 19.200291
_cell_length_b 13.030342
_cell_length_c 19.184605
_cell_angle_alpha 90.000000
_cell_angle_beta 90.000000
_cell_angle_gamma 90.000000
_cell_volume 4799.726459
_symmetry_space_group_name_H-M "C C C M"
_symmetry_group_IT_number 66
_symmetry_cell_setting 'orthorhombic'
loop_
_space_group_symop_operation_xyz
x,y,z
-x,-y,z
x,-y,1/2-z
-x,y,1/2-z
-x,-y,-z
x,y,-z
-x,y,1/2+z
x,-y,1/2+z
1/2+x,1/2+y,z
1/2-x,1/2-y,z
1/2+x,1/2-y,1/2-z
1/2-x,1/2+y,1/2-z
1/2-x,1/2-y,-z
1/2+x,1/2+y,-z
1/2-x,1/2+y,1/2+z
1/2+x,1/2-y,1/2+z
loop_
_atom_site_type_symbol
_atom_site_label
_atom_site_fract_x
_atom_site_fract_y
_atom_site_fract_z
Si Si1 0.133057 0.032662 0.639873
Si Si2 0.798086 0.470627 0.144001
Si Si3 0.817646 0.381073 0.000000
Si Si4 0.579460 0.352073 0.274274
Si Si5 0.648120 0.351816 0.000000
Si Si6 0.817025 0.675564 0.226617
O O1 0.215246 0.012749 0.636082
O O2 0.120704 0.101880 0.707924
O O3 0.116990 0.093598 0.568829
O O4 0.092030 0.928578 0.660318
O O5 0.821791 0.576927 0.177195
O O6 0.809692 0.375047 0.196596
O O7 0.831750 0.442518 0.070529
O O8 0.732869 0.365827 0.000000
O O9 0.856511 0.271535 0.000000
O O10 0.500000 0.349769 0.250000
O O11 0.614676 0.243153 0.285247
O O12 0.750000 0.750000 0.214578
#
# Coordination Sequence:
#
# PCOD9495151 Si02
#       6
#    16  16   8  16   8  16
#     4  10  17  32  51  79 105 130 172 213 264 307
#     4  10  19  31  54  80 101 133 173 226 255 307
#     4   9  18  30  46  82 113 130 173 216 269 297
#     4  11  21  33  51  75 108 140 169 212 263 313
#     4   9  18  28  52  77 108 141 166 215 259 317
#     4  11  18  33  54  76 101 135 178 212 261 308
#
# _framework density 16.667615999999999
#
# number of rings (size 3 to 8) (size 9 to 14) (size 15 to 20)
#    0.000    1.800    4.000    3.600    2.800    0.000 
#    0.000    5.500    0.000    0.000    0.000    2.800 
#    0.000    0.000    0.000    0.000    0.000    0.000 
#
# Total GULP energy -222846.068782 kJ/mol
# GULP energy per Si atom -5571.151720 kJ/mol
# Density = 1.662968 g / cm^3
# Si number density = 16.667616 Si / 1000 Ang^3
#
#
#
# Elastic Constant Matrix: (Units=GPa)
#
#
# Indices 1 2 3 4 5 6 
#
# 1 51.7275 33.8186 17.5657 0.0000 0.0000 0.0000
# 2 33.8186 115.2963 60.3578 0.0000 0.0000 0.0000
# 3 17.5657 60.3578 122.6876 0.0000 0.0000 0.0000
# 4 0.0000 0.0000 0.0000 10.8345 0.0000 0.0000
# 5 0.0000 0.0000 0.0000 0.0000 2.7174 0.0000
# 6 0.0000 0.0000 0.0000 0.0000 0.0000 -11.5356
#
#
#
# Elastic Compliance Matrix: (Units=1/GPa)
#
#
# Indices 1 2 3 4 5 6 
#
# 1 0.023919 -0.007035 0.000036 0.000000 0.000000 0.000000
# 2 -0.007035 0.013751 -0.005758 0.000000 0.000000 0.000000
# 3 0.000036 -0.005758 0.010978 0.000000 0.000000 0.000000
# 4 0.000000 0.000000 0.000000 0.092297 0.000000 0.000000
# 5 0.000000 0.000000 0.000000 0.000000 0.368005 0.000000
# 6 0.000000 0.000000 0.000000 0.000000 0.000000 -0.086688
#
#
# Mechanical properties :
#
#
# Convention : Reuss Voigt Hill
#
# Bulk Modulus (GPa) = 43.22357 57.02173 50.12265
# Shear Modulus (GPa) = 10.97726 12.26788 11.62257
#
# Velocity S-wave (km/s) = 2.56910 2.71593 2.64354
# Velocity P-wave (km/s) = 5.89825 6.64232 6.28131
#
# Compressibility (1/GPa) = 0.02313553
#
# Stress axis : x y z
#
# Youngs Moduli (GPa) = 41.80762 72.72209 91.08976
#
# Poissons Ratio (x) = 0.51160 -0.00331
# Poissons Ratio (y) = 0.29411 0.52447
# Poissons Ratio (z) = -0.00152 0.41872
#
# Static dielectric constant tensor:
#      x y z
#    x 1.578010 0.000000 0.000000 
#    y 0.000000 1.577120 0.000000 
#    z 0.000000 0.000000 1.564780 
# 
# From -- ./inp_files/42699.got.cif
#   From: 2010.05.17/outbox.cif.g08.bks.cpg/sg66_22_cif.got.tgz:42699.got - 2010.06.03 17:51:23.
