data_PCOD9495298
_publ_section_title
;
Structure prediction by ZEFSAII (Michael W. Deem and Ramdas Pophale) SiO2 
 PCOD9495298
Probable space group: C C C M
;
_chemical_formula_sum "Si O2"
_cell_formula_units_Z 88
_cell_length_a 7.580044
_cell_length_b 18.331183
_cell_length_c 26.914428
_cell_angle_alpha 90.000000
_cell_angle_beta 90.000000
_cell_angle_gamma 90.000000
_cell_volume 3739.791360
_symmetry_space_group_name_H-M "C C C M"
_symmetry_group_IT_number 66
_symmetry_cell_setting 'orthorhombic'
loop_
_space_group_symop_operation_xyz
x,y,z
-x,-y,z
x,-y,1/2-z
-x,y,1/2-z
-x,-y,-z
x,y,-z
-x,y,1/2+z
x,-y,1/2+z
1/2+x,1/2+y,z
1/2-x,1/2-y,z
1/2+x,1/2-y,1/2-z
1/2-x,1/2+y,1/2-z
1/2-x,1/2-y,-z
1/2+x,1/2+y,-z
1/2-x,1/2+y,1/2+z
1/2+x,1/2-y,1/2+z
loop_
_atom_site_type_symbol
_atom_site_label
_atom_site_fract_x
_atom_site_fract_y
_atom_site_fract_z
Si Si1 0.893450 0.880470 0.707108
Si Si2 0.213942 0.011896 0.629614
Si Si3 0.470125 0.726847 0.441331
Si Si4 0.328508 0.132891 0.442223
Si Si5 0.736705 0.348801 0.642326
Si Si6 0.750000 0.750000 0.774869
O O1 0.815526 0.811358 0.736177
O O2 0.000000 0.921792 0.750000
O O3 0.043127 0.852741 0.669285
O O4 0.771054 0.935377 0.677370
O O5 0.294335 0.932041 0.636735
O O6 0.302398 0.057437 0.585766
O O7 0.000000 0.000000 0.621326
O O8 0.431387 0.732971 0.500000
O O9 0.534051 0.806595 0.422110
O O10 0.641902 0.674960 0.438701
O O11 0.320837 0.686015 0.409996
O O12 0.369845 0.120965 0.500000
O O13 0.846280 0.301313 0.682813
#
# Coordination Sequence:
#
# PCOD9495298 Si02
#       6
#    16  16  16  16  16   8
#     4   9  19  32  49  71  98 131 166 214 265 319
#     4  10  18  29  50  78 107 132 164 215 273 312
#     4   9  17  30  50  77 110 144 174 209 258 326
#     4   9  17  28  48  80 113 141 169 205 265 332
#     4  10  20  34  51  78 103 134 176 223 265 319
#     4  10  22  34  49  72  97 136 184 222 268 318
#
# _framework density 23.530723999999999
#
# number of rings (size 3 to 8) (size 9 to 14) (size 15 to 20)
#    0.000    2.545    3.636    1.091    2.545    9.455 
#    0.000    0.455    0.000    1.091    9.455    2.545 
#    0.000    0.000    0.000    0.000    0.000    0.000 
#
# Total GULP energy -245308.930268 kJ/mol
# GULP energy per Si atom -5575.202961 kJ/mol
# Density = 2.347717 g / cm^3
# Si number density = 23.530724 Si / 1000 Ang^3
#
#
#
# Elastic Constant Matrix: (Units=GPa)
#
#
# Indices 1 2 3 4 5 6 
#
# 1 68.8339 28.3912 16.0340 0.0000 0.0000 0.0000
# 2 28.3912 235.8812 78.8013 0.0000 0.0000 0.0000
# 3 16.0340 78.8013 116.9390 0.0000 0.0000 0.0000
# 4 0.0000 0.0000 0.0000 38.8784 0.0000 0.0000
# 5 0.0000 0.0000 0.0000 0.0000 9.0044 0.0000
# 6 0.0000 0.0000 0.0000 0.0000 0.0000 7.3278
#
#
#
# Elastic Compliance Matrix: (Units=1/GPa)
#
#
# Indices 1 2 3 4 5 6 
#
# 1 0.015398 -0.001482 -0.001113 0.000000 0.000000 0.000000
# 2 -0.001482 0.005614 -0.003580 0.000000 0.000000 0.000000
# 3 -0.001113 -0.003580 0.011116 0.000000 0.000000 0.000000
# 4 0.000000 0.000000 0.000000 0.025721 0.000000 0.000000
# 5 0.000000 0.000000 0.000000 0.000000 0.111057 0.000000
# 6 0.000000 0.000000 0.000000 0.000000 0.000000 0.136467
#
#
# Mechanical properties :
#
#
# Convention : Reuss Voigt Hill
#
# Bulk Modulus (GPa) = 50.55703 74.23412 62.39558
# Shear Modulus (GPa) = 15.41712 30.93728 23.17720
#
# Velocity S-wave (km/s) = 2.56245 3.62990 3.14184
# Velocity P-wave (km/s) = 5.50337 7.01316 6.30363
#
# Compressibility (1/GPa) = 0.01977964
#
# Stress axis : x y z
#
# Youngs Moduli (GPa) = 64.94330 178.13813 89.95801
#
# Poissons Ratio (x) = 0.26392 0.10012
# Poissons Ratio (y) = 0.09622 0.32202
# Poissons Ratio (z) = 0.07228 0.63768
#
# Static dielectric constant tensor:
#      x y z
#    x 1.919960 0.000000 0.000000 
#    y 0.000000 1.916740 0.000000 
#    z 0.000000 0.000000 1.945000 
# 
# From -- ./inp_files/63592.got.cif
#   From: 2010.05.17/outbox.cif.g08.bks.cpg/sg66_32_cif.got.tgz:63592.got - 2010.06.03 17:51:23.
