data_PCOD9495386
_publ_section_title
;
Structure prediction by ZEFSAII (Michael W. Deem and Ramdas Pophale) SiO2 
 PCOD9495386
Probable space group: C C C M
;
_chemical_formula_sum "Si O2"
_cell_formula_units_Z 88
_cell_length_a 28.667897
_cell_length_b 20.596318
_cell_length_c 9.320107
_cell_angle_alpha 90.000000
_cell_angle_beta 90.000000
_cell_angle_gamma 90.000000
_cell_volume 5503.086285
_symmetry_space_group_name_H-M "C C C M"
_symmetry_group_IT_number 66
_symmetry_cell_setting 'orthorhombic'
loop_
_space_group_symop_operation_xyz
x,y,z
-x,-y,z
x,-y,1/2-z
-x,y,1/2-z
-x,-y,-z
x,y,-z
-x,y,1/2+z
x,-y,1/2+z
1/2+x,1/2+y,z
1/2-x,1/2-y,z
1/2+x,1/2-y,1/2-z
1/2-x,1/2+y,1/2-z
1/2-x,1/2-y,-z
1/2+x,1/2+y,-z
1/2-x,1/2+y,1/2+z
1/2+x,1/2-y,1/2+z
loop_
_atom_site_type_symbol
_atom_site_label
_atom_site_fract_x
_atom_site_fract_y
_atom_site_fract_z
Si Si1 0.208527 0.801291 0.673199
Si Si2 0.951518 0.367377 0.167047
Si Si3 0.818182 0.576817 0.152153
Si Si4 0.268900 0.564469 0.829904
Si Si5 0.872470 0.708223 0.163651
Si Si6 0.596657 0.000000 0.750000
O O1 0.210956 0.810312 0.500000
O O2 0.250000 0.750000 0.710648
O O3 0.214475 0.868961 0.755614
O O4 0.158009 0.770155 0.707832
O O5 0.913204 0.319160 0.236142
O O6 0.933539 0.442000 0.183910
O O7 0.000000 0.361310 0.250000
O O8 0.957359 0.353493 0.000000
O O9 0.786369 0.563842 0.289450
O O10 0.833913 0.651098 0.157934
O O11 0.866275 0.537375 0.150709
O O12 0.792629 0.565322 0.000000
O O13 0.287991 0.500000 0.750000
O O14 0.276503 0.563986 0.000000
O O15 0.889929 0.716745 0.000000
#
# Coordination Sequence:
#
# PCOD9495386 Si02
#       6
#    16  16  16  16  16   8
#     4  10  19  36  57  78 104 137 175 219 271 325
#     4  11  23  37  53  74 101 135 179 227 274 321
#     4  10  18  31  48  69  97 132 173 217 264 312
#     4  12  24  34  48  72 105 143 181 222 264 312
#     4   9  19  35  55  75  98 130 168 214 267 317
#     4  10  21  32  50  72  98 136 180 232 271 314
#
# _framework density 15.991026
#
# number of rings (size 3 to 8) (size 9 to 14) (size 15 to 20)
#    0.000    1.636    2.727    3.000    0.000    6.909 
#    0.000    0.000    0.000    0.000    0.000    0.000 
#    0.000    0.727    0.000    7.636    0.000    3.273 
#
# Total GULP energy -245230.940954 kJ/mol
# GULP energy per Si atom -5573.430476 kJ/mol
# Density = 1.595463 g / cm^3
# Si number density = 15.991026 Si / 1000 Ang^3
#
#
#
# Elastic Constant Matrix: (Units=GPa)
#
#
# Indices 1 2 3 4 5 6 
#
# 1 75.7677 49.0882 46.1234 0.0000 0.0000 0.0000
# 2 49.0882 119.3922 61.7453 0.0000 0.0000 0.0000
# 3 46.1234 61.7453 116.4091 0.0000 0.0000 0.0000
# 4 0.0000 0.0000 0.0000 5.5920 0.0000 0.0000
# 5 0.0000 0.0000 0.0000 0.0000 15.6177 0.0000
# 6 0.0000 0.0000 0.0000 0.0000 0.0000 17.9495
#
#
#
# Elastic Compliance Matrix: (Units=1/GPa)
#
#
# Indices 1 2 3 4 5 6 
#
# 1 0.019804 -0.005628 -0.004861 0.000000 0.000000 0.000000
# 2 -0.005628 0.013141 -0.004740 0.000000 0.000000 0.000000
# 3 -0.004861 -0.004740 0.013031 0.000000 0.000000 0.000000
# 4 0.000000 0.000000 0.000000 0.178825 0.000000 0.000000
# 5 0.000000 0.000000 0.000000 0.000000 0.064030 0.000000
# 6 0.000000 0.000000 0.000000 0.000000 0.000000 0.055712
#
#
# Mechanical properties :
#
#
# Convention : Reuss Voigt Hill
#
# Bulk Modulus (GPa) = 64.44857 69.49808 66.97333
# Shear Modulus (GPa) = 13.15182 18.13934 15.64558
#
# Velocity S-wave (km/s) = 2.87095 3.37166 3.13133
# Velocity P-wave (km/s) = 7.16800 7.66241 7.41932
#
# Compressibility (1/GPa) = 0.01551625
#
# Stress axis : x y z
#
# Youngs Moduli (GPa) = 50.49479 76.09546 76.74060
#
# Poissons Ratio (x) = 0.42829 0.37306
# Poissons Ratio (y) = 0.28420 0.36378
# Poissons Ratio (z) = 0.24547 0.36072
#
# Static dielectric constant tensor:
#      x y z
#    x 1.530130 0.000000 0.000000 
#    y 0.000000 1.580750 0.000000 
#    z 0.000000 0.000000 1.553780 
# 
# From -- ./inp_files/11489.got.cif
#   From: 2010.05.17/outbox.cif.g08.bks.cpg/sg66_6_cif.got.tgz:11489.got - 2010.06.03 17:51:23.
