data_PCOD9495760
_publ_section_title
;
Structure prediction by ZEFSAII (Michael W. Deem and Ramdas Pophale) SiO2 
 PCOD9495760
Probable space group: C C C M
;
_chemical_formula_sum "Si O2"
_cell_formula_units_Z 96
_cell_length_a 9.352626
_cell_length_b 25.999681
_cell_length_c 20.810487
_cell_angle_alpha 90.000000
_cell_angle_beta 90.000000
_cell_angle_gamma 90.000000
_cell_volume 5060.388159
_symmetry_space_group_name_H-M "C C C M"
_symmetry_group_IT_number 66
_symmetry_cell_setting 'orthorhombic'
loop_
_space_group_symop_operation_xyz
x,y,z
-x,-y,z
x,-y,1/2-z
-x,y,1/2-z
-x,-y,-z
x,y,-z
-x,y,1/2+z
x,-y,1/2+z
1/2+x,1/2+y,z
1/2-x,1/2-y,z
1/2+x,1/2-y,1/2-z
1/2-x,1/2+y,1/2-z
1/2-x,1/2-y,-z
1/2+x,1/2+y,-z
1/2-x,1/2+y,1/2+z
1/2+x,1/2-y,1/2+z
loop_
_atom_site_type_symbol
_atom_site_label
_atom_site_fract_x
_atom_site_fract_y
_atom_site_fract_z
Si Si1 0.722378 0.305113 0.723924
Si Si2 0.190427 0.116754 0.068828
Si Si3 0.486697 0.711428 0.392471
Si Si4 0.501316 0.560932 0.327932
Si Si5 0.727852 0.640883 0.353654
Si Si6 0.545195 0.170509 0.615970
O O1 0.750000 0.250000 0.756429
O O2 0.585371 0.296248 0.678496
O O3 0.709767 0.346088 0.778720
O O4 0.857133 0.319228 0.679244
O O5 0.111773 0.172289 0.068374
O O6 0.128245 0.087115 0.131254
O O7 0.355663 0.132115 0.075903
O O8 0.162402 0.090776 0.000000
O O9 0.642048 0.685939 0.390807
O O10 0.477321 0.771190 0.410325
O O11 0.500000 0.500000 0.337762
O O12 0.500000 0.569131 0.250000
O O13 0.640826 0.587971 0.359689
O O14 0.893112 0.645064 0.370467
#
# Coordination Sequence:
#
# PCOD9495760 Si02
#       6
#    16  16  16  16  16  16
#     4   9  16  26  44  74 113 151 181 213 267 335
#     4  10  21  38  59  81 111 152 188 219 269 335
#     4   9  18  30  47  76 112 151 189 219 260 319
#     4  10  22  41  63  84 106 137 183 239 292 338
#     4  11  18  29  50  77 110 144 185 234 276 320
#     4  10  19  29  47  79 114 149 182 220 267 321
#
# _framework density 18.970877000000002
#
# number of rings (size 3 to 8) (size 9 to 14) (size 15 to 20)
#    0.000    2.167    0.000    7.000    0.000    4.333 
#    0.000    4.167    0.000    8.000    0.000    0.000 
#    0.000    0.000    0.000    0.000    0.000    0.000 
#
# Total GULP energy -267431.069826 kJ/mol
# GULP energy per Si atom -5571.480621 kJ/mol
# Density = 1.892770 g / cm^3
# Si number density = 18.970877 Si / 1000 Ang^3
#
#
#
# Elastic Constant Matrix: (Units=GPa)
#
#
# Indices 1 2 3 4 5 6 
#
# 1 131.0154 42.3752 20.6094 0.0000 0.0000 0.0000
# 2 42.3752 106.2302 31.0683 0.0000 0.0000 0.0000
# 3 20.6094 31.0683 69.3972 0.0000 0.0000 0.0000
# 4 0.0000 0.0000 0.0000 5.8404 0.0000 0.0000
# 5 0.0000 0.0000 0.0000 0.0000 -10.7139 0.0000
# 6 0.0000 0.0000 0.0000 0.0000 0.0000 10.7192
#
#
#
# Elastic Compliance Matrix: (Units=1/GPa)
#
#
# Indices 1 2 3 4 5 6 
#
# 1 0.008850 -0.003178 -0.001206 0.000000 0.000000 0.000000
# 2 -0.003178 0.011973 -0.004416 0.000000 0.000000 0.000000
# 3 -0.001206 -0.004416 0.016745 0.000000 0.000000 0.000000
# 4 0.000000 0.000000 0.000000 0.171222 0.000000 0.000000
# 5 0.000000 0.000000 0.000000 0.000000 -0.093337 0.000000
# 6 0.000000 0.000000 0.000000 0.000000 0.000000 0.093291
#
#
# Mechanical properties :
#
#
# Convention : Reuss Voigt Hill
#
# Bulk Modulus (GPa) = 50.07904 54.97206 52.52555
# Shear Modulus (GPa) = 21.45931 15.34180 18.40056
#
# Velocity S-wave (km/s) = 3.36694 2.84686 3.11776
# Velocity P-wave (km/s) = 6.44749 6.31238 6.38029
#
# Compressibility (1/GPa) = 0.01996844
#
# Stress axis : x y z
#
# Youngs Moduli (GPa) = 112.99263 83.52319 59.71935
#
# Poissons Ratio (x) = 0.26541 0.07200
# Poissons Ratio (y) = 0.35906 0.26374
# Poissons Ratio (z) = 0.13623 0.36887
#
# Static dielectric constant tensor:
#      x y z
#    x 1.684420 0.000000 0.000000 
#    y 0.000000 1.648900 0.000000 
#    z 0.000000 0.000000 1.715970 
# 
# From -- ./inp_files/47273.got.cif
#   From: 2010.05.17/outbox.cif.g08.bks.cpg/sg66_24_cif.got.tgz:47273.got - 2010.06.03 17:51:23.
