data_PCOD9495352
_publ_section_title
;
Structure prediction by ZEFSAII (Michael W. Deem and Ramdas Pophale) SiO2 
 PCOD9495352
Probable space group: C C C M
;
_chemical_formula_sum "Si O2"
_cell_formula_units_Z 64
_cell_length_a 43.120463
_cell_length_b 9.520990
_cell_length_c 8.703437
_cell_angle_alpha 90.000000
_cell_angle_beta 90.000000
_cell_angle_gamma 90.000000
_cell_volume 3573.191683
_symmetry_space_group_name_H-M "C C C M"
_symmetry_group_IT_number 66
_symmetry_cell_setting 'orthorhombic'
loop_
_space_group_symop_operation_xyz
x,y,z
-x,-y,z
x,-y,1/2-z
-x,y,1/2-z
-x,-y,-z
x,y,-z
-x,y,1/2+z
x,-y,1/2+z
1/2+x,1/2+y,z
1/2-x,1/2-y,z
1/2+x,1/2-y,1/2-z
1/2-x,1/2+y,1/2-z
1/2-x,1/2-y,-z
1/2+x,1/2+y,-z
1/2-x,1/2+y,1/2+z
1/2+x,1/2-y,1/2+z
loop_
_atom_site_type_symbol
_atom_site_label
_atom_site_fract_x
_atom_site_fract_y
_atom_site_fract_z
Si Si1 0.092054 0.157264 0.184321
Si Si2 0.467372 0.156420 0.815997
Si Si3 0.780008 0.842967 0.183858
Si Si4 0.843975 0.840941 0.683488
O O1 0.061952 0.247955 0.225030
O O2 0.123876 0.220611 0.253099
O O3 0.088544 0.000000 0.250000
O O4 0.094918 0.149985 0.000000
O O5 0.500000 0.211511 0.750000
O O6 0.463208 0.000000 0.750000
O O7 0.469578 0.148965 0.000000
O O8 0.750000 0.750000 0.219870
O O9 0.811634 0.779888 0.255064
O O10 0.775970 0.000000 0.250000
O O11 0.783595 0.851840 0.000000
O O12 0.844226 0.844326 0.500000
O O13 0.843877 0.000000 0.750000
#
# Coordination Sequence:
#
# PCOD9495352 Si02
#       4
#    16  16  16  16
#     4  10  20  34  53  78 104 132 168 210 253 298
#     4  10  21  36  55  76 102 136 171 207 250 302
#     4  10  20  34  53  76 103 135 170 209 252 300
#     4  10  18  30  51  75 101 134 168 206 252 301
#
# _framework density 17.911155999999998
#
# number of rings (size 3 to 8) (size 9 to 14) (size 15 to 20)
#    0.000    2.000    0.000    8.250    0.000    6.500 
#    0.000    3.750    0.000    0.000    0.000    0.000 
#    0.000    0.000    0.000    0.000    0.000    0.000 
#
# Total GULP energy -178550.676610 kJ/mol
# GULP energy per Si atom -5579.708644 kJ/mol
# Density = 1.787039 g / cm^3
# Si number density = 17.911156 Si / 1000 Ang^3
#
#
#
# Elastic Constant Matrix: (Units=GPa)
#
#
# Indices 1 2 3 4 5 6 
#
# 1 228.5727 66.7244 88.6074 0.0000 0.0000 0.0000
# 2 66.7244 39.5822 30.1814 0.0000 0.0000 0.0000
# 3 88.6074 30.1814 98.5962 0.0000 0.0000 0.0000
# 4 0.0000 0.0000 0.0000 19.6792 0.0000 0.0000
# 5 0.0000 0.0000 0.0000 0.0000 35.7441 0.0000
# 6 0.0000 0.0000 0.0000 0.0000 0.0000 28.2401
#
#
#
# Elastic Compliance Matrix: (Units=1/GPa)
#
#
# Indices 1 2 3 4 5 6 
#
# 1 0.010282 -0.013419 -0.005133 0.000000 0.000000 0.000000
# 2 -0.013419 0.050468 -0.003390 0.000000 0.000000 0.000000
# 3 -0.005133 -0.003390 0.015793 0.000000 0.000000 0.000000
# 4 0.000000 0.000000 0.000000 0.050815 0.000000 0.000000
# 5 0.000000 0.000000 0.000000 0.000000 0.027977 0.000000
# 6 0.000000 0.000000 0.000000 0.000000 0.000000 0.035411
#
#
# Mechanical properties :
#
#
# Convention : Reuss Voigt Hill
#
# Bulk Modulus (GPa) = 30.61762 81.97528 56.29645
# Shear Modulus (GPa) = 20.36543 28.81520 24.59032
#
# Velocity S-wave (km/s) = 3.37564 4.01532 3.70929
# Velocity P-wave (km/s) = 5.68547 8.20756 7.06005
#
# Compressibility (1/GPa) = 0.03266093
#
# Stress axis : x y z
#
# Youngs Moduli (GPa) = 97.25996 19.81436 63.32076
#
# Poissons Ratio (x) = 0.26588 0.32499
# Poissons Ratio (y) = 1.30508 0.21465
# Poissons Ratio (z) = 0.49919 0.06717
#
# Static dielectric constant tensor:
#      x y z
#    x 1.662530 0.000000 0.000000 
#    y 0.000000 1.592560 0.000000 
#    z 0.000000 0.000000 1.600310 
# 
# From -- ./inp_files/11190.got.cif
#   From: 2010.05.17/outbox.cif.g08.bks.cpg/sg66_6_cif.got.tgz:11190.got - 2010.06.03 17:51:23.
