data_PCOD9495050
_publ_section_title
;
Structure prediction by ZEFSAII (Michael W. Deem and Ramdas Pophale) SiO2 
 PCOD9495050
Probable space group: C C C M
;
_chemical_formula_sum "Si O2"
_cell_formula_units_Z 112
_cell_length_a 11.644367
_cell_length_b 27.184627
_cell_length_c 20.479497
_cell_angle_alpha 90.000000
_cell_angle_beta 90.000000
_cell_angle_gamma 90.000000
_cell_volume 6482.739179
_symmetry_space_group_name_H-M "C C C M"
_symmetry_group_IT_number 66
_symmetry_cell_setting 'orthorhombic'
loop_
_space_group_symop_operation_xyz
x,y,z
-x,-y,z
x,-y,1/2-z
-x,y,1/2-z
-x,-y,-z
x,y,-z
-x,y,1/2+z
x,-y,1/2+z
1/2+x,1/2+y,z
1/2-x,1/2-y,z
1/2+x,1/2-y,1/2-z
1/2-x,1/2+y,1/2-z
1/2-x,1/2-y,-z
1/2+x,1/2+y,-z
1/2-x,1/2+y,1/2+z
1/2+x,1/2-y,1/2+z
loop_
_atom_site_type_symbol
_atom_site_label
_atom_site_fract_x
_atom_site_fract_y
_atom_site_fract_z
Si Si1 0.710099 0.380313 0.147584
Si Si2 0.227682 0.648150 0.706186
Si Si3 0.439654 0.928459 0.355998
Si Si4 0.069070 0.652676 0.074255
Si Si5 0.825913 0.478137 0.821536
Si Si6 0.949988 0.724904 0.176770
Si Si7 0.471546 0.660406 0.327393
O O1 0.747028 0.355235 0.216777
O O2 0.801428 0.361625 0.094592
O O3 0.731022 0.438815 0.156646
O O4 0.578480 0.364789 0.136628
O O5 0.131772 0.608409 0.688961
O O6 0.175183 0.700104 0.683723
O O7 0.345278 0.637137 0.667707
O O8 0.489387 0.895773 0.414839
O O9 0.554321 0.948062 0.320648
O O10 0.358048 0.975514 0.367582
O O11 0.021870 0.692680 0.125386
O O12 0.062574 0.669426 0.000000
O O13 0.801004 0.500000 0.750000
O O14 0.957895 0.781832 0.157481
O O15 0.000000 0.720161 0.250000
O O16 0.500000 0.657321 0.250000
#
# Coordination Sequence:
#
# PCOD9495050 Si02
#       7
#    16  16  16  16  16  16  16
#     4  10  19  32  49  72 111 145 172 217 274 319
#     4  10  17  30  52  77 103 136 174 223 266 316
#     4   9  18  28  51  77 101 130 172 216 271 315
#     4  10  21  34  53  82 113 137 176 228 276 324
#     4  10  17  27  51  79 104 137 176 216 274 328
#     4  10  18  32  56  77 100 141 183 220 276 325
#     4   9  20  32  47  75 108 138 181 223 256 318
#
# _framework density 17.276648000000002
#
# number of rings (size 3 to 8) (size 9 to 14) (size 15 to 20)
#    0.000    2.286    2.857    1.286    2.000    0.571 
#    0.000    7.857    0.000   10.286    0.000    0.000 
#    0.000   14.857    0.000    0.000    0.000    0.000 
#
# Total GULP energy -311866.557571 kJ/mol
# GULP energy per Si atom -5569.045671 kJ/mol
# Density = 1.723733 g / cm^3
# Si number density = 17.276648 Si / 1000 Ang^3
#
#
#
# Elastic Constant Matrix: (Units=GPa)
#
#
# Indices 1 2 3 4 5 6 
#
# 1 75.3341 26.8988 8.4545 0.0000 0.0000 0.0000
# 2 26.8988 78.8850 10.8446 0.0000 0.0000 0.0000
# 3 8.4545 10.8446 57.7495 0.0000 0.0000 0.0000
# 4 0.0000 0.0000 0.0000 4.7051 0.0000 0.0000
# 5 0.0000 0.0000 0.0000 0.0000 11.1380 0.0000
# 6 0.0000 0.0000 0.0000 0.0000 0.0000 20.7483
#
#
#
# Elastic Compliance Matrix: (Units=1/GPa)
#
#
# Indices 1 2 3 4 5 6 
#
# 1 0.015207 -0.005009 -0.001286 0.000000 0.000000 0.000000
# 2 -0.005009 0.014662 -0.002020 0.000000 0.000000 0.000000
# 3 -0.001286 -0.002020 0.017884 0.000000 0.000000 0.000000
# 4 0.000000 0.000000 0.000000 0.212536 0.000000 0.000000
# 5 0.000000 0.000000 0.000000 0.000000 0.089783 0.000000
# 6 0.000000 0.000000 0.000000 0.000000 0.000000 0.048197
#
#
# Mechanical properties :
#
#
# Convention : Reuss Voigt Hill
#
# Bulk Modulus (GPa) = 32.12958 33.81828 32.97393
# Shear Modulus (GPa) = 11.75718 18.36966 15.06342
#
# Velocity S-wave (km/s) = 2.61152 3.26431 2.95599
# Velocity P-wave (km/s) = 5.26601 5.81590 5.54777
#
# Compressibility (1/GPa) = 0.03112396
#
# Stress axis : x y z
#
# Youngs Moduli (GPa) = 65.75977 68.20227 55.91672
#
# Poissons Ratio (x) = 0.34160 0.07189
# Poissons Ratio (y) = 0.32936 0.11296
# Poissons Ratio (z) = 0.08455 0.13778
#
# Static dielectric constant tensor:
#      x y z
#    x 1.612420 0.000000 0.000000 
#    y 0.000000 1.637250 0.000000 
#    z 0.000000 0.000000 1.561140 
# 
# From -- ./inp_files/49137.got.cif
#   From: 2010.05.17/outbox.cif.g08.bks.cpg/sg66_25_cif.got.tgz:49137.got - 2010.06.03 17:51:23.
