data_PCOD9495128
_publ_section_title
;
Structure prediction by ZEFSAII (Michael W. Deem and Ramdas Pophale) SiO2 
 PCOD9495128
Probable space group: C C C M
;
_chemical_formula_sum "Si O2"
_cell_formula_units_Z 96
_cell_length_a 15.700056
_cell_length_b 20.682958
_cell_length_c 13.803038
_cell_angle_alpha 90.000000
_cell_angle_beta 90.000000
_cell_angle_gamma 90.000000
_cell_volume 4482.172174
_symmetry_space_group_name_H-M "C C C M"
_symmetry_group_IT_number 66
_symmetry_cell_setting 'orthorhombic'
loop_
_space_group_symop_operation_xyz
x,y,z
-x,-y,z
x,-y,1/2-z
-x,y,1/2-z
-x,-y,-z
x,y,-z
-x,y,1/2+z
x,-y,1/2+z
1/2+x,1/2+y,z
1/2-x,1/2-y,z
1/2+x,1/2-y,1/2-z
1/2-x,1/2+y,1/2-z
1/2-x,1/2-y,-z
1/2+x,1/2+y,-z
1/2-x,1/2+y,1/2+z
1/2+x,1/2-y,1/2+z
loop_
_atom_site_type_symbol
_atom_site_label
_atom_site_fract_x
_atom_site_fract_y
_atom_site_fract_z
Si Si1 0.372275 0.416617 0.680895
Si Si2 0.809215 0.590765 0.107995
Si Si3 0.107386 0.944635 0.393595
Si Si4 0.405033 0.845693 0.222740
Si Si5 0.349566 0.728347 0.111275
Si Si6 0.190753 0.448700 0.387369
O O1 0.407459 0.478147 0.621028
O O2 0.413411 0.415300 0.788020
O O3 0.368649 0.346541 0.633055
O O4 0.272171 0.437228 0.681235
O O5 0.708312 0.574599 0.103631
O O6 0.842098 0.640455 0.187308
O O7 0.847533 0.519555 0.129259
O O8 0.834576 0.611608 0.000000
O O9 0.073633 0.924754 0.500000
O O10 0.500000 0.863307 0.250000
O O11 0.399649 0.772948 0.185683
O O12 0.373009 0.891668 0.136494
O O13 0.250000 0.750000 0.122374
O O14 0.372275 0.741733 0.000000
O O15 0.218902 0.445675 0.500000
#
# Coordination Sequence:
#
# PCOD9495128 Si02
#       6
#    16  16  16  16  16  16
#     4  10  17  30  53  81 110 136 176 232 277 313
#     4   9  18  32  49  69 100 142 182 217 261 315
#     4   9  16  28  51  81 110 137 169 218 280 336
#     4  12  24  35  48  73 111 148 181 220 271 324
#     4  11  21  35  57  80 103 140 191 238 273 313
#     4  10  18  32  53  75  99 136 186 233 269 308
#
# _framework density 21.418188000000001
#
# number of rings (size 3 to 8) (size 9 to 14) (size 15 to 20)
#    0.000    1.833    3.333    3.500    0.000    2.667 
#    0.000    2.500    0.000    3.000    0.000    2.333 
#    0.000    6.667    0.000    0.000    0.000    0.000 
#
# Total GULP energy -267793.997974 kJ/mol
# GULP energy per Si atom -5579.041624 kJ/mol
# Density = 2.136944 g / cm^3
# Si number density = 21.418188 Si / 1000 Ang^3
#
#
#
# Elastic Constant Matrix: (Units=GPa)
#
#
# Indices 1 2 3 4 5 6 
#
# 1 54.1289 16.0000 27.6162 0.0000 0.0000 0.0000
# 2 16.0000 92.1160 36.8557 0.0000 0.0000 0.0000
# 3 27.6162 36.8557 158.0244 0.0000 0.0000 0.0000
# 4 0.0000 0.0000 0.0000 27.6576 0.0000 0.0000
# 5 0.0000 0.0000 0.0000 0.0000 14.5883 0.0000
# 6 0.0000 0.0000 0.0000 0.0000 0.0000 10.7501
#
#
#
# Elastic Compliance Matrix: (Units=1/GPa)
#
#
# Indices 1 2 3 4 5 6 
#
# 1 0.020743 -0.002374 -0.003071 0.000000 0.000000 0.000000
# 2 -0.002374 0.012245 -0.002441 0.000000 0.000000 0.000000
# 3 -0.003071 -0.002441 0.007434 0.000000 0.000000 0.000000
# 4 0.000000 0.000000 0.000000 0.036156 0.000000 0.000000
# 5 0.000000 0.000000 0.000000 0.000000 0.068548 0.000000
# 6 0.000000 0.000000 0.000000 0.000000 0.000000 0.093023
#
#
# Mechanical properties :
#
#
# Convention : Reuss Voigt Hill
#
# Bulk Modulus (GPa) = 40.56896 51.69037 46.12966
# Shear Modulus (GPa) = 19.07389 25.51902 22.29646
#
# Velocity S-wave (km/s) = 2.98744 3.45551 3.22996
# Velocity P-wave (km/s) = 5.55718 6.33300 5.95773
#
# Compressibility (1/GPa) = 0.02464939
#
# Stress axis : x y z
#
# Youngs Moduli (GPa) = 48.20866 81.66687 134.51384
#
# Poissons Ratio (x) = 0.19389 0.41314
# Poissons Ratio (y) = 0.11445 0.32834
# Poissons Ratio (z) = 0.14807 0.19934
#
# Static dielectric constant tensor:
#      x y z
#    x 1.844100 0.000000 0.000000 
#    y 0.000000 1.789440 0.000000 
#    z 0.000000 0.000000 1.792870 
# 
# From -- ./inp_files/28367.got.cif
#   From: 2010.05.17/outbox.cif.g08.bks.cpg/sg66_15_cif.got.tgz:28367.got - 2010.06.03 17:51:23.
