data_PCOD9495315
_publ_section_title
;
Structure prediction by ZEFSAII (Michael W. Deem and Ramdas Pophale) SiO2 
 PCOD9495315
Probable space group: C C C M
;
_chemical_formula_sum "Si O2"
_cell_formula_units_Z 96
_cell_length_a 25.932005
_cell_length_b 26.304594
_cell_length_c 8.312596
_cell_angle_alpha 90.000000
_cell_angle_beta 90.000000
_cell_angle_gamma 90.000000
_cell_volume 5670.278284
_symmetry_space_group_name_H-M "C C C M"
_symmetry_group_IT_number 66
_symmetry_cell_setting 'orthorhombic'
loop_
_space_group_symop_operation_xyz
x,y,z
-x,-y,z
x,-y,1/2-z
-x,y,1/2-z
-x,-y,-z
x,y,-z
-x,y,1/2+z
x,-y,1/2+z
1/2+x,1/2+y,z
1/2-x,1/2-y,z
1/2+x,1/2-y,1/2-z
1/2-x,1/2+y,1/2-z
1/2-x,1/2-y,-z
1/2+x,1/2+y,-z
1/2-x,1/2+y,1/2+z
1/2+x,1/2-y,1/2+z
loop_
_atom_site_type_symbol
_atom_site_label
_atom_site_fract_x
_atom_site_fract_y
_atom_site_fract_z
Si Si1 0.446690 0.236115 0.809462
Si Si2 0.665357 0.247766 0.805715
Si Si3 0.863576 0.550329 0.814299
Si Si4 0.054885 0.377598 0.687096
Si Si5 0.249391 0.554975 0.185637
Si Si6 0.751401 0.667814 0.304423
O O1 0.500000 0.262301 0.750000
O O2 0.390375 0.258320 0.770130
O O3 0.445240 0.182575 0.715423
O O4 0.450977 0.227454 0.000000
O O5 0.705559 0.292879 0.768215
O O6 0.694921 0.195460 0.753289
O O7 0.659633 0.245218 0.000000
O O8 0.892015 0.500000 0.750000
O O9 0.899667 0.597909 0.787992
O O10 0.812458 0.554015 0.707474
O O11 0.848707 0.545045 0.000000
O O12 0.062013 0.389065 0.500000
O O13 0.000000 0.397064 0.750000
O O14 0.267954 0.500000 0.250000
O O15 0.261147 0.611052 0.257635
O O16 0.264195 0.556203 0.000000
O O17 0.754990 0.664540 0.500000
#
# Coordination Sequence:
#
# PCOD9495315 Si02
#       6
#    16  16  16  16  16  16
#     4  11  21  33  48  69  93 122 154 189 229 276
#     4   9  16  31  51  71  93 123 158 197 237 282
#     4  11  21  33  46  63  84 112 148 189 232 275
#     4  11  21  34  48  63  82 110 146 188 231 274
#     4  10  18  30  46  67  92 123 156 189 226 273
#     4   8  16  29  49  71  94 124 159 192 236 286
#
# _framework density 16.930385999999999
#
# number of rings (size 3 to 8) (size 9 to 14) (size 15 to 20)
#    0.000    2.000    0.000    9.000    0.000    1.667 
#    0.000    5.833    0.000    0.000    0.000    0.000 
#    0.000    0.667    0.000    7.667    0.000    2.333 
#
# Total GULP energy -267424.131761 kJ/mol
# GULP energy per Si atom -5571.336078 kJ/mol
# Density = 1.689185 g / cm^3
# Si number density = 16.930386 Si / 1000 Ang^3
#
#
#
# Elastic Constant Matrix: (Units=GPa)
#
#
# Indices 1 2 3 4 5 6 
#
# 1 78.2910 20.1775 8.5070 0.0000 0.0000 0.0000
# 2 20.1775 89.2039 5.8241 0.0000 0.0000 0.0000
# 3 8.5070 5.8241 42.0785 0.0000 0.0000 0.0000
# 4 0.0000 0.0000 0.0000 -42.9528 0.0000 0.0000
# 5 0.0000 0.0000 0.0000 0.0000 14.0094 0.0000
# 6 0.0000 0.0000 0.0000 0.0000 0.0000 9.1008
#
#
#
# Elastic Compliance Matrix: (Units=1/GPa)
#
#
# Indices 1 2 3 4 5 6 
#
# 1 0.013796 -0.002965 -0.002379 0.000000 0.000000 0.000000
# 2 -0.002965 0.011950 -0.001055 0.000000 0.000000 0.000000
# 3 -0.002379 -0.001055 0.024392 0.000000 0.000000 0.000000
# 4 0.000000 0.000000 0.000000 -0.023281 0.000000 0.000000
# 5 0.000000 0.000000 0.000000 0.000000 0.071381 0.000000
# 6 0.000000 0.000000 0.000000 0.000000 0.000000 0.109881
#
#
# Mechanical properties :
#
#
# Convention : Reuss Voigt Hill
#
# Bulk Modulus (GPa) = 26.78045 30.95451 28.86748
# Shear Modulus (GPa) = 21.42604 7.70246 14.56425
#
# Velocity S-wave (km/s) = 3.56130 2.13527 2.93617
# Velocity P-wave (km/s) = 5.72388 4.93986 5.34626
#
# Compressibility (1/GPa) = 0.03734067
#
# Stress axis : x y z
#
# Youngs Moduli (GPa) = 72.48733 83.68316 40.99711
#
# Poissons Ratio (x) = 0.24814 0.09752
# Poissons Ratio (y) = 0.21494 0.04323
# Poissons Ratio (z) = 0.17242 0.08825
#
# Static dielectric constant tensor:
#      x y z
#    x 1.588090 0.000000 0.000000 
#    y 0.000000 1.634130 0.000000 
#    z 0.000000 0.000000 1.588400 
# 
# From -- ./inp_files/9310.got.cif
#   From: 2010.05.17/outbox.cif.g08.bks.cpg/sg66_5_cif.got.tgz:9310.got - 2010.06.03 17:51:23.
