data_PCOD9495253
_publ_section_title
;
Structure prediction by ZEFSAII (Michael W. Deem and Ramdas Pophale) SiO2 
 PCOD9495253
Probable space group: C C C M
;
_chemical_formula_sum "Si O2"
_cell_formula_units_Z 96
_cell_length_a 20.354424
_cell_length_b 15.375240
_cell_length_c 17.883442
_cell_angle_alpha 90.000000
_cell_angle_beta 90.000000
_cell_angle_gamma 90.000000
_cell_volume 5596.697463
_symmetry_space_group_name_H-M "C C C M"
_symmetry_group_IT_number 66
_symmetry_cell_setting 'orthorhombic'
loop_
_space_group_symop_operation_xyz
x,y,z
-x,-y,z
x,-y,1/2-z
-x,y,1/2-z
-x,-y,-z
x,y,-z
-x,y,1/2+z
x,-y,1/2+z
1/2+x,1/2+y,z
1/2-x,1/2-y,z
1/2+x,1/2-y,1/2-z
1/2-x,1/2+y,1/2-z
1/2-x,1/2-y,-z
1/2+x,1/2+y,-z
1/2-x,1/2+y,1/2+z
1/2+x,1/2-y,1/2+z
loop_
_atom_site_type_symbol
_atom_site_label
_atom_site_fract_x
_atom_site_fract_y
_atom_site_fract_z
Si Si1 0.948532 0.627170 0.590538
Si Si2 0.429855 0.686736 0.156656
Si Si3 0.321115 0.783748 0.590205
Si Si4 0.914009 0.846692 0.825153
Si Si5 0.579371 0.510650 0.582778
Si Si6 0.593772 0.939171 0.090581
O O1 0.946314 0.635023 0.500000
O O2 0.922886 0.715750 0.626630
O O3 0.909928 0.539685 0.614230
O O4 0.024870 0.607784 0.611528
O O5 0.508292 0.669899 0.163991
O O6 0.399958 0.671670 0.238582
O O7 0.405177 0.610156 0.102466
O O8 0.322307 0.782003 0.500000
O O9 0.250000 0.750000 0.614931
O O10 0.374763 0.718181 0.622147
O O11 0.345015 0.879976 0.614258
O O12 0.898591 0.944008 0.853221
O O13 0.500000 0.500000 0.580615
O O14 0.604136 0.486658 0.500000
O O15 0.593270 0.941480 0.000000
#
# Coordination Sequence:
#
# PCOD9495253 Si02
#       6
#    16  16  16  16  16  16
#     4   9  15  26  47  71  99 133 161 199 252 312
#     4  10  18  28  46  70 101 133 158 196 261 323
#     4  10  19  32  52  73  96 132 176 218 254 299
#     4  10  19  30  44  69 103 126 159 206 263 306
#     4   9  17  28  45  69  95 126 160 199 246 305
#     4   8  15  27  45  71  99 126 163 206 252 298
#
# _framework density 17.152971999999998
#
# number of rings (size 3 to 8) (size 9 to 14) (size 15 to 20)
#    0.000    2.667    1.667    2.500    0.000    3.333 
#    0.000    0.833    0.000    4.000    0.000    0.000 
#    0.000    8.000    0.000    0.000    0.000    0.000 
#
# Total GULP energy -267267.424225 kJ/mol
# GULP energy per Si atom -5568.071338 kJ/mol
# Density = 1.711393 g / cm^3
# Si number density = 17.152972 Si / 1000 Ang^3
#
#
#
# Elastic Constant Matrix: (Units=GPa)
#
#
# Indices 1 2 3 4 5 6 
#
# 1 34.3963 29.8271 11.6302 0.0000 0.0000 0.0000
# 2 29.8271 173.2641 46.8144 0.0000 0.0000 0.0000
# 3 11.6302 46.8144 47.8347 0.0000 0.0000 0.0000
# 4 0.0000 0.0000 0.0000 -4.1880 0.0000 0.0000
# 5 0.0000 0.0000 0.0000 0.0000 10.9109 0.0000
# 6 0.0000 0.0000 0.0000 0.0000 0.0000 18.5099
#
#
#
# Elastic Compliance Matrix: (Units=1/GPa)
#
#
# Indices 1 2 3 4 5 6 
#
# 1 0.034603 -0.005008 -0.003512 0.000000 0.000000 0.000000
# 2 -0.005008 0.008571 -0.007171 0.000000 0.000000 0.000000
# 3 -0.003512 -0.007171 0.028777 0.000000 0.000000 0.000000
# 4 0.000000 0.000000 0.000000 -0.238780 0.000000 0.000000
# 5 0.000000 0.000000 0.000000 0.000000 0.091652 0.000000
# 6 0.000000 0.000000 0.000000 0.000000 0.000000 0.054025
#
#
# Mechanical properties :
#
#
# Convention : Reuss Voigt Hill
#
# Bulk Modulus (GPa) = 24.64890 48.00429 36.32660
# Shear Modulus (GPa) = 210.50235 16.19480 113.34858
#
# Velocity S-wave (km/s) = 11.08995 3.07602 8.13784
# Velocity P-wave (km/s) = 13.35605 6.37672 10.46534
#
# Compressibility (1/GPa) = 0.04056976
#
# Stress axis : x y z
#
# Youngs Moduli (GPa) = 28.89918 116.67134 34.75008
#
# Poissons Ratio (x) = 0.58428 0.12204
# Poissons Ratio (y) = 0.14472 0.24918
# Poissons Ratio (z) = 0.10150 0.83661
#
# Static dielectric constant tensor:
#      x y z
#    x 1.571540 0.000000 0.000000 
#    y 0.000000 1.607540 0.000000 
#    z 0.000000 0.000000 1.588100 
# 
# From -- ./inp_files/31176.got.cif
#   From: 2010.05.17/outbox.cif.g08.bks.cpg/sg66_16_cif.got.tgz:31176.got - 2010.06.03 17:51:23.
