data_PCOD9495081
_publ_section_title
;
Structure prediction by ZEFSAII (Michael W. Deem and Ramdas Pophale) SiO2 
 PCOD9495081
Probable space group: C C C M
;
_chemical_formula_sum "Si O2"
_cell_formula_units_Z 80
_cell_length_a 27.635906
_cell_length_b 8.345451
_cell_length_c 18.443283
_cell_angle_alpha 90.000000
_cell_angle_beta 90.000000
_cell_angle_gamma 90.000000
_cell_volume 4253.649964
_symmetry_space_group_name_H-M "C C C M"
_symmetry_group_IT_number 66
_symmetry_cell_setting 'orthorhombic'
loop_
_space_group_symop_operation_xyz
x,y,z
-x,-y,z
x,-y,1/2-z
-x,y,1/2-z
-x,-y,-z
x,y,-z
-x,y,1/2+z
x,-y,1/2+z
1/2+x,1/2+y,z
1/2-x,1/2-y,z
1/2+x,1/2-y,1/2-z
1/2-x,1/2+y,1/2-z
1/2-x,1/2-y,-z
1/2+x,1/2+y,-z
1/2-x,1/2+y,1/2+z
1/2+x,1/2-y,1/2+z
loop_
_atom_site_type_symbol
_atom_site_label
_atom_site_fract_x
_atom_site_fract_y
_atom_site_fract_z
Si Si1 0.353541 0.829675 0.717163
Si Si2 0.445207 0.311995 0.730825
Si Si3 0.445097 0.432268 0.417637
Si Si4 0.845101 0.874069 0.915423
Si Si5 0.287015 0.388730 0.314015
O O1 0.410405 0.800582 0.724611
O O2 0.339167 0.782240 0.635550
O O3 0.330099 0.697864 0.770280
O O4 0.341328 0.000000 0.750000
O O5 0.436022 0.500000 0.750000
O O6 0.500000 0.278474 0.750000
O O7 0.436945 0.302536 0.644790
O O8 0.500000 0.500000 0.405706
O O9 0.443355 0.371977 0.500000
O O10 0.400743 0.559468 0.410686
O O11 0.809900 0.005996 0.878146
O O12 0.834301 0.849168 0.000000
O O13 0.264625 0.500000 0.250000
O O14 0.250000 0.250000 0.337286
#
# Coordination Sequence:
#
# PCOD9495081 Si02
#       5
#    16  16  16  16  16
#     4  11  21  35  54  80 114 152 190 230 283 345
#     4  11  17  31  52  77 108 144 195 244 277 339
#     4  10  17  28  51  80 108 144 187 235 288 336
#     4  10  20  36  57  84 116 148 189 244 292 339
#     4  10  20  37  61  84 111 146 194 236 283 342
#
# _framework density 18.807376999999999
#
# number of rings (size 3 to 8) (size 9 to 14) (size 15 to 20)
#    0.000    1.600    6.000    1.200    0.000    0.800 
#    0.000    2.000    0.000   20.400    0.000    7.000 
#    0.000    0.000    0.000    0.000    0.000    0.000 
#
# Total GULP energy -222975.137613 kJ/mol
# GULP energy per Si atom -5574.378440 kJ/mol
# Density = 1.876457 g / cm^3
# Si number density = 18.807377 Si / 1000 Ang^3
#
#
#
# Elastic Constant Matrix: (Units=GPa)
#
#
# Indices 1 2 3 4 5 6 
#
# 1 79.6538 36.3233 27.0173 0.0000 0.0000 0.0000
# 2 36.3233 82.0841 51.2045 0.0000 0.0000 0.0000
# 3 27.0173 51.2045 178.0792 0.0000 0.0000 0.0000
# 4 0.0000 0.0000 0.0000 19.0460 0.0000 0.0000
# 5 0.0000 0.0000 0.0000 0.0000 5.7428 0.0000
# 6 0.0000 0.0000 0.0000 0.0000 0.0000 13.1025
#
#
#
# Elastic Compliance Matrix: (Units=1/GPa)
#
#
# Indices 1 2 3 4 5 6 
#
# 1 0.015760 -0.006681 -0.000470 0.000000 0.000000 0.000000
# 2 -0.006681 0.017678 -0.004069 0.000000 0.000000 0.000000
# 3 -0.000470 -0.004069 0.006857 0.000000 0.000000 0.000000
# 4 0.000000 0.000000 0.000000 0.052504 0.000000 0.000000
# 5 0.000000 0.000000 0.000000 0.000000 0.174131 0.000000
# 6 0.000000 0.000000 0.000000 0.000000 0.000000 0.076321
#
#
# Mechanical properties :
#
#
# Convention : Reuss Voigt Hill
#
# Bulk Modulus (GPa) = 56.00970 63.21194 59.61082
# Shear Modulus (GPa) = 13.45373 22.59640 18.02506
#
# Velocity S-wave (km/s) = 2.67749 3.46998 3.09917
# Velocity P-wave (km/s) = 6.27726 7.05248 6.67613
#
# Compressibility (1/GPa) = 0.01785405
#
# Stress axis : x y z
#
# Youngs Moduli (GPa) = 63.45030 56.56906 145.83881
#
# Poissons Ratio (x) = 0.37793 0.06855
# Poissons Ratio (y) = 0.42391 0.59347
# Poissons Ratio (z) = 0.02983 0.23020
#
# Static dielectric constant tensor:
#      x y z
#    x 1.696550 0.000000 0.000000 
#    y 0.000000 1.668970 0.000000 
#    z 0.000000 0.000000 1.667230 
# 
# From -- ./inp_files/44125.got.cif
#   From: 2010.05.17/outbox.cif.g08.bks.cpg/sg66_23_cif.got.tgz:44125.got - 2010.06.03 17:51:23.
