data_PCOD9495178
_publ_section_title
;
Structure prediction by ZEFSAII (Michael W. Deem and Ramdas Pophale) SiO2 
 PCOD9495178
Probable space group: C C C M
;
_chemical_formula_sum "Si O2"
_cell_formula_units_Z 52
_cell_length_a 11.783807
_cell_length_b 8.256091
_cell_length_c 18.986043
_cell_angle_alpha 90.000000
_cell_angle_beta 90.000000
_cell_angle_gamma 90.000000
_cell_volume 1847.117624
_symmetry_space_group_name_H-M "C C C M"
_symmetry_group_IT_number 66
_symmetry_cell_setting 'orthorhombic'
loop_
_space_group_symop_operation_xyz
x,y,z
-x,-y,z
x,-y,1/2-z
-x,y,1/2-z
-x,-y,-z
x,y,-z
-x,y,1/2+z
x,-y,1/2+z
1/2+x,1/2+y,z
1/2-x,1/2-y,z
1/2+x,1/2-y,1/2-z
1/2-x,1/2+y,1/2-z
1/2-x,1/2-y,-z
1/2+x,1/2+y,-z
1/2-x,1/2+y,1/2+z
1/2+x,1/2-y,1/2+z
loop_
_atom_site_type_symbol
_atom_site_label
_atom_site_fract_x
_atom_site_fract_y
_atom_site_fract_z
Si Si1 0.000000 0.000000 0.750000
Si Si2 0.332638 0.094505 0.658055
Si Si3 0.090394 0.735346 0.654821
Si Si4 0.940326 0.175830 0.500000
Si Si5 0.159876 0.391346 0.500000
O O1 0.081510 0.106555 0.798075
O O2 0.250000 0.250000 0.669310
O O3 0.459905 0.168941 0.659288
O O4 0.337313 0.089188 0.810738
O O5 0.320300 0.034860 0.575963
O O6 0.116809 0.796356 0.575657
O O7 0.035624 0.315327 0.500000
O O8 0.000000 0.000000 0.500000
O O9 0.250000 0.250000 0.500000
#
# Coordination Sequence:
#
# PCOD9495178 Si02
#       5
#     4  16  16   8   8
#     4  12  24  40  56  88 140 178 224 274 344 414
#     4   9  18  36  62  90 122 167 229 280 339 407
#     4  10  21  37  62  91 127 175 220 281 343 409
#     4  10  17  33  60  90 127 172 220 271 342 421
#     4   8  15  29  57  89 125 157 213 276 330 396
#
# _framework density 28.151969000000001
#
# number of rings (size 3 to 8) (size 9 to 14) (size 15 to 20)
#    0.000    2.462    1.538    0.923    0.000    6.154 
#    0.000    4.615    0.000    5.538    0.000    0.000 
#    0.000    0.000    0.000    4.154    0.000    0.000 
#
# Total GULP energy -145359.346700 kJ/mol
# GULP energy per Si atom -5590.744104 kJ/mol
# Density = 2.808789 g / cm^3
# Si number density = 28.151969 Si / 1000 Ang^3
#
#
#
# Elastic Constant Matrix: (Units=GPa)
#
#
# Indices 1 2 3 4 5 6 
#
# 1 153.8856 66.5605 26.6444 0.0000 0.0000 0.0000
# 2 66.5605 275.9006 94.9435 0.0000 0.0000 0.0000
# 3 26.6444 94.9435 132.9133 0.0000 0.0000 0.0000
# 4 0.0000 0.0000 0.0000 2.1528 0.0000 0.0000
# 5 0.0000 0.0000 0.0000 0.0000 -4.3839 0.0000
# 6 0.0000 0.0000 0.0000 0.0000 0.0000 46.8617
#
#
#
# Elastic Compliance Matrix: (Units=1/GPa)
#
#
# Indices 1 2 3 4 5 6 
#
# 1 0.007263 -0.001659 -0.000271 0.000000 0.000000 0.000000
# 2 -0.001659 0.005185 -0.003371 0.000000 0.000000 0.000000
# 3 -0.000271 -0.003371 0.009986 0.000000 0.000000 0.000000
# 4 0.000000 0.000000 0.000000 0.464518 0.000000 0.000000
# 5 0.000000 0.000000 0.000000 0.000000 -0.228107 0.000000
# 6 0.000000 0.000000 0.000000 0.000000 0.000000 0.021339
#
#
# Mechanical properties :
#
#
# Convention : Reuss Voigt Hill
#
# Bulk Modulus (GPa) = 84.51799 104.33292 94.42545
# Shear Modulus (GPa) = 16.96470 33.89619 25.43044
#
# Velocity S-wave (km/s) = 2.45748 3.47370 3.00880
# Velocity P-wave (km/s) = 6.17572 7.29588 6.75904
#
# Compressibility (1/GPa) = 0.01183180
#
# Stress axis : x y z
#
# Youngs Moduli (GPa) = 137.68851 192.87310 100.13969
#
# Poissons Ratio (x) = 0.31996 0.02713
# Poissons Ratio (y) = 0.22841 0.33758
# Poissons Ratio (z) = 0.03730 0.65019
#
# Static dielectric constant tensor:
#      x y z
#    x 2.188880 0.000000 0.000000 
#    y 0.000000 2.168720 0.000000 
#    z 0.000000 0.000000 2.463410 
# 
# From -- ./inp_files/25951.got.cif
#   From: 2010.05.17/outbox.cif.g08.bks.cpg/sg66_13_cif.got.tgz:25951.got - 2010.06.03 17:51:23.
