data_PCOD9495343
_publ_section_title
;
Structure prediction by ZEFSAII (Michael W. Deem and Ramdas Pophale) SiO2 
 PCOD9495343
Probable space group: C C C M
;
_chemical_formula_sum "Si O2"
_cell_formula_units_Z 116
_cell_length_a 27.349405
_cell_length_b 27.259334
_cell_length_c 8.934452
_cell_angle_alpha 90.000000
_cell_angle_beta 90.000000
_cell_angle_gamma 90.000000
_cell_volume 6660.871315
_symmetry_space_group_name_H-M "C C C M"
_symmetry_group_IT_number 66
_symmetry_cell_setting 'orthorhombic'
loop_
_space_group_symop_operation_xyz
x,y,z
-x,-y,z
x,-y,1/2-z
-x,y,1/2-z
-x,-y,-z
x,y,-z
-x,y,1/2+z
x,-y,1/2+z
1/2+x,1/2+y,z
1/2-x,1/2-y,z
1/2+x,1/2-y,1/2-z
1/2-x,1/2+y,1/2-z
1/2-x,1/2-y,-z
1/2+x,1/2+y,-z
1/2-x,1/2+y,1/2+z
1/2+x,1/2-y,1/2+z
loop_
_atom_site_type_symbol
_atom_site_label
_atom_site_fract_x
_atom_site_fract_y
_atom_site_fract_z
Si Si1 0.450123 0.795234 0.319772
Si Si2 0.427283 0.313985 0.173499
Si Si3 0.000000 0.000000 0.250000
Si Si4 0.149219 0.679742 0.822935
Si Si5 0.250090 0.357740 0.320665
Si Si6 0.921871 0.080094 0.327618
Si Si7 0.180289 0.051472 0.321403
Si Si8 0.181975 0.779330 0.673338
O O1 0.500000 0.814994 0.250000
O O2 0.451215 0.794982 0.500000
O O3 0.444803 0.738249 0.263121
O O4 0.401716 0.823139 0.264702
O O5 0.440728 0.367391 0.235672
O O6 0.368372 0.310429 0.179735
O O7 0.443235 0.313283 0.000000
O O8 0.962722 0.962083 0.171972
O O9 0.192265 0.641129 0.787820
O O10 0.172279 0.731975 0.774255
O O11 0.139704 0.679292 0.000000
O O12 0.255047 0.349323 0.500000
O O13 0.281170 0.405918 0.282481
O O14 0.274789 0.312718 0.233726
O O15 0.906955 0.088590 0.500000
O O16 0.873940 0.064243 0.237567
O O17 0.178269 0.047219 0.500000
O O18 0.194978 0.000000 0.250000
O O19 0.188928 0.764834 0.500000
#
# Coordination Sequence:
#
# PCOD9495343 Si02
#       8
#    16  16   4  16  16  16  16  16
#     4  10  20  35  53  76 104 139 178 214 255 307
#     4   8  17  32  49  68  95 130 168 211 257 307
#     4  12  26  32  56  78  94 124 178 236 280 316
#     4  10  20  34  51  74 107 140 171 213 256 307
#     4  10  21  35  52  76 104 136 172 210 263 320
#     4  11  22  39  54  70  97 129 169 223 277 320
#     4  11  23  39  58  78 100 131 172 218 268 326
#     4  10  18  30  50  76 103 134 170 211 258 314
#
# _framework density 17.415139
#
# number of rings (size 3 to 8) (size 9 to 14) (size 15 to 20)
#    0.000    1.931    2.069    3.103    0.966    3.862 
#    0.000    0.690    0.000    0.000    0.000    0.000 
#    0.000    0.552    0.000    6.345    0.000    1.931 
#
# Total GULP energy -323437.616928 kJ/mol
# GULP energy per Si atom -5576.510637 kJ/mol
# Density = 1.737550 g / cm^3
# Si number density = 17.415139 Si / 1000 Ang^3
#
#
#
# Elastic Constant Matrix: (Units=GPa)
#
#
# Indices 1 2 3 4 5 6 
#
# 1 134.0434 34.5511 42.5396 0.0000 0.0000 0.0000
# 2 34.5511 41.7073 17.1503 0.0000 0.0000 0.0000
# 3 42.5396 17.1503 48.4208 0.0000 0.0000 0.0000
# 4 0.0000 0.0000 0.0000 12.1082 0.0000 0.0000
# 5 0.0000 0.0000 0.0000 0.0000 17.0936 0.0000
# 6 0.0000 0.0000 0.0000 0.0000 0.0000 23.0335
#
#
#
# Elastic Compliance Matrix: (Units=1/GPa)
#
#
# Indices 1 2 3 4 5 6 
#
# 1 0.011626 -0.006357 -0.007962 0.000000 0.000000 0.000000
# 2 -0.006357 0.031540 -0.005586 0.000000 0.000000 0.000000
# 3 -0.007962 -0.005586 0.029626 0.000000 0.000000 0.000000
# 4 0.000000 0.000000 0.000000 0.082588 0.000000 0.000000
# 5 0.000000 0.000000 0.000000 0.000000 0.058501 0.000000
# 6 0.000000 0.000000 0.000000 0.000000 0.000000 0.043415
#
#
# Mechanical properties :
#
#
# Convention : Reuss Voigt Hill
#
# Bulk Modulus (GPa) = 30.32065 45.85039 38.08552
# Shear Modulus (GPa) = 16.22847 19.10911 17.66879
#
# Velocity S-wave (km/s) = 3.05595 3.31610 3.18868
# Velocity P-wave (km/s) = 5.46810 6.40680 5.95597
#
# Compressibility (1/GPa) = 0.03298082
#
# Stress axis : x y z
#
# Youngs Moduli (GPa) = 86.01696 31.70583 33.75426
#
# Poissons Ratio (x) = 0.20155 0.26875
# Poissons Ratio (y) = 0.54680 0.18857
# Poissons Ratio (z) = 0.68487 0.17712
#
# Static dielectric constant tensor:
#      x y z
#    x 1.625090 0.000000 0.000000 
#    y 0.000000 1.606280 0.000000 
#    z 0.000000 0.000000 1.594690 
# 
# From -- ./inp_files/10586.got.cif
#   From: 2010.05.17/outbox.cif.g08.bks.cpg/sg66_6_cif.got.tgz:10586.got - 2010.06.03 17:51:23.
