data_PCOD9495201
_publ_section_title
;
Structure prediction by ZEFSAII (Michael W. Deem and Ramdas Pophale) SiO2 
 PCOD9495201
Probable space group: C C C M
;
_chemical_formula_sum "Si O2"
_cell_formula_units_Z 56
_cell_length_a 16.641668
_cell_length_b 9.996029
_cell_length_c 18.306282
_cell_angle_alpha 90.000000
_cell_angle_beta 90.000000
_cell_angle_gamma 90.000000
_cell_volume 3045.260920
_symmetry_space_group_name_H-M "C C C M"
_symmetry_group_IT_number 66
_symmetry_cell_setting 'orthorhombic'
loop_
_space_group_symop_operation_xyz
x,y,z
-x,-y,z
x,-y,1/2-z
-x,y,1/2-z
-x,-y,-z
x,y,-z
-x,y,1/2+z
x,-y,1/2+z
1/2+x,1/2+y,z
1/2-x,1/2-y,z
1/2+x,1/2-y,1/2-z
1/2-x,1/2+y,1/2-z
1/2-x,1/2-y,-z
1/2+x,1/2+y,-z
1/2-x,1/2+y,1/2+z
1/2+x,1/2-y,1/2+z
loop_
_atom_site_type_symbol
_atom_site_label
_atom_site_fract_x
_atom_site_fract_y
_atom_site_fract_z
Si Si1 0.670303 0.843263 0.919812
Si Si2 0.352984 0.500000 0.250000
Si Si3 0.780739 0.606384 0.355603
Si Si4 0.409782 0.205290 0.765513
O O1 0.750000 0.750000 0.911673
O O2 0.616571 0.821516 0.848420
O O3 0.689294 0.001223 0.914673
O O4 0.635860 0.811646 0.000000
O O5 0.292876 0.471056 0.316966
O O6 0.402814 0.365354 0.242354
O O7 0.750000 0.750000 0.382868
O O8 0.846766 0.640422 0.292270
O O9 0.500000 0.160600 0.750000
#
# Coordination Sequence:
#
# PCOD9495201 Si02
#       4
#    16   8  16  16
#     4  11  21  37  60  86 119 155 194 235 292 353
#     4  10  17  36  59  82 114 148 206 232 275 334
#     4  10  19  35  59  82 113 149 201 242 270 339
#     4  11  21  35  59  90 115 150 194 243 287 337
#
# _framework density 18.389229
#
# number of rings (size 3 to 8) (size 9 to 14) (size 15 to 20)
#    0.000    1.429    5.714    1.286    0.000    2.857 
#    0.000    2.857    0.000    5.143    0.000    0.000 
#    0.000    0.000    0.000    0.000    0.000    0.000 
#
# Total GULP energy -156119.965227 kJ/mol
# GULP energy per Si atom -5575.713044 kJ/mol
# Density = 1.834737 g / cm^3
# Si number density = 18.389229 Si / 1000 Ang^3
#
#
#
# Elastic Constant Matrix: (Units=GPa)
#
#
# Indices 1 2 3 4 5 6 
#
# 1 90.0920 21.0575 44.3233 0.0000 0.0000 0.0000
# 2 21.0575 113.0069 28.9334 0.0000 0.0000 0.0000
# 3 44.3233 28.9334 117.6669 0.0000 0.0000 0.0000
# 4 0.0000 0.0000 0.0000 -13.1452 0.0000 0.0000
# 5 0.0000 0.0000 0.0000 0.0000 20.0932 0.0000
# 6 0.0000 0.0000 0.0000 0.0000 0.0000 -0.3832
#
#
#
# Elastic Compliance Matrix: (Units=1/GPa)
#
#
# Indices 1 2 3 4 5 6 
#
# 1 0.013808 -0.001325 -0.004876 0.000000 0.000000 0.000000
# 2 -0.001325 0.009571 -0.001854 0.000000 0.000000 0.000000
# 3 -0.004876 -0.001854 0.010791 0.000000 0.000000 0.000000
# 4 0.000000 0.000000 0.000000 -0.076074 0.000000 0.000000
# 5 0.000000 0.000000 0.000000 0.000000 0.049768 0.000000
# 6 0.000000 0.000000 0.000000 0.000000 0.000000 -2.609741
#
#
# Mechanical properties :
#
#
# Convention : Reuss Voigt Hill
#
# Bulk Modulus (GPa) = 55.36918 56.59937 55.98428
# Shear Modulus (GPa) = -1.93817 16.40973 7.23578
#
# Velocity S-wave (km/s) = -1.02775 2.99047 1.98578
# Velocity P-wave (km/s) = 5.36345 6.53982 5.98063
#
# Compressibility (1/GPa) = 0.01806059
#
# Stress axis : x y z
#
# Youngs Moduli (GPa) = 72.42154 104.48628 92.66902
#
# Poissons Ratio (x) = 0.13841 0.45181
# Poissons Ratio (y) = 0.09593 0.17184
# Poissons Ratio (z) = 0.35310 0.19376
#
# Static dielectric constant tensor:
#      x y z
#    x 1.637810 0.000000 0.000000 
#    y 0.000000 1.668930 0.000000 
#    z 0.000000 0.000000 1.621520 
# 
# From -- ./inp_files/36058.got.cif
#   From: 2010.05.17/outbox.cif.g08.bks.cpg/sg66_19_cif.got.tgz:36058.got - 2010.06.03 17:51:23.
