data_PCOD9495366
_publ_section_title
;
Structure prediction by ZEFSAII (Michael W. Deem and Ramdas Pophale) SiO2 
 PCOD9495366
Probable space group: C C C M
;
_chemical_formula_sum "Si O2"
_cell_formula_units_Z 80
_cell_length_a 13.615852
_cell_length_b 18.373805
_cell_length_c 17.522333
_cell_angle_alpha 90.000000
_cell_angle_beta 90.000000
_cell_angle_gamma 90.000000
_cell_volume 4383.649826
_symmetry_space_group_name_H-M "C C C M"
_symmetry_group_IT_number 66
_symmetry_cell_setting 'orthorhombic'
loop_
_space_group_symop_operation_xyz
x,y,z
-x,-y,z
x,-y,1/2-z
-x,y,1/2-z
-x,-y,-z
x,y,-z
-x,y,1/2+z
x,-y,1/2+z
1/2+x,1/2+y,z
1/2-x,1/2-y,z
1/2+x,1/2-y,1/2-z
1/2-x,1/2+y,1/2-z
1/2-x,1/2-y,-z
1/2+x,1/2+y,-z
1/2-x,1/2+y,1/2+z
1/2+x,1/2-y,1/2+z
loop_
_atom_site_type_symbol
_atom_site_label
_atom_site_fract_x
_atom_site_fract_y
_atom_site_fract_z
Si Si1 0.765107 0.434166 0.795246
Si Si2 0.170547 0.684069 0.915047
Si Si3 0.032544 0.203165 0.630454
Si Si4 0.402614 0.455803 0.413009
Si Si5 0.838700 0.193314 0.715550
O O1 0.816569 0.500000 0.750000
O O2 0.821715 0.376746 0.849702
O O3 0.683341 0.466955 0.852413
O O4 0.709529 0.384382 0.732996
O O5 0.250000 0.750000 0.903084
O O6 0.066516 0.724837 0.912721
O O7 0.190118 0.654108 0.000000
O O8 0.070637 0.129824 0.590839
O O9 0.094616 0.208569 0.709499
O O10 0.917683 0.196226 0.647944
O O11 0.500000 0.500000 0.390807
O O12 0.376722 0.475536 0.500000
O O13 0.750000 0.250000 0.707712
#
# Coordination Sequence:
#
# PCOD9495366 Si02
#       5
#    16  16  16  16  16
#     4  11  20  32  49  81 119 148 182 236 300 342
#     4  11  19  34  57  81 110 148 197 239 277 333
#     4  10  18  30  53  78 108 146 186 237 275 334
#     4  10  19  31  47  76 113 152 185 216 282 359
#     4  10  18  32  50  77 113 140 185 233 290 336
#
# _framework density 18.249634
#
# number of rings (size 3 to 8) (size 9 to 14) (size 15 to 20)
#    0.000    1.600    6.000    2.400    0.000    2.000 
#    0.000    0.000    0.000    4.800    0.000    1.400 
#    0.000    3.200    0.000    0.000    0.000    0.000 
#
# Total GULP energy -222952.182911 kJ/mol
# GULP energy per Si atom -5573.804573 kJ/mol
# Density = 1.820810 g / cm^3
# Si number density = 18.249634 Si / 1000 Ang^3
#
#
#
# Elastic Constant Matrix: (Units=GPa)
#
#
# Indices 1 2 3 4 5 6 
#
# 1 34.8853 19.8469 12.4343 0.0000 0.0000 0.0000
# 2 19.8469 88.5348 40.3023 0.0000 0.0000 0.0000
# 3 12.4343 40.3023 57.8640 0.0000 0.0000 0.0000
# 4 0.0000 0.0000 0.0000 12.1148 0.0000 0.0000
# 5 0.0000 0.0000 0.0000 0.0000 4.3807 0.0000
# 6 0.0000 0.0000 0.0000 0.0000 0.0000 27.4962
#
#
#
# Elastic Compliance Matrix: (Units=1/GPa)
#
#
# Indices 1 2 3 4 5 6 
#
# 1 0.033174 -0.006138 -0.002854 0.000000 0.000000 0.000000
# 2 -0.006138 0.017674 -0.010991 0.000000 0.000000 0.000000
# 3 -0.002854 -0.010991 0.025551 0.000000 0.000000 0.000000
# 4 0.000000 0.000000 0.000000 0.082544 0.000000 0.000000
# 5 0.000000 0.000000 0.000000 0.000000 0.228275 0.000000
# 6 0.000000 0.000000 0.000000 0.000000 0.000000 0.036369
#
#
# Mechanical properties :
#
#
# Convention : Reuss Voigt Hill
#
# Bulk Modulus (GPa) = 27.44712 36.27233 31.85973
# Shear Modulus (GPa) = 10.51090 16.04504 13.27797
#
# Velocity S-wave (km/s) = 2.40250 2.96834 2.70029
# Velocity P-wave (km/s) = 4.77163 5.62733 5.21706
#
# Compressibility (1/GPa) = 0.03643369
#
# Stress axis : x y z
#
# Youngs Moduli (GPa) = 30.14377 56.57968 39.13807
#
# Poissons Ratio (x) = 0.34726 0.11170
# Poissons Ratio (y) = 0.18501 0.43017
# Poissons Ratio (z) = 0.08603 0.62188
#
# Static dielectric constant tensor:
#      x y z
#    x 1.643710 0.000000 0.000000 
#    y 0.000000 1.655150 0.000000 
#    z 0.000000 0.000000 1.671180 
# 
# From -- ./inp_files/40210.got.cif
#   From: 2010.05.17/outbox.cif.g08.bks.cpg/sg66_21_cif.got.tgz:40210.got - 2010.06.03 17:51:23.
