data_PCOD9495429
_publ_section_title
;
Structure prediction by ZEFSAII (Michael W. Deem and Ramdas Pophale) SiO2 
 PCOD9495429
Probable space group: C C C M
;
_chemical_formula_sum "Si O2"
_cell_formula_units_Z 72
_cell_length_a 15.375189
_cell_length_b 9.375181
_cell_length_c 22.989101
_cell_angle_alpha 90.000000
_cell_angle_beta 90.000000
_cell_angle_gamma 90.000000
_cell_volume 3313.768097
_symmetry_space_group_name_H-M "C C C M"
_symmetry_group_IT_number 66
_symmetry_cell_setting 'orthorhombic'
loop_
_space_group_symop_operation_xyz
x,y,z
-x,-y,z
x,-y,1/2-z
-x,y,1/2-z
-x,-y,-z
x,y,-z
-x,y,1/2+z
x,-y,1/2+z
1/2+x,1/2+y,z
1/2-x,1/2-y,z
1/2+x,1/2-y,1/2-z
1/2-x,1/2+y,1/2-z
1/2-x,1/2-y,-z
1/2+x,1/2+y,-z
1/2-x,1/2+y,1/2+z
1/2+x,1/2-y,1/2+z
loop_
_atom_site_type_symbol
_atom_site_label
_atom_site_fract_x
_atom_site_fract_y
_atom_site_fract_z
Si Si1 0.394570 0.643310 0.712880
Si Si2 0.250000 0.750000 0.795459
Si Si3 0.754896 0.977653 0.126067
Si Si4 0.440455 0.856658 0.627290
Si Si5 0.252742 0.074241 0.500000
Si Si6 0.929292 0.621601 0.000000
O O1 0.414888 0.500000 0.750000
O O2 0.334375 0.735108 0.755456
O O3 0.331807 0.598183 0.660066
O O4 0.462626 0.744876 0.678953
O O5 0.261156 0.882290 0.836852
O O6 0.784514 0.020371 0.061283
O O7 0.661997 0.898817 0.129583
O O8 0.445062 0.797622 0.560839
O O9 0.500000 0.000000 0.631699
O O10 0.250000 0.250000 0.500000
O O11 0.342452 0.978279 0.500000
O O12 0.000000 0.500000 0.000000
#
# Coordination Sequence:
#
# PCOD9495429 Si02
#       6
#    16   8  16  16   8   8
#     4  10  20  34  56  85 118 156 204 249 301 354
#     4  10  18  33  54  77 116 150 200 238 304 340
#     4  10  19  33  56  84 117 154 198 250 300 354
#     4  10  19  35  58  90 118 157 201 245 305 373
#     4  10  18  31  53  91 116 145 203 259 298 347
#     4   8  18  33  55  87 121 152 188 247 306 373
#
# _framework density 21.727530999999999
#
# number of rings (size 3 to 8) (size 9 to 14) (size 15 to 20)
#    0.000    2.222    3.333    0.000    0.000    0.889 
#    0.000    5.556    0.000    9.333    0.000    4.667 
#    0.000    0.000    0.000    4.778    0.000    0.000 
#
# Total GULP energy -200499.724374 kJ/mol
# GULP energy per Si atom -5569.436788 kJ/mol
# Density = 2.167808 g / cm^3
# Si number density = 21.727531 Si / 1000 Ang^3
#
#
#
# Elastic Constant Matrix: (Units=GPa)
#
#
# Indices 1 2 3 4 5 6 
#
# 1 51.1714 9.2861 30.3060 0.0000 0.0000 0.0000
# 2 9.2861 102.7938 70.2646 0.0000 0.0000 0.0000
# 3 30.3060 70.2646 193.2019 0.0000 0.0000 0.0000
# 4 0.0000 0.0000 0.0000 -6.2207 0.0000 0.0000
# 5 0.0000 0.0000 0.0000 0.0000 7.4845 0.0000
# 6 0.0000 0.0000 0.0000 0.0000 0.0000 -19.7702
#
#
#
# Elastic Compliance Matrix: (Units=1/GPa)
#
#
# Indices 1 2 3 4 5 6 
#
# 1 0.021562 0.000485 -0.003558 0.000000 0.000000 0.000000
# 2 0.000485 0.012958 -0.004788 0.000000 0.000000 0.000000
# 3 -0.003558 -0.004788 0.007476 0.000000 0.000000 0.000000
# 4 0.000000 0.000000 0.000000 -0.160753 0.000000 0.000000
# 5 0.000000 0.000000 0.000000 0.000000 0.133610 0.000000
# 6 0.000000 0.000000 0.000000 0.000000 0.000000 -0.050581
#
#
# Mechanical properties :
#
#
# Convention : Reuss Voigt Hill
#
# Bulk Modulus (GPa) = 38.06603 62.98674 50.52639
# Shear Modulus (GPa) = -444.54872 12.11940 -216.21466
#
# Velocity S-wave (km/s) = -14.31942 2.36432 -9.98638
# Velocity P-wave (km/s) = 15.99489 6.04199 10.47213
#
# Compressibility (1/GPa) = 0.02627014
#
# Stress axis : x y z
#
# Youngs Moduli (GPa) = 46.37856 77.17474 133.76831
#
# Poissons Ratio (x) = -0.03739 0.47600
# Poissons Ratio (y) = -0.02247 0.64055
# Poissons Ratio (z) = 0.16503 0.36955
#
# Static dielectric constant tensor:
#      x y z
#    x 1.817940 0.000000 0.000000 
#    y 0.000000 1.815440 0.000000 
#    z 0.000000 0.000000 1.843250 
# 
# From -- ./inp_files/59290.got.cif
#   From: 2010.05.17/outbox.cif.g08.bks.cpg/sg66_30_cif.got.tgz:59290.got - 2010.06.03 17:51:23.
