data_PCOD9495267
_publ_section_title
;
Structure prediction by ZEFSAII (Michael W. Deem and Ramdas Pophale) SiO2 
 PCOD9495267
Probable space group: C C C M
;
_chemical_formula_sum "Si O2"
_cell_formula_units_Z 64
_cell_length_a 24.575186
_cell_length_b 12.951961
_cell_length_c 10.507530
_cell_angle_alpha 90.000000
_cell_angle_beta 90.000000
_cell_angle_gamma 90.000000
_cell_volume 3344.513707
_symmetry_space_group_name_H-M "C C C M"
_symmetry_group_IT_number 66
_symmetry_cell_setting 'orthorhombic'
loop_
_space_group_symop_operation_xyz
x,y,z
-x,-y,z
x,-y,1/2-z
-x,y,1/2-z
-x,-y,-z
x,y,-z
-x,y,1/2+z
x,-y,1/2+z
1/2+x,1/2+y,z
1/2-x,1/2-y,z
1/2+x,1/2-y,1/2-z
1/2-x,1/2+y,1/2-z
1/2-x,1/2-y,-z
1/2+x,1/2+y,-z
1/2-x,1/2+y,1/2+z
1/2+x,1/2-y,1/2+z
loop_
_atom_site_type_symbol
_atom_site_label
_atom_site_fract_x
_atom_site_fract_y
_atom_site_fract_z
Si Si1 0.045977 0.194474 0.349718
Si Si2 0.441601 0.941650 0.865057
Si Si3 0.165965 0.192410 0.652383
Si Si4 0.719350 0.909380 0.653564
O O1 0.036585 0.167316 0.500000
O O2 0.048541 0.320430 0.346440
O O3 0.106052 0.160359 0.303541
O O4 0.000000 0.160668 0.250000
O O5 0.500000 0.000000 0.874556
O O6 0.413508 0.000000 0.750000
O O7 0.412703 0.955004 0.000000
O O8 0.162134 0.188834 0.500000
O O9 0.218631 0.126018 0.685996
O O10 0.180791 0.311115 0.681430
O O11 0.717686 0.929987 0.500000
O O12 0.706507 0.000000 0.750000
#
# Coordination Sequence:
#
# PCOD9495267 Si02
#       4
#    16  16  16  16
#     4  10  18  29  44  64  94 132 163 191 233 289
#     4   9  15  23  34  51  79 116 152 181 214 264
#     4   8  17  33  52  72 100 137 169 195 245 317
#     4   9  17  34  56  76  97 127 168 212 254 297
#
# _framework density 19.135816999999999
#
# number of rings (size 3 to 8) (size 9 to 14) (size 15 to 20)
#    0.000    3.000    2.500    1.500    0.000    1.000 
#    0.000    5.000    0.000    0.750    0.000    5.250 
#    0.000    0.000    0.000    0.000    0.000    0.000 
#
# Total GULP energy -178151.884470 kJ/mol
# GULP energy per Si atom -5567.246390 kJ/mol
# Density = 1.909226 g / cm^3
# Si number density = 19.135817 Si / 1000 Ang^3
#
#
#
# Elastic Constant Matrix: (Units=GPa)
#
#
# Indices 1 2 3 4 5 6 
#
# 1 164.4144 9.2466 35.5534 0.0000 0.0000 0.0000
# 2 9.2466 18.1520 13.0144 0.0000 0.0000 0.0000
# 3 35.5534 13.0144 106.6080 0.0000 0.0000 0.0000
# 4 0.0000 0.0000 0.0000 11.5001 0.0000 0.0000
# 5 0.0000 0.0000 0.0000 0.0000 43.4415 0.0000
# 6 0.0000 0.0000 0.0000 0.0000 0.0000 6.8529
#
#
#
# Elastic Compliance Matrix: (Units=1/GPa)
#
#
# Indices 1 2 3 4 5 6 
#
# 1 0.006618 -0.001960 -0.001968 0.000000 0.000000 0.000000
# 2 -0.001960 0.060955 -0.006788 0.000000 0.000000 0.000000
# 3 -0.001968 -0.006788 0.010865 0.000000 0.000000 0.000000
# 4 0.000000 0.000000 0.000000 0.086956 0.000000 0.000000
# 5 0.000000 0.000000 0.000000 0.000000 0.023019 0.000000
# 6 0.000000 0.000000 0.000000 0.000000 0.000000 0.145924
#
#
# Mechanical properties :
#
#
# Convention : Reuss Voigt Hill
#
# Bulk Modulus (GPa) = 17.54166 44.97814 31.25990
# Shear Modulus (GPa) = 13.34147 27.78290 20.56218
#
# Velocity S-wave (km/s) = 2.64332 3.81449 3.28157
# Velocity P-wave (km/s) = 4.30151 6.55409 5.54343
#
# Compressibility (1/GPa) = 0.05700715
#
# Stress axis : x y z
#
# Youngs Moduli (GPa) = 151.10418 16.40543 92.03868
#
# Poissons Ratio (x) = 0.03216 0.18111
# Poissons Ratio (y) = 0.29622 0.62471
# Poissons Ratio (z) = 0.29734 0.11135
#
# Static dielectric constant tensor:
#      x y z
#    x 1.751330 0.000000 0.000000 
#    y 0.000000 1.665160 0.000000 
#    z 0.000000 0.000000 1.711840 
# 
# From -- ./inp_files/14683.got.cif
#   From: 2010.05.17/outbox.cif.g08.bks.cpg/sg66_8_cif.got.tgz:14683.got - 2010.06.03 17:51:23.
