data_PCOD9495451
_publ_section_title
;
Structure prediction by ZEFSAII (Michael W. Deem and Ramdas Pophale) SiO2 
 PCOD9495451
Probable space group: C C C M
;
_chemical_formula_sum "Si O2"
_cell_formula_units_Z 96
_cell_length_a 31.517015
_cell_length_b 21.170576
_cell_length_c 8.805207
_cell_angle_alpha 90.000000
_cell_angle_beta 90.000000
_cell_angle_gamma 90.000000
_cell_volume 5875.127864
_symmetry_space_group_name_H-M "C C C M"
_symmetry_group_IT_number 66
_symmetry_cell_setting 'orthorhombic'
loop_
_space_group_symop_operation_xyz
x,y,z
-x,-y,z
x,-y,1/2-z
-x,y,1/2-z
-x,-y,-z
x,y,-z
-x,y,1/2+z
x,-y,1/2+z
1/2+x,1/2+y,z
1/2-x,1/2-y,z
1/2+x,1/2-y,1/2-z
1/2-x,1/2+y,1/2-z
1/2-x,1/2-y,-z
1/2+x,1/2+y,-z
1/2-x,1/2+y,1/2+z
1/2+x,1/2-y,1/2+z
loop_
_atom_site_type_symbol
_atom_site_label
_atom_site_fract_x
_atom_site_fract_y
_atom_site_fract_z
Si Si1 0.368691 0.239472 0.176919
Si Si2 0.433489 0.063974 0.319241
Si Si3 0.247107 0.565544 0.818525
Si Si4 0.956427 0.295203 0.818673
Si Si5 0.783313 0.194032 0.684127
Si Si6 0.656011 0.906808 0.822328
O O1 0.413038 0.238093 0.265455
O O2 0.330909 0.285228 0.228300
O O3 0.348672 0.169113 0.184369
O O4 0.377955 0.252225 0.000000
O O5 0.436142 0.060983 0.500000
O O6 0.452421 0.131131 0.266959
O O7 0.384769 0.067658 0.265185
O O8 0.451959 0.000000 0.250000
O O9 0.264504 0.500000 0.750000
O O10 0.270620 0.628026 0.758571
O O11 0.199179 0.572521 0.755953
O O12 0.247280 0.563126 0.000000
O O13 0.000000 0.269087 0.750000
O O14 0.958519 0.294492 0.000000
O O15 0.781502 0.188436 0.500000
O O16 0.750000 0.250000 0.725277
O O17 0.655319 0.925526 0.000000
#
# Coordination Sequence:
#
# PCOD9495451 Si02
#       6
#    16  16  16  16  16  16
#     4   9  18  33  55  76  99 131 166 207 257 309
#     4  10  20  32  45  65  90 123 164 211 258 308
#     4  12  24  35  49  72 104 141 179 220 261 304
#     4  10  21  35  51  70  95 123 162 210 259 308
#     4  10  19  36  57  79 106 138 175 213 260 314
#     4  10  18  32  50  69  95 131 171 213 259 306
#
# _framework density 16.340070000000001
#
# number of rings (size 3 to 8) (size 9 to 14) (size 15 to 20)
#    0.000    1.833    1.667    3.500    0.000    4.000 
#    0.000    1.667    0.000    0.000    0.000    0.000 
#    0.000    0.667    0.000    7.000    0.000    3.000 
#
# Total GULP energy -267987.907896 kJ/mol
# GULP energy per Si atom -5583.081414 kJ/mol
# Density = 1.630288 g / cm^3
# Si number density = 16.340070 Si / 1000 Ang^3
#
#
#
# Elastic Constant Matrix: (Units=GPa)
#
#
# Indices 1 2 3 4 5 6 
#
# 1 112.6508 43.9862 29.1729 0.0000 0.0000 0.0000
# 2 43.9862 71.9053 18.8585 0.0000 0.0000 0.0000
# 3 29.1729 18.8585 38.5867 0.0000 0.0000 0.0000
# 4 0.0000 0.0000 0.0000 17.8683 0.0000 0.0000
# 5 0.0000 0.0000 0.0000 0.0000 17.8961 0.0000
# 6 0.0000 0.0000 0.0000 0.0000 0.0000 -5.0073
#
#
#
# Elastic Compliance Matrix: (Units=1/GPa)
#
#
# Indices 1 2 3 4 5 6 
#
# 1 0.013072 -0.006199 -0.006853 0.000000 0.000000 0.000000
# 2 -0.006199 0.018892 -0.004546 0.000000 0.000000 0.000000
# 3 -0.006853 -0.004546 0.033319 0.000000 0.000000 0.000000
# 4 0.000000 0.000000 0.000000 0.055965 0.000000 0.000000
# 5 0.000000 0.000000 0.000000 0.000000 0.055878 0.000000
# 6 0.000000 0.000000 0.000000 0.000000 0.000000 -0.199710
#
#
# Mechanical properties :
#
#
# Convention : Reuss Voigt Hill
#
# Bulk Modulus (GPa) = 33.23862 45.24199 39.24031
# Shear Modulus (GPa) = 220.82956 14.89311 117.86134
#
# Velocity S-wave (km/s) = 11.63784 3.02229 8.50217
# Velocity P-wave (km/s) = 14.17645 6.31877 10.97494
#
# Compressibility (1/GPa) = 0.03008548
#
# Stress axis : x y z
#
# Youngs Moduli (GPa) = 76.49705 52.93330 30.01293
#
# Poissons Ratio (x) = 0.32815 0.20569
# Poissons Ratio (y) = 0.47422 0.13644
# Poissons Ratio (z) = 0.52427 0.24064
#
# Static dielectric constant tensor:
#      x y z
#    x 1.556260 0.000000 0.000000 
#    y 0.000000 1.566030 0.000000 
#    z 0.000000 0.000000 1.546590 
# 
# From -- ./inp_files/10233.got.cif
#   From: 2010.05.17/outbox.cif.g08.bks.cpg/sg66_6_cif.got.tgz:10233.got - 2010.06.03 17:51:23.
