data_PCOD9495830
_publ_section_title
;
Structure prediction by ZEFSAII (Michael W. Deem and Ramdas Pophale) SiO2 
 PCOD9495830
Probable space group: C C C M
;
_chemical_formula_sum "Si O2"
_cell_formula_units_Z 80
_cell_length_a 19.119931
_cell_length_b 27.581025
_cell_length_c 8.673324
_cell_angle_alpha 90.000000
_cell_angle_beta 90.000000
_cell_angle_gamma 90.000000
_cell_volume 4573.853949
_symmetry_space_group_name_H-M "C C C M"
_symmetry_group_IT_number 66
_symmetry_cell_setting 'orthorhombic'
loop_
_space_group_symop_operation_xyz
x,y,z
-x,-y,z
x,-y,1/2-z
-x,y,1/2-z
-x,-y,-z
x,y,-z
-x,y,1/2+z
x,-y,1/2+z
1/2+x,1/2+y,z
1/2-x,1/2-y,z
1/2+x,1/2-y,1/2-z
1/2-x,1/2+y,1/2-z
1/2-x,1/2-y,-z
1/2+x,1/2+y,-z
1/2-x,1/2+y,1/2+z
1/2+x,1/2-y,1/2+z
loop_
_atom_site_type_symbol
_atom_site_label
_atom_site_fract_x
_atom_site_fract_y
_atom_site_fract_z
Si Si1 0.782730 0.397390 0.185429
Si Si2 0.218324 0.800859 0.314123
Si Si3 0.427300 0.054398 0.314746
Si Si4 0.425131 0.349388 0.185010
Si Si5 0.638774 0.447353 0.184767
O O1 0.764439 0.345742 0.256982
O O2 0.858149 0.416852 0.233544
O O3 0.719333 0.433903 0.226796
O O4 0.782144 0.393264 0.000000
O O5 0.218925 0.800200 0.500000
O O6 0.250000 0.750000 0.258535
O O7 0.138777 0.814073 0.266560
O O8 0.500000 0.075087 0.250000
O O9 0.430405 0.052615 0.500000
O O10 0.421360 0.000000 0.250000
O O11 0.500000 0.334257 0.250000
O O12 0.406301 0.403070 0.247480
O O13 0.427243 0.351002 0.000000
O O14 0.620224 0.500000 0.250000
O O15 0.632397 0.447496 0.000000
#
# Coordination Sequence:
#
# PCOD9495830 Si02
#       5
#    16  16  16  16  16
#     4   9  19  33  50  73 100 130 166 208 250 296
#     4   9  19  36  57  78  99 127 164 205 250 298
#     4  10  19  31  47  70 100 134 170 205 247 295
#     4  10  20  35  54  76 103 133 165 202 246 293
#     4  10  19  32  50  74 103 134 169 205 244 291
#
# _framework density 17.49072
#
# number of rings (size 3 to 8) (size 9 to 14) (size 15 to 20)
#    0.000    2.400    0.000    3.000    0.000    4.000 
#    0.000    3.000    0.000    4.800    0.000    0.000 
#    0.000    0.000    0.000    0.000    0.000    0.000 
#
# Total GULP energy -223157.879212 kJ/mol
# GULP energy per Si atom -5578.946980 kJ/mol
# Density = 1.745091 g / cm^3
# Si number density = 17.490720 Si / 1000 Ang^3
#
#
#
# Elastic Constant Matrix: (Units=GPa)
#
#
# Indices 1 2 3 4 5 6 
#
# 1 146.6523 56.4940 32.4920 0.0000 0.0000 0.0000
# 2 56.4940 101.4624 22.2861 0.0000 0.0000 0.0000
# 3 32.4920 22.2861 34.9498 0.0000 0.0000 0.0000
# 4 0.0000 0.0000 0.0000 20.4326 0.0000 0.0000
# 5 0.0000 0.0000 0.0000 0.0000 36.7141 0.0000
# 6 0.0000 0.0000 0.0000 0.0000 0.0000 10.3692
#
#
#
# Elastic Compliance Matrix: (Units=1/GPa)
#
#
# Indices 1 2 3 4 5 6 
#
# 1 0.009825 -0.004029 -0.006566 0.000000 0.000000 0.000000
# 2 -0.004029 0.013113 -0.004616 0.000000 0.000000 0.000000
# 3 -0.006566 -0.004616 0.037660 0.000000 0.000000 0.000000
# 4 0.000000 0.000000 0.000000 0.048941 0.000000 0.000000
# 5 0.000000 0.000000 0.000000 0.000000 0.027237 0.000000
# 6 0.000000 0.000000 0.000000 0.000000 0.000000 0.096440
#
#
# Mechanical properties :
#
#
# Convention : Reuss Voigt Hill
#
# Bulk Modulus (GPa) = 33.13744 56.17874 44.65809
# Shear Modulus (GPa) = 18.26836 24.95599 21.61218
#
# Velocity S-wave (km/s) = 3.23532 3.78142 3.51898
# Velocity P-wave (km/s) = 5.73962 7.15922 6.48836
#
# Compressibility (1/GPa) = 0.03017735
#
# Stress axis : x y z
#
# Youngs Moduli (GPa) = 101.77656 76.26030 26.55345
#
# Poissons Ratio (x) = 0.30723 0.17434
# Poissons Ratio (y) = 0.41002 0.12258
# Poissons Ratio (z) = 0.66822 0.35204
#
# Static dielectric constant tensor:
#      x y z
#    x 1.614350 0.000000 0.000000 
#    y 0.000000 1.561210 0.000000 
#    z 0.000000 0.000000 1.589690 
# 
# From -- ./inp_files/6670.got.cif
#   From: 2010.05.17/outbox.cif.g08.bks.cpg/sg66_4_cif.got.tgz:6670.got - 2010.06.03 17:51:23.
