data_PCOD9495389
_publ_section_title
;
Structure prediction by ZEFSAII (Michael W. Deem and Ramdas Pophale) SiO2 
 PCOD9495389
Probable space group: C C C M
;
_chemical_formula_sum "Si O2"
_cell_formula_units_Z 96
_cell_length_a 23.450916
_cell_length_b 26.228818
_cell_length_c 8.831543
_cell_angle_alpha 90.000000
_cell_angle_beta 90.000000
_cell_angle_gamma 90.000000
_cell_volume 5432.192086
_symmetry_space_group_name_H-M "C C C M"
_symmetry_group_IT_number 66
_symmetry_cell_setting 'orthorhombic'
loop_
_space_group_symop_operation_xyz
x,y,z
-x,-y,z
x,-y,1/2-z
-x,y,1/2-z
-x,-y,-z
x,y,-z
-x,y,1/2+z
x,-y,1/2+z
1/2+x,1/2+y,z
1/2-x,1/2-y,z
1/2+x,1/2-y,1/2-z
1/2-x,1/2+y,1/2-z
1/2-x,1/2-y,-z
1/2+x,1/2+y,-z
1/2-x,1/2+y,1/2+z
1/2+x,1/2-y,1/2+z
loop_
_atom_site_type_symbol
_atom_site_label
_atom_site_fract_x
_atom_site_fract_y
_atom_site_fract_z
Si Si1 0.375475 0.848988 0.675361
Si Si2 0.825195 0.444715 0.180910
Si Si3 0.753354 0.189609 0.665066
Si Si4 0.692628 0.444785 0.817088
Si Si5 0.859966 0.842758 0.324134
Si Si6 0.437369 0.745355 0.682206
O O1 0.391237 0.858853 0.500000
O O2 0.369761 0.901928 0.764358
O O3 0.310509 0.829409 0.678902
O O4 0.412459 0.800830 0.731736
O O5 0.838234 0.500000 0.250000
O O6 0.758856 0.432790 0.228458
O O7 0.825567 0.447211 0.000000
O O8 0.776660 0.171830 0.500000
O O9 0.750000 0.250000 0.660200
O O10 0.794845 0.175136 0.800023
O O11 0.679353 0.500000 0.750000
O O12 0.647220 0.401365 0.770284
O O13 0.692072 0.446437 0.000000
O O14 0.876343 0.842059 0.500000
O O15 0.898447 0.801957 0.236568
O O16 0.500000 0.739131 0.750000
O O17 0.437939 0.745592 0.500000
#
# Coordination Sequence:
#
# PCOD9495389 Si02
#       6
#    16  16  16  16  16  16
#     4  10  20  34  54  78 110 145 180 221 270 326
#     4  10  19  32  50  78 114 149 184 218 263 320
#     4  10  18  31  49  76 110 145 178 214 268 329
#     4   9  19  32  48  76 112 147 181 216 259 316
#     4  11  21  34  53  81 113 144 180 224 270 324
#     4  11  24  42  59  80 106 142 186 229 279 328
#
# _framework density 17.672423999999999
#
# number of rings (size 3 to 8) (size 9 to 14) (size 15 to 20)
#    0.000    1.833    3.333    1.500    0.000    3.667 
#    0.000    0.000    0.000    1.000    0.000    7.000 
#    0.000    0.000    0.000    0.000    0.000    0.000 
#
# Total GULP energy -267437.525845 kJ/mol
# GULP energy per Si atom -5571.615122 kJ/mol
# Density = 1.763220 g / cm^3
# Si number density = 17.672424 Si / 1000 Ang^3
#
#
#
# Elastic Constant Matrix: (Units=GPa)
#
#
# Indices 1 2 3 4 5 6 
#
# 1 46.0213 29.3819 12.4420 0.0000 0.0000 0.0000
# 2 29.3819 118.6152 28.8053 0.0000 0.0000 0.0000
# 3 12.4420 28.8053 31.7268 0.0000 0.0000 0.0000
# 4 0.0000 0.0000 0.0000 23.7164 0.0000 0.0000
# 5 0.0000 0.0000 0.0000 0.0000 -71.5353 0.0000
# 6 0.0000 0.0000 0.0000 0.0000 0.0000 8.2724
#
#
#
# Elastic Compliance Matrix: (Units=1/GPa)
#
#
# Indices 1 2 3 4 5 6 
#
# 1 0.026593 -0.005201 -0.005706 0.000000 0.000000 0.000000
# 2 -0.005201 0.011833 -0.008703 0.000000 0.000000 0.000000
# 3 -0.005706 -0.008703 0.041659 0.000000 0.000000 0.000000
# 4 0.000000 0.000000 0.000000 0.042165 0.000000 0.000000
# 5 0.000000 0.000000 0.000000 0.000000 -0.013979 0.000000
# 6 0.000000 0.000000 0.000000 0.000000 0.000000 0.120884
#
#
# Mechanical properties :
#
#
# Convention : Reuss Voigt Hill
#
# Bulk Modulus (GPa) = 24.47246 37.51354 30.99300
# Shear Modulus (GPa) = 17.73076 0.47297 9.10186
#
# Velocity S-wave (km/s) = 3.17093 0.51789 2.27189
# Velocity P-wave (km/s) = 5.22344 4.65090 4.94546
#
# Compressibility (1/GPa) = 0.04086225
#
# Stress axis : x y z
#
# Youngs Moduli (GPa) = 37.60453 84.51214 24.00464
#
# Poissons Ratio (x) = 0.43959 0.13697
# Poissons Ratio (y) = 0.19560 0.20892
# Poissons Ratio (z) = 0.21457 0.73553
#
# Static dielectric constant tensor:
#      x y z
#    x 1.579660 0.000000 0.000000 
#    y 0.000000 1.646670 0.000000 
#    z 0.000000 0.000000 1.641720 
# 
# From -- ./inp_files/9115.got.cif
#   From: 2010.05.17/outbox.cif.g08.bks.cpg/sg66_5_cif.got.tgz:9115.got - 2010.06.03 17:51:23.
