data_PCOD9495610
_publ_section_title
;
Structure prediction by ZEFSAII (Michael W. Deem and Ramdas Pophale) SiO2 
 PCOD9495610
Probable space group: C C C M
;
_chemical_formula_sum "Si O2"
_cell_formula_units_Z 88
_cell_length_a 17.704614
_cell_length_b 12.300506
_cell_length_c 20.902547
_cell_angle_alpha 90.000000
_cell_angle_beta 90.000000
_cell_angle_gamma 90.000000
_cell_volume 4552.067029
_symmetry_space_group_name_H-M "C C C M"
_symmetry_group_IT_number 66
_symmetry_cell_setting 'orthorhombic'
loop_
_space_group_symop_operation_xyz
x,y,z
-x,-y,z
x,-y,1/2-z
-x,y,1/2-z
-x,-y,-z
x,y,-z
-x,y,1/2+z
x,-y,1/2+z
1/2+x,1/2+y,z
1/2-x,1/2-y,z
1/2+x,1/2-y,1/2-z
1/2-x,1/2+y,1/2-z
1/2-x,1/2-y,-z
1/2+x,1/2+y,-z
1/2-x,1/2+y,1/2+z
1/2+x,1/2-y,1/2+z
loop_
_atom_site_type_symbol
_atom_site_label
_atom_site_fract_x
_atom_site_fract_y
_atom_site_fract_z
Si Si1 0.000000 0.500000 0.604461
Si Si2 0.704020 0.539488 0.323275
Si Si3 0.807314 0.152684 0.426445
Si Si4 0.972298 0.259098 0.569256
Si Si5 0.131636 0.589643 0.804884
Si Si6 0.440439 0.686333 0.195953
O O1 0.971610 0.390464 0.570288
O O2 0.929041 0.542876 0.645399
O O3 0.707049 0.500000 0.250000
O O4 0.700018 0.442354 0.374556
O O5 0.783924 0.601688 0.333026
O O6 0.627011 0.607314 0.324157
O O7 0.792435 0.115510 0.500000
O O8 0.750000 0.250000 0.411171
O O9 0.889806 0.206719 0.425602
O O10 0.005128 0.225601 0.500000
O O11 0.016822 0.217904 0.630950
O O12 0.134516 0.500000 0.750000
O O13 0.099219 0.703109 0.778735
O O14 0.500000 0.647481 0.250000
#
# Coordination Sequence:
#
# PCOD9495610 Si02
#       6
#     8  16  16  16  16  16
#     4  10  18  34  60  86 115 146 191 248 305 360
#     4  11  24  38  59  88 120 156 199 252 310 366
#     4  10  22  41  63  88 119 159 208 259 312 374
#     4  10  21  36  58  85 114 151 196 246 299 362
#     4  10  20  36  59  87 117 154 197 247 304 363
#     4  11  23  39  58  85 121 158 199 244 301 371
#
# _framework density 19.331876999999999
#
# number of rings (size 3 to 8) (size 9 to 14) (size 15 to 20)
#    0.000    1.636    0.000    5.455    0.000    7.636 
#    0.000    5.455    0.000    5.455    0.000    0.000 
#    0.000    0.000    0.000    0.000    0.000    0.000 
#
# Total GULP energy -245473.962543 kJ/mol
# GULP energy per Si atom -5578.953694 kJ/mol
# Density = 1.928788 g / cm^3
# Si number density = 19.331877 Si / 1000 Ang^3
#
#
#
# Elastic Constant Matrix: (Units=GPa)
#
#
# Indices 1 2 3 4 5 6 
#
# 1 122.1326 45.4277 43.2660 0.0000 0.0000 0.0000
# 2 45.4277 63.6049 45.8770 0.0000 0.0000 0.0000
# 3 43.2660 45.8770 101.2631 0.0000 0.0000 0.0000
# 4 0.0000 0.0000 0.0000 22.2360 0.0000 0.0000
# 5 0.0000 0.0000 0.0000 0.0000 20.1649 0.0000
# 6 0.0000 0.0000 0.0000 0.0000 0.0000 39.3867
#
#
#
# Elastic Compliance Matrix: (Units=1/GPa)
#
#
# Indices 1 2 3 4 5 6 
#
# 1 0.011355 -0.006848 -0.001749 0.000000 0.000000 0.000000
# 2 -0.006848 0.027484 -0.009525 0.000000 0.000000 0.000000
# 3 -0.001749 -0.009525 0.014938 0.000000 0.000000 0.000000
# 4 0.000000 0.000000 0.000000 0.044972 0.000000 0.000000
# 5 0.000000 0.000000 0.000000 0.000000 0.049591 0.000000
# 6 0.000000 0.000000 0.000000 0.000000 0.000000 0.025389
#
#
# Mechanical properties :
#
#
# Convention : Reuss Voigt Hill
#
# Bulk Modulus (GPa) = 57.04098 61.79357 59.41728
# Shear Modulus (GPa) = 23.16772 26.51951 24.84361
#
# Velocity S-wave (km/s) = 3.46558 3.70780 3.58873
# Velocity P-wave (km/s) = 6.75158 7.09679 6.92634
#
# Compressibility (1/GPa) = 0.01753125
#
# Stress axis : x y z
#
# Youngs Moduli (GPa) = 88.07015 36.38519 66.94367
#
# Poissons Ratio (x) = 0.24918 0.11707
# Poissons Ratio (y) = 0.60313 0.63767
# Poissons Ratio (z) = 0.15402 0.34658
#
# Static dielectric constant tensor:
#      x y z
#    x 1.709540 0.000000 0.000000 
#    y 0.000000 1.677370 0.000000 
#    z 0.000000 0.000000 1.276340 
# 
# From -- ./inp_files/50902.got.cif
#   From: 2010.05.17/outbox.cif.g08.bks.cpg/sg66_26_cif.got.tgz:50902.got - 2010.06.03 17:51:23.
