data_PCOD9495055
_publ_section_title
;
Structure prediction by ZEFSAII (Michael W. Deem and Ramdas Pophale) SiO2 
 PCOD9495055
Probable space group: C C C M
;
_chemical_formula_sum "Si O2"
_cell_formula_units_Z 64
_cell_length_a 14.269547
_cell_length_b 23.405861
_cell_length_c 8.315765
_cell_angle_alpha 90.000000
_cell_angle_beta 90.000000
_cell_angle_gamma 90.000000
_cell_volume 2777.390948
_symmetry_space_group_name_H-M "C C C M"
_symmetry_group_IT_number 66
_symmetry_cell_setting 'orthorhombic'
loop_
_space_group_symop_operation_xyz
x,y,z
-x,-y,z
x,-y,1/2-z
-x,y,1/2-z
-x,-y,-z
x,y,-z
-x,y,1/2+z
x,-y,1/2+z
1/2+x,1/2+y,z
1/2-x,1/2-y,z
1/2+x,1/2-y,1/2-z
1/2-x,1/2+y,1/2-z
1/2-x,1/2-y,-z
1/2+x,1/2+y,-z
1/2-x,1/2+y,1/2+z
1/2+x,1/2-y,1/2+z
loop_
_atom_site_type_symbol
_atom_site_label
_atom_site_fract_x
_atom_site_fract_y
_atom_site_fract_z
Si Si1 0.832171 0.818223 0.189968
Si Si2 0.401086 0.917849 0.684043
Si Si3 0.193165 0.938175 0.188735
Si Si4 0.373743 0.202138 0.687001
O O1 0.855803 0.884054 0.225067
O O2 0.737989 0.807965 0.293322
O O3 0.895092 0.765249 0.247021
O O4 0.813030 0.811962 0.000000
O O5 0.500000 0.939577 0.750000
O O6 0.388451 0.934673 0.500000
O O7 0.305847 0.934364 0.776190
O O8 0.408571 0.849148 0.701208
O O9 0.161592 0.000000 0.250000
O O10 0.178369 0.932960 0.000000
O O11 0.399269 0.195442 0.500000
#
# Coordination Sequence:
#
# PCOD9495055 Si02
#       4
#    16  16  16  16
#     4  10  17  28  45  66  88 114 145 184 228 272
#     4  11  21  34  48  66  90 121 156 192 228 269
#     4  11  21  34  48  66  90 121 156 192 228 269
#     4  10  17  28  45  66  88 114 145 184 228 272
#
# _framework density 23.043209000000001
#
# number of rings (size 3 to 8) (size 9 to 14) (size 15 to 20)
#    0.000    1.500    0.000   13.500    0.000    0.500 
#    0.000    2.500    0.000    0.000    0.000    0.000 
#    0.000    1.000    0.000   10.000    0.000    6.000 
#
# Total GULP energy -178727.533328 kJ/mol
# GULP energy per Si atom -5585.235417 kJ/mol
# Density = 2.299076 g / cm^3
# Si number density = 23.043209 Si / 1000 Ang^3
#
#
#
# Elastic Constant Matrix: (Units=GPa)
#
#
# Indices 1 2 3 4 5 6 
#
# 1 22.4972 0.0606 -8.0601 0.0000 0.0000 0.0000
# 2 0.0606 191.9245 22.9725 0.0000 0.0000 0.0000
# 3 -8.0601 22.9725 146.8775 0.0000 0.0000 0.0000
# 4 0.0000 0.0000 0.0000 41.2768 0.0000 0.0000
# 5 0.0000 0.0000 0.0000 0.0000 8.8977 0.0000
# 6 0.0000 0.0000 0.0000 0.0000 0.0000 -16.7862
#
#
#
# Elastic Compliance Matrix: (Units=1/GPa)
#
#
# Indices 1 2 3 4 5 6 
#
# 1 0.045360 -0.000318 0.002539 0.000000 0.000000 0.000000
# 2 -0.000318 0.005312 -0.000848 0.000000 0.000000 0.000000
# 3 0.002539 -0.000848 0.007080 0.000000 0.000000 0.000000
# 4 0.000000 0.000000 0.000000 0.024227 0.000000 0.000000
# 5 0.000000 0.000000 0.000000 0.000000 0.112389 0.000000
# 6 0.000000 0.000000 0.000000 0.000000 0.000000 -0.059573
#
#
# Mechanical properties :
#
#
# Convention : Reuss Voigt Hill
#
# Bulk Modulus (GPa) = 16.52952 43.47170 30.00061
# Shear Modulus (GPa) = 32.84793 29.76607 31.30700
#
# Velocity S-wave (km/s) = 3.77967 3.59799 3.68995
# Velocity P-wave (km/s) = 5.12218 6.01390 5.58586
#
# Compressibility (1/GPa) = 0.06049782
#
# Stress axis : x y z
#
# Youngs Moduli (GPa) = 22.04563 188.25232 141.23489
#
# Poissons Ratio (x) = 0.05991 -0.35859
# Poissons Ratio (y) = 0.00702 0.11981
# Poissons Ratio (z) = -0.05597 0.15969
#
# Static dielectric constant tensor:
#      x y z
#    x 2.027780 0.000000 0.000000 
#    y 0.000000 1.961780 0.000000 
#    z 0.000000 0.000000 1.752910 
# 
# From -- ./inp_files/5080.got.cif
#   From: 2010.05.17/outbox.cif.g08.bks.cpg/sg66_3_cif.got.tgz:5080.got - 2010.06.03 17:51:23.
