data_PCOD9495718
_publ_section_title
;
Structure prediction by ZEFSAII (Michael W. Deem and Ramdas Pophale) SiO2 
 PCOD9495718
Probable space group: C C C M
;
_chemical_formula_sum "Si O2"
_cell_formula_units_Z 72
_cell_length_a 25.708705
_cell_length_b 7.150977
_cell_length_c 15.672264
_cell_angle_alpha 90.000000
_cell_angle_beta 90.000000
_cell_angle_gamma 90.000000
_cell_volume 2881.225971
_symmetry_space_group_name_H-M "C C C M"
_symmetry_group_IT_number 66
_symmetry_cell_setting 'orthorhombic'
loop_
_space_group_symop_operation_xyz
x,y,z
-x,-y,z
x,-y,1/2-z
-x,y,1/2-z
-x,-y,-z
x,y,-z
-x,y,1/2+z
x,-y,1/2+z
1/2+x,1/2+y,z
1/2-x,1/2-y,z
1/2+x,1/2-y,1/2-z
1/2-x,1/2+y,1/2-z
1/2-x,1/2-y,-z
1/2+x,1/2+y,-z
1/2-x,1/2+y,1/2+z
1/2+x,1/2-y,1/2+z
loop_
_atom_site_type_symbol
_atom_site_label
_atom_site_fract_x
_atom_site_fract_y
_atom_site_fract_z
Si Si1 0.165105 0.692044 0.598523
Si Si2 0.440445 0.290105 0.400615
Si Si3 0.250000 0.750000 0.272559
Si Si4 0.655673 0.409441 0.832531
Si Si5 0.948431 0.243934 0.398554
O O1 0.171464 0.632641 0.500000
O O2 0.211511 0.636061 0.662407
O O3 0.105473 0.663077 0.630539
O O4 0.167775 0.921713 0.602969
O O5 0.440604 0.242520 0.500000
O O6 0.382985 0.253333 0.366497
O O7 0.443577 0.517616 0.393551
O O8 0.494197 0.212733 0.362520
O O9 0.291891 0.664152 0.208500
O O10 0.627578 0.500000 0.750000
O O11 0.949905 0.284758 0.500000
#
# Coordination Sequence:
#
# PCOD9495718 Si02
#       5
#    16  16   8  16  16
#     4   9  16  29  45  59  77 110 145 167 191 235
#     4   8  12  22  38  56  78 105 129 153 189 243
#     4  10  19  28  37  56  86 114 138 170 201 224
#     4   9  17  27  38  56  85 112 134 167 203 232
#     4   7  11  20  38  59  77  98 130 161 187 230
#
# _framework density 24.989360000000001
#
# number of rings (size 3 to 8) (size 9 to 14) (size 15 to 20)
#    0.000    3.556    0.000    3.667    0.000    0.000 
#    0.000   21.111    0.000    0.000    0.000    0.000 
#    0.000   32.000    0.000   81.333    0.000    8.000 
#
# Total GULP energy -200454.944213 kJ/mol
# GULP energy per Si atom -5568.192895 kJ/mol
# Density = 2.493248 g / cm^3
# Si number density = 24.989360 Si / 1000 Ang^3
#
#
#
# Elastic Constant Matrix: (Units=GPa)
#
#
# Indices 1 2 3 4 5 6 
#
# 1 260.8241 17.5106 52.1547 0.0000 0.0000 0.0000
# 2 17.5106 82.6590 5.5683 0.0000 0.0000 0.0000
# 3 52.1547 5.5683 54.9629 0.0000 0.0000 0.0000
# 4 0.0000 0.0000 0.0000 5.2707 0.0000 0.0000
# 5 0.0000 0.0000 0.0000 0.0000 37.6786 0.0000
# 6 0.0000 0.0000 0.0000 0.0000 0.0000 10.5911
#
#
#
# Elastic Compliance Matrix: (Units=1/GPa)
#
#
# Indices 1 2 3 4 5 6 
#
# 1 0.004773 -0.000711 -0.004457 0.000000 0.000000 0.000000
# 2 -0.000711 0.012287 -0.000570 0.000000 0.000000 0.000000
# 3 -0.004457 -0.000570 0.022481 0.000000 0.000000 0.000000
# 4 0.000000 0.000000 0.000000 0.189727 0.000000 0.000000
# 5 0.000000 0.000000 0.000000 0.000000 0.026540 0.000000
# 6 0.000000 0.000000 0.000000 0.000000 0.000000 0.094419
#
#
# Mechanical properties :
#
#
# Convention : Reuss Voigt Hill
#
# Bulk Modulus (GPa) = 35.63195 60.99036 48.31116
# Shear Modulus (GPa) = 13.47498 32.25559 22.86529
#
# Velocity S-wave (km/s) = 2.32465 3.59663 3.02818
# Velocity P-wave (km/s) = 4.63628 6.45811 5.62149
#
# Compressibility (1/GPa) = 0.02806470
#
# Stress axis : x y z
#
# Youngs Moduli (GPa) = 209.51319 81.38753 44.48162
#
# Poissons Ratio (x) = 0.05786 0.19826
# Poissons Ratio (y) = 0.14894 0.02536
# Poissons Ratio (z) = 0.93382 0.04641
#
# Static dielectric constant tensor:
#      x y z
#    x 2.098800 0.000000 0.000000 
#    y 0.000000 2.214860 0.000000 
#    z 0.000000 0.000000 1.948120 
# 
# From -- ./inp_files/44031.got.cif
#   From: 2010.05.17/outbox.cif.g08.bks.cpg/sg66_23_cif.got.tgz:44031.got - 2010.06.03 17:51:23.
