data_PCOD9495774
_publ_section_title
;
Structure prediction by ZEFSAII (Michael W. Deem and Ramdas Pophale) SiO2 
 PCOD9495774
Probable space group: C C C M
;
_chemical_formula_sum "Si O2"
_cell_formula_units_Z 96
_cell_length_a 26.934991
_cell_length_b 29.292847
_cell_length_c 8.828033
_cell_angle_alpha 90.000000
_cell_angle_beta 90.000000
_cell_angle_gamma 90.000000
_cell_volume 6965.340728
_symmetry_space_group_name_H-M "C C C M"
_symmetry_group_IT_number 66
_symmetry_cell_setting 'orthorhombic'
loop_
_space_group_symop_operation_xyz
x,y,z
-x,-y,z
x,-y,1/2-z
-x,y,1/2-z
-x,-y,-z
x,y,-z
-x,y,1/2+z
x,-y,1/2+z
1/2+x,1/2+y,z
1/2-x,1/2-y,z
1/2+x,1/2-y,1/2-z
1/2-x,1/2+y,1/2-z
1/2-x,1/2-y,-z
1/2+x,1/2+y,-z
1/2-x,1/2+y,1/2+z
1/2+x,1/2-y,1/2+z
loop_
_atom_site_type_symbol
_atom_site_label
_atom_site_fract_x
_atom_site_fract_y
_atom_site_fract_z
Si Si1 0.404365 0.048900 0.819821
Si Si2 0.214674 0.451314 0.179493
Si Si3 0.446567 0.858755 0.181195
Si Si4 0.644645 0.804843 0.182644
Si Si5 0.701027 0.282390 0.674993
Si Si6 0.261014 0.857932 0.820604
O O1 0.344904 0.054396 0.796274
O O2 0.431369 0.090801 0.739328
O O3 0.418684 0.000000 0.750000
O O4 0.413763 0.049780 0.000000
O O5 0.228486 0.500000 0.250000
O O6 0.241750 0.409099 0.258314
O O7 0.223206 0.450896 0.000000
O O8 0.500000 0.847383 0.250000
O O9 0.404957 0.824424 0.244622
O O10 0.447509 0.858030 0.000000
O O11 0.657350 0.752168 0.221590
O O12 0.690538 0.835229 0.242624
O O13 0.643205 0.808645 0.000000
O O14 0.694017 0.296141 0.500000
O O15 0.750000 0.250000 0.679202
O O16 0.714717 0.326061 0.773972
O O17 0.267792 0.857739 0.000000
#
# Coordination Sequence:
#
# PCOD9495774 Si02
#       6
#    16  16  16  16  16  16
#     4  10  20  34  50  64  81 105 137 178 221 264
#     4  10  19  30  45  62  86 113 142 176 214 256
#     4  12  24  36  50  65  83 107 139 177 220 266
#     4  10  19  33  48  63  84 109 137 173 215 256
#     4   8  16  29  45  63  85 110 135 166 208 251
#     4  11  19  27  44  67  89 111 139 171 208 252
#
# _framework density 13.782527999999999
#
# number of rings (size 3 to 8) (size 9 to 14) (size 15 to 20)
#    0.000    1.833    1.667    5.500    0.000    5.333 
#    0.000    1.667    0.000    0.000    0.000    0.000 
#    0.000    0.000    0.000    0.000    0.000    0.833 
#
# Total GULP energy -267866.540139 kJ/mol
# GULP energy per Si atom -5580.552920 kJ/mol
# Density = 1.375116 g / cm^3
# Si number density = 13.782528 Si / 1000 Ang^3
#
#
#
# Elastic Constant Matrix: (Units=GPa)
#
#
# Indices 1 2 3 4 5 6 
#
# 1 57.5234 53.8730 38.7744 0.0000 0.0000 0.0000
# 2 53.8730 103.4375 59.3083 0.0000 0.0000 0.0000
# 3 38.7744 59.3083 93.4948 0.0000 0.0000 0.0000
# 4 0.0000 0.0000 0.0000 24.6110 0.0000 0.0000
# 5 0.0000 0.0000 0.0000 0.0000 37.4048 0.0000
# 6 0.0000 0.0000 0.0000 0.0000 0.0000 13.5630
#
#
#
# Elastic Compliance Matrix: (Units=1/GPa)
#
#
# Indices 1 2 3 4 5 6 
#
# 1 0.035187 -0.015652 -0.004664 0.000000 0.000000 0.000000
# 2 -0.015652 0.022157 -0.007564 0.000000 0.000000 0.000000
# 3 -0.004664 -0.007564 0.017428 0.000000 0.000000 0.000000
# 4 0.000000 0.000000 0.000000 0.040632 0.000000 0.000000
# 5 0.000000 0.000000 0.000000 0.000000 0.026735 0.000000
# 6 0.000000 0.000000 0.000000 0.000000 0.000000 0.073730
#
#
# Mechanical properties :
#
#
# Convention : Reuss Voigt Hill
#
# Bulk Modulus (GPa) = 52.59827 62.04076 57.31951
# Shear Modulus (GPa) = 17.98789 21.94908 19.96849
#
# Velocity S-wave (km/s) = 3.61657 3.99498 3.81047
# Velocity P-wave (km/s) = 7.46226 8.14810 7.81271
#
# Compressibility (1/GPa) = 0.01901203
#
# Stress axis : x y z
#
# Youngs Moduli (GPa) = 28.41980 45.13348 57.37886
#
# Poissons Ratio (x) = 0.70643 0.26761
# Poissons Ratio (y) = 0.44483 0.43400
# Poissons Ratio (z) = 0.13255 0.34138
#
# Static dielectric constant tensor:
#      x y z
#    x 1.437650 0.000000 0.000000 
#    y 0.000000 1.459590 0.000000 
#    z 0.000000 0.000000 1.453670 
# 
# From -- ./inp_files/9282.got.cif
#   From: 2010.05.17/outbox.cif.g08.bks.cpg/sg66_5_cif.got.tgz:9282.got - 2010.06.03 17:51:23.
