data_PCOD9495941
_publ_section_title
;
Structure prediction by ZEFSAII (Michael W. Deem and Ramdas Pophale) SiO2 
 PCOD9495941
Probable space group: C C C M
;
_chemical_formula_sum "Si O2"
_cell_formula_units_Z 120
_cell_length_a 26.652558
_cell_length_b 28.628385
_cell_length_c 9.517969
_cell_angle_alpha 90.000000
_cell_angle_beta 90.000000
_cell_angle_gamma 90.000000
_cell_volume 7262.397772
_symmetry_space_group_name_H-M "C C C M"
_symmetry_group_IT_number 66
_symmetry_cell_setting 'orthorhombic'
loop_
_space_group_symop_operation_xyz
x,y,z
-x,-y,z
x,-y,1/2-z
-x,y,1/2-z
-x,-y,-z
x,y,-z
-x,y,1/2+z
x,-y,1/2+z
1/2+x,1/2+y,z
1/2-x,1/2-y,z
1/2+x,1/2-y,1/2-z
1/2-x,1/2+y,1/2-z
1/2-x,1/2-y,-z
1/2+x,1/2+y,-z
1/2-x,1/2+y,1/2+z
1/2+x,1/2-y,1/2+z
loop_
_atom_site_type_symbol
_atom_site_label
_atom_site_fract_x
_atom_site_fract_y
_atom_site_fract_z
Si Si1 0.500000 0.122293 0.250000
Si Si2 0.948532 0.873271 0.666002
Si Si3 0.369561 0.452679 0.667996
Si Si4 0.247215 0.952647 0.832637
Si Si5 0.095845 0.682058 0.335309
Si Si6 0.052797 0.765410 0.167702
Si Si7 0.930606 0.457305 0.154359
Si Si8 0.660012 0.891494 0.331664
O O1 0.542582 0.154119 0.321066
O O2 0.531175 0.086112 0.155114
O O3 0.958696 0.879162 0.500000
O O4 0.906212 0.910382 0.707406
O O5 0.931588 0.819478 0.684780
O O6 0.000000 0.880249 0.750000
O O7 0.382604 0.500000 0.750000
O O8 0.373861 0.460198 0.500000
O O9 0.311079 0.441770 0.697692
O O10 0.284647 0.910251 0.798673
O O11 0.260335 0.000000 0.750000
O O12 0.252166 0.961215 0.000000
O O13 0.105205 0.690454 0.500000
O O14 0.088981 0.728804 0.243811
O O15 0.138379 0.650279 0.262106
O O16 0.000000 0.760928 0.250000
O O17 0.047368 0.755640 0.000000
O O18 0.945373 0.500000 0.250000
O O19 0.877614 0.434786 0.196326
O O20 0.925997 0.476996 0.000000
O O21 0.656154 0.880954 0.500000
#
# Coordination Sequence:
#
# PCOD9495941 Si02
#       8
#     8  16  16  16  16  16  16  16
#     4  10  21  32  44  60  88 118 155 194 246 298
#     4   9  19  34  52  77 108 139 168 200 238 290
#     4   9  18  33  53  79 108 137 170 202 240 287
#     4   9  17  31  52  74  98 130 167 210 252 296
#     4  11  21  32  49  70  93 123 162 208 257 302
#     4  10  19  32  51  72  97 129 165 205 249 296
#     4  10  20  31  42  58  83 116 152 192 239 292
#     4   9  19  33  47  66  93 124 161 207 256 298
#
# _framework density 16.523468999999999
#
# number of rings (size 3 to 8) (size 9 to 14) (size 15 to 20)
#    0.000    2.400    0.667    1.800    0.000    6.133 
#    0.000    1.333    0.000    0.800    0.000    5.600 
#    0.000    0.000    0.000    0.000    0.000    0.000 
#
# Total GULP energy -334375.020198 kJ/mol
# GULP energy per Si atom -5572.917003 kJ/mol
# Density = 1.648586 g / cm^3
# Si number density = 16.523469 Si / 1000 Ang^3
#
#
#
# Elastic Constant Matrix: (Units=GPa)
#
#
# Indices 1 2 3 4 5 6 
#
# 1 80.4363 71.7740 47.6834 0.0000 0.0000 0.0000
# 2 71.7740 120.6918 69.7992 0.0000 0.0000 0.0000
# 3 47.6834 69.7992 76.7990 0.0000 0.0000 0.0000
# 4 0.0000 0.0000 0.0000 24.2174 0.0000 0.0000
# 5 0.0000 0.0000 0.0000 0.0000 19.8854 0.0000
# 6 0.0000 0.0000 0.0000 0.0000 0.0000 27.6157
#
#
#
# Elastic Compliance Matrix: (Units=1/GPa)
#
#
# Indices 1 2 3 4 5 6 
#
# 1 0.027243 -0.013531 -0.004617 0.000000 0.000000 0.000000
# 2 -0.013531 0.024186 -0.013581 0.000000 0.000000 0.000000
# 3 -0.004617 -0.013581 0.028231 0.000000 0.000000 0.000000
# 4 0.000000 0.000000 0.000000 0.041293 0.000000 0.000000
# 5 0.000000 0.000000 0.000000 0.000000 0.050288 0.000000
# 6 0.000000 0.000000 0.000000 0.000000 0.000000 0.036211
#
#
# Mechanical properties :
#
#
# Convention : Reuss Voigt Hill
#
# Bulk Modulus (GPa) = 61.71918 72.93782 67.32850
# Shear Modulus (GPa) = 18.09556 20.25505 19.17531
#
# Velocity S-wave (km/s) = 3.31288 3.50499 3.41029
# Velocity P-wave (km/s) = 7.21576 7.78574 7.50616
#
# Compressibility (1/GPa) = 0.01620242
#
# Stress axis : x y z
#
# Youngs Moduli (GPa) = 36.70657 41.34558 35.42241
#
# Poissons Ratio (x) = 0.55944 0.16355
# Poissons Ratio (y) = 0.49667 0.48106
# Poissons Ratio (z) = 0.16948 0.56151
#
# Static dielectric constant tensor:
#      x y z
#    x 1.561370 0.000000 0.000000 
#    y 0.000000 1.541920 0.000000 
#    z 0.000000 0.000000 1.562790 
# 
# From -- ./inp_files/10749.got.cif
#   From: 2010.05.17/outbox.cif.g08.bks.cpg/sg66_6_cif.got.tgz:10749.got - 2010.06.03 17:51:23.
