data_PCOD9495671
_publ_section_title
;
Structure prediction by ZEFSAII (Michael W. Deem and Ramdas Pophale) SiO2 
 PCOD9495671
Probable space group: C C C M
;
_chemical_formula_sum "Si O2"
_cell_formula_units_Z 64
_cell_length_a 27.929397
_cell_length_b 9.357882
_cell_length_c 14.313516
_cell_angle_alpha 90.000000
_cell_angle_beta 90.000000
_cell_angle_gamma 90.000000
_cell_volume 3740.980563
_symmetry_space_group_name_H-M "C C C M"
_symmetry_group_IT_number 66
_symmetry_cell_setting 'orthorhombic'
loop_
_space_group_symop_operation_xyz
x,y,z
-x,-y,z
x,-y,1/2-z
-x,y,1/2-z
-x,-y,-z
x,y,-z
-x,y,1/2+z
x,-y,1/2+z
1/2+x,1/2+y,z
1/2-x,1/2-y,z
1/2+x,1/2-y,1/2-z
1/2-x,1/2+y,1/2-z
1/2-x,1/2-y,-z
1/2+x,1/2+y,-z
1/2-x,1/2+y,1/2+z
1/2+x,1/2-y,1/2+z
loop_
_atom_site_type_symbol
_atom_site_label
_atom_site_fract_x
_atom_site_fract_y
_atom_site_fract_z
Si Si1 0.350017 0.969484 0.000000
Si Si2 0.893603 0.191750 0.000000
Si Si3 0.391619 0.286833 0.000000
Si Si4 0.731682 0.915928 0.347045
Si Si5 0.805181 0.996038 0.500000
Si Si6 0.943096 0.986383 0.859286
O O1 0.316290 0.936388 0.090276
O O2 0.373737 0.125427 0.000000
O O3 0.393804 0.859390 0.000000
O O4 0.838112 0.144712 0.000000
O O5 0.917994 0.117525 0.911890
O O6 0.342548 0.376773 0.000000
O O7 0.421841 0.345397 0.910557
O O8 0.750000 0.750000 0.336838
O O9 0.772347 0.992549 0.409249
O O10 0.726524 0.000000 0.250000
O O11 0.932668 0.000000 0.750000
O O12 0.000000 0.000000 0.873258
#
# Coordination Sequence:
#
# PCOD9495671 Si02
#       6
#     8   8   8  16   8  16
#     4  11  23  40  50  82 120 143 184 239 270 320
#     4  10  18  36  59  78 111 148 175 227 282 322
#     4  10  22  34  59  84 109 144 186 222 274 328
#     4  11  23  37  56  77 111 152 193 229 278 318
#     4   9  19  38  56  72 110 145 189 225 272 323
#     4   9  19  38  62  85 108 139 182 223 271 342
#
# _framework density 17.107814000000001
#
# number of rings (size 3 to 8) (size 9 to 14) (size 15 to 20)
#    0.000    2.250    2.500    2.250    3.500    7.000 
#    0.000    2.500    0.000    3.000    0.000    0.000 
#    0.000    0.000    0.000    0.000    0.000    0.000 
#
# Total GULP energy -178272.451691 kJ/mol
# GULP energy per Si atom -5571.014115 kJ/mol
# Density = 1.706888 g / cm^3
# Si number density = 17.107814 Si / 1000 Ang^3
#
#
#
# Elastic Constant Matrix: (Units=GPa)
#
#
# Indices 1 2 3 4 5 6 
#
# 1 82.4416 47.7512 62.7765 0.0000 0.0000 0.0000
# 2 47.7512 156.3171 62.3393 0.0000 0.0000 0.0000
# 3 62.7765 62.3393 168.1627 0.0000 0.0000 0.0000
# 4 0.0000 0.0000 0.0000 8.8595 0.0000 0.0000
# 5 0.0000 0.0000 0.0000 0.0000 12.7651 0.0000
# 6 0.0000 0.0000 0.0000 0.0000 0.0000 11.6090
#
#
#
# Elastic Compliance Matrix: (Units=1/GPa)
#
#
# Indices 1 2 3 4 5 6 
#
# 1 0.018346 -0.003371 -0.005599 0.000000 0.000000 0.000000
# 2 -0.003371 0.008127 -0.001754 0.000000 0.000000 0.000000
# 3 -0.005599 -0.001754 0.008687 0.000000 0.000000 0.000000
# 4 0.000000 0.000000 0.000000 0.112873 0.000000 0.000000
# 5 0.000000 0.000000 0.000000 0.000000 0.078339 0.000000
# 6 0.000000 0.000000 0.000000 0.000000 0.000000 0.086140
#
#
# Mechanical properties :
#
#
# Convention : Reuss Voigt Hill
#
# Bulk Modulus (GPa) = 72.93475 83.62837 78.28156
# Shear Modulus (GPa) = 14.76972 22.25034 18.51003
#
# Velocity S-wave (km/s) = 2.94144 3.61029 3.29289
# Velocity P-wave (km/s) = 7.36621 8.14667 7.76625
#
# Compressibility (1/GPa) = 0.01371089
#
# Stress axis : x y z
#
# Youngs Moduli (GPa) = 54.50801 123.05193 115.11499
#
# Poissons Ratio (x) = 0.41486 0.64451
# Poissons Ratio (y) = 0.18377 0.20192
# Poissons Ratio (z) = 0.30518 0.21584
#
# Static dielectric constant tensor:
#      x y z
#    x 1.577180 0.000000 0.000000 
#    y 0.000000 1.594500 0.000000 
#    z 0.000000 0.000000 1.611470 
# 
# From -- ./inp_files/33602.got.cif
#   From: 2010.05.17/outbox.cif.g08.bks.cpg/sg66_17_cif.got.tgz:33602.got - 2010.06.03 17:51:23.
