data_PCOD9495322
_publ_section_title
;
Structure prediction by ZEFSAII (Michael W. Deem and Ramdas Pophale) SiO2 
 PCOD9495322
Probable space group: C C C M
;
_chemical_formula_sum "Si O2"
_cell_formula_units_Z 116
_cell_length_a 24.624458
_cell_length_b 35.460088
_cell_length_c 9.243235
_cell_angle_alpha 90.000000
_cell_angle_beta 90.000000
_cell_angle_gamma 90.000000
_cell_volume 8071.058291
_symmetry_space_group_name_H-M "C C C M"
_symmetry_group_IT_number 66
_symmetry_cell_setting 'orthorhombic'
loop_
_space_group_symop_operation_xyz
x,y,z
-x,-y,z
x,-y,1/2-z
-x,y,1/2-z
-x,-y,-z
x,y,-z
-x,y,1/2+z
x,-y,1/2+z
1/2+x,1/2+y,z
1/2-x,1/2-y,z
1/2+x,1/2-y,1/2-z
1/2-x,1/2+y,1/2-z
1/2-x,1/2-y,-z
1/2+x,1/2+y,-z
1/2-x,1/2+y,1/2+z
1/2+x,1/2-y,1/2+z
loop_
_atom_site_type_symbol
_atom_site_label
_atom_site_fract_x
_atom_site_fract_y
_atom_site_fract_z
Si Si1 0.221188 0.115794 0.826676
Si Si2 0.159892 0.754506 0.828132
Si Si3 0.293522 0.461139 0.327033
Si Si4 0.917696 0.939183 0.340292
Si Si5 0.943725 0.785119 0.174598
Si Si6 0.000000 0.000000 0.250000
Si Si7 0.258134 0.187597 0.671575
Si Si8 0.405242 0.632020 0.328176
O O1 0.231544 0.076074 0.747239
O O2 0.256982 0.149816 0.764727
O O3 0.158700 0.127833 0.791495
O O4 0.225580 0.111930 0.000000
O O5 0.106716 0.760879 0.733423
O O6 0.204321 0.787279 0.797354
O O7 0.191106 0.715231 0.801037
O O8 0.147363 0.756569 0.000000
O O9 0.276743 0.500000 0.250000
O O10 0.284272 0.462230 0.500000
O O11 0.358551 0.455918 0.302909
O O12 0.913172 0.922438 0.500000
O O13 0.932484 0.905318 0.234554
O O14 0.960774 0.972473 0.337337
O O15 0.929750 0.828345 0.220729
O O16 0.000000 0.774112 0.250000
O O17 0.947258 0.783487 0.000000
O O18 0.257020 0.178779 0.500000
O O19 0.409528 0.631264 0.500000
#
# Coordination Sequence:
#
# PCOD9495322 Si02
#       8
#    16  16  16  16  16   4  16  16
#     4  10  18  30  48  69  89 112 143 182 225 273
#     4   9  18  32  49  69  93 119 147 183 226 273
#     4  10  19  33  47  62  81 108 139 174 221 271
#     4  10  22  34  46  58  72  98 131 174 223 272
#     4  11  22  35  48  66  89 119 152 186 225 270
#     4  12  22  36  44  62  74  92 136 182 234 280
#     4   9  17  30  49  72  94 116 144 182 229 275
#     4   9  20  35  47  61  83 106 137 180 224 271
#
# _framework density 14.372342
#
# number of rings (size 3 to 8) (size 9 to 14) (size 15 to 20)
#    0.000    2.207    2.069    2.276    0.966    3.862 
#    0.000    1.379    0.000    0.000    0.000    0.000 
#    0.000    0.000    0.000    0.000    0.000    0.690 
#
# Total GULP energy -323423.734806 kJ/mol
# GULP energy per Si atom -5576.271290 kJ/mol
# Density = 1.433963 g / cm^3
# Si number density = 14.372342 Si / 1000 Ang^3
#
#
#
# Elastic Constant Matrix: (Units=GPa)
#
#
# Indices 1 2 3 4 5 6 
#
# 1 52.7694 33.0251 33.0159 0.0000 0.0000 0.0000
# 2 33.0251 98.6213 50.3846 0.0000 0.0000 0.0000
# 3 33.0159 50.3846 51.8444 0.0000 0.0000 0.0000
# 4 0.0000 0.0000 0.0000 23.7339 0.0000 0.0000
# 5 0.0000 0.0000 0.0000 0.0000 -18.3356 0.0000
# 6 0.0000 0.0000 0.0000 0.0000 0.0000 19.9653
#
#
#
# Elastic Compliance Matrix: (Units=1/GPa)
#
#
# Indices 1 2 3 4 5 6 
#
# 1 0.031520 -0.000596 -0.019493 0.000000 0.000000 0.000000
# 2 -0.000596 0.020150 -0.019203 0.000000 0.000000 0.000000
# 3 -0.019493 -0.019203 0.050365 0.000000 0.000000 0.000000
# 4 0.000000 0.000000 0.000000 0.042134 0.000000 0.000000
# 5 0.000000 0.000000 0.000000 0.000000 -0.054539 0.000000
# 6 0.000000 0.000000 0.000000 0.000000 0.000000 0.050087
#
#
# Mechanical properties :
#
#
# Convention : Reuss Voigt Hill
#
# Bulk Modulus (GPa) = 42.64472 48.45404 45.54938
# Shear Modulus (GPa) = 22.11234 10.86002 16.48618
#
# Velocity S-wave (km/s) = 3.92667 2.75183 3.39053
# Velocity P-wave (km/s) = 7.09183 6.62445 6.86212
#
# Compressibility (1/GPa) = 0.02344956
#
# Stress axis : x y z
#
# Youngs Moduli (GPa) = 31.72629 49.62759 19.85512
#
# Poissons Ratio (x) = 0.02958 0.38704
# Poissons Ratio (y) = 0.01891 0.38128
# Poissons Ratio (z) = 0.61845 0.95301
#
# Static dielectric constant tensor:
#      x y z
#    x 1.460720 0.000000 0.000000 
#    y 0.000000 1.474870 0.000000 
#    z 0.000000 0.000000 1.487920 
# 
# From -- ./inp_files/9611.got.cif
#   From: 2010.05.17/outbox.cif.g08.bks.cpg/sg66_5_cif.got.tgz:9611.got - 2010.06.03 17:51:23.
