data_PCOD9495576
_publ_section_title
;
Structure prediction by ZEFSAII (Michael W. Deem and Ramdas Pophale) SiO2 
 PCOD9495576
Probable space group: C C C M
;
_chemical_formula_sum "Si O2"
_cell_formula_units_Z 64
_cell_length_a 8.403108
_cell_length_b 13.423115
_cell_length_c 22.091848
_cell_angle_alpha 90.000000
_cell_angle_beta 90.000000
_cell_angle_gamma 90.000000
_cell_volume 2491.869547
_symmetry_space_group_name_H-M "C C C M"
_symmetry_group_IT_number 66
_symmetry_cell_setting 'orthorhombic'
loop_
_space_group_symop_operation_xyz
x,y,z
-x,-y,z
x,-y,1/2-z
-x,y,1/2-z
-x,-y,-z
x,y,-z
-x,y,1/2+z
x,-y,1/2+z
1/2+x,1/2+y,z
1/2-x,1/2-y,z
1/2+x,1/2-y,1/2-z
1/2-x,1/2+y,1/2-z
1/2-x,1/2-y,-z
1/2+x,1/2+y,-z
1/2-x,1/2+y,1/2+z
1/2+x,1/2-y,1/2+z
loop_
_atom_site_type_symbol
_atom_site_label
_atom_site_fract_x
_atom_site_fract_y
_atom_site_fract_z
Si Si1 0.166551 0.384340 0.770396
Si Si2 0.903173 0.106948 0.173468
Si Si3 0.897789 0.174427 0.435157
Si Si4 0.824758 0.479237 0.603764
O O1 0.162452 0.500000 0.750000
O O2 0.327844 0.351629 0.736197
O O3 0.164916 0.396716 0.842208
O O4 0.000000 0.339509 0.750000
O O5 0.001559 0.174595 0.126851
O O6 0.745882 0.077180 0.135076
O O7 0.000000 0.000000 0.181525
O O8 0.516471 0.309192 0.500000
O O9 0.750000 0.250000 0.434015
O O10 0.813102 0.066123 0.436651
O O11 0.000000 0.500000 0.579138
#
# Coordination Sequence:
#
# PCOD9495576 Si02
#       4
#    16  16  16  16
#     4   9  14  28  55  87 123 146 176 243 313 362
#     4   9  18  31  59  88 114 153 203 240 300 366
#     4  10  23  41  56  76 121 169 208 254 302 344
#     4  10  18  33  62  92 118 147 196 252 303 362
#
# _framework density 25.683527999999999
#
# number of rings (size 3 to 8) (size 9 to 14) (size 15 to 20)
#    0.000    2.500    5.000    0.000    0.000   16.500 
#    0.000    1.250    5.500    3.000    0.000    0.000 
#    0.000    0.000    0.000    0.000    0.000    0.000 
#
# Total GULP energy -178447.133765 kJ/mol
# GULP energy per Si atom -5576.472930 kJ/mol
# Density = 2.562507 g / cm^3
# Si number density = 25.683528 Si / 1000 Ang^3
#
#
#
# Elastic Constant Matrix: (Units=GPa)
#
#
# Indices 1 2 3 4 5 6 
#
# 1 141.3806 18.1509 25.5299 0.0000 0.0000 0.0000
# 2 18.1509 56.1912 14.3030 0.0000 0.0000 0.0000
# 3 25.5299 14.3030 161.6497 0.0000 0.0000 0.0000
# 4 0.0000 0.0000 0.0000 -1.5665 0.0000 0.0000
# 5 0.0000 0.0000 0.0000 0.0000 55.7323 0.0000
# 6 0.0000 0.0000 0.0000 0.0000 0.0000 34.9749
#
#
#
# Elastic Compliance Matrix: (Units=1/GPa)
#
#
# Indices 1 2 3 4 5 6 
#
# 1 0.007533 -0.002180 -0.000997 0.000000 0.000000 0.000000
# 2 -0.002180 0.018837 -0.001323 0.000000 0.000000 0.000000
# 3 -0.000997 -0.001323 0.006461 0.000000 0.000000 0.000000
# 4 0.000000 0.000000 0.000000 -0.638380 0.000000 0.000000
# 5 0.000000 0.000000 0.000000 0.000000 0.017943 0.000000
# 6 0.000000 0.000000 0.000000 0.000000 0.000000 0.028592
#
#
# Mechanical properties :
#
#
# Convention : Reuss Voigt Hill
#
# Bulk Modulus (GPa) = 41.95891 52.79881 47.37886
# Shear Modulus (GPa) = -9.22387 37.91066 14.34339
#
# Velocity S-wave (km/s) = -1.89714 3.84613 2.36575
# Velocity P-wave (km/s) = 3.40198 6.35025 5.09408
#
# Compressibility (1/GPa) = 0.02383284
#
# Stress axis : x y z
#
# Youngs Moduli (GPa) = 132.75041 53.08680 154.78272
#
# Poissons Ratio (x) = 0.11571 0.15430
# Poissons Ratio (y) = 0.28934 0.20470
# Poissons Ratio (z) = 0.13233 0.07021
#
# Static dielectric constant tensor:
#      x y z
#    x 2.092570 0.000000 0.000000 
#    y 0.000000 2.099670 0.000000 
#    z 0.000000 0.000000 2.167120 
# 
# From -- ./inp_files/55145.got.cif
#   From: 2010.05.17/outbox.cif.g08.bks.cpg/sg66_28_cif.got.tgz:55145.got - 2010.06.03 17:51:23.
