data_PCOD9495562
_publ_section_title
;
Structure prediction by ZEFSAII (Michael W. Deem and Ramdas Pophale) SiO2 
 PCOD9495562
Probable space group: C C C M
;
_chemical_formula_sum "Si O2"
_cell_formula_units_Z 92
_cell_length_a 20.888909
_cell_length_b 7.798453
_cell_length_c 24.182720
_cell_angle_alpha 90.000000
_cell_angle_beta 90.000000
_cell_angle_gamma 90.000000
_cell_volume 3939.393504
_symmetry_space_group_name_H-M "C C C M"
_symmetry_group_IT_number 66
_symmetry_cell_setting 'orthorhombic'
loop_
_space_group_symop_operation_xyz
x,y,z
-x,-y,z
x,-y,1/2-z
-x,y,1/2-z
-x,-y,-z
x,y,-z
-x,y,1/2+z
x,-y,1/2+z
1/2+x,1/2+y,z
1/2-x,1/2-y,z
1/2+x,1/2-y,1/2-z
1/2-x,1/2+y,1/2-z
1/2-x,1/2-y,-z
1/2+x,1/2+y,-z
1/2-x,1/2+y,1/2+z
1/2+x,1/2-y,1/2+z
loop_
_atom_site_type_symbol
_atom_site_label
_atom_site_fract_x
_atom_site_fract_y
_atom_site_fract_z
Si Si1 0.841203 0.076192 0.122898
Si Si2 0.276608 0.944528 0.688049
Si Si3 0.368644 0.961204 0.500000
Si Si4 0.978737 0.192657 0.873591
Si Si5 0.393364 0.181223 0.120069
Si Si6 0.337290 0.548031 0.000000
Si Si7 0.750000 0.750000 0.000000
Si Si8 0.545054 0.291887 0.000000
O O1 0.902585 0.193348 0.139112
O O2 0.820167 0.120992 0.060386
O O3 0.779543 0.062460 0.161962
O O4 0.867768 0.878816 0.120185
O O5 0.250000 0.750000 0.688290
O O6 0.340351 0.931404 0.651527
O O7 0.290588 0.000000 0.750000
O O8 0.394173 0.887274 0.442171
O O9 0.291959 0.934250 0.500000
O O10 0.398119 0.151558 0.500000
O O11 0.035910 0.314618 0.852762
O O12 0.985264 0.216472 0.940053
O O13 0.000000 0.000000 0.858696
O O14 0.314344 0.353656 0.000000
O O15 0.414729 0.533451 0.000000
#
# Coordination Sequence:
#
# PCOD9495562 Si02
#       8
#    16  16   8  16  16   8   4   8
#     4   9  17  34  61  91 123 162 214 255 303 381
#     4  10  22  41  63  90 118 160 215 269 325 375
#     4  12  23  34  57  96 130 170 203 249 321 380
#     4   9  18  34  60  91 126 169 210 245 302 379
#     4  10  19  34  62  92 126 166 208 252 311 390
#     4  10  18  33  58  89 128 160 200 250 314 375
#     4  12  20  32  56  78 124 172 218 242 292 374
#     4  10  22  35  50  91 139 170 198 250 304 383
#
# _framework density 23.353850000000001
#
# number of rings (size 3 to 8) (size 9 to 14) (size 15 to 20)
#    0.000    2.087    1.739    1.826    2.435    3.130 
#    6.261    0.000    0.000   13.043    0.000    0.000 
#    0.000    0.000    0.000    0.000    0.000    0.000 
#
# Total GULP energy -256079.333845 kJ/mol
# GULP energy per Si atom -5566.942040 kJ/mol
# Density = 2.330070 g / cm^3
# Si number density = 23.353850 Si / 1000 Ang^3
#
#
#
# Elastic Constant Matrix: (Units=GPa)
#
#
# Indices 1 2 3 4 5 6 
#
# 1 172.6624 55.8466 57.0744 0.0000 0.0000 0.0000
# 2 55.8466 50.9573 14.8447 0.0000 0.0000 0.0000
# 3 57.0744 14.8447 79.8037 0.0000 0.0000 0.0000
# 4 0.0000 0.0000 0.0000 -24.1146 0.0000 0.0000
# 5 0.0000 0.0000 0.0000 0.0000 8.8028 0.0000
# 6 0.0000 0.0000 0.0000 0.0000 0.0000 25.0334
#
#
#
# Elastic Compliance Matrix: (Units=1/GPa)
#
#
# Indices 1 2 3 4 5 6 
#
# 1 0.011186 -0.010498 -0.006047 0.000000 0.000000 0.000000
# 2 -0.010498 0.030600 0.001816 0.000000 0.000000 0.000000
# 3 -0.006047 0.001816 0.016518 0.000000 0.000000 0.000000
# 4 0.000000 0.000000 0.000000 -0.041469 0.000000 0.000000
# 5 0.000000 0.000000 0.000000 0.000000 0.113600 0.000000
# 6 0.000000 0.000000 0.000000 0.000000 0.000000 0.039947
#
#
# Mechanical properties :
#
#
# Convention : Reuss Voigt Hill
#
# Bulk Modulus (GPa) = 34.66745 62.10608 48.38677
# Shear Modulus (GPa) = 23.87133 13.65485 18.76309
#
# Velocity S-wave (km/s) = 3.20059 2.42067 2.83755
# Velocity P-wave (km/s) = 5.34182 5.87061 5.61245
#
# Compressibility (1/GPa) = 0.02884550
#
# Stress axis : x y z
#
# Youngs Moduli (GPa) = 89.39740 32.67960 60.54007
#
# Poissons Ratio (x) = 0.34306 0.36611
# Poissons Ratio (y) = 0.93846 -0.10992
# Poissons Ratio (z) = 0.54062 -0.05933
#
# Static dielectric constant tensor:
#      x y z
#    x 1.937270 0.000000 0.000000 
#    y 0.000000 1.998530 0.000000 
#    z 0.000000 0.000000 1.796590 
# 
# From -- ./inp_files/65712.got.cif
#   From: 2010.05.17/outbox.cif.g08.bks.cpg/sg66_33_cif.got.tgz:65712.got - 2010.06.03 17:51:23.
