data_PCOD9495008
_publ_section_title
;
Structure prediction by ZEFSAII (Michael W. Deem and Ramdas Pophale) SiO2 
 PCOD9495008
Probable space group: C C C M
;
_chemical_formula_sum "Si O2"
_cell_formula_units_Z 112
_cell_length_a 29.041660
_cell_length_b 13.765269
_cell_length_c 14.760471
_cell_angle_alpha 90.000000
_cell_angle_beta 90.000000
_cell_angle_gamma 90.000000
_cell_volume 5900.738319
_symmetry_space_group_name_H-M "C C C M"
_symmetry_group_IT_number 66
_symmetry_cell_setting 'orthorhombic'
loop_
_space_group_symop_operation_xyz
x,y,z
-x,-y,z
x,-y,1/2-z
-x,y,1/2-z
-x,-y,-z
x,y,-z
-x,y,1/2+z
x,-y,1/2+z
1/2+x,1/2+y,z
1/2-x,1/2-y,z
1/2+x,1/2-y,1/2-z
1/2-x,1/2+y,1/2-z
1/2-x,1/2-y,-z
1/2+x,1/2+y,-z
1/2-x,1/2+y,1/2+z
1/2+x,1/2-y,1/2+z
loop_
_atom_site_type_symbol
_atom_site_label
_atom_site_fract_x
_atom_site_fract_y
_atom_site_fract_z
Si Si1 0.846456 0.652428 0.895742
Si Si2 0.718807 0.651156 0.296958
Si Si3 0.798444 0.457962 0.109479
Si Si4 0.142157 0.269769 0.606706
Si Si5 0.551981 0.099083 0.360324
Si Si6 0.791390 0.171984 0.602545
Si Si7 0.049247 0.625427 0.856981
O O1 0.819261 0.560242 0.854712
O O2 0.900664 0.643699 0.891444
O O3 0.832844 0.758698 0.864761
O O4 0.831684 0.652459 0.000000
O O5 0.750000 0.750000 0.294125
O O6 0.749094 0.578609 0.357300
O O7 0.669979 0.685588 0.339986
O O8 0.716096 0.611909 0.193875
O O9 0.834050 0.372175 0.133970
O O10 0.797493 0.463283 0.000000
O O11 0.150647 0.253904 0.500000
O O12 0.087979 0.295640 0.618851
O O13 0.550951 0.110883 0.251517
O O14 0.503145 0.144840 0.388515
O O15 0.556557 0.985966 0.389250
O O16 0.797097 0.130721 0.500000
O O17 0.750000 0.250000 0.595535
#
# Coordination Sequence:
#
# PCOD9495008 Si02
#       7
#    16  16  16  16  16  16  16
#     4  10  18  29  46  64  84 112 149 195 235 269
#     4   9  17  29  42  60  82 110 141 178 229 273
#     4   9  17  28  42  64  86 108 145 185 226 274
#     4  10  17  26  40  59  84 114 144 178 222 270
#     4   9  17  28  39  55  81 113 152 194 225 252
#     4   9  18  32  46  61  82 108 145 186 226 273
#     4   9  17  27  38  55  81 115 153 190 223 253
#
# _framework density 18.980675000000002
#
# number of rings (size 3 to 8) (size 9 to 14) (size 15 to 20)
#    0.000    2.714    1.429    2.143    0.000    2.286 
#    0.000    1.429    0.000    0.000    0.000    1.000 
#    0.000    0.000    0.000    1.286    0.000   41.714 
#
# Total GULP energy -311828.094918 kJ/mol
# GULP energy per Si atom -5568.358838 kJ/mol
# Density = 1.893747 g / cm^3
# Si number density = 18.980675 Si / 1000 Ang^3
#
#
#
# Elastic Constant Matrix: (Units=GPa)
#
#
# Indices 1 2 3 4 5 6 
#
# 1 131.7088 26.8924 3.9329 0.0000 0.0000 0.0000
# 2 26.8924 26.0872 1.8295 0.0000 0.0000 0.0000
# 3 3.9329 1.8295 62.4348 0.0000 0.0000 0.0000
# 4 0.0000 0.0000 0.0000 9.3990 0.0000 0.0000
# 5 0.0000 0.0000 0.0000 0.0000 24.7798 0.0000
# 6 0.0000 0.0000 0.0000 0.0000 0.0000 29.1883
#
#
#
# Elastic Compliance Matrix: (Units=1/GPa)
#
#
# Indices 1 2 3 4 5 6 
#
# 1 0.009623 -0.009898 -0.000316 0.000000 0.000000 0.000000
# 2 -0.009898 0.048592 -0.000800 0.000000 0.000000 0.000000
# 3 -0.000316 -0.000800 0.016060 0.000000 0.000000 0.000000
# 4 0.000000 0.000000 0.000000 0.106395 0.000000 0.000000
# 5 0.000000 0.000000 0.000000 0.000000 0.040355 0.000000
# 6 0.000000 0.000000 0.000000 0.000000 0.000000 0.034260
#
#
# Mechanical properties :
#
#
# Convention : Reuss Voigt Hill
#
# Bulk Modulus (GPa) = 19.13992 31.72671 25.43332
# Shear Modulus (GPa) = 16.96467 25.17846 21.07157
#
# Velocity S-wave (km/s) = 2.99287 3.64611 3.33552
# Velocity P-wave (km/s) = 4.69562 5.87172 5.31629
#
# Compressibility (1/GPa) = 0.05224682
#
# Stress axis : x y z
#
# Youngs Moduli (GPa) = 103.91894 20.57933 62.26617
#
# Poissons Ratio (x) = 0.20369 0.01968
# Poissons Ratio (y) = 1.02856 0.04984
# Poissons Ratio (z) = 0.03285 0.01647
#
# Static dielectric constant tensor:
#      x y z
#    x 1.716460 0.000000 0.000000 
#    y 0.000000 1.695210 0.000000 
#    z 0.000000 0.000000 1.751940 
# 
# From -- ./inp_files/33942.got.cif
#   From: 2010.05.17/outbox.cif.g08.bks.cpg/sg66_17_cif.got.tgz:33942.got - 2010.06.03 17:51:23.
