data_PCOD9495118
_publ_section_title
;
Structure prediction by ZEFSAII (Michael W. Deem and Ramdas Pophale) SiO2 
 PCOD9495118
Probable space group: C C C M
;
_chemical_formula_sum "Si O2"
_cell_formula_units_Z 112
_cell_length_a 27.578929
_cell_length_b 11.376928
_cell_length_c 14.492826
_cell_angle_alpha 90.000000
_cell_angle_beta 90.000000
_cell_angle_gamma 90.000000
_cell_volume 4547.319659
_symmetry_space_group_name_H-M "C C C M"
_symmetry_group_IT_number 66
_symmetry_cell_setting 'orthorhombic'
loop_
_space_group_symop_operation_xyz
x,y,z
-x,-y,z
x,-y,1/2-z
-x,y,1/2-z
-x,-y,-z
x,y,-z
-x,y,1/2+z
x,-y,1/2+z
1/2+x,1/2+y,z
1/2-x,1/2-y,z
1/2+x,1/2-y,1/2-z
1/2-x,1/2+y,1/2-z
1/2-x,1/2-y,-z
1/2+x,1/2+y,-z
1/2-x,1/2+y,1/2+z
1/2+x,1/2-y,1/2+z
loop_
_atom_site_type_symbol
_atom_site_label
_atom_site_fract_x
_atom_site_fract_y
_atom_site_fract_z
Si Si1 0.100492 0.874344 0.863387
Si Si2 0.389966 0.367704 0.858446
Si Si3 0.145222 0.378567 0.605606
Si Si4 0.498458 0.664184 0.645514
Si Si5 0.041795 0.585899 0.888232
Si Si6 0.750279 0.883313 0.652110
Si Si7 0.284446 0.643288 0.361088
O O1 0.102956 0.861741 0.752335
O O2 0.127603 0.758483 0.897929
O O3 0.045160 0.897670 0.898557
O O4 0.123083 0.998789 0.884982
O O5 0.443902 0.332659 0.892356
O O6 0.338908 0.310422 0.882573
O O7 0.156316 0.413668 0.500000
O O8 0.096381 0.441850 0.640314
O O9 0.192573 0.400030 0.664984
O O10 0.500000 0.620034 0.750000
O O11 0.522367 0.792056 0.648447
O O12 0.000000 0.500000 0.860204
O O13 0.043216 0.593290 0.000000
O O14 0.750000 0.750000 0.606953
O O15 0.778300 0.866203 0.748918
O O16 0.769554 0.008210 0.610242
O O17 0.250000 0.750000 0.391311
#
# Coordination Sequence:
#
# PCOD9495118 Si02
#       7
#    16  16  16  16  16  16  16
#     4   9  16  30  49  75 102 128 165 206 258 319
#     4  10  17  30  51  70 101 137 163 206 267 318
#     4  10  20  34  54  77 104 139 178 222 265 314
#     4   9  18  29  49  79 102 125 165 214 260 312
#     4   9  19  36  53  70  99 138 173 206 258 327
#     4  10  19  34  52  75 103 138 181 221 270 320
#     4  10  20  32  50  76 104 136 175 222 269 320
#
# _framework density 24.629892999999999
#
# number of rings (size 3 to 8) (size 9 to 14) (size 15 to 20)
#    0.000    2.429    0.000    4.714    0.000    3.429 
#    0.000    3.571    0.000    4.714    0.000    0.000 
#    0.000    0.000    0.000    0.000    0.000    0.000 
#
# Total GULP energy -311875.108957 kJ/mol
# GULP energy per Si atom -5569.198374 kJ/mol
# Density = 2.457383 g / cm^3
# Si number density = 24.629893 Si / 1000 Ang^3
#
#
#
# Elastic Constant Matrix: (Units=GPa)
#
#
# Indices 1 2 3 4 5 6 
#
# 1 250.2738 26.4261 8.4370 0.0000 0.0000 0.0000
# 2 26.4261 61.9611 5.2699 0.0000 0.0000 0.0000
# 3 8.4370 5.2699 81.4709 0.0000 0.0000 0.0000
# 4 0.0000 0.0000 0.0000 37.0030 0.0000 0.0000
# 5 0.0000 0.0000 0.0000 0.0000 -22.0243 0.0000
# 6 0.0000 0.0000 0.0000 0.0000 0.0000 39.3929
#
#
#
# Elastic Compliance Matrix: (Units=1/GPa)
#
#
# Indices 1 2 3 4 5 6 
#
# 1 0.004192 -0.001761 -0.000320 0.000000 0.000000 0.000000
# 2 -0.001761 0.016968 -0.000915 0.000000 0.000000 0.000000
# 3 -0.000320 -0.000915 0.012367 0.000000 0.000000 0.000000
# 4 0.000000 0.000000 0.000000 0.027025 0.000000 0.000000
# 5 0.000000 0.000000 0.000000 0.000000 -0.045404 0.000000
# 6 0.000000 0.000000 0.000000 0.000000 0.000000 0.025385
#
#
# Mechanical properties :
#
#
# Convention : Reuss Voigt Hill
#
# Bulk Modulus (GPa) = 36.31808 52.66353 44.49081
# Shear Modulus (GPa) = 89.76116 34.44584 62.10350
#
# Velocity S-wave (km/s) = 6.04344 3.74376 5.02687
# Velocity P-wave (km/s) = 7.96712 6.33372 7.19691
#
# Compressibility (1/GPa) = 0.02753449
#
# Stress axis : x y z
#
# Youngs Moduli (GPa) = 238.53045 58.93458 80.86235
#
# Poissons Ratio (x) = 0.10377 0.02590
# Poissons Ratio (y) = 0.42000 0.07401
# Poissons Ratio (z) = 0.07639 0.05394
#
# Static dielectric constant tensor:
#      x y z
#    x 2.187160 0.000000 0.000000 
#    y 0.000000 1.197040 0.000000 
#    z 0.000000 0.000000 1.972520 
# 
# From -- ./inp_files/52611.got.cif
#   From: 2010.05.17/outbox.cif.g08.bks.cpg/sg66_27_cif.got.tgz:52611.got - 2010.06.03 17:51:23.
