data_PCOD9495480
_publ_section_title
;
Structure prediction by ZEFSAII (Michael W. Deem and Ramdas Pophale) SiO2 
 PCOD9495480
Probable space group: C C C M
;
_chemical_formula_sum "Si O2"
_cell_formula_units_Z 88
_cell_length_a 25.984998
_cell_length_b 20.718995
_cell_length_c 9.020605
_cell_angle_alpha 90.000000
_cell_angle_beta 90.000000
_cell_angle_gamma 90.000000
_cell_volume 4856.540775
_symmetry_space_group_name_H-M "C C C M"
_symmetry_group_IT_number 66
_symmetry_cell_setting 'orthorhombic'
loop_
_space_group_symop_operation_xyz
x,y,z
-x,-y,z
x,-y,1/2-z
-x,y,1/2-z
-x,-y,-z
x,y,-z
-x,y,1/2+z
x,-y,1/2+z
1/2+x,1/2+y,z
1/2-x,1/2-y,z
1/2+x,1/2-y,1/2-z
1/2-x,1/2+y,1/2-z
1/2-x,1/2-y,-z
1/2+x,1/2+y,-z
1/2-x,1/2+y,1/2+z
1/2+x,1/2-y,1/2+z
loop_
_atom_site_type_symbol
_atom_site_label
_atom_site_fract_x
_atom_site_fract_y
_atom_site_fract_z
Si Si1 0.361123 0.703372 0.671408
Si Si2 0.225296 0.394074 0.668245
Si Si3 0.881657 0.431774 0.677954
Si Si4 0.750000 0.250000 0.758530
Si Si5 0.170104 0.934372 0.321023
Si Si6 0.055235 0.305002 0.821089
O O1 0.374974 0.696220 0.500000
O O2 0.303169 0.731911 0.676329
O O3 0.358822 0.630720 0.732408
O O4 0.402340 0.753249 0.735341
O O5 0.224421 0.419461 0.500000
O O6 0.172434 0.409395 0.751310
O O7 0.235589 0.317007 0.662121
O O8 0.271935 0.424455 0.761123
O O9 0.895654 0.500000 0.750000
O O10 0.876523 0.437060 0.500000
O O11 0.922842 0.376093 0.712313
O O12 0.170082 0.937219 0.500000
O O13 0.149476 0.000000 0.250000
O O14 0.000000 0.294134 0.750000
O O15 0.051757 0.300534 0.000000
#
# Coordination Sequence:
#
# PCOD9495480 Si02
#       6
#    16  16  16   8  16  16
#     4   9  18  34  58  84 111 146 186 227 277 336
#     4  11  21  33  51  80 117 151 187 228 277 332
#     4  11  23  39  58  80 110 147 191 235 281 332
#     4  10  18  32  54  84 115 144 183 232 283 326
#     4  10  20  34  54  80 114 152 185 224 273 332
#     4  10  22  41  61  84 110 144 189 235 281 332
#
# _framework density 18.119893000000001
#
# number of rings (size 3 to 8) (size 9 to 14) (size 15 to 20)
#    0.000    1.818    1.818    2.727    0.000    3.273 
#    0.000    3.636    0.000    0.545    0.000    3.818 
#    0.000    0.000    0.000    0.000    0.000    0.000 
#
# Total GULP energy -245347.784302 kJ/mol
# GULP energy per Si atom -5576.086007 kJ/mol
# Density = 1.807865 g / cm^3
# Si number density = 18.119893 Si / 1000 Ang^3
#
#
#
# Elastic Constant Matrix: (Units=GPa)
#
#
# Indices 1 2 3 4 5 6 
#
# 1 110.3034 65.5230 22.1770 0.0000 0.0000 0.0000
# 2 65.5230 162.3491 36.9290 0.0000 0.0000 0.0000
# 3 22.1770 36.9290 57.5975 0.0000 0.0000 0.0000
# 4 0.0000 0.0000 0.0000 24.7558 0.0000 0.0000
# 5 0.0000 0.0000 0.0000 0.0000 14.5950 0.0000
# 6 0.0000 0.0000 0.0000 0.0000 0.0000 13.4086
#
#
#
# Elastic Compliance Matrix: (Units=1/GPa)
#
#
# Indices 1 2 3 4 5 6 
#
# 1 0.012080 -0.004469 -0.001786 0.000000 0.000000 0.000000
# 2 -0.004469 0.008865 -0.003963 0.000000 0.000000 0.000000
# 3 -0.001786 -0.003963 0.020590 0.000000 0.000000 0.000000
# 4 0.000000 0.000000 0.000000 0.040395 0.000000 0.000000
# 5 0.000000 0.000000 0.000000 0.000000 0.068516 0.000000
# 6 0.000000 0.000000 0.000000 0.000000 0.000000 0.074579
#
#
# Mechanical properties :
#
#
# Convention : Reuss Voigt Hill
#
# Bulk Modulus (GPa) = 47.39507 64.38980 55.89244
# Shear Modulus (GPa) = 19.80252 24.25996 22.03124
#
# Velocity S-wave (km/s) = 3.30943 3.66301 3.49070
# Velocity P-wave (km/s) = 6.38876 7.31456 6.86728
#
# Compressibility (1/GPa) = 0.02109924
#
# Stress axis : x y z
#
# Youngs Moduli (GPa) = 82.78366 112.80710 48.56664
#
# Poissons Ratio (x) = 0.50415 0.08673
# Poissons Ratio (y) = 0.36997 0.19246
# Poissons Ratio (z) = 0.14783 0.44704
#
# Static dielectric constant tensor:
#      x y z
#    x 1.588500 0.000000 0.000000 
#    y 0.000000 1.671310 0.000000 
#    z 0.000000 0.000000 1.623440 
# 
# From -- ./inp_files/8994.got.cif
#   From: 2010.05.17/outbox.cif.g08.bks.cpg/sg66_5_cif.got.tgz:8994.got - 2010.06.03 17:51:23.
