data_PCOD9495855
_publ_section_title
;
Structure prediction by ZEFSAII (Michael W. Deem and Ramdas Pophale) SiO2 
 PCOD9495855
Probable space group: C C C M
;
_chemical_formula_sum "Si O2"
_cell_formula_units_Z 96
_cell_length_a 23.526940
_cell_length_b 22.032907
_cell_length_c 8.209548
_cell_angle_alpha 90.000000
_cell_angle_beta 90.000000
_cell_angle_gamma 90.000000
_cell_volume 4255.557791
_symmetry_space_group_name_H-M "C C C M"
_symmetry_group_IT_number 66
_symmetry_cell_setting 'orthorhombic'
loop_
_space_group_symop_operation_xyz
x,y,z
-x,-y,z
x,-y,1/2-z
-x,y,1/2-z
-x,-y,-z
x,y,-z
-x,y,1/2+z
x,-y,1/2+z
1/2+x,1/2+y,z
1/2-x,1/2-y,z
1/2+x,1/2-y,1/2-z
1/2-x,1/2+y,1/2-z
1/2-x,1/2-y,-z
1/2+x,1/2+y,-z
1/2-x,1/2+y,1/2+z
1/2+x,1/2-y,1/2+z
loop_
_atom_site_type_symbol
_atom_site_label
_atom_site_fract_x
_atom_site_fract_y
_atom_site_fract_z
Si Si1 0.775619 0.574911 0.179895
Si Si2 0.439648 0.332780 0.302467
Si Si3 0.198219 0.286867 0.184489
Si Si4 0.647896 0.564949 0.306527
Si Si5 0.596546 0.935033 0.692708
Si Si6 0.421789 0.801661 0.186382
O O1 0.777383 0.454307 0.500000
O O2 0.778325 0.646461 0.162810
O O3 0.714327 0.564141 0.257488
O O4 0.835829 0.562596 0.267070
O O5 0.500000 0.360187 0.250000
O O6 0.436226 0.328730 0.500000
O O7 0.387856 0.376258 0.245859
O O8 0.440290 0.262819 0.237303
O O9 0.250000 0.250000 0.254520
O O10 0.145646 0.291324 0.303709
O O11 0.182731 0.264514 0.000000
O O12 0.623413 0.500000 0.250000
O O13 0.645135 0.567122 0.500000
O O14 0.589990 0.931602 0.500000
O O15 0.571744 0.870175 0.760163
O O16 0.572430 0.000000 0.750000
O O17 0.442628 0.804138 0.000000
#
# Coordination Sequence:
#
# PCOD9495855 Si02
#       6
#    16  16  16  16  16  16
#     4  10  19  31  49  76 111 148 184 217 254 305
#     4  10  23  42  62  82 103 132 174 225 278 327
#     4   9  17  28  45  73 107 140 174 213 256 305
#     4  11  23  38  56  79 108 141 179 221 266 317
#     4  10  19  32  52  79 114 150 181 214 253 304
#     4   9  19  35  54  77 104 136 174 215 261 313
#
# _framework density 22.558734000000001
#
# number of rings (size 3 to 8) (size 9 to 14) (size 15 to 20)
#    0.000    2.167    0.000    3.000    0.000    4.000 
#    0.000    1.667    0.000    0.500    0.000    3.500 
#    0.000    0.000    0.000    0.000    0.000    0.000 
#
# Total GULP energy -267301.784991 kJ/mol
# GULP energy per Si atom -5568.787187 kJ/mol
# Density = 2.250739 g / cm^3
# Si number density = 22.558734 Si / 1000 Ang^3
#
#
#
# Elastic Constant Matrix: (Units=GPa)
#
#
# Indices 1 2 3 4 5 6 
#
# 1 74.4738 42.6379 5.1070 0.0000 0.0000 0.0000
# 2 42.6379 117.5004 9.4597 0.0000 0.0000 0.0000
# 3 5.1070 9.4597 34.4085 0.0000 0.0000 0.0000
# 4 0.0000 0.0000 0.0000 16.9914 0.0000 0.0000
# 5 0.0000 0.0000 0.0000 0.0000 10.5553 0.0000
# 6 0.0000 0.0000 0.0000 0.0000 0.0000 59.0458
#
#
#
# Elastic Compliance Matrix: (Units=1/GPa)
#
#
# Indices 1 2 3 4 5 6 
#
# 1 0.016973 -0.006091 -0.000845 0.000000 0.000000 0.000000
# 2 -0.006091 0.010889 -0.002090 0.000000 0.000000 0.000000
# 3 -0.000845 -0.002090 0.029762 0.000000 0.000000 0.000000
# 4 0.000000 0.000000 0.000000 0.058853 0.000000 0.000000
# 5 0.000000 0.000000 0.000000 0.000000 0.094739 0.000000
# 6 0.000000 0.000000 0.000000 0.000000 0.000000 0.016936
#
#
# Mechanical properties :
#
#
# Convention : Reuss Voigt Hill
#
# Bulk Modulus (GPa) = 25.26923 37.86577 31.56750
# Shear Modulus (GPa) = 19.27570 28.59706 23.93638
#
# Velocity S-wave (km/s) = 2.92630 3.56430 3.26094
# Velocity P-wave (km/s) = 4.75852 5.81041 5.31057
#
# Compressibility (1/GPa) = 0.03957383
#
# Stress axis : x y z
#
# Youngs Moduli (GPa) = 58.91832 91.83510 33.59944
#
# Poissons Ratio (x) = 0.55936 0.02838
# Poissons Ratio (y) = 0.35887 0.07021
# Poissons Ratio (z) = 0.04976 0.19190
#
# Static dielectric constant tensor:
#      x y z
#    x 1.963960 0.000000 0.000000 
#    y 0.000000 1.895730 0.000000 
#    z 0.000000 0.000000 1.886050 
# 
# From -- ./inp_files/9124.got.cif
#   From: 2010.05.17/outbox.cif.g08.bks.cpg/sg66_5_cif.got.tgz:9124.got - 2010.06.03 17:51:23.
