data_PCOD9495410
_publ_section_title
;
Structure prediction by ZEFSAII (Michael W. Deem and Ramdas Pophale) SiO2 
 PCOD9495410
Probable space group: C C C M
;
_chemical_formula_sum "Si O2"
_cell_formula_units_Z 112
_cell_length_a 13.244353
_cell_length_b 19.333101
_cell_length_c 24.357921
_cell_angle_alpha 90.000000
_cell_angle_beta 90.000000
_cell_angle_gamma 90.000000
_cell_volume 6236.953193
_symmetry_space_group_name_H-M "C C C M"
_symmetry_group_IT_number 66
_symmetry_cell_setting 'orthorhombic'
loop_
_space_group_symop_operation_xyz
x,y,z
-x,-y,z
x,-y,1/2-z
-x,y,1/2-z
-x,-y,-z
x,y,-z
-x,y,1/2+z
x,-y,1/2+z
1/2+x,1/2+y,z
1/2-x,1/2-y,z
1/2+x,1/2-y,1/2-z
1/2-x,1/2+y,1/2-z
1/2-x,1/2-y,-z
1/2+x,1/2+y,-z
1/2-x,1/2+y,1/2+z
1/2+x,1/2-y,1/2+z
loop_
_atom_site_type_symbol
_atom_site_label
_atom_site_fract_x
_atom_site_fract_y
_atom_site_fract_z
Si Si1 0.108227 0.816211 0.064071
Si Si2 0.461167 0.818363 0.897882
Si Si3 0.934803 0.070237 0.436549
Si Si4 0.203643 0.582287 0.062095
Si Si5 0.457101 0.926274 0.688659
Si Si6 0.767401 0.557067 0.874059
Si Si7 0.675822 0.192381 0.436792
O O1 0.105829 0.750857 0.104647
O O2 0.204598 0.865160 0.072959
O O3 0.010369 0.865366 0.069925
O O4 0.113755 0.792174 0.000000
O O5 0.398842 0.874872 0.931748
O O6 0.499458 0.860371 0.844700
O O7 0.559681 0.789553 0.928708
O O8 0.893138 0.073809 0.500000
O O9 0.851327 0.067568 0.388234
O O10 0.000000 0.000000 0.434273
O O11 0.208701 0.518811 0.103460
O O12 0.215296 0.555910 0.000000
O O13 0.500000 0.921152 0.750000
O O14 0.334720 0.931589 0.681125
O O15 0.500000 0.000000 0.666419
O O16 0.813363 0.617058 0.911722
O O17 0.702098 0.187525 0.500000
O O18 0.750000 0.250000 0.411307
#
# Coordination Sequence:
#
# PCOD9495410 Si02
#       7
#    16  16  16  16  16  16  16
#     4  10  20  33  52  80 123 166 190 215 262 336
#     4  11  21  34  54  80 106 147 194 236 289 342
#     4  10  18  31  52  83 125 167 194 215 256 331
#     4  11  20  31  50  83 122 157 190 224 266 338
#     4  10  22  42  61  79  98 134 189 252 313 349
#     4  11  20  33  55  84 108 148 196 235 275 338
#     4  10  20  32  48  74 115 158 189 226 271 326
#
# _framework density 17.957485999999999
#
# number of rings (size 3 to 8) (size 9 to 14) (size 15 to 20)
#    0.000    1.571    2.857    3.857    0.000    3.429 
#    0.000    2.143    0.000   10.286    0.000    6.000 
#    0.000    0.000    0.000    0.000    0.000    0.000 
#
# Total GULP energy -311866.764497 kJ/mol
# GULP energy per Si atom -5569.049366 kJ/mol
# Density = 1.791661 g / cm^3
# Si number density = 17.957486 Si / 1000 Ang^3
#
#
#
# Elastic Constant Matrix: (Units=GPa)
#
#
# Indices 1 2 3 4 5 6 
#
# 1 95.4601 12.9793 30.4869 0.0000 0.0000 0.0000
# 2 12.9793 87.9706 30.9433 0.0000 0.0000 0.0000
# 3 30.4869 30.9433 53.8911 0.0000 0.0000 0.0000
# 4 0.0000 0.0000 0.0000 18.9654 0.0000 0.0000
# 5 0.0000 0.0000 0.0000 0.0000 26.2050 0.0000
# 6 0.0000 0.0000 0.0000 0.0000 0.0000 28.6509
#
#
#
# Elastic Compliance Matrix: (Units=1/GPa)
#
#
# Indices 1 2 3 4 5 6 
#
# 1 0.012833 0.000827 -0.007735 0.000000 0.000000 0.000000
# 2 0.000827 0.014298 -0.008677 0.000000 0.000000 0.000000
# 3 -0.007735 -0.008677 0.027914 0.000000 0.000000 0.000000
# 4 0.000000 0.000000 0.000000 0.052728 0.000000 0.000000
# 5 0.000000 0.000000 0.000000 0.000000 0.038161 0.000000
# 6 0.000000 0.000000 0.000000 0.000000 0.000000 0.034903
#
#
# Mechanical properties :
#
#
# Convention : Reuss Voigt Hill
#
# Bulk Modulus (GPa) = 41.88511 42.90455 42.39483
# Shear Modulus (GPa) = 22.73087 25.62508 24.17797
#
# Velocity S-wave (km/s) = 3.56169 3.78164 3.67331
# Velocity P-wave (km/s) = 6.34739 6.55835 6.45373
#
# Compressibility (1/GPa) = 0.02387483
#
# Stress axis : x y z
#
# Youngs Moduli (GPa) = 77.92146 69.94162 35.82400
#
# Poissons Ratio (x) = -0.05786 0.27710
# Poissons Ratio (y) = -0.06447 0.31086
# Poissons Ratio (z) = 0.60273 0.60692
#
# Static dielectric constant tensor:
#      x y z
#    x 1.483860 0.000000 0.000000 
#    y 0.000000 1.673040 0.000000 
#    z 0.000000 0.000000 1.599820 
# 
# From -- ./inp_files/57148.got.cif
#   From: 2010.05.17/outbox.cif.g08.bks.cpg/sg66_29_cif.got.tgz:57148.got - 2010.06.03 17:51:23.
