data_PCOD9495748
_publ_section_title
;
Structure prediction by ZEFSAII (Michael W. Deem and Ramdas Pophale) SiO2 
 PCOD9495748
Probable space group: C C C M
;
_chemical_formula_sum "Si O2"
_cell_formula_units_Z 112
_cell_length_a 27.158842
_cell_length_b 7.252093
_cell_length_c 25.994575
_cell_angle_alpha 90.000000
_cell_angle_beta 90.000000
_cell_angle_gamma 90.000000
_cell_volume 5119.851147
_symmetry_space_group_name_H-M "C C C M"
_symmetry_group_IT_number 66
_symmetry_cell_setting 'orthorhombic'
loop_
_space_group_symop_operation_xyz
x,y,z
-x,-y,z
x,-y,1/2-z
-x,y,1/2-z
-x,-y,-z
x,y,-z
-x,y,1/2+z
x,-y,1/2+z
1/2+x,1/2+y,z
1/2-x,1/2-y,z
1/2+x,1/2-y,1/2-z
1/2-x,1/2+y,1/2-z
1/2-x,1/2-y,-z
1/2+x,1/2+y,-z
1/2-x,1/2+y,1/2+z
1/2+x,1/2-y,1/2+z
loop_
_atom_site_type_symbol
_atom_site_label
_atom_site_fract_x
_atom_site_fract_y
_atom_site_fract_z
Si Si1 0.002570 0.723720 0.439603
Si Si2 0.107660 0.666243 0.437849
Si Si3 0.446396 0.787831 0.233055
Si Si4 0.305082 0.204632 0.132259
Si Si5 0.339930 0.224718 0.241716
Si Si6 0.305742 0.768387 0.852164
Si Si7 0.908863 0.266959 0.115210
O O1 0.999779 0.756122 0.500000
O O2 0.955475 0.816103 0.414267
O O3 0.000000 0.500000 0.431606
O O4 0.057508 0.769160 0.421766
O O5 0.110806 0.660063 0.500000
O O6 0.155045 0.751967 0.410781
O O7 0.101105 0.459183 0.415287
O O8 0.500000 0.710196 0.250000
O O9 0.396977 0.711959 0.260025
O O10 0.430991 0.789645 0.172893
O O11 0.448945 0.000000 0.250000
O O12 0.250000 0.250000 0.115936
O O13 0.314984 0.284731 0.188883
O O14 0.312344 0.987761 0.142857
O O15 0.311324 0.289399 0.292548
O O16 0.341068 0.000000 0.250000
O O17 0.250000 0.750000 0.871354
O O18 0.353990 0.683115 0.879754
#
# Coordination Sequence:
#
# PCOD9495748 Si02
#       7
#    16  16  16  16  16  16  16
#     4   8  14  23  38  58  81 110 139 169 214 268
#     4   9  17  27  41  60  86 117 146 182 223 266
#     4   9  16  19  31  57  86 116 134 167 216 267
#     4  10  19  29  45  65  87 116 150 187 219 255
#     4   8  15  27  39  60  88 117 145 175 212 261
#     4   9  17  30  45  63  91 119 147 177 214 263
#     4   9  16  24  39  59  84 114 141 175 217 263
#
# _framework density 21.875637000000001
#
# number of rings (size 3 to 8) (size 9 to 14) (size 15 to 20)
#    0.000    3.143    0.000    4.286    8.000    0.286 
#    0.000    0.000    0.000   10.714    0.000    1.000 
#    0.000    3.714    0.000    0.000    0.000    0.000 
#
# Total GULP energy -311849.561539 kJ/mol
# GULP energy per Si atom -5568.742170 kJ/mol
# Density = 2.182585 g / cm^3
# Si number density = 21.875637 Si / 1000 Ang^3
#
#
#
# Elastic Constant Matrix: (Units=GPa)
#
#
# Indices 1 2 3 4 5 6 
#
# 1 240.8164 4.1497 78.9665 0.0000 0.0000 0.0000
# 2 4.1497 61.7002 11.8792 0.0000 0.0000 0.0000
# 3 78.9665 11.8792 68.5307 0.0000 0.0000 0.0000
# 4 0.0000 0.0000 0.0000 -2.7637 0.0000 0.0000
# 5 0.0000 0.0000 0.0000 0.0000 25.0167 0.0000
# 6 0.0000 0.0000 0.0000 0.0000 0.0000 4.4931
#
#
#
# Elastic Compliance Matrix: (Units=1/GPa)
#
#
# Indices 1 2 3 4 5 6 
#
# 1 0.006743 0.001078 -0.007957 0.000000 0.000000 0.000000
# 2 0.001078 0.016939 -0.004179 0.000000 0.000000 0.000000
# 3 -0.007957 -0.004179 0.024485 0.000000 0.000000 0.000000
# 4 0.000000 0.000000 0.000000 -0.361829 0.000000 0.000000
# 5 0.000000 0.000000 0.000000 0.000000 0.039973 0.000000
# 6 0.000000 0.000000 0.000000 0.000000 0.000000 0.222564
#
#
# Mechanical properties :
#
#
# Convention : Reuss Voigt Hill
#
# Bulk Modulus (GPa) = 38.38377 62.33755 50.36066
# Shear Modulus (GPa) = -245.99364 23.75268 -111.12048
#
# Velocity S-wave (km/s) = -10.61579 3.29873 -7.13490
# Velocity P-wave (km/s) = 11.51849 6.56255 6.69360
#
# Compressibility (1/GPa) = 0.02605268
#
# Stress axis : x y z
#
# Youngs Moduli (GPa) = 148.29943 59.03384 40.84144
#
# Poissons Ratio (x) = -0.06366 0.32497
# Poissons Ratio (y) = -0.15993 0.17067
# Poissons Ratio (z) = 1.18000 0.24670
#
# Static dielectric constant tensor:
#      x y z
#    x 1.927670 0.000000 0.000000 
#    y 0.000000 1.932270 0.000000 
#    z 0.000000 0.000000 1.836430 
# 
# From -- ./inp_files/66157.got.cif
#   From: 2010.05.17/outbox.cif.g08.bks.cpg/sg66_34_cif.got.tgz:66157.got - 2010.06.03 17:51:23.
