data_PCOD9495849
_publ_section_title
;
Structure prediction by ZEFSAII (Michael W. Deem and Ramdas Pophale) SiO2 
 PCOD9495849
Probable space group: C C C M
;
_chemical_formula_sum "Si O2"
_cell_formula_units_Z 80
_cell_length_a 18.488523
_cell_length_b 28.059147
_cell_length_c 8.539394
_cell_angle_alpha 90.000000
_cell_angle_beta 90.000000
_cell_angle_gamma 90.000000
_cell_volume 4430.000081
_symmetry_space_group_name_H-M "C C C M"
_symmetry_group_IT_number 66
_symmetry_cell_setting 'orthorhombic'
loop_
_space_group_symop_operation_xyz
x,y,z
-x,-y,z
x,-y,1/2-z
-x,y,1/2-z
-x,-y,-z
x,y,-z
-x,y,1/2+z
x,-y,1/2+z
1/2+x,1/2+y,z
1/2-x,1/2-y,z
1/2+x,1/2-y,1/2-z
1/2-x,1/2+y,1/2-z
1/2-x,1/2-y,-z
1/2+x,1/2+y,-z
1/2-x,1/2+y,1/2+z
1/2+x,1/2-y,1/2+z
loop_
_atom_site_type_symbol
_atom_site_label
_atom_site_fract_x
_atom_site_fract_y
_atom_site_fract_z
Si Si1 0.078041 0.788971 0.810753
Si Si2 0.076755 0.417368 0.185243
Si Si3 0.229406 0.449851 0.687002
Si Si4 0.624415 0.183203 0.189286
Si Si5 0.715959 0.651633 0.309940
O O1 0.093318 0.734210 0.763532
O O2 0.144135 0.821962 0.754291
O O3 0.000000 0.804212 0.750000
O O4 0.078055 0.789809 0.000000
O O5 0.146476 0.442589 0.259627
O O6 0.085910 0.361631 0.231241
O O7 0.000000 0.434563 0.250000
O O8 0.079005 0.422951 0.000000
O O9 0.257093 0.500000 0.750000
O O10 0.230893 0.450189 0.500000
O O11 0.272554 0.402881 0.742834
O O12 0.709777 0.179314 0.228519
O O13 0.617800 0.177936 0.000000
O O14 0.712626 0.650963 0.500000
#
# Coordination Sequence:
#
# PCOD9495849 Si02
#       5
#    16  16  16  16  16
#     4  10  19  31  49  74 103 134 167 203 246 294
#     4  11  21  33  49  72 104 138 170 203 241 286
#     4  10  20  36  56  76  96 123 163 208 255 301
#     4   9  17  31  51  73  99 134 173 207 241 285
#     4   8  16  32  53  73  96 130 168 203 242 296
#
# _framework density 18.058692000000001
#
# number of rings (size 3 to 8) (size 9 to 14) (size 15 to 20)
#    0.000    2.400    0.000    4.800    0.000    5.200 
#    0.000    7.000    0.000    6.600    0.000    4.200 
#    0.000    0.000    0.000    0.000    0.000    0.000 
#
# Total GULP energy -223270.892160 kJ/mol
# GULP energy per Si atom -5581.772304 kJ/mol
# Density = 1.801759 g / cm^3
# Si number density = 18.058692 Si / 1000 Ang^3
#
#
#
# Elastic Constant Matrix: (Units=GPa)
#
#
# Indices 1 2 3 4 5 6 
#
# 1 71.3969 21.0032 2.0381 0.0000 0.0000 0.0000
# 2 21.0032 69.3344 9.4277 0.0000 0.0000 0.0000
# 3 2.0381 9.4277 33.9856 0.0000 0.0000 0.0000
# 4 0.0000 0.0000 0.0000 27.5734 0.0000 0.0000
# 5 0.0000 0.0000 0.0000 0.0000 20.6067 0.0000
# 6 0.0000 0.0000 0.0000 0.0000 0.0000 3.7078
#
#
#
# Elastic Compliance Matrix: (Units=1/GPa)
#
#
# Indices 1 2 3 4 5 6 
#
# 1 0.015381 -0.004712 0.000385 0.000000 0.000000 0.000000
# 2 -0.004712 0.016432 -0.004276 0.000000 0.000000 0.000000
# 3 0.000385 -0.004276 0.030587 0.000000 0.000000 0.000000
# 4 0.000000 0.000000 0.000000 0.036267 0.000000 0.000000
# 5 0.000000 0.000000 0.000000 0.000000 0.048528 0.000000
# 6 0.000000 0.000000 0.000000 0.000000 0.000000 0.269705
#
#
# Mechanical properties :
#
#
# Convention : Reuss Voigt Hill
#
# Bulk Modulus (GPa) = 22.12648 26.62833 24.37740
# Shear Modulus (GPa) = 11.13164 19.86077 15.49620
#
# Velocity S-wave (km/s) = 2.48546 3.31991 2.93252
# Velocity P-wave (km/s) = 4.52944 5.42892 4.99945
#
# Compressibility (1/GPa) = 0.04519473
#
# Stress axis : x y z
#
# Youngs Moduli (GPa) = 65.01400 60.85864 32.69338
#
# Poissons Ratio (x) = 0.28675 -0.01258
# Poissons Ratio (y) = 0.30633 0.13978
# Poissons Ratio (z) = -0.02501 0.26021
#
# Static dielectric constant tensor:
#      x y z
#    x 1.607140 0.000000 0.000000 
#    y 0.000000 1.634450 0.000000 
#    z 0.000000 0.000000 1.616550 
# 
# From -- ./inp_files/6684.got.cif
#   From: 2010.05.17/outbox.cif.g08.bks.cpg/sg66_4_cif.got.tgz:6684.got - 2010.06.03 17:51:23.
