data_PCOD9495933
_publ_section_title
;
Structure prediction by ZEFSAII (Michael W. Deem and Ramdas Pophale) SiO2 
 PCOD9495933
Probable space group: C C C M
;
_chemical_formula_sum "Si O2"
_cell_formula_units_Z 80
_cell_length_a 27.885724
_cell_length_b 14.744287
_cell_length_c 9.631457
_cell_angle_alpha 90.000000
_cell_angle_beta 90.000000
_cell_angle_gamma 90.000000
_cell_volume 3960.022838
_symmetry_space_group_name_H-M "C C C M"
_symmetry_group_IT_number 66
_symmetry_cell_setting 'orthorhombic'
loop_
_space_group_symop_operation_xyz
x,y,z
-x,-y,z
x,-y,1/2-z
-x,y,1/2-z
-x,-y,-z
x,y,-z
-x,y,1/2+z
x,-y,1/2+z
1/2+x,1/2+y,z
1/2-x,1/2-y,z
1/2+x,1/2-y,1/2-z
1/2-x,1/2+y,1/2-z
1/2-x,1/2-y,-z
1/2+x,1/2+y,-z
1/2-x,1/2+y,1/2+z
1/2+x,1/2-y,1/2+z
loop_
_atom_site_type_symbol
_atom_site_label
_atom_site_fract_x
_atom_site_fract_y
_atom_site_fract_z
Si Si1 0.653549 0.710845 0.847457
Si Si2 0.718894 0.591080 0.657831
Si Si3 0.932974 0.409826 0.156995
Si Si4 0.174228 0.606797 0.219613
Si Si5 0.457376 0.266309 0.164412
O O1 0.683705 0.662703 0.728759
O O2 0.664678 0.818715 0.838697
O O3 0.596644 0.694214 0.829750
O O4 0.668274 0.677879 0.000000
O O5 0.716999 0.500000 0.750000
O O6 0.705167 0.571631 0.500000
O O7 0.773633 0.627868 0.658576
O O8 0.939100 0.500000 0.250000
O O9 0.876210 0.389602 0.141090
O O10 0.951684 0.327788 0.251059
O O11 0.953037 0.417089 0.000000
O O12 0.177929 0.500000 0.250000
O O13 0.500000 0.315356 0.250000
O O14 0.468774 0.255648 0.000000
#
# Coordination Sequence:
#
# PCOD9495933 Si02
#       5
#    16  16  16  16  16
#     4  10  22  39  59  84 115 150 188 233 285 338
#     4  11  23  38  58  84 115 151 192 236 282 334
#     4  10  19  32  50  74 108 147 187 229 271 319
#     4   9  20  34  54  83 118 157 195 229 268 322
#     4  10  21  37  56  78 104 137 179 227 281 337
#
# _framework density 20.201903999999999
#
# number of rings (size 3 to 8) (size 9 to 14) (size 15 to 20)
#    0.000    2.000    0.000    3.000    0.000   15.600 
#    0.000    2.000    0.000    0.600    0.000    4.200 
#    0.000    0.000    0.000    0.000    0.000    0.000 
#
# Total GULP energy -222782.574392 kJ/mol
# GULP energy per Si atom -5569.564360 kJ/mol
# Density = 2.015592 g / cm^3
# Si number density = 20.201904 Si / 1000 Ang^3
#
#
#
# Elastic Constant Matrix: (Units=GPa)
#
#
# Indices 1 2 3 4 5 6 
#
# 1 119.0033 26.1819 57.0018 0.0000 0.0000 0.0000
# 2 26.1819 36.9386 27.8584 0.0000 0.0000 0.0000
# 3 57.0018 27.8584 174.8451 0.0000 0.0000 0.0000
# 4 0.0000 0.0000 0.0000 -0.0511 0.0000 0.0000
# 5 0.0000 0.0000 0.0000 0.0000 3.8983 0.0000
# 6 0.0000 0.0000 0.0000 0.0000 0.0000 38.7846
#
#
#
# Elastic Compliance Matrix: (Units=1/GPa)
#
#
# Indices 1 2 3 4 5 6 
#
# 1 0.010938 -0.005755 -0.002649 0.000000 0.000000 0.000000
# 2 -0.005755 0.033797 -0.003509 0.000000 0.000000 0.000000
# 3 -0.002649 -0.003509 0.007142 0.000000 0.000000 0.000000
# 4 0.000000 0.000000 0.000000-19.564339 0.000000 0.000000
# 5 0.000000 0.000000 0.000000 0.000000 0.256523 0.000000
# 6 0.000000 0.000000 0.000000 0.000000 0.000000 0.025783
#
#
# Mechanical properties :
#
#
# Convention : Reuss Voigt Hill
#
# Bulk Modulus (GPa) = 35.64833 61.43013 48.53923
# Shear Modulus (GPa) = -0.26046 23.17602 11.45778
#
# Velocity S-wave (km/s) = -0.35945 3.39074 2.38410
# Velocity P-wave (km/s) = 4.18474 6.76783 5.62653
#
# Compressibility (1/GPa) = 0.02805181
#
# Stress axis : x y z
#
# Youngs Moduli (GPa) = 91.42307 29.58816 140.01638
#
# Poissons Ratio (x) = 0.17028 0.37091
# Poissons Ratio (y) = 0.52614 0.49129
# Poissons Ratio (z) = 0.24218 0.10382
#
# Static dielectric constant tensor:
#      x y z
#    x 1.776980 0.000000 0.000000 
#    y 0.000000 1.729930 0.000000 
#    z 0.000000 0.000000 1.719870 
# 
# From -- ./inp_files/10077.got.cif
#   From: 2010.05.17/outbox.cif.g08.bks.cpg/sg66_6_cif.got.tgz:10077.got - 2010.06.03 17:51:23.
