data_PCOD9495275
_publ_section_title
;
Structure prediction by ZEFSAII (Michael W. Deem and Ramdas Pophale) SiO2 
 PCOD9495275
Probable space group: C C C M
;
_chemical_formula_sum "Si O2"
_cell_formula_units_Z 96
_cell_length_a 16.005465
_cell_length_b 20.296868
_cell_length_c 14.502619
_cell_angle_alpha 90.000000
_cell_angle_beta 90.000000
_cell_angle_gamma 90.000000
_cell_volume 4711.332561
_symmetry_space_group_name_H-M "C C C M"
_symmetry_group_IT_number 66
_symmetry_cell_setting 'orthorhombic'
loop_
_space_group_symop_operation_xyz
x,y,z
-x,-y,z
x,-y,1/2-z
-x,y,1/2-z
-x,-y,-z
x,y,-z
-x,y,1/2+z
x,-y,1/2+z
1/2+x,1/2+y,z
1/2-x,1/2-y,z
1/2+x,1/2-y,1/2-z
1/2-x,1/2+y,1/2-z
1/2-x,1/2-y,-z
1/2+x,1/2+y,-z
1/2-x,1/2+y,1/2+z
1/2+x,1/2-y,1/2+z
loop_
_atom_site_type_symbol
_atom_site_label
_atom_site_fract_x
_atom_site_fract_y
_atom_site_fract_z
Si Si1 0.977153 0.609415 0.356860
Si Si2 0.345562 0.923735 0.605441
Si Si3 0.808831 0.811866 0.386909
Si Si4 0.339967 0.776688 0.386999
Si Si5 0.512772 0.263055 0.105152
Si Si6 0.709271 0.940252 0.610774
O O1 0.974620 0.683790 0.395517
O O2 0.885863 0.581691 0.372630
O O3 0.000000 0.613023 0.250000
O O4 0.054039 0.566932 0.396736
O O5 0.316735 0.916683 0.500000
O O6 0.340346 0.851508 0.649221
O O7 0.293192 0.984091 0.646052
O O8 0.808392 0.812000 0.500000
O O9 0.750000 0.750000 0.360014
O O10 0.904002 0.797051 0.356815
O O11 0.770566 0.882095 0.355972
O O12 0.347731 0.778479 0.500000
O O13 0.250000 0.750000 0.364227
O O14 0.419419 0.734539 0.353151
O O15 0.506527 0.287179 0.000000
O O16 0.721689 0.943930 0.500000
#
# Coordination Sequence:
#
# PCOD9495275 Si02
#       6
#    16  16  16  16  16  16
#     4  11  20  28  42  65  95 127 153 189 231 275
#     4   9  18  30  45  65  89 120 157 190 226 279
#     4   9  15  25  46  70  90 117 151 186 228 275
#     4   8  14  26  46  67  87 118 155 190 226 266
#     4   9  16  29  49  70  92 120 157 192 229 278
#     4  10  18  29  46  67  93 124 154 186 230 285
#
# _framework density 20.376401000000001
#
# number of rings (size 3 to 8) (size 9 to 14) (size 15 to 20)
#    0.000    2.667    1.667    3.000    0.000    2.667 
#    0.000    0.000   14.667    1.000    0.000    7.000 
#    0.000    0.000    0.000    0.000    0.000    0.000 
#
# Total GULP energy -267392.894263 kJ/mol
# GULP energy per Si atom -5570.685297 kJ/mol
# Density = 2.033002 g / cm^3
# Si number density = 20.376401 Si / 1000 Ang^3
#
#
#
# Elastic Constant Matrix: (Units=GPa)
#
#
# Indices 1 2 3 4 5 6 
#
# 1 173.4627 89.4067 -3.7315 0.0000 0.0000 0.0000
# 2 89.4067 108.0840 1.9812 0.0000 0.0000 0.0000
# 3 -3.7315 1.9812 59.6892 0.0000 0.0000 0.0000
# 4 0.0000 0.0000 0.0000 -14.0645 0.0000 0.0000
# 5 0.0000 0.0000 0.0000 0.0000 -222.1538 0.0000
# 6 0.0000 0.0000 0.0000 0.0000 0.0000 26.1791
#
#
#
# Elastic Compliance Matrix: (Units=1/GPa)
#
#
# Indices 1 2 3 4 5 6 
#
# 1 0.010099 -0.008370 0.000909 0.000000 0.000000 0.000000
# 2 -0.008370 0.016195 -0.001061 0.000000 0.000000 0.000000
# 3 0.000909 -0.001061 0.016846 0.000000 0.000000 0.000000
# 4 0.000000 0.000000 0.000000 -0.071101 0.000000 0.000000
# 5 0.000000 0.000000 0.000000 0.000000 -0.004501 0.000000
# 6 0.000000 0.000000 0.000000 0.000000 0.000000 0.038198
#
#
# Mechanical properties :
#
#
# Convention : Reuss Voigt Hill
#
# Bulk Modulus (GPa) = 38.32052 57.39430 47.85741
# Shear Modulus (GPa) = 158.83961 -25.10256 66.86853
#
# Velocity S-wave (km/s) = 8.83866 -3.51371 5.73480
# Velocity P-wave (km/s) = 11.09098 3.43025 8.20903
#
# Compressibility (1/GPa) = 0.02609568
#
# Stress axis : x y z
#
# Youngs Moduli (GPa) = 99.02233 61.74597 59.36302
#
# Poissons Ratio (x) = 0.51683 -0.05397
# Poissons Ratio (y) = 0.82885 0.06297
# Poissons Ratio (z) = -0.09003 0.06550
#
# Static dielectric constant tensor:
#      x y z
#    x 1.745320 0.000000 0.000000 
#    y 0.000000 1.738030 0.000000 
#    z 0.000000 0.000000 1.784230 
# 
# From -- ./inp_files/41705.got.cif
#   From: 2010.05.17/outbox.cif.g08.bks.cpg/sg66_21_cif.got.tgz:41705.got - 2010.06.03 17:51:23.
