data_PCOD9495057
_publ_section_title
;
Structure prediction by ZEFSAII (Michael W. Deem and Ramdas Pophale) SiO2 
 PCOD9495057
Probable space group: C C C M
;
_chemical_formula_sum "Si O2"
_cell_formula_units_Z 80
_cell_length_a 18.094516
_cell_length_b 28.736471
_cell_length_c 8.646912
_cell_angle_alpha 90.000000
_cell_angle_beta 90.000000
_cell_angle_gamma 90.000000
_cell_volume 4496.156746
_symmetry_space_group_name_H-M "C C C M"
_symmetry_group_IT_number 66
_symmetry_cell_setting 'orthorhombic'
loop_
_space_group_symop_operation_xyz
x,y,z
-x,-y,z
x,-y,1/2-z
-x,y,1/2-z
-x,-y,-z
x,y,-z
-x,y,1/2+z
x,-y,1/2+z
1/2+x,1/2+y,z
1/2-x,1/2-y,z
1/2+x,1/2-y,1/2-z
1/2-x,1/2+y,1/2-z
1/2-x,1/2-y,-z
1/2+x,1/2+y,-z
1/2-x,1/2+y,1/2+z
1/2+x,1/2-y,1/2+z
loop_
_atom_site_type_symbol
_atom_site_label
_atom_site_fract_x
_atom_site_fract_y
_atom_site_fract_z
Si Si1 0.181629 0.786331 0.176019
Si Si2 0.267803 0.447917 0.184732
Si Si3 0.575283 0.447162 0.185139
Si Si4 0.797186 0.359943 0.186571
Si Si5 0.417940 0.210901 0.183239
O O1 0.250000 0.750000 0.168155
O O2 0.222455 0.832243 0.236150
O O3 0.119225 0.760467 0.272799
O O4 0.155117 0.794012 0.000000
O O5 0.255700 0.500000 0.250000
O O6 0.346294 0.429871 0.252883
O O7 0.207191 0.411156 0.242377
O O8 0.271815 0.449992 0.000000
O O9 0.574442 0.500000 0.250000
O O10 0.500000 0.424554 0.250000
O O11 0.574078 0.447419 0.000000
O O12 0.865967 0.329074 0.242966
O O13 0.797221 0.361482 0.000000
O O14 0.500000 0.208277 0.250000
O O15 0.418501 0.205337 0.000000
#
# Coordination Sequence:
#
# PCOD9495057 Si02
#       5
#    16  16  16  16  16
#     4   8  16  32  53  76 104 135 166 206 258 313
#     4  11  21  34  52  76 105 141 185 228 271 318
#     4  10  17  28  45  66  92 124 163 209 258 306
#     4  10  20  36  56  79 108 141 178 221 269 318
#     4  11  21  34  55  82 111 142 177 217 263 318
#
# _framework density 17.792974000000001
#
# number of rings (size 3 to 8) (size 9 to 14) (size 15 to 20)
#    0.000    2.000    0.000    9.000    0.000    4.400 
#    0.000    1.000    0.000    5.400    0.000    4.200 
#    0.000    0.000    0.000    0.000    0.000    0.000 
#
# Total GULP energy -223045.874053 kJ/mol
# GULP energy per Si atom -5576.146851 kJ/mol
# Density = 1.775248 g / cm^3
# Si number density = 17.792974 Si / 1000 Ang^3
#
#
#
# Elastic Constant Matrix: (Units=GPa)
#
#
# Indices 1 2 3 4 5 6 
#
# 1 103.0436 48.3555 52.4479 0.0000 0.0000 0.0000
# 2 48.3555 91.7707 36.7961 0.0000 0.0000 0.0000
# 3 52.4479 36.7961 145.4241 0.0000 0.0000 0.0000
# 4 0.0000 0.0000 0.0000 80.0549 0.0000 0.0000
# 5 0.0000 0.0000 0.0000 0.0000 29.3136 0.0000
# 6 0.0000 0.0000 0.0000 0.0000 0.0000 11.8050
#
#
#
# Elastic Compliance Matrix: (Units=1/GPa)
#
#
# Indices 1 2 3 4 5 6 
#
# 1 0.014451 -0.006148 -0.003656 0.000000 0.000000 0.000000
# 2 -0.006148 0.014743 -0.001513 0.000000 0.000000 0.000000
# 3 -0.003656 -0.001513 0.008578 0.000000 0.000000 0.000000
# 4 0.000000 0.000000 0.000000 0.012491 0.000000 0.000000
# 5 0.000000 0.000000 0.000000 0.000000 0.034114 0.000000
# 6 0.000000 0.000000 0.000000 0.000000 0.000000 0.084710
#
#
# Mechanical properties :
#
#
# Convention : Reuss Voigt Hill
#
# Bulk Modulus (GPa) = 66.06382 68.38194 67.22288
# Shear Modulus (GPa) = 25.41071 37.74394 31.57733
#
# Velocity S-wave (km/s) = 3.78316 4.61074 4.21730
# Velocity P-wave (km/s) = 7.50286 8.17683 7.84708
#
# Compressibility (1/GPa) = 0.01513688
#
# Stress axis : x y z
#
# Youngs Moduli (GPa) = 69.20028 67.82850 116.57984
#
# Poissons Ratio (x) = 0.41704 0.42622
# Poissons Ratio (y) = 0.42547 0.17638
# Poissons Ratio (z) = 0.25300 0.10262
#
# Static dielectric constant tensor:
#      x y z
#    x 1.630350 0.000000 0.000000 
#    y 0.000000 1.589330 0.000000 
#    z 0.000000 0.000000 1.591980 
# 
# From -- ./inp_files/6903.got.cif
#   From: 2010.05.17/outbox.cif.g08.bks.cpg/sg66_4_cif.got.tgz:6903.got - 2010.06.03 17:51:23.
