data_PCOD9495777
_publ_section_title
;
Structure prediction by ZEFSAII (Michael W. Deem and Ramdas Pophale) SiO2 
 PCOD9495777
Probable space group: C C C M
;
_chemical_formula_sum "Si O2"
_cell_formula_units_Z 80
_cell_length_a 19.203804
_cell_length_b 27.541129
_cell_length_c 8.595303
_cell_angle_alpha 90.000000
_cell_angle_beta 90.000000
_cell_angle_gamma 90.000000
_cell_volume 4546.007995
_symmetry_space_group_name_H-M "C C C M"
_symmetry_group_IT_number 66
_symmetry_cell_setting 'orthorhombic'
loop_
_space_group_symop_operation_xyz
x,y,z
-x,-y,z
x,-y,1/2-z
-x,y,1/2-z
-x,-y,-z
x,y,-z
-x,y,1/2+z
x,-y,1/2+z
1/2+x,1/2+y,z
1/2-x,1/2-y,z
1/2+x,1/2-y,1/2-z
1/2-x,1/2+y,1/2-z
1/2-x,1/2-y,-z
1/2+x,1/2+y,-z
1/2-x,1/2+y,1/2+z
1/2+x,1/2-y,1/2+z
loop_
_atom_site_type_symbol
_atom_site_label
_atom_site_fract_x
_atom_site_fract_y
_atom_site_fract_z
Si Si1 0.720188 0.402478 0.687949
Si Si2 0.858530 0.552469 0.314972
Si Si3 0.075503 0.349346 0.813294
Si Si4 0.072680 0.054695 0.186265
Si Si5 0.783843 0.700172 0.189027
O O1 0.726971 0.407103 0.500000
O O2 0.778900 0.436326 0.764037
O O3 0.642290 0.416956 0.732540
O O4 0.738649 0.347177 0.730457
O O5 0.879525 0.500000 0.250000
O O6 0.864079 0.552735 0.500000
O O7 0.902882 0.597069 0.245790
O O8 0.137290 0.312759 0.762300
O O9 0.000000 0.336092 0.750000
O O10 0.074551 0.350375 0.000000
O O11 0.000000 0.075329 0.250000
O O12 0.078686 0.000000 0.250000
O O13 0.069157 0.053058 0.000000
O O14 0.750000 0.750000 0.247029
O O15 0.784803 0.702636 0.000000
#
# Coordination Sequence:
#
# PCOD9495777 Si02
#       5
#    16  16  16  16  16
#     4   9  18  32  50  73  99 130 170 211 250 298
#     4  11  21  33  51  75 103 135 170 206 248 298
#     4  10  20  35  54  77 105 135 170 208 250 299
#     4  10  19  30  45  66  95 129 165 203 245 294
#     4   8  15  31  55  77  97 127 166 205 246 294
#
# _framework density 17.597857999999999
#
# number of rings (size 3 to 8) (size 9 to 14) (size 15 to 20)
#    0.000    2.400    0.000    5.400    0.000    3.600 
#    0.000    3.000    0.000   15.000    0.000    0.000 
#    0.000    0.000    0.000    0.000    0.000    0.000 
#
# Total GULP energy -223150.132819 kJ/mol
# GULP energy per Si atom -5578.753320 kJ/mol
# Density = 1.755780 g / cm^3
# Si number density = 17.597858 Si / 1000 Ang^3
#
#
#
# Elastic Constant Matrix: (Units=GPa)
#
#
# Indices 1 2 3 4 5 6 
#
# 1 155.6325 59.4179 32.6546 0.0000 0.0000 0.0000
# 2 59.4179 100.6733 21.9193 0.0000 0.0000 0.0000
# 3 32.6546 21.9193 53.7980 0.0000 0.0000 0.0000
# 4 0.0000 0.0000 0.0000 13.1610 0.0000 0.0000
# 5 0.0000 0.0000 0.0000 0.0000 28.7793 0.0000
# 6 0.0000 0.0000 0.0000 0.0000 0.0000 11.4076
#
#
#
# Elastic Compliance Matrix: (Units=1/GPa)
#
#
# Indices 1 2 3 4 5 6 
#
# 1 0.008878 -0.004463 -0.003571 0.000000 0.000000 0.000000
# 2 -0.004463 0.013143 -0.002646 0.000000 0.000000 0.000000
# 3 -0.003571 -0.002646 0.021834 0.000000 0.000000 0.000000
# 4 0.000000 0.000000 0.000000 0.075982 0.000000 0.000000
# 5 0.000000 0.000000 0.000000 0.000000 0.034747 0.000000
# 6 0.000000 0.000000 0.000000 0.000000 0.000000 0.087661
#
#
# Mechanical properties :
#
#
# Convention : Reuss Voigt Hill
#
# Bulk Modulus (GPa) = 44.45272 59.78749 52.12010
# Shear Modulus (GPa) = 18.44318 23.74372 21.09345
#
# Velocity S-wave (km/s) = 3.24085 3.67718 3.46589
# Velocity P-wave (km/s) = 6.27051 7.21644 6.76004
#
# Compressibility (1/GPa) = 0.02249581
#
# Stress axis : x y z
#
# Youngs Moduli (GPa) = 112.63347 76.08537 45.80085
#
# Poissons Ratio (x) = 0.33954 0.16355
# Poissons Ratio (y) = 0.50264 0.12120
# Poissons Ratio (z) = 0.40219 0.20134
#
# Static dielectric constant tensor:
#      x y z
#    x 1.610130 0.000000 0.000000 
#    y 0.000000 1.582030 0.000000 
#    z 0.000000 0.000000 1.594710 
# 
# From -- ./inp_files/6735.got.cif
#   From: 2010.05.17/outbox.cif.g08.bks.cpg/sg66_4_cif.got.tgz:6735.got - 2010.06.03 17:51:23.
