data_PCOD9495728
_publ_section_title
;
Structure prediction by ZEFSAII (Michael W. Deem and Ramdas Pophale) SiO2 
 PCOD9495728
Probable space group: C C C M
;
_chemical_formula_sum "Si O2"
_cell_formula_units_Z 96
_cell_length_a 31.981313
_cell_length_b 21.466621
_cell_length_c 8.376316
_cell_angle_alpha 90.000000
_cell_angle_beta 90.000000
_cell_angle_gamma 90.000000
_cell_volume 5750.598298
_symmetry_space_group_name_H-M "C C C M"
_symmetry_group_IT_number 66
_symmetry_cell_setting 'orthorhombic'
loop_
_space_group_symop_operation_xyz
x,y,z
-x,-y,z
x,-y,1/2-z
-x,y,1/2-z
-x,-y,-z
x,y,-z
-x,y,1/2+z
x,-y,1/2+z
1/2+x,1/2+y,z
1/2-x,1/2-y,z
1/2+x,1/2-y,1/2-z
1/2-x,1/2+y,1/2-z
1/2-x,1/2-y,-z
1/2+x,1/2+y,-z
1/2-x,1/2+y,1/2+z
1/2+x,1/2-y,1/2+z
loop_
_atom_site_type_symbol
_atom_site_label
_atom_site_fract_x
_atom_site_fract_y
_atom_site_fract_z
Si Si1 0.253328 0.433989 0.692350
Si Si2 0.366416 0.261462 0.688716
Si Si3 0.347241 0.593003 0.811801
Si Si4 0.544469 0.298278 0.810720
Si Si5 0.935999 0.933906 0.184391
Si Si6 0.215992 0.302469 0.695781
O O1 0.235972 0.500000 0.750000
O O2 0.253480 0.433094 0.500000
O O3 0.301905 0.428862 0.743157
O O4 0.229919 0.371373 0.746383
O O5 0.370405 0.246820 0.500000
O O6 0.348976 0.331981 0.698167
O O7 0.413530 0.265277 0.756327
O O8 0.330171 0.217007 0.753659
O O9 0.385838 0.567857 0.710705
O O10 0.353676 0.577098 0.000000
O O11 0.500000 0.274894 0.750000
O O12 0.548237 0.371910 0.771980
O O13 0.545550 0.292212 0.000000
O O14 0.951090 0.000000 0.250000
O O15 0.946699 0.928250 0.000000
O O16 0.215580 0.301591 0.500000
O O17 0.250000 0.250000 0.743104
#
# Coordination Sequence:
#
# PCOD9495728 Si02
#       6
#    16  16  16  16  16  16
#     4  10  19  28  43  66  95 127 159 195 234 275
#     4   8  14  26  46  69  89 111 150 196 227 260
#     4   9  16  28  44  64  88 118 154 195 235 270
#     4  10  20  34  50  68  89 112 142 186 236 281
#     4  11  21  32  45  62  85 117 155 193 232 275
#     4   9  14  25  47  71  91 119 161 198 226 264
#
# _framework density 16.693916000000002
#
# number of rings (size 3 to 8) (size 9 to 14) (size 15 to 20)
#    0.000    2.500    1.667    3.500    0.000    2.333 
#    0.000    1.667    0.000    5.500    0.000    0.000 
#    0.000    0.667    0.000    8.333    0.000    0.000 
#
# Total GULP energy -267641.377420 kJ/mol
# GULP energy per Si atom -5575.862030 kJ/mol
# Density = 1.665592 g / cm^3
# Si number density = 16.693916 Si / 1000 Ang^3
#
#
#
# Elastic Constant Matrix: (Units=GPa)
#
#
# Indices 1 2 3 4 5 6 
#
# 1 128.8618 58.3860 10.0289 0.0000 0.0000 0.0000
# 2 58.3860 81.8281 6.5850 0.0000 0.0000 0.0000
# 3 10.0289 6.5850 16.1439 0.0000 0.0000 0.0000
# 4 0.0000 0.0000 0.0000 9.2190 0.0000 0.0000
# 5 0.0000 0.0000 0.0000 0.0000 22.7298 0.0000
# 6 0.0000 0.0000 0.0000 0.0000 0.0000 9.5961
#
#
#
# Elastic Compliance Matrix: (Units=1/GPa)
#
#
# Indices 1 2 3 4 5 6 
#
# 1 0.011712 -0.008035 -0.003998 0.000000 0.000000 0.000000
# 2 -0.008035 0.018148 -0.002411 0.000000 0.000000 0.000000
# 3 -0.003998 -0.002411 0.065410 0.000000 0.000000 0.000000
# 4 0.000000 0.000000 0.000000 0.108471 0.000000 0.000000
# 5 0.000000 0.000000 0.000000 0.000000 0.043995 0.000000
# 6 0.000000 0.000000 0.000000 0.000000 0.000000 0.104209
#
#
# Mechanical properties :
#
#
# Convention : Reuss Voigt Hill
#
# Bulk Modulus (GPa) = 15.06443 41.87040 28.46742
# Shear Modulus (GPa) = 12.40814 18.43123 15.41969
#
# Velocity S-wave (km/s) = 2.72926 3.32636 3.04249
# Velocity P-wave (km/s) = 4.35607 6.31574 5.42512
#
# Compressibility (1/GPa) = 0.06638152
#
# Stress axis : x y z
#
# Youngs Moduli (GPa) = 85.38251 55.10287 15.28816
#
# Poissons Ratio (x) = 0.44275 0.06113
# Poissons Ratio (y) = 0.68605 0.03686
# Poissons Ratio (z) = 0.34138 0.13285
#
# Static dielectric constant tensor:
#      x y z
#    x 1.613050 0.000000 0.000000 
#    y 0.000000 1.564840 0.000000 
#    z 0.000000 0.000000 1.579930 
# 
# From -- ./inp_files/10465.got.cif
#   From: 2010.05.17/outbox.cif.g08.bks.cpg/sg66_6_cif.got.tgz:10465.got - 2010.06.03 17:51:23.
