data_PCOD9495071
_publ_section_title
;
Structure prediction by ZEFSAII (Michael W. Deem and Ramdas Pophale) SiO2 
 PCOD9495071
Probable space group: C C C M
;
_chemical_formula_sum "Si O2"
_cell_formula_units_Z 112
_cell_length_a 26.872229
_cell_length_b 12.444875
_cell_length_c 14.075781
_cell_angle_alpha 90.000000
_cell_angle_beta 90.000000
_cell_angle_gamma 90.000000
_cell_volume 4707.244230
_symmetry_space_group_name_H-M "C C C M"
_symmetry_group_IT_number 66
_symmetry_cell_setting 'orthorhombic'
loop_
_space_group_symop_operation_xyz
x,y,z
-x,-y,z
x,-y,1/2-z
-x,y,1/2-z
-x,-y,-z
x,y,-z
-x,y,1/2+z
x,-y,1/2+z
1/2+x,1/2+y,z
1/2-x,1/2-y,z
1/2+x,1/2-y,1/2-z
1/2-x,1/2+y,1/2-z
1/2-x,1/2-y,-z
1/2+x,1/2+y,-z
1/2-x,1/2+y,1/2+z
1/2+x,1/2-y,1/2+z
loop_
_atom_site_type_symbol
_atom_site_label
_atom_site_fract_x
_atom_site_fract_y
_atom_site_fract_z
Si Si1 0.945160 0.458934 0.384558
Si Si2 0.250278 0.377311 0.615374
Si Si3 0.102465 0.161242 0.391802
Si Si4 0.858448 0.379622 0.115824
Si Si5 0.394230 0.741191 0.392374
Si Si6 0.495264 0.621569 0.636889
Si Si7 0.340458 0.463404 0.115609
O O1 0.948536 0.446998 0.500000
O O2 0.905191 0.548950 0.359627
O O3 0.918594 0.349090 0.348969
O O4 0.000000 0.500000 0.354802
O O5 0.253612 0.373926 0.500000
O O6 0.250000 0.250000 0.644513
O O7 0.195806 0.419456 0.644347
O O8 0.292833 0.463181 0.643891
O O9 0.120592 0.155857 0.500000
O O10 0.131821 0.259434 0.347387
O O11 0.044225 0.185430 0.394285
O O12 0.114521 0.043302 0.353860
O O13 0.857942 0.375840 0.000000
O O14 0.377613 0.770174 0.500000
O O15 0.443631 0.668301 0.396220
O O16 0.352643 0.658364 0.351463
O O17 0.500000 0.500000 0.603427
O O18 0.500000 0.622773 0.750000
O O19 0.339178 0.452317 0.000000
#
# Coordination Sequence:
#
# PCOD9495071 Si02
#       7
#    16  16  16  16  16  16  16
#     4   9  17  29  44  65  93 128 169 202 230 277
#     4   9  14  23  39  66 104 131 149 192 250 290
#     4  10  17  28  48  71  96 128 162 197 240 293
#     4   9  16  26  45  71  99 130 160 196 242 285
#     4  10  19  32  49  67  95 132 166 201 239 289
#     4  11  22  32  44  68 102 126 158 198 249 296
#     4   9  16  25  41  68  97 123 155 194 240 289
#
# _framework density 23.793116000000001
#
# number of rings (size 3 to 8) (size 9 to 14) (size 15 to 20)
#    0.000    2.429    2.857    1.286    0.000    2.857 
#    0.000    0.714    0.000    8.143    0.000    0.000 
#   12.857    0.000    0.000    0.000    0.000    0.000 
#
# Total GULP energy -312263.510655 kJ/mol
# GULP energy per Si atom -5576.134119 kJ/mol
# Density = 2.373896 g / cm^3
# Si number density = 23.793116 Si / 1000 Ang^3
#
#
#
# Elastic Constant Matrix: (Units=GPa)
#
#
# Indices 1 2 3 4 5 6 
#
# 1 163.7735 66.1069 -1.1487 0.0000 0.0000 0.0000
# 2 66.1069 156.6594 25.0461 0.0000 0.0000 0.0000
# 3 -1.1487 25.0461 83.6466 0.0000 0.0000 0.0000
# 4 0.0000 0.0000 0.0000 13.8550 0.0000 0.0000
# 5 0.0000 0.0000 0.0000 0.0000 -386.3731 0.0000
# 6 0.0000 0.0000 0.0000 0.0000 0.0000 44.6031
#
#
#
# Elastic Compliance Matrix: (Units=1/GPa)
#
#
# Indices 1 2 3 4 5 6 
#
# 1 0.007454 -0.003321 0.001097 0.000000 0.000000 0.000000
# 2 -0.003321 0.008184 -0.002496 0.000000 0.000000 0.000000
# 3 0.001097 -0.002496 0.012717 0.000000 0.000000 0.000000
# 4 0.000000 0.000000 0.000000 0.072176 0.000000 0.000000
# 5 0.000000 0.000000 0.000000 0.000000 -0.002588 0.000000
# 6 0.000000 0.000000 0.000000 0.000000 0.000000 0.022420
#
#
# Mechanical properties :
#
#
# Convention : Reuss Voigt Hill
#
# Bulk Modulus (GPa) = 52.86803 64.89868 58.88335
# Shear Modulus (GPa) = 36.73537 -44.64464 -3.95463
#
# Velocity S-wave (km/s) = 3.93358 -4.33641 -1.29062
# Velocity P-wave (km/s) = 6.54972 1.50430 4.75193
#
# Compressibility (1/GPa) = 0.01891502
#
# Stress axis : x y z
#
# Youngs Moduli (GPa) = 134.15384 122.19501 78.63186
#
# Poissons Ratio (x) = 0.40579 -0.08624
# Poissons Ratio (y) = 0.44550 0.19627
# Poissons Ratio (z) = -0.14713 0.30500
#
# Static dielectric constant tensor:
#      x y z
#    x 1.904810 0.000000 0.000000 
#    y 0.000000 1.940920 0.000000 
#    z 0.000000 0.000000 1.923130 
# 
# From -- ./inp_files/49139.got.cif
#   From: 2010.05.17/outbox.cif.g08.bks.cpg/sg66_25_cif.got.tgz:49139.got - 2010.06.03 17:51:23.
