data_PCOD9495145
_publ_section_title
;
Structure prediction by ZEFSAII (Michael W. Deem and Ramdas Pophale) SiO2 
 PCOD9495145
Probable space group: C C C M
;
_chemical_formula_sum "Si O2"
_cell_formula_units_Z 64
_cell_length_a 9.182001
_cell_length_b 11.230349
_cell_length_c 28.936804
_cell_angle_alpha 90.000000
_cell_angle_beta 90.000000
_cell_angle_gamma 90.000000
_cell_volume 2983.878610
_symmetry_space_group_name_H-M "C C C M"
_symmetry_group_IT_number 66
_symmetry_cell_setting 'orthorhombic'
loop_
_space_group_symop_operation_xyz
x,y,z
-x,-y,z
x,-y,1/2-z
-x,y,1/2-z
-x,-y,-z
x,y,-z
-x,y,1/2+z
x,-y,1/2+z
1/2+x,1/2+y,z
1/2-x,1/2-y,z
1/2+x,1/2-y,1/2-z
1/2-x,1/2+y,1/2-z
1/2-x,1/2-y,-z
1/2+x,1/2+y,-z
1/2-x,1/2+y,1/2+z
1/2+x,1/2-y,1/2+z
loop_
_atom_site_type_symbol
_atom_site_label
_atom_site_fract_x
_atom_site_fract_y
_atom_site_fract_z
Si Si1 0.168084 0.130470 0.766481
Si Si2 0.863299 0.907618 0.126477
Si Si3 0.216997 0.448604 0.551003
Si Si4 0.008240 0.764763 0.949261
O O1 0.250000 0.250000 0.749670
O O2 0.176153 0.126511 0.821949
O O3 0.000000 0.138008 0.750000
O O4 0.223782 0.000000 0.750000
O O5 0.914799 0.798846 0.094659
O O6 0.741114 0.970513 0.095258
O O7 0.000000 0.000000 0.130179
O O8 0.216599 0.506584 0.500000
O O9 0.077202 0.365056 0.554404
O O10 0.356692 0.358883 0.550744
O O11 0.938782 0.777791 0.000000
#
# Coordination Sequence:
#
# PCOD9495145 Si02
#       4
#    16  16  16  16
#     4  11  25  47  68  94 125 162 212 273 333 390
#     4  10  17  31  55  84 112 156 204 253 305 365
#     4   8  14  24  43  78 120 158 196 238 290 357
#     4   8  14  24  43  78 120 158 196 238 290 357
#
# _framework density 21.448592000000001
#
# number of rings (size 3 to 8) (size 9 to 14) (size 15 to 20)
#    0.000    2.750    2.500    2.250    0.000    5.500 
#    0.000    0.000    0.000    3.000    0.000    3.500 
#    0.000    0.000    0.000    0.000    0.000    0.000 
#
# Total GULP energy -178717.831827 kJ/mol
# GULP energy per Si atom -5584.932245 kJ/mol
# Density = 2.139977 g / cm^3
# Si number density = 21.448592 Si / 1000 Ang^3
#
#
#
# Elastic Constant Matrix: (Units=GPa)
#
#
# Indices 1 2 3 4 5 6 
#
# 1 44.6272 48.2634 29.2614 0.0000 0.0000 0.0000
# 2 48.2634 133.3437 52.4648 0.0000 0.0000 0.0000
# 3 29.2614 52.4648 172.6769 0.0000 0.0000 0.0000
# 4 0.0000 0.0000 0.0000 -24.7043 0.0000 0.0000
# 5 0.0000 0.0000 0.0000 0.0000 -0.4150 0.0000
# 6 0.0000 0.0000 0.0000 0.0000 0.0000 38.4896
#
#
#
# Elastic Compliance Matrix: (Units=1/GPa)
#
#
# Indices 1 2 3 4 5 6 
#
# 1 0.037787 -0.012672 -0.002553 0.000000 0.000000 0.000000
# 2 -0.012672 0.012767 -0.001732 0.000000 0.000000 0.000000
# 3 -0.002553 -0.001732 0.006750 0.000000 0.000000 0.000000
# 4 0.000000 0.000000 0.000000 -0.040479 0.000000 0.000000
# 5 0.000000 0.000000 0.000000 0.000000 -2.409399 0.000000
# 6 0.000000 0.000000 0.000000 0.000000 0.000000 0.025981
#
#
# Mechanical properties :
#
#
# Convention : Reuss Voigt Hill
#
# Bulk Modulus (GPa) = 42.75332 67.84746 55.30039
# Shear Modulus (GPa) = -2.15065 17.38461 7.61698
#
# Velocity S-wave (km/s) = -1.00243 2.85006 1.88653
# Velocity P-wave (km/s) = 4.31699 6.52163 5.53028
#
# Compressibility (1/GPa) = 0.02339000
#
# Stress axis : x y z
#
# Youngs Moduli (GPa) = 26.46440 78.32397 148.14933
#
# Poissons Ratio (x) = 0.99254 0.37822
# Poissons Ratio (y) = 0.33536 0.25656
# Poissons Ratio (z) = 0.06756 0.13564
#
# Static dielectric constant tensor:
#      x y z
#    x 1.834850 0.000000 0.000000 
#    y 0.000000 1.838500 0.000000 
#    z 0.000000 0.000000 1.715400 
# 
# From -- ./inp_files/56317.got.cif
#   From: 2010.05.17/outbox.cif.g08.bks.cpg/sg66_29_cif.got.tgz:56317.got - 2010.06.03 17:51:23.
