data_PCOD9495956
_publ_section_title
;
Structure prediction by ZEFSAII (Michael W. Deem and Ramdas Pophale) SiO2 
 PCOD9495956
Probable space group: C C C M
;
_chemical_formula_sum "Si O2"
_cell_formula_units_Z 112
_cell_length_a 24.377624
_cell_length_b 15.051513
_cell_length_c 17.337565
_cell_angle_alpha 90.000000
_cell_angle_beta 90.000000
_cell_angle_gamma 90.000000
_cell_volume 6361.501509
_symmetry_space_group_name_H-M "C C C M"
_symmetry_group_IT_number 66
_symmetry_cell_setting 'orthorhombic'
loop_
_space_group_symop_operation_xyz
x,y,z
-x,-y,z
x,-y,1/2-z
-x,y,1/2-z
-x,-y,-z
x,y,-z
-x,y,1/2+z
x,-y,1/2+z
1/2+x,1/2+y,z
1/2-x,1/2-y,z
1/2+x,1/2-y,1/2-z
1/2-x,1/2+y,1/2-z
1/2-x,1/2-y,-z
1/2+x,1/2+y,-z
1/2-x,1/2+y,1/2+z
1/2+x,1/2-y,1/2+z
loop_
_atom_site_type_symbol
_atom_site_label
_atom_site_fract_x
_atom_site_fract_y
_atom_site_fract_z
Si Si1 0.038054 0.416340 0.907785
Si Si2 0.023611 0.774404 0.663774
Si Si3 0.221588 0.963309 0.590786
Si Si4 0.848311 0.807074 0.169816
Si Si5 0.152076 0.919752 0.810634
Si Si6 0.457661 0.576470 0.089869
Si Si7 0.162388 0.620036 0.591179
O O1 0.022482 0.328216 0.860895
O O2 0.103665 0.426667 0.894698
O O3 0.000000 0.500000 0.886771
O O4 0.030916 0.401017 0.000000
O O5 0.085939 0.810016 0.659068
O O6 0.000000 0.786657 0.750000
O O7 0.988234 0.831219 0.604327
O O8 0.213173 0.973658 0.500000
O O9 0.184327 0.880617 0.620329
O O10 0.284894 0.940325 0.605630
O O11 0.202237 0.050022 0.636354
O O12 0.838582 0.832655 0.259104
O O13 0.832256 0.709109 0.141742
O O14 0.097858 0.919359 0.862012
O O15 0.144456 0.000000 0.750000
O O16 0.500000 0.500000 0.117055
O O17 0.446052 0.560299 0.000000
O O18 0.163167 0.645705 0.500000
#
# Coordination Sequence:
#
# PCOD9495956 Si02
#       7
#    16  16  16  16  16  16  16
#     4   9  19  37  61  85 111 143 180 230 286 341
#     4  11  21  34  55  79 111 150 187 232 282 330
#     4  10  19  32  54  82 112 142 181 231 278 330
#     4  10  19  32  52  76 110 144 182 222 282 332
#     4  10  20  32  49  71 106 149 180 220 276 327
#     4  11  22  33  50  78 110 150 194 228 267 331
#     4   9  18  33  58  87 110 138 179 231 285 333
#
# _framework density 17.605906000000001
#
# number of rings (size 3 to 8) (size 9 to 14) (size 15 to 20)
#    0.000    2.000    1.429    3.429    0.000    4.286 
#    0.000    0.000   22.000    0.000    0.000    0.000 
#    0.000   37.714    0.000    0.000    0.000    0.000 
#
# Total GULP energy -312394.955209 kJ/mol
# GULP energy per Si atom -5578.481343 kJ/mol
# Density = 1.756583 g / cm^3
# Si number density = 17.605906 Si / 1000 Ang^3
#
#
#
# Elastic Constant Matrix: (Units=GPa)
#
#
# Indices 1 2 3 4 5 6 
#
# 1 101.2934 55.5966 51.8398 0.0000 0.0000 0.0000
# 2 55.5966 67.7673 31.0083 0.0000 0.0000 0.0000
# 3 51.8398 31.0083 69.7601 0.0000 0.0000 0.0000
# 4 0.0000 0.0000 0.0000 31.5109 0.0000 0.0000
# 5 0.0000 0.0000 0.0000 0.0000 17.3440 0.0000
# 6 0.0000 0.0000 0.0000 0.0000 0.0000 20.1242
#
#
#
# Elastic Compliance Matrix: (Units=1/GPa)
#
#
# Indices 1 2 3 4 5 6 
#
# 1 0.023181 -0.013979 -0.011012 0.000000 0.000000 0.000000
# 2 -0.013979 0.026953 -0.001593 0.000000 0.000000 0.000000
# 3 -0.011012 -0.001593 0.023226 0.000000 0.000000 0.000000
# 4 0.000000 0.000000 0.000000 0.031735 0.000000 0.000000
# 5 0.000000 0.000000 0.000000 0.000000 0.057657 0.000000
# 6 0.000000 0.000000 0.000000 0.000000 0.000000 0.049691
#
#
# Mechanical properties :
#
#
# Convention : Reuss Voigt Hill
#
# Bulk Modulus (GPa) = 49.52364 57.30114 53.41239
# Shear Modulus (GPa) = 18.35922 20.48755 19.42339
#
# Velocity S-wave (km/s) = 3.23273 3.41497 3.32510
# Velocity P-wave (km/s) = 6.49031 6.94021 6.71903
#
# Compressibility (1/GPa) = 0.02019238
#
# Stress axis : x y z
#
# Youngs Moduli (GPa) = 43.13951 37.10110 43.05429
#
# Poissons Ratio (x) = 0.51862 0.47413
# Poissons Ratio (y) = 0.60303 0.06859
# Poissons Ratio (z) = 0.47507 0.05911
#
# Static dielectric constant tensor:
#      x y z
#    x 1.601130 0.000000 0.000000 
#    y 0.000000 1.585640 0.000000 
#    z 0.000000 0.000000 1.602580 
# 
# From -- ./inp_files/33307.got.cif
#   From: 2010.05.17/outbox.cif.g08.bks.cpg/sg66_17_cif.got.tgz:33307.got - 2010.06.03 17:51:23.
