data_PCOD9495841
_publ_section_title
;
Structure prediction by ZEFSAII (Michael W. Deem and Ramdas Pophale) SiO2 
 PCOD9495841
Probable space group: C C C M
;
_chemical_formula_sum "Si O2"
_cell_formula_units_Z 68
_cell_length_a 11.445085
_cell_length_b 18.100709
_cell_length_c 13.704871
_cell_angle_alpha 90.000000
_cell_angle_beta 90.000000
_cell_angle_gamma 90.000000
_cell_volume 2839.157994
_symmetry_space_group_name_H-M "C C C M"
_symmetry_group_IT_number 66
_symmetry_cell_setting 'orthorhombic'
loop_
_space_group_symop_operation_xyz
x,y,z
-x,-y,z
x,-y,1/2-z
-x,y,1/2-z
-x,-y,-z
x,y,-z
-x,y,1/2+z
x,-y,1/2+z
1/2+x,1/2+y,z
1/2-x,1/2-y,z
1/2+x,1/2-y,1/2-z
1/2-x,1/2+y,1/2-z
1/2-x,1/2-y,-z
1/2+x,1/2+y,-z
1/2-x,1/2+y,1/2+z
1/2+x,1/2-y,1/2+z
loop_
_atom_site_type_symbol
_atom_site_label
_atom_site_fract_x
_atom_site_fract_y
_atom_site_fract_z
Si Si1 0.555776 0.731415 0.113098
Si Si2 0.696454 0.668642 0.610410
Si Si3 0.000000 0.000000 0.750000
Si Si4 0.125569 0.381678 0.223806
Si Si5 0.823944 0.081207 0.609122
O O1 0.436890 0.686957 0.142265
O O2 0.592480 0.801287 0.176986
O O3 0.655561 0.669568 0.113226
O O4 0.536157 0.755219 0.000000
O O5 0.693594 0.636106 0.500000
O O6 0.750000 0.750000 0.603015
O O7 0.781356 0.627772 0.686985
O O8 0.915638 0.954284 0.819097
O O9 0.193290 0.430443 0.145016
O O10 0.000000 0.412834 0.250000
O O11 0.845361 0.055836 0.500000
#
# Coordination Sequence:
#
# PCOD9495841 Si02
#       5
#    16  16   4  16  16
#     4  10  21  37  60  93 133 171 211 268 332 396
#     4  10  19  31  48  79 127 174 210 242 299 386
#     4  12  26  48  78  90 124 176 234 288 332 386
#     4  12  23  34  62  98 141 175 208 260 339 408
#     4  11  25  44  68  98 128 170 231 285 330 388
#
# _framework density 23.950762000000001
#
# number of rings (size 3 to 8) (size 9 to 14) (size 15 to 20)
#    0.000    1.176    2.353    4.588    1.647    2.824 
#    0.000    1.765    0.000    1.412    0.000    0.000 
#    0.000    0.000    0.000    0.000    0.000    0.000 
#
# Total GULP energy -190289.861317 kJ/mol
# GULP energy per Si atom -5596.760627 kJ/mol
# Density = 2.389625 g / cm^3
# Si number density = 23.950762 Si / 1000 Ang^3
#
#
#
# Elastic Constant Matrix: (Units=GPa)
#
#
# Indices 1 2 3 4 5 6 
#
# 1 188.6424 21.0510 75.9360 0.0000 0.0000 0.0000
# 2 21.0510 55.2875 38.7211 0.0000 0.0000 0.0000
# 3 75.9360 38.7211 173.7022 0.0000 0.0000 0.0000
# 4 0.0000 0.0000 0.0000 35.9222 0.0000 0.0000
# 5 0.0000 0.0000 0.0000 0.0000 32.3930 0.0000
# 6 0.0000 0.0000 0.0000 0.0000 0.0000 11.8364
#
#
#
# Elastic Compliance Matrix: (Units=1/GPa)
#
#
# Indices 1 2 3 4 5 6 
#
# 1 0.006448 -0.000570 -0.002692 0.000000 0.000000 0.000000
# 2 -0.000570 0.021484 -0.004540 0.000000 0.000000 0.000000
# 3 -0.002692 -0.004540 0.007946 0.000000 0.000000 0.000000
# 4 0.000000 0.000000 0.000000 0.027838 0.000000 0.000000
# 5 0.000000 0.000000 0.000000 0.000000 0.030871 0.000000
# 6 0.000000 0.000000 0.000000 0.000000 0.000000 0.084485
#
#
# Mechanical properties :
#
#
# Convention : Reuss Voigt Hill
#
# Bulk Modulus (GPa) = 49.32332 76.56090 62.94211
# Shear Modulus (GPa) = 24.82210 34.82526 29.82368
#
# Velocity S-wave (km/s) = 3.22278 3.81732 3.53258
# Velocity P-wave (km/s) = 5.87254 7.17388 6.55558
#
# Compressibility (1/GPa) = 0.02027439
#
# Stress axis : x y z
#
# Youngs Moduli (GPa) = 155.08162 46.54655 125.85279
#
# Poissons Ratio (x) = 0.02653 0.33878
# Poissons Ratio (y) = 0.08838 0.57137
# Poissons Ratio (z) = 0.41746 0.21132
#
# Static dielectric constant tensor:
#      x y z
#    x 1.947300 0.000000 0.000000 
#    y 0.000000 1.897650 0.000000 
#    z 0.000000 0.000000 1.986190 
# 
# From -- ./inp_files/26101.got.cif
#   From: 2010.05.17/outbox.cif.g08.bks.cpg/sg66_14_cif.got.tgz:26101.got - 2010.06.03 17:51:23.
