data_PCOD9495753
_publ_section_title
;
Structure prediction by ZEFSAII (Michael W. Deem and Ramdas Pophale) SiO2 
 PCOD9495753
Probable space group: C C C M
;
_chemical_formula_sum "Si O2"
_cell_formula_units_Z 96
_cell_length_a 9.216870
_cell_length_b 22.271652
_cell_length_c 24.612234
_cell_angle_alpha 90.000000
_cell_angle_beta 90.000000
_cell_angle_gamma 90.000000
_cell_volume 5052.274394
_symmetry_space_group_name_H-M "C C C M"
_symmetry_group_IT_number 66
_symmetry_cell_setting 'orthorhombic'
loop_
_space_group_symop_operation_xyz
x,y,z
-x,-y,z
x,-y,1/2-z
-x,y,1/2-z
-x,-y,-z
x,y,-z
-x,y,1/2+z
x,-y,1/2+z
1/2+x,1/2+y,z
1/2-x,1/2-y,z
1/2+x,1/2-y,1/2-z
1/2-x,1/2+y,1/2-z
1/2-x,1/2-y,-z
1/2+x,1/2+y,-z
1/2-x,1/2+y,1/2+z
1/2+x,1/2-y,1/2+z
loop_
_atom_site_type_symbol
_atom_site_label
_atom_site_fract_x
_atom_site_fract_y
_atom_site_fract_z
Si Si1 0.575379 0.061987 0.175169
Si Si2 0.391625 0.180568 0.792756
Si Si3 0.653820 0.692720 0.612693
Si Si4 0.098234 0.384512 0.560334
Si Si5 0.098532 0.272992 0.086174
Si Si6 0.149391 0.878545 0.777481
O O1 0.475536 0.118280 0.192899
O O2 0.586497 0.069301 0.110000
O O3 0.731513 0.071985 0.203513
O O4 0.500000 0.000000 0.188963
O O5 0.500000 0.212167 0.750000
O O6 0.382591 0.214662 0.849246
O O7 0.240806 0.164181 0.763737
O O8 0.750000 0.750000 0.630551
O O9 0.756232 0.652794 0.574629
O O10 0.518503 0.720196 0.581441
O O11 0.614437 0.656736 0.666883
O O12 0.102695 0.410167 0.500000
O O13 0.969952 0.334597 0.563764
O O14 0.250000 0.250000 0.063771
O O15 0.000000 0.899143 0.750000
#
# Coordination Sequence:
#
# PCOD9495753 Si02
#       6
#    16  16  16  16  16  16
#     4   9  19  36  53  70  96 126 161 207 253 297
#     4   9  18  30  45  69 100 134 167 197 236 292
#     4   9  18  30  46  72 104 137 168 198 238 291
#     4   9  19  35  52  71  94 124 168 212 249 295
#     4  10  19  29  45  71 102 134 165 201 244 288
#     4  10  19  30  48  75 103 132 167 201 237 289
#
# _framework density 19.001342999999999
#
# number of rings (size 3 to 8) (size 9 to 14) (size 15 to 20)
#    0.000    2.667    0.000    4.000    0.000   10.667 
#    0.000    1.667    0.000    0.000    0.000    0.000 
#    0.000   10.667    0.000    0.000    0.000    2.667 
#
# Total GULP energy -267858.266100 kJ/mol
# GULP energy per Si atom -5580.380544 kJ/mol
# Density = 1.895810 g / cm^3
# Si number density = 19.001343 Si / 1000 Ang^3
#
#
#
# Elastic Constant Matrix: (Units=GPa)
#
#
# Indices 1 2 3 4 5 6 
#
# 1 125.0441 29.4843 15.9060 0.0000 0.0000 0.0000
# 2 29.4843 36.2756 -2.4544 0.0000 0.0000 0.0000
# 3 15.9060 -2.4544 111.6549 0.0000 0.0000 0.0000
# 4 0.0000 0.0000 0.0000 -2.1075 0.0000 0.0000
# 5 0.0000 0.0000 0.0000 0.0000 -6.8060 0.0000
# 6 0.0000 0.0000 0.0000 0.0000 0.0000 20.3118
#
#
#
# Elastic Compliance Matrix: (Units=1/GPa)
#
#
# Indices 1 2 3 4 5 6 
#
# 1 0.010183 -0.008387 -0.001635 0.000000 0.000000 0.000000
# 2 -0.008387 0.034516 0.001954 0.000000 0.000000 0.000000
# 3 -0.001635 0.001954 0.009232 0.000000 0.000000 0.000000
# 4 0.000000 0.000000 0.000000 -0.474486 0.000000 0.000000
# 5 0.000000 0.000000 0.000000 0.000000 -0.146930 0.000000
# 6 0.000000 0.000000 0.000000 0.000000 0.000000 0.049232
#
#
# Mechanical properties :
#
#
# Convention : Reuss Voigt Hill
#
# Bulk Modulus (GPa) = 26.45953 39.87183 33.16568
# Shear Modulus (GPa) = -10.21413 17.61556 3.70072
#
# Velocity S-wave (km/s) = -2.32102 3.04808 1.39708
# Velocity P-wave (km/s) = 2.60239 5.78074 4.48271
#
# Compressibility (1/GPa) = 0.03779356
#
# Stress axis : x y z
#
# Youngs Moduli (GPa) = 98.20549 28.97232 108.31860
#
# Poissons Ratio (x) = 0.24299 0.17710
# Poissons Ratio (y) = 0.82365 -0.21160
# Poissons Ratio (z) = 0.16056 -0.05660
#
# Static dielectric constant tensor:
#      x y z
#    x 1.688330 0.000000 0.000000 
#    y 0.000000 1.643990 0.000000 
#    z 0.000000 0.000000 1.684140 
# 
# From -- ./inp_files/62770.got.cif
#   From: 2010.05.17/outbox.cif.g08.bks.cpg/sg66_32_cif.got.tgz:62770.got - 2010.06.03 17:51:23.
