data_PCOD9495368
_publ_section_title
;
Structure prediction by ZEFSAII (Michael W. Deem and Ramdas Pophale) SiO2 
 PCOD9495368
Probable space group: C C C M
;
_chemical_formula_sum "Si O2"
_cell_formula_units_Z 96
_cell_length_a 14.786692
_cell_length_b 21.298940
_cell_length_c 14.388834
_cell_angle_alpha 90.000000
_cell_angle_beta 90.000000
_cell_angle_gamma 90.000000
_cell_volume 4531.631836
_symmetry_space_group_name_H-M "C C C M"
_symmetry_group_IT_number 66
_symmetry_cell_setting 'orthorhombic'
loop_
_space_group_symop_operation_xyz
x,y,z
-x,-y,z
x,-y,1/2-z
-x,y,1/2-z
-x,-y,-z
x,y,-z
-x,y,1/2+z
x,-y,1/2+z
1/2+x,1/2+y,z
1/2-x,1/2-y,z
1/2+x,1/2-y,1/2-z
1/2-x,1/2+y,1/2-z
1/2-x,1/2-y,-z
1/2+x,1/2+y,-z
1/2-x,1/2+y,1/2+z
1/2+x,1/2-y,1/2+z
loop_
_atom_site_type_symbol
_atom_site_label
_atom_site_fract_x
_atom_site_fract_y
_atom_site_fract_z
Si Si1 0.062259 0.440734 0.386578
Si Si2 0.556482 0.175249 0.386450
Si Si3 0.760648 0.023753 0.887162
Si Si4 0.432930 0.314279 0.892386
Si Si5 0.041350 0.064127 0.647751
Si Si6 0.748147 0.622150 0.886281
O O1 0.063922 0.442029 0.500000
O O2 0.165392 0.447912 0.355423
O O3 0.000000 0.500000 0.359210
O O4 0.016083 0.376321 0.356323
O O5 0.554164 0.173084 0.500000
O O6 0.538932 0.246445 0.355078
O O7 0.656898 0.152690 0.358691
O O8 0.851372 0.056992 0.853368
O O9 0.760776 0.950583 0.859650
O O10 0.763284 0.026151 0.000000
O O11 0.505815 0.370033 0.891343
O O12 0.339298 0.340395 0.850661
O O13 0.411099 0.302212 0.000000
O O14 0.000000 0.064671 0.750000
O O15 0.000000 0.000000 0.603337
O O16 0.747051 0.622421 0.000000
#
# Coordination Sequence:
#
# PCOD9495368 Si02
#       6
#    16  16  16  16  16  16
#     4   9  15  26  47  79 116 145 168 207 261 315
#     4   9  16  27  46  78 114 141 169 209 264 317
#     4  10  18  30  53  83 110 137 177 221 262 318
#     4  10  19  31  51  78 107 138 174 222 268 315
#     4  11  23  37  52  73  98 138 181 224 270 318
#     4   9  15  25  46  78 111 136 167 217 262 303
#
# _framework density 21.184421
#
# number of rings (size 3 to 8) (size 9 to 14) (size 15 to 20)
#    0.000    2.333    3.333    1.000    0.000    2.667 
#    0.000    0.833    0.000    8.000    0.000    7.000 
#    0.000    0.000    0.000    0.000    0.000    0.167 
#
# Total GULP energy -268109.537670 kJ/mol
# GULP energy per Si atom -5585.615368 kJ/mol
# Density = 2.113620 g / cm^3
# Si number density = 21.184421 Si / 1000 Ang^3
#
#
#
# Elastic Constant Matrix: (Units=GPa)
#
#
# Indices 1 2 3 4 5 6 
#
# 1 204.9523 116.8543 17.4517 0.0000 0.0000 0.0000
# 2 116.8543 200.0858 7.0121 0.0000 0.0000 0.0000
# 3 17.4517 7.0121 53.7339 0.0000 0.0000 0.0000
# 4 0.0000 0.0000 0.0000 37.3319 0.0000 0.0000
# 5 0.0000 0.0000 0.0000 0.0000 8.7044 0.0000
# 6 0.0000 0.0000 0.0000 0.0000 0.0000 27.3807
#
#
#
# Elastic Compliance Matrix: (Units=1/GPa)
#
#
# Indices 1 2 3 4 5 6 
#
# 1 0.007498 -0.004313 -0.001872 0.000000 0.000000 0.000000
# 2 -0.004313 0.007502 0.000422 0.000000 0.000000 0.000000
# 3 -0.001872 0.000422 0.019163 0.000000 0.000000 0.000000
# 4 0.000000 0.000000 0.000000 0.026787 0.000000 0.000000
# 5 0.000000 0.000000 0.000000 0.000000 0.114884 0.000000
# 6 0.000000 0.000000 0.000000 0.000000 0.000000 0.036522
#
#
# Mechanical properties :
#
#
# Convention : Reuss Voigt Hill
#
# Bulk Modulus (GPa) = 44.17773 82.37867 63.27820
# Shear Modulus (GPa) = 21.60489 35.84699 28.72594
#
# Velocity S-wave (km/s) = 3.19697 4.11802 3.68638
# Velocity P-wave (km/s) = 5.87594 7.84740 6.93211
#
# Compressibility (1/GPa) = 0.02263584
#
# Stress axis : x y z
#
# Youngs Moduli (GPa) = 133.37178 133.29575 52.18316
#
# Poissons Ratio (x) = 0.57494 0.09770
# Poissons Ratio (y) = 0.57527 -0.02201
# Poissons Ratio (z) = 0.24971 -0.05623
#
# Static dielectric constant tensor:
#      x y z
#    x 1.732510 0.000000 0.000000 
#    y 0.000000 1.772350 0.000000 
#    z 0.000000 0.000000 1.982950 
# 
# From -- ./inp_files/28422.got.cif
#   From: 2010.05.17/outbox.cif.g08.bks.cpg/sg66_15_cif.got.tgz:28422.got - 2010.06.03 17:51:23.
