data_PCOD9495863
_publ_section_title
;
Structure prediction by ZEFSAII (Michael W. Deem and Ramdas Pophale) SiO2 
 PCOD9495863
Probable space group: C C C M
;
_chemical_formula_sum "Si O2"
_cell_formula_units_Z 80
_cell_length_a 18.552831
_cell_length_b 28.051595
_cell_length_c 8.551307
_cell_angle_alpha 90.000000
_cell_angle_beta 90.000000
_cell_angle_gamma 90.000000
_cell_volume 4450.412297
_symmetry_space_group_name_H-M "C C C M"
_symmetry_group_IT_number 66
_symmetry_cell_setting 'orthorhombic'
loop_
_space_group_symop_operation_xyz
x,y,z
-x,-y,z
x,-y,1/2-z
-x,y,1/2-z
-x,-y,-z
x,y,-z
-x,y,1/2+z
x,-y,1/2+z
1/2+x,1/2+y,z
1/2-x,1/2-y,z
1/2+x,1/2-y,1/2-z
1/2-x,1/2+y,1/2-z
1/2-x,1/2-y,-z
1/2+x,1/2+y,-z
1/2-x,1/2+y,1/2+z
1/2+x,1/2-y,1/2+z
loop_
_atom_site_type_symbol
_atom_site_label
_atom_site_fract_x
_atom_site_fract_y
_atom_site_fract_z
Si Si1 0.423565 0.915878 0.687473
Si Si2 0.578230 0.709435 0.810752
Si Si3 0.215780 0.148577 0.810857
Si Si4 0.727932 0.050137 0.185741
Si Si5 0.369880 0.187264 0.189714
O O1 0.500000 0.933434 0.750000
O O2 0.422246 0.918079 0.500000
O O3 0.353723 0.942720 0.752035
O O4 0.412316 0.860420 0.737577
O O5 0.500000 0.695400 0.750000
O O6 0.642579 0.674333 0.761371
O O7 0.597234 0.763102 0.754792
O O8 0.577405 0.709996 0.000000
O O9 0.227753 0.095744 0.745885
O O10 0.286524 0.179220 0.764322
O O11 0.216588 0.146033 0.000000
O O12 0.755981 0.000000 0.250000
O O13 0.726996 0.049641 0.000000
O O14 0.371145 0.188476 0.000000
#
# Coordination Sequence:
#
# PCOD9495863 Si02
#       5
#    16  16  16  16  16
#     4  10  19  32  50  75 108 142 176 211 249 293
#     4  10  19  31  50  76 107 140 172 208 250 298
#     4   9  18  34  54  75 101 135 174 212 252 299
#     4  11  22  37  56  76  98 127 167 213 262 311
#     4   8  15  29  50  74 102 139 178 210 242 288
#
# _framework density 17.975861999999999
#
# number of rings (size 3 to 8) (size 9 to 14) (size 15 to 20)
#    0.000    2.400    0.000    4.800    0.000    3.600 
#    0.000    6.000    0.000    6.600    0.000    4.200 
#    0.000    0.000    0.000    0.000    0.000    0.000 
#
# Total GULP energy -223270.118024 kJ/mol
# GULP energy per Si atom -5581.752951 kJ/mol
# Density = 1.793495 g / cm^3
# Si number density = 17.975862 Si / 1000 Ang^3
#
#
#
# Elastic Constant Matrix: (Units=GPa)
#
#
# Indices 1 2 3 4 5 6 
#
# 1 81.3466 26.1588 10.1733 0.0000 0.0000 0.0000
# 2 26.1588 73.4834 12.4696 0.0000 0.0000 0.0000
# 3 10.1733 12.4696 37.6849 0.0000 0.0000 0.0000
# 4 0.0000 0.0000 0.0000 16.9050 0.0000 0.0000
# 5 0.0000 0.0000 0.0000 0.0000 25.8876 0.0000
# 6 0.0000 0.0000 0.0000 0.0000 0.0000 0.8247
#
#
#
# Elastic Compliance Matrix: (Units=1/GPa)
#
#
# Indices 1 2 3 4 5 6 
#
# 1 0.014063 -0.004621 -0.002267 0.000000 0.000000 0.000000
# 2 -0.004621 0.015937 -0.004026 0.000000 0.000000 0.000000
# 3 -0.002267 -0.004026 0.028480 0.000000 0.000000 0.000000
# 4 0.000000 0.000000 0.000000 0.059154 0.000000 0.000000
# 5 0.000000 0.000000 0.000000 0.000000 0.038629 0.000000
# 6 0.000000 0.000000 0.000000 0.000000 0.000000 1.212578
#
#
# Mechanical properties :
#
#
# Convention : Reuss Voigt Hill
#
# Bulk Modulus (GPa) = 27.28447 32.23536 29.75992
# Shear Modulus (GPa) = 3.56408 18.30432 10.93420
#
# Velocity S-wave (km/s) = 1.40961 3.19450 2.46899
# Velocity P-wave (km/s) = 4.22619 5.61943 4.97185
#
# Compressibility (1/GPa) = 0.03665088
#
# Stress axis : x y z
#
# Youngs Moduli (GPa) = 71.11001 62.74791 35.11235
#
# Poissons Ratio (x) = 0.28998 0.07961
# Poissons Ratio (y) = 0.32862 0.14135
# Poissons Ratio (z) = 0.16122 0.25261
#
# Static dielectric constant tensor:
#      x y z
#    x 1.595350 0.000000 0.000000 
#    y 0.000000 1.622050 0.000000 
#    z 0.000000 0.000000 1.613460 
# 
# From -- ./inp_files/6668.got.cif
#   From: 2010.05.17/outbox.cif.g08.bks.cpg/sg66_4_cif.got.tgz:6668.got - 2010.06.03 17:51:23.
