data_PCOD9495420
_publ_section_title
;
Structure prediction by ZEFSAII (Michael W. Deem and Ramdas Pophale) SiO2 
 PCOD9495420
Probable space group: C C C M
;
_chemical_formula_sum "Si O2"
_cell_formula_units_Z 80
_cell_length_a 18.552314
_cell_length_b 13.562135
_cell_length_c 18.486107
_cell_angle_alpha 90.000000
_cell_angle_beta 90.000000
_cell_angle_gamma 90.000000
_cell_volume 4651.270656
_symmetry_space_group_name_H-M "C C C M"
_symmetry_group_IT_number 66
_symmetry_cell_setting 'orthorhombic'
loop_
_space_group_symop_operation_xyz
x,y,z
-x,-y,z
x,-y,1/2-z
-x,y,1/2-z
-x,-y,-z
x,y,-z
-x,y,1/2+z
x,-y,1/2+z
1/2+x,1/2+y,z
1/2-x,1/2-y,z
1/2+x,1/2-y,1/2-z
1/2-x,1/2+y,1/2-z
1/2-x,1/2-y,-z
1/2+x,1/2+y,-z
1/2-x,1/2+y,1/2+z
1/2+x,1/2-y,1/2+z
loop_
_atom_site_type_symbol
_atom_site_label
_atom_site_fract_x
_atom_site_fract_y
_atom_site_fract_z
Si Si1 0.593081 0.904916 0.914624
Si Si2 0.328476 0.698944 0.921029
Si Si3 0.571810 0.124483 0.132191
Si Si4 0.148750 0.678930 0.728264
Si Si5 0.692307 0.609780 0.726083
O O1 0.511176 0.876765 0.891962
O O2 0.640890 0.849305 0.855210
O O3 0.602140 0.021252 0.897994
O O4 0.604550 0.886279 0.000000
O O5 0.250000 0.750000 0.920275
O O6 0.385761 0.783918 0.902264
O O7 0.325724 0.619783 0.858155
O O8 0.342554 0.657721 0.000000
O O9 0.587443 0.134475 0.218318
O O10 0.223519 0.634336 0.759131
O O11 0.151626 0.797198 0.737518
O O12 0.675236 0.500000 0.750000
#
# Coordination Sequence:
#
# PCOD9495420 Si02
#       5
#    16  16  16  16  16
#     4  11  21  31  49  78 110 138 162 205 258 318
#     4  10  18  31  53  80 101 128 172 222 260 293
#     4  10  18  34  52  77 106 133 169 209 260 310
#     4  10  20  34  52  74 100 139 170 205 256 312
#     4  10  19  36  52  74 102 134 173 214 253 306
#
# _framework density 17.199601000000001
#
# number of rings (size 3 to 8) (size 9 to 14) (size 15 to 20)
#    0.000    1.800    4.000    4.800    0.000    1.600 
#    0.000    3.000    0.000    9.600    0.000    7.000 
#    0.000    0.000    0.000    0.000    0.000    0.000 
#
# Total GULP energy -223012.440898 kJ/mol
# GULP energy per Si atom -5575.311022 kJ/mol
# Density = 1.716045 g / cm^3
# Si number density = 17.199601 Si / 1000 Ang^3
#
#
#
# Elastic Constant Matrix: (Units=GPa)
#
#
# Indices 1 2 3 4 5 6 
#
# 1 34.7769 23.8147 35.5452 0.0000 0.0000 0.0000
# 2 23.8147 103.5606 77.4371 0.0000 0.0000 0.0000
# 3 35.5452 77.4371 187.6251 0.0000 0.0000 0.0000
# 4 0.0000 0.0000 0.0000 17.2851 0.0000 0.0000
# 5 0.0000 0.0000 0.0000 0.0000 12.2836 0.0000
# 6 0.0000 0.0000 0.0000 0.0000 0.0000 12.6206
#
#
#
# Elastic Compliance Matrix: (Units=1/GPa)
#
#
# Indices 1 2 3 4 5 6 
#
# 1 0.037209 -0.004752 -0.005088 0.000000 0.000000 0.000000
# 2 -0.004752 0.014573 -0.005114 0.000000 0.000000 0.000000
# 3 -0.005088 -0.005114 0.008405 0.000000 0.000000 0.000000
# 4 0.000000 0.000000 0.000000 0.057853 0.000000 0.000000
# 5 0.000000 0.000000 0.000000 0.000000 0.081410 0.000000
# 6 0.000000 0.000000 0.000000 0.000000 0.000000 0.079236
#
#
# Mechanical properties :
#
#
# Convention : Reuss Voigt Hill
#
# Bulk Modulus (GPa) = 33.02723 66.61741 49.82232
# Shear Modulus (GPa) = 15.68936 21.04888 18.36912
#
# Velocity S-wave (km/s) = 3.02353 3.50208 3.27157
# Velocity P-wave (km/s) = 5.60651 7.42757 6.58034
#
# Compressibility (1/GPa) = 0.03027804
#
# Stress axis : x y z
#
# Youngs Moduli (GPa) = 26.87508 68.61874 118.98366
#
# Poissons Ratio (x) = 0.32609 0.60538
# Poissons Ratio (y) = 0.12771 0.60853
# Poissons Ratio (z) = 0.13674 0.35095
#
# Static dielectric constant tensor:
#      x y z
#    x 1.598260 0.000000 0.000000 
#    y 0.000000 1.559820 0.000000 
#    z 0.000000 0.000000 1.618460 
# 
# From -- ./inp_files/40423.got.cif
#   From: 2010.05.17/outbox.cif.g08.bks.cpg/sg66_21_cif.got.tgz:40423.got - 2010.06.03 17:51:23.
