data_PCOD9495446
_publ_section_title
;
Structure prediction by ZEFSAII (Michael W. Deem and Ramdas Pophale) SiO2 
 PCOD9495446
Probable space group: C C C M
;
_chemical_formula_sum "Si O2"
_cell_formula_units_Z 96
_cell_length_a 28.151900
_cell_length_b 32.108343
_cell_length_c 7.989964
_cell_angle_alpha 90.000000
_cell_angle_beta 90.000000
_cell_angle_gamma 90.000000
_cell_volume 7222.215241
_symmetry_space_group_name_H-M "C C C M"
_symmetry_group_IT_number 66
_symmetry_cell_setting 'orthorhombic'
loop_
_space_group_symop_operation_xyz
x,y,z
-x,-y,z
x,-y,1/2-z
-x,y,1/2-z
-x,-y,-z
x,y,-z
-x,y,1/2+z
x,-y,1/2+z
1/2+x,1/2+y,z
1/2-x,1/2-y,z
1/2+x,1/2-y,1/2-z
1/2-x,1/2+y,1/2-z
1/2-x,1/2-y,-z
1/2+x,1/2+y,-z
1/2-x,1/2+y,1/2+z
1/2+x,1/2-y,1/2+z
loop_
_atom_site_type_symbol
_atom_site_label
_atom_site_fract_x
_atom_site_fract_y
_atom_site_fract_z
Si Si1 0.762049 0.367802 0.695758
Si Si2 0.086641 0.545971 0.700631
Si Si3 0.052520 0.634041 0.805316
Si Si4 0.172673 0.734304 0.000000
Si Si5 0.727553 0.683190 0.500000
Si Si6 0.196238 0.454377 0.200525
Si Si7 0.640876 0.185679 0.314232
O O1 0.746199 0.366635 0.500000
O O2 0.729679 0.344326 0.831190
O O3 0.772344 0.415136 0.752386
O O4 0.813497 0.344904 0.698947
O O5 0.069361 0.500000 0.750000
O O6 0.085945 0.549534 0.500000
O O7 0.058571 0.584691 0.774849
O O8 0.141636 0.549365 0.761834
O O9 0.093931 0.657967 0.707538
O O10 0.000000 0.646684 0.750000
O O11 0.059445 0.642810 0.000000
O O12 0.145736 0.718900 0.165897
O O13 0.222922 0.709311 0.000000
O O14 0.186007 0.782757 0.000000
O O15 0.213990 0.500000 0.250000
O O16 0.193710 0.452251 0.000000
O O17 0.642001 0.204473 0.500000
#
# Coordination Sequence:
#
# PCOD9495446 Si02
#       7
#    16  16  16   8   8  16  16
#     4   9  17  28  43  62  84 108 132 164 206 248
#     4  10  19  32  44  59  76  99 134 174 217 260
#     4  12  23  34  47  62  78 102 136 173 215 264
#     4   9  18  32  44  68  82 102 133 158 206 262
#     4   9  18  28  46  64  86 103 130 165 199 256
#     4   9  17  26  39  58  79 104 139 170 203 250
#     4  10  18  32  48  61  82 106 130 165 210 256
#
# _framework density 13.292320999999999
#
# number of rings (size 3 to 8) (size 9 to 14) (size 15 to 20)
#    0.000    2.167    2.500    2.000    1.167    1.667 
#    0.000    5.000    0.000    0.000    0.000    0.000 
#    0.000    0.000    0.000    0.000    0.000    0.000 
#
# Total GULP energy -267631.881223 kJ/mol
# GULP energy per Si atom -5575.664192 kJ/mol
# Density = 1.326207 g / cm^3
# Si number density = 13.292321 Si / 1000 Ang^3
#
#
#
# Elastic Constant Matrix: (Units=GPa)
#
#
# Indices 1 2 3 4 5 6 
#
# 1 25.0327 25.4567 16.9479 0.0000 0.0000 0.0000
# 2 25.4567 65.4298 33.8188 0.0000 0.0000 0.0000
# 3 16.9479 33.8188 77.6993 0.0000 0.0000 0.0000
# 4 0.0000 0.0000 0.0000 14.1153 0.0000 0.0000
# 5 0.0000 0.0000 0.0000 0.0000 5.8580 0.0000
# 6 0.0000 0.0000 0.0000 0.0000 0.0000 8.9591
#
#
#
# Elastic Compliance Matrix: (Units=1/GPa)
#
#
# Indices 1 2 3 4 5 6 
#
# 1 0.067160 -0.023945 -0.004227 0.000000 0.000000 0.000000
# 2 -0.023945 0.028257 -0.007076 0.000000 0.000000 0.000000
# 3 -0.004227 -0.007076 0.016872 0.000000 0.000000 0.000000
# 4 0.000000 0.000000 0.000000 0.070845 0.000000 0.000000
# 5 0.000000 0.000000 0.000000 0.000000 0.170708 0.000000
# 6 0.000000 0.000000 0.000000 0.000000 0.000000 0.111618
#
#
# Mechanical properties :
#
#
# Convention : Reuss Voigt Hill
#
# Bulk Modulus (GPa) = 23.92734 35.62316 29.77525
# Shear Modulus (GPa) = 9.09275 11.91570 10.50423
#
# Velocity S-wave (km/s) = 2.61829 2.99730 2.81418
# Velocity P-wave (km/s) = 5.21350 6.23189 5.74530
#
# Compressibility (1/GPa) = 0.04179319
#
# Stress axis : x y z
#
# Youngs Moduli (GPa) = 14.88976 35.38913 59.26980
#
# Poissons Ratio (x) = 0.84740 0.25053
# Poissons Ratio (y) = 0.35654 0.41940
# Poissons Ratio (z) = 0.06294 0.25042
#
# Static dielectric constant tensor:
#      x y z
#    x 1.411540 0.000000 0.000000 
#    y 0.000000 1.435460 0.000000 
#    z 0.000000 0.000000 1.468590 
# 
# From -- ./inp_files/9321.got.cif
#   From: 2010.05.17/outbox.cif.g08.bks.cpg/sg66_5_cif.got.tgz:9321.got - 2010.06.03 17:51:23.
