data_PCOD9495327
_publ_section_title
;
Structure prediction by ZEFSAII (Michael W. Deem and Ramdas Pophale) SiO2 
 PCOD9495327
Probable space group: C C C M
;
_chemical_formula_sum "Si O2"
_cell_formula_units_Z 96
_cell_length_a 33.692939
_cell_length_b 19.126424
_cell_length_c 8.596818
_cell_angle_alpha 90.000000
_cell_angle_beta 90.000000
_cell_angle_gamma 90.000000
_cell_volume 5540.008197
_symmetry_space_group_name_H-M "C C C M"
_symmetry_group_IT_number 66
_symmetry_cell_setting 'orthorhombic'
loop_
_space_group_symop_operation_xyz
x,y,z
-x,-y,z
x,-y,1/2-z
-x,y,1/2-z
-x,-y,-z
x,y,-z
-x,y,1/2+z
x,-y,1/2+z
1/2+x,1/2+y,z
1/2-x,1/2-y,z
1/2+x,1/2-y,1/2-z
1/2-x,1/2+y,1/2-z
1/2-x,1/2-y,-z
1/2+x,1/2+y,-z
1/2-x,1/2+y,1/2+z
1/2+x,1/2-y,1/2+z
loop_
_atom_site_type_symbol
_atom_site_label
_atom_site_fract_x
_atom_site_fract_y
_atom_site_fract_z
Si Si1 0.377471 0.705215 0.188172
Si Si2 0.330796 0.422457 0.815161
Si Si3 0.913772 0.576195 0.687547
Si Si4 0.755336 0.421734 0.812623
Si Si5 0.165596 0.346097 0.310959
Si Si6 0.043109 0.716458 0.187256
O O1 0.363148 0.633388 0.261174
O O2 0.347944 0.768554 0.235775
O O3 0.421522 0.730905 0.233124
O O4 0.376147 0.699972 0.000000
O O5 0.338738 0.500000 0.750000
O O6 0.287809 0.399949 0.748410
O O7 0.328419 0.426090 0.000000
O O8 0.923586 0.500000 0.750000
O O9 0.914153 0.574317 0.500000
O O10 0.869532 0.600810 0.737062
O O11 0.943176 0.638538 0.737759
O O12 0.762687 0.500000 0.750000
O O13 0.791378 0.372204 0.760255
O O14 0.754350 0.423425 0.000000
O O15 0.165650 0.346266 0.500000
O O16 0.000000 0.734159 0.250000
O O17 0.042158 0.716049 0.000000
#
# Coordination Sequence:
#
# PCOD9495327 Si02
#       6
#    16  16  16  16  16  16
#     4   9  18  36  56  74  97 129 164 201 244 295
#     4  11  22  36  53  75 100 128 160 199 244 295
#     4   9  17  30  46  69  99 135 174 211 245 282
#     4  10  18  30  48  71  99 135 173 209 244 284
#     4   8  16  30  49  70  97 134 174 207 244 288
#     4   9  19  34  53  74 100 130 163 201 246 296
#
# _framework density 17.328493999999999
#
# number of rings (size 3 to 8) (size 9 to 14) (size 15 to 20)
#    0.000    2.667    0.000    5.500    0.000    2.333 
#    0.000   10.000    0.000    0.500    0.000    3.500 
#    0.000    0.000    0.000    0.000    0.000    0.000 
#
# Total GULP energy -267694.898395 kJ/mol
# GULP energy per Si atom -5576.977050 kJ/mol
# Density = 1.728905 g / cm^3
# Si number density = 17.328494 Si / 1000 Ang^3
#
#
#
# Elastic Constant Matrix: (Units=GPa)
#
#
# Indices 1 2 3 4 5 6 
#
# 1 136.3335 89.1652 37.6290 0.0000 0.0000 0.0000
# 2 89.1652 84.5373 28.8317 0.0000 0.0000 0.0000
# 3 37.6290 28.8317 47.0875 0.0000 0.0000 0.0000
# 4 0.0000 0.0000 0.0000 25.2913 0.0000 0.0000
# 5 0.0000 0.0000 0.0000 0.0000 25.7194 0.0000
# 6 0.0000 0.0000 0.0000 0.0000 0.0000 9.4218
#
#
#
# Elastic Compliance Matrix: (Units=1/GPa)
#
#
# Indices 1 2 3 4 5 6 
#
# 1 0.024457 -0.024179 -0.004739 0.000000 0.000000 0.000000
# 2 -0.024179 0.038857 -0.004469 0.000000 0.000000 0.000000
# 3 -0.004739 -0.004469 0.027761 0.000000 0.000000 0.000000
# 4 0.000000 0.000000 0.000000 0.039539 0.000000 0.000000
# 5 0.000000 0.000000 0.000000 0.000000 0.038881 0.000000
# 6 0.000000 0.000000 0.000000 0.000000 0.000000 0.106137
#
#
# Mechanical properties :
#
#
# Convention : Reuss Voigt Hill
#
# Bulk Modulus (GPa) = 41.15508 64.35669 52.75588
# Shear Modulus (GPa) = 14.26505 19.57532 16.92018
#
# Velocity S-wave (km/s) = 2.87228 3.36469 3.12819
# Velocity P-wave (km/s) = 5.89928 7.23289 6.59986
#
# Compressibility (1/GPa) = 0.02429834
#
# Stress axis : x y z
#
# Youngs Moduli (GPa) = 40.88824 25.73567 36.02202
#
# Poissons Ratio (x) = 0.62228 0.17071
# Poissons Ratio (y) = 0.98866 0.16100
# Poissons Ratio (z) = 0.19377 0.11502
#
# Static dielectric constant tensor:
#      x y z
#    x 1.586530 0.000000 0.000000 
#    y 0.000000 1.574460 0.000000 
#    z 0.000000 0.000000 1.591880 
# 
# From -- ./inp_files/10269.got.cif
#   From: 2010.05.17/outbox.cif.g08.bks.cpg/sg66_6_cif.got.tgz:10269.got - 2010.06.03 17:51:23.
