data_PCOD9495046
_publ_section_title
;
Structure prediction by ZEFSAII (Michael W. Deem and Ramdas Pophale) SiO2 
 PCOD9495046
Probable space group: C C C M
;
_chemical_formula_sum "Si O2"
_cell_formula_units_Z 96
_cell_length_a 14.406259
_cell_length_b 11.882292
_cell_length_c 26.212424
_cell_angle_alpha 90.000000
_cell_angle_beta 90.000000
_cell_angle_gamma 90.000000
_cell_volume 4487.026385
_symmetry_space_group_name_H-M "C C C M"
_symmetry_group_IT_number 66
_symmetry_cell_setting 'orthorhombic'
loop_
_space_group_symop_operation_xyz
x,y,z
-x,-y,z
x,-y,1/2-z
-x,y,1/2-z
-x,-y,-z
x,y,-z
-x,y,1/2+z
x,-y,1/2+z
1/2+x,1/2+y,z
1/2-x,1/2-y,z
1/2+x,1/2-y,1/2-z
1/2-x,1/2+y,1/2-z
1/2-x,1/2-y,-z
1/2+x,1/2+y,-z
1/2-x,1/2+y,1/2+z
1/2+x,1/2-y,1/2+z
loop_
_atom_site_type_symbol
_atom_site_label
_atom_site_fract_x
_atom_site_fract_y
_atom_site_fract_z
Si Si1 0.113835 0.626854 0.747893
Si Si2 0.886327 0.992119 0.810869
Si Si3 0.105183 0.769864 0.157390
Si Si4 0.112629 0.245778 0.149027
Si Si5 0.334362 0.162199 0.555471
Si Si6 0.096845 0.428873 0.059748
O O1 0.145351 0.500000 0.750000
O O2 0.144471 0.697045 0.796558
O O3 0.148605 0.680886 0.695952
O O4 0.000000 0.625212 0.750000
O O5 0.852336 0.882258 0.842228
O O6 0.863633 0.000000 0.750000
O O7 0.854239 0.105603 0.838968
O O8 0.000000 0.000000 0.812008
O O9 0.114724 0.709600 0.103971
O O10 0.994957 0.772480 0.163277
O O11 0.115108 0.323461 0.097890
O O12 0.382587 0.170701 0.500000
O O13 0.250000 0.250000 0.552396
O O14 0.325102 0.027892 0.563790
O O15 0.000000 0.500000 0.071183
O O16 0.093964 0.394102 0.000000
#
# Coordination Sequence:
#
# PCOD9495046 Si02
#       6
#    16  16  16  16  16  16
#     4   9  16  22  39  72 103 127 161 213 270 327
#     4   9  16  28  44  72 107 143 175 210 267 334
#     4  10  17  29  48  71 105 140 176 221 271 330
#     4  10  17  27  47  77 107 136 174 219 279 338
#     4  10  21  36  54  75 102 142 186 226 280 348
#     4  10  19  32  52  77 108 142 180 237 297 338
#
# _framework density 21.395015999999998
#
# number of rings (size 3 to 8) (size 9 to 14) (size 15 to 20)
#    0.000    2.333    3.333    1.000    2.333    0.000 
#    0.000    0.833    0.000    7.000    0.000    3.500 
#    0.000    0.000    0.000    0.000    0.000    0.000 
#
# Total GULP energy -267250.268774 kJ/mol
# GULP energy per Si atom -5567.713933 kJ/mol
# Density = 2.134632 g / cm^3
# Si number density = 21.395016 Si / 1000 Ang^3
#
#
#
# Elastic Constant Matrix: (Units=GPa)
#
#
# Indices 1 2 3 4 5 6 
#
# 1 50.3793 12.8937 0.7830 0.0000 0.0000 0.0000
# 2 12.8937 235.4158 115.4338 0.0000 0.0000 0.0000
# 3 0.7830 115.4338 149.6297 0.0000 0.0000 0.0000
# 4 0.0000 0.0000 0.0000 42.8584 0.0000 0.0000
# 5 0.0000 0.0000 0.0000 0.0000 15.5075 0.0000
# 6 0.0000 0.0000 0.0000 0.0000 0.0000 14.4379
#
#
#
# Elastic Compliance Matrix: (Units=1/GPa)
#
#
# Indices 1 2 3 4 5 6 
#
# 1 0.020266 -0.001702 0.001207 0.000000 0.000000 0.000000
# 2 -0.001702 0.006975 -0.005372 0.000000 0.000000 0.000000
# 3 0.001207 -0.005372 0.010821 0.000000 0.000000 0.000000
# 4 0.000000 0.000000 0.000000 0.023333 0.000000 0.000000
# 5 0.000000 0.000000 0.000000 0.000000 0.064485 0.000000
# 6 0.000000 0.000000 0.000000 0.000000 0.000000 0.069262
#
#
# Mechanical properties :
#
#
# Convention : Reuss Voigt Hill
#
# Bulk Modulus (GPa) = 37.98183 77.07174 57.52678
# Shear Modulus (GPa) = 23.18542 34.98173 29.08358
#
# Velocity S-wave (km/s) = 3.29551 4.04795 3.69095
# Velocity P-wave (km/s) = 5.68082 7.61244 6.71643
#
# Compressibility (1/GPa) = 0.02632838
#
# Stress axis : x y z
#
# Youngs Moduli (GPa) = 49.34331 143.36471 92.41017
#
# Poissons Ratio (x) = 0.24396 -0.11152
# Poissons Ratio (y) = 0.08397 0.49645
# Poissons Ratio (z) = -0.05954 0.77019
#
# Static dielectric constant tensor:
#      x y z
#    x 1.949590 0.000000 0.000000 
#    y 0.000000 1.915210 0.000000 
#    z 0.000000 0.000000 1.768100 
# 
# From -- ./inp_files/59479.got.cif
#   From: 2010.05.17/outbox.cif.g08.bks.cpg/sg66_30_cif.got.tgz:59479.got - 2010.06.03 17:51:23.
