data_PCOD9495618
_publ_section_title
;
Structure prediction by ZEFSAII (Michael W. Deem and Ramdas Pophale) SiO2 
 PCOD9495618
Probable space group: C C C M
;
_chemical_formula_sum "Si O2"
_cell_formula_units_Z 84
_cell_length_a 21.567796
_cell_length_b 13.926624
_cell_length_c 13.476623
_cell_angle_alpha 90.000000
_cell_angle_beta 90.000000
_cell_angle_gamma 90.000000
_cell_volume 4047.927233
_symmetry_space_group_name_H-M "C C C M"
_symmetry_group_IT_number 66
_symmetry_cell_setting 'orthorhombic'
loop_
_space_group_symop_operation_xyz
x,y,z
-x,-y,z
x,-y,1/2-z
-x,y,1/2-z
-x,-y,-z
x,y,-z
-x,y,1/2+z
x,-y,1/2+z
1/2+x,1/2+y,z
1/2-x,1/2-y,z
1/2+x,1/2-y,1/2-z
1/2-x,1/2+y,1/2-z
1/2-x,1/2-y,-z
1/2+x,1/2+y,-z
1/2-x,1/2+y,1/2+z
1/2+x,1/2-y,1/2+z
loop_
_atom_site_type_symbol
_atom_site_label
_atom_site_fract_x
_atom_site_fract_y
_atom_site_fract_z
Si Si1 0.966432 0.602046 0.000000
Si Si2 0.778162 0.357623 0.000000
Si Si3 0.068959 0.643844 0.714562
Si Si4 0.591820 0.224046 0.000000
Si Si5 0.236892 0.863930 0.219294
Si Si6 0.403228 0.655550 0.199889
Si Si7 0.667255 0.000000 0.250000
Si Si8 0.000000 0.000000 0.250000
O O1 0.926817 0.614530 0.099809
O O2 0.000000 0.500000 0.000000
O O3 0.023382 0.678587 0.000000
O O4 0.750000 0.250000 0.000000
O O5 0.755934 0.395796 0.106643
O O6 0.852462 0.352444 0.000000
O O7 0.077864 0.757588 0.726836
O O8 0.116828 0.582058 0.780337
O O9 0.000000 0.620339 0.750000
O O10 0.601653 0.290312 0.904542
O O11 0.250000 0.750000 0.227532
O O12 0.164288 0.880801 0.231605
O O13 0.281754 0.923536 0.291525
O O14 0.453808 0.572038 0.193283
#
# Coordination Sequence:
#
# PCOD9495618 Si02
#       8
#     8   8  16   8  16  16   8   4
#     4  12  26  36  59  97 135 177 215 256 329 400
#     4  10  18  34  62  90 120 156 211 269 319 350
#     4  12  24  42  63  95 133 169 212 273 320 390
#     4  12  20  39  65  93 126 170 211 279 317 386
#     4  11  21  38  63  94 120 164 211 271 312 382
#     4  12  23  44  67  94 131 164 226 265 334 383
#     4  12  24  38  66  90 132 174 212 262 338 376
#     4  12  26  42  64  88 128 186 202 274 320 400
#
# _framework density 20.751360999999999
#
# number of rings (size 3 to 8) (size 9 to 14) (size 15 to 20)
#    0.000    0.381    8.571    2.000    2.667    0.381 
#    0.000    0.952    0.000    3.429    0.000    0.000 
#    0.000    0.000    0.000    0.000    0.000    0.000 
#
# Total GULP energy -234077.465196 kJ/mol
# GULP energy per Si atom -5573.272981 kJ/mol
# Density = 2.070413 g / cm^3
# Si number density = 20.751361 Si / 1000 Ang^3
#
#
#
# Elastic Constant Matrix: (Units=GPa)
#
#
# Indices 1 2 3 4 5 6 
#
# 1 157.4050 45.7166 -0.1104 0.0000 0.0000 0.0000
# 2 45.7166 121.5744 20.9560 0.0000 0.0000 0.0000
# 3 -0.1104 20.9560 84.7384 0.0000 0.0000 0.0000
# 4 0.0000 0.0000 0.0000 13.6702 0.0000 0.0000
# 5 0.0000 0.0000 0.0000 0.0000 11.8723 0.0000
# 6 0.0000 0.0000 0.0000 0.0000 0.0000 38.4992
#
#
#
# Elastic Compliance Matrix: (Units=1/GPa)
#
#
# Indices 1 2 3 4 5 6 
#
# 1 0.007172 -0.002819 0.000706 0.000000 0.000000 0.000000
# 2 -0.002819 0.009699 -0.002402 0.000000 0.000000 0.000000
# 3 0.000706 -0.002402 0.012396 0.000000 0.000000 0.000000
# 4 0.000000 0.000000 0.000000 0.073152 0.000000 0.000000
# 5 0.000000 0.000000 0.000000 0.000000 0.084230 0.000000
# 6 0.000000 0.000000 0.000000 0.000000 0.000000 0.025975
#
#
# Mechanical properties :
#
#
# Convention : Reuss Voigt Hill
#
# Bulk Modulus (GPa) = 49.41126 55.20468 52.30797
# Shear Modulus (GPa) = 21.89146 32.61871 27.25509
#
# Velocity S-wave (km/s) = 3.25151 3.96900 3.62803
# Velocity P-wave (km/s) = 6.16110 6.90396 6.54308
#
# Compressibility (1/GPa) = 0.02023830
#
# Stress axis : x y z
#
# Youngs Moduli (GPa) = 139.42670 103.09815 80.67081
#
# Poissons Ratio (x) = 0.29061 -0.05699
# Poissons Ratio (y) = 0.39302 0.19380
# Poissons Ratio (z) = -0.09850 0.24768
#
# Static dielectric constant tensor:
#      x y z
#    x 1.769370 0.000000 0.000000 
#    y 0.000000 1.783270 0.000000 
#    z 0.000000 0.000000 1.814320 
# 
# From -- ./inp_files/31139.got.cif
#   From: 2010.05.17/outbox.cif.g08.bks.cpg/sg66_16_cif.got.tgz:31139.got - 2010.06.03 17:51:23.
