data_PCOD9495070
_publ_section_title
;
Structure prediction by ZEFSAII (Michael W. Deem and Ramdas Pophale) SiO2 
 PCOD9495070
Probable space group: C C C M
;
_chemical_formula_sum "Si O2"
_cell_formula_units_Z 60
_cell_length_a 10.901965
_cell_length_b 18.678207
_cell_length_c 15.356149
_cell_angle_alpha 90.000000
_cell_angle_beta 90.000000
_cell_angle_gamma 90.000000
_cell_volume 3126.959706
_symmetry_space_group_name_H-M "C C C M"
_symmetry_group_IT_number 66
_symmetry_cell_setting 'orthorhombic'
loop_
_space_group_symop_operation_xyz
x,y,z
-x,-y,z
x,-y,1/2-z
-x,y,1/2-z
-x,-y,-z
x,y,-z
-x,y,1/2+z
x,-y,1/2+z
1/2+x,1/2+y,z
1/2-x,1/2-y,z
1/2+x,1/2-y,1/2-z
1/2-x,1/2+y,1/2-z
1/2-x,1/2-y,-z
1/2+x,1/2+y,-z
1/2-x,1/2+y,1/2+z
1/2+x,1/2-y,1/2+z
loop_
_atom_site_type_symbol
_atom_site_label
_atom_site_fract_x
_atom_site_fract_y
_atom_site_fract_z
Si Si1 0.884942 0.866047 0.800999
Si Si2 0.003918 0.268513 0.899705
Si Si3 0.750000 0.250000 0.185735
Si Si4 0.343741 0.085676 0.895663
Si Si5 0.500000 0.000000 0.250000
O O1 0.797420 0.819923 0.737255
O O2 0.797662 0.911395 0.864259
O O3 0.000000 0.901483 0.750000
O O4 0.945248 0.801424 0.854144
O O5 0.867209 0.279908 0.865426
O O6 0.094682 0.335472 0.888340
O O7 0.996494 0.253229 0.000000
O O8 0.414454 0.041994 0.819901
O O9 0.355097 0.064923 0.000000
#
# Coordination Sequence:
#
# PCOD9495070 Si02
#       5
#    16  16   8  16   4
#     4  10  19  32  57  86 117 148 186 238 301 354
#     4  10  19  31  53  84 117 149 184 237 295 350
#     4  10  17  28  47  82 122 150 180 218 290 354
#     4  11  22  39  60  84 115 157 207 248 291 352
#     4  12  26  40  62  82 116 160 206 252 288 342
#
# _framework density 19.187968000000001
#
# number of rings (size 3 to 8) (size 9 to 14) (size 15 to 20)
#    0.000    1.600    2.667    3.200    1.867    2.133 
#    0.000    0.667    0.000    6.400    0.000    0.000 
#    0.000    0.000    0.000    0.000    0.000    0.000 
#
# Total GULP energy -167047.949455 kJ/mol
# GULP energy per Si atom -5568.264982 kJ/mol
# Density = 1.914430 g / cm^3
# Si number density = 19.187968 Si / 1000 Ang^3
#
#
#
# Elastic Constant Matrix: (Units=GPa)
#
#
# Indices 1 2 3 4 5 6 
#
# 1 140.3936 17.8377 75.9920 0.0000 0.0000 0.0000
# 2 17.8377 22.9631 33.5823 0.0000 0.0000 0.0000
# 3 75.9920 33.5823 146.2175 0.0000 0.0000 0.0000
# 4 0.0000 0.0000 0.0000 36.2292 0.0000 0.0000
# 5 0.0000 0.0000 0.0000 0.0000 20.0641 0.0000
# 6 0.0000 0.0000 0.0000 0.0000 0.0000 10.5659
#
#
#
# Elastic Compliance Matrix: (Units=1/GPa)
#
#
# Indices 1 2 3 4 5 6 
#
# 1 0.009912 -0.000250 -0.005094 0.000000 0.000000 0.000000
# 2 -0.000250 0.065579 -0.014932 0.000000 0.000000 0.000000
# 3 -0.005094 -0.014932 0.012916 0.000000 0.000000 0.000000
# 4 0.000000 0.000000 0.000000 0.027602 0.000000 0.000000
# 5 0.000000 0.000000 0.000000 0.000000 0.049840 0.000000
# 6 0.000000 0.000000 0.000000 0.000000 0.000000 0.094644
#
#
# Mechanical properties :
#
#
# Convention : Reuss Voigt Hill
#
# Bulk Modulus (GPa) = 20.89619 62.71089 41.80354
# Shear Modulus (GPa) = 15.77302 25.51599 20.64450
#
# Velocity S-wave (km/s) = 2.87021 3.65059 3.28366
# Velocity P-wave (km/s) = 4.67953 7.10791 6.01749
#
# Compressibility (1/GPa) = 0.04785561
#
# Stress axis : x y z
#
# Youngs Moduli (GPa) = 100.88946 15.24872 77.42303
#
# Poissons Ratio (x) = 0.00381 0.39439
# Poissons Ratio (y) = 0.02520 1.15608
# Poissons Ratio (z) = 0.51393 0.22769
#
# Static dielectric constant tensor:
#      x y z
#    x 1.704660 0.000000 0.000000 
#    y 0.000000 1.628450 0.000000 
#    z 0.000000 0.000000 1.610000 
# 
# From -- ./inp_files/25653.got.cif
#   From: 2010.05.17/outbox.cif.g08.bks.cpg/sg66_13_cif.got.tgz:25653.got - 2010.06.03 17:51:23.
