data_PCOD9495571
_publ_section_title
;
Structure prediction by ZEFSAII (Michael W. Deem and Ramdas Pophale) SiO2 
 PCOD9495571
Probable space group: C C C M
;
_chemical_formula_sum "Si O2"
_cell_formula_units_Z 88
_cell_length_a 12.805857
_cell_length_b 22.059469
_cell_length_c 14.682042
_cell_angle_alpha 90.000000
_cell_angle_beta 90.000000
_cell_angle_gamma 90.000000
_cell_volume 4147.535998
_symmetry_space_group_name_H-M "C C C M"
_symmetry_group_IT_number 66
_symmetry_cell_setting 'orthorhombic'
loop_
_space_group_symop_operation_xyz
x,y,z
-x,-y,z
x,-y,1/2-z
-x,y,1/2-z
-x,-y,-z
x,y,-z
-x,y,1/2+z
x,-y,1/2+z
1/2+x,1/2+y,z
1/2-x,1/2-y,z
1/2+x,1/2-y,1/2-z
1/2-x,1/2+y,1/2-z
1/2-x,1/2-y,-z
1/2+x,1/2+y,-z
1/2-x,1/2+y,1/2+z
1/2+x,1/2-y,1/2+z
loop_
_atom_site_type_symbol
_atom_site_label
_atom_site_fract_x
_atom_site_fract_y
_atom_site_fract_z
Si Si1 0.487520 0.930223 0.358833
Si Si2 0.669789 0.351343 0.219994
Si Si3 0.730423 0.956795 0.165443
Si Si4 0.875800 0.679801 0.395842
Si Si5 0.500000 0.256665 0.750000
Si Si6 0.089659 0.042951 0.395584
O O1 0.500000 0.920915 0.250000
O O2 0.365875 0.923115 0.381830
O O3 0.573049 0.886903 0.401043
O O4 0.500000 0.000000 0.382519
O O5 0.705839 0.401813 0.291432
O O6 0.768596 0.325572 0.162387
O O7 0.600136 0.299641 0.265387
O O8 0.601506 0.392512 0.151711
O O9 0.691413 0.000000 0.250000
O O10 0.804187 0.003270 0.111961
O O11 0.859822 0.701819 0.500000
O O12 0.960684 0.717260 0.336228
O O13 0.064076 0.053933 0.500000
O O14 0.000000 0.000000 0.354978
#
# Coordination Sequence:
#
# PCOD9495571 Si02
#       6
#    16  16  16  16   8  16
#     4  11  18  36  64  98 130 165 204 259 325 405
#     4  11  22  40  65  89 121 172 222 266 332 395
#     4  10  18  33  61  90 125 164 207 256 319 395
#     4  12  26  44  68  98 131 171 225 284 342 409
#     4  12  26  44  64  88 122 170 228 290 334 386
#     4  10  21  36  57  94 137 171 213 267 325 402
#
# _framework density 21.217417000000001
#
# number of rings (size 3 to 8) (size 9 to 14) (size 15 to 20)
#    0.000    1.091    4.545    3.273    0.000    5.818 
#    0.000    0.909    0.000    5.455    0.000    0.000 
#    0.000    0.000    0.000    0.000    0.000    0.000 
#
# Total GULP energy -245576.670283 kJ/mol
# GULP energy per Si atom -5581.287961 kJ/mol
# Density = 2.116913 g / cm^3
# Si number density = 21.217417 Si / 1000 Ang^3
#
#
#
# Elastic Constant Matrix: (Units=GPa)
#
#
# Indices 1 2 3 4 5 6 
#
# 1 98.4417 33.0592 13.5204 0.0000 0.0000 0.0000
# 2 33.0592 94.2738 30.4142 0.0000 0.0000 0.0000
# 3 13.5204 30.4142 74.6901 0.0000 0.0000 0.0000
# 4 0.0000 0.0000 0.0000 7.3827 0.0000 0.0000
# 5 0.0000 0.0000 0.0000 0.0000 4.9032 0.0000
# 6 0.0000 0.0000 0.0000 0.0000 0.0000 45.7853
#
#
#
# Elastic Compliance Matrix: (Units=1/GPa)
#
#
# Indices 1 2 3 4 5 6 
#
# 1 0.011531 -0.003880 -0.000507 0.000000 0.000000 0.000000
# 2 -0.003880 0.013517 -0.004802 0.000000 0.000000 0.000000
# 3 -0.000507 -0.004802 0.015436 0.000000 0.000000 0.000000
# 4 0.000000 0.000000 0.000000 0.135451 0.000000 0.000000
# 5 0.000000 0.000000 0.000000 0.000000 0.203949 0.000000
# 6 0.000000 0.000000 0.000000 0.000000 0.000000 0.021841
#
#
# Mechanical properties :
#
#
# Convention : Reuss Voigt Hill
#
# Bulk Modulus (GPa) = 45.23757 46.82148 46.02952
# Shear Modulus (GPa) = 11.69667 24.30837 18.00252
#
# Velocity S-wave (km/s) = 2.35048 3.38846 2.91603
# Velocity P-wave (km/s) = 5.36037 6.11754 5.75143
#
# Compressibility (1/GPa) = 0.02210552
#
# Stress axis : x y z
#
# Youngs Moduli (GPa) = 86.72310 73.98013 64.78413
#
# Poissons Ratio (x) = 0.28703 0.03287
# Poissons Ratio (y) = 0.33648 0.31109
# Poissons Ratio (z) = 0.04400 0.35525
#
# Static dielectric constant tensor:
#      x y z
#    x 1.889670 0.000000 0.000000 
#    y 0.000000 1.786110 0.000000 
#    z 0.000000 0.000000 1.808890 
# 
# From -- ./inp_files/28226.got.cif
#   From: 2010.05.17/outbox.cif.g08.bks.cpg/sg66_15_cif.got.tgz:28226.got - 2010.06.03 17:51:23.
