data_PCOD9495686
_publ_section_title
;
Structure prediction by ZEFSAII (Michael W. Deem and Ramdas Pophale) SiO2 
 PCOD9495686
Probable space group: C C C M
;
_chemical_formula_sum "Si O2"
_cell_formula_units_Z 56
_cell_length_a 9.279244
_cell_length_b 15.344885
_cell_length_c 18.494026
_cell_angle_alpha 90.000000
_cell_angle_beta 90.000000
_cell_angle_gamma 90.000000
_cell_volume 2633.344612
_symmetry_space_group_name_H-M "C C C M"
_symmetry_group_IT_number 66
_symmetry_cell_setting 'orthorhombic'
loop_
_space_group_symop_operation_xyz
x,y,z
-x,-y,z
x,-y,1/2-z
-x,y,1/2-z
-x,-y,-z
x,y,-z
-x,y,1/2+z
x,-y,1/2+z
1/2+x,1/2+y,z
1/2-x,1/2-y,z
1/2+x,1/2-y,1/2-z
1/2-x,1/2+y,1/2-z
1/2-x,1/2-y,-z
1/2+x,1/2+y,-z
1/2-x,1/2+y,1/2+z
1/2+x,1/2-y,1/2+z
loop_
_atom_site_type_symbol
_atom_site_label
_atom_site_fract_x
_atom_site_fract_y
_atom_site_fract_z
Si Si1 0.127666 0.883860 0.000000
Si Si2 0.570148 0.086947 0.620169
Si Si3 0.761442 0.343590 0.847221
Si Si4 0.205994 0.908961 0.500000
Si Si5 0.763804 0.500000 0.750000
O O1 0.187540 0.844233 0.074214
O O2 0.955416 0.873566 0.000000
O O3 0.178581 0.985785 0.000000
O O4 0.431576 0.143552 0.638053
O O5 0.697174 0.118053 0.568477
O O6 0.500000 0.000000 0.585102
O O7 0.641446 0.055451 0.694329
O O8 0.750000 0.250000 0.810158
O O9 0.696402 0.424847 0.801153
#
# Coordination Sequence:
#
# PCOD9495686 Si02
#       5
#     8  16  16   8   8
#     4  11  22  37  60  99 128 163 208 268 331 374
#     4  10  18  37  63  87 115 169 221 253 306 381
#     4  11  22  40  66  95 126 163 220 270 313 384
#     4  11  20  36  62  90 126 170 214 252 323 397
#     4  10  21  40  67  90 121 172 219 258 323 384
#
# _framework density 21.265732
#
# number of rings (size 3 to 8) (size 9 to 14) (size 15 to 20)
#    0.000    1.429    5.714    5.571    0.000    0.000 
#    0.000   11.429    0.000    0.000    0.000    1.000 
#    0.000    0.000    0.000    0.000    0.000    0.000 
#
# Total GULP energy -156159.705353 kJ/mol
# GULP energy per Si atom -5577.132334 kJ/mol
# Density = 2.121733 g / cm^3
# Si number density = 21.265732 Si / 1000 Ang^3
#
#
#
# Elastic Constant Matrix: (Units=GPa)
#
#
# Indices 1 2 3 4 5 6 
#
# 1 70.7346 22.6426 25.3676 0.0000 0.0000 0.0000
# 2 22.6426 97.1742 12.5370 0.0000 0.0000 0.0000
# 3 25.3676 12.5370 124.7552 0.0000 0.0000 0.0000
# 4 0.0000 0.0000 0.0000 -330.3234 0.0000 0.0000
# 5 0.0000 0.0000 0.0000 0.0000 9.4875 0.0000
# 6 0.0000 0.0000 0.0000 0.0000 0.0000 20.7638
#
#
#
# Elastic Compliance Matrix: (Units=1/GPa)
#
#
# Indices 1 2 3 4 5 6 
#
# 1 0.016295 -0.003414 -0.002970 0.000000 0.000000 0.000000
# 2 -0.003414 0.011141 -0.000425 0.000000 0.000000 0.000000
# 3 -0.002970 -0.000425 0.008662 0.000000 0.000000 0.000000
# 4 0.000000 0.000000 0.000000 -0.003027 0.000000 0.000000
# 5 0.000000 0.000000 0.000000 0.000000 0.105402 0.000000
# 6 0.000000 0.000000 0.000000 0.000000 0.000000 0.048161
#
#
# Mechanical properties :
#
#
# Convention : Reuss Voigt Hill
#
# Bulk Modulus (GPa) = 44.48459 45.97315 45.22887
# Shear Modulus (GPa) = 24.06774 -44.53998 -10.23612
#
# Velocity S-wave (km/s) = 3.36782 -4.58148 -2.19633
# Velocity P-wave (km/s) = 6.00723 2.51421 3.85782
#
# Compressibility (1/GPa) = 0.02247970
#
# Stress axis : x y z
#
# Youngs Moduli (GPa) = 61.36695 89.75748 115.44062
#
# Poissons Ratio (x) = 0.30641 0.34291
# Poissons Ratio (y) = 0.20949 0.04911
# Poissons Ratio (z) = 0.18229 0.03819
#
# Static dielectric constant tensor:
#      x y z
#    x 1.765460 0.000000 0.000000 
#    y 0.000000 1.847330 0.000000 
#    z 0.000000 0.000000 1.810220 
# 
# From -- ./inp_files/36131.got.cif
#   From: 2010.05.17/outbox.cif.g08.bks.cpg/sg66_19_cif.got.tgz:36131.got - 2010.06.03 17:51:23.
