data_PCOD9495213
_publ_section_title
;
Structure prediction by ZEFSAII (Michael W. Deem and Ramdas Pophale) SiO2 
 PCOD9495213
Probable space group: C C C M
;
_chemical_formula_sum "Si O2"
_cell_formula_units_Z 80
_cell_length_a 27.896173
_cell_length_b 6.701434
_cell_length_c 16.259435
_cell_angle_alpha 90.000000
_cell_angle_beta 90.000000
_cell_angle_gamma 90.000000
_cell_volume 3039.609706
_symmetry_space_group_name_H-M "C C C M"
_symmetry_group_IT_number 66
_symmetry_cell_setting 'orthorhombic'
loop_
_space_group_symop_operation_xyz
x,y,z
-x,-y,z
x,-y,1/2-z
-x,y,1/2-z
-x,-y,-z
x,y,-z
-x,y,1/2+z
x,-y,1/2+z
1/2+x,1/2+y,z
1/2-x,1/2-y,z
1/2+x,1/2-y,1/2-z
1/2-x,1/2+y,1/2-z
1/2-x,1/2-y,-z
1/2+x,1/2+y,-z
1/2-x,1/2+y,1/2+z
1/2+x,1/2-y,1/2+z
loop_
_atom_site_type_symbol
_atom_site_label
_atom_site_fract_x
_atom_site_fract_y
_atom_site_fract_z
Si Si1 0.590260 0.824015 0.401462
Si Si2 0.190618 0.557968 0.902882
Si Si3 0.389830 0.632995 0.402014
Si Si4 0.490608 0.274679 0.153042
Si Si5 0.707726 0.511820 0.846830
O O1 0.594659 0.829274 0.500000
O O2 0.635544 0.954500 0.371581
O O3 0.600599 0.596174 0.373269
O O4 0.534600 0.854303 0.381628
O O5 0.235547 0.454283 0.858954
O O6 0.199742 0.797087 0.890535
O O7 0.193284 0.513444 0.000000
O O8 0.395772 0.648165 0.500000
O O9 0.434379 0.754089 0.364242
O O10 0.333323 0.655468 0.383408
O O11 0.500000 0.500000 0.119505
O O12 0.500000 0.272856 0.250000
O O13 0.698596 0.500000 0.750000
#
# Coordination Sequence:
#
# PCOD9495213 Si02
#       5
#    16  16  16  16  16
#     4   8  14  24  38  52  77 114 152 184 214 258
#     4   9  17  31  46  62  88 123 165 202 233 275
#     4   9  16  24  35  53  82 118 150 175 215 278
#     4   9  16  21  33  54  86 115 144 178 218 269
#     4  10  18  25  42  64  88 117 158 196 236 269
#
# _framework density 26.319168000000001
#
# number of rings (size 3 to 8) (size 9 to 14) (size 15 to 20)
#    0.000    3.000    0.000    4.200    8.400    2.400 
#    0.000    0.000    0.000    0.000    0.000   25.200 
#    0.000    0.800    0.000    4.400    1.600    8.400 
#
# Total GULP energy -223603.235734 kJ/mol
# GULP energy per Si atom -5590.080893 kJ/mol
# Density = 2.625926 g / cm^3
# Si number density = 26.319168 Si / 1000 Ang^3
#
#
#
# Elastic Constant Matrix: (Units=GPa)
#
#
# Indices 1 2 3 4 5 6 
#
# 1 327.0596 81.1956 40.5280 0.0000 0.0000 0.0000
# 2 81.1956 101.8212 -3.7458 0.0000 0.0000 0.0000
# 3 40.5280 -3.7458 82.2755 0.0000 0.0000 0.0000
# 4 0.0000 0.0000 0.0000 0.8557 0.0000 0.0000
# 5 0.0000 0.0000 0.0000 0.0000 155.9082 0.0000
# 6 0.0000 0.0000 0.0000 0.0000 0.0000 76.7079
#
#
#
# Elastic Compliance Matrix: (Units=1/GPa)
#
#
# Indices 1 2 3 4 5 6 
#
# 1 0.004180 -0.003414 -0.002214 0.000000 0.000000 0.000000
# 2 -0.003414 0.012627 0.002257 0.000000 0.000000 0.000000
# 3 -0.002214 0.002257 0.013348 0.000000 0.000000 0.000000
# 4 0.000000 0.000000 0.000000 1.168623 0.000000 0.000000
# 5 0.000000 0.000000 0.000000 0.000000 0.006414 0.000000
# 6 0.000000 0.000000 0.000000 0.000000 0.000000 0.013036
#
#
# Mechanical properties :
#
#
# Convention : Reuss Voigt Hill
#
# Bulk Modulus (GPa) = 42.71593 83.01242 62.86418
# Shear Modulus (GPa) = 4.05589 72.90626 38.48108
#
# Velocity S-wave (km/s) = 1.24273 5.26887 3.82788
# Velocity P-wave (km/s) = 4.28070 8.28395 6.59349
#
# Compressibility (1/GPa) = 0.02341047
#
# Stress axis : x y z
#
# Youngs Moduli (GPa) = 239.25809 79.19591 74.91895
#
# Poissons Ratio (x) = 0.27041 0.16589
# Poissons Ratio (y) = 0.81692 -0.16908
# Poissons Ratio (z) = 0.52978 -0.17873
#
# Static dielectric constant tensor:
#      x y z
#    x 2.537550 0.000000 0.000000 
#    y 0.000000 2.233270 0.000000 
#    z 0.000000 0.000000 1.932970 
# 
# From -- ./inp_files/33124.got.cif
#   From: 2010.05.17/outbox.cif.g08.bks.cpg/sg66_17_cif.got.tgz:33124.got - 2010.06.03 17:51:23.
