data_PCOD9495694
_publ_section_title
;
Structure prediction by ZEFSAII (Michael W. Deem and Ramdas Pophale) SiO2 
 PCOD9495694
Probable space group: C C C M
;
_chemical_formula_sum "Si O2"
_cell_formula_units_Z 80
_cell_length_a 13.411350
_cell_length_b 18.273621
_cell_length_c 16.512703
_cell_angle_alpha 90.000000
_cell_angle_beta 90.000000
_cell_angle_gamma 90.000000
_cell_volume 4046.832970
_symmetry_space_group_name_H-M "C C C M"
_symmetry_group_IT_number 66
_symmetry_cell_setting 'orthorhombic'
loop_
_space_group_symop_operation_xyz
x,y,z
-x,-y,z
x,-y,1/2-z
-x,y,1/2-z
-x,-y,-z
x,y,-z
-x,y,1/2+z
x,-y,1/2+z
1/2+x,1/2+y,z
1/2-x,1/2-y,z
1/2+x,1/2-y,1/2-z
1/2-x,1/2+y,1/2-z
1/2-x,1/2-y,-z
1/2+x,1/2+y,-z
1/2-x,1/2+y,1/2+z
1/2+x,1/2-y,1/2+z
loop_
_atom_site_type_symbol
_atom_site_label
_atom_site_fract_x
_atom_site_fract_y
_atom_site_fract_z
Si Si1 0.823081 0.319786 0.500000
Si Si2 0.307413 0.621433 0.635107
Si Si3 0.831224 0.630361 0.359928
Si Si4 0.325848 0.664121 0.000000
Si Si5 0.774377 0.500000 0.250000
Si Si6 0.250000 0.750000 0.742184
Si Si7 0.466358 0.583647 0.500000
Si Si8 0.447849 0.186887 0.500000
O O1 0.750000 0.250000 0.500000
O O2 0.790125 0.366354 0.578387
O O3 0.936404 0.292887 0.500000
O O4 0.290500 0.554206 0.694923
O O5 0.315137 0.695857 0.686641
O O6 0.399326 0.605111 0.576964
O O7 0.736219 0.638416 0.421038
O O8 0.832161 0.555087 0.310153
O O9 0.817473 0.697254 0.297400
O O10 0.924299 0.641490 0.419062
O O11 0.431605 0.626251 0.000000
O O12 0.362507 0.749074 0.000000
O O13 0.500000 0.500000 0.500000
#
# Coordination Sequence:
#
# PCOD9495694 Si02
#       8
#     8  16  16   8   8   8   8   8
#     4  11  22  42  66  92 120 159 214 257 312 372
#     4  10  22  40  64  88 127 169 210 257 317 372
#     4  10  20  40  61  94 125 165 212 260 321 365
#     4  11  20  36  65  91 128 163 215 263 305 372
#     4  10  22  40  64  84 132 170 200 266 320 380
#     4  10  18  38  60  88 134 164 206 264 316 366
#     4  11  23  39  62  94 129 167 212 251 315 392
#     4  11  21  38  68  94 116 163 217 268 304 375
#
# _framework density 19.768545
#
# number of rings (size 3 to 8) (size 9 to 14) (size 15 to 20)
#    0.000    1.600    3.000    3.000    0.000    2.400 
#    0.000   18.500    0.000    0.000    0.000    0.000 
#    0.000    0.000    0.000    0.000    0.000    0.000 
#
# Total GULP energy -223281.092878 kJ/mol
# GULP energy per Si atom -5582.027322 kJ/mol
# Density = 1.972355 g / cm^3
# Si number density = 19.768545 Si / 1000 Ang^3
#
#
#
# Elastic Constant Matrix: (Units=GPa)
#
#
# Indices 1 2 3 4 5 6 
#
# 1 107.3163 30.8817 42.0017 0.0000 0.0000 0.0000
# 2 30.8817 142.3227 71.5587 0.0000 0.0000 0.0000
# 3 42.0017 71.5587 136.2209 0.0000 0.0000 0.0000
# 4 0.0000 0.0000 0.0000 34.2511 0.0000 0.0000
# 5 0.0000 0.0000 0.0000 0.0000 -9.5264 0.0000
# 6 0.0000 0.0000 0.0000 0.0000 0.0000 18.4215
#
#
#
# Elastic Compliance Matrix: (Units=1/GPa)
#
#
# Indices 1 2 3 4 5 6 
#
# 1 0.010681 -0.000899 -0.002821 0.000000 0.000000 0.000000
# 2 -0.000899 0.009624 -0.004778 0.000000 0.000000 0.000000
# 3 -0.002821 -0.004778 0.010721 0.000000 0.000000 0.000000
# 4 0.000000 0.000000 0.000000 0.029196 0.000000 0.000000
# 5 0.000000 0.000000 0.000000 0.000000 -0.104971 0.000000
# 6 0.000000 0.000000 0.000000 0.000000 0.000000 0.054285
#
#
# Mechanical properties :
#
#
# Convention : Reuss Voigt Hill
#
# Bulk Modulus (GPa) = 71.28151 74.97156 73.12654
# Shear Modulus (GPa) = 160.21228 24.72376 92.46802
#
# Velocity S-wave (km/s) = 9.01221 3.54031 6.84667
# Velocity P-wave (km/s) = 12.01789 7.39721 9.97869
#
# Compressibility (1/GPa) = 0.01402888
#
# Stress axis : x y z
#
# Youngs Moduli (GPa) = 93.62331 103.90808 93.27557
#
# Poissons Ratio (x) = 0.09344 0.26313
# Poissons Ratio (y) = 0.08419 0.44570
# Poissons Ratio (z) = 0.26411 0.49650
#
# Static dielectric constant tensor:
#      x y z
#    x 1.650740 0.000000 0.000000 
#    y 0.000000 0.667260 0.000000 
#    z 0.000000 0.000000 1.723540 
# 
# From -- ./inp_files/41533.got.cif
#   From: 2010.05.17/outbox.cif.g08.bks.cpg/sg66_21_cif.got.tgz:41533.got - 2010.06.03 17:51:23.
