data_PCOD9495103
_publ_section_title
;
Structure prediction by ZEFSAII (Michael W. Deem and Ramdas Pophale) SiO2 
 PCOD9495103
Probable space group: C C C M
;
_chemical_formula_sum "Si O2"
_cell_formula_units_Z 96
_cell_length_a 12.777998
_cell_length_b 20.305397
_cell_length_c 19.609521
_cell_angle_alpha 90.000000
_cell_angle_beta 90.000000
_cell_angle_gamma 90.000000
_cell_volume 5087.931857
_symmetry_space_group_name_H-M "C C C M"
_symmetry_group_IT_number 66
_symmetry_cell_setting 'orthorhombic'
loop_
_space_group_symop_operation_xyz
x,y,z
-x,-y,z
x,-y,1/2-z
-x,y,1/2-z
-x,-y,-z
x,y,-z
-x,y,1/2+z
x,-y,1/2+z
1/2+x,1/2+y,z
1/2-x,1/2-y,z
1/2+x,1/2-y,1/2-z
1/2-x,1/2+y,1/2-z
1/2-x,1/2-y,-z
1/2+x,1/2+y,-z
1/2-x,1/2+y,1/2+z
1/2+x,1/2-y,1/2+z
loop_
_atom_site_type_symbol
_atom_site_label
_atom_site_fract_x
_atom_site_fract_y
_atom_site_fract_z
Si Si1 0.602034 0.183672 0.424049
Si Si2 0.207417 0.091799 0.077658
Si Si3 0.622683 0.977068 0.579568
Si Si4 0.428115 0.315646 0.851151
Si Si5 0.136140 0.238911 0.290888
Si Si6 0.550416 0.881112 0.315122
O O1 0.562586 0.168015 0.500000
O O2 0.718756 0.156419 0.420162
O O3 0.592270 0.260381 0.408372
O O4 0.536106 0.144256 0.368387
O O5 0.110779 0.112835 0.125118
O O6 0.289806 0.033156 0.093285
O O7 0.171438 0.081302 0.000000
O O8 0.636980 0.956426 0.500000
O O9 0.629681 0.922731 0.638771
O O10 0.500000 0.000000 0.584255
O O11 0.363385 0.293190 0.784067
O O12 0.550008 0.303810 0.831488
O O13 0.250000 0.250000 0.322039
O O14 0.097537 0.314009 0.284973
O O15 0.500000 0.917369 0.250000
#
# Coordination Sequence:
#
# PCOD9495103 Si02
#       6
#    16  16  16  16  16  16
#     4  10  17  29  51  78 109 146 183 231 284 341
#     4  10  19  31  52  80 110 148 187 232 286 344
#     4  10  20  35  53  78 116 156 190 234 288 351
#     4  10  19  32  52  81 109 146 191 237 287 355
#     4  10  20  35  54  78 114 150 184 236 306 350
#     4  11  20  34  51  83 114 153 190 231 292 358
#
# _framework density 18.868176999999999
#
# number of rings (size 3 to 8) (size 9 to 14) (size 15 to 20)
#    0.000    1.833    5.000    2.500    0.000    1.667 
#    0.000    0.000    0.000   19.000    0.000    4.667 
#    0.000    0.000    0.000    0.000    0.000    0.000 
#
# Total GULP energy -267285.255772 kJ/mol
# GULP energy per Si atom -5568.442829 kJ/mol
# Density = 1.882523 g / cm^3
# Si number density = 18.868177 Si / 1000 Ang^3
#
#
#
# Elastic Constant Matrix: (Units=GPa)
#
#
# Indices 1 2 3 4 5 6 
#
# 1 77.6182 39.7753 25.7730 0.0000 0.0000 0.0000
# 2 39.7753 67.1867 45.6197 0.0000 0.0000 0.0000
# 3 25.7730 45.6197 98.4315 0.0000 0.0000 0.0000
# 4 0.0000 0.0000 0.0000 1.8192 0.0000 0.0000
# 5 0.0000 0.0000 0.0000 0.0000 2.5783 0.0000
# 6 0.0000 0.0000 0.0000 0.0000 0.0000 34.6819
#
#
#
# Elastic Compliance Matrix: (Units=1/GPa)
#
#
# Indices 1 2 3 4 5 6 
#
# 1 0.018502 -0.011183 0.000339 0.000000 0.000000 0.000000
# 2 -0.011183 0.028478 -0.010271 0.000000 0.000000 0.000000
# 3 0.000339 -0.010271 0.014831 0.000000 0.000000 0.000000
# 4 0.000000 0.000000 0.000000 0.549679 0.000000 0.000000
# 5 0.000000 0.000000 0.000000 0.000000 0.387848 0.000000
# 6 0.000000 0.000000 0.000000 0.000000 0.000000 0.028833
#
#
# Mechanical properties :
#
#
# Convention : Reuss Voigt Hill
#
# Bulk Modulus (GPa) = 51.07119 51.73025 51.40072
# Shear Modulus (GPa) = 4.64283 16.62045 10.63164
#
# Velocity S-wave (km/s) = 1.57035 2.97117 2.37633
# Velocity P-wave (km/s) = 5.51490 6.26471 5.90173
#
# Compressibility (1/GPa) = 0.01958051
#
# Stress axis : x y z
#
# Youngs Moduli (GPa) = 54.04806 35.11450 67.42757
#
# Poissons Ratio (x) = 0.39270 -0.02283
# Poissons Ratio (y) = 0.60444 0.69252
# Poissons Ratio (z) = -0.01830 0.36064
#
# Static dielectric constant tensor:
#      x y z
#    x 1.744910 0.000000 0.000000 
#    y 0.000000 1.697450 0.000000 
#    z 0.000000 0.000000 1.687480 
# 
# From -- ./inp_files/48810.got.cif
#   From: 2010.05.17/outbox.cif.g08.bks.cpg/sg66_25_cif.got.tgz:48810.got - 2010.06.03 17:51:23.
