data_PCOD9495574
_publ_section_title
;
Structure prediction by ZEFSAII (Michael W. Deem and Ramdas Pophale) SiO2 
 PCOD9495574
Probable space group: C C C M
;
_chemical_formula_sum "Si O2"
_cell_formula_units_Z 76
_cell_length_a 13.269703
_cell_length_b 16.141554
_cell_length_c 22.102276
_cell_angle_alpha 90.000000
_cell_angle_beta 90.000000
_cell_angle_gamma 90.000000
_cell_volume 4734.166673
_symmetry_space_group_name_H-M "C C C M"
_symmetry_group_IT_number 66
_symmetry_cell_setting 'orthorhombic'
loop_
_space_group_symop_operation_xyz
x,y,z
-x,-y,z
x,-y,1/2-z
-x,y,1/2-z
-x,-y,-z
x,y,-z
-x,y,1/2+z
x,-y,1/2+z
1/2+x,1/2+y,z
1/2-x,1/2-y,z
1/2+x,1/2-y,1/2-z
1/2-x,1/2+y,1/2-z
1/2-x,1/2-y,-z
1/2+x,1/2+y,-z
1/2-x,1/2+y,1/2+z
1/2+x,1/2-y,1/2+z
loop_
_atom_site_type_symbol
_atom_site_label
_atom_site_fract_x
_atom_site_fract_y
_atom_site_fract_z
Si Si1 0.968191 0.595828 0.569654
Si Si2 0.500000 0.500000 0.250000
Si Si3 0.887023 0.143150 0.817601
Si Si4 0.037578 0.300128 0.815179
Si Si5 0.761160 0.849564 0.432149
Si Si6 0.250000 0.750000 0.268196
O O1 0.992651 0.623626 0.500000
O O2 0.848122 0.609526 0.576672
O O3 0.000000 0.500000 0.573979
O O4 0.016876 0.646194 0.625169
O O5 0.567461 0.438898 0.210463
O O6 0.840408 0.124662 0.882357
O O7 0.798200 0.180331 0.775485
O O8 0.972240 0.215158 0.820751
O O9 0.155690 0.281917 0.806875
O O10 0.000000 0.336912 0.750000
O O11 0.795444 0.867719 0.500000
O O12 0.750000 0.750000 0.426295
#
# Coordination Sequence:
#
# PCOD9495574 Si02
#       6
#    16   4  16  16  16   8
#     4  10  21  36  55  85 118 143 181 243 293 326
#     4  12  24  36  54  84 120 152 176 234 300 328
#     4  11  20  37  56  85 116 147 190 238 286 341
#     4  10  19  35  57  80 112 146 189 233 277 339
#     4  10  18  33  62  85 103 148 198 230 275 345
#     4  10  18  34  54  78 108 150 188 224 274 350
#
# _framework density 16.053512999999999
#
# number of rings (size 3 to 8) (size 9 to 14) (size 15 to 20)
#    0.000    1.684    6.316    1.263    0.000    2.105 
#    0.000    1.053    0.000    0.000    0.000    0.000 
#    0.000    0.000    0.000    0.000    0.000    0.000 
#
# Total GULP energy -211818.746015 kJ/mol
# GULP energy per Si atom -5574.177527 kJ/mol
# Density = 1.601697 g / cm^3
# Si number density = 16.053513 Si / 1000 Ang^3
#
#
#
# Elastic Constant Matrix: (Units=GPa)
#
#
# Indices 1 2 3 4 5 6 
#
# 1 122.4726 50.9601 85.8606 0.0000 0.0000 0.0000
# 2 50.9601 93.6525 67.4388 0.0000 0.0000 0.0000
# 3 85.8606 67.4388 171.5782 0.0000 0.0000 0.0000
# 4 0.0000 0.0000 0.0000 52.7457 0.0000 0.0000
# 5 0.0000 0.0000 0.0000 0.0000 37.7565 0.0000
# 6 0.0000 0.0000 0.0000 0.0000 0.0000 30.9444
#
#
#
# Elastic Compliance Matrix: (Units=1/GPa)
#
#
# Indices 1 2 3 4 5 6 
#
# 1 0.013317 -0.003414 -0.005322 0.000000 0.000000 0.000000
# 2 -0.003414 0.015768 -0.004489 0.000000 0.000000 0.000000
# 3 -0.005322 -0.004489 0.010256 0.000000 0.000000 0.000000
# 4 0.000000 0.000000 0.000000 0.018959 0.000000 0.000000
# 5 0.000000 0.000000 0.000000 0.000000 0.026486 0.000000
# 6 0.000000 0.000000 0.000000 0.000000 0.000000 0.032316
#
#
# Mechanical properties :
#
#
# Convention : Reuss Voigt Hill
#
# Bulk Modulus (GPa) = 77.57695 88.46915 83.02305
# Shear Modulus (GPa) = 33.81844 36.51891 35.16867
#
# Velocity S-wave (km/s) = 4.59476 4.77469 4.68559
# Velocity P-wave (km/s) = 8.75088 9.25340 9.00565
#
# Compressibility (1/GPa) = 0.01289043
#
# Stress axis : x y z
#
# Youngs Moduli (GPa) = 75.09411 63.41931 97.50313
#
# Poissons Ratio (x) = 0.21649 0.51892
# Poissons Ratio (y) = 0.25635 0.43773
# Poissons Ratio (z) = 0.39966 0.28471
#
# Static dielectric constant tensor:
#      x y z
#    x 1.514540 0.000000 0.000000 
#    y 0.000000 1.518180 0.000000 
#    z 0.000000 0.000000 1.560540 
# 
# From -- ./inp_files/56655.got.cif
#   From: 2010.05.17/outbox.cif.g08.bks.cpg/sg66_29_cif.got.tgz:56655.got - 2010.06.03 17:51:23.
