data_PCOD9495845
_publ_section_title
;
Structure prediction by ZEFSAII (Michael W. Deem and Ramdas Pophale) SiO2 
 PCOD9495845
Probable space group: C C C M
;
_chemical_formula_sum "Si O2"
_cell_formula_units_Z 64
_cell_length_a 14.264770
_cell_length_b 5.272098
_cell_length_c 34.661882
_cell_angle_alpha 90.000000
_cell_angle_beta 90.000000
_cell_angle_gamma 90.000000
_cell_volume 2606.756035
_symmetry_space_group_name_H-M "C C C M"
_symmetry_group_IT_number 66
_symmetry_cell_setting 'orthorhombic'
loop_
_space_group_symop_operation_xyz
x,y,z
-x,-y,z
x,-y,1/2-z
-x,y,1/2-z
-x,-y,-z
x,y,-z
-x,y,1/2+z
x,-y,1/2+z
1/2+x,1/2+y,z
1/2-x,1/2-y,z
1/2+x,1/2-y,1/2-z
1/2-x,1/2+y,1/2-z
1/2-x,1/2-y,-z
1/2+x,1/2+y,-z
1/2-x,1/2+y,1/2+z
1/2+x,1/2-y,1/2+z
loop_
_atom_site_type_symbol
_atom_site_label
_atom_site_fract_x
_atom_site_fract_y
_atom_site_fract_z
Si Si1 0.645603 0.694483 0.423531
Si Si2 0.886587 0.988796 0.839965
Si Si3 0.114145 0.514858 0.206077
Si Si4 0.637932 0.804768 0.043424
O O1 0.750000 0.750000 0.438728
O O2 0.652661 0.570877 0.381321
O O3 0.599156 0.474401 0.448394
O O4 0.604949 0.977386 0.427031
O O5 0.860299 0.213242 0.810916
O O6 0.858911 0.717786 0.822058
O O7 0.000000 0.000000 0.844079
O O8 0.148409 0.500000 0.250000
O O9 0.000000 0.500000 0.207473
O O10 0.750000 0.750000 0.047272
O O11 0.618874 0.891870 0.000000
#
# Coordination Sequence:
#
# PCOD9495845 Si02
#       4
#    16  16  16  16
#     4  10  19  31  49  72  96 124 157 196 240 286
#     4  10  19  31  49  72  98 126 156 197 244 288
#     4   9  17  30  49  72  95 122 160 201 238 279
#     4   9  17  30  49  71  93 121 161 202 235 274
#
# _framework density 24.551589
#
# number of rings (size 3 to 8) (size 9 to 14) (size 15 to 20)
#    0.000    2.500    0.000    3.000    0.000    6.000 
#    0.000    0.000    0.000    7.500    0.000    0.000 
#    0.000    0.000    0.000    0.000    0.000    0.000 
#
# Total GULP energy -178772.190756 kJ/mol
# GULP energy per Si atom -5586.630961 kJ/mol
# Density = 2.449571 g / cm^3
# Si number density = 24.551589 Si / 1000 Ang^3
#
#
#
# Elastic Constant Matrix: (Units=GPa)
#
#
# Indices 1 2 3 4 5 6 
#
# 1 88.0619 0.5858 -26.5476 0.0000 0.0000 0.0000
# 2 0.5858 188.3300 54.2693 0.0000 0.0000 0.0000
# 3 -26.5476 54.2693 96.9848 0.0000 0.0000 0.0000
# 4 0.0000 0.0000 0.0000 47.0042 0.0000 0.0000
# 5 0.0000 0.0000 0.0000 0.0000 9.0338 0.0000
# 6 0.0000 0.0000 0.0000 0.0000 0.0000 -18.7840
#
#
#
# Elastic Compliance Matrix: (Units=1/GPa)
#
#
# Indices 1 2 3 4 5 6 
#
# 1 0.012613 -0.001233 0.004142 0.000000 0.000000 0.000000
# 2 -0.001233 0.006451 -0.003947 0.000000 0.000000 0.000000
# 3 0.004142 -0.003947 0.013654 0.000000 0.000000 0.000000
# 4 0.000000 0.000000 0.000000 0.021275 0.000000 0.000000
# 5 0.000000 0.000000 0.000000 0.000000 0.110695 0.000000
# 6 0.000000 0.000000 0.000000 0.000000 0.000000 -0.053237
#
#
# Mechanical properties :
#
#
# Convention : Reuss Voigt Hill
#
# Bulk Modulus (GPa) = 32.63543 47.77688 40.20616
# Shear Modulus (GPa) = 40.40747 30.45542 35.43144
#
# Velocity S-wave (km/s) = 4.06127 3.52585 3.80299
# Velocity P-wave (km/s) = 5.94250 6.00645 5.97456
#
# Compressibility (1/GPa) = 0.03064154
#
# Stress axis : x y z
#
# Youngs Moduli (GPa) = 79.28568 155.01181 73.24106
#
# Poissons Ratio (x) = 0.19111 -0.30339
# Poissons Ratio (y) = 0.09775 0.28910
# Poissons Ratio (z) = -0.32843 0.61188
#
# Static dielectric constant tensor:
#      x y z
#    x 2.017900 0.000000 0.000000 
#    y 0.000000 1.995980 0.000000 
#    z 0.000000 0.000000 1.908030 
# 
# From -- ./inp_files/61228.got.cif
#   From: 2010.05.17/outbox.cif.g08.bks.cpg/sg66_31_cif.got.tgz:61228.got - 2010.06.03 17:51:23.
