data_PCOD9495041
_publ_section_title
;
Structure prediction by ZEFSAII (Michael W. Deem and Ramdas Pophale) SiO2 
 PCOD9495041
Probable space group: C C C M
;
_chemical_formula_sum "Si O2"
_cell_formula_units_Z 116
_cell_length_a 25.819344
_cell_length_b 18.300311
_cell_length_c 14.775049
_cell_angle_alpha 90.000000
_cell_angle_beta 90.000000
_cell_angle_gamma 90.000000
_cell_volume 6981.240572
_symmetry_space_group_name_H-M "C C C M"
_symmetry_group_IT_number 66
_symmetry_cell_setting 'orthorhombic'
loop_
_space_group_symop_operation_xyz
x,y,z
-x,-y,z
x,-y,1/2-z
-x,y,1/2-z
-x,-y,-z
x,y,-z
-x,y,1/2+z
x,-y,1/2+z
1/2+x,1/2+y,z
1/2-x,1/2-y,z
1/2+x,1/2-y,1/2-z
1/2-x,1/2+y,1/2-z
1/2-x,1/2-y,-z
1/2+x,1/2+y,-z
1/2-x,1/2+y,1/2+z
1/2+x,1/2-y,1/2+z
loop_
_atom_site_type_symbol
_atom_site_label
_atom_site_fract_x
_atom_site_fract_y
_atom_site_fract_z
Si Si1 0.177781 0.444753 0.391745
Si Si2 0.490288 0.915364 0.389384
Si Si3 0.721617 0.418416 0.771864
Si Si4 0.750000 0.250000 0.000000
Si Si5 0.829035 0.775865 0.332584
Si Si6 0.124781 0.408081 0.105201
Si Si7 0.088861 0.324099 0.608331
Si Si8 0.284962 0.189661 0.158448
O O1 0.187141 0.447958 0.500000
O O2 0.231234 0.426181 0.343263
O O3 0.153902 0.520858 0.356829
O O4 0.134114 0.384004 0.375820
O O5 0.492547 0.913464 0.500000
O O6 0.432515 0.895184 0.357655
O O7 0.535395 0.860419 0.359091
O O8 0.500000 0.000000 0.363958
O O9 0.703116 0.500000 0.750000
O O10 0.680038 0.360991 0.810025
O O11 0.748348 0.378144 0.686279
O O12 0.795019 0.243135 0.079312
O O13 0.887614 0.748653 0.347540
O O14 0.804855 0.729938 0.249449
O O15 0.164032 0.341397 0.112305
O O16 0.116577 0.426771 0.000000
O O17 0.084779 0.313347 0.500000
O O18 0.250000 0.250000 0.109347
#
# Coordination Sequence:
#
# PCOD9495041 Si02
#       8
#    16  16  16   4  16  16  16  16
#     4  10  18  25  44  69  94 127 166 203 238 295
#     4   9  16  28  45  70  99 132 171 209 241 279
#     4  11  20  31  45  65  97 133 160 203 259 312
#     4  12  16  32  52  80  96 128 170 214 266 324
#     4  11  21  30  47  72 100 127 168 211 262 309
#     4  10  19  32  47  66  93 138 181 204 233 284
#     4  10  17  27  46  70 100 130 163 210 253 291
#     4  10  20  33  45  65  94 127 161 208 249 291
#
# _framework density 16.615957999999999
#
# number of rings (size 3 to 8) (size 9 to 14) (size 15 to 20)
#    0.000    1.793    6.897    0.000    2.897    0.276 
#    0.000    0.690    0.000    0.828    0.000    0.000 
#    0.000    8.828    0.000   19.862    0.000    0.000 
#
# Total GULP energy -322995.437475 kJ/mol
# GULP energy per Si atom -5568.886853 kJ/mol
# Density = 1.657814 g / cm^3
# Si number density = 16.615958 Si / 1000 Ang^3
#
#
#
# Elastic Constant Matrix: (Units=GPa)
#
#
# Indices 1 2 3 4 5 6 
#
# 1 113.5521 63.5897 6.5021 0.0000 0.0000 0.0000
# 2 63.5897 107.4166 9.2138 0.0000 0.0000 0.0000
# 3 6.5021 9.2138 28.5624 0.0000 0.0000 0.0000
# 4 0.0000 0.0000 0.0000 13.2162 0.0000 0.0000
# 5 0.0000 0.0000 0.0000 0.0000 8.4420 0.0000
# 6 0.0000 0.0000 0.0000 0.0000 0.0000 32.1874
#
#
#
# Elastic Compliance Matrix: (Units=1/GPa)
#
#
# Indices 1 2 3 4 5 6 
#
# 1 0.013181 -0.007760 -0.000497 0.000000 0.000000 0.000000
# 2 -0.007760 0.014143 -0.002796 0.000000 0.000000 0.000000
# 3 -0.000497 -0.002796 0.036026 0.000000 0.000000 0.000000
# 4 0.000000 0.000000 0.000000 0.075665 0.000000 0.000000
# 5 0.000000 0.000000 0.000000 0.000000 0.118455 0.000000
# 6 0.000000 0.000000 0.000000 0.000000 0.000000 0.031068
#
#
# Mechanical properties :
#
#
# Convention : Reuss Voigt Hill
#
# Bulk Modulus (GPa) = 24.24613 45.34914 34.79764
# Shear Modulus (GPa) = 15.41339 22.11747 18.76543
#
# Velocity S-wave (km/s) = 3.04900 3.65238 3.36424
# Velocity P-wave (km/s) = 5.19798 6.71850 6.00655
#
# Compressibility (1/GPa) = 0.04124369
#
# Stress axis : x y z
#
# Youngs Moduli (GPa) = 75.86801 70.70444 27.75761
#
# Poissons Ratio (x) = 0.54869 0.01380
# Poissons Ratio (y) = 0.58876 0.07761
# Poissons Ratio (z) = 0.03772 0.19768
#
# Static dielectric constant tensor:
#      x y z
#    x 1.572730 0.000000 0.000000 
#    y 0.000000 1.596290 0.000000 
#    z 0.000000 0.000000 1.606280 
# 
# From -- ./inp_files/33435.got.cif
#   From: 2010.05.17/outbox.cif.g08.bks.cpg/sg66_17_cif.got.tgz:33435.got - 2010.06.03 17:51:23.
