data_PCOD9495750
_publ_section_title
;
Structure prediction by ZEFSAII (Michael W. Deem and Ramdas Pophale) SiO2 
 PCOD9495750
Probable space group: C C C M
;
_chemical_formula_sum "Si O2"
_cell_formula_units_Z 72
_cell_length_a 22.788637
_cell_length_b 16.667540
_cell_length_c 9.484790
_cell_angle_alpha 90.000000
_cell_angle_beta 90.000000
_cell_angle_gamma 90.000000
_cell_volume 3602.612706
_symmetry_space_group_name_H-M "C C C M"
_symmetry_group_IT_number 66
_symmetry_cell_setting 'orthorhombic'
loop_
_space_group_symop_operation_xyz
x,y,z
-x,-y,z
x,-y,1/2-z
-x,y,1/2-z
-x,-y,-z
x,y,-z
-x,y,1/2+z
x,-y,1/2+z
1/2+x,1/2+y,z
1/2-x,1/2-y,z
1/2+x,1/2-y,1/2-z
1/2-x,1/2+y,1/2-z
1/2-x,1/2-y,-z
1/2+x,1/2+y,-z
1/2-x,1/2+y,1/2+z
1/2+x,1/2-y,1/2+z
loop_
_atom_site_type_symbol
_atom_site_label
_atom_site_fract_x
_atom_site_fract_y
_atom_site_fract_z
Si Si1 0.083040 0.426684 0.338648
Si Si2 0.000000 0.287927 0.750000
Si Si3 0.055137 0.130157 0.160615
Si Si4 0.328780 0.661311 0.170288
Si Si5 0.301151 0.151899 0.329479
O O1 0.059759 0.500000 0.250000
O O2 0.087964 0.451418 0.500000
O O3 0.146828 0.403855 0.278421
O O4 0.043554 0.347081 0.330739
O O5 0.961974 0.225355 0.658816
O O6 0.116031 0.125520 0.246334
O O7 0.000000 0.095492 0.250000
O O8 0.058845 0.100693 0.000000
O O9 0.319639 0.756284 0.202670
O O10 0.264626 0.628269 0.213137
O O11 0.337437 0.653651 0.000000
O O12 0.300721 0.149458 0.500000
#
# Coordination Sequence:
#
# PCOD9495750 Si02
#       5
#    16   8  16  16  16
#     4  11  22  36  49  65  91 127 167 202 233 272
#     4  10  21  32  50  60  92 128 171 194 230 270
#     4  10  19  29  45  68  96 123 151 190 234 277
#     4   9  15  28  51  69  85 116 154 191 236 287
#     4   8  15  30  49  66  86 117 154 192 238 289
#
# _framework density 19.985496000000001
#
# number of rings (size 3 to 8) (size 9 to 14) (size 15 to 20)
#    0.667    1.778    2.222    3.000    0.000    2.667 
#    0.000    3.333    0.000    0.000    0.000    0.000 
#    0.000    0.889    0.000   10.222    0.000    3.556 
#
# Total GULP energy -200440.546174 kJ/mol
# GULP energy per Si atom -5567.792949 kJ/mol
# Density = 1.994001 g / cm^3
# Si number density = 19.985496 Si / 1000 Ang^3
#
#
#
# Elastic Constant Matrix: (Units=GPa)
#
#
# Indices 1 2 3 4 5 6 
#
# 1 179.9730 7.4171 48.4595 0.0000 0.0000 0.0000
# 2 7.4171 26.5297 -0.3401 0.0000 0.0000 0.0000
# 3 48.4595 -0.3401 81.8773 0.0000 0.0000 0.0000
# 4 0.0000 0.0000 0.0000 0.6282 0.0000 0.0000
# 5 0.0000 0.0000 0.0000 0.0000 44.9344 0.0000
# 6 0.0000 0.0000 0.0000 0.0000 0.0000 -10.2849
#
#
#
# Elastic Compliance Matrix: (Units=1/GPa)
#
#
# Indices 1 2 3 4 5 6 
#
# 1 0.006707 -0.001926 -0.003977 0.000000 0.000000 0.000000
# 2 -0.001926 0.038249 0.001299 0.000000 0.000000 0.000000
# 3 -0.003977 0.001299 0.014573 0.000000 0.000000 0.000000
# 4 0.000000 0.000000 0.000000 1.591765 0.000000 0.000000
# 5 0.000000 0.000000 0.000000 0.000000 0.022255 0.000000
# 6 0.000000 0.000000 0.000000 0.000000 0.000000 -0.097230
#
#
# Mechanical properties :
#
#
# Convention : Reuss Voigt Hill
#
# Bulk Modulus (GPa) = 19.87322 44.38368 32.12845
# Shear Modulus (GPa) = 3.12051 22.57847 12.84949
#
# Velocity S-wave (km/s) = 1.25091 3.36481 2.53838
# Velocity P-wave (km/s) = 3.47157 6.11164 4.97010
#
# Compressibility (1/GPa) = 0.05031897
#
# Stress axis : x y z
#
# Youngs Moduli (GPa) = 149.10422 26.14468 68.62082
#
# Poissons Ratio (x) = 0.05036 0.27293
# Poissons Ratio (y) = 0.28718 -0.08912
# Poissons Ratio (z) = 0.59305 -0.03396
#
# Static dielectric constant tensor:
#      x y z
#    x 1.757490 0.000000 0.000000 
#    y 0.000000 1.695990 0.000000 
#    z 0.000000 0.000000 1.689690 
# 
# From -- ./inp_files/6485.got.cif
#   From: 2010.05.17/outbox.cif.g08.bks.cpg/sg66_4_cif.got.tgz:6485.got - 2010.06.03 17:51:23.
