data_PCOD9495561
_publ_section_title
;
Structure prediction by ZEFSAII (Michael W. Deem and Ramdas Pophale) SiO2 
 PCOD9495561
Probable space group: C C C M
;
_chemical_formula_sum "Si O2"
_cell_formula_units_Z 80
_cell_length_a 15.444777
_cell_length_b 13.936912
_cell_length_c 18.395932
_cell_angle_alpha 90.000000
_cell_angle_beta 90.000000
_cell_angle_gamma 90.000000
_cell_volume 3959.770314
_symmetry_space_group_name_H-M "C C C M"
_symmetry_group_IT_number 66
_symmetry_cell_setting 'orthorhombic'
loop_
_space_group_symop_operation_xyz
x,y,z
-x,-y,z
x,-y,1/2-z
-x,y,1/2-z
-x,-y,-z
x,y,-z
-x,y,1/2+z
x,-y,1/2+z
1/2+x,1/2+y,z
1/2-x,1/2-y,z
1/2+x,1/2-y,1/2-z
1/2-x,1/2+y,1/2-z
1/2-x,1/2-y,-z
1/2+x,1/2+y,-z
1/2-x,1/2+y,1/2+z
1/2+x,1/2-y,1/2+z
loop_
_atom_site_type_symbol
_atom_site_label
_atom_site_fract_x
_atom_site_fract_y
_atom_site_fract_z
Si Si1 0.590294 0.640644 0.215901
Si Si2 0.259316 0.136170 0.306532
Si Si3 0.082487 0.628418 0.701940
Si Si4 0.848118 0.497484 0.418958
Si Si5 0.196226 0.844329 0.419040
O O1 0.500000 0.608630 0.250000
O O2 0.664621 0.612891 0.274196
O O3 0.580270 0.755715 0.200029
O O4 0.626054 0.613424 0.136552
O O5 0.250000 0.250000 0.319326
O O6 0.326619 0.110989 0.242321
O O7 0.305190 0.085464 0.374820
O O8 0.084983 0.565559 0.629019
O O9 0.000000 0.601945 0.750000
O O10 0.879147 0.523196 0.500000
O O11 0.768717 0.424175 0.426138
O O12 0.161914 0.820000 0.500000
O O13 0.250000 0.750000 0.391681
#
# Coordination Sequence:
#
# PCOD9495561 Si02
#       5
#    16  16  16  16  16
#     4  10  19  35  60  90 118 156 201 241 298 361
#     4  10  21  39  57  81 120 161 203 244 292 356
#     4  10  20  36  61  90 117 149 197 255 301 347
#     4  11  22  36  60  88 119 157 198 246 303 355
#     4  10  18  33  58  89 120 149 192 251 305 345
#
# _framework density 20.203192999999999
#
# number of rings (size 3 to 8) (size 9 to 14) (size 15 to 20)
#    0.000    1.800    4.000    1.200    0.000    2.000 
#    0.000    5.000    0.000    9.600    0.000    0.000 
#    0.000    0.000    0.000    0.000    0.000    0.000 
#
# Total GULP energy -222833.548568 kJ/mol
# GULP energy per Si atom -5570.838714 kJ/mol
# Density = 2.015721 g / cm^3
# Si number density = 20.203193 Si / 1000 Ang^3
#
#
#
# Elastic Constant Matrix: (Units=GPa)
#
#
# Indices 1 2 3 4 5 6 
#
# 1 115.0792 -15.6382 43.7445 0.0000 0.0000 0.0000
# 2 -15.6382 71.7411 15.5507 0.0000 0.0000 0.0000
# 3 43.7445 15.5507 146.2524 0.0000 0.0000 0.0000
# 4 0.0000 0.0000 0.0000 27.8170 0.0000 0.0000
# 5 0.0000 0.0000 0.0000 0.0000-2397.0693 0.0000
# 6 0.0000 0.0000 0.0000 0.0000 0.0000 2.8673
#
#
#
# Elastic Compliance Matrix: (Units=1/GPa)
#
#
# Indices 1 2 3 4 5 6 
#
# 1 0.010403 0.003012 -0.003432 0.000000 0.000000 0.000000
# 2 0.003012 0.015140 -0.002511 0.000000 0.000000 0.000000
# 3 -0.003432 -0.002511 0.008131 0.000000 0.000000 0.000000
# 4 0.000000 0.000000 0.000000 0.035949 0.000000 0.000000
# 5 0.000000 0.000000 0.000000 0.000000 -0.000417 0.000000
# 6 0.000000 0.000000 0.000000 0.000000 0.000000 0.348764
#
#
# Mechanical properties :
#
#
# Convention : Reuss Voigt Hill
#
# Bulk Modulus (GPa) = 35.95513 46.70965 41.33239
# Shear Modulus (GPa) = 11.54461 -453.98262 -221.21900
#
# Velocity S-wave (km/s) = 2.39304 -15.00654 -10.47544
# Velocity P-wave (km/s) = 5.04687 16.64606 11.21652
#
# Compressibility (1/GPa) = 0.02781244
#
# Stress axis : x y z
#
# Youngs Moduli (GPa) = 96.12161 66.05158 122.98701
#
# Poissons Ratio (x) = -0.19893 0.42208
# Poissons Ratio (y) = -0.28949 0.30877
# Poissons Ratio (z) = 0.32988 0.16583
#
# Static dielectric constant tensor:
#      x y z
#    x 1.723960 0.000000 0.000000 
#    y 0.000000 1.807740 0.000000 
#    z 0.000000 0.000000 1.813170 
# 
# From -- ./inp_files/41454.got.cif
#   From: 2010.05.17/outbox.cif.g08.bks.cpg/sg66_21_cif.got.tgz:41454.got - 2010.06.03 17:51:23.
