data_PCOD9495997
_publ_section_title
;
Structure prediction by ZEFSAII (Michael W. Deem and Ramdas Pophale) SiO2 
 PCOD9495997
Probable space group: C C C M
;
_chemical_formula_sum "Si O2"
_cell_formula_units_Z 56
_cell_length_a 9.647503
_cell_length_b 15.461588
_cell_length_c 16.297273
_cell_angle_alpha 90.000000
_cell_angle_beta 90.000000
_cell_angle_gamma 90.000000
_cell_volume 2430.994406
_symmetry_space_group_name_H-M "C C C M"
_symmetry_group_IT_number 66
_symmetry_cell_setting 'orthorhombic'
loop_
_space_group_symop_operation_xyz
x,y,z
-x,-y,z
x,-y,1/2-z
-x,y,1/2-z
-x,-y,-z
x,y,-z
-x,y,1/2+z
x,-y,1/2+z
1/2+x,1/2+y,z
1/2-x,1/2-y,z
1/2+x,1/2-y,1/2-z
1/2-x,1/2+y,1/2-z
1/2-x,1/2-y,-z
1/2+x,1/2+y,-z
1/2-x,1/2+y,1/2+z
1/2+x,1/2-y,1/2+z
loop_
_atom_site_type_symbol
_atom_site_label
_atom_site_fract_x
_atom_site_fract_y
_atom_site_fract_z
Si Si1 0.856327 0.951452 0.905512
Si Si2 0.448405 0.747179 0.589189
Si Si3 0.847900 0.613010 0.781793
Si Si4 0.750000 0.250000 0.156161
O O1 0.894504 0.850063 0.905710
O O2 0.737171 0.956850 0.835928
O O3 0.816416 0.976128 0.000000
O O4 0.000000 0.000000 0.885310
O O5 0.413995 0.783482 0.500000
O O6 0.385316 0.808393 0.656940
O O7 0.612238 0.745071 0.603156
O O8 0.761247 0.662842 0.711397
O O9 0.000000 0.587025 0.750000
#
# Coordination Sequence:
#
# PCOD9495997 Si02
#       4
#    16  16  16   8
#     4  10  20  35  58  90 125 165 209 256 314 386
#     4  10  19  33  56  84 119 162 207 256 309 364
#     4  10  19  33  57  86 122 160 211 264 316 363
#     4  10  19  32  53  84 118 150 208 260 311 358
#
# _framework density 23.03584
#
# number of rings (size 3 to 8) (size 9 to 14) (size 15 to 20)
#    0.000    2.000    2.857    1.286    0.000    2.286 
#    0.000    2.857    0.000   12.000    0.000   26.000 
#    0.000   22.857    0.000    0.000    0.000    0.571 
#
# Total GULP energy -156601.991771 kJ/mol
# GULP energy per Si atom -5592.928278 kJ/mol
# Density = 2.298341 g / cm^3
# Si number density = 23.035840 Si / 1000 Ang^3
#
#
#
# Elastic Constant Matrix: (Units=GPa)
#
#
# Indices 1 2 3 4 5 6 
#
# 1 155.8705 16.0305 48.0091 0.0000 0.0000 0.0000
# 2 16.0305 74.1149 24.8665 0.0000 0.0000 0.0000
# 3 48.0091 24.8665 96.1683 0.0000 0.0000 0.0000
# 4 0.0000 0.0000 0.0000 4.4597 0.0000 0.0000
# 5 0.0000 0.0000 0.0000 0.0000 -7.3376 0.0000
# 6 0.0000 0.0000 0.0000 0.0000 0.0000 32.4314
#
#
#
# Elastic Compliance Matrix: (Units=1/GPa)
#
#
# Indices 1 2 3 4 5 6 
#
# 1 0.007592 -0.000406 -0.003685 0.000000 0.000000 0.000000
# 2 -0.000406 0.014796 -0.003623 0.000000 0.000000 0.000000
# 3 -0.003685 -0.003623 0.013175 0.000000 0.000000 0.000000
# 4 0.000000 0.000000 0.000000 0.224233 0.000000 0.000000
# 5 0.000000 0.000000 0.000000 0.000000 -0.136284 0.000000
# 6 0.000000 0.000000 0.000000 0.000000 0.000000 0.030834
#
#
# Mechanical properties :
#
#
# Convention : Reuss Voigt Hill
#
# Bulk Modulus (GPa) = 49.66532 55.99623 52.83078
# Shear Modulus (GPa) = 28.33070 21.72719 25.02895
#
# Velocity S-wave (km/s) = 3.51073 3.07447 3.29982
# Velocity P-wave (km/s) = 6.16770 6.07982 6.12392
#
# Compressibility (1/GPa) = 0.02013477
#
# Stress axis : x y z
#
# Youngs Moduli (GPa) = 131.71013 67.58589 75.90052
#
# Poissons Ratio (x) = 0.02742 0.27972
# Poissons Ratio (y) = 0.05343 0.27501
# Poissons Ratio (z) = 0.48540 0.24488
#
# Static dielectric constant tensor:
#      x y z
#    x 1.871070 0.000000 0.000000 
#    y 0.000000 1.866200 0.000000 
#    z 0.000000 0.000000 1.892360 
# 
# From -- ./inp_files/27531.got.cif
#   From: 2010.05.17/outbox.cif.g08.bks.cpg/sg66_14_cif.got.tgz:27531.got - 2010.06.03 17:51:23.
