data_PCOD9495474
_publ_section_title
;
Structure prediction by ZEFSAII (Michael W. Deem and Ramdas Pophale) SiO2 
 PCOD9495474
Probable space group: C C C M
;
_chemical_formula_sum "Si O2"
_cell_formula_units_Z 48
_cell_length_a 5.417640
_cell_length_b 13.931392
_cell_length_c 24.257162
_cell_angle_alpha 90.000000
_cell_angle_beta 90.000000
_cell_angle_gamma 90.000000
_cell_volume 1830.815768
_symmetry_space_group_name_H-M "C C C M"
_symmetry_group_IT_number 66
_symmetry_cell_setting 'orthorhombic'
loop_
_space_group_symop_operation_xyz
x,y,z
-x,-y,z
x,-y,1/2-z
-x,y,1/2-z
-x,-y,-z
x,y,-z
-x,y,1/2+z
x,-y,1/2+z
1/2+x,1/2+y,z
1/2-x,1/2-y,z
1/2+x,1/2-y,1/2-z
1/2-x,1/2+y,1/2-z
1/2-x,1/2-y,-z
1/2+x,1/2+y,-z
1/2-x,1/2+y,1/2+z
1/2+x,1/2-y,1/2+z
loop_
_atom_site_type_symbol
_atom_site_label
_atom_site_fract_x
_atom_site_fract_y
_atom_site_fract_z
Si Si1 0.755256 0.108859 0.726438
Si Si2 0.934124 0.862517 0.103056
Si Si3 0.060444 0.355420 0.436710
O O1 0.500000 0.147168 0.750000
O O2 0.804542 0.118825 0.661707
O O3 0.000000 0.155656 0.750000
O O4 0.756305 0.000000 0.750000
O O5 0.997817 0.750999 0.087899
O O6 0.715675 0.898557 0.063300
O O7 0.214428 0.901658 0.098066
O O8 0.145346 0.350002 0.500000
#
# Coordination Sequence:
#
# PCOD9495474 Si02
#       3
#    16  16  16
#     4  10  21  37  55  78 106 150 202 241 273 322
#     4  10  18  32  54  80 112 147 180 228 284 337
#     4  10  19  33  54  87 116 142 178 227 286 353
#
# _framework density 26.217818000000001
#
# number of rings (size 3 to 8) (size 9 to 14) (size 15 to 20)
#    0.000    2.000    0.000    7.000    0.000    0.000 
#    0.000   13.333    0.000    0.000    0.000  158.667 
#    0.000    0.000    0.000    0.000    0.000    0.000 
#
# Total GULP energy -133809.663332 kJ/mol
# GULP energy per Si atom -5575.402639 kJ/mol
# Density = 2.615815 g / cm^3
# Si number density = 26.217818 Si / 1000 Ang^3
#
#
#
# Elastic Constant Matrix: (Units=GPa)
#
#
# Indices 1 2 3 4 5 6 
#
# 1 334.1255 10.5218 62.8058 0.0000 0.0000 0.0000
# 2 10.5218 138.5111 9.5062 0.0000 0.0000 0.0000
# 3 62.8058 9.5062 203.7727 0.0000 0.0000 0.0000
# 4 0.0000 0.0000 0.0000 12.2058 0.0000 0.0000
# 5 0.0000 0.0000 0.0000 0.0000 58.6592 0.0000
# 6 0.0000 0.0000 0.0000 0.0000 0.0000 -101.2765
#
#
#
# Elastic Compliance Matrix: (Units=1/GPa)
#
#
# Indices 1 2 3 4 5 6 
#
# 1 0.003181 -0.000175 -0.000972 0.000000 0.000000 0.000000
# 2 -0.000175 0.007252 -0.000284 0.000000 0.000000 0.000000
# 3 -0.000972 -0.000284 0.005220 0.000000 0.000000 0.000000
# 4 0.000000 0.000000 0.000000 0.081928 0.000000 0.000000
# 5 0.000000 0.000000 0.000000 0.000000 0.017048 0.000000
# 6 0.000000 0.000000 0.000000 0.000000 0.000000 -0.009874
#
#
# Mechanical properties :
#
#
# Convention : Reuss Voigt Hill
#
# Bulk Modulus (GPa) = 78.18203 93.56411 85.87307
# Shear Modulus (GPa) = 44.68955 33.48940 39.08947
#
# Velocity S-wave (km/s) = 4.13310 3.57788 3.86547
# Velocity P-wave (km/s) = 7.25683 7.26863 7.26273
#
# Compressibility (1/GPa) = 0.01279066
#
# Stress axis : x y z
#
# Youngs Moduli (GPa) = 314.35040 137.88451 191.55689
#
# Poissons Ratio (x) = 0.02412 0.18625
# Poissons Ratio (y) = 0.05499 0.05448
# Poissons Ratio (z) = 0.30565 0.03922
#
# Static dielectric constant tensor:
#      x y z
#    x 2.288040 0.000000 0.000000 
#    y 0.000000 2.271720 0.000000 
#    z 0.000000 0.000000 2.293060 
# 
# From -- ./inp_files/53846.got.cif
#   From: 2010.05.17/outbox.cif.g08.bks.cpg/sg66_27_cif.got.tgz:53846.got - 2010.06.03 17:51:23.
