data_PCOD9495221
_publ_section_title
;
Structure prediction by ZEFSAII (Michael W. Deem and Ramdas Pophale) SiO2 
 PCOD9495221
Probable space group: C C C M
;
_chemical_formula_sum "Si O2"
_cell_formula_units_Z 68
_cell_length_a 7.856798
_cell_length_b 20.552643
_cell_length_c 20.563118
_cell_angle_alpha 90.000000
_cell_angle_beta 90.000000
_cell_angle_gamma 90.000000
_cell_volume 3320.490437
_symmetry_space_group_name_H-M "C C C M"
_symmetry_group_IT_number 66
_symmetry_cell_setting 'orthorhombic'
loop_
_space_group_symop_operation_xyz
x,y,z
-x,-y,z
x,-y,1/2-z
-x,y,1/2-z
-x,-y,-z
x,y,-z
-x,y,1/2+z
x,-y,1/2+z
1/2+x,1/2+y,z
1/2-x,1/2-y,z
1/2+x,1/2-y,1/2-z
1/2-x,1/2+y,1/2-z
1/2-x,1/2-y,-z
1/2+x,1/2+y,-z
1/2-x,1/2+y,1/2+z
1/2+x,1/2-y,1/2+z
loop_
_atom_site_type_symbol
_atom_site_label
_atom_site_fract_x
_atom_site_fract_y
_atom_site_fract_z
Si Si1 0.140205 0.634852 0.099852
Si Si2 0.109703 0.100568 0.000000
Si Si3 0.759484 0.465259 0.000000
Si Si4 0.702835 0.825035 0.263725
Si Si5 0.750000 0.250000 0.000000
Si Si6 0.251582 0.671968 0.378194
O O1 0.157724 0.566686 0.063216
O O2 0.229553 0.635698 0.170208
O O3 0.940413 0.649367 0.108050
O O4 0.214088 0.693566 0.056191
O O5 0.132671 0.143534 0.935405
O O6 0.929682 0.065447 0.000000
O O7 0.247275 0.042483 0.000000
O O8 0.500000 0.827057 0.250000
O O9 0.750000 0.750000 0.276237
O O10 0.793797 0.845849 0.196587
O O11 0.250000 0.750000 0.381731
#
# Coordination Sequence:
#
# PCOD9495221 Si02
#       6
#    16   8   8  16   4  16
#     4  10  20  34  55  86 110 148 186 218 278 329
#     4  11  23  42  54  78 111 142 194 234 276 332
#     4  10  25  38  58  77 106 152 186 234 274 328
#     4   9  18  33  52  82 117 143 179 223 276 329
#     4  10  18  26  54  78 110 140 174 218 254 316
#     4  10  22  35  58  85 114 146 178 232 283 324
#
# _framework density 20.478902999999999
#
# number of rings (size 3 to 8) (size 9 to 14) (size 15 to 20)
#    0.000    2.118    1.176    1.765    6.588    3.765 
#    0.000    1.176    0.000    7.059    0.000    0.000 
#    0.000    0.000    0.000    0.000    0.000    0.000 
#
# Total GULP energy -189381.474961 kJ/mol
# GULP energy per Si atom -5570.043381 kJ/mol
# Density = 2.043229 g / cm^3
# Si number density = 20.478903 Si / 1000 Ang^3
#
#
#
# Elastic Constant Matrix: (Units=GPa)
#
#
# Indices 1 2 3 4 5 6 
#
# 1 33.3203 1.2292 18.6202 0.0000 0.0000 0.0000
# 2 1.2292 40.8646 24.9953 0.0000 0.0000 0.0000
# 3 18.6202 24.9953 176.3246 0.0000 0.0000 0.0000
# 4 0.0000 0.0000 0.0000 -5.3741 0.0000 0.0000
# 5 0.0000 0.0000 0.0000 0.0000 11.9657 0.0000
# 6 0.0000 0.0000 0.0000 0.0000 0.0000 28.5780
#
#
#
# Elastic Compliance Matrix: (Units=1/GPa)
#
#
# Indices 1 2 3 4 5 6 
#
# 1 0.031948 0.001207 -0.003545 0.000000 0.000000 0.000000
# 2 0.001207 0.026840 -0.003932 0.000000 0.000000 0.000000
# 3 -0.003545 -0.003932 0.006603 0.000000 0.000000 0.000000
# 4 0.000000 0.000000 0.000000 -0.186079 0.000000 0.000000
# 5 0.000000 0.000000 0.000000 0.000000 0.083572 0.000000
# 6 0.000000 0.000000 0.000000 0.000000 0.000000 0.034992
#
#
# Mechanical properties :
#
#
# Convention : Reuss Voigt Hill
#
# Bulk Modulus (GPa) = 18.92092 37.79986 28.36039
# Shear Modulus (GPa) = 178.35611 20.74492 99.55051
#
# Velocity S-wave (km/s) = 9.34247 3.18620 6.97974
# Velocity P-wave (km/s) = 11.20870 5.65985 8.87887
#
# Compressibility (1/GPa) = 0.05285155
#
# Stress axis : x y z
#
# Youngs Moduli (GPa) = 31.30070 37.25785 151.44324
#
# Poissons Ratio (x) = -0.04498 0.53686
# Poissons Ratio (y) = -0.03779 0.59551
# Poissons Ratio (z) = 0.11096 0.14651
#
# Static dielectric constant tensor:
#      x y z
#    x 1.788740 0.000000 0.000000 
#    y 0.000000 1.689280 0.000000 
#    z 0.000000 0.000000 1.768210 
# 
# From -- ./inp_files/46767.got.cif
#   From: 2010.05.17/outbox.cif.g08.bks.cpg/sg66_24_cif.got.tgz:46767.got - 2010.06.03 17:51:23.
