data_PCOD9495183
_publ_section_title
;
Structure prediction by ZEFSAII (Michael W. Deem and Ramdas Pophale) SiO2 
 PCOD9495183
Probable space group: C C C M
;
_chemical_formula_sum "Si O2"
_cell_formula_units_Z 88
_cell_length_a 33.181262
_cell_length_b 5.261379
_cell_length_c 23.976687
_cell_angle_alpha 90.000000
_cell_angle_beta 90.000000
_cell_angle_gamma 90.000000
_cell_volume 4185.830717
_symmetry_space_group_name_H-M "C C C M"
_symmetry_group_IT_number 66
_symmetry_cell_setting 'orthorhombic'
loop_
_space_group_symop_operation_xyz
x,y,z
-x,-y,z
x,-y,1/2-z
-x,y,1/2-z
-x,-y,-z
x,y,-z
-x,y,1/2+z
x,-y,1/2+z
1/2+x,1/2+y,z
1/2-x,1/2-y,z
1/2+x,1/2-y,1/2-z
1/2-x,1/2+y,1/2-z
1/2-x,1/2-y,-z
1/2+x,1/2+y,-z
1/2-x,1/2+y,1/2+z
1/2+x,1/2-y,1/2+z
loop_
_atom_site_type_symbol
_atom_site_label
_atom_site_fract_x
_atom_site_fract_y
_atom_site_fract_z
Si Si1 0.250000 0.750000 0.116038
Si Si2 0.109463 0.360188 0.625880
Si Si3 0.621747 0.639957 0.803257
Si Si4 0.793616 0.873348 0.826776
Si Si5 0.026021 0.243266 0.434962
Si Si6 0.684751 0.910665 0.063556
O O1 0.283602 0.663731 0.161286
O O2 0.224807 0.574498 0.074629
O O3 0.105586 0.598103 0.669785
O O4 0.066939 0.299777 0.597486
O O5 0.143807 0.446452 0.581962
O O6 0.122094 0.093861 0.653511
O O7 0.601963 0.500000 0.750000
O O8 0.668818 0.699251 0.789333
O O9 0.750000 0.750000 0.813874
O O10 0.807792 0.796911 0.889082
O O11 0.035694 0.191091 0.500000
O O12 0.000000 0.500000 0.432178
O O13 0.000000 0.000000 0.414550
O O14 0.682143 0.824112 0.000000
#
# Coordination Sequence:
#
# PCOD9495183 Si02
#       6
#     8  16  16  16  16  16
#     4  10  17  34  50  74 116 154 204 250 297 364
#     4  11  22  41  63  91 125 159 205 256 304 370
#     4  11  23  42  62  87 117 162 213 264 317 361
#     4   9  20  36  51  78 113 156 209 264 308 361
#     4  10  21  39  66 101 135 166 197 238 302 377
#     4  10  20  32  52  80 117 162 199 241 300 368
#
# _framework density 21.023304
#
# number of rings (size 3 to 8) (size 9 to 14) (size 15 to 20)
#    0.000    1.818    1.818    2.455    0.000    4.000 
#    1.636    1.818    0.000    8.182    0.000    0.000 
#    0.000    0.000    0.000    0.000    0.000    0.000 
#
# Total GULP energy -244997.112412 kJ/mol
# GULP energy per Si atom -5568.116191 kJ/mol
# Density = 2.097545 g / cm^3
# Si number density = 21.023304 Si / 1000 Ang^3
#
#
#
# Elastic Constant Matrix: (Units=GPa)
#
#
# Indices 1 2 3 4 5 6 
#
# 1 123.7046 39.2597 31.5726 0.0000 0.0000 0.0000
# 2 39.2597 103.2401 24.2320 0.0000 0.0000 0.0000
# 3 31.5726 24.2320 53.8308 0.0000 0.0000 0.0000
# 4 0.0000 0.0000 0.0000 21.3886 0.0000 0.0000
# 5 0.0000 0.0000 0.0000 0.0000 11.2738 0.0000
# 6 0.0000 0.0000 0.0000 0.0000 0.0000 33.1836
#
#
#
# Elastic Compliance Matrix: (Units=1/GPa)
#
#
# Indices 1 2 3 4 5 6 
#
# 1 0.010163 -0.002757 -0.004720 0.000000 0.000000 0.000000
# 2 -0.002757 0.011578 -0.003595 0.000000 0.000000 0.000000
# 3 -0.004720 -0.003595 0.022963 0.000000 0.000000 0.000000
# 4 0.000000 0.000000 0.000000 0.046754 0.000000 0.000000
# 5 0.000000 0.000000 0.000000 0.000000 0.088701 0.000000
# 6 0.000000 0.000000 0.000000 0.000000 0.000000 0.030135
#
#
# Mechanical properties :
#
#
# Convention : Reuss Voigt Hill
#
# Bulk Modulus (GPa) = 44.32379 52.32266 48.32322
# Shear Modulus (GPa) = 20.83683 25.54994 23.19338
#
# Velocity S-wave (km/s) = 3.15164 3.48992 3.32508
# Velocity P-wave (km/s) = 5.86282 6.41727 6.14630
#
# Compressibility (1/GPa) = 0.02256125
#
# Stress axis : x y z
#
# Youngs Moduli (GPa) = 98.39210 86.36769 43.54770
#
# Poissons Ratio (x) = 0.23812 0.20554
# Poissons Ratio (y) = 0.27127 0.15655
# Poissons Ratio (z) = 0.46440 0.31049
#
# Static dielectric constant tensor:
#      x y z
#    x 1.784420 0.000000 0.000000 
#    y 0.000000 1.859370 0.000000 
#    z 0.000000 0.000000 1.804410 
# 
# From -- ./inp_files/60415.got.cif
#   From: 2010.05.17/outbox.cif.g08.bks.cpg/sg66_31_cif.got.tgz:60415.got - 2010.06.03 17:51:23.
