data_PCOD9495723
_publ_section_title
;
Structure prediction by ZEFSAII (Michael W. Deem and Ramdas Pophale) SiO2 
 PCOD9495723
Probable space group: C C C M
;
_chemical_formula_sum "Si O2"
_cell_formula_units_Z 64
_cell_length_a 26.699951
_cell_length_b 11.229621
_cell_length_c 9.645780
_cell_angle_alpha 90.000000
_cell_angle_beta 90.000000
_cell_angle_gamma 90.000000
_cell_volume 2892.097405
_symmetry_space_group_name_H-M "C C C M"
_symmetry_group_IT_number 66
_symmetry_cell_setting 'orthorhombic'
loop_
_space_group_symop_operation_xyz
x,y,z
-x,-y,z
x,-y,1/2-z
-x,y,1/2-z
-x,-y,-z
x,y,-z
-x,y,1/2+z
x,-y,1/2+z
1/2+x,1/2+y,z
1/2-x,1/2-y,z
1/2+x,1/2-y,1/2-z
1/2-x,1/2+y,1/2-z
1/2-x,1/2-y,-z
1/2+x,1/2+y,-z
1/2-x,1/2+y,1/2+z
1/2+x,1/2-y,1/2+z
loop_
_atom_site_type_symbol
_atom_site_label
_atom_site_fract_x
_atom_site_fract_y
_atom_site_fract_z
Si Si1 0.182933 0.262383 0.500000
Si Si2 0.083828 0.834793 0.000000
Si Si3 0.715006 0.142987 0.294266
Si Si4 0.785084 0.981964 0.000000
Si Si5 0.565685 0.500000 0.750000
Si Si6 0.468009 0.336719 0.000000
Si Si7 0.142332 0.253695 0.000000
O O1 0.123203 0.269842 0.500000
O O2 0.203713 0.325865 0.364428
O O3 0.195109 0.118714 0.500000
O O4 0.025622 0.795792 0.000000
O O5 0.093248 0.912536 0.859366
O O6 0.750000 0.250000 0.341402
O O7 0.747493 0.040854 0.370803
O O8 0.662659 0.169443 0.371080
O O9 0.830402 0.880370 0.000000
O O10 0.537853 0.584488 0.860654
O O11 0.417414 0.259498 0.000000
#
# Coordination Sequence:
#
# PCOD9495723 Si02
#       7
#     8   8  16   8   8   8   8
#     4  12  22  34  57  79 106 152 188 228 291 334
#     4  11  21  30  44  73 100 135 192 216 248 337
#     4   9  20  37  51  76 107 138 194 243 269 334
#     4   9  20  37  54  74 106 149 189 233 288 336
#     4  10  19  28  38  58  96 132 174 228 242 276
#     4  11  18  29  44  65 100 141 179 220 254 308
#     4   9  18  32  50  69 104 149 183 223 272 313
#
# _framework density 22.129268
#
# number of rings (size 3 to 8) (size 9 to 14) (size 15 to 20)
#    0.000    2.000    0.000    7.875    0.000    6.000 
#    0.000    2.500    0.000    0.000    0.000    0.000 
#    0.000    0.000    0.000  153.000    0.000   22.500 
#
# Total GULP energy -178153.341299 kJ/mol
# GULP energy per Si atom -5567.291916 kJ/mol
# Density = 2.207890 g / cm^3
# Si number density = 22.129268 Si / 1000 Ang^3
#
#
#
# Elastic Constant Matrix: (Units=GPa)
#
#
# Indices 1 2 3 4 5 6 
#
# 1 149.6487 27.2069 27.5811 0.0000 0.0000 0.0000
# 2 27.2069 71.0911 23.0708 0.0000 0.0000 0.0000
# 3 27.5811 23.0708 209.1934 0.0000 0.0000 0.0000
# 4 0.0000 0.0000 0.0000 -31.5698 0.0000 0.0000
# 5 0.0000 0.0000 0.0000 0.0000 21.5349 0.0000
# 6 0.0000 0.0000 0.0000 0.0000 0.0000 6.1936
#
#
#
# Elastic Compliance Matrix: (Units=1/GPa)
#
#
# Indices 1 2 3 4 5 6 
#
# 1 0.007273 -0.002564 -0.000676 0.000000 0.000000 0.000000
# 2 -0.002564 0.015492 -0.001371 0.000000 0.000000 0.000000
# 3 -0.000676 -0.001371 0.005021 0.000000 0.000000 0.000000
# 4 0.000000 0.000000 0.000000 -0.031676 0.000000 0.000000
# 5 0.000000 0.000000 0.000000 0.000000 0.046436 0.000000
# 6 0.000000 0.000000 0.000000 0.000000 0.000000 0.161458
#
#
# Mechanical properties :
#
#
# Convention : Reuss Voigt Hill
#
# Bulk Modulus (GPa) = 53.86554 65.07231 59.46893
# Shear Modulus (GPa) = 22.78797 22.70335 22.74566
#
# Velocity S-wave (km/s) = 3.21248 3.20651 3.20949
# Velocity P-wave (km/s) = 6.17691 6.57102 6.37701
#
# Compressibility (1/GPa) = 0.01856474
#
# Stress axis : x y z
#
# Youngs Moduli (GPa) = 137.49328 64.54743 199.18089
#
# Poissons Ratio (x) = 0.16550 0.13468
# Poissons Ratio (y) = 0.35253 0.27298
# Poissons Ratio (z) = 0.09297 0.08846
#
# Static dielectric constant tensor:
#      x y z
#    x 1.976950 0.000000 0.000000 
#    y 0.000000 1.285100 0.000000 
#    z 0.000000 0.000000 1.843350 
# 
# From -- ./inp_files/11239.got.cif
#   From: 2010.05.17/outbox.cif.g08.bks.cpg/sg66_6_cif.got.tgz:11239.got - 2010.06.03 17:51:23.
