data_PCOD9495803
_publ_section_title
;
Structure prediction by ZEFSAII (Michael W. Deem and Ramdas Pophale) SiO2 
 PCOD9495803
Probable space group: C C C M
;
_chemical_formula_sum "Si O2"
_cell_formula_units_Z 100
_cell_length_a 20.341626
_cell_length_b 18.114277
_cell_length_c 14.639819
_cell_angle_alpha 90.000000
_cell_angle_beta 90.000000
_cell_angle_gamma 90.000000
_cell_volume 5394.390441
_symmetry_space_group_name_H-M "C C C M"
_symmetry_group_IT_number 66
_symmetry_cell_setting 'orthorhombic'
loop_
_space_group_symop_operation_xyz
x,y,z
-x,-y,z
x,-y,1/2-z
-x,y,1/2-z
-x,-y,-z
x,y,-z
-x,y,1/2+z
x,-y,1/2+z
1/2+x,1/2+y,z
1/2-x,1/2-y,z
1/2+x,1/2-y,1/2-z
1/2-x,1/2+y,1/2-z
1/2-x,1/2-y,-z
1/2+x,1/2+y,-z
1/2-x,1/2+y,1/2+z
1/2+x,1/2-y,1/2+z
loop_
_atom_site_type_symbol
_atom_site_label
_atom_site_fract_x
_atom_site_fract_y
_atom_site_fract_z
Si Si1 0.282987 0.420049 0.273220
Si Si2 0.915938 0.599300 0.896914
Si Si3 0.652947 0.951756 0.608801
Si Si4 0.294089 0.188225 0.846918
Si Si5 0.848946 0.226000 0.168824
Si Si6 0.750000 0.250000 0.000000
Si Si7 0.045742 0.323297 0.608633
O O1 0.311542 0.500000 0.250000
O O2 0.221014 0.434943 0.340539
O O3 0.251071 0.380000 0.185140
O O4 0.332746 0.359992 0.314494
O O5 0.884629 0.525044 0.855964
O O6 0.856515 0.656870 0.898188
O O7 0.978771 0.639857 0.855098
O O8 0.936330 0.577614 0.000000
O O9 0.666201 0.960679 0.500000
O O10 0.602804 0.884390 0.620154
O O11 0.250000 0.250000 0.894352
O O12 0.320884 0.228460 0.755140
O O13 0.924102 0.250400 0.154169
O O14 0.807116 0.249064 0.080133
O O15 0.036622 0.309540 0.500000
#
# Coordination Sequence:
#
# PCOD9495803 Si02
#       7
#    16  16  16  16  16   4  16
#     4  11  20  33  50  75 110 141 179 231 276 326
#     4  10  21  35  50  73 107 150 184 216 262 328
#     4  10  19  30  49  74 109 147 178 211 263 330
#     4  10  20  35  50  74 102 136 182 223 271 318
#     4  11  21  31  53  80 106 145 182 233 282 321
#     4  12  16  32  56  84 108 136 186 232 288 318
#     4  10  19  32  51  78 112 143 183 224 267 323
#
# _framework density 18.537775
#
# number of rings (size 3 to 8) (size 9 to 14) (size 15 to 20)
#    0.000    1.600    6.400    0.480    3.360    2.880 
#    0.000    0.000    0.000    0.000    0.000    8.960 
#    0.000   10.240    0.000    0.000    0.000    0.000 
#
# Total GULP energy -278511.744022 kJ/mol
# GULP energy per Si atom -5570.234880 kJ/mol
# Density = 1.849558 g / cm^3
# Si number density = 18.537775 Si / 1000 Ang^3
#
#
#
# Elastic Constant Matrix: (Units=GPa)
#
#
# Indices 1 2 3 4 5 6 
#
# 1 67.9337 56.5618 11.4023 0.0000 0.0000 0.0000
# 2 56.5618 132.0061 19.2934 0.0000 0.0000 0.0000
# 3 11.4023 19.2934 54.4311 0.0000 0.0000 0.0000
# 4 0.0000 0.0000 0.0000 12.1837 0.0000 0.0000
# 5 0.0000 0.0000 0.0000 0.0000 10.9143 0.0000
# 6 0.0000 0.0000 0.0000 0.0000 0.0000 34.9274
#
#
#
# Elastic Compliance Matrix: (Units=1/GPa)
#
#
# Indices 1 2 3 4 5 6 
#
# 1 0.022984 -0.009644 -0.001396 0.000000 0.000000 0.000000
# 2 -0.009644 0.012036 -0.002246 0.000000 0.000000 0.000000
# 3 -0.001396 -0.002246 0.019460 0.000000 0.000000 0.000000
# 4 0.000000 0.000000 0.000000 0.082077 0.000000 0.000000
# 5 0.000000 0.000000 0.000000 0.000000 0.091623 0.000000
# 6 0.000000 0.000000 0.000000 0.000000 0.000000 0.028631
#
#
# Mechanical properties :
#
#
# Convention : Reuss Voigt Hill
#
# Bulk Modulus (GPa) = 35.83227 47.65399 41.74313
# Shear Modulus (GPa) = 17.08309 22.74598 19.91453
#
# Velocity S-wave (km/s) = 3.03896 3.50667 3.28116
# Velocity P-wave (km/s) = 5.62894 6.49291 6.07630
#
# Compressibility (1/GPa) = 0.02790781
#
# Stress axis : x y z
#
# Youngs Moduli (GPa) = 43.50776 83.08401 51.38626
#
# Poissons Ratio (x) = 0.80128 0.07175
# Poissons Ratio (y) = 0.41960 0.11541
# Poissons Ratio (z) = 0.06075 0.18660
#
# Static dielectric constant tensor:
#      x y z
#    x 1.648120 0.000000 0.000000 
#    y 0.000000 1.684850 0.000000 
#    z 0.000000 0.000000 1.678960 
# 
# From -- ./inp_files/51124.got.cif
#   From: 2010.05.17/outbox.cif.g08.bks.cpg/sg66_26_cif.got.tgz:51124.got - 2010.06.03 17:51:23.
