data_PCOD9495300
_publ_section_title
;
Structure prediction by ZEFSAII (Michael W. Deem and Ramdas Pophale) SiO2 
 PCOD9495300
Probable space group: C C C M
;
_chemical_formula_sum "Si O2"
_cell_formula_units_Z 80
_cell_length_a 13.892197
_cell_length_b 17.808042
_cell_length_c 18.638537
_cell_angle_alpha 90.000000
_cell_angle_beta 90.000000
_cell_angle_gamma 90.000000
_cell_volume 4611.040372
_symmetry_space_group_name_H-M "C C C M"
_symmetry_group_IT_number 66
_symmetry_cell_setting 'orthorhombic'
loop_
_space_group_symop_operation_xyz
x,y,z
-x,-y,z
x,-y,1/2-z
-x,y,1/2-z
-x,-y,-z
x,y,-z
-x,y,1/2+z
x,-y,1/2+z
1/2+x,1/2+y,z
1/2-x,1/2-y,z
1/2+x,1/2-y,1/2-z
1/2-x,1/2+y,1/2-z
1/2-x,1/2-y,-z
1/2+x,1/2+y,-z
1/2-x,1/2+y,1/2+z
1/2+x,1/2-y,1/2+z
loop_
_atom_site_type_symbol
_atom_site_label
_atom_site_fract_x
_atom_site_fract_y
_atom_site_fract_z
Si Si1 0.786110 0.171893 0.290828
Si Si2 0.663174 0.142728 0.918981
Si Si3 0.531206 0.583869 0.833875
Si Si4 0.103086 0.586132 0.772312
Si Si5 0.367066 0.689889 0.131287
O O1 0.750000 0.250000 0.326064
O O2 0.859577 0.116128 0.332383
O O3 0.691458 0.127444 0.265988
O O4 0.839306 0.195838 0.215971
O O5 0.617214 0.092664 0.857369
O O6 0.629039 0.227884 0.902566
O O7 0.778072 0.146665 0.905350
O O8 0.641819 0.121233 0.000000
O O9 0.500000 0.500000 0.858846
O O10 0.500000 0.584275 0.750000
O O11 0.464459 0.643757 0.873930
O O12 0.105088 0.500000 0.750000
O O13 0.000000 0.619558 0.750000
#
# Coordination Sequence:
#
# PCOD9495300 Si02
#       5
#    16  16  16  16  16
#     4  10  18  29  50  80 113 145 182 233 287 338
#     4  10  19  33  57  81 107 145 186 232 277 329
#     4   9  19  28  47  80 115 151 181 230 289 345
#     4  10  22  36  54  81 112 143 183 237 284 328
#     4   9  16  30  49  78 112 141 184 226 276 326
#
# _framework density 17.349664000000001
#
# number of rings (size 3 to 8) (size 9 to 14) (size 15 to 20)
#    0.000    2.400    4.000    1.200   11.200    0.000 
#    0.000    2.000    0.000    2.400    0.000    1.400 
#    0.000    0.000    0.000    0.000    0.000    0.000 
#
# Total GULP energy -222770.272926 kJ/mol
# GULP energy per Si atom -5569.256823 kJ/mol
# Density = 1.731018 g / cm^3
# Si number density = 17.349664 Si / 1000 Ang^3
#
#
#
# Elastic Constant Matrix: (Units=GPa)
#
#
# Indices 1 2 3 4 5 6 
#
# 1 120.7805 60.2270 34.4562 0.0000 0.0000 0.0000
# 2 60.2270 63.2530 29.8334 0.0000 0.0000 0.0000
# 3 34.4562 29.8334 76.6226 0.0000 0.0000 0.0000
# 4 0.0000 0.0000 0.0000 2.2510 0.0000 0.0000
# 5 0.0000 0.0000 0.0000 0.0000 6.7641 0.0000
# 6 0.0000 0.0000 0.0000 0.0000 0.0000 22.3264
#
#
#
# Elastic Compliance Matrix: (Units=1/GPa)
#
#
# Indices 1 2 3 4 5 6 
#
# 1 0.015911 -0.014424 -0.001539 0.000000 0.000000 0.000000
# 2 -0.014424 0.032442 -0.006145 0.000000 0.000000 0.000000
# 3 -0.001539 -0.006145 0.016136 0.000000 0.000000 0.000000
# 4 0.000000 0.000000 0.000000 0.444238 0.000000 0.000000
# 5 0.000000 0.000000 0.000000 0.000000 0.147839 0.000000
# 6 0.000000 0.000000 0.000000 0.000000 0.000000 0.044790
#
#
# Mechanical properties :
#
#
# Convention : Reuss Voigt Hill
#
# Bulk Modulus (GPa) = 49.32804 56.63214 52.98009
# Shear Modulus (GPa) = 6.64603 15.34428 10.99515
#
# Velocity S-wave (km/s) = 1.95932 2.97714 2.52015
# Velocity P-wave (km/s) = 5.79759 6.67310 6.25069
#
# Compressibility (1/GPa) = 0.02027244
#
# Stress axis : x y z
#
# Youngs Moduli (GPa) = 62.84961 30.82442 61.97464
#
# Poissons Ratio (x) = 0.44461 0.09537
# Poissons Ratio (y) = 0.90654 0.38084
# Poissons Ratio (z) = 0.09672 0.18942
#
# Static dielectric constant tensor:
#      x y z
#    x 1.620560 0.000000 0.000000 
#    y 0.000000 1.614870 0.000000 
#    z 0.000000 0.000000 1.576770 
# 
# From -- ./inp_files/40199.got.cif
#   From: 2010.05.17/outbox.cif.g08.bks.cpg/sg66_21_cif.got.tgz:40199.got - 2010.06.03 17:51:23.
