data_PCOD9495810
_publ_section_title
;
Structure prediction by ZEFSAII (Michael W. Deem and Ramdas Pophale) SiO2 
 PCOD9495810
Probable space group: C C C M
;
_chemical_formula_sum "Si O2"
_cell_formula_units_Z 112
_cell_length_a 27.890060
_cell_length_b 11.576238
_cell_length_c 14.096876
_cell_angle_alpha 90.000000
_cell_angle_beta 90.000000
_cell_angle_gamma 90.000000
_cell_volume 4551.345190
_symmetry_space_group_name_H-M "C C C M"
_symmetry_group_IT_number 66
_symmetry_cell_setting 'orthorhombic'
loop_
_space_group_symop_operation_xyz
x,y,z
-x,-y,z
x,-y,1/2-z
-x,y,1/2-z
-x,-y,-z
x,y,-z
-x,y,1/2+z
x,-y,1/2+z
1/2+x,1/2+y,z
1/2-x,1/2-y,z
1/2+x,1/2-y,1/2-z
1/2-x,1/2+y,1/2-z
1/2-x,1/2-y,-z
1/2+x,1/2+y,-z
1/2-x,1/2+y,1/2+z
1/2+x,1/2-y,1/2+z
loop_
_atom_site_type_symbol
_atom_site_label
_atom_site_fract_x
_atom_site_fract_y
_atom_site_fract_z
Si Si1 0.168973 0.917615 0.383858
Si Si2 0.294926 0.826996 0.115643
Si Si3 0.627114 0.657740 0.385638
Si Si4 0.376295 0.804254 0.614857
Si Si5 0.515001 0.372017 0.141043
Si Si6 0.775936 0.587601 0.884326
Si Si7 0.479467 0.122138 0.144416
O O1 0.169770 0.917507 0.500000
O O2 0.126361 0.830488 0.356430
O O3 0.222289 0.879353 0.353936
O O4 0.157286 0.046790 0.353052
O O5 0.250000 0.750000 0.145186
O O6 0.345192 0.772072 0.146771
O O7 0.284546 0.956052 0.144276
O O8 0.295115 0.827503 0.000000
O O9 0.629557 0.657902 0.500000
O O10 0.572007 0.642952 0.362373
O O11 0.378628 0.810482 0.500000
O O12 0.324193 0.848901 0.644776
O O13 0.421890 0.874950 0.648952
O O14 0.500000 0.500000 0.102391
O O15 0.500000 0.375211 0.250000
O O16 0.493605 0.249331 0.102482
O O17 0.775047 0.596410 0.000000
O O18 0.500000 0.125054 0.250000
O O19 0.500000 0.000000 0.103837
#
# Coordination Sequence:
#
# PCOD9495810 Si02
#       7
#    16  16  16  16  16  16  16
#     4   9  16  29  48  80 121 150 171 211 275 342
#     4   9  15  26  44  73 114 150 174 208 260 327
#     4  10  19  30  53  84 114 146 182 227 276 326
#     4  10  20  32  53  83 112 143 184 231 273 321
#     4  10  22  40  59  79 103 144 196 241 285 331
#     4   9  16  27  46  76 117 151 173 206 266 335
#     4  10  23  42  58  75 104 149 195 234 283 336
#
# _framework density 24.60811
#
# number of rings (size 3 to 8) (size 9 to 14) (size 15 to 20)
#    0.000    2.429    1.429    1.286    2.000    2.857 
#    0.000    0.000    0.000    0.000    0.000   36.000 
#    0.000    0.000    0.000    0.000    0.000    1.000 
#
# Total GULP energy -313032.362594 kJ/mol
# GULP energy per Si atom -5589.863618 kJ/mol
# Density = 2.455210 g / cm^3
# Si number density = 24.608110 Si / 1000 Ang^3
#
#
#
# Elastic Constant Matrix: (Units=GPa)
#
#
# Indices 1 2 3 4 5 6 
#
# 1 182.8674 73.3127 9.0620 0.0000 0.0000 0.0000
# 2 73.3127 166.0723 15.7051 0.0000 0.0000 0.0000
# 3 9.0620 15.7051 93.6739 0.0000 0.0000 0.0000
# 4 0.0000 0.0000 0.0000 0.6765 0.0000 0.0000
# 5 0.0000 0.0000 0.0000 0.0000 46.2113 0.0000
# 6 0.0000 0.0000 0.0000 0.0000 0.0000 56.5810
#
#
#
# Elastic Compliance Matrix: (Units=1/GPa)
#
#
# Indices 1 2 3 4 5 6 
#
# 1 0.006647 -0.002920 -0.000153 0.000000 0.000000 0.000000
# 2 -0.002920 0.007401 -0.000958 0.000000 0.000000 0.000000
# 3 -0.000153 -0.000958 0.010851 0.000000 0.000000 0.000000
# 4 0.000000 0.000000 0.000000 1.478188 0.000000 0.000000
# 5 0.000000 0.000000 0.000000 0.000000 0.021640 0.000000
# 6 0.000000 0.000000 0.000000 0.000000 0.000000 0.017674
#
#
# Mechanical properties :
#
#
# Convention : Reuss Voigt Hill
#
# Bulk Modulus (GPa) = 59.39861 70.97480 65.18671
# Shear Modulus (GPa) = 3.21321 43.66268 23.43795
#
# Velocity S-wave (km/s) = 1.14394 4.21684 3.08952
# Velocity P-wave (km/s) = 5.09264 7.25352 6.26692
#
# Compressibility (1/GPa) = 0.01683541
#
# Stress axis : x y z
#
# Youngs Moduli (GPa) = 150.45431 135.11751 92.15854
#
# Poissons Ratio (x) = 0.39449 0.01415
# Poissons Ratio (y) = 0.43927 0.08832
# Poissons Ratio (z) = 0.02309 0.12949
#
# Static dielectric constant tensor:
#      x y z
#    x 1.879450 0.000000 0.000000 
#    y 0.000000 1.975590 0.000000 
#    z 0.000000 0.000000 1.989610 
# 
# From -- ./inp_files/52620.got.cif
#   From: 2010.05.17/outbox.cif.g08.bks.cpg/sg66_27_cif.got.tgz:52620.got - 2010.06.03 17:51:23.
