data_PCOD9495000
_publ_section_title
;
Structure prediction by ZEFSAII (Michael W. Deem and Ramdas Pophale) SiO2 
 PCOD9495000
Probable space group: C C C M
;
_chemical_formula_sum "Si O2"
_cell_formula_units_Z 80
_cell_length_a 11.860282
_cell_length_b 22.416298
_cell_length_c 13.540685
_cell_angle_alpha 90.000000
_cell_angle_beta 90.000000
_cell_angle_gamma 90.000000
_cell_volume 3599.975473
_symmetry_space_group_name_H-M "C C C M"
_symmetry_group_IT_number 66
_symmetry_cell_setting 'orthorhombic'
loop_
_space_group_symop_operation_xyz
x,y,z
-x,-y,z
x,-y,1/2-z
-x,y,1/2-z
-x,-y,-z
x,y,-z
-x,y,1/2+z
x,-y,1/2+z
1/2+x,1/2+y,z
1/2-x,1/2-y,z
1/2+x,1/2-y,1/2-z
1/2-x,1/2+y,1/2-z
1/2-x,1/2-y,-z
1/2+x,1/2+y,-z
1/2-x,1/2+y,1/2+z
1/2+x,1/2-y,1/2+z
loop_
_atom_site_type_symbol
_atom_site_label
_atom_site_fract_x
_atom_site_fract_y
_atom_site_fract_z
Si Si1 0.842214 0.470221 0.615180
Si Si2 0.593741 0.644572 0.378716
Si Si3 0.915093 0.050395 0.618131
Si Si4 0.120648 0.274247 0.386848
Si Si5 0.840781 0.599783 0.696959
O O1 0.860486 0.456295 0.500000
O O2 0.710413 0.465455 0.645126
O O3 0.871711 0.539783 0.634366
O O4 0.882259 0.421187 0.694187
O O5 0.614669 0.641134 0.500000
O O6 0.478586 0.610309 0.355780
O O7 0.565982 0.712880 0.352884
O O8 0.705718 0.614994 0.327824
O O9 0.911104 0.049710 0.500000
O O10 0.000000 0.000000 0.649594
O O11 0.089085 0.286691 0.500000
O O12 0.250000 0.250000 0.386663
O O13 0.108569 0.335944 0.330163
#
# Coordination Sequence:
#
# PCOD9495000 Si02
#       5
#    16  16  16  16  16
#     4  10  19  27  35  53  82 110 136 171 212 259
#     4   9  15  25  40  56  72  97 137 183 221 249
#     4   9  15  24  37  52  79 109 135 170 212 258
#     4   8  14  24  40  56  70  91 134 188 221 243
#     4  10  17  25  38  54  74 106 140 175 210 250
#
# _framework density 22.222373999999999
#
# number of rings (size 3 to 8) (size 9 to 14) (size 15 to 20)
#    0.000    2.800    2.000    3.000    0.000    0.800 
#    0.000    0.000    0.000    5.400    0.000    0.000 
#    0.000    0.000    0.000    0.000    0.000  144.000 
#
# Total GULP energy -222793.408732 kJ/mol
# GULP energy per Si atom -5569.835218 kJ/mol
# Density = 2.217180 g / cm^3
# Si number density = 22.222374 Si / 1000 Ang^3
#
#
#
# Elastic Constant Matrix: (Units=GPa)
#
#
# Indices 1 2 3 4 5 6 
#
# 1 49.7986 22.5814 10.7681 0.0000 0.0000 0.0000
# 2 22.5814 224.4432 68.9155 0.0000 0.0000 0.0000
# 3 10.7681 68.9155 156.9791 0.0000 0.0000 0.0000
# 4 0.0000 0.0000 0.0000 31.6466 0.0000 0.0000
# 5 0.0000 0.0000 0.0000 0.0000 17.2336 0.0000
# 6 0.0000 0.0000 0.0000 0.0000 0.0000 22.6009
#
#
#
# Elastic Compliance Matrix: (Units=1/GPa)
#
#
# Indices 1 2 3 4 5 6 
#
# 1 0.021089 -0.001939 -0.000595 0.000000 0.000000 0.000000
# 2 -0.001939 0.005328 -0.002206 0.000000 0.000000 0.000000
# 3 -0.000595 -0.002206 0.007380 0.000000 0.000000 0.000000
# 4 0.000000 0.000000 0.000000 0.031599 0.000000 0.000000
# 5 0.000000 0.000000 0.000000 0.000000 0.058026 0.000000
# 6 0.000000 0.000000 0.000000 0.000000 0.000000 0.044246
#
#
# Mechanical properties :
#
#
# Convention : Reuss Voigt Hill
#
# Bulk Modulus (GPa) = 41.12577 70.63897 55.88237
# Shear Modulus (GPa) = 26.99007 36.22663 31.60835
#
# Velocity S-wave (km/s) = 3.48881 4.04194 3.77552
# Velocity P-wave (km/s) = 5.89710 7.32389 6.64887
#
# Compressibility (1/GPa) = 0.02431566
#
# Stress axis : x y z
#
# Youngs Moduli (GPa) = 47.41843 187.69106 135.50919
#
# Poissons Ratio (x) = 0.36392 0.08068
# Poissons Ratio (y) = 0.09194 0.29893
# Poissons Ratio (z) = 0.02823 0.41405
#
# Static dielectric constant tensor:
#      x y z
#    x 1.951730 0.000000 0.000000 
#    y 0.000000 2.726340 0.000000 
#    z 0.000000 0.000000 1.879670 
# 
# From -- ./inp_files/28083.got.cif
#   From: 2010.05.17/outbox.cif.g08.bks.cpg/sg66_15_cif.got.tgz:28083.got - 2010.06.03 17:51:23.
