data_PCOD9495840
_publ_section_title
;
Structure prediction by ZEFSAII (Michael W. Deem and Ramdas Pophale) SiO2 
 PCOD9495840
Probable space group: C C C M
;
_chemical_formula_sum "Si O2"
_cell_formula_units_Z 112
_cell_length_a 13.137865
_cell_length_b 11.225356
_cell_length_c 31.723583
_cell_angle_alpha 90.000000
_cell_angle_beta 90.000000
_cell_angle_gamma 90.000000
_cell_volume 4678.505566
_symmetry_space_group_name_H-M "C C C M"
_symmetry_group_IT_number 66
_symmetry_cell_setting 'orthorhombic'
loop_
_space_group_symop_operation_xyz
x,y,z
-x,-y,z
x,-y,1/2-z
-x,y,1/2-z
-x,-y,-z
x,y,-z
-x,y,1/2+z
x,-y,1/2+z
1/2+x,1/2+y,z
1/2-x,1/2-y,z
1/2+x,1/2-y,1/2-z
1/2-x,1/2+y,1/2-z
1/2-x,1/2-y,-z
1/2+x,1/2+y,-z
1/2-x,1/2+y,1/2+z
1/2+x,1/2-y,1/2+z
loop_
_atom_site_type_symbol
_atom_site_label
_atom_site_fract_x
_atom_site_fract_y
_atom_site_fract_z
Si Si1 0.199083 0.866066 0.268439
Si Si2 0.312784 0.634978 0.952250
Si Si3 0.940106 0.658091 0.634595
Si Si4 0.526765 0.366116 0.670810
Si Si5 0.178466 0.879503 0.590696
Si Si6 0.840954 0.425559 0.652743
Si Si7 0.480605 0.771156 0.546246
O O1 0.250000 0.750000 0.245619
O O2 0.091925 0.825642 0.288842
O O3 0.274248 0.891610 0.307671
O O4 0.187868 0.000000 0.250000
O O5 0.250000 0.750000 0.934769
O O6 0.310740 0.512367 0.927640
O O7 0.430594 0.671977 0.954996
O O8 0.272548 0.617107 0.000000
O O9 0.851664 0.566356 0.644442
O O10 0.930825 0.789707 0.654067
O O11 0.044357 0.618429 0.657690
O O12 0.976828 0.652768 0.585774
O O13 0.500000 0.500000 0.680865
O O14 0.599667 0.372722 0.629713
O O15 0.288431 0.863594 0.612548
O O16 0.125462 0.795508 0.556009
O O17 0.477034 0.829629 0.500000
#
# Coordination Sequence:
#
# PCOD9495840 Si02
#       7
#    16  16  16  16  16  16  16
#     4  11  24  45  69  98 134 169 208 265 335 402
#     4  10  19  31  48  75 116 161 209 272 336 390
#     4  10  20  40  64  88 123 168 225 264 326 389
#     4  10  21  37  64  92 124 163 212 264 316 391
#     4  10  19  32  54  83 115 160 216 264 325 388
#     4  10  22  40  65  89 117 169 216 264 316 407
#     4  10  20  33  53  83 122 165 215 276 335 386
#
# _framework density 23.939267000000001
#
# number of rings (size 3 to 8) (size 9 to 14) (size 15 to 20)
#    0.000    1.857    1.429    3.429    0.000    2.571 
#    0.000    8.571    0.000    0.000    0.000    0.000 
#    0.000    0.000    0.000    0.000    0.000    0.000 
#
# Total GULP energy -312470.960004 kJ/mol
# GULP energy per Si atom -5579.838572 kJ/mol
# Density = 2.388478 g / cm^3
# Si number density = 23.939267 Si / 1000 Ang^3
#
#
#
# Elastic Constant Matrix: (Units=GPa)
#
#
# Indices 1 2 3 4 5 6 
#
# 1 61.4961 17.4304 10.5017 0.0000 0.0000 0.0000
# 2 17.4304 128.7479 24.3097 0.0000 0.0000 0.0000
# 3 10.5017 24.3097 50.8353 0.0000 0.0000 0.0000
# 4 0.0000 0.0000 0.0000 16.0471 0.0000 0.0000
# 5 0.0000 0.0000 0.0000 0.0000 11.2268 0.0000
# 6 0.0000 0.0000 0.0000 0.0000 0.0000 42.6101
#
#
#
# Elastic Compliance Matrix: (Units=1/GPa)
#
#
# Indices 1 2 3 4 5 6 
#
# 1 0.017238 -0.001826 -0.002688 0.000000 0.000000 0.000000
# 2 -0.001826 0.008732 -0.003798 0.000000 0.000000 0.000000
# 3 -0.002688 -0.003798 0.022043 0.000000 0.000000 0.000000
# 4 0.000000 0.000000 0.000000 0.062317 0.000000 0.000000
# 5 0.000000 0.000000 0.000000 0.000000 0.089073 0.000000
# 6 0.000000 0.000000 0.000000 0.000000 0.000000 0.023469
#
#
# Mechanical properties :
#
#
# Convention : Reuss Voigt Hill
#
# Bulk Modulus (GPa) = 31.85934 38.39587 35.12761
# Shear Modulus (GPa) = 20.00342 26.56596 23.28469
#
# Velocity S-wave (km/s) = 2.89379 3.33486 3.12213
# Velocity P-wave (km/s) = 4.95002 5.55897 5.26331
#
# Compressibility (1/GPa) = 0.03138797
#
# Stress axis : x y z
#
# Youngs Moduli (GPa) = 58.01201 114.52752 45.36602
#
# Poissons Ratio (x) = 0.20915 0.12193
# Poissons Ratio (y) = 0.10594 0.17231
# Poissons Ratio (z) = 0.15592 0.43500
#
# Static dielectric constant tensor:
#      x y z
#    x 1.935580 0.000000 0.000000 
#    y 0.000000 2.151760 0.000000 
#    z 0.000000 0.000000 1.943230 
# 
# From -- ./inp_files/69559.got.cif
#   From: 2010.05.17/outbox.cif.g08.bks.cpg/sg66_35_cif.got.tgz:69559.got - 2010.06.03 17:51:23.
