data_PCOD9495593
_publ_section_title
;
Structure prediction by ZEFSAII (Michael W. Deem and Ramdas Pophale) SiO2 
 PCOD9495593
Probable space group: C C C M
;
_chemical_formula_sum "Si O2"
_cell_formula_units_Z 64
_cell_length_a 20.749958
_cell_length_b 6.699092
_cell_length_c 23.282309
_cell_angle_alpha 90.000000
_cell_angle_beta 90.000000
_cell_angle_gamma 90.000000
_cell_volume 3236.377796
_symmetry_space_group_name_H-M "C C C M"
_symmetry_group_IT_number 66
_symmetry_cell_setting 'orthorhombic'
loop_
_space_group_symop_operation_xyz
x,y,z
-x,-y,z
x,-y,1/2-z
-x,y,1/2-z
-x,-y,-z
x,y,-z
-x,y,1/2+z
x,-y,1/2+z
1/2+x,1/2+y,z
1/2-x,1/2-y,z
1/2+x,1/2-y,1/2-z
1/2-x,1/2+y,1/2-z
1/2-x,1/2-y,-z
1/2+x,1/2+y,-z
1/2-x,1/2+y,1/2+z
1/2+x,1/2-y,1/2+z
loop_
_atom_site_type_symbol
_atom_site_label
_atom_site_fract_x
_atom_site_fract_y
_atom_site_fract_z
Si Si1 0.934975 0.878749 0.064544
Si Si2 0.681515 0.253077 0.643346
Si Si3 0.158598 0.000000 0.250000
Si Si4 0.000000 0.500000 0.601502
Si Si5 0.600380 0.112784 0.807789
O O1 0.874699 0.867459 0.107948
O O2 0.958298 0.649913 0.064738
O O3 0.916710 0.943941 0.000000
O O4 0.000000 0.000000 0.080871
O O5 0.750000 0.250000 0.611313
O O6 0.695164 0.380933 0.700744
O O7 0.654186 0.036346 0.663865
O O8 0.120601 0.171305 0.284805
O O9 0.954337 0.623559 0.644462
O O10 0.578181 0.000000 0.750000
#
# Coordination Sequence:
#
# PCOD9495593 Si02
#       5
#    16  16   8   8  16
#     4  10  21  38  59  82 110 152 200 246 298 352
#     4  10  22  35  55  85 116 151 192 239 296 356
#     4  10  20  34  55  80 116 151 186 234 288 356
#     4  10  18  34  56  80 112 144 192 242 294 346
#     4   9  19  33  51  81 112 149 187 231 288 356
#
# _framework density 19.775193999999999
#
# number of rings (size 3 to 8) (size 9 to 14) (size 15 to 20)
#    0.000    2.250    0.000    2.250    5.250    0.500 
#    0.000   14.375    0.000    0.000    0.000   14.000 
#    0.000    0.000    0.000    0.000    0.000    0.000 
#
# Total GULP energy -178153.275112 kJ/mol
# GULP energy per Si atom -5567.289847 kJ/mol
# Density = 1.973018 g / cm^3
# Si number density = 19.775194 Si / 1000 Ang^3
#
#
#
# Elastic Constant Matrix: (Units=GPa)
#
#
# Indices 1 2 3 4 5 6 
#
# 1 116.1565 28.1938 56.5746 0.0000 0.0000 0.0000
# 2 28.1938 89.6264 32.6801 0.0000 0.0000 0.0000
# 3 56.5746 32.6801 84.4411 0.0000 0.0000 0.0000
# 4 0.0000 0.0000 0.0000 19.5198 0.0000 0.0000
# 5 0.0000 0.0000 0.0000 0.0000 14.0743 0.0000
# 6 0.0000 0.0000 0.0000 0.0000 0.0000 14.7232
#
#
#
# Elastic Compliance Matrix: (Units=1/GPa)
#
#
# Indices 1 2 3 4 5 6 
#
# 1 0.012864 -0.001053 -0.008211 0.000000 0.000000 0.000000
# 2 -0.001053 0.013077 -0.004356 0.000000 0.000000 0.000000
# 3 -0.008211 -0.004356 0.019030 0.000000 0.000000 0.000000
# 4 0.000000 0.000000 0.000000 0.051230 0.000000 0.000000
# 5 0.000000 0.000000 0.000000 0.000000 0.071051 0.000000
# 6 0.000000 0.000000 0.000000 0.000000 0.000000 0.067920
#
#
# Mechanical properties :
#
#
# Convention : Reuss Voigt Hill
#
# Bulk Modulus (GPa) = 56.39752 58.34678 57.37215
# Shear Modulus (GPa) = 18.63437 21.18184 19.90811
#
# Velocity S-wave (km/s) = 3.07304 3.27637 3.17633
# Velocity P-wave (km/s) = 6.41659 6.62434 6.52129
#
# Compressibility (1/GPa) = 0.01773127
#
# Stress axis : x y z
#
# Youngs Moduli (GPa) = 77.73689 76.47174 52.54916
#
# Poissons Ratio (x) = 0.08049 0.43150
# Poissons Ratio (y) = 0.08182 0.22889
# Poissons Ratio (z) = 0.63832 0.33309
#
# Static dielectric constant tensor:
#      x y z
#    x 1.754840 0.000000 0.000000 
#    y 0.000000 1.744150 0.000000 
#    z 0.000000 0.000000 1.707450 
# 
# From -- ./inp_files/65479.got.cif
#   From: 2010.05.17/outbox.cif.g08.bks.cpg/sg66_33_cif.got.tgz:65479.got - 2010.06.03 17:51:23.
