data_PCOD9495843
_publ_section_title
;
Structure prediction by ZEFSAII (Michael W. Deem and Ramdas Pophale) SiO2 
 PCOD9495843
Probable space group: C C C M
;
_chemical_formula_sum "Si O2"
_cell_formula_units_Z 96
_cell_length_a 20.926865
_cell_length_b 22.470186
_cell_length_c 9.347080
_cell_angle_alpha 90.000000
_cell_angle_beta 90.000000
_cell_angle_gamma 90.000000
_cell_volume 4395.282559
_symmetry_space_group_name_H-M "C C C M"
_symmetry_group_IT_number 66
_symmetry_cell_setting 'orthorhombic'
loop_
_space_group_symop_operation_xyz
x,y,z
-x,-y,z
x,-y,1/2-z
-x,y,1/2-z
-x,-y,-z
x,y,-z
-x,y,1/2+z
x,-y,1/2+z
1/2+x,1/2+y,z
1/2-x,1/2-y,z
1/2+x,1/2-y,1/2-z
1/2-x,1/2+y,1/2-z
1/2-x,1/2-y,-z
1/2+x,1/2+y,-z
1/2-x,1/2+y,1/2+z
1/2+x,1/2-y,1/2+z
loop_
_atom_site_type_symbol
_atom_site_label
_atom_site_fract_x
_atom_site_fract_y
_atom_site_fract_z
Si Si1 0.253531 0.144298 0.661800
Si Si2 0.135524 0.062347 0.669453
Si Si3 0.666664 0.233629 0.336878
Si Si4 0.054282 0.637431 0.341174
Si Si5 0.566923 0.683391 0.329487
Si Si6 0.368697 0.052994 0.659079
O O1 0.235864 0.165320 0.500000
O O2 0.199234 0.098869 0.714292
O O3 0.273757 0.197516 0.766304
O O4 0.316804 0.104682 0.647267
O O5 0.142117 0.049945 0.500000
O O6 0.081185 0.112667 0.687343
O O7 0.126946 0.000000 0.750000
O O8 0.677627 0.255304 0.500000
O O9 0.614091 0.180913 0.349741
O O10 0.627973 0.281497 0.239285
O O11 0.031965 0.623318 0.500000
O O12 0.074144 0.579651 0.251878
O O13 0.000000 0.668896 0.250000
O O14 0.500000 0.696489 0.250000
O O15 0.563191 0.696845 0.500000
O O16 0.387045 0.033890 0.500000
O O17 0.339205 0.000000 0.750000
#
# Coordination Sequence:
#
# PCOD9495843 Si02
#       6
#    16  16  16  16  16  16
#     4   9  19  37  60  87 120 157 196 242 301 365
#     4  10  23  42  65  93 125 165 210 259 315 373
#     4  10  21  37  60  90 121 156 198 246 302 363
#     4  10  20  33  49  71 101 138 184 235 288 347
#     4  11  24  42  64  91 125 165 210 260 315 375
#     4  10  19  31  49  72 101 139 183 232 287 347
#
# _framework density 21.841598999999999
#
# number of rings (size 3 to 8) (size 9 to 14) (size 15 to 20)
#    0.000    2.000    0.000    3.000    0.000    7.333 
#    0.000    6.667    0.000    0.000    0.000    0.000 
#    0.000    0.000    0.000    0.000    0.000    0.000 
#
# Total GULP energy -267913.035653 kJ/mol
# GULP energy per Si atom -5581.521576 kJ/mol
# Density = 2.179189 g / cm^3
# Si number density = 21.841599 Si / 1000 Ang^3
#
#
#
# Elastic Constant Matrix: (Units=GPa)
#
#
# Indices 1 2 3 4 5 6 
#
# 1 58.5604 14.4904 30.4484 0.0000 0.0000 0.0000
# 2 14.4904 114.0659 83.7207 0.0000 0.0000 0.0000
# 3 30.4484 83.7207 167.3789 0.0000 0.0000 0.0000
# 4 0.0000 0.0000 0.0000 -991.7151 0.0000 0.0000
# 5 0.0000 0.0000 0.0000 0.0000 25.8171 0.0000
# 6 0.0000 0.0000 0.0000 0.0000 0.0000 23.5362
#
#
#
# Elastic Compliance Matrix: (Units=1/GPa)
#
#
# Indices 1 2 3 4 5 6 
#
# 1 0.018863 0.000193 -0.003528 0.000000 0.000000 0.000000
# 2 0.000193 0.013854 -0.006965 0.000000 0.000000 0.000000
# 3 -0.003528 -0.006965 0.010100 0.000000 0.000000 0.000000
# 4 0.000000 0.000000 0.000000 -0.001008 0.000000 0.000000
# 5 0.000000 0.000000 0.000000 0.000000 0.038734 0.000000
# 6 0.000000 0.000000 0.000000 0.000000 0.000000 0.042488
#
#
# Mechanical properties :
#
#
# Convention : Reuss Voigt Hill
#
# Bulk Modulus (GPa) = 45.00887 66.36936 55.68911
# Shear Modulus (GPa) = 33.10464 -174.38266 -70.63901
#
# Velocity S-wave (km/s) = 3.89738 -8.94500 -5.69313
# Velocity P-wave (km/s) = 6.39566 8.73106 4.20279
#
# Compressibility (1/GPa) = 0.02221784
#
# Stress axis : x y z
#
# Youngs Moduli (GPa) = 53.01388 72.17955 99.00966
#
# Poissons Ratio (x) = -0.01395 0.34931
# Poissons Ratio (y) = -0.01024 0.68959
# Poissons Ratio (z) = 0.18704 0.50272
#
# Static dielectric constant tensor:
#      x y z
#    x 1.918590 0.000000 0.000000 
#    y 0.000000 1.807320 0.000000 
#    z 0.000000 0.000000 1.870710 
# 
# From -- ./inp_files/9144.got.cif
#   From: 2010.05.17/outbox.cif.g08.bks.cpg/sg66_5_cif.got.tgz:9144.got - 2010.06.03 17:51:23.
