data_PCOD9495210
_publ_section_title
;
Structure prediction by ZEFSAII (Michael W. Deem and Ramdas Pophale) SiO2 
 PCOD9495210
Probable space group: C C C M
;
_chemical_formula_sum "Si O2"
_cell_formula_units_Z 88
_cell_length_a 7.621084
_cell_length_b 19.743212
_cell_length_c 25.115985
_cell_angle_alpha 90.000000
_cell_angle_beta 90.000000
_cell_angle_gamma 90.000000
_cell_volume 3779.068573
_symmetry_space_group_name_H-M "C C C M"
_symmetry_group_IT_number 66
_symmetry_cell_setting 'orthorhombic'
loop_
_space_group_symop_operation_xyz
x,y,z
-x,-y,z
x,-y,1/2-z
-x,y,1/2-z
-x,-y,-z
x,y,-z
-x,y,1/2+z
x,-y,1/2+z
1/2+x,1/2+y,z
1/2-x,1/2-y,z
1/2+x,1/2-y,1/2-z
1/2-x,1/2+y,1/2-z
1/2-x,1/2-y,-z
1/2+x,1/2+y,-z
1/2-x,1/2+y,1/2+z
1/2+x,1/2-y,1/2+z
loop_
_atom_site_type_symbol
_atom_site_label
_atom_site_fract_x
_atom_site_fract_y
_atom_site_fract_z
Si Si1 0.194385 0.096584 0.500000
Si Si2 0.817019 0.543703 0.000000
Si Si3 0.959906 0.769408 0.500000
Si Si4 0.460419 0.731687 0.116037
Si Si5 0.817216 0.543623 0.117144
Si Si6 0.525841 0.849818 0.812643
Si Si7 0.704513 0.598606 0.381305
O O1 0.033961 0.148487 0.500000
O O2 0.278045 0.110714 0.442015
O O3 0.175607 0.016770 0.500000
O O4 0.804442 0.576493 0.058140
O O5 0.000000 0.500000 0.000000
O O6 0.750000 0.750000 0.500000
O O7 0.028486 0.747787 0.442655
O O8 0.250000 0.750000 0.116734
O O9 0.548408 0.775847 0.161534
O O10 0.457516 0.650474 0.122902
O O11 0.682008 0.481659 0.123532
O O12 0.000000 0.500000 0.117416
O O13 0.831621 0.597959 0.163888
O O14 0.500000 0.848011 0.750000
O O15 0.345646 0.877970 0.838396
#
# Coordination Sequence:
#
# PCOD9495210 Si02
#       7
#     8   8   8  16  16  16  16
#     4   8  12  20  32  48  62  78 119 167 198 224
#     4   8  12  18  28  42  60  83 114 151 191 231
#     4   8  12  18  32  48  60  79 120 164 194 227
#     4   8  14  23  34  47  64  92 127 161 193 231
#     4   8  14  21  31  45  63  89 121 156 192 228
#     4  10  18  23  28  44  72 103 129 155 186 222
#     4   8  14  24  36  47  63  93 129 162 192 231
#
# _framework density 23.286159999999999
#
# number of rings (size 3 to 8) (size 9 to 14) (size 15 to 20)
#    0.000    3.636    0.000    2.182    0.000    4.000 
#    0.000    0.000    0.000    0.000    0.000    0.000 
#    0.000    0.000    0.000   95.727    0.000   22.909 
#
# Total GULP energy -244964.563255 kJ/mol
# GULP energy per Si atom -5567.376438 kJ/mol
# Density = 2.323316 g / cm^3
# Si number density = 23.286160 Si / 1000 Ang^3
#
#
#
# Elastic Constant Matrix: (Units=GPa)
#
#
# Indices 1 2 3 4 5 6 
#
# 1 64.2559 33.3074 24.8269 0.0000 0.0000 0.0000
# 2 33.3074 127.9706 85.1431 0.0000 0.0000 0.0000
# 3 24.8269 85.1431 246.6075 0.0000 0.0000 0.0000
# 4 0.0000 0.0000 0.0000 -86.5204 0.0000 0.0000
# 5 0.0000 0.0000 0.0000 0.0000 -0.6423 0.0000
# 6 0.0000 0.0000 0.0000 0.0000 0.0000 7.6934
#
#
#
# Elastic Compliance Matrix: (Units=1/GPa)
#
#
# Indices 1 2 3 4 5 6 
#
# 1 0.018002 -0.004517 -0.000253 0.000000 0.000000 0.000000
# 2 -0.004517 0.011278 -0.003439 0.000000 0.000000 0.000000
# 3 -0.000253 -0.003439 0.005268 0.000000 0.000000 0.000000
# 4 0.000000 0.000000 0.000000 -0.011558 0.000000 0.000000
# 5 0.000000 0.000000 0.000000 0.000000 -1.556967 0.000000
# 6 0.000000 0.000000 0.000000 0.000000 0.000000 0.129982
#
#
# Mechanical properties :
#
#
# Convention : Reuss Voigt Hill
#
# Bulk Modulus (GPa) = 55.15783 80.59874 67.87829
# Shear Modulus (GPa) = -3.61917 3.80991 0.09537
#
# Velocity S-wave (km/s) = -1.24803 1.28050 0.20260
# Velocity P-wave (km/s) = 4.65420 6.07237 5.40996
#
# Compressibility (1/GPa) = 0.01812979
#
# Stress axis : x y z
#
# Youngs Moduli (GPa) = 55.54939 88.66679 189.83108
#
# Poissons Ratio (x) = 0.40054 0.04797
# Poissons Ratio (y) = 0.25093 0.65285
# Poissons Ratio (z) = 0.01404 0.30493
#
# Static dielectric constant tensor:
#      x y z
#    x 2.036800 0.000000 0.000000 
#    y 0.000000 1.999750 0.000000 
#    z 0.000000 0.000000 1.821900 
# 
# From -- ./inp_files/50025.got.cif
#   From: 2010.05.17/outbox.cif.g08.bks.cpg/sg66_26_cif.got.tgz:50025.got - 2010.06.03 17:51:23.
