data_PCOD9495074
_publ_section_title
;
Structure prediction by ZEFSAII (Michael W. Deem and Ramdas Pophale) SiO2 
 PCOD9495074
Probable space group: C C C M
;
_chemical_formula_sum "Si O2"
_cell_formula_units_Z 96
_cell_length_a 18.912425
_cell_length_b 9.417334
_cell_length_c 28.048067
_cell_angle_alpha 90.000000
_cell_angle_beta 90.000000
_cell_angle_gamma 90.000000
_cell_volume 4995.490398
_symmetry_space_group_name_H-M "C C C M"
_symmetry_group_IT_number 66
_symmetry_cell_setting 'orthorhombic'
loop_
_space_group_symop_operation_xyz
x,y,z
-x,-y,z
x,-y,1/2-z
-x,y,1/2-z
-x,-y,-z
x,y,-z
-x,y,1/2+z
x,-y,1/2+z
1/2+x,1/2+y,z
1/2-x,1/2-y,z
1/2+x,1/2-y,1/2-z
1/2-x,1/2+y,1/2-z
1/2-x,1/2-y,-z
1/2+x,1/2+y,-z
1/2-x,1/2+y,1/2+z
1/2+x,1/2-y,1/2+z
loop_
_atom_site_type_symbol
_atom_site_label
_atom_site_fract_x
_atom_site_fract_y
_atom_site_fract_z
Si Si1 0.389899 0.217014 0.112024
Si Si2 0.078691 0.034964 0.609802
Si Si3 0.333612 0.033111 0.554508
Si Si4 0.177067 0.717114 0.142885
Si Si5 0.915757 0.518847 0.805821
Si Si6 0.474060 0.783234 0.051816
O O1 0.382262 0.385014 0.104778
O O2 0.468805 0.188030 0.091956
O O3 0.339109 0.120451 0.079364
O O4 0.390758 0.161447 0.166427
O O5 0.129797 0.142869 0.636916
O O6 0.059658 0.128634 0.562890
O O7 0.000000 0.000000 0.630824
O O8 0.306387 0.031635 0.500000
O O9 0.299953 0.139934 0.593007
O O10 0.412857 0.100116 0.552143
O O11 0.250000 0.750000 0.169178
O O12 0.126361 0.604317 0.167461
O O13 0.900510 0.500000 0.750000
O O14 0.000000 0.500000 0.811701
O O15 0.508936 0.782976 0.000000
#
# Coordination Sequence:
#
# PCOD9495074 Si02
#       6
#    16  16  16  16  16  16
#     4  10  17  28  48  75 106 137 179 232 273 309
#     4   9  18  31  51  78 110 143 179 223 274 322
#     4   9  17  29  48  74 106 148 188 217 258 324
#     4  10  21  39  59  80 113 150 181 220 276 335
#     4  10  20  37  60  82 105 140 185 228 274 331
#     4   9  16  26  45  76 112 147 181 219 269 327
#
# _framework density 19.217333
#
# number of rings (size 3 to 8) (size 9 to 14) (size 15 to 20)
#    0.000    2.500    0.000    5.000    0.000    5.333 
#    0.000    5.833    0.000    6.000    0.000    0.000 
#    0.000    0.000    0.000    0.000    0.000    0.000 
#
# Total GULP energy -267278.357990 kJ/mol
# GULP energy per Si atom -5568.299125 kJ/mol
# Density = 1.917359 g / cm^3
# Si number density = 19.217333 Si / 1000 Ang^3
#
#
#
# Elastic Constant Matrix: (Units=GPa)
#
#
# Indices 1 2 3 4 5 6 
#
# 1 50.6246 22.8468 7.2439 0.0000 0.0000 0.0000
# 2 22.8468 149.3146 33.6820 0.0000 0.0000 0.0000
# 3 7.2439 33.6820 104.5937 0.0000 0.0000 0.0000
# 4 0.0000 0.0000 0.0000 6.9147 0.0000 0.0000
# 5 0.0000 0.0000 0.0000 0.0000 -41.3410 0.0000
# 6 0.0000 0.0000 0.0000 0.0000 0.0000 20.4171
#
#
#
# Elastic Compliance Matrix: (Units=1/GPa)
#
#
# Indices 1 2 3 4 5 6 
#
# 1 0.021239 -0.003147 -0.000458 0.000000 0.000000 0.000000
# 2 -0.003147 0.007688 -0.002258 0.000000 0.000000 0.000000
# 3 -0.000458 -0.002258 0.010320 0.000000 0.000000 0.000000
# 4 0.000000 0.000000 0.000000 0.144619 0.000000 0.000000
# 5 0.000000 0.000000 0.000000 0.000000 -0.024189 0.000000
# 6 0.000000 0.000000 0.000000 0.000000 0.000000 0.048979
#
#
# Mechanical properties :
#
#
# Convention : Reuss Voigt Hill
#
# Bulk Modulus (GPa) = 36.33417 48.00871 42.17144
# Shear Modulus (GPa) = 21.78145 13.24883 17.51514
#
# Velocity S-wave (km/s) = 3.37029 2.62853 3.02225
# Velocity P-wave (km/s) = 5.83894 5.85222 5.84558
#
# Compressibility (1/GPa) = 0.02752230
#
# Stress axis : x y z
#
# Youngs Moduli (GPa) = 47.08374 130.07208 96.90311
#
# Poissons Ratio (x) = 0.40928 0.04435
# Poissons Ratio (y) = 0.14815 0.21879
# Poissons Ratio (z) = 0.02155 0.29368
#
# Static dielectric constant tensor:
#      x y z
#    x 1.676860 0.000000 0.000000 
#    y 0.000000 1.698550 0.000000 
#    z 0.000000 0.000000 1.686370 
# 
# From -- ./inp_files/65641.got.cif
#   From: 2010.05.17/outbox.cif.g08.bks.cpg/sg66_33_cif.got.tgz:65641.got - 2010.06.03 17:51:23.
