data_PCOD9495904
_publ_section_title
;
Structure prediction by ZEFSAII (Michael W. Deem and Ramdas Pophale) SiO2 
 PCOD9495904
Probable space group: C C C M
;
_chemical_formula_sum "Si O2"
_cell_formula_units_Z 104
_cell_length_a 17.181642
_cell_length_b 13.554011
_cell_length_c 23.815362
_cell_angle_alpha 90.000000
_cell_angle_beta 90.000000
_cell_angle_gamma 90.000000
_cell_volume 5546.125424
_symmetry_space_group_name_H-M "C C C M"
_symmetry_group_IT_number 66
_symmetry_cell_setting 'orthorhombic'
loop_
_space_group_symop_operation_xyz
x,y,z
-x,-y,z
x,-y,1/2-z
-x,y,1/2-z
-x,-y,-z
x,y,-z
-x,y,1/2+z
x,-y,1/2+z
1/2+x,1/2+y,z
1/2-x,1/2-y,z
1/2+x,1/2-y,1/2-z
1/2-x,1/2+y,1/2-z
1/2-x,1/2-y,-z
1/2+x,1/2+y,-z
1/2-x,1/2+y,1/2+z
1/2+x,1/2-y,1/2+z
loop_
_atom_site_type_symbol
_atom_site_label
_atom_site_fract_x
_atom_site_fract_y
_atom_site_fract_z
Si Si1 0.250000 0.750000 0.850668
Si Si2 0.310068 0.879836 0.500000
Si Si3 0.370368 0.336047 0.000000
Si Si4 0.129482 0.474247 0.108051
Si Si5 0.908910 0.014603 0.400977
Si Si6 0.491529 0.135551 0.566467
Si Si7 0.730349 0.527504 0.314513
Si Si8 0.379103 0.297208 0.438432
O O1 0.259310 0.646511 0.818760
O O2 0.324060 0.747994 0.891568
O O3 0.369409 0.784729 0.500000
O O4 0.221823 0.849134 0.500000
O O5 0.320775 0.947630 0.446171
O O6 0.400891 0.394044 0.055430
O O7 0.077619 0.569096 0.092600
O O8 0.189108 0.485395 0.158828
O O9 0.065146 0.387323 0.105698
O O10 0.844009 0.012458 0.350907
O O11 0.886171 0.913879 0.433373
O O12 0.000000 0.000000 0.383366
O O13 0.499461 0.106470 0.500000
O O14 0.463067 0.247006 0.567491
O O15 0.721054 0.500000 0.250000
O O16 0.349448 0.269355 0.500000
#
# Coordination Sequence:
#
# PCOD9495904 Si02
#       8
#     8   8   8  16  16  16  16  16
#     4  10  21  42  64  88 118 153 214 262 304 364
#     4  11  22  35  59  89 130 163 194 244 300 389
#     4  11  23  38  55  93 129 156 203 242 307 376
#     4  11  19  37  59  87 123 158 194 242 309 366
#     4  11  24  40  62  90 126 164 204 257 306 368
#     4  10  19  31  58  97 129 153 185 234 311 392
#     4  11  25  46  65  85 117 164 217 264 305 355
#     4  10  20  33  61  97 128 158 190 246 318 378
#
# _framework density 18.751829000000001
#
# number of rings (size 3 to 8) (size 9 to 14) (size 15 to 20)
#    0.000    1.385    5.385    0.923    2.154    0.308 
#    2.769    1.538    0.000    1.846    0.000    0.000 
#    0.000    0.000    0.000    0.000    0.000    0.000 
#
# Total GULP energy -289647.090873 kJ/mol
# GULP energy per Si atom -5570.136363 kJ/mol
# Density = 1.870915 g / cm^3
# Si number density = 18.751829 Si / 1000 Ang^3
#
#
#
# Elastic Constant Matrix: (Units=GPa)
#
#
# Indices 1 2 3 4 5 6 
#
# 1 125.3965 28.8816 60.0712 0.0000 0.0000 0.0000
# 2 28.8816 56.6784 46.3593 0.0000 0.0000 0.0000
# 3 60.0712 46.3593 132.4189 0.0000 0.0000 0.0000
# 4 0.0000 0.0000 0.0000 37.5825 0.0000 0.0000
# 5 0.0000 0.0000 0.0000 0.0000 81.2623 0.0000
# 6 0.0000 0.0000 0.0000 0.0000 0.0000 37.7031
#
#
#
# Elastic Compliance Matrix: (Units=1/GPa)
#
#
# Indices 1 2 3 4 5 6 
#
# 1 0.010350 -0.002009 -0.003992 0.000000 0.000000 0.000000
# 2 -0.002009 0.025113 -0.007881 0.000000 0.000000 0.000000
# 3 -0.003992 -0.007881 0.012122 0.000000 0.000000 0.000000
# 4 0.000000 0.000000 0.000000 0.026608 0.000000 0.000000
# 5 0.000000 0.000000 0.000000 0.000000 0.012306 0.000000
# 6 0.000000 0.000000 0.000000 0.000000 0.000000 0.026523
#
#
# Mechanical properties :
#
#
# Convention : Reuss Voigt Hill
#
# Bulk Modulus (GPa) = 50.44984 65.01312 57.73148
# Shear Modulus (GPa) = 33.92340 43.25502 38.58921
#
# Velocity S-wave (km/s) = 4.25793 4.80803 4.54132
# Velocity P-wave (km/s) = 7.15092 8.09743 7.63885
#
# Compressibility (1/GPa) = 0.01982167
#
# Stress axis : x y z
#
# Youngs Moduli (GPa) = 96.62165 39.82018 82.49720
#
# Poissons Ratio (x) = 0.07999 0.32931
# Poissons Ratio (y) = 0.19410 0.65013
# Poissons Ratio (z) = 0.38569 0.31381
#
# Static dielectric constant tensor:
#      x y z
#    x 1.713430 0.000000 0.000000 
#    y 0.000000 1.696480 0.000000 
#    z 0.000000 0.000000 1.597520 
# 
# From -- ./inp_files/58927.got.cif
#   From: 2010.05.17/outbox.cif.g08.bks.cpg/sg66_30_cif.got.tgz:58927.got - 2010.06.03 17:51:23.
