data_PCOD9495732
_publ_section_title
;
Structure prediction by ZEFSAII (Michael W. Deem and Ramdas Pophale) SiO2 
 PCOD9495732
Probable space group: C C C M
;
_chemical_formula_sum "Si O2"
_cell_formula_units_Z 120
_cell_length_a 22.445253
_cell_length_b 24.413807
_cell_length_c 13.971560
_cell_angle_alpha 90.000000
_cell_angle_beta 90.000000
_cell_angle_gamma 90.000000
_cell_volume 7656.052665
_symmetry_space_group_name_H-M "C C C M"
_symmetry_group_IT_number 66
_symmetry_cell_setting 'orthorhombic'
loop_
_space_group_symop_operation_xyz
x,y,z
-x,-y,z
x,-y,1/2-z
-x,y,1/2-z
-x,-y,-z
x,y,-z
-x,y,1/2+z
x,-y,1/2+z
1/2+x,1/2+y,z
1/2-x,1/2-y,z
1/2+x,1/2-y,1/2-z
1/2-x,1/2+y,1/2-z
1/2-x,1/2-y,-z
1/2+x,1/2+y,-z
1/2-x,1/2+y,1/2+z
1/2+x,1/2-y,1/2+z
loop_
_atom_site_type_symbol
_atom_site_label
_atom_site_fract_x
_atom_site_fract_y
_atom_site_fract_z
Si Si1 0.281620 0.690021 0.697820
Si Si2 0.086366 0.311995 0.386139
Si Si3 0.102714 0.232758 0.111633
Si Si4 0.560267 0.069290 0.115658
Si Si5 0.186154 0.221697 0.394552
Si Si6 0.500000 0.250324 0.750000
Si Si7 0.663288 0.148955 0.615036
Si Si8 0.423610 0.052466 0.115963
O O1 0.250000 0.750000 0.697062
O O2 0.338744 0.695672 0.629339
O O3 0.306968 0.681418 0.804903
O O4 0.227720 0.651851 0.664742
O O5 0.074559 0.311104 0.500000
O O6 0.093814 0.375186 0.356795
O O7 0.141048 0.270911 0.369100
O O8 0.031972 0.287288 0.328215
O O9 0.050850 0.219018 0.187954
O O10 0.125088 0.295323 0.132690
O O11 0.084259 0.230143 0.000000
O O12 0.490483 0.070601 0.143694
O O13 0.585298 0.010501 0.146284
O O14 0.560781 0.068148 0.000000
O O15 0.330385 0.300641 0.500000
O O16 0.250000 0.250000 0.403815
O O17 0.672478 0.147672 0.500000
O O18 0.625043 0.096537 0.645490
O O19 0.423228 0.052858 0.000000
#
# Coordination Sequence:
#
# PCOD9495732 Si02
#       8
#    16  16  16  16  16   8  16  16
#     4   9  16  28  43  62  80 104 133 181 231 272
#     4  10  19  30  44  62  82 110 148 187 226 266
#     4  10  19  29  40  58  83 108 139 181 227 273
#     4   8  14  25  41  60  86 115 145 179 218 259
#     4   9  17  30  45  60  78 103 141 185 223 263
#     4  12  20  28  40  61  82 114 148 185 220 266
#     4   9  16  26  44  65  84 107 140 182 227 274
#     4   8  13  23  40  63  87 115 145 176 216 264
#
# _framework density 15.673874
#
# number of rings (size 3 to 8) (size 9 to 14) (size 15 to 20)
#    0.000    2.800    1.333    2.400    0.000    3.733 
#    0.000    0.000    0.000    6.400    0.000    0.000 
#    0.000    0.000    0.000    1.467    0.000    2.800 
#
# Total GULP energy -334238.612057 kJ/mol
# GULP energy per Si atom -5570.643534 kJ/mol
# Density = 1.563820 g / cm^3
# Si number density = 15.673874 Si / 1000 Ang^3
#
#
#
# Elastic Constant Matrix: (Units=GPa)
#
#
# Indices 1 2 3 4 5 6 
#
# 1 86.5823 39.3362 37.0079 0.0000 0.0000 0.0000
# 2 39.3362 41.0157 15.9806 0.0000 0.0000 0.0000
# 3 37.0079 15.9806 90.7071 0.0000 0.0000 0.0000
# 4 0.0000 0.0000 0.0000 -4.7884 0.0000 0.0000
# 5 0.0000 0.0000 0.0000 0.0000 25.2177 0.0000
# 6 0.0000 0.0000 0.0000 0.0000 0.0000 26.4082
#
#
#
# Elastic Compliance Matrix: (Units=1/GPa)
#
#
# Indices 1 2 3 4 5 6 
#
# 1 0.023099 -0.019843 -0.005928 0.000000 0.000000 0.000000
# 2 -0.019843 0.043224 0.000481 0.000000 0.000000 0.000000
# 3 -0.005928 0.000481 0.013358 0.000000 0.000000 0.000000
# 4 0.000000 0.000000 0.000000 -0.208839 0.000000 0.000000
# 5 0.000000 0.000000 0.000000 0.000000 0.039655 0.000000
# 6 0.000000 0.000000 0.000000 0.000000 0.000000 0.037867
#
#
# Mechanical properties :
#
#
# Convention : Reuss Voigt Hill
#
# Bulk Modulus (GPa) = 34.36403 44.77271 39.56837
# Shear Modulus (GPa) = 578.34162 17.76620 298.05391
#
# Velocity S-wave (km/s) = 19.22981 3.37039 13.80480
# Velocity P-wave (km/s) = 22.69404 6.61613 16.71515
#
# Compressibility (1/GPa) = 0.02910019
#
# Stress axis : x y z
#
# Youngs Moduli (GPa) = 43.29228 23.13512 74.85882
#
# Poissons Ratio (x) = 0.45908 0.44378
# Poissons Ratio (y) = 0.85906 -0.03599
# Poissons Ratio (z) = 0.25665 -0.01112
#
# Static dielectric constant tensor:
#      x y z
#    x 1.593650 0.000000 0.000000 
#    y 0.000000 1.510410 0.000000 
#    z 0.000000 0.000000 1.628680 
# 
# From -- ./inp_files/32744.got.cif
#   From: 2010.05.17/outbox.cif.g08.bks.cpg/sg66_17_cif.got.tgz:32744.got - 2010.06.03 17:51:23.
