data_PCOD9495853
_publ_section_title
;
Structure prediction by ZEFSAII (Michael W. Deem and Ramdas Pophale) SiO2 
 PCOD9495853
Probable space group: C C C M
;
_chemical_formula_sum "Si O2"
_cell_formula_units_Z 116
_cell_length_a 27.174132
_cell_length_b 26.965393
_cell_length_c 9.282833
_cell_angle_alpha 90.000000
_cell_angle_beta 90.000000
_cell_angle_gamma 90.000000
_cell_volume 6802.099373
_symmetry_space_group_name_H-M "C C C M"
_symmetry_group_IT_number 66
_symmetry_cell_setting 'orthorhombic'
loop_
_space_group_symop_operation_xyz
x,y,z
-x,-y,z
x,-y,1/2-z
-x,y,1/2-z
-x,-y,-z
x,y,-z
-x,y,1/2+z
x,-y,1/2+z
1/2+x,1/2+y,z
1/2-x,1/2-y,z
1/2+x,1/2-y,1/2-z
1/2-x,1/2+y,1/2-z
1/2-x,1/2-y,-z
1/2+x,1/2+y,-z
1/2-x,1/2+y,1/2+z
1/2+x,1/2-y,1/2+z
loop_
_atom_site_type_symbol
_atom_site_label
_atom_site_fract_x
_atom_site_fract_y
_atom_site_fract_z
Si Si1 0.926818 0.319667 0.334542
Si Si2 0.500000 0.000000 0.250000
Si Si3 0.817788 0.717635 0.167553
Si Si4 0.251174 0.644517 0.169701
Si Si5 0.183010 0.449559 0.672075
Si Si6 0.647267 0.684839 0.329476
Si Si7 0.049569 0.206178 0.173834
Si Si8 0.574585 0.916411 0.335955
O O1 0.941718 0.325978 0.500000
O O2 0.867450 0.315404 0.326378
O O3 0.944564 0.265016 0.288054
O O4 0.942700 0.367786 0.248115
O O5 0.536596 0.962009 0.330269
O O6 0.773244 0.686130 0.230237
O O7 0.828823 0.764585 0.267838
O O8 0.811084 0.732095 0.000000
O O9 0.222209 0.593848 0.199171
O O10 0.309868 0.644225 0.191189
O O11 0.242859 0.657103 0.000000
O O12 0.196949 0.500000 0.750000
O O13 0.180401 0.457463 0.500000
O O14 0.127979 0.433840 0.721316
O O15 0.636829 0.689418 0.500000
O O16 0.597249 0.679207 0.239724
O O17 0.000000 0.188348 0.250000
O O18 0.048559 0.202606 0.000000
O O19 0.582183 0.900888 0.500000
#
# Coordination Sequence:
#
# PCOD9495853 Si02
#       8
#    16   4  16  16  16  16  16  16
#     4   9  20  35  51  72  97 126 166 211 255 306
#     4  12  26  40  48  74  94 120 172 238 284 316
#     4  10  19  31  49  75 104 134 168 211 259 314
#     4  10  20  34  52  75 102 134 172 212 262 320
#     4  10  21  38  56  75  97 130 172 217 270 327
#     4  10  20  33  51  75 105 138 171 211 254 307
#     4  10  21  37  54  77 106 139 173 209 250 300
#     4  11  23  38  55  69  90 126 169 221 275 320
#
# _framework density 17.053559
#
# number of rings (size 3 to 8) (size 9 to 14) (size 15 to 20)
#    0.000    1.931    2.069    2.690    0.966    7.724 
#    0.000    0.000    0.000    0.000    0.000    0.000 
#    0.000    0.552    0.000    6.345    0.000    1.931 
#
# Total GULP energy -323584.272315 kJ/mol
# GULP energy per Si atom -5579.039178 kJ/mol
# Density = 1.701474 g / cm^3
# Si number density = 17.053559 Si / 1000 Ang^3
#
#
#
# Elastic Constant Matrix: (Units=GPa)
#
#
# Indices 1 2 3 4 5 6 
#
# 1 125.8280 32.4935 43.9220 0.0000 0.0000 0.0000
# 2 32.4935 38.6789 19.6346 0.0000 0.0000 0.0000
# 3 43.9220 19.6346 48.9923 0.0000 0.0000 0.0000
# 4 0.0000 0.0000 0.0000 18.6153 0.0000 0.0000
# 5 0.0000 0.0000 0.0000 0.0000 -44.1732 0.0000
# 6 0.0000 0.0000 0.0000 0.0000 0.0000 20.4464
#
#
#
# Elastic Compliance Matrix: (Units=1/GPa)
#
#
# Indices 1 2 3 4 5 6 
#
# 1 0.012618 -0.006098 -0.008868 0.000000 0.000000 0.000000
# 2 -0.006098 0.035404 -0.008722 0.000000 0.000000 0.000000
# 3 -0.008868 -0.008722 0.031857 0.000000 0.000000 0.000000
# 4 0.000000 0.000000 0.000000 0.053719 0.000000 0.000000
# 5 0.000000 0.000000 0.000000 0.000000 -0.022638 0.000000
# 6 0.000000 0.000000 0.000000 0.000000 0.000000 0.048908
#
#
# Mechanical properties :
#
#
# Convention : Reuss Voigt Hill
#
# Bulk Modulus (GPa) = 30.76629 45.06660 37.91644
# Shear Modulus (GPa) = 22.92753 6.80763 14.86758
#
# Velocity S-wave (km/s) = 3.67064 2.00014 2.95586
# Velocity P-wave (km/s) = 6.00375 5.64074 5.82507
#
# Compressibility (1/GPa) = 0.03250311
#
# Stress axis : x y z
#
# Youngs Moduli (GPa) = 79.25457 28.24502 31.39052
#
# Poissons Ratio (x) = 0.17225 0.27836
# Poissons Ratio (y) = 0.48332 0.27378
# Poissons Ratio (z) = 0.70281 0.24635
#
# Static dielectric constant tensor:
#      x y z
#    x 1.630610 0.000000 0.000000 
#    y 0.000000 1.551780 0.000000 
#    z 0.000000 0.000000 1.580300 
# 
# From -- ./inp_files/9619.got.cif
#   From: 2010.05.17/outbox.cif.g08.bks.cpg/sg66_5_cif.got.tgz:9619.got - 2010.06.03 17:51:23.
