data_PCOD9495779
_publ_section_title
;
Structure prediction by ZEFSAII (Michael W. Deem and Ramdas Pophale) SiO2 
 PCOD9495779
Probable space group: C C C M
;
_chemical_formula_sum "Si O2"
_cell_formula_units_Z 96
_cell_length_a 25.889926
_cell_length_b 9.466262
_cell_length_c 23.137082
_cell_angle_alpha 90.000000
_cell_angle_beta 90.000000
_cell_angle_gamma 90.000000
_cell_volume 5670.455091
_symmetry_space_group_name_H-M "C C C M"
_symmetry_group_IT_number 66
_symmetry_cell_setting 'orthorhombic'
loop_
_space_group_symop_operation_xyz
x,y,z
-x,-y,z
x,-y,1/2-z
-x,y,1/2-z
-x,-y,-z
x,y,-z
-x,y,1/2+z
x,-y,1/2+z
1/2+x,1/2+y,z
1/2-x,1/2-y,z
1/2+x,1/2-y,1/2-z
1/2-x,1/2+y,1/2-z
1/2-x,1/2-y,-z
1/2+x,1/2+y,-z
1/2-x,1/2+y,1/2+z
1/2+x,1/2-y,1/2+z
loop_
_atom_site_type_symbol
_atom_site_label
_atom_site_fract_x
_atom_site_fract_y
_atom_site_fract_z
Si Si1 0.440121 0.168950 0.740510
Si Si2 0.521235 0.295939 0.934062
Si Si3 0.615331 0.508273 0.931969
Si Si4 0.081448 0.737969 0.362977
Si Si5 0.902259 0.593982 0.382627
Si Si6 0.190359 0.750797 0.069386
O O1 0.500000 0.207521 0.750000
O O2 0.413036 0.247163 0.793706
O O3 0.417835 0.178973 0.676203
O O4 0.437414 0.000000 0.750000
O O5 0.560564 0.425984 0.922771
O O6 0.475510 0.275723 0.888199
O O7 0.558246 0.159139 0.929100
O O8 0.501315 0.308903 0.000000
O O9 0.617224 0.649886 0.895097
O O10 0.660591 0.397374 0.918067
O O11 0.618280 0.540281 0.000000
O O12 0.090210 0.572989 0.376870
O O13 0.844414 0.632398 0.400379
O O14 0.250000 0.750000 0.086772
O O15 0.187846 0.730495 0.000000
#
# Coordination Sequence:
#
# PCOD9495779 Si02
#       6
#    16  16  16  16  16  16
#     4   9  17  31  48  70 104 143 174 201 250 302
#     4  10  19  30  45  70 107 145 169 198 253 317
#     4   9  19  33  49  74 108 138 166 210 270 317
#     4  11  19  29  50  74 105 137 172 212 254 307
#     4  10  19  32  52  75 100 134 180 219 246 303
#     4   9  19  38  59  74  96 135 176 216 269 323
#
# _framework density 16.929857999999999
#
# number of rings (size 3 to 8) (size 9 to 14) (size 15 to 20)
#    0.000    2.333    1.667    3.000    0.000    4.667 
#    0.000    4.167    0.000    9.000    0.000    0.000 
#    0.000    0.000    0.000    0.000    0.000    0.000 
#
# Total GULP energy -267420.280139 kJ/mol
# GULP energy per Si atom -5571.255836 kJ/mol
# Density = 1.689132 g / cm^3
# Si number density = 16.929858 Si / 1000 Ang^3
#
#
#
# Elastic Constant Matrix: (Units=GPa)
#
#
# Indices 1 2 3 4 5 6 
#
# 1 94.9109 24.2138 33.8087 0.0000 0.0000 0.0000
# 2 24.2138 83.8362 47.9957 0.0000 0.0000 0.0000
# 3 33.8087 47.9957 81.2966 0.0000 0.0000 0.0000
# 4 0.0000 0.0000 0.0000 23.2413 0.0000 0.0000
# 5 0.0000 0.0000 0.0000 0.0000 13.7846 0.0000
# 6 0.0000 0.0000 0.0000 0.0000 0.0000 8.5748
#
#
#
# Elastic Compliance Matrix: (Units=1/GPa)
#
#
# Indices 1 2 3 4 5 6 
#
# 1 0.012419 -0.000952 -0.004603 0.000000 0.000000 0.000000
# 2 -0.000952 0.018091 -0.010285 0.000000 0.000000 0.000000
# 3 -0.004603 -0.010285 0.020286 0.000000 0.000000 0.000000
# 4 0.000000 0.000000 0.000000 0.043027 0.000000 0.000000
# 5 0.000000 0.000000 0.000000 0.000000 0.072545 0.000000
# 6 0.000000 0.000000 0.000000 0.000000 0.000000 0.116620
#
#
# Mechanical properties :
#
#
# Convention : Reuss Voigt Hill
#
# Bulk Modulus (GPa) = 52.30694 52.45334 52.38014
# Shear Modulus (GPa) = 15.57449 19.38852 17.48151
#
# Velocity S-wave (km/s) = 3.03635 3.38779 3.21687
# Velocity P-wave (km/s) = 6.57692 6.80829 6.69361
#
# Compressibility (1/GPa) = 0.01911792
#
# Stress axis : x y z
#
# Youngs Moduli (GPa) = 80.52493 55.27677 49.29402
#
# Poissons Ratio (x) = 0.05261 0.22688
# Poissons Ratio (y) = 0.07665 0.50697
# Poissons Ratio (z) = 0.37062 0.56850
#
# Static dielectric constant tensor:
#      x y z
#    x 1.574150 0.000000 0.000000 
#    y 0.000000 1.581500 0.000000 
#    z 0.000000 0.000000 1.617010 
# 
# From -- ./inp_files/55766.got.cif
#   From: 2010.05.17/outbox.cif.g08.bks.cpg/sg66_28_cif.got.tgz:55766.got - 2010.06.03 17:51:23.
