data_PCOD9495529
_publ_section_title
;
Structure prediction by ZEFSAII (Michael W. Deem and Ramdas Pophale) SiO2 
 PCOD9495529
Probable space group: C C C M
;
_chemical_formula_sum "Si O2"
_cell_formula_units_Z 128
_cell_length_a 20.787240
_cell_length_b 19.773359
_cell_length_c 18.817072
_cell_angle_alpha 90.000000
_cell_angle_beta 90.000000
_cell_angle_gamma 90.000000
_cell_volume 7734.448077
_symmetry_space_group_name_H-M "C C C M"
_symmetry_group_IT_number 66
_symmetry_cell_setting 'orthorhombic'
loop_
_space_group_symop_operation_xyz
x,y,z
-x,-y,z
x,-y,1/2-z
-x,y,1/2-z
-x,-y,-z
x,y,-z
-x,y,1/2+z
x,-y,1/2+z
1/2+x,1/2+y,z
1/2-x,1/2-y,z
1/2+x,1/2-y,1/2-z
1/2-x,1/2+y,1/2-z
1/2-x,1/2-y,-z
1/2+x,1/2+y,-z
1/2-x,1/2+y,1/2+z
1/2+x,1/2-y,1/2+z
loop_
_atom_site_type_symbol
_atom_site_label
_atom_site_fract_x
_atom_site_fract_y
_atom_site_fract_z
Si Si1 0.327245 0.953296 0.916798
Si Si2 0.325455 0.167018 0.692068
Si Si3 0.943094 0.553977 0.084192
Si Si4 0.430226 0.524889 0.667317
Si Si5 0.178439 0.947262 0.916746
Si Si6 0.178844 0.178877 0.319443
Si Si7 0.439184 0.174041 0.803656
Si Si8 0.065847 0.172654 0.205757
O O1 0.341040 0.890236 0.865455
O O2 0.252249 0.970844 0.905617
O O3 0.376201 0.014285 0.902722
O O4 0.335022 0.934301 0.000000
O O5 0.249885 0.163817 0.712204
O O6 0.329637 0.242684 0.660002
O O7 0.374775 0.161106 0.757232
O O8 0.946937 0.619557 0.134027
O O9 0.000000 0.500000 0.099628
O O10 0.947157 0.570777 0.000000
O O11 0.500000 0.500000 0.642368
O O12 0.424899 0.500000 0.750000
O O13 0.372028 0.492271 0.625149
O O14 0.429211 0.605655 0.659482
O O15 0.172720 0.871882 0.884880
O O16 0.165399 0.947745 0.000000
O O17 0.124649 0.167361 0.260837
O O18 0.500000 0.169197 0.750000
O O19 0.434769 0.252600 0.828129
O O20 0.000000 0.166532 0.250000
#
# Coordination Sequence:
#
# PCOD9495529 Si02
#       8
#    16  16  16  16  16  16  16  16
#     4   9  19  34  50  72 105 139 171 212 261 312
#     4   9  18  30  49  76 103 132 170 214 256 311
#     4  10  21  38  56  74 103 142 177 214 266 318
#     4  11  19  33  55  77  99 137 174 205 251 313
#     4  10  20  33  50  76 107 135 172 217 256 304
#     4   9  17  31  48  73 105 133 170 205 260 314
#     4  10  21  34  53  79 104 129 168 222 258 301
#     4  10  18  33  52  74 102 133 166 209 258 303
#
# _framework density 16.549337999999999
#
# number of rings (size 3 to 8) (size 9 to 14) (size 15 to 20)
#    0.000    2.250    2.500    0.750    0.000    3.500 
#    0.000    3.125    0.000    9.000    0.000    9.625 
#    0.000    0.000    0.000    0.000    0.000    0.000 
#
# Total GULP energy -356655.189125 kJ/mol
# GULP energy per Si atom -5572.737330 kJ/mol
# Density = 1.651167 g / cm^3
# Si number density = 16.549338 Si / 1000 Ang^3
#
#
#
# Elastic Constant Matrix: (Units=GPa)
#
#
# Indices 1 2 3 4 5 6 
#
# 1 94.3197 64.2847 50.3383 0.0000 0.0000 0.0000
# 2 64.2847 122.0486 67.6734 0.0000 0.0000 0.0000
# 3 50.3383 67.6734 59.5406 0.0000 0.0000 0.0000
# 4 0.0000 0.0000 0.0000 18.3929 0.0000 0.0000
# 5 0.0000 0.0000 0.0000 0.0000 23.5418 0.0000
# 6 0.0000 0.0000 0.0000 0.0000 0.0000 16.9186
#
#
#
# Elastic Compliance Matrix: (Units=1/GPa)
#
#
# Indices 1 2 3 4 5 6 
#
# 1 0.019742 -0.003093 -0.013175 0.000000 0.000000 0.000000
# 2 -0.003093 0.022642 -0.023120 0.000000 0.000000 0.000000
# 3 -0.013175 -0.023120 0.054212 0.000000 0.000000 0.000000
# 4 0.000000 0.000000 0.000000 0.054369 0.000000 0.000000
# 5 0.000000 0.000000 0.000000 0.000000 0.042478 0.000000
# 6 0.000000 0.000000 0.000000 0.000000 0.000000 0.059106
#
#
# Mechanical properties :
#
#
# Convention : Reuss Voigt Hill
#
# Bulk Modulus (GPa) = 56.11707 71.16685 63.64196
# Shear Modulus (GPa) = 14.82512 18.01150 16.41831
#
# Velocity S-wave (km/s) = 2.99626 3.30260 3.15315
# Velocity P-wave (km/s) = 6.77884 7.59204 7.19693
#
# Compressibility (1/GPa) = 0.01781989
#
# Stress axis : x y z
#
# Youngs Moduli (GPa) = 50.65375 44.16560 18.44602
#
# Poissons Ratio (x) = 0.13660 0.24303
# Poissons Ratio (y) = 0.15667 0.42647
# Poissons Ratio (z) = 0.66738 1.02111
#
# Static dielectric constant tensor:
#      x y z
#    x 1.570460 0.000000 0.000000 
#    y 0.000000 1.568080 0.000000 
#    z 0.000000 0.000000 1.521400 
# 
# From -- ./inp_files/43203.got.cif
#   From: 2010.05.17/outbox.cif.g08.bks.cpg/sg66_22_cif.got.tgz:43203.got - 2010.06.03 17:51:23.
