data_PCOD9495781
_publ_section_title
;
Structure prediction by ZEFSAII (Michael W. Deem and Ramdas Pophale) SiO2 
 PCOD9495781
Probable space group: C C C M
;
_chemical_formula_sum "Si O2"
_cell_formula_units_Z 112
_cell_length_a 34.308822
_cell_length_b 5.139445
_cell_length_c 34.281385
_cell_angle_alpha 90.000000
_cell_angle_beta 90.000000
_cell_angle_gamma 90.000000
_cell_volume 6044.778465
_symmetry_space_group_name_H-M "C C C M"
_symmetry_group_IT_number 66
_symmetry_cell_setting 'orthorhombic'
loop_
_space_group_symop_operation_xyz
x,y,z
-x,-y,z
x,-y,1/2-z
-x,y,1/2-z
-x,-y,-z
x,y,-z
-x,y,1/2+z
x,-y,1/2+z
1/2+x,1/2+y,z
1/2-x,1/2-y,z
1/2+x,1/2-y,1/2-z
1/2-x,1/2+y,1/2-z
1/2-x,1/2-y,-z
1/2+x,1/2+y,-z
1/2-x,1/2+y,1/2+z
1/2+x,1/2-y,1/2+z
loop_
_atom_site_type_symbol
_atom_site_label
_atom_site_fract_x
_atom_site_fract_y
_atom_site_fract_z
Si Si1 0.089476 0.551017 0.207026
Si Si2 0.707619 0.821030 0.454363
Si Si3 0.864128 0.962903 0.182834
Si Si4 0.656081 0.302020 0.454905
Si Si5 0.046085 0.517061 0.872846
Si Si6 0.725469 0.499107 0.702778
Si Si7 0.592270 0.509292 0.896582
O O1 0.072949 0.500000 0.250000
O O2 0.118683 0.316187 0.195312
O O3 0.058073 0.571408 0.172296
O O4 0.114427 0.814719 0.207721
O O5 0.714907 0.897452 0.500000
O O6 0.750000 0.750000 0.437011
O O7 0.683289 0.556081 0.453752
O O8 0.680905 0.056765 0.438157
O O9 0.818194 0.984590 0.187436
O O10 0.876711 0.019452 0.138502
O O11 0.646963 0.239112 0.500000
O O12 0.616929 0.385861 0.432885
O O13 0.067862 0.741609 0.897961
O O14 0.000000 0.500000 0.877705
O O15 0.063435 0.238248 0.883827
O O16 0.722770 0.500000 0.750000
O O17 0.750000 0.750000 0.690694
O O18 0.750000 0.250000 0.690545
#
# Coordination Sequence:
#
# PCOD9495781 Si02
#       7
#    16  16  16  16  16  16  16
#     4  10  19  32  54  79 101 130 166 207 254 307
#     4   9  17  30  50  78 109 138 171 214 263 308
#     4  10  20  34  50  71 102 136 172 211 255 305
#     4  10  19  33  55  79 105 140 181 222 259 305
#     4  10  21  37  57  79 105 136 165 204 261 320
#     4  10  19  30  46  67  93 129 171 212 247 280
#     4  10  21  37  56  77 103 136 173 210 259 321
#
# _framework density 18.528386000000001
#
# number of rings (size 3 to 8) (size 9 to 14) (size 15 to 20)
#    0.000    2.143    0.000    3.857    0.000    3.143 
#    0.000    2.143    0.000    7.714    0.000    0.000 
#    0.000    0.000    0.000    0.000    0.000    0.000 
#
# Total GULP energy -312422.823425 kJ/mol
# GULP energy per Si atom -5578.978990 kJ/mol
# Density = 1.848621 g / cm^3
# Si number density = 18.528386 Si / 1000 Ang^3
#
#
#
# Elastic Constant Matrix: (Units=GPa)
#
#
# Indices 1 2 3 4 5 6 
#
# 1 106.8087 21.8601 16.9218 0.0000 0.0000 0.0000
# 2 21.8601 103.3887 -3.5553 0.0000 0.0000 0.0000
# 3 16.9218 -3.5553 32.8342 0.0000 0.0000 0.0000
# 4 0.0000 0.0000 0.0000 -0.6450 0.0000 0.0000
# 5 0.0000 0.0000 0.0000 0.0000 5.2411 0.0000
# 6 0.0000 0.0000 0.0000 0.0000 0.0000 18.5652
#
#
#
# Elastic Compliance Matrix: (Units=1/GPa)
#
#
# Indices 1 2 3 4 5 6 
#
# 1 0.010795 -0.002483 -0.005832 0.000000 0.000000 0.000000
# 2 -0.002483 0.010280 0.002393 0.000000 0.000000 0.000000
# 3 -0.005832 0.002393 0.033721 0.000000 0.000000 0.000000
# 4 0.000000 0.000000 0.000000 -1.550506 0.000000 0.000000
# 5 0.000000 0.000000 0.000000 0.000000 0.190801 0.000000
# 6 0.000000 0.000000 0.000000 0.000000 0.000000 0.053864
#
#
# Mechanical properties :
#
#
# Convention : Reuss Voigt Hill
#
# Bulk Modulus (GPa) = 23.28273 34.83164 29.05718
# Shear Modulus (GPa) = -4.08202 18.48592 7.20195
#
# Velocity S-wave (km/s) = -1.48590 3.16208 1.97368
# Velocity P-wave (km/s) = 3.10635 5.67200 4.57280
#
# Compressibility (1/GPa) = 0.04295030
#
# Stress axis : x y z
#
# Youngs Moduli (GPa) = 92.63811 97.28099 29.65527
#
# Poissons Ratio (x) = 0.24154 0.17295
# Poissons Ratio (y) = 0.23001 -0.07096
# Poissons Ratio (z) = 0.54028 -0.23276
#
# Static dielectric constant tensor:
#      x y z
#    x 2.277000 0.000000 0.000000 
#    y 0.000000 1.641990 0.000000 
#    z 0.000000 0.000000 1.675020 
# 
# From -- ./inp_files/70687.got.cif
#   From: 2010.05.17/outbox.cif.g08.bks.cpg/sg66_36_cif.got.tgz:70687.got - 2010.06.03 17:51:23.
