data_PCOD9495773
_publ_section_title
;
Structure prediction by ZEFSAII (Michael W. Deem and Ramdas Pophale) SiO2 
 PCOD9495773
Probable space group: C C C M
;
_chemical_formula_sum "Si O2"
_cell_formula_units_Z 64
_cell_length_a 27.739805
_cell_length_b 5.333474
_cell_length_c 21.752372
_cell_angle_alpha 90.000000
_cell_angle_beta 90.000000
_cell_angle_gamma 90.000000
_cell_volume 3218.253186
_symmetry_space_group_name_H-M "C C C M"
_symmetry_group_IT_number 66
_symmetry_cell_setting 'orthorhombic'
loop_
_space_group_symop_operation_xyz
x,y,z
-x,-y,z
x,-y,1/2-z
-x,y,1/2-z
-x,-y,-z
x,y,-z
-x,y,1/2+z
x,-y,1/2+z
1/2+x,1/2+y,z
1/2-x,1/2-y,z
1/2+x,1/2-y,1/2-z
1/2-x,1/2+y,1/2-z
1/2-x,1/2-y,-z
1/2+x,1/2+y,-z
1/2-x,1/2+y,1/2+z
1/2+x,1/2-y,1/2+z
loop_
_atom_site_type_symbol
_atom_site_label
_atom_site_fract_x
_atom_site_fract_y
_atom_site_fract_z
Si Si1 0.717281 0.002244 0.566354
Si Si2 0.805742 0.675390 0.693311
Si Si3 0.393990 0.502094 0.821419
Si Si4 0.056206 0.500033 0.674804
O O1 0.691256 0.006978 0.500000
O O2 0.750000 0.250000 0.568806
O O3 0.750000 0.750000 0.566117
O O4 0.689916 0.980980 0.630433
O O5 0.822563 0.500000 0.750000
O O6 0.750000 0.750000 0.704207
O O7 0.837635 0.923692 0.682051
O O8 0.409323 0.500000 0.750000
O O9 0.413998 0.243000 0.847049
O O10 0.419625 0.745789 0.848999
O O11 0.058497 0.500000 0.750000
O O12 0.000000 0.500000 0.658517
#
# Coordination Sequence:
#
# PCOD9495773 Si02
#       4
#    16  16  16  16
#     4   9  19  35  52  69  94 135 186 231 264 300
#     4  11  21  32  50  75 110 148 181 214 262 318
#     4  10  19  30  44  68  99 130 169 211 252 309
#     4   9  17  30  47  65  91 129 169 209 260 313
#
# _framework density 19.886565999999998
#
# number of rings (size 3 to 8) (size 9 to 14) (size 15 to 20)
#    0.000    2.250    0.000    4.500    0.000    9.000 
#    0.000    0.000    0.000    0.000    0.000    0.000 
#    0.000    6.000    0.000    0.000    0.000   55.500 
#
# Total GULP energy -178371.091517 kJ/mol
# GULP energy per Si atom -5574.096610 kJ/mol
# Density = 1.984130 g / cm^3
# Si number density = 19.886566 Si / 1000 Ang^3
#
#
#
# Elastic Constant Matrix: (Units=GPa)
#
#
# Indices 1 2 3 4 5 6 
#
# 1 133.9740 75.7510 -7.1260 0.0000 0.0000 0.0000
# 2 75.7510 175.2746 16.9933 0.0000 0.0000 0.0000
# 3 -7.1260 16.9933 110.3990 0.0000 0.0000 0.0000
# 4 0.0000 0.0000 0.0000 17.5029 0.0000 0.0000
# 5 0.0000 0.0000 0.0000 0.0000 -0.9586 0.0000
# 6 0.0000 0.0000 0.0000 0.0000 0.0000 29.8507
#
#
#
# Elastic Compliance Matrix: (Units=1/GPa)
#
#
# Indices 1 2 3 4 5 6 
#
# 1 0.010069 -0.004482 0.001340 0.000000 0.000000 0.000000
# 2 -0.004482 0.007787 -0.001488 0.000000 0.000000 0.000000
# 3 0.001340 -0.001488 0.009374 0.000000 0.000000 0.000000
# 4 0.000000 0.000000 0.000000 0.057133 0.000000 0.000000
# 5 0.000000 0.000000 0.000000 0.000000 -1.043165 0.000000
# 6 0.000000 0.000000 0.000000 0.000000 0.000000 0.033500
#
#
# Mechanical properties :
#
#
# Convention : Reuss Voigt Hill
#
# Bulk Modulus (GPa) = 55.64836 65.65380 60.65108
# Shear Modulus (GPa) = -5.49419 31.54760 13.02671
#
# Velocity S-wave (km/s) = -1.66396 3.98726 2.56217
# Velocity P-wave (km/s) = 4.93477 7.36773 6.27038
#
# Compressibility (1/GPa) = 0.01796998
#
# Stress axis : x y z
#
# Youngs Moduli (GPa) = 99.31016 128.42678 106.68311
#
# Poissons Ratio (x) = 0.57558 -0.14294
# Poissons Ratio (y) = 0.44509 0.15873
# Poissons Ratio (z) = -0.13306 0.19108
#
# Static dielectric constant tensor:
#      x y z
#    x 1.733560 0.000000 0.000000 
#    y 0.000000 1.774840 0.000000 
#    z 0.000000 0.000000 1.719430 
# 
# From -- ./inp_files/60276.got.cif
#   From: 2010.05.17/outbox.cif.g08.bks.cpg/sg66_31_cif.got.tgz:60276.got - 2010.06.03 17:51:23.
