data_PCOD9495377
_publ_section_title
;
Structure prediction by ZEFSAII (Michael W. Deem and Ramdas Pophale) SiO2 
 PCOD9495377
Probable space group: C C C M
;
_chemical_formula_sum "Si O2"
_cell_formula_units_Z 80
_cell_length_a 14.671721
_cell_length_b 17.636787
_cell_length_c 18.441558
_cell_angle_alpha 90.000000
_cell_angle_beta 90.000000
_cell_angle_gamma 90.000000
_cell_volume 4771.974767
_symmetry_space_group_name_H-M "C C C M"
_symmetry_group_IT_number 66
_symmetry_cell_setting 'orthorhombic'
loop_
_space_group_symop_operation_xyz
x,y,z
-x,-y,z
x,-y,1/2-z
-x,y,1/2-z
-x,-y,-z
x,y,-z
-x,y,1/2+z
x,-y,1/2+z
1/2+x,1/2+y,z
1/2-x,1/2-y,z
1/2+x,1/2-y,1/2-z
1/2-x,1/2+y,1/2-z
1/2-x,1/2-y,-z
1/2+x,1/2+y,-z
1/2-x,1/2+y,1/2+z
1/2+x,1/2-y,1/2+z
loop_
_atom_site_type_symbol
_atom_site_label
_atom_site_fract_x
_atom_site_fract_y
_atom_site_fract_z
Si Si1 0.814023 0.821655 0.917630
Si Si2 0.493452 0.774887 0.417709
Si Si3 0.852452 0.226065 0.192320
Si Si4 0.210628 0.082578 0.221170
Si Si5 0.586812 0.136668 0.707958
O O1 0.750000 0.750000 0.893864
O O2 0.915205 0.788558 0.920065
O O3 0.811064 0.889636 0.860543
O O4 0.785172 0.841596 0.000000
O O5 0.517196 0.795967 0.500000
O O6 0.578341 0.741226 0.373082
O O7 0.447514 0.844161 0.372853
O O8 0.750000 0.250000 0.171791
O O9 0.839341 0.143319 0.226610
O O10 0.889596 0.281639 0.255532
O O11 0.320799 0.091188 0.220791
O O12 0.186025 0.000000 0.250000
O O13 0.500000 0.103973 0.750000
#
# Coordination Sequence:
#
# PCOD9495377 Si02
#       5
#    16  16  16  16  16
#     4  10  18  32  55  81 104 131 180 233 267 303
#     4  10  18  30  56  81  99 130 178 230 269 304
#     4   9  18  34  51  74 104 137 179 222 263 318
#     4  11  20  32  51  78 110 145 173 212 278 330
#     4   9  17  32  54  75 101 129 178 233 260 307
#
# _framework density 16.764547
#
# number of rings (size 3 to 8) (size 9 to 14) (size 15 to 20)
#    0.000    2.200    4.000    0.600    0.000    0.800 
#    0.000    3.000    0.000    7.200    0.000   14.000 
#    0.000    0.000    0.000    0.000    0.000    0.000 
#
# Total GULP energy -222738.194038 kJ/mol
# GULP energy per Si atom -5568.454851 kJ/mol
# Density = 1.672639 g / cm^3
# Si number density = 16.764547 Si / 1000 Ang^3
#
#
#
# Elastic Constant Matrix: (Units=GPa)
#
#
# Indices 1 2 3 4 5 6 
#
# 1 60.6482 -3.6382 20.9593 0.0000 0.0000 0.0000
# 2 -3.6382 70.7966 33.2738 0.0000 0.0000 0.0000
# 3 20.9593 33.2738 124.2218 0.0000 0.0000 0.0000
# 4 0.0000 0.0000 0.0000 16.8245 0.0000 0.0000
# 5 0.0000 0.0000 0.0000 0.0000 22.4016 0.0000
# 6 0.0000 0.0000 0.0000 0.0000 0.0000 8.7076
#
#
#
# Elastic Compliance Matrix: (Units=1/GPa)
#
#
# Indices 1 2 3 4 5 6 
#
# 1 0.017944 0.002683 -0.003746 0.000000 0.000000 0.000000
# 2 0.002683 0.016560 -0.004889 0.000000 0.000000 0.000000
# 3 -0.003746 -0.004889 0.009992 0.000000 0.000000 0.000000
# 4 0.000000 0.000000 0.000000 0.059437 0.000000 0.000000
# 5 0.000000 0.000000 0.000000 0.000000 0.044640 0.000000
# 6 0.000000 0.000000 0.000000 0.000000 0.000000 0.114842
#
#
# Mechanical properties :
#
#
# Convention : Reuss Voigt Hill
#
# Bulk Modulus (GPa) = 30.68202 39.65072 35.16637
# Shear Modulus (GPa) = 17.47135 23.25818 20.36477
#
# Velocity S-wave (km/s) = 3.23175 3.72875 3.48911
# Velocity P-wave (km/s) = 5.68041 6.49930 6.10361
#
# Compressibility (1/GPa) = 0.03259238
#
# Stress axis : x y z
#
# Youngs Moduli (GPa) = 55.72849 60.38500 100.08373
#
# Poissons Ratio (x) = -0.16200 0.37494
# Poissons Ratio (y) = -0.14951 0.48926
# Poissons Ratio (z) = 0.20877 0.29519
#
# Static dielectric constant tensor:
#      x y z
#    x 1.596900 0.000000 0.000000 
#    y 0.000000 1.551620 0.000000 
#    z 0.000000 0.000000 1.606980 
# 
# From -- ./inp_files/40191.got.cif
#   From: 2010.05.17/outbox.cif.g08.bks.cpg/sg66_21_cif.got.tgz:40191.got - 2010.06.03 17:51:23.
