data_PCOD9495706
_publ_section_title
;
Structure prediction by ZEFSAII (Michael W. Deem and Ramdas Pophale) SiO2 
 PCOD9495706
Probable space group: C C C M
;
_chemical_formula_sum "Si O2"
_cell_formula_units_Z 64
_cell_length_a 9.962591
_cell_length_b 9.995601
_cell_length_c 32.415382
_cell_angle_alpha 90.000000
_cell_angle_beta 90.000000
_cell_angle_gamma 90.000000
_cell_volume 3227.991311
_symmetry_space_group_name_H-M "C C C M"
_symmetry_group_IT_number 66
_symmetry_cell_setting 'orthorhombic'
loop_
_space_group_symop_operation_xyz
x,y,z
-x,-y,z
x,-y,1/2-z
-x,y,1/2-z
-x,-y,-z
x,y,-z
-x,y,1/2+z
x,-y,1/2+z
1/2+x,1/2+y,z
1/2-x,1/2-y,z
1/2+x,1/2-y,1/2-z
1/2-x,1/2+y,1/2-z
1/2-x,1/2-y,-z
1/2+x,1/2+y,-z
1/2-x,1/2+y,1/2+z
1/2+x,1/2-y,1/2+z
loop_
_atom_site_type_symbol
_atom_site_label
_atom_site_fract_x
_atom_site_fract_y
_atom_site_fract_z
Si Si1 0.906727 0.208725 0.500000
Si Si2 0.500000 0.000000 0.151113
Si Si3 0.226840 0.407380 0.410485
Si Si4 0.000000 0.000000 0.429873
Si Si5 0.132938 0.359095 0.773427
Si Si6 0.655254 0.115806 0.000000
O O1 0.750000 0.250000 0.500000
O O2 0.956249 0.121347 0.460437
O O3 0.002459 0.337472 0.500000
O O4 0.611321 0.063343 0.121627
O O5 0.420051 0.100445 0.181289
O O6 0.250000 0.250000 0.412137
O O7 0.371420 0.469980 0.402216
O O8 0.189458 0.453809 0.456965
O O9 0.169424 0.500000 0.750000
O O10 0.250000 0.250000 0.773193
O O11 0.000000 0.307182 0.750000
O O12 0.750000 0.250000 0.000000
#
# Coordination Sequence:
#
# PCOD9495706 Si02
#       6
#     8   8  16   8  16   8
#     4  11  22  36  58  83 103 149 229 286 314 368
#     4  10  25  39  62  98 132 166 200 259 315 384
#     4  11  23  40  57  83 126 167 217 269 316 362
#     4  11  22  38  56  80 111 158 214 270 323 368
#     4   9  21  45  72 102 133 162 204 251 307 389
#     4  10  18  40  56  75 119 166 219 283 307 354
#
# _framework density 19.826571999999999
#
# number of rings (size 3 to 8) (size 9 to 14) (size 15 to 20)
#    0.000    2.000    5.000    0.750    3.500    7.000 
#    0.000    0.000    0.000    0.000    0.000    0.000 
#    0.000    0.000    0.000    0.000    0.000    0.000 
#
# Total GULP energy -178629.561242 kJ/mol
# GULP energy per Si atom -5582.173789 kJ/mol
# Density = 1.978145 g / cm^3
# Si number density = 19.826572 Si / 1000 Ang^3
#
#
#
# Elastic Constant Matrix: (Units=GPa)
#
#
# Indices 1 2 3 4 5 6 
#
# 1 197.1905 79.3876 69.1542 0.0000 0.0000 0.0000
# 2 79.3876 70.1662 40.6569 0.0000 0.0000 0.0000
# 3 69.1542 40.6569 126.3068 0.0000 0.0000 0.0000
# 4 0.0000 0.0000 0.0000 -1.0713 0.0000 0.0000
# 5 0.0000 0.0000 0.0000 0.0000 21.6299 0.0000
# 6 0.0000 0.0000 0.0000 0.0000 0.0000 50.9750
#
#
#
# Elastic Compliance Matrix: (Units=1/GPa)
#
#
# Indices 1 2 3 4 5 6 
#
# 1 0.009789 -0.009798 -0.002206 0.000000 0.000000 0.000000
# 2 -0.009798 0.027325 -0.003431 0.000000 0.000000 0.000000
# 3 -0.002206 -0.003431 0.010230 0.000000 0.000000 0.000000
# 4 0.000000 0.000000 0.000000 -0.933424 0.000000 0.000000
# 5 0.000000 0.000000 0.000000 0.000000 0.046232 0.000000
# 6 0.000000 0.000000 0.000000 0.000000 0.000000 0.019617
#
#
# Mechanical properties :
#
#
# Convention : Reuss Voigt Hill
#
# Bulk Modulus (GPa) = 60.70115 85.78456 73.24285
# Shear Modulus (GPa) = -6.37863 27.93771 10.77954
#
# Velocity S-wave (km/s) = -1.79560 3.75788 2.33425
# Velocity P-wave (km/s) = 5.13650 7.88608 6.65484
#
# Compressibility (1/GPa) = 0.01647415
#
# Stress axis : x y z
#
# Youngs Moduli (GPa) = 102.15190 36.59590 97.75558
#
# Poissons Ratio (x) = 0.35855 0.21565
# Poissons Ratio (y) = 1.00085 0.33545
# Poissons Ratio (z) = 0.22535 0.12558
#
# Static dielectric constant tensor:
#      x y z
#    x 1.709610 0.000000 0.000000 
#    y 0.000000 1.744070 0.000000 
#    z 0.000000 0.000000 1.717110 
# 
# From -- ./inp_files/67979.got.cif
#   From: 2010.05.17/outbox.cif.g08.bks.cpg/sg66_34_cif.got.tgz:67979.got - 2010.06.03 17:51:23.
