data_PCOD9495292
_publ_section_title
;
Structure prediction by ZEFSAII (Michael W. Deem and Ramdas Pophale) SiO2 
 PCOD9495292
Probable space group: C C C M
;
_chemical_formula_sum "Si O2"
_cell_formula_units_Z 96
_cell_length_a 31.489460
_cell_length_b 12.210882
_cell_length_c 16.026635
_cell_angle_alpha 90.000000
_cell_angle_beta 90.000000
_cell_angle_gamma 90.000000
_cell_volume 6162.466817
_symmetry_space_group_name_H-M "C C C M"
_symmetry_group_IT_number 66
_symmetry_cell_setting 'orthorhombic'
loop_
_space_group_symop_operation_xyz
x,y,z
-x,-y,z
x,-y,1/2-z
-x,y,1/2-z
-x,-y,-z
x,y,-z
-x,y,1/2+z
x,-y,1/2+z
1/2+x,1/2+y,z
1/2-x,1/2-y,z
1/2+x,1/2-y,1/2-z
1/2-x,1/2+y,1/2-z
1/2-x,1/2-y,-z
1/2+x,1/2+y,-z
1/2-x,1/2+y,1/2+z
1/2+x,1/2-y,1/2+z
loop_
_atom_site_type_symbol
_atom_site_label
_atom_site_fract_x
_atom_site_fract_y
_atom_site_fract_z
Si Si1 0.763304 0.428699 0.500000
Si Si2 0.608469 0.402942 0.904588
Si Si3 0.231525 0.571853 0.166317
Si Si4 0.547625 0.631904 0.260513
Si Si5 0.681897 0.707787 0.674739
Si Si6 0.178689 0.212934 0.000000
Si Si7 0.370897 0.644338 0.661322
O O1 0.771347 0.498713 0.416612
O O2 0.794564 0.324526 0.500000
O O3 0.714733 0.382836 0.500000
O O4 0.569294 0.356087 0.851032
O O5 0.647417 0.319873 0.895326
O O6 0.624801 0.515511 0.861263
O O7 0.597525 0.425392 0.000000
O O8 0.230241 0.500000 0.250000
O O9 0.276430 0.634659 0.162720
O O10 0.196137 0.666500 0.172719
O O11 0.545491 0.500000 0.250000
O O12 0.500000 0.675025 0.250000
O O13 0.581864 0.675474 0.193299
O O14 0.660153 0.671236 0.761736
O O15 0.149000 0.201273 0.919205
#
# Coordination Sequence:
#
# PCOD9495292 Si02
#       7
#     8  16  16  16  16   8  16
#     4  11  24  33  50  70 103 132 171 217 245 287
#     4  10  18  29  49  75  97 132 166 197 238 294
#     4  11  22  35  48  71  96 133 170 211 250 283
#     4   8  16  31  45  68 105 131 157 193 241 288
#     4  10  21  32  51  65 100 130 169 203 247 284
#     4  11  20  34  50  71  97 133 175 202 245 286
#     4  10  18  32  51  72  95 137 165 202 234 300
#
# _framework density 15.578175999999999
#
# number of rings (size 3 to 8) (size 9 to 14) (size 15 to 20)
#    0.000    2.000    0.833    5.500    2.333    3.333 
#    1.500    1.667    0.000    0.000    0.000    0.000 
#    0.000   48.000    0.000    0.000    0.000    0.000 
#
# Total GULP energy -267580.191477 kJ/mol
# GULP energy per Si atom -5574.587322 kJ/mol
# Density = 1.554272 g / cm^3
# Si number density = 15.578176 Si / 1000 Ang^3
#
#
#
# Elastic Constant Matrix: (Units=GPa)
#
#
# Indices 1 2 3 4 5 6 
#
# 1 116.4632 35.7826 49.7076 0.0000 0.0000 0.0000
# 2 35.7826 70.5992 42.9537 0.0000 0.0000 0.0000
# 3 49.7076 42.9537 129.6498 0.0000 0.0000 0.0000
# 4 0.0000 0.0000 0.0000 4.7805 0.0000 0.0000
# 5 0.0000 0.0000 0.0000 0.0000 9.4160 0.0000
# 6 0.0000 0.0000 0.0000 0.0000 0.0000 16.2273
#
#
#
# Elastic Compliance Matrix: (Units=1/GPa)
#
#
# Indices 1 2 3 4 5 6 
#
# 1 0.011015 -0.003774 -0.002973 0.000000 0.000000 0.000000
# 2 -0.003774 0.019034 -0.004859 0.000000 0.000000 0.000000
# 3 -0.002973 -0.004859 0.010463 0.000000 0.000000 0.000000
# 4 0.000000 0.000000 0.000000 0.209183 0.000000 0.000000
# 5 0.000000 0.000000 0.000000 0.000000 0.106202 0.000000
# 6 0.000000 0.000000 0.000000 0.000000 0.000000 0.061625
#
#
# Mechanical properties :
#
#
# Convention : Reuss Voigt Hill
#
# Bulk Modulus (GPa) = 57.80515 63.73334 60.76925
# Shear Modulus (GPa) = 11.19823 18.63597 14.91710
#
# Velocity S-wave (km/s) = 2.68403 3.46249 3.09781
# Velocity P-wave (km/s) = 6.84050 7.54890 7.20341
#
# Compressibility (1/GPa) = 0.01729950
#
# Stress axis : x y z
#
# Youngs Moduli (GPa) = 90.78750 52.53867 95.57866
#
# Poissons Ratio (x) = 0.19829 0.28412
# Poissons Ratio (y) = 0.34264 0.46441
# Poissons Ratio (z) = 0.26988 0.25528
#
# Static dielectric constant tensor:
#      x y z
#    x 1.524110 0.000000 0.000000 
#    y 0.000000 1.503290 0.000000 
#    z 0.000000 0.000000 1.545900 
# 
# From -- ./inp_files/26926.got.cif
#   From: 2010.05.17/outbox.cif.g08.bks.cpg/sg66_14_cif.got.tgz:26926.got - 2010.06.03 17:51:23.
