data_PCOD9495015
_publ_section_title
;
Structure prediction by ZEFSAII (Michael W. Deem and Ramdas Pophale) SiO2 
 PCOD9495015
Probable space group: C C C M
;
_chemical_formula_sum "Si O2"
_cell_formula_units_Z 112
_cell_length_a 12.268080
_cell_length_b 29.901580
_cell_length_c 15.491666
_cell_angle_alpha 90.000000
_cell_angle_beta 90.000000
_cell_angle_gamma 90.000000
_cell_volume 5682.884919
_symmetry_space_group_name_H-M "C C C M"
_symmetry_group_IT_number 66
_symmetry_cell_setting 'orthorhombic'
loop_
_space_group_symop_operation_xyz
x,y,z
-x,-y,z
x,-y,1/2-z
-x,y,1/2-z
-x,-y,-z
x,y,-z
-x,y,1/2+z
x,-y,1/2+z
1/2+x,1/2+y,z
1/2-x,1/2-y,z
1/2+x,1/2-y,1/2-z
1/2-x,1/2+y,1/2-z
1/2-x,1/2-y,-z
1/2+x,1/2+y,-z
1/2-x,1/2+y,1/2+z
1/2+x,1/2-y,1/2+z
loop_
_atom_site_type_symbol
_atom_site_label
_atom_site_fract_x
_atom_site_fract_y
_atom_site_fract_z
Si Si1 0.021727 0.653262 0.398956
Si Si2 0.240826 0.892611 0.397876
Si Si3 0.179914 0.795256 0.905060
Si Si4 0.873456 0.825820 0.225679
Si Si5 0.450159 0.063771 0.656514
Si Si6 0.939428 0.246571 0.400479
Si Si7 0.163566 0.516984 0.402256
O O1 0.995143 0.656864 0.500000
O O2 0.141529 0.631621 0.389526
O O3 0.031090 0.703869 0.366755
O O4 0.939719 0.616425 0.360331
O O5 0.211843 0.890521 0.500000
O O6 0.162299 0.865922 0.335607
O O7 0.255943 0.944255 0.371111
O O8 0.250000 0.750000 0.899963
O O9 0.192541 0.821954 0.815575
O O10 0.053657 0.779874 0.905890
O O11 0.203990 0.816110 0.000000
O O12 0.865608 0.781004 0.166297
O O13 0.000000 0.830778 0.250000
O O14 0.500000 0.058216 0.750000
O O15 0.546278 0.042960 0.597066
O O16 0.350925 0.029597 0.646815
O O17 0.896329 0.249596 0.500000
O O18 0.192296 0.505862 0.500000
#
# Coordination Sequence:
#
# PCOD9495015 Si02
#       7
#    16  16  16  16  16  16  16
#     4   9  18  31  46  72 107 142 172 207 257 314
#     4   9  18  31  49  74 100 128 171 221 268 316
#     4   9  19  34  48  62  89 137 184 216 251 305
#     4  10  20  32  49  72  97 133 177 222 273 311
#     4  10  17  26  44  70 103 139 171 197 238 305
#     4   9  18  32  49  71 102 137 178 221 266 314
#     4   9  16  29  46  64  93 132 166 203 252 305
#
# _framework density 19.708300000000001
#
# number of rings (size 3 to 8) (size 9 to 14) (size 15 to 20)
#    0.000    2.714    0.000    3.857    2.000    2.286 
#    2.571    2.143    0.000    0.000    0.000    1.000 
#    0.000    9.143    0.000   50.286   18.286    0.000 
#
# Total GULP energy -312033.317674 kJ/mol
# GULP energy per Si atom -5572.023530 kJ/mol
# Density = 1.966344 g / cm^3
# Si number density = 19.708300 Si / 1000 Ang^3
#
#
#
# Elastic Constant Matrix: (Units=GPa)
#
#
# Indices 1 2 3 4 5 6 
#
# 1 22.2607 20.0515 28.0581 0.0000 0.0000 0.0000
# 2 20.0515 140.4010 70.8280 0.0000 0.0000 0.0000
# 3 28.0581 70.8280 117.7427 0.0000 0.0000 0.0000
# 4 0.0000 0.0000 0.0000 177.2142 0.0000 0.0000
# 5 0.0000 0.0000 0.0000 0.0000 0.1614 0.0000
# 6 0.0000 0.0000 0.0000 0.0000 0.0000 22.0140
#
#
#
# Elastic Compliance Matrix: (Units=1/GPa)
#
#
# Indices 1 2 3 4 5 6 
#
# 1 0.064635 -0.002097 -0.014141 0.000000 0.000000 0.000000
# 2 -0.002097 0.010294 -0.005692 0.000000 0.000000 0.000000
# 3 -0.014141 -0.005692 0.015287 0.000000 0.000000 0.000000
# 4 0.000000 0.000000 0.000000 0.005643 0.000000 0.000000
# 5 0.000000 0.000000 0.000000 0.000000 6.194307 0.000000
# 6 0.000000 0.000000 0.000000 0.000000 0.000000 0.045426
#
#
# Mechanical properties :
#
#
# Convention : Reuss Voigt Hill
#
# Bulk Modulus (GPa) = 21.57280 57.58665 39.57972
# Shear Modulus (GPa) = 0.78187 50.64238 25.71213
#
# Velocity S-wave (km/s) = 0.63054 5.07462 3.61589
# Velocity P-wave (km/s) = 3.39115 7.97613 6.12856
#
# Compressibility (1/GPa) = 0.04635467
#
# Stress axis : x y z
#
# Youngs Moduli (GPa) = 15.47149 97.14798 65.41464
#
# Poissons Ratio (x) = 0.20374 0.92503
# Poissons Ratio (y) = 0.03245 0.37236
# Poissons Ratio (z) = 0.21878 0.55300
#
# Static dielectric constant tensor:
#      x y z
#    x 1.723530 0.000000 0.000000 
#    y 0.000000 1.735260 0.000000 
#    z 0.000000 0.000000 1.776870 
# 
# From -- ./inp_files/26992.got.cif
#   From: 2010.05.17/outbox.cif.g08.bks.cpg/sg66_14_cif.got.tgz:26992.got - 2010.06.03 17:51:23.
