data_PCOD9495454
_publ_section_title
;
Structure prediction by ZEFSAII (Michael W. Deem and Ramdas Pophale) SiO2 
 PCOD9495454
Probable space group: C C C M
;
_chemical_formula_sum "Si O2"
_cell_formula_units_Z 72
_cell_length_a 5.538206
_cell_length_b 18.791547
_cell_length_c 28.672454
_cell_angle_alpha 90.000000
_cell_angle_beta 90.000000
_cell_angle_gamma 90.000000
_cell_volume 2983.984102
_symmetry_space_group_name_H-M "C C C M"
_symmetry_group_IT_number 66
_symmetry_cell_setting 'orthorhombic'
loop_
_space_group_symop_operation_xyz
x,y,z
-x,-y,z
x,-y,1/2-z
-x,y,1/2-z
-x,-y,-z
x,y,-z
-x,y,1/2+z
x,-y,1/2+z
1/2+x,1/2+y,z
1/2-x,1/2-y,z
1/2+x,1/2-y,1/2-z
1/2-x,1/2+y,1/2-z
1/2-x,1/2-y,-z
1/2+x,1/2+y,-z
1/2-x,1/2+y,1/2+z
1/2+x,1/2-y,1/2+z
loop_
_atom_site_type_symbol
_atom_site_label
_atom_site_fract_x
_atom_site_fract_y
_atom_site_fract_z
Si Si1 0.258190 0.080799 0.268990
Si Si2 0.999352 0.246862 0.167872
Si Si3 0.493057 0.295192 0.000000
Si Si4 0.059421 0.599390 0.126928
Si Si5 0.456268 0.617455 0.404910
O O1 0.500000 0.118016 0.250000
O O2 0.331199 0.075166 0.323203
O O3 0.000000 0.110211 0.250000
O O4 0.253413 0.000000 0.250000
O O5 0.750000 0.250000 0.195018
O O6 0.979544 0.314820 0.133101
O O7 0.250000 0.250000 0.193928
O O8 0.013618 0.176235 0.136484
O O9 0.250000 0.250000 0.000000
O O10 0.458166 0.342126 0.953698
O O11 0.750000 0.250000 0.000000
O O12 0.282469 0.580025 0.094107
O O13 0.792478 0.577660 0.109397
#
# Coordination Sequence:
#
# PCOD9495454 Si02
#       5
#    16  16   8  16  16
#     4  10  21  37  57  81 106 128 172 244 306 358
#     4   8  14  25  41  63  92 134 176 201 238 306
#     4  12  20  30  48  78 118 158 204 240 258 298
#     4  10  18  32  51  72 104 143 177 222 283 337
#     4  10  19  30  48  75 109 152 188 217 259 320
#
# _framework density 24.128817000000002
#
# number of rings (size 3 to 8) (size 9 to 14) (size 15 to 20)
#    0.000    2.222    0.000    6.667    0.000    0.000 
#    0.000    0.000    0.000   24.000    0.000    0.000 
#    0.000   71.111    0.000    0.000    0.000    0.000 
#
# Total GULP energy -200455.821091 kJ/mol
# GULP energy per Si atom -5568.217253 kJ/mol
# Density = 2.407390 g / cm^3
# Si number density = 24.128817 Si / 1000 Ang^3
#
#
#
# Elastic Constant Matrix: (Units=GPa)
#
#
# Indices 1 2 3 4 5 6 
#
# 1 353.8552 39.5028 70.2607 0.0000 0.0000 0.0000
# 2 39.5028 84.3965 20.1410 0.0000 0.0000 0.0000
# 3 70.2607 20.1410 134.9045 0.0000 0.0000 0.0000
# 4 0.0000 0.0000 0.0000 -1.3736 0.0000 0.0000
# 5 0.0000 0.0000 0.0000 0.0000 33.3823 0.0000
# 6 0.0000 0.0000 0.0000 0.0000 0.0000 -8.2045
#
#
#
# Elastic Compliance Matrix: (Units=1/GPa)
#
#
# Indices 1 2 3 4 5 6 
#
# 1 0.003258 -0.001161 -0.001524 0.000000 0.000000 0.000000
# 2 -0.001161 0.012701 -0.001291 0.000000 0.000000 0.000000
# 3 -0.001524 -0.001291 0.008399 0.000000 0.000000 0.000000
# 4 0.000000 0.000000 0.000000 -0.728040 0.000000 0.000000
# 5 0.000000 0.000000 0.000000 0.000000 0.029956 0.000000
# 6 0.000000 0.000000 0.000000 0.000000 0.000000 -0.121885
#
#
# Mechanical properties :
#
#
# Convention : Reuss Voigt Hill
#
# Bulk Modulus (GPa) = 60.95614 92.55167 76.75391
# Shear Modulus (GPa) = -6.39231 34.31097 13.95933
#
# Velocity S-wave (km/s) = -1.62942 3.77502 2.40788
# Velocity P-wave (km/s) = 4.66665 7.57903 6.29362
#
# Compressibility (1/GPa) = 0.01640524
#
# Stress axis : x y z
#
# Youngs Moduli (GPa) = 306.91987 78.73631 119.06302
#
# Poissons Ratio (x) = 0.09145 0.18139
# Poissons Ratio (y) = 0.35647 0.15374
# Poissons Ratio (z) = 0.46760 0.10167
#
# Static dielectric constant tensor:
#      x y z
#    x 2.140050 0.000000 0.000000 
#    y 0.000000 2.145100 0.000000 
#    z 0.000000 0.000000 1.926160 
# 
# From -- ./inp_files/61526.got.cif
#   From: 2010.05.17/outbox.cif.g08.bks.cpg/sg66_31_cif.got.tgz:61526.got - 2010.06.03 17:51:23.
