data_PCOD9495708
_publ_section_title
;
Structure prediction by ZEFSAII (Michael W. Deem and Ramdas Pophale) SiO2 
 PCOD9495708
Probable space group: C C C M
;
_chemical_formula_sum "Si O2"
_cell_formula_units_Z 56
_cell_length_a 5.469430
_cell_length_b 17.288108
_cell_length_c 28.465487
_cell_angle_alpha 90.000000
_cell_angle_beta 90.000000
_cell_angle_gamma 90.000000
_cell_volume 2691.585337
_symmetry_space_group_name_H-M "C C C M"
_symmetry_group_IT_number 66
_symmetry_cell_setting 'orthorhombic'
loop_
_space_group_symop_operation_xyz
x,y,z
-x,-y,z
x,-y,1/2-z
-x,y,1/2-z
-x,-y,-z
x,y,-z
-x,y,1/2+z
x,-y,1/2+z
1/2+x,1/2+y,z
1/2-x,1/2-y,z
1/2+x,1/2-y,1/2-z
1/2-x,1/2+y,1/2-z
1/2-x,1/2-y,-z
1/2+x,1/2+y,-z
1/2-x,1/2+y,1/2+z
1/2+x,1/2-y,1/2+z
loop_
_atom_site_type_symbol
_atom_site_label
_atom_site_fract_x
_atom_site_fract_y
_atom_site_fract_z
Si Si1 0.647062 0.920108 0.321392
Si Si2 0.001763 0.701098 0.500000
Si Si3 0.000000 0.000000 0.250000
Si Si4 0.000000 0.000000 0.500000
Si Si5 0.661597 0.078752 0.072158
Si Si6 0.000000 0.298524 0.750000
O O1 0.722950 0.900562 0.374316
O O2 0.495108 0.853193 0.296054
O O3 0.500000 0.000000 0.325018
O O4 0.855142 0.943164 0.284593
O O5 0.750000 0.750000 0.500000
O O6 0.988259 0.645112 0.454616
O O7 0.250000 0.750000 0.500000
O O8 0.895784 0.941060 0.459102
O O9 0.500000 0.000000 0.069891
O O10 0.750000 0.250000 0.752219
#
# Coordination Sequence:
#
# PCOD9495708 Si02
#       6
#    16   8   4   4  16   8
#     4  11  23  43  68 101 130 185 235 295 343 420
#     4  11  26  45  68  98 145 187 222 288 353 422
#     4  12  18  40  72  98 136 166 244 294 354 396
#     4  10  18  40  64 102 122 168 226 294 340 394
#     4  10  24  41  71  98 133 178 242 285 350 412
#     4  12  26  44  67  99 148 186 228 288 356 424
#
# _framework density 20.805582999999999
#
# number of rings (size 3 to 8) (size 9 to 14) (size 15 to 20)
#    0.000    1.143    2.857    3.429    8.000    2.286 
#    0.000    0.000    0.000    0.000    0.000    0.000 
#    0.000    0.000    0.000    0.000    0.000    0.000 
#
# Total GULP energy -155901.664869 kJ/mol
# GULP energy per Si atom -5567.916602 kJ/mol
# Density = 2.075823 g / cm^3
# Si number density = 20.805583 Si / 1000 Ang^3
#
#
#
# Elastic Constant Matrix: (Units=GPa)
#
#
# Indices 1 2 3 4 5 6 
#
# 1 89.0622 50.3714 50.3428 0.0000 0.0000 0.0000
# 2 50.3714 113.2336 58.6630 0.0000 0.0000 0.0000
# 3 50.3428 58.6630 234.0936 0.0000 0.0000 0.0000
# 4 0.0000 0.0000 0.0000 -24.9063 0.0000 0.0000
# 5 0.0000 0.0000 0.0000 0.0000 -15.5160 0.0000
# 6 0.0000 0.0000 0.0000 0.0000 0.0000 48.6845
#
#
#
# Elastic Compliance Matrix: (Units=1/GPa)
#
#
# Indices 1 2 3 4 5 6 
#
# 1 0.015682 -0.006009 -0.001867 0.000000 0.000000 0.000000
# 2 -0.006009 0.012451 -0.001828 0.000000 0.000000 0.000000
# 3 -0.001867 -0.001828 0.005131 0.000000 0.000000 0.000000
# 4 0.000000 0.000000 0.000000 -0.040151 0.000000 0.000000
# 5 0.000000 0.000000 0.000000 0.000000 -0.064450 0.000000
# 6 0.000000 0.000000 0.000000 0.000000 0.000000 0.020540
#
#
# Mechanical properties :
#
#
# Convention : Reuss Voigt Hill
#
# Bulk Modulus (GPa) = 72.16400 83.90488 78.03444
# Shear Modulus (GPa) = -186.78277 20.11991 -83.33143
#
# Velocity S-wave (km/s) = -9.48526 3.11311 -6.33557
# Velocity P-wave (km/s) = 9.23039 7.30325 3.99140
#
# Compressibility (1/GPa) = 0.01385733
#
# Stress axis : x y z
#
# Youngs Moduli (GPa) = 63.76854 80.31234 194.88171
#
# Poissons Ratio (x) = 0.48259 0.36377
# Poissons Ratio (y) = 0.38318 0.35625
# Poissons Ratio (z) = 0.11903 0.14681
#
# Static dielectric constant tensor:
#      x y z
#    x 1.807570 0.000000 0.000000 
#    y 0.000000 1.778540 0.000000 
#    z 0.000000 0.000000 1.709480 
# 
# From -- ./inp_files/66842.got.cif
#   From: 2010.05.17/outbox.cif.g08.bks.cpg/sg66_34_cif.got.tgz:66842.got - 2010.06.03 17:51:23.
