data_PCOD9495075
_publ_section_title
;
Structure prediction by ZEFSAII (Michael W. Deem and Ramdas Pophale) SiO2 
 PCOD9495075
Probable space group: C C C M
;
_chemical_formula_sum "Si O2"
_cell_formula_units_Z 128
_cell_length_a 24.698303
_cell_length_b 12.140045
_cell_length_c 21.730626
_cell_angle_alpha 90.000000
_cell_angle_beta 90.000000
_cell_angle_gamma 90.000000
_cell_volume 6515.678518
_symmetry_space_group_name_H-M "C C C M"
_symmetry_group_IT_number 66
_symmetry_cell_setting 'orthorhombic'
loop_
_space_group_symop_operation_xyz
x,y,z
-x,-y,z
x,-y,1/2-z
-x,y,1/2-z
-x,-y,-z
x,y,-z
-x,y,1/2+z
x,-y,1/2+z
1/2+x,1/2+y,z
1/2-x,1/2-y,z
1/2+x,1/2-y,1/2-z
1/2-x,1/2+y,1/2-z
1/2-x,1/2-y,-z
1/2+x,1/2+y,-z
1/2-x,1/2+y,1/2+z
1/2+x,1/2-y,1/2+z
loop_
_atom_site_type_symbol
_atom_site_label
_atom_site_fract_x
_atom_site_fract_y
_atom_site_fract_z
Si Si1 0.368939 0.644970 0.375176
Si Si2 0.403823 0.576090 0.072773
Si Si3 0.519408 0.287725 0.850633
Si Si4 0.244819 0.881511 0.430624
Si Si5 0.648653 0.012247 0.074724
Si Si6 0.687368 0.250043 0.925227
Si Si7 0.561091 0.843218 0.073357
Si Si8 0.576040 0.368456 0.738382
O O1 0.404309 0.539201 0.393064
O O2 0.309328 0.606472 0.392637
O O3 0.394033 0.746829 0.413434
O O4 0.373048 0.666692 0.302678
O O5 0.456536 0.643002 0.093267
O O6 0.350439 0.646767 0.090819
O O7 0.402587 0.558907 0.000000
O O8 0.490090 0.184502 0.883247
O O9 0.566914 0.294615 0.799102
O O10 0.472804 0.343690 0.809256
O O11 0.235423 0.925650 0.500000
O O12 0.250000 0.750000 0.434744
O O13 0.299037 0.939374 0.406615
O O14 0.592514 0.954416 0.091995
O O15 0.658044 0.137196 0.094634
O O16 0.648698 0.009868 0.000000
O O17 0.750000 0.250000 0.904436
O O18 0.688932 0.248323 0.000000
O O19 0.548305 0.844550 0.000000
O O20 0.577380 0.500000 0.750000
#
# Coordination Sequence:
#
# PCOD9495075 Si02
#       8
#    16  16  16  16  16  16  16  16
#     4  11  20  30  50  79 112 139 179 228 274 333
#     4  11  21  31  49  80 112 139 175 229 283 330
#     4  10  20  33  52  73 103 138 185 230 271 332
#     4  10  17  28  48  80 117 142 167 207 271 343
#     4   9  17  31  50  74 113 155 184 216 264 342
#     4   9  18  33  51  73 106 151 191 215 257 330
#     4  10  19  30  48  80 115 145 175 219 287 339
#     4  10  20  36  52  72 101 143 193 225 269 336
#
# _framework density 19.644922000000001
#
# number of rings (size 3 to 8) (size 9 to 14) (size 15 to 20)
#    0.000    2.000    2.500    3.000    1.750    2.000 
#    0.000    2.500    0.000    3.750    0.000   14.875 
#    0.000    0.000    0.000    0.000    0.000    0.000 
#
# Total GULP energy -356565.200567 kJ/mol
# GULP energy per Si atom -5571.331259 kJ/mol
# Density = 1.960021 g / cm^3
# Si number density = 19.644922 Si / 1000 Ang^3
#
#
#
# Elastic Constant Matrix: (Units=GPa)
#
#
# Indices 1 2 3 4 5 6 
#
# 1 49.8575 12.9687 33.1260 0.0000 0.0000 0.0000
# 2 12.9687 74.6268 14.1770 0.0000 0.0000 0.0000
# 3 33.1260 14.1770 81.1991 0.0000 0.0000 0.0000
# 4 0.0000 0.0000 0.0000 -2.1781 0.0000 0.0000
# 5 0.0000 0.0000 0.0000 0.0000 -52.0309 0.0000
# 6 0.0000 0.0000 0.0000 0.0000 0.0000 27.6897
#
#
#
# Elastic Compliance Matrix: (Units=1/GPa)
#
#
# Indices 1 2 3 4 5 6 
#
# 1 0.028068 -0.002795 -0.010963 0.000000 0.000000 0.000000
# 2 -0.002795 0.014138 -0.001328 0.000000 0.000000 0.000000
# 3 -0.010963 -0.001328 0.017020 0.000000 0.000000 0.000000
# 4 0.000000 0.000000 0.000000 -0.459114 0.000000 0.000000
# 5 0.000000 0.000000 0.000000 0.000000 -0.019219 0.000000
# 6 0.000000 0.000000 0.000000 0.000000 0.000000 0.036115
#
#
# Mechanical properties :
#
#
# Convention : Reuss Voigt Hill
#
# Bulk Modulus (GPa) = 34.41877 36.24743 35.33310
# Shear Modulus (GPa) = -14.57142 4.39026 -5.09058
#
# Velocity S-wave (km/s) = -2.72644 1.49655 -1.61150
# Velocity P-wave (km/s) = 2.76535 4.63439 3.81607
#
# Compressibility (1/GPa) = 0.02905391
#
# Stress axis : x y z
#
# Youngs Moduli (GPa) = 35.62795 70.73114 58.75583
#
# Poissons Ratio (x) = 0.19770 0.64411
# Poissons Ratio (y) = 0.09958 0.07804
# Poissons Ratio (z) = 0.39057 0.09394
#
# Static dielectric constant tensor:
#      x y z
#    x 1.799360 0.000000 0.000000 
#    y 0.000000 1.698640 0.000000 
#    z 0.000000 0.000000 1.720570 
# 
# From -- ./inp_files/59955.got.cif
#   From: 2010.05.17/outbox.cif.g08.bks.cpg/sg66_30_cif.got.tgz:59955.got - 2010.06.03 17:51:23.
