data_PCOD9495800
_publ_section_title
;
Structure prediction by ZEFSAII (Michael W. Deem and Ramdas Pophale) SiO2 
 PCOD9495800
Probable space group: C C C M
;
_chemical_formula_sum "Si O2"
_cell_formula_units_Z 80
_cell_length_a 34.839775
_cell_length_b 4.960499
_cell_length_c 25.317938
_cell_angle_alpha 90.000000
_cell_angle_beta 90.000000
_cell_angle_gamma 90.000000
_cell_volume 4375.513620
_symmetry_space_group_name_H-M "C C C M"
_symmetry_group_IT_number 66
_symmetry_cell_setting 'orthorhombic'
loop_
_space_group_symop_operation_xyz
x,y,z
-x,-y,z
x,-y,1/2-z
-x,y,1/2-z
-x,-y,-z
x,y,-z
-x,y,1/2+z
x,-y,1/2+z
1/2+x,1/2+y,z
1/2-x,1/2-y,z
1/2+x,1/2-y,1/2-z
1/2-x,1/2+y,1/2-z
1/2-x,1/2-y,-z
1/2+x,1/2+y,-z
1/2-x,1/2+y,1/2+z
1/2+x,1/2-y,1/2+z
loop_
_atom_site_type_symbol
_atom_site_label
_atom_site_fract_x
_atom_site_fract_y
_atom_site_fract_z
Si Si1 0.294629 0.188461 0.153258
Si Si2 0.661795 0.319704 0.803136
Si Si3 0.473098 0.759299 0.060694
Si Si4 0.891147 0.132138 0.104630
Si Si5 0.347702 0.877585 0.439241
O O1 0.250000 0.250000 0.161515
O O2 0.313078 0.478452 0.162244
O O3 0.308486 0.110801 0.094602
O O4 0.314972 0.964752 0.191779
O O5 0.657118 0.500000 0.750000
O O6 0.622217 0.295803 0.835685
O O7 0.500000 0.500000 0.058462
O O8 0.435457 0.689414 0.093761
O O9 0.500000 0.000000 0.080926
O O10 0.461259 0.828907 0.000000
O O11 0.867229 0.332874 0.067289
O O12 0.877135 0.833400 0.088564
O O13 0.342050 0.806194 0.500000
#
# Coordination Sequence:
#
# PCOD9495800 Si02
#       5
#    16  16  16  16  16
#     4  10  21  35  52  78 107 133 172 220 264 314
#     4  10  21  37  56  76  99 136 178 218 267 311
#     4  10  19  30  48  76 108 138 166 204 257 308
#     4  10  20  34  52  76 105 137 179 220 255 312
#     4  10  19  32  52  75 104 143 177 210 257 313
#
# _framework density 18.283569
#
# number of rings (size 3 to 8) (size 9 to 14) (size 15 to 20)
#    0.000    2.000    0.000    4.200    0.000    3.600 
#    0.000    0.000    0.000    7.800    0.000    1.400 
#    0.000    0.000    0.000    0.000    0.000    0.000 
#
# Total GULP energy -222715.558238 kJ/mol
# GULP energy per Si atom -5567.888956 kJ/mol
# Density = 1.824195 g / cm^3
# Si number density = 18.283569 Si / 1000 Ang^3
#
#
#
# Elastic Constant Matrix: (Units=GPa)
#
#
# Indices 1 2 3 4 5 6 
#
# 1 109.7169 10.2949 40.2122 0.0000 0.0000 0.0000
# 2 10.2949 86.0214 -4.0175 0.0000 0.0000 0.0000
# 3 40.2122 -4.0175 74.3441 0.0000 0.0000 0.0000
# 4 0.0000 0.0000 0.0000 20.6564 0.0000 0.0000
# 5 0.0000 0.0000 0.0000 0.0000 2.9006 0.0000
# 6 0.0000 0.0000 0.0000 0.0000 0.0000 21.5813
#
#
#
# Elastic Compliance Matrix: (Units=1/GPa)
#
#
# Indices 1 2 3 4 5 6 
#
# 1 0.011607 -0.001687 -0.006369 0.000000 0.000000 0.000000
# 2 -0.001687 0.011900 0.001555 0.000000 0.000000 0.000000
# 3 -0.006369 0.001555 0.016980 0.000000 0.000000 0.000000
# 4 0.000000 0.000000 0.000000 0.048411 0.000000 0.000000
# 5 0.000000 0.000000 0.000000 0.000000 0.344758 0.000000
# 6 0.000000 0.000000 0.000000 0.000000 0.000000 0.046336
#
#
# Mechanical properties :
#
#
# Convention : Reuss Voigt Hill
#
# Bulk Modulus (GPa) = 36.38283 40.34018 38.36151
# Shear Modulus (GPa) = 9.95708 23.93383 16.94545
#
# Velocity S-wave (km/s) = 2.33618 3.62198 3.04766
# Velocity P-wave (km/s) = 5.21722 6.29311 5.78025
#
# Compressibility (1/GPa) = 0.02748549
#
# Stress axis : x y z
#
# Youngs Moduli (GPa) = 86.15470 84.03714 58.89236
#
# Poissons Ratio (x) = 0.14174 0.37510
# Poissons Ratio (y) = 0.14531 -0.09160
# Poissons Ratio (z) = 0.54875 -0.13070
#
# Static dielectric constant tensor:
#      x y z
#    x 1.644820 0.000000 0.000000 
#    y 0.000000 1.620910 0.000000 
#    z 0.000000 0.000000 1.689610 
# 
# From -- ./inp_files/60320.got.cif
#   From: 2010.05.17/outbox.cif.g08.bks.cpg/sg66_31_cif.got.tgz:60320.got - 2010.06.03 17:51:23.
