data_PCOD9495951
_publ_section_title
;
Structure prediction by ZEFSAII (Michael W. Deem and Ramdas Pophale) SiO2 
 PCOD9495951
Probable space group: C C C M
;
_chemical_formula_sum "Si O2"
_cell_formula_units_Z 116
_cell_length_a 27.891353
_cell_length_b 27.687486
_cell_length_c 8.180898
_cell_angle_alpha 90.000000
_cell_angle_beta 90.000000
_cell_angle_gamma 90.000000
_cell_volume 6317.628499
_symmetry_space_group_name_H-M "C C C M"
_symmetry_group_IT_number 66
_symmetry_cell_setting 'orthorhombic'
loop_
_space_group_symop_operation_xyz
x,y,z
-x,-y,z
x,-y,1/2-z
-x,y,1/2-z
-x,-y,-z
x,y,-z
-x,y,1/2+z
x,-y,1/2+z
1/2+x,1/2+y,z
1/2-x,1/2-y,z
1/2+x,1/2-y,1/2-z
1/2-x,1/2+y,1/2-z
1/2-x,1/2-y,-z
1/2+x,1/2+y,-z
1/2-x,1/2+y,1/2+z
1/2+x,1/2-y,1/2+z
loop_
_atom_site_type_symbol
_atom_site_label
_atom_site_fract_x
_atom_site_fract_y
_atom_site_fract_z
Si Si1 0.500000 0.000000 0.750000
Si Si2 0.682092 0.945590 0.196289
Si Si3 0.847232 0.176519 0.809223
Si Si4 0.817265 0.279943 0.692314
Si Si5 0.948284 0.207461 0.808139
Si Si6 0.247825 0.137674 0.804259
Si Si7 0.572026 0.078516 0.298472
Si Si8 0.575399 0.813001 0.809423
O O1 0.460430 0.959481 0.799899
O O2 0.721896 0.907890 0.258831
O O3 0.627744 0.930852 0.240822
O O4 0.691459 0.000000 0.250000
O O5 0.683394 0.943812 0.000000
O O6 0.826213 0.230484 0.785545
O O7 0.900941 0.181415 0.735827
O O8 0.808156 0.140708 0.734506
O O9 0.850563 0.165421 0.000000
O O10 0.809526 0.267814 0.500000
O O11 0.774671 0.313626 0.754081
O O12 0.866682 0.310228 0.701355
O O13 0.943609 0.265026 0.776300
O O14 0.000000 0.190646 0.750000
O O15 0.945944 0.200377 0.000000
O O16 0.253213 0.138462 0.000000
O O17 0.565593 0.071964 0.500000
O O18 0.559868 0.133856 0.255368
O O19 0.562568 0.808165 0.000000
#
# Coordination Sequence:
#
# PCOD9495951 Si02
#       8
#     4  16  16  16  16  16  16  16
#     4  12  22  32  48  70  96 124 170 228 280 304
#     4  10  20  37  55  73  98 130 169 214 260 311
#     4  10  21  33  47  73 107 130 159 205 251 296
#     4   9  16  29  49  70  94 130 169 201 243 300
#     4  10  21  36  51  72 100 133 166 202 244 294
#     4  10  19  32  52  73  97 132 171 204 246 305
#     4  10  20  35  50  66  92 125 166 217 270 310
#     4   9  17  32  51  68  92 128 168 211 252 300
#
# _framework density 18.361319000000002
#
# number of rings (size 3 to 8) (size 9 to 14) (size 15 to 20)
#    0.000    2.207    2.069    1.448    0.966    4.414 
#    0.000    1.379    0.000    0.000    0.000    0.000 
#    0.000    0.552    0.000    6.069    0.000    4.414 
#
# Total GULP energy -323249.899749 kJ/mol
# GULP energy per Si atom -5573.274134 kJ/mol
# Density = 1.831953 g / cm^3
# Si number density = 18.361319 Si / 1000 Ang^3
#
#
#
# Elastic Constant Matrix: (Units=GPa)
#
#
# Indices 1 2 3 4 5 6 
#
# 1 147.1207 48.3408 13.3495 0.0000 0.0000 0.0000
# 2 48.3408 48.5863 2.5098 0.0000 0.0000 0.0000
# 3 13.3495 2.5098 12.0284 0.0000 0.0000 0.0000
# 4 0.0000 0.0000 0.0000 -24.8473 0.0000 0.0000
# 5 0.0000 0.0000 0.0000 0.0000 13.4075 0.0000
# 6 0.0000 0.0000 0.0000 0.0000 0.0000 -162.0784
#
#
#
# Elastic Compliance Matrix: (Units=1/GPa)
#
#
# Indices 1 2 3 4 5 6 
#
# 1 0.011220 -0.010635 -0.010233 0.000000 0.000000 0.000000
# 2 -0.010635 0.030886 0.005358 0.000000 0.000000 0.000000
# 3 -0.010233 0.005358 0.093376 0.000000 0.000000 0.000000
# 4 0.000000 0.000000 0.000000 -0.040246 0.000000 0.000000
# 5 0.000000 0.000000 0.000000 0.000000 0.074585 0.000000
# 6 0.000000 0.000000 0.000000 0.000000 0.000000 -0.006170
#
#
# Mechanical properties :
#
#
# Convention : Reuss Voigt Hill
#
# Bulk Modulus (GPa) = 9.57280 37.34841 23.46060
# Shear Modulus (GPa) = 21.78718 -25.13464 -1.67373
#
# Velocity S-wave (km/s) = 3.44841 -3.70387 -0.95579
# Velocity P-wave (km/s) = 4.59133 1.44688 3.40395
#
# Compressibility (1/GPa) = 0.10446267
#
# Stress axis : x y z
#
# Youngs Moduli (GPa) = 89.12610 32.37699 10.70935
#
# Poissons Ratio (x) = 0.34432 0.10959
# Poissons Ratio (y) = 0.94783 -0.05738
# Poissons Ratio (z) = 0.91207 -0.17348
#
# Static dielectric constant tensor:
#      x y z
#    x 1.702460 0.000000 0.000000 
#    y 0.000000 1.616440 0.000000 
#    z 0.000000 0.000000 1.674520 
# 
# From -- ./inp_files/10750.got.cif
#   From: 2010.05.17/outbox.cif.g08.bks.cpg/sg66_6_cif.got.tgz:10750.got - 2010.06.03 17:51:23.
