data_PCOD9495519
_publ_section_title
;
Structure prediction by ZEFSAII (Michael W. Deem and Ramdas Pophale) SiO2 
 PCOD9495519
Probable space group: C C C M
;
_chemical_formula_sum "Si O2"
_cell_formula_units_Z 112
_cell_length_a 23.328025
_cell_length_b 16.643372
_cell_length_c 14.237189
_cell_angle_alpha 90.000000
_cell_angle_beta 90.000000
_cell_angle_gamma 90.000000
_cell_volume 5527.688263
_symmetry_space_group_name_H-M "C C C M"
_symmetry_group_IT_number 66
_symmetry_cell_setting 'orthorhombic'
loop_
_space_group_symop_operation_xyz
x,y,z
-x,-y,z
x,-y,1/2-z
-x,y,1/2-z
-x,-y,-z
x,y,-z
-x,y,1/2+z
x,-y,1/2+z
1/2+x,1/2+y,z
1/2-x,1/2-y,z
1/2+x,1/2-y,1/2-z
1/2-x,1/2+y,1/2-z
1/2-x,1/2-y,-z
1/2+x,1/2+y,-z
1/2-x,1/2+y,1/2+z
1/2+x,1/2-y,1/2+z
loop_
_atom_site_type_symbol
_atom_site_label
_atom_site_fract_x
_atom_site_fract_y
_atom_site_fract_z
Si Si1 0.363319 0.784683 0.318791
Si Si2 0.114495 0.742875 0.102233
Si Si3 0.168074 0.107044 0.111939
Si Si4 0.278095 0.660653 0.897707
Si Si5 0.544653 0.432716 0.386567
Si Si6 0.778379 0.581259 0.784417
Si Si7 0.985198 0.751919 0.148217
O O1 0.373537 0.793213 0.205573
O O2 0.337820 0.696277 0.341877
O O3 0.318755 0.855288 0.336972
O O4 0.423810 0.787921 0.375112
O O5 0.153244 0.823822 0.108069
O O6 0.045855 0.749322 0.096727
O O7 0.132363 0.706181 0.000000
O O8 0.111376 0.055692 0.136100
O O9 0.224579 0.064449 0.148631
O O10 0.169195 0.118277 0.000000
O O11 0.250000 0.750000 0.897490
O O12 0.250109 0.618817 0.809135
O O13 0.266339 0.623411 0.000000
O O14 0.500000 0.500000 0.356583
O O15 0.540095 0.425700 0.500000
O O16 0.529509 0.345987 0.345986
O O17 0.808443 0.500000 0.750000
O O18 0.000000 0.718401 0.250000
#
# Coordination Sequence:
#
# PCOD9495519 Si02
#       7
#    16  16  16  16  16  16  16
#     4  10  20  39  58  82 115 155 206 250 293 361
#     4  10  18  32  61  89 110 140 187 251 305 345
#     4  10  21  39  60  82 115 164 211 245 287 364
#     4  10  19  35  60  85 111 146 188 239 296 354
#     4   9  18  33  51  74 110 149 183 228 284 342
#     4  12  24  37  56  84 122 157 199 253 306 356
#     4   9  19  32  51  79 107 141 191 241 283 348
#
# _framework density 20.261634999999998
#
# number of rings (size 3 to 8) (size 9 to 14) (size 15 to 20)
#    0.000    2.000    2.857    0.857    0.000    3.714 
#    0.000    2.857    0.000    3.857    0.000    1.000 
#    0.000    0.571    0.000    0.000    0.000    0.000 
#
# Total GULP energy -311788.950862 kJ/mol
# GULP energy per Si atom -5567.659837 kJ/mol
# Density = 2.021552 g / cm^3
# Si number density = 20.261635 Si / 1000 Ang^3
#
#
#
# Elastic Constant Matrix: (Units=GPa)
#
#
# Indices 1 2 3 4 5 6 
#
# 1 121.4354 34.3969 13.9637 0.0000 0.0000 0.0000
# 2 34.3969 51.2962 0.8118 0.0000 0.0000 0.0000
# 3 13.9637 0.8118 74.8714 0.0000 0.0000 0.0000
# 4 0.0000 0.0000 0.0000 -14.1992 0.0000 0.0000
# 5 0.0000 0.0000 0.0000 0.0000 10.1392 0.0000
# 6 0.0000 0.0000 0.0000 0.0000 0.0000 17.3435
#
#
#
# Elastic Compliance Matrix: (Units=1/GPa)
#
#
# Indices 1 2 3 4 5 6 
#
# 1 0.010420 -0.006958 -0.001868 0.000000 0.000000 0.000000
# 2 -0.006958 0.024144 0.001036 0.000000 0.000000 0.000000
# 3 -0.001868 0.001036 0.013693 0.000000 0.000000 0.000000
# 4 0.000000 0.000000 0.000000 -0.070426 0.000000 0.000000
# 5 0.000000 0.000000 0.000000 0.000000 0.098627 0.000000
# 6 0.000000 0.000000 0.000000 0.000000 0.000000 0.057658
#
#
# Mechanical properties :
#
#
# Convention : Reuss Voigt Hill
#
# Bulk Modulus (GPa) = 30.60192 38.43864 34.52028
# Shear Modulus (GPa) = 31.13528 15.88540 23.51034
#
# Velocity S-wave (km/s) = 3.92428 2.80306 3.41007
# Velocity P-wave (km/s) = 5.97239 5.43034 5.70780
#
# Compressibility (1/GPa) = 0.03267768
#
# Stress axis : x y z
#
# Youngs Moduli (GPa) = 95.96483 41.41834 73.02788
#
# Poissons Ratio (x) = 0.28819 0.13642
# Poissons Ratio (y) = 0.66772 -0.07565
# Poissons Ratio (z) = 0.17926 -0.04291
#
# Static dielectric constant tensor:
#      x y z
#    x 1.797490 0.000000 0.000000 
#    y 0.000000 1.707510 0.000000 
#    z 0.000000 0.000000 1.775850 
# 
# From -- ./inp_files/32488.got.cif
#   From: 2010.05.17/outbox.cif.g08.bks.cpg/sg66_17_cif.got.tgz:32488.got - 2010.06.03 17:51:23.
