data_PCOD9495516
_publ_section_title
;
Structure prediction by ZEFSAII (Michael W. Deem and Ramdas Pophale) SiO2 
 PCOD9495516
Probable space group: C C C M
;
_chemical_formula_sum "Si O2"
_cell_formula_units_Z 44
_cell_length_a 7.245877
_cell_length_b 29.551855
_cell_length_c 8.961876
_cell_angle_alpha 90.000000
_cell_angle_beta 90.000000
_cell_angle_gamma 90.000000
_cell_volume 1918.998500
_symmetry_space_group_name_H-M "C C C M"
_symmetry_group_IT_number 66
_symmetry_cell_setting 'orthorhombic'
loop_
_space_group_symop_operation_xyz
x,y,z
-x,-y,z
x,-y,1/2-z
-x,y,1/2-z
-x,-y,-z
x,y,-z
-x,y,1/2+z
x,-y,1/2+z
1/2+x,1/2+y,z
1/2-x,1/2-y,z
1/2+x,1/2-y,1/2-z
1/2-x,1/2+y,1/2-z
1/2-x,1/2-y,-z
1/2+x,1/2+y,-z
1/2-x,1/2+y,1/2+z
1/2+x,1/2-y,1/2+z
loop_
_atom_site_type_symbol
_atom_site_label
_atom_site_fract_x
_atom_site_fract_y
_atom_site_fract_z
Si Si1 0.750000 0.250000 0.500000
Si Si2 0.801979 0.636603 0.673868
Si Si3 0.706606 0.045421 0.320576
Si Si4 0.000000 0.789528 0.750000
O O1 0.594364 0.259484 0.627010
O O2 0.832534 0.624982 0.500000
O O3 0.719255 0.593240 0.762067
O O4 0.660087 0.677413 0.687986
O O5 0.000000 0.647133 0.750000
O O6 0.500000 0.046501 0.250000
O O7 0.703458 0.042984 0.500000
O O8 0.791466 0.000000 0.250000
#
# Coordination Sequence:
#
# PCOD9495516 Si02
#       4
#     4  16  16   8
#     4  12  32  56  84 116 152 202 248 336 402 496
#     4  11  24  43  73 108 150 198 252 317 379 454
#     4  10  18  32  60 100 150 204 259 307 362 440
#     4  12  30  52  81 110 148 188 257 316 406 476
#
# _framework density 22.928625
#
# number of rings (size 3 to 8) (size 9 to 14) (size 15 to 20)
#    0.000    1.091    1.818    7.636    7.636    0.727 
#    0.000    0.909    0.000    4.364    0.000    0.000 
#    0.000    0.000    0.000    0.000    0.000    0.000 
#
# Total GULP energy -122532.022285 kJ/mol
# GULP energy per Si atom -5569.637377 kJ/mol
# Density = 2.287644 g / cm^3
# Si number density = 22.928625 Si / 1000 Ang^3
#
#
#
# Elastic Constant Matrix: (Units=GPa)
#
#
# Indices 1 2 3 4 5 6 
#
# 1 142.8175 48.2958 69.4468 0.0000 0.0000 0.0000
# 2 48.2958 50.1662 64.7370 0.0000 0.0000 0.0000
# 3 69.4468 64.7370 287.1329 0.0000 0.0000 0.0000
# 4 0.0000 0.0000 0.0000 354.8946 0.0000 0.0000
# 5 0.0000 0.0000 0.0000 0.0000 899.3296 0.0000
# 6 0.0000 0.0000 0.0000 0.0000 0.0000 -260.3091
#
#
#
# Elastic Compliance Matrix: (Units=1/GPa)
#
#
# Indices 1 2 3 4 5 6 
#
# 1 0.010409 -0.009551 -0.000364 0.000000 0.000000 0.000000
# 2 -0.009551 0.036876 -0.006004 0.000000 0.000000 0.000000
# 3 -0.000364 -0.006004 0.004925 0.000000 0.000000 0.000000
# 4 0.000000 0.000000 0.000000 0.002818 0.000000 0.000000
# 5 0.000000 0.000000 0.000000 0.000000 0.001112 0.000000
# 6 0.000000 0.000000 0.000000 0.000000 0.000000 -0.003842
#
#
# Mechanical properties :
#
#
# Convention : Reuss Voigt Hill
#
# Bulk Modulus (GPa) = 49.08811 93.89730 71.49270
# Shear Modulus (GPa) = 54.98948 218.62549 136.80749
#
# Velocity S-wave (km/s) = 4.90255 9.77535 7.73280
# Velocity P-wave (km/s) = 7.31452 12.97886 10.53454
#
# Compressibility (1/GPa) = 0.02037153
#
# Stress axis : x y z
#
# Youngs Moduli (GPa) = 96.07315 27.11756 203.06625
#
# Poissons Ratio (x) = 0.25899 0.07395
# Poissons Ratio (y) = 0.91756 1.21925
# Poissons Ratio (z) = 0.03499 0.16282
#
# Static dielectric constant tensor:
#      x y z
#    x 1.870560 0.000000 0.000000 
#    y 0.000000 1.978550 0.000000 
#    z 0.000000 0.000000 1.767140 
# 
# From -- ./inp_files/2681.got.cif
#   From: 2010.05.17/outbox.cif.g08.bks.cpg/sg66_2_cif.got.tgz:2681.got - 2010.06.03 17:51:23.
