data_PCOD9495761
_publ_section_title
;
Structure prediction by ZEFSAII (Michael W. Deem and Ramdas Pophale) SiO2 
 PCOD9495761
Probable space group: C C C M
;
_chemical_formula_sum "Si O2"
_cell_formula_units_Z 64
_cell_length_a 20.548028
_cell_length_b 7.435428
_cell_length_c 18.813100
_cell_angle_alpha 90.000000
_cell_angle_beta 90.000000
_cell_angle_gamma 90.000000
_cell_volume 2874.329058
_symmetry_space_group_name_H-M "C C C M"
_symmetry_group_IT_number 66
_symmetry_cell_setting 'orthorhombic'
loop_
_space_group_symop_operation_xyz
x,y,z
-x,-y,z
x,-y,1/2-z
-x,y,1/2-z
-x,-y,-z
x,y,-z
-x,y,1/2+z
x,-y,1/2+z
1/2+x,1/2+y,z
1/2-x,1/2-y,z
1/2+x,1/2-y,1/2-z
1/2-x,1/2+y,1/2-z
1/2-x,1/2-y,-z
1/2+x,1/2+y,-z
1/2-x,1/2+y,1/2+z
1/2+x,1/2-y,1/2+z
loop_
_atom_site_type_symbol
_atom_site_label
_atom_site_fract_x
_atom_site_fract_y
_atom_site_fract_z
Si Si1 0.516829 0.284324 0.670187
Si Si2 0.283925 0.947687 0.827649
Si Si3 0.396702 0.799613 0.915810
Si Si4 0.354387 0.556636 0.666432
O O1 0.500000 0.500000 0.667171
O O2 0.500000 0.225604 0.750000
O O3 0.468640 0.183849 0.617150
O O4 0.593876 0.284240 0.655828
O O5 0.250000 0.750000 0.821404
O O6 0.341559 0.929017 0.883499
O O7 0.309921 0.000000 0.750000
O O8 0.222446 0.074673 0.844444
O O9 0.374674 0.603925 0.886184
O O10 0.397920 0.806687 0.000000
O O11 0.362522 0.500000 0.750000
#
# Coordination Sequence:
#
# PCOD9495761 Si02
#       4
#    16  16  16  16
#     4   9  14  26  47  73 108 148 184 232 276 337
#     4   9  19  33  53  80 114 151 195 240 283 349
#     4  10  19  29  47  81 117 144 183 247 304 335
#     4   9  15  28  47  75 111 148 184 230 280 337
#
# _framework density 22.266064
#
# number of rings (size 3 to 8) (size 9 to 14) (size 15 to 20)
#    0.000    2.750    5.000    0.000    0.000    9.000 
#    0.000    0.000    0.000    1.500    0.000    8.750 
#    0.000    0.000    0.000    0.000    0.000    0.000 
#
# Total GULP energy -178596.418762 kJ/mol
# GULP energy per Si atom -5581.138086 kJ/mol
# Density = 2.221539 g / cm^3
# Si number density = 22.266064 Si / 1000 Ang^3
#
#
#
# Elastic Constant Matrix: (Units=GPa)
#
#
# Indices 1 2 3 4 5 6 
#
# 1 210.7476 66.5479 122.1543 0.0000 0.0000 0.0000
# 2 66.5479 60.0541 37.9161 0.0000 0.0000 0.0000
# 3 122.1543 37.9161 201.1445 0.0000 0.0000 0.0000
# 4 0.0000 0.0000 0.0000 -242.4431 0.0000 0.0000
# 5 0.0000 0.0000 0.0000 0.0000 30.9285 0.0000
# 6 0.0000 0.0000 0.0000 0.0000 0.0000 10.7340
#
#
#
# Elastic Compliance Matrix: (Units=1/GPa)
#
#
# Indices 1 2 3 4 5 6 
#
# 1 0.009924 -0.008164 -0.004488 0.000000 0.000000 0.000000
# 2 -0.008164 0.025617 0.000129 0.000000 0.000000 0.000000
# 3 -0.004488 0.000129 0.007673 0.000000 0.000000 0.000000
# 4 0.000000 0.000000 0.000000 -0.004125 0.000000 0.000000
# 5 0.000000 0.000000 0.000000 0.000000 0.032333 0.000000
# 6 0.000000 0.000000 0.000000 0.000000 0.000000 0.093162
#
#
# Mechanical properties :
#
#
# Convention : Reuss Voigt Hill
#
# Bulk Modulus (GPa) = 55.04136 102.79811 78.91973
# Shear Modulus (GPa) = 25.55117 -23.80093 0.87512
#
# Velocity S-wave (km/s) = 3.39121 -3.27300 0.62760
# Velocity P-wave (km/s) = 6.33303 5.65552 6.00384
#
# Compressibility (1/GPa) = 0.01816816
#
# Stress axis : x y z
#
# Youngs Moduli (GPa) = 100.76251 39.03693 130.32992
#
# Poissons Ratio (x) = 0.31869 0.58493
# Poissons Ratio (y) = 0.82261 -0.01682
# Poissons Ratio (z) = 0.45223 -0.00504
#
# Static dielectric constant tensor:
#      x y z
#    x 1.900920 0.000000 0.000000 
#    y 0.000000 1.892460 0.000000 
#    z 0.000000 0.000000 1.721540 
# 
# From -- ./inp_files/42362.got.cif
#   From: 2010.05.17/outbox.cif.g08.bks.cpg/sg66_22_cif.got.tgz:42362.got - 2010.06.03 17:51:23.
