data_PCOD9495957
_publ_section_title
;
Structure prediction by ZEFSAII (Michael W. Deem and Ramdas Pophale) SiO2 
 PCOD9495957
Probable space group: C C C M
;
_chemical_formula_sum "Si O2"
_cell_formula_units_Z 52
_cell_length_a 15.064587
_cell_length_b 18.200041
_cell_length_c 8.109795
_cell_angle_alpha 90.000000
_cell_angle_beta 90.000000
_cell_angle_gamma 90.000000
_cell_volume 2223.511973
_symmetry_space_group_name_H-M "C C C M"
_symmetry_group_IT_number 66
_symmetry_cell_setting 'orthorhombic'
loop_
_space_group_symop_operation_xyz
x,y,z
-x,-y,z
x,-y,1/2-z
-x,y,1/2-z
-x,-y,-z
x,y,-z
-x,y,1/2+z
x,-y,1/2+z
1/2+x,1/2+y,z
1/2-x,1/2-y,z
1/2+x,1/2-y,1/2-z
1/2-x,1/2+y,1/2-z
1/2-x,1/2-y,-z
1/2+x,1/2+y,-z
1/2-x,1/2+y,1/2+z
1/2+x,1/2-y,1/2+z
loop_
_atom_site_type_symbol
_atom_site_label
_atom_site_fract_x
_atom_site_fract_y
_atom_site_fract_z
Si Si1 0.370283 0.893507 0.687158
Si Si2 0.000000 0.500000 0.750000
Si Si3 0.829897 0.920490 0.698303
Si Si4 0.357740 0.738674 0.189783
O O1 0.391217 0.916139 0.500000
O O2 0.267906 0.911747 0.723235
O O3 0.121987 0.844169 0.752460
O O4 0.428839 0.940474 0.812677
O O5 0.821578 0.918296 0.500000
O O6 0.890033 0.692399 0.792999
O O7 0.866867 0.000000 0.750000
O O8 0.250000 0.750000 0.190683
O O9 0.386205 0.746508 0.000000
#
# Coordination Sequence:
#
# PCOD9495957 Si02
#       4
#    16   4  16  16
#     4  11  22  34  50  71 100 140 180 213 254 309
#     4  12  26  36  48  74 112 144 178 218 254 296
#     4  10  19  32  52  77 104 133 169 215 263 308
#     4   8  17  33  50  70 100 133 166 213 264 304
#
# _framework density 23.386427000000001
#
# number of rings (size 3 to 8) (size 9 to 14) (size 15 to 20)
#    0.000    2.154    1.538    4.154    0.000   10.462 
#    0.000    0.000    0.000    0.000    0.000    1.077 
#    0.000    7.385    0.000    0.000    0.000    0.000 
#
# Total GULP energy -144887.925853 kJ/mol
# GULP energy per Si atom -5572.612533 kJ/mol
# Density = 2.333320 g / cm^3
# Si number density = 23.386427 Si / 1000 Ang^3
#
#
#
# Elastic Constant Matrix: (Units=GPa)
#
#
# Indices 1 2 3 4 5 6 
#
# 1 20.6455 6.0131 9.5711 0.0000 0.0000 0.0000
# 2 6.0131 253.7884 51.3033 0.0000 0.0000 0.0000
# 3 9.5711 51.3033 96.7741 0.0000 0.0000 0.0000
# 4 0.0000 0.0000 0.0000 35.7580 0.0000 0.0000
# 5 0.0000 0.0000 0.0000 0.0000 16.1437 0.0000
# 6 0.0000 0.0000 0.0000 0.0000 0.0000 12.0943
#
#
#
# Elastic Compliance Matrix: (Units=1/GPa)
#
#
# Indices 1 2 3 4 5 6 
#
# 1 0.050774 -0.000210 -0.004910 0.000000 0.000000 0.000000
# 2 -0.000210 0.004414 -0.002319 0.000000 0.000000 0.000000
# 3 -0.004910 -0.002319 0.012048 0.000000 0.000000 0.000000
# 4 0.000000 0.000000 0.000000 0.027966 0.000000 0.000000
# 5 0.000000 0.000000 0.000000 0.000000 0.061944 0.000000
# 6 0.000000 0.000000 0.000000 0.000000 0.000000 0.082683
#
#
# Mechanical properties :
#
#
# Convention : Reuss Voigt Hill
#
# Bulk Modulus (GPa) = 19.09952 56.10922 37.60437
# Shear Modulus (GPa) = 18.37143 33.08724 25.72934
#
# Velocity S-wave (km/s) = 2.80582 3.76547 3.32050
# Velocity P-wave (km/s) = 4.32221 6.55357 5.55116
#
# Compressibility (1/GPa) = 0.05235733
#
# Stress axis : x y z
#
# Youngs Moduli (GPa) = 19.69499 226.54596 82.99801
#
# Poissons Ratio (x) = 0.04768 0.40753
# Poissons Ratio (y) = 0.00414 0.19249
# Poissons Ratio (z) = 0.09670 0.52542
#
# Static dielectric constant tensor:
#      x y z
#    x 1.853140 0.000000 0.000000 
#    y 0.000000 1.922020 0.000000 
#    z 0.000000 0.000000 2.125970 
# 
# From -- ./inp_files/4749.got.cif
#   From: 2010.05.17/outbox.cif.g08.bks.cpg/sg66_3_cif.got.tgz:4749.got - 2010.06.03 17:51:23.
