data_PCOD9495271
_publ_section_title
;
Structure prediction by ZEFSAII (Michael W. Deem and Ramdas Pophale) SiO2 
 PCOD9495271
Probable space group: C C C M
;
_chemical_formula_sum "Si O2"
_cell_formula_units_Z 96
_cell_length_a 11.484222
_cell_length_b 19.371855
_cell_length_c 18.380339
_cell_angle_alpha 90.000000
_cell_angle_beta 90.000000
_cell_angle_gamma 90.000000
_cell_volume 4089.086578
_symmetry_space_group_name_H-M "C C C M"
_symmetry_group_IT_number 66
_symmetry_cell_setting 'orthorhombic'
loop_
_space_group_symop_operation_xyz
x,y,z
-x,-y,z
x,-y,1/2-z
-x,y,1/2-z
-x,-y,-z
x,y,-z
-x,y,1/2+z
x,-y,1/2+z
1/2+x,1/2+y,z
1/2-x,1/2-y,z
1/2+x,1/2-y,1/2-z
1/2-x,1/2+y,1/2-z
1/2-x,1/2-y,-z
1/2+x,1/2+y,-z
1/2-x,1/2+y,1/2+z
1/2+x,1/2-y,1/2+z
loop_
_atom_site_type_symbol
_atom_site_label
_atom_site_fract_x
_atom_site_fract_y
_atom_site_fract_z
Si Si1 0.093658 0.580783 0.312969
Si Si2 0.830901 0.973876 0.830376
Si Si3 0.885420 0.771326 0.681732
Si Si4 0.157981 0.895124 0.082956
Si Si5 0.203708 0.819968 0.672295
Si Si6 0.069649 0.646341 0.916230
O O1 0.189549 0.522171 0.324722
O O2 0.178240 0.645856 0.293408
O O3 0.000000 0.573078 0.250000
O O4 0.025391 0.592473 0.387860
O O5 0.849596 0.893662 0.853652
O O6 0.870751 0.000000 0.750000
O O7 0.869856 0.028947 0.888830
O O8 0.750000 0.750000 0.670596
O O9 0.901170 0.840168 0.635503
O O10 0.883700 0.791281 0.766636
O O11 0.948208 0.708925 0.640839
O O12 0.298205 0.881693 0.088328
O O13 0.124420 0.883737 0.000000
O O14 0.250000 0.750000 0.631904
O O15 0.050736 0.667427 0.000000
#
# Coordination Sequence:
#
# PCOD9495271 Si02
#       6
#    16  16  16  16  16  16
#     4  10  19  30  47  68 101 132 169 198 246 302
#     4  10  19  30  45  70  99 130 168 205 247 297
#     4   9  15  29  48  68  95 126 171 210 247 286
#     4  10  18  29  44  68  99 133 164 201 246 297
#     4   9  18  31  50  68  95 127 173 210 244 293
#     4  10  20  31  47  74 106 137 167 206 253 306
#
# _framework density 23.477125000000001
#
# number of rings (size 3 to 8) (size 9 to 14) (size 15 to 20)
#    1.000    1.333    1.667    4.500    0.000    5.000 
#    0.000    1.667    0.000    2.000    0.000    1.167 
#    0.000    2.667    0.000    0.000    0.000    0.000 
#
# Total GULP energy -267507.179749 kJ/mol
# GULP energy per Si atom -5573.066245 kJ/mol
# Density = 2.342369 g / cm^3
# Si number density = 23.477125 Si / 1000 Ang^3
#
#
#
# Elastic Constant Matrix: (Units=GPa)
#
#
# Indices 1 2 3 4 5 6 
#
# 1 79.9701 -13.3418 -9.6340 0.0000 0.0000 0.0000
# 2 -13.3418 140.3691 12.1470 0.0000 0.0000 0.0000
# 3 -9.6340 12.1470 63.8798 0.0000 0.0000 0.0000
# 4 0.0000 0.0000 0.0000 13.5872 0.0000 0.0000
# 5 0.0000 0.0000 0.0000 0.0000 -37.4291 0.0000
# 6 0.0000 0.0000 0.0000 0.0000 0.0000 21.3418
#
#
#
# Elastic Compliance Matrix: (Units=1/GPa)
#
#
# Indices 1 2 3 4 5 6 
#
# 1 0.012894 0.001075 0.001740 0.000000 0.000000 0.000000
# 2 0.001075 0.007333 -0.001232 0.000000 0.000000 0.000000
# 3 0.001740 -0.001232 0.016151 0.000000 0.000000 0.000000
# 4 0.000000 0.000000 0.000000 0.073599 0.000000 0.000000
# 5 0.000000 0.000000 0.000000 0.000000 -0.026717 0.000000
# 6 0.000000 0.000000 0.000000 0.000000 0.000000 0.046856
#
#
# Mechanical properties :
#
#
# Convention : Reuss Voigt Hill
#
# Bulk Modulus (GPa) = 25.28873 29.17349 27.23111
# Shear Modulus (GPa) = 35.68084 19.16983 27.42533
#
# Velocity S-wave (km/s) = 3.90271 2.86060 3.42156
# Velocity P-wave (km/s) = 5.57702 4.83364 5.21858
#
# Compressibility (1/GPa) = 0.03954331
#
# Stress axis : x y z
#
# Youngs Moduli (GPa) = 77.55759 136.37209 61.91506
#
# Poissons Ratio (x) = -0.14659 -0.10774
# Poissons Ratio (y) = -0.08337 0.07630
# Poissons Ratio (z) = -0.13496 0.16805
#
# Static dielectric constant tensor:
#      x y z
#    x 1.973550 0.000000 0.000000 
#    y 0.000000 1.984880 0.000000 
#    z 0.000000 0.000000 1.853550 
# 
# From -- ./inp_files/51169.got.cif
#   From: 2010.05.17/outbox.cif.g08.bks.cpg/sg66_26_cif.got.tgz:51169.got - 2010.06.03 17:51:23.
