data_PCOD9495349
_publ_section_title
;
Structure prediction by ZEFSAII (Michael W. Deem and Ramdas Pophale) SiO2 
 PCOD9495349
Probable space group: C C C M
;
_chemical_formula_sum "Si O2"
_cell_formula_units_Z 96
_cell_length_a 17.072825
_cell_length_b 12.840610
_cell_length_c 20.412535
_cell_angle_alpha 90.000000
_cell_angle_beta 90.000000
_cell_angle_gamma 90.000000
_cell_volume 4474.947935
_symmetry_space_group_name_H-M "C C C M"
_symmetry_group_IT_number 66
_symmetry_cell_setting 'orthorhombic'
loop_
_space_group_symop_operation_xyz
x,y,z
-x,-y,z
x,-y,1/2-z
-x,y,1/2-z
-x,-y,-z
x,y,-z
-x,y,1/2+z
x,-y,1/2+z
1/2+x,1/2+y,z
1/2-x,1/2-y,z
1/2+x,1/2-y,1/2-z
1/2-x,1/2+y,1/2-z
1/2-x,1/2-y,-z
1/2+x,1/2+y,-z
1/2-x,1/2+y,1/2+z
1/2+x,1/2-y,1/2+z
loop_
_atom_site_type_symbol
_atom_site_label
_atom_site_fract_x
_atom_site_fract_y
_atom_site_fract_z
Si Si1 0.004751 0.682698 0.426733
Si Si2 0.383500 0.595002 0.789830
Si Si3 0.932934 0.913813 0.570086
Si Si4 0.691406 0.850261 0.073457
Si Si5 0.072008 0.662713 0.793469
Si Si6 0.773596 0.369622 0.286297
O O1 0.989778 0.639865 0.500000
O O2 0.098965 0.679138 0.415567
O O3 0.976855 0.802963 0.427247
O O4 0.952380 0.635551 0.368028
O O5 0.421912 0.500000 0.750000
O O6 0.380606 0.571057 0.866569
O O7 0.420929 0.710395 0.786220
O O8 0.299192 0.600314 0.757623
O O9 0.891210 0.921553 0.500000
O O10 0.000000 0.000000 0.572636
O O11 0.750000 0.750000 0.069620
O O12 0.714433 0.912102 0.139861
O O13 0.695928 0.898590 0.000000
O O14 0.150544 0.621616 0.759689
O O15 0.000000 0.627543 0.750000
O O16 0.750000 0.250000 0.299211
#
# Coordination Sequence:
#
# PCOD9495349 Si02
#       6
#    16  16  16  16  16  16
#     4   9  17  29  45  70  97 122 161 204 243 292
#     4  10  22  32  48  71 104 131 161 197 244 302
#     4   9  19  32  47  69 100 133 165 196 238 296
#     4   9  16  26  42  64  94 126 155 194 244 287
#     4  10  18  30  51  72  94 128 162 206 247 287
#     4   9  18  32  45  68  99 127 162 201 243 293
#
# _framework density 21.452762
#
# number of rings (size 3 to 8) (size 9 to 14) (size 15 to 20)
#    0.000    2.667    1.667    0.000    4.667    0.000 
#    0.000    1.667    0.000    5.500    0.000    0.000 
#    0.000    2.667    0.000    0.000    0.000    0.000 
#
# Total GULP energy -267289.353314 kJ/mol
# GULP energy per Si atom -5568.528194 kJ/mol
# Density = 2.140393 g / cm^3
# Si number density = 21.452762 Si / 1000 Ang^3
#
#
#
# Elastic Constant Matrix: (Units=GPa)
#
#
# Indices 1 2 3 4 5 6 
#
# 1 130.2358 -2.2755 94.1897 0.0000 0.0000 0.0000
# 2 -2.2755 27.1922 22.5755 0.0000 0.0000 0.0000
# 3 94.1897 22.5755 253.9597 0.0000 0.0000 0.0000
# 4 0.0000 0.0000 0.0000 -2.4448 0.0000 0.0000
# 5 0.0000 0.0000 0.0000 0.0000 47.0980 0.0000
# 6 0.0000 0.0000 0.0000 0.0000 0.0000 -8.7292
#
#
#
# Elastic Compliance Matrix: (Units=1/GPa)
#
#
# Indices 1 2 3 4 5 6 
#
# 1 0.011013 0.004656 -0.004499 0.000000 0.000000 0.000000
# 2 0.004656 0.041674 -0.005432 0.000000 0.000000 0.000000
# 3 -0.004499 -0.005432 0.006089 0.000000 0.000000 0.000000
# 4 0.000000 0.000000 0.000000 -0.409035 0.000000 0.000000
# 5 0.000000 0.000000 0.000000 0.000000 0.021232 0.000000
# 6 0.000000 0.000000 0.000000 0.000000 0.000000 -0.114559
#
#
# Mechanical properties :
#
#
# Convention : Reuss Voigt Hill
#
# Bulk Modulus (GPa) = 20.73443 71.15188 45.94316
# Shear Modulus (GPa) = -11.99154 26.97802 7.49324
#
# Velocity S-wave (km/s) = -2.36683 3.55005 1.87096
# Velocity P-wave (km/s) = 1.48895 7.07408 5.11173
#
# Compressibility (1/GPa) = 0.04822896
#
# Stress axis : x y z
#
# Youngs Moduli (GPa) = 90.80010 23.99561 164.23297
#
# Poissons Ratio (x) = -0.11173 0.73881
# Poissons Ratio (y) = -0.42280 0.89204
# Poissons Ratio (z) = 0.40847 0.13033
#
# Static dielectric constant tensor:
#      x y z
#    x 1.708810 0.000000 0.000000 
#    y 0.000000 1.681660 0.000000 
#    z 0.000000 0.000000 1.845910 
# 
# From -- ./inp_files/41717.got.cif
#   From: 2010.05.17/outbox.cif.g08.bks.cpg/sg66_21_cif.got.tgz:41717.got - 2010.06.03 17:51:23.
