data_PCOD9495926
_publ_section_title
;
Structure prediction by ZEFSAII (Michael W. Deem and Ramdas Pophale) SiO2 
 PCOD9495926
Probable space group: C C C M
;
_chemical_formula_sum "Si O2"
_cell_formula_units_Z 96
_cell_length_a 7.220741
_cell_length_b 17.552259
_cell_length_c 32.562820
_cell_angle_alpha 90.000000
_cell_angle_beta 90.000000
_cell_angle_gamma 90.000000
_cell_volume 4127.022103
_symmetry_space_group_name_H-M "C C C M"
_symmetry_group_IT_number 66
_symmetry_cell_setting 'orthorhombic'
loop_
_space_group_symop_operation_xyz
x,y,z
-x,-y,z
x,-y,1/2-z
-x,y,1/2-z
-x,-y,-z
x,y,-z
-x,y,1/2+z
x,-y,1/2+z
1/2+x,1/2+y,z
1/2-x,1/2-y,z
1/2+x,1/2-y,1/2-z
1/2-x,1/2+y,1/2-z
1/2-x,1/2-y,-z
1/2+x,1/2+y,-z
1/2-x,1/2+y,1/2+z
1/2+x,1/2-y,1/2+z
loop_
_atom_site_type_symbol
_atom_site_label
_atom_site_fract_x
_atom_site_fract_y
_atom_site_fract_z
Si Si1 0.744374 0.659690 0.000000
Si Si2 0.285906 0.899927 0.835752
Si Si3 0.699086 0.161191 0.076848
Si Si4 0.265082 0.076423 0.830966
Si Si5 0.219479 0.662001 0.250878
Si Si6 0.624942 0.922272 0.500000
Si Si7 0.259570 0.840105 0.588445
O O1 0.750000 0.750000 0.000000
O O2 0.668912 0.636205 0.044702
O O3 0.959682 0.638577 0.000000
O O4 0.227133 0.859625 0.877986
O O5 0.511854 0.907062 0.833438
O O6 0.217702 0.856281 0.795257
O O7 0.225852 0.987412 0.833714
O O8 0.750000 0.250000 0.066721
O O9 0.479082 0.148265 0.083078
O O10 0.740349 0.099968 0.040679
O O11 0.202518 0.110524 0.787500
O O12 0.189649 0.117068 0.871606
O O13 0.250000 0.750000 0.260944
O O14 0.000000 0.647371 0.250000
O O15 0.500000 0.000000 0.500000
O O16 0.250000 0.750000 0.594568
#
# Coordination Sequence:
#
# PCOD9495926 Si02
#       7
#     8  16  16  16  16   8  16
#     4   8  16  29  46  73  98 128 161 206 251 295
#     4   9  18  30  49  72 101 127 164 206 259 295
#     4  10  20  33  51  76 105 133 163 211 263 304
#     4   9  17  29  49  74  97 125 170 213 243 293
#     4  10  19  32  50  72  96 128 164 207 250 302
#     4  10  21  31  54  81 103 130 179 220 254 301
#     4   9  17  30  50  74  97 132 172 206 243 309
#
# _framework density 23.261326
#
# number of rings (size 3 to 8) (size 9 to 14) (size 15 to 20)
#    0.000    2.667    0.000    1.750    7.000    2.000 
#    0.000    0.000    0.000    5.000    0.000    7.000 
#    0.000    0.000    0.000    0.000    0.000    0.000 
#
# Total GULP energy -267753.285879 kJ/mol
# GULP energy per Si atom -5578.193456 kJ/mol
# Density = 2.320838 g / cm^3
# Si number density = 23.261326 Si / 1000 Ang^3
#
#
#
# Elastic Constant Matrix: (Units=GPa)
#
#
# Indices 1 2 3 4 5 6 
#
# 1 78.3456 -8.1998 -9.5172 0.0000 0.0000 0.0000
# 2 -8.1998 74.6631 76.5664 0.0000 0.0000 0.0000
# 3 -9.5172 76.5664 231.2757 0.0000 0.0000 0.0000
# 4 0.0000 0.0000 0.0000 44.2262 0.0000 0.0000
# 5 0.0000 0.0000 0.0000 0.0000 -9.6780 0.0000
# 6 0.0000 0.0000 0.0000 0.0000 0.0000 25.7238
#
#
#
# Elastic Compliance Matrix: (Units=1/GPa)
#
#
# Indices 1 2 3 4 5 6 
#
# 1 0.012914 0.001322 0.000094 0.000000 0.000000 0.000000
# 2 0.001322 0.020413 -0.006704 0.000000 0.000000 0.000000
# 3 0.000094 -0.006704 0.006547 0.000000 0.000000 0.000000
# 4 0.000000 0.000000 0.000000 0.022611 0.000000 0.000000
# 5 0.000000 0.000000 0.000000 0.000000 -0.103327 0.000000
# 6 0.000000 0.000000 0.000000 0.000000 0.000000 0.038875
#
#
# Mechanical properties :
#
#
# Convention : Reuss Voigt Hill
#
# Bulk Modulus (GPa) = 34.13157 55.77592 44.95374
# Shear Modulus (GPa) = 272.11700 33.75006 152.93353
#
# Velocity S-wave (km/s) = 10.82758 3.81321 8.11718
# Velocity P-wave (km/s) = 13.07747 6.58919 10.35466
#
# Compressibility (1/GPa) = 0.02929839
#
# Stress axis : x y z
#
# Youngs Moduli (GPa) = 77.43706 48.98792 152.74165
#
# Poissons Ratio (x) = -0.06477 -0.01431
# Poissons Ratio (y) = -0.10238 1.02392
# Poissons Ratio (z) = -0.00726 0.32840
#
# Static dielectric constant tensor:
#      x y z
#    x 2.232540 0.000000 0.000000 
#    y 0.000000 1.784150 0.000000 
#    z 0.000000 0.000000 1.951490 
# 
# From -- ./inp_files/69034.got.cif
#   From: 2010.05.17/outbox.cif.g08.bks.cpg/sg66_35_cif.got.tgz:69034.got - 2010.06.03 17:51:23.
