data_PCOD9495664
_publ_section_title
;
Structure prediction by ZEFSAII (Michael W. Deem and Ramdas Pophale) SiO2 
 PCOD9495664
Probable space group: C C C M
;
_chemical_formula_sum "Si O2"
_cell_formula_units_Z 68
_cell_length_a 24.478835
_cell_length_b 4.940208
_cell_length_c 26.383654
_cell_angle_alpha 90.000000
_cell_angle_beta 90.000000
_cell_angle_gamma 90.000000
_cell_volume 3190.589433
_symmetry_space_group_name_H-M "C C C M"
_symmetry_group_IT_number 66
_symmetry_cell_setting 'orthorhombic'
loop_
_space_group_symop_operation_xyz
x,y,z
-x,-y,z
x,-y,1/2-z
-x,y,1/2-z
-x,-y,-z
x,y,-z
-x,y,1/2+z
x,-y,1/2+z
1/2+x,1/2+y,z
1/2-x,1/2-y,z
1/2+x,1/2-y,1/2-z
1/2-x,1/2+y,1/2-z
1/2-x,1/2-y,-z
1/2+x,1/2+y,-z
1/2-x,1/2+y,1/2+z
1/2+x,1/2-y,1/2+z
loop_
_atom_site_type_symbol
_atom_site_label
_atom_site_fract_x
_atom_site_fract_y
_atom_site_fract_z
Si Si1 0.667809 0.364456 0.942901
Si Si2 0.078255 0.311348 0.163935
Si Si3 0.552708 0.322623 0.902634
Si Si4 0.000000 0.500000 0.250000
Si Si5 0.693123 0.133500 0.625551
O O1 0.602280 0.324638 0.941883
O O2 0.678321 0.659159 0.919910
O O3 0.693031 0.153091 0.902927
O O4 0.687977 0.334178 0.000000
O O5 0.054734 0.519755 0.121026
O O6 0.041202 0.341862 0.213106
O O7 0.142951 0.368615 0.165162
O O8 0.071711 0.006986 0.144630
O O9 0.500000 0.500000 0.920636
O O10 0.750000 0.250000 0.646449
#
# Coordination Sequence:
#
# PCOD9495664 Si02
#       5
#    16  16  16   4  16
#     4  10  21  33  54  84 108 147 198 231 267 322
#     4  10  22  33  57  85 107 142 182 228 286 336
#     4  10  18  36  51  77 118 146 177 223 284 339
#     4  12  20  38  64  90 110 134 188 244 276 354
#     4  10  21  38  55  76 115 152 183 229 283 332
#
# _framework density 21.312677000000001
#
# number of rings (size 3 to 8) (size 9 to 14) (size 15 to 20)
#    0.000    1.882    2.353    1.412    0.000    5.176 
#    0.000    0.000    0.000   16.941    0.000    0.000 
#    0.000    0.000    0.000    0.000    0.000    0.000 
#
# Total GULP energy -189457.571803 kJ/mol
# GULP energy per Si atom -5572.281524 kJ/mol
# Density = 2.126417 g / cm^3
# Si number density = 21.312677 Si / 1000 Ang^3
#
#
#
# Elastic Constant Matrix: (Units=GPa)
#
#
# Indices 1 2 3 4 5 6 
#
# 1 184.0703 -5.9265 26.7313 0.0000 0.0000 0.0000
# 2 -5.9265 62.5515 -4.4324 0.0000 0.0000 0.0000
# 3 26.7313 -4.4324 72.3358 0.0000 0.0000 0.0000
# 4 0.0000 0.0000 0.0000 2.8309 0.0000 0.0000
# 5 0.0000 0.0000 0.0000 0.0000 -1.8739 0.0000
# 6 0.0000 0.0000 0.0000 0.0000 0.0000 33.3548
#
#
#
# Elastic Compliance Matrix: (Units=1/GPa)
#
#
# Indices 1 2 3 4 5 6 
#
# 1 0.005751 0.000396 -0.002101 0.000000 0.000000 0.000000
# 2 0.000396 0.016084 0.000839 0.000000 0.000000 0.000000
# 3 -0.002101 0.000839 0.014652 0.000000 0.000000 0.000000
# 4 0.000000 0.000000 0.000000 0.353248 0.000000 0.000000
# 5 0.000000 0.000000 0.000000 0.000000 -0.533647 0.000000
# 6 0.000000 0.000000 0.000000 0.000000 0.000000 0.029981
#
#
# Mechanical properties :
#
#
# Convention : Reuss Voigt Hill
#
# Bulk Modulus (GPa) = 28.77260 39.07803 33.92532
# Shear Modulus (GPa) = -49.69426 27.03469 -11.32978
#
# Velocity S-wave (km/s) = -4.83398 3.56544 -2.30814
# Velocity P-wave (km/s) = 4.19845 5.94350 2.97474
#
# Compressibility (1/GPa) = 0.03475528
#
# Stress axis : x y z
#
# Youngs Moduli (GPa) = 173.89658 62.17432 68.24920
#
# Poissons Ratio (x) = -0.02462 0.14338
# Poissons Ratio (y) = -0.06886 -0.05728
# Poissons Ratio (z) = 0.36533 -0.05218
#
# Static dielectric constant tensor:
#      x y z
#    x 1.907800 0.000000 0.000000 
#    y 0.000000 1.747440 0.000000 
#    z 0.000000 0.000000 1.705390 
# 
# From -- ./inp_files/70110.got.cif
#   From: 2010.05.17/outbox.cif.g08.bks.cpg/sg66_36_cif.got.tgz:70110.got - 2010.06.03 17:51:23.
