data_PCOD9495654
_publ_section_title
;
Structure prediction by ZEFSAII (Michael W. Deem and Ramdas Pophale) SiO2 
 PCOD9495654
Probable space group: C C C M
;
_chemical_formula_sum "Si O2"
_cell_formula_units_Z 40
_cell_length_a 16.131539
_cell_length_b 10.613147
_cell_length_c 9.300948
_cell_angle_alpha 90.000000
_cell_angle_beta 90.000000
_cell_angle_gamma 90.000000
_cell_volume 1592.381775
_symmetry_space_group_name_H-M "C C C M"
_symmetry_group_IT_number 66
_symmetry_cell_setting 'orthorhombic'
loop_
_space_group_symop_operation_xyz
x,y,z
-x,-y,z
x,-y,1/2-z
-x,y,1/2-z
-x,-y,-z
x,y,-z
-x,y,1/2+z
x,-y,1/2+z
1/2+x,1/2+y,z
1/2-x,1/2-y,z
1/2+x,1/2-y,1/2-z
1/2-x,1/2+y,1/2-z
1/2-x,1/2-y,-z
1/2+x,1/2+y,-z
1/2-x,1/2+y,1/2+z
1/2+x,1/2-y,1/2+z
loop_
_atom_site_type_symbol
_atom_site_label
_atom_site_fract_x
_atom_site_fract_y
_atom_site_fract_z
Si Si1 0.750000 0.750000 0.000000
Si Si2 0.563360 0.168827 0.500000
Si Si3 0.267114 0.062048 0.500000
Si Si4 0.500000 0.500000 0.250000
Si Si5 0.086184 0.848354 0.000000
Si Si6 0.123160 0.500000 0.250000
O O1 0.645959 0.743671 0.000000
O O2 0.754466 0.591837 0.000000
O O3 0.472735 0.227731 0.500000
O O4 0.573199 0.086288 0.357934
O O5 0.184352 0.142861 0.500000
O O6 0.318407 0.083933 0.353932
O O7 0.556917 0.580553 0.355757
#
# Coordination Sequence:
#
# PCOD9495654 Si02
#       6
#     4   8   8   4   8   8
#     4   8  16  30  56  90 138 178 212 276 368 434
#     4  10  20  39  67  99 136 187 237 296 359 430
#     4  10  18  35  63 100 140 181 233 297 367 448
#     4  10  22  38  60 104 146 166 208 288 366 424
#     4  11  22  38  66 102 141 181 236 298 358 425
#     4   8  19  38  66  98 139 180 232 292 367 437
#
# _framework density 25.119606000000001
#
# number of rings (size 3 to 8) (size 9 to 14) (size 15 to 20)
#    0.000    2.800    0.000    3.600    0.000    3.200 
#    0.000    8.000    0.000   82.800    0.000    8.400 
#    0.000    0.000    0.000    0.000    0.000    7.600 
#
# Total GULP energy -111559.703529 kJ/mol
# GULP energy per Si atom -5577.985176 kJ/mol
# Density = 2.506243 g / cm^3
# Si number density = 25.119606 Si / 1000 Ang^3
#
#
#
# Elastic Constant Matrix: (Units=GPa)
#
#
# Indices 1 2 3 4 5 6 
#
# 1 233.1762 82.2361 99.5957 0.0000 0.0000 0.0000
# 2 82.2361 109.8061 64.7775 0.0000 0.0000 0.0000
# 3 99.5957 64.7775 225.8193 0.0000 0.0000 0.0000
# 4 0.0000 0.0000 0.0000 42.3980 0.0000 0.0000
# 5 0.0000 0.0000 0.0000 0.0000 15.0212 0.0000
# 6 0.0000 0.0000 0.0000 0.0000 0.0000 34.6460
#
#
#
# Elastic Compliance Matrix: (Units=1/GPa)
#
#
# Indices 1 2 3 4 5 6 
#
# 1 0.006342 -0.003731 -0.001727 0.000000 0.000000 0.000000
# 2 -0.003731 0.013157 -0.002129 0.000000 0.000000 0.000000
# 3 -0.001727 -0.002129 0.005801 0.000000 0.000000 0.000000
# 4 0.000000 0.000000 0.000000 0.023586 0.000000 0.000000
# 5 0.000000 0.000000 0.000000 0.000000 0.066573 0.000000
# 6 0.000000 0.000000 0.000000 0.000000 0.000000 0.028863
#
#
# Mechanical properties :
#
#
# Convention : Reuss Voigt Hill
#
# Bulk Modulus (GPa) = 98.74990 118.00224 108.37607
# Shear Modulus (GPa) = 30.69938 39.89251 35.29595
#
# Velocity S-wave (km/s) = 3.49969 3.98942 3.75255
# Velocity P-wave (km/s) = 7.46509 8.26431 7.87485
#
# Compressibility (1/GPa) = 0.01012659
#
# Stress axis : x y z
#
# Youngs Moduli (GPa) = 157.67879 76.00587 172.39787
#
# Poissons Ratio (x) = 0.28357 0.29770
# Poissons Ratio (y) = 0.58829 0.36697
# Poissons Ratio (z) = 0.27229 0.16179
#
# Static dielectric constant tensor:
#      x y z
#    x 1.996430 0.000000 0.000000 
#    y 0.000000 2.062620 0.000000 
#    z 0.000000 0.000000 1.915890 
# 
# From -- ./inp_files/3244.got.cif
#   From: 2010.05.17/outbox.cif.g08.bks.cpg/sg66_2_cif.got.tgz:3244.got - 2010.06.03 17:51:23.
