data_PCOD9495731
_publ_section_title
;
Structure prediction by ZEFSAII (Michael W. Deem and Ramdas Pophale) SiO2 
 PCOD9495731
Probable space group: C C C M
;
_chemical_formula_sum "Si O2"
_cell_formula_units_Z 80
_cell_length_a 38.037859
_cell_length_b 18.857551
_cell_length_c 8.823785
_cell_angle_alpha 90.000000
_cell_angle_beta 90.000000
_cell_angle_gamma 90.000000
_cell_volume 6329.308622
_symmetry_space_group_name_H-M "C C C M"
_symmetry_group_IT_number 66
_symmetry_cell_setting 'orthorhombic'
loop_
_space_group_symop_operation_xyz
x,y,z
-x,-y,z
x,-y,1/2-z
-x,y,1/2-z
-x,-y,-z
x,y,-z
-x,y,1/2+z
x,-y,1/2+z
1/2+x,1/2+y,z
1/2-x,1/2-y,z
1/2+x,1/2-y,1/2-z
1/2-x,1/2+y,1/2-z
1/2-x,1/2-y,-z
1/2+x,1/2+y,-z
1/2-x,1/2+y,1/2+z
1/2+x,1/2-y,1/2+z
loop_
_atom_site_type_symbol
_atom_site_label
_atom_site_fract_x
_atom_site_fract_y
_atom_site_fract_z
Si Si1 0.034996 0.420755 0.180727
Si Si2 0.788429 0.787410 0.825947
Si Si3 0.751875 0.577547 0.817186
Si Si4 0.819997 0.655540 0.320130
Si Si5 0.613364 0.920651 0.818310
O O1 0.036041 0.500000 0.250000
O O2 0.073950 0.391767 0.214581
O O3 0.000000 0.385722 0.250000
O O4 0.031082 0.425251 0.000000
O O5 0.750000 0.750000 0.826531
O O6 0.779297 0.867192 0.776489
O O7 0.812589 0.737106 0.725350
O O8 0.801091 0.787198 0.000000
O O9 0.746312 0.500000 0.750000
O O10 0.788216 0.609582 0.752256
O O11 0.754251 0.575975 0.000000
O O12 0.819347 0.646891 0.500000
O O13 0.856261 0.627080 0.252098
O O14 0.616280 0.000000 0.750000
O O15 0.617291 0.925129 0.000000
#
# Coordination Sequence:
#
# PCOD9495731 Si02
#       5
#    16  16  16  16  16
#     4   9  16  25  38  52  68  91 117 148 182 216
#     4   8  16  30  43  54  71  95 119 146 183 223
#     4  10  19  30  43  57  74  95 120 152 187 222
#     4  11  20  28  40  56  74  96 122 154 188 221
#     4  10  19  29  39  53  73  96 123 154 188 222
#
# _framework density 12.639611
#
# number of rings (size 3 to 8) (size 9 to 14) (size 15 to 20)
#    0.000    2.400    0.000    6.000    0.000    6.800 
#    0.000    0.000    0.000    0.000    0.000    0.000 
#    0.000    0.000    0.000    0.000    0.000    1.000 
#
# Total GULP energy -222793.767091 kJ/mol
# GULP energy per Si atom -5569.844177 kJ/mol
# Density = 1.261084 g / cm^3
# Si number density = 12.639611 Si / 1000 Ang^3
#
#
#
# Elastic Constant Matrix: (Units=GPa)
#
#
# Indices 1 2 3 4 5 6 
#
# 1 90.6161 43.8994 48.2186 0.0000 0.0000 0.0000
# 2 43.8994 79.2753 35.6970 0.0000 0.0000 0.0000
# 3 48.2186 35.6970 73.9365 0.0000 0.0000 0.0000
# 4 0.0000 0.0000 0.0000 13.6910 0.0000 0.0000
# 5 0.0000 0.0000 0.0000 0.0000 20.0125 0.0000
# 6 0.0000 0.0000 0.0000 0.0000 0.0000 13.2384
#
#
#
# Elastic Compliance Matrix: (Units=1/GPa)
#
#
# Indices 1 2 3 4 5 6 
#
# 1 0.019114 -0.006353 -0.009399 0.000000 0.000000 0.000000
# 2 -0.006353 0.018230 -0.004659 0.000000 0.000000 0.000000
# 3 -0.009399 -0.004659 0.021904 0.000000 0.000000 0.000000
# 4 0.000000 0.000000 0.000000 0.073041 0.000000 0.000000
# 5 0.000000 0.000000 0.000000 0.000000 0.049969 0.000000
# 6 0.000000 0.000000 0.000000 0.000000 0.000000 0.075538
#
#
# Mechanical properties :
#
#
# Convention : Reuss Voigt Hill
#
# Bulk Modulus (GPa) = 54.26415 55.49534 54.87975
# Shear Modulus (GPa) = 16.40649 17.12256 16.76452
#
# Velocity S-wave (km/s) = 3.60672 3.68458 3.64586
# Velocity P-wave (km/s) = 7.76978 7.88053 7.82535
#
# Compressibility (1/GPa) = 0.01842837
#
# Stress axis : x y z
#
# Youngs Moduli (GPa) = 52.31692 54.85532 45.65453
#
# Poissons Ratio (x) = 0.34848 0.42909
# Poissons Ratio (y) = 0.33235 0.21268
# Poissons Ratio (z) = 0.49170 0.25554
#
# Static dielectric constant tensor:
#      x y z
#    x 1.425790 0.000000 0.000000 
#    y 0.000000 1.404730 0.000000 
#    z 0.000000 0.000000 1.421550 
# 
# From -- ./inp_files/11466.got.cif
#   From: 2010.05.17/outbox.cif.g08.bks.cpg/sg66_6_cif.got.tgz:11466.got - 2010.06.03 17:51:23.
