data_PCOD9495152
_publ_section_title
;
Structure prediction by ZEFSAII (Michael W. Deem and Ramdas Pophale) SiO2 
 PCOD9495152
Probable space group: C C C M
;
_chemical_formula_sum "Si O2"
_cell_formula_units_Z 88
_cell_length_a 10.120107
_cell_length_b 24.238844
_cell_length_c 14.640038
_cell_angle_alpha 90.000000
_cell_angle_beta 90.000000
_cell_angle_gamma 90.000000
_cell_volume 3591.196854
_symmetry_space_group_name_H-M "C C C M"
_symmetry_group_IT_number 66
_symmetry_cell_setting 'orthorhombic'
loop_
_space_group_symop_operation_xyz
x,y,z
-x,-y,z
x,-y,1/2-z
-x,y,1/2-z
-x,-y,-z
x,y,-z
-x,y,1/2+z
x,-y,1/2+z
1/2+x,1/2+y,z
1/2-x,1/2-y,z
1/2+x,1/2-y,1/2-z
1/2-x,1/2+y,1/2-z
1/2-x,1/2-y,-z
1/2+x,1/2+y,-z
1/2-x,1/2+y,1/2+z
1/2+x,1/2-y,1/2+z
loop_
_atom_site_type_symbol
_atom_site_label
_atom_site_fract_x
_atom_site_fract_y
_atom_site_fract_z
Si Si1 0.462945 0.747956 0.857532
Si Si2 0.750000 0.250000 0.370270
Si Si3 0.106677 0.632027 0.833595
Si Si4 0.685942 0.373304 0.612371
Si Si5 0.417155 0.048394 0.899429
Si Si6 0.383601 0.373058 0.395238
O O1 0.500000 0.740419 0.750000
O O2 0.602914 0.756309 0.906467
O O3 0.384721 0.804243 0.861622
O O4 0.395581 0.693482 0.892782
O O5 0.729644 0.315366 0.338754
O O6 0.214524 0.577546 0.636796
O O7 0.023948 0.596915 0.905173
O O8 0.257444 0.610535 0.834600
O O9 0.695280 0.363919 0.500000
O O10 0.533905 0.388216 0.632841
O O11 0.500000 0.129654 0.750000
O O12 0.500000 0.000000 0.851286
O O13 0.379816 0.027183 0.000000
O O14 0.362033 0.391092 0.500000
#
# Coordination Sequence:
#
# PCOD9495152 Si02
#       6
#    16   8  16  16  16  16
#     4  10  22  32  54  82 125 163 208 259 323 396
#     4  10  17  32  52  80 117 162 198 254 308 384
#     4  11  23  37  57  84 120 159 210 262 327 391
#     4   9  18  34  56  86 120 157 204 255 318 382
#     4  10  21  39  62  86 116 158 211 266 316 379
#     4  10  22  38  59  90 127 167 211 267 330 399
#
# _framework density 24.504366000000001
#
# number of rings (size 3 to 8) (size 9 to 14) (size 15 to 20)
#    0.000    2.000    1.818    1.364    5.091    3.273 
#    0.000    0.909    0.000    4.364    0.000    2.545 
#    0.000    0.000    0.000    0.000    0.000    0.364 
#
# Total GULP energy -244958.603515 kJ/mol
# GULP energy per Si atom -5567.240989 kJ/mol
# Density = 2.444859 g / cm^3
# Si number density = 24.504366 Si / 1000 Ang^3
#
#
#
# Elastic Constant Matrix: (Units=GPa)
#
#
# Indices 1 2 3 4 5 6 
#
# 1 273.9244 49.5274 46.6797 0.0000 0.0000 0.0000
# 2 49.5274 51.8926 24.5751 0.0000 0.0000 0.0000
# 3 46.6797 24.5751 90.5021 0.0000 0.0000 0.0000
# 4 0.0000 0.0000 0.0000 8.6270 0.0000 0.0000
# 5 0.0000 0.0000 0.0000 0.0000 39.4337 0.0000
# 6 0.0000 0.0000 0.0000 0.0000 0.0000 44.0737
#
#
#
# Elastic Compliance Matrix: (Units=1/GPa)
#
#
# Indices 1 2 3 4 5 6 
#
# 1 0.004549 -0.003707 -0.001340 0.000000 0.000000 0.000000
# 2 -0.003707 0.025136 -0.004913 0.000000 0.000000 0.000000
# 3 -0.001340 -0.004913 0.013075 0.000000 0.000000 0.000000
# 4 0.000000 0.000000 0.000000 0.115915 0.000000 0.000000
# 5 0.000000 0.000000 0.000000 0.000000 0.025359 0.000000
# 6 0.000000 0.000000 0.000000 0.000000 0.000000 0.022689
#
#
# Mechanical properties :
#
#
# Convention : Reuss Voigt Hill
#
# Bulk Modulus (GPa) = 43.78479 73.09816 58.44147
# Shear Modulus (GPa) = 21.34414 38.12934 29.73674
#
# Velocity S-wave (km/s) = 2.95453 3.94892 3.48735
# Velocity P-wave (km/s) = 5.43562 7.11951 6.33377
#
# Compressibility (1/GPa) = 0.02283898
#
# Stress axis : x y z
#
# Youngs Moduli (GPa) = 219.81505 39.78388 76.48415
#
# Poissons Ratio (x) = 0.14750 0.10247
# Poissons Ratio (y) = 0.81496 0.37578
# Poissons Ratio (z) = 0.29449 0.19546
#
# Static dielectric constant tensor:
#      x y z
#    x 1.931360 0.000000 0.000000 
#    y 0.000000 1.941320 0.000000 
#    z 0.000000 0.000000 2.190530 
# 
# From -- ./inp_files/26785.got.cif
#   From: 2010.05.17/outbox.cif.g08.bks.cpg/sg66_14_cif.got.tgz:26785.got - 2010.06.03 17:51:23.
