data_PCOD9495160
_publ_section_title
;
Structure prediction by ZEFSAII (Michael W. Deem and Ramdas Pophale) SiO2 
 PCOD9495160
Probable space group: C C C M
;
_chemical_formula_sum "Si O2"
_cell_formula_units_Z 96
_cell_length_a 26.905654
_cell_length_b 9.545734
_cell_length_c 20.016843
_cell_angle_alpha 90.000000
_cell_angle_beta 90.000000
_cell_angle_gamma 90.000000
_cell_volume 5141.010182
_symmetry_space_group_name_H-M "C C C M"
_symmetry_group_IT_number 66
_symmetry_cell_setting 'orthorhombic'
loop_
_space_group_symop_operation_xyz
x,y,z
-x,-y,z
x,-y,1/2-z
-x,y,1/2-z
-x,-y,-z
x,y,-z
-x,y,1/2+z
x,-y,1/2+z
1/2+x,1/2+y,z
1/2-x,1/2-y,z
1/2+x,1/2-y,1/2-z
1/2-x,1/2+y,1/2-z
1/2-x,1/2-y,-z
1/2+x,1/2+y,-z
1/2-x,1/2+y,1/2+z
1/2+x,1/2-y,1/2+z
loop_
_atom_site_type_symbol
_atom_site_label
_atom_site_fract_x
_atom_site_fract_y
_atom_site_fract_z
Si Si1 0.785499 0.135257 0.702437
Si Si2 0.899692 0.832577 0.181129
Si Si3 0.078504 0.143579 0.661407
Si Si4 0.752280 0.484173 0.924016
Si Si5 0.833005 0.253992 0.075934
Si Si6 0.489873 0.156650 0.169599
O O1 0.750000 0.250000 0.736976
O O2 0.840466 0.185782 0.681913
O O3 0.791876 0.000000 0.750000
O O4 0.757140 0.090609 0.635217
O O5 0.914664 0.847868 0.258894
O O6 0.933793 0.706294 0.155799
O O7 0.915362 0.978587 0.145767
O O8 0.123655 0.225143 0.627370
O O9 0.027535 0.222922 0.644107
O O10 0.802481 0.396126 0.912989
O O11 0.707329 0.371266 0.919983
O O12 0.752591 0.540266 0.000000
O O13 0.852339 0.254725 0.000000
O O14 0.500000 0.151874 0.250000
O O15 0.500000 0.000000 0.144197
#
# Coordination Sequence:
#
# PCOD9495160 Si02
#       6
#    16  16  16  16  16  16
#     4  12  25  37  55  86 120 153 185 235 290 337
#     4  10  19  34  51  78 108 147 178 219 284 329
#     4  10  17  32  56  76 107 140 179 229 270 334
#     4   9  19  36  55  79 114 156 197 232 274 339
#     4   9  17  31  58  84 106 147 193 232 275 326
#     4   9  19  33  52  79 105 136 182 226 278 337
#
# _framework density 18.673373999999999
#
# number of rings (size 3 to 8) (size 9 to 14) (size 15 to 20)
#    0.000    2.167    3.333    1.500    4.667    3.667 
#    3.000    0.000    0.000    3.500    0.000    0.000 
#    0.000    0.000    0.000    0.000    0.000    0.000 
#
# Total GULP energy -267623.929636 kJ/mol
# GULP energy per Si atom -5575.498534 kJ/mol
# Density = 1.863087 g / cm^3
# Si number density = 18.673374 Si / 1000 Ang^3
#
#
#
# Elastic Constant Matrix: (Units=GPa)
#
#
# Indices 1 2 3 4 5 6 
#
# 1 112.0627 63.4627 15.8850 0.0000 0.0000 0.0000
# 2 63.4627 77.0268 9.4055 0.0000 0.0000 0.0000
# 3 15.8850 9.4055 33.9066 0.0000 0.0000 0.0000
# 4 0.0000 0.0000 0.0000 12.9307 0.0000 0.0000
# 5 0.0000 0.0000 0.0000 0.0000 -3.9328 0.0000
# 6 0.0000 0.0000 0.0000 0.0000 0.0000 20.4675
#
#
#
# Elastic Compliance Matrix: (Units=1/GPa)
#
#
# Indices 1 2 3 4 5 6 
#
# 1 0.017315 -0.013740 -0.004300 0.000000 0.000000 0.000000
# 2 -0.013740 0.024342 -0.000315 0.000000 0.000000 0.000000
# 3 -0.004300 -0.000315 0.031595 0.000000 0.000000 0.000000
# 4 0.000000 0.000000 0.000000 0.077335 0.000000 0.000000
# 5 0.000000 0.000000 0.000000 0.000000 -0.254273 0.000000
# 6 0.000000 0.000000 0.000000 0.000000 0.000000 0.048858
#
#
# Mechanical properties :
#
#
# Convention : Reuss Voigt Hill
#
# Bulk Modulus (GPa) = 27.36739 44.50029 35.93384
# Shear Modulus (GPa) = -842.17701 14.84259 -413.66721
#
# Velocity S-wave (km/s) = -21.25990 2.82237 -14.89996
# Velocity P-wave (km/s) = 24.24782 5.87398 16.63510
#
# Compressibility (1/GPa) = 0.03653984
#
# Stress axis : x y z
#
# Youngs Moduli (GPa) = 57.75481 41.08162 31.65077
#
# Poissons Ratio (x) = 0.56448 0.13611
# Poissons Ratio (y) = 0.79358 0.00997
# Poissons Ratio (z) = 0.24836 0.01294
#
# Static dielectric constant tensor:
#      x y z
#    x 1.642100 0.000000 0.000000 
#    y 0.000000 1.703190 0.000000 
#    z 0.000000 0.000000 1.645550 
# 
# From -- ./inp_files/52980.got.cif
#   From: 2010.05.17/outbox.cif.g08.bks.cpg/sg66_27_cif.got.tgz:52980.got - 2010.06.03 17:51:23.
