data_PCOD9495549
_publ_section_title
;
Structure prediction by ZEFSAII (Michael W. Deem and Ramdas Pophale) SiO2 
 PCOD9495549
Probable space group: C C C M
;
_chemical_formula_sum "Si O2"
_cell_formula_units_Z 116
_cell_length_a 8.912610
_cell_length_b 22.774788
_cell_length_c 28.303433
_cell_angle_alpha 90.000000
_cell_angle_beta 90.000000
_cell_angle_gamma 90.000000
_cell_volume 5745.110173
_symmetry_space_group_name_H-M "C C C M"
_symmetry_group_IT_number 66
_symmetry_cell_setting 'orthorhombic'
loop_
_space_group_symop_operation_xyz
x,y,z
-x,-y,z
x,-y,1/2-z
-x,y,1/2-z
-x,-y,-z
x,y,-z
-x,y,1/2+z
x,-y,1/2+z
1/2+x,1/2+y,z
1/2-x,1/2-y,z
1/2+x,1/2-y,1/2-z
1/2-x,1/2+y,1/2-z
1/2-x,1/2-y,-z
1/2+x,1/2+y,-z
1/2-x,1/2+y,1/2+z
1/2+x,1/2-y,1/2+z
loop_
_atom_site_type_symbol
_atom_site_label
_atom_site_fract_x
_atom_site_fract_y
_atom_site_fract_z
Si Si1 0.159460 0.522780 0.567273
Si Si2 0.333166 0.636349 0.317669
Si Si3 0.250000 0.250000 0.000000
Si Si4 0.173326 0.694756 0.763855
Si Si5 0.328552 0.596093 0.181553
Si Si6 0.333359 0.018235 0.818011
Si Si7 0.908603 0.942458 0.418211
Si Si8 0.320403 0.359999 0.069115
O O1 0.164365 0.519336 0.624622
O O2 0.285974 0.476494 0.551473
O O3 0.197160 0.590146 0.556232
O O4 0.000000 0.500000 0.551783
O O5 0.274565 0.686101 0.283085
O O6 0.504132 0.617799 0.306764
O O7 0.224583 0.581995 0.304982
O O8 0.320057 0.648829 0.373743
O O9 0.294567 0.300201 0.959004
O O10 0.250000 0.750000 0.789240
O O11 0.205236 0.639435 0.797436
O O12 0.000000 0.700992 0.750000
O O13 0.284524 0.531019 0.197756
O O14 0.329672 0.591599 0.124662
O O15 0.500000 0.000000 0.802915
O O16 0.024864 0.896530 0.440445
O O17 0.000000 0.000000 0.398059
#
# Coordination Sequence:
#
# PCOD9495549 Si02
#       8
#    16  16   4  16  16  16  16  16
#     4   8  14  29  58  89 116 146 188 241 294 357
#     4  10  20  37  59  83 112 157 193 241 299 344
#     4  12  24  40  60  90 118 152 202 248 282 378
#     4  12  26  41  54  77 114 156 207 248 279 334
#     4  10  18  33  56  81 115 149 187 240 284 336
#     4   9  16  29  53  87 118 147 188 240 294 344
#     4   8  15  33  61  91 121 151 191 238 295 354
#     4   9  20  36  59  87 117 154 195 241 299 355
#
# _framework density 20.191082999999999
#
# number of rings (size 3 to 8) (size 9 to 14) (size 15 to 20)
#    0.000    2.483    0.000    4.966    0.966    1.655 
#    0.000    7.586    0.000    0.828    0.000    0.000 
#    0.000    0.000    0.000    0.000    0.000    0.000 
#
# Total GULP energy -322907.911574 kJ/mol
# GULP energy per Si atom -5567.377786 kJ/mol
# Density = 2.014513 g / cm^3
# Si number density = 20.191083 Si / 1000 Ang^3
#
#
#
# Elastic Constant Matrix: (Units=GPa)
#
#
# Indices 1 2 3 4 5 6 
#
# 1 104.0411 39.1497 8.3824 0.0000 0.0000 0.0000
# 2 39.1497 139.8223 31.0432 0.0000 0.0000 0.0000
# 3 8.3824 31.0432 96.1043 0.0000 0.0000 0.0000
# 4 0.0000 0.0000 0.0000 47.3076 0.0000 0.0000
# 5 0.0000 0.0000 0.0000 0.0000 21.0472 0.0000
# 6 0.0000 0.0000 0.0000 0.0000 0.0000 30.0017
#
#
#
# Elastic Compliance Matrix: (Units=1/GPa)
#
#
# Indices 1 2 3 4 5 6 
#
# 1 0.010744 -0.003016 0.000037 0.000000 0.000000 0.000000
# 2 -0.003016 0.008551 -0.002499 0.000000 0.000000 0.000000
# 3 0.000037 -0.002499 0.011209 0.000000 0.000000 0.000000
# 4 0.000000 0.000000 0.000000 0.021138 0.000000 0.000000
# 5 0.000000 0.000000 0.000000 0.000000 0.047512 0.000000
# 6 0.000000 0.000000 0.000000 0.000000 0.000000 0.033331
#
#
# Mechanical properties :
#
#
# Convention : Reuss Voigt Hill
#
# Bulk Modulus (GPa) = 51.15668 55.23538 53.19603
# Shear Modulus (GPa) = 33.34247 37.09747 35.21997
#
# Velocity S-wave (km/s) = 4.06808 4.29105 4.18105
# Velocity P-wave (km/s) = 6.88891 7.20878 7.05066
#
# Compressibility (1/GPa) = 0.01954779
#
# Stress axis : x y z
#
# Youngs Moduli (GPa) = 93.07826 116.94013 89.21110
#
# Poissons Ratio (x) = 0.35274 -0.00333
# Poissons Ratio (y) = 0.28077 0.22295
# Poissons Ratio (z) = -0.00347 0.29225
#
# Static dielectric constant tensor:
#      x y z
#    x 1.738460 0.000000 0.000000 
#    y 0.000000 1.703270 0.000000 
#    z 0.000000 0.000000 1.735600 
# 
# From -- ./inp_files/68366.got.cif
#   From: 2010.05.17/outbox.cif.g08.bks.cpg/sg66_35_cif.got.tgz:68366.got - 2010.06.03 17:51:23.
