data_PCOD9495190
_publ_section_title
;
Structure prediction by ZEFSAII (Michael W. Deem and Ramdas Pophale) SiO2 
 PCOD9495190
Probable space group: C C C M
;
_chemical_formula_sum "Si O2"
_cell_formula_units_Z 72
_cell_length_a 17.102845
_cell_length_b 9.396565
_cell_length_c 23.784472
_cell_angle_alpha 90.000000
_cell_angle_beta 90.000000
_cell_angle_gamma 90.000000
_cell_volume 3822.354801
_symmetry_space_group_name_H-M "C C C M"
_symmetry_group_IT_number 66
_symmetry_cell_setting 'orthorhombic'
loop_
_space_group_symop_operation_xyz
x,y,z
-x,-y,z
x,-y,1/2-z
-x,y,1/2-z
-x,-y,-z
x,y,-z
-x,y,1/2+z
x,-y,1/2+z
1/2+x,1/2+y,z
1/2-x,1/2-y,z
1/2+x,1/2-y,1/2-z
1/2-x,1/2+y,1/2-z
1/2-x,1/2-y,-z
1/2+x,1/2+y,-z
1/2-x,1/2+y,1/2+z
1/2+x,1/2-y,1/2+z
loop_
_atom_site_type_symbol
_atom_site_label
_atom_site_fract_x
_atom_site_fract_y
_atom_site_fract_z
Si Si1 0.367320 0.847506 0.335241
Si Si2 0.205917 0.038296 0.815252
Si Si3 0.980215 0.666926 0.935923
Si Si4 0.062733 0.870708 0.853213
Si Si5 0.500000 0.809471 0.750000
O O1 0.295609 0.956272 0.334986
O O2 0.331820 0.694973 0.318804
O O3 0.404792 0.824891 0.396106
O O4 0.435988 0.884368 0.290689
O O5 0.205729 0.000000 0.750000
O O6 0.149141 0.934684 0.849684
O O7 0.000000 0.500000 0.936362
O O8 0.044648 0.761771 0.903591
O O9 0.969152 0.714951 0.000000
O O10 0.045726 0.789082 0.794755
O O11 0.000000 0.000000 0.857081
#
# Coordination Sequence:
#
# PCOD9495190 Si02
#       5
#    16  16  16  16   8
#     4  10  22  35  58  90 124 165 204 252 321 370
#     4  11  20  36  57  92 131 157 195 257 316 381
#     4  10  23  43  61  83 118 160 213 266 310 373
#     4  11  18  35  64  88 117 158 207 254 311 376
#     4  10  17  34  61  88 121 166 203 250 311 390
#
# _framework density 18.836556999999999
#
# number of rings (size 3 to 8) (size 9 to 14) (size 15 to 20)
#    0.000    1.556    6.667    0.333    0.000    4.000 
#    0.000    8.333    0.000    2.667    0.000    0.000 
#    0.000    0.000    0.000    0.000    0.000    0.000 
#
# Total GULP energy -200958.042911 kJ/mol
# GULP energy per Si atom -5582.167859 kJ/mol
# Density = 1.879368 g / cm^3
# Si number density = 18.836557 Si / 1000 Ang^3
#
#
#
# Elastic Constant Matrix: (Units=GPa)
#
#
# Indices 1 2 3 4 5 6 
#
# 1 161.9089 45.3784 65.1810 0.0000 0.0000 0.0000
# 2 45.3784 54.1297 42.8347 0.0000 0.0000 0.0000
# 3 65.1810 42.8347 158.1494 0.0000 0.0000 0.0000
# 4 0.0000 0.0000 0.0000 36.1790 0.0000 0.0000
# 5 0.0000 0.0000 0.0000 0.0000 12.0801 0.0000
# 6 0.0000 0.0000 0.0000 0.0000 0.0000 36.3821
#
#
#
# Elastic Compliance Matrix: (Units=1/GPa)
#
#
# Indices 1 2 3 4 5 6 
#
# 1 0.008549 -0.005573 -0.002014 0.000000 0.000000 0.000000
# 2 -0.005573 0.027147 -0.005056 0.000000 0.000000 0.000000
# 3 -0.002014 -0.005056 0.008523 0.000000 0.000000 0.000000
# 4 0.000000 0.000000 0.000000 0.027640 0.000000 0.000000
# 5 0.000000 0.000000 0.000000 0.000000 0.082781 0.000000
# 6 0.000000 0.000000 0.000000 0.000000 0.000000 0.027486
#
#
# Mechanical properties :
#
#
# Convention : Reuss Voigt Hill
#
# Bulk Modulus (GPa) = 52.81837 75.66401 64.24119
# Shear Modulus (GPa) = 23.39474 31.64785 27.52130
#
# Velocity S-wave (km/s) = 3.52801 4.10338 3.82653
# Velocity P-wave (km/s) = 6.68558 7.91873 7.32814
#
# Compressibility (1/GPa) = 0.01893281
#
# Stress axis : x y z
#
# Youngs Moduli (GPa) = 116.97123 36.83628 117.33564
#
# Poissons Ratio (x) = 0.20530 0.23631
# Poissons Ratio (y) = 0.65190 0.59323
# Poissons Ratio (z) = 0.23558 0.18624
#
# Static dielectric constant tensor:
#      x y z
#    x 1.680820 0.000000 0.000000 
#    y 0.000000 1.698590 0.000000 
#    z 0.000000 0.000000 1.614360 
# 
# From -- ./inp_files/50770.got.cif
#   From: 2010.05.17/outbox.cif.g08.bks.cpg/sg66_26_cif.got.tgz:50770.got - 2010.06.03 17:51:23.
