data_PCOD9495526
_publ_section_title
;
Structure prediction by ZEFSAII (Michael W. Deem and Ramdas Pophale) SiO2 
 PCOD9495526
Probable space group: C C C M
;
_chemical_formula_sum "Si O2"
_cell_formula_units_Z 104
_cell_length_a 9.370735
_cell_length_b 26.262819
_cell_length_c 24.605361
_cell_angle_alpha 90.000000
_cell_angle_beta 90.000000
_cell_angle_gamma 90.000000
_cell_volume 6055.426516
_symmetry_space_group_name_H-M "C C C M"
_symmetry_group_IT_number 66
_symmetry_cell_setting 'orthorhombic'
loop_
_space_group_symop_operation_xyz
x,y,z
-x,-y,z
x,-y,1/2-z
-x,y,1/2-z
-x,-y,-z
x,y,-z
-x,y,1/2+z
x,-y,1/2+z
1/2+x,1/2+y,z
1/2-x,1/2-y,z
1/2+x,1/2-y,1/2-z
1/2-x,1/2+y,1/2-z
1/2-x,1/2-y,-z
1/2+x,1/2+y,-z
1/2-x,1/2+y,1/2+z
1/2+x,1/2-y,1/2+z
loop_
_atom_site_type_symbol
_atom_site_label
_atom_site_fract_x
_atom_site_fract_y
_atom_site_fract_z
Si Si1 0.492266 0.319827 0.341578
Si Si2 0.000000 0.257892 0.750000
Si Si3 0.808912 0.104744 0.218415
Si Si4 0.270756 0.000000 0.750000
Si Si5 0.000000 0.500000 0.844369
Si Si6 0.933492 0.386640 0.872229
Si Si7 0.302768 0.832362 0.681703
Si Si8 0.774129 0.188809 0.063425
O O1 0.438119 0.277417 0.298173
O O2 0.443753 0.370993 0.310934
O O3 0.661151 0.312244 0.348090
O O4 0.409446 0.319977 0.397825
O O5 0.884290 0.291500 0.718964
O O6 0.672706 0.114498 0.179410
O O7 0.763386 0.129407 0.274692
O O8 0.822573 0.045827 0.228921
O O9 0.372954 0.986354 0.698471
O O10 0.037505 0.551883 0.878139
O O11 0.850719 0.350042 0.915461
O O12 0.081373 0.359306 0.856363
O O13 0.750000 0.250000 0.069120
O O14 0.798979 0.178593 0.000000
#
# Coordination Sequence:
#
# PCOD9495526 Si02
#       8
#    16   8  16   8   8  16  16  16
#     4  11  24  34  53  81 114 149 185 223 278 343
#     4  12  22  30  52  80 120 146 178 218 276 334
#     4  10  18  33  49  78 117 151 180 211 271 335
#     4   9  16  28  53  72 118 158 172 216 266 340
#     4   9  16  28  51  86 108 144 185 224 275 326
#     4  10  19  33  60  80 112 146 188 231 277 330
#     4  12  20  33  50  84 115 149 177 218 272 335
#     4  10  23  43  61  78 104 146 195 241 287 337
#
# _framework density 17.174678
#
# number of rings (size 3 to 8) (size 9 to 14) (size 15 to 20)
#    0.000    1.538    4.615    1.385    2.154    0.000 
#    0.000    2.692    0.000    3.692    0.000    1.077 
#    0.000    0.000    0.000    0.000    0.000    0.000 
#
# Total GULP energy -289635.297829 kJ/mol
# GULP energy per Si atom -5569.909574 kJ/mol
# Density = 1.713559 g / cm^3
# Si number density = 17.174678 Si / 1000 Ang^3
#
#
#
# Elastic Constant Matrix: (Units=GPa)
#
#
# Indices 1 2 3 4 5 6 
#
# 1 118.6663 55.1841 51.0973 0.0000 0.0000 0.0000
# 2 55.1841 107.6050 49.2451 0.0000 0.0000 0.0000
# 3 51.0973 49.2451 104.3755 0.0000 0.0000 0.0000
# 4 0.0000 0.0000 0.0000 15.6831 0.0000 0.0000
# 5 0.0000 0.0000 0.0000 0.0000 10.0536 0.0000
# 6 0.0000 0.0000 0.0000 0.0000 0.0000 16.4999
#
#
#
# Elastic Compliance Matrix: (Units=1/GPa)
#
#
# Indices 1 2 3 4 5 6 
#
# 1 0.012165 -0.004481 -0.003841 0.000000 0.000000 0.000000
# 2 -0.004481 0.013503 -0.004177 0.000000 0.000000 0.000000
# 3 -0.003841 -0.004177 0.013432 0.000000 0.000000 0.000000
# 4 0.000000 0.000000 0.000000 0.063763 0.000000 0.000000
# 5 0.000000 0.000000 0.000000 0.000000 0.099467 0.000000
# 6 0.000000 0.000000 0.000000 0.000000 0.000000 0.060607
#
#
# Mechanical properties :
#
#
# Convention : Reuss Voigt Hill
#
# Bulk Modulus (GPa) = 70.91481 71.29995 71.10738
# Shear Modulus (GPa) = 17.08617 20.12201 18.60409
#
# Velocity S-wave (km/s) = 3.15754 3.42659 3.29481
# Velocity P-wave (km/s) = 7.39415 7.56704 7.48109
#
# Compressibility (1/GPa) = 0.01410143
#
# Stress axis : x y z
#
# Youngs Moduli (GPa) = 82.20536 74.05902 74.44829
#
# Poissons Ratio (x) = 0.33183 0.28598
# Poissons Ratio (y) = 0.36833 0.31099
# Poissons Ratio (z) = 0.31577 0.30936
#
# Static dielectric constant tensor:
#      x y z
#    x 1.626730 0.000000 0.000000 
#    y 0.000000 1.662790 0.000000 
#    z 0.000000 0.000000 1.551760 
# 
# From -- ./inp_files/55886.got.cif
#   From: 2010.05.17/outbox.cif.g08.bks.cpg/sg66_28_cif.got.tgz:55886.got - 2010.06.03 17:51:23.
