data_PCOD9495182
_publ_section_title
;
Structure prediction by ZEFSAII (Michael W. Deem and Ramdas Pophale) SiO2 
 PCOD9495182
Probable space group: C C C M
;
_chemical_formula_sum "Si O2"
_cell_formula_units_Z 80
_cell_length_a 10.450636
_cell_length_b 25.578266
_cell_length_c 15.000531
_cell_angle_alpha 90.000000
_cell_angle_beta 90.000000
_cell_angle_gamma 90.000000
_cell_volume 4009.779153
_symmetry_space_group_name_H-M "C C C M"
_symmetry_group_IT_number 66
_symmetry_cell_setting 'orthorhombic'
loop_
_space_group_symop_operation_xyz
x,y,z
-x,-y,z
x,-y,1/2-z
-x,y,1/2-z
-x,-y,-z
x,y,-z
-x,y,1/2+z
x,-y,1/2+z
1/2+x,1/2+y,z
1/2-x,1/2-y,z
1/2+x,1/2-y,1/2-z
1/2-x,1/2+y,1/2-z
1/2-x,1/2-y,-z
1/2+x,1/2+y,-z
1/2-x,1/2+y,1/2+z
1/2+x,1/2-y,1/2+z
loop_
_atom_site_type_symbol
_atom_site_label
_atom_site_fract_x
_atom_site_fract_y
_atom_site_fract_z
Si Si1 0.127174 0.965129 0.000000
Si Si2 0.380499 0.591203 0.808099
Si Si3 0.875902 0.536856 0.000000
Si Si4 0.975684 0.170872 0.402185
Si Si5 0.717975 0.885861 0.853180
Si Si6 0.881371 0.272466 0.314892
O O1 0.130027 0.934473 0.094687
O O2 0.251423 0.000842 0.000000
O O3 0.000000 0.000000 0.000000
O O4 0.500000 0.568731 0.750000
O O5 0.421715 0.651166 0.830290
O O6 0.257158 0.591861 0.744284
O O7 0.859674 0.574050 0.086334
O O8 0.000000 0.500000 0.000000
O O9 0.032173 0.167705 0.500000
O O10 0.856972 0.130081 0.394393
O O11 0.919426 0.228191 0.386318
O O12 0.646010 0.830631 0.848293
O O13 0.750000 0.250000 0.273339
O O14 0.000000 0.274677 0.250000
#
# Coordination Sequence:
#
# PCOD9495182 Si02
#       6
#     8  16   8  16  16  16
#     4  12  24  42  69  98 128 160 225 288 335 386
#     4  10  21  38  65 101 131 166 208 274 338 387
#     4  12  28  46  62  94 128 172 228 278 314 388
#     4  10  17  33  64 102 133 157 203 266 326 389
#     4  10  22  40  64  87 131 176 218 253 326 394
#     4  10  21  36  62  95 130 168 213 254 317 393
#
# _framework density 19.951224
#
# number of rings (size 3 to 8) (size 9 to 14) (size 15 to 20)
#    0.000    1.600    2.000    5.400    1.400    5.600 
#    0.000    1.000    2.200    1.800    0.000    0.000 
#    0.000    0.000    0.000    0.000    0.000    0.000 
#
# Total GULP energy -223123.670832 kJ/mol
# GULP energy per Si atom -5578.091771 kJ/mol
# Density = 1.990581 g / cm^3
# Si number density = 19.951224 Si / 1000 Ang^3
#
#
#
# Elastic Constant Matrix: (Units=GPa)
#
#
# Indices 1 2 3 4 5 6 
#
# 1 99.5746 66.7784 45.3378 0.0000 0.0000 0.0000
# 2 66.7784 134.0368 70.2578 0.0000 0.0000 0.0000
# 3 45.3378 70.2578 149.6832 0.0000 0.0000 0.0000
# 4 0.0000 0.0000 0.0000 27.2739 0.0000 0.0000
# 5 0.0000 0.0000 0.0000 0.0000 19.6918 0.0000
# 6 0.0000 0.0000 0.0000 0.0000 0.0000 29.7730
#
#
#
# Elastic Compliance Matrix: (Units=1/GPa)
#
#
# Indices 1 2 3 4 5 6 
#
# 1 0.015300 -0.006888 -0.001401 0.000000 0.000000 0.000000
# 2 -0.006888 0.012996 -0.004014 0.000000 0.000000 0.000000
# 3 -0.001401 -0.004014 0.008989 0.000000 0.000000 0.000000
# 4 0.000000 0.000000 0.000000 0.036665 0.000000 0.000000
# 5 0.000000 0.000000 0.000000 0.000000 0.050783 0.000000
# 6 0.000000 0.000000 0.000000 0.000000 0.000000 0.033587
#
#
# Mechanical properties :
#
#
# Convention : Reuss Voigt Hill
#
# Bulk Modulus (GPa) = 78.86845 83.11584 80.99215
# Shear Modulus (GPa) = 26.71603 28.74245 27.72924
#
# Velocity S-wave (km/s) = 3.66330 3.79969 3.73212
# Velocity P-wave (km/s) = 7.58350 7.81026 7.69771
#
# Compressibility (1/GPa) = 0.01267934
#
# Stress axis : x y z
#
# Youngs Moduli (GPa) = 65.35862 76.94474 111.24550
#
# Poissons Ratio (x) = 0.53002 0.15587
# Poissons Ratio (y) = 0.45021 0.44651
# Poissons Ratio (z) = 0.09157 0.30884
#
# Static dielectric constant tensor:
#      x y z
#    x 1.680400 0.000000 0.000000 
#    y 0.000000 1.736190 0.000000 
#    z 0.000000 0.000000 1.746890 
# 
# From -- ./inp_files/26436.got.cif
#   From: 2010.05.17/outbox.cif.g08.bks.cpg/sg66_14_cif.got.tgz:26436.got - 2010.06.03 17:51:23.
