data_PCOD9495207
_publ_section_title
;
Structure prediction by ZEFSAII (Michael W. Deem and Ramdas Pophale) SiO2 
 PCOD9495207
Probable space group: C C C M
;
_chemical_formula_sum "Si O2"
_cell_formula_units_Z 104
_cell_length_a 7.872325
_cell_length_b 25.285877
_cell_length_c 25.099437
_cell_angle_alpha 90.000000
_cell_angle_beta 90.000000
_cell_angle_gamma 90.000000
_cell_volume 4996.259836
_symmetry_space_group_name_H-M "C C C M"
_symmetry_group_IT_number 66
_symmetry_cell_setting 'orthorhombic'
loop_
_space_group_symop_operation_xyz
x,y,z
-x,-y,z
x,-y,1/2-z
-x,y,1/2-z
-x,-y,-z
x,y,-z
-x,y,1/2+z
x,-y,1/2+z
1/2+x,1/2+y,z
1/2-x,1/2-y,z
1/2+x,1/2-y,1/2-z
1/2-x,1/2+y,1/2-z
1/2-x,1/2-y,-z
1/2+x,1/2+y,-z
1/2-x,1/2+y,1/2+z
1/2+x,1/2-y,1/2+z
loop_
_atom_site_type_symbol
_atom_site_label
_atom_site_fract_x
_atom_site_fract_y
_atom_site_fract_z
Si Si1 0.547599 0.748722 0.616756
Si Si2 0.446013 0.895882 0.500000
Si Si3 0.457850 0.438830 0.115851
Si Si4 0.047311 0.560258 0.386464
Si Si5 0.548945 0.848698 0.188696
Si Si6 0.049547 0.849207 0.689552
Si Si7 0.550516 0.770717 0.500000
Si Si8 0.453598 0.563975 0.500000
O O1 0.750000 0.750000 0.613274
O O2 0.493852 0.799538 0.650893
O O3 0.496237 0.697813 0.649984
O O4 0.479024 0.749710 0.556297
O O5 0.513038 0.921116 0.445012
O O6 0.503416 0.833923 0.500000
O O7 0.243267 0.913665 0.500000
O O8 0.500000 0.500000 0.122875
O O9 0.252668 0.435722 0.113311
O O10 0.523195 0.402670 0.163649
O O11 0.522497 0.418914 0.057787
O O12 0.978713 0.599107 0.340666
O O13 0.000000 0.500000 0.377248
O O14 0.500000 0.841153 0.250000
O O15 0.749758 0.854122 0.189563
O O16 0.000000 0.838752 0.750000
O O17 0.750000 0.750000 0.500000
O O18 0.500000 0.500000 0.500000
#
# Coordination Sequence:
#
# PCOD9495207 Si02
#       8
#    16   8  16  16  16  16   8   8
#     4  11  23  42  65  90 123 159 206 259 311 378
#     4  10  17  38  62  90 129 164 203 266 321 390
#     4   9  20  38  59  87 126 158 201 256 312 378
#     4  10  21  36  62  91 119 160 206 251 312 379
#     4  11  23  41  62  87 124 163 206 262 310 372
#     4  11  24  41  62  90 119 165 215 254 318 374
#     4  10  22  40  63  96 131 162 208 261 329 385
#     4   8  16  34  62  90 122 164 207 257 318 388
#
# _framework density 20.815572
#
# number of rings (size 3 to 8) (size 9 to 14) (size 15 to 20)
#    0.000    1.846    1.538    2.077    0.000    3.692 
#    0.000    5.385    0.000    0.000    0.000    0.000 
#    0.000    0.000    0.000    0.000    0.000    0.000 
#
# Total GULP energy -289994.047839 kJ/mol
# GULP energy per Si atom -5576.808612 kJ/mol
# Density = 2.076819 g / cm^3
# Si number density = 20.815572 Si / 1000 Ang^3
#
#
#
# Elastic Constant Matrix: (Units=GPa)
#
#
# Indices 1 2 3 4 5 6 
#
# 1 42.1760 7.5021 18.5607 0.0000 0.0000 0.0000
# 2 7.5021 124.4458 85.6116 0.0000 0.0000 0.0000
# 3 18.5607 85.6116 217.4334 0.0000 0.0000 0.0000
# 4 0.0000 0.0000 0.0000 -7.7706 0.0000 0.0000
# 5 0.0000 0.0000 0.0000 0.0000 -7.2017 0.0000
# 6 0.0000 0.0000 0.0000 0.0000 0.0000 28.3355
#
#
#
# Elastic Compliance Matrix: (Units=1/GPa)
#
#
# Indices 1 2 3 4 5 6 
#
# 1 0.024636 -0.000053 -0.002082 0.000000 0.000000 0.000000
# 2 -0.000053 0.011021 -0.004335 0.000000 0.000000 0.000000
# 3 -0.002082 -0.004335 0.006484 0.000000 0.000000 0.000000
# 4 0.000000 0.000000 0.000000 -0.128690 0.000000 0.000000
# 5 0.000000 0.000000 0.000000 0.000000 -0.138855 0.000000
# 6 0.000000 0.000000 0.000000 0.000000 0.000000 0.035291
#
#
# Mechanical properties :
#
#
# Convention : Reuss Voigt Hill
#
# Bulk Modulus (GPa) = 34.24549 67.48934 50.86742
# Shear Modulus (GPa) = -29.86145 20.83135 -4.51505
#
# Velocity S-wave (km/s) = -3.79168 3.16691 -1.47437
# Velocity P-wave (km/s) = 1.63755 6.77239 4.64671
#
# Compressibility (1/GPa) = 0.02920092
#
# Stress axis : x y z
#
# Youngs Moduli (GPa) = 40.59115 90.73638 154.23417
#
# Poissons Ratio (x) = 0.00478 0.32115
# Poissons Ratio (y) = 0.00214 0.66858
# Poissons Ratio (z) = 0.08452 0.39333
#
# Static dielectric constant tensor:
#      x y z
#    x 1.776110 0.000000 0.000000 
#    y 0.000000 1.721660 0.000000 
#    z 0.000000 0.000000 1.822630 
# 
# From -- ./inp_files/47460.got.cif
#   From: 2010.05.17/outbox.cif.g08.bks.cpg/sg66_24_cif.got.tgz:47460.got - 2010.06.03 17:51:23.
