data_PCOD9495742
_publ_section_title
;
Structure prediction by ZEFSAII (Michael W. Deem and Ramdas Pophale) SiO2 
 PCOD9495742
Probable space group: C C C M
;
_chemical_formula_sum "Si O2"
_cell_formula_units_Z 100
_cell_length_a 27.590573
_cell_length_b 29.084547
_cell_length_c 9.477947
_cell_angle_alpha 90.000000
_cell_angle_beta 90.000000
_cell_angle_gamma 90.000000
_cell_volume 7605.666878
_symmetry_space_group_name_H-M "C C C M"
_symmetry_group_IT_number 66
_symmetry_cell_setting 'orthorhombic'
loop_
_space_group_symop_operation_xyz
x,y,z
-x,-y,z
x,-y,1/2-z
-x,y,1/2-z
-x,-y,-z
x,y,-z
-x,y,1/2+z
x,-y,1/2+z
1/2+x,1/2+y,z
1/2-x,1/2-y,z
1/2+x,1/2-y,1/2-z
1/2-x,1/2+y,1/2-z
1/2-x,1/2-y,-z
1/2+x,1/2+y,-z
1/2-x,1/2+y,1/2+z
1/2+x,1/2-y,1/2+z
loop_
_atom_site_type_symbol
_atom_site_label
_atom_site_fract_x
_atom_site_fract_y
_atom_site_fract_z
Si Si1 0.278309 0.644411 0.330607
Si Si2 0.000000 0.000000 0.250000
Si Si3 0.649314 0.711688 0.666382
Si Si4 0.425380 0.424581 0.839359
Si Si5 0.953199 0.834593 0.333615
Si Si6 0.815505 0.045418 0.667405
Si Si7 0.202808 0.716346 0.338405
O O1 0.286451 0.650416 0.500000
O O2 0.318705 0.673141 0.246350
O O3 0.284806 0.590930 0.297677
O O4 0.226229 0.667344 0.299322
O O5 0.964095 0.034167 0.332845
O O6 0.660711 0.711450 0.500000
O O7 0.593455 0.697830 0.684325
O O8 0.664480 0.760055 0.735805
O O9 0.440397 0.384181 0.733738
O O10 0.371925 0.442806 0.801558
O O11 0.423193 0.406520 0.000000
O O12 0.963125 0.839726 0.500000
O O13 0.000000 0.817222 0.250000
O O14 0.812173 0.037442 0.500000
O O15 0.801041 0.000000 0.750000
O O16 0.185173 0.715316 0.500000
O O17 0.250000 0.750000 0.335953
#
# Coordination Sequence:
#
# PCOD9495742 Si02
#       7
#    16   4  16  16  16  16  16
#     4   9  17  30  45  61  81 106 134 163 200 249
#     4  12  22  32  44  62  74  92 142 184 218 256
#     4  10  19  29  43  64  84 101 126 166 208 246
#     4  11  22  33  45  57  74 100 132 175 218 251
#     4  11  23  34  45  60  79 103 134 169 208 251
#     4  10  20  32  44  59  79 106 136 170 210 250
#     4   8  15  27  44  63  81 103 129 157 195 247
#
# _framework density 13.148091000000001
#
# number of rings (size 3 to 8) (size 9 to 14) (size 15 to 20)
#    0.000    2.080    3.200    2.160    0.000    6.720 
#    0.000    0.000    0.000    0.000    0.000    0.000 
#    0.000    0.000    0.000    0.000    0.000    0.800 
#
# Total GULP energy -278706.338485 kJ/mol
# GULP energy per Si atom -5574.126770 kJ/mol
# Density = 1.311817 g / cm^3
# Si number density = 13.148091 Si / 1000 Ang^3
#
#
#
# Elastic Constant Matrix: (Units=GPa)
#
#
# Indices 1 2 3 4 5 6 
#
# 1 50.3276 49.0550 43.9292 0.0000 0.0000 0.0000
# 2 49.0550 89.1863 43.4120 0.0000 0.0000 0.0000
# 3 43.9292 43.4120 70.5625 0.0000 0.0000 0.0000
# 4 0.0000 0.0000 0.0000 20.8433 0.0000 0.0000
# 5 0.0000 0.0000 0.0000 0.0000 17.4632 0.0000
# 6 0.0000 0.0000 0.0000 0.0000 0.0000 24.4611
#
#
#
# Elastic Compliance Matrix: (Units=1/GPa)
#
#
# Indices 1 2 3 4 5 6 
#
# 1 0.065736 -0.023177 -0.026665 0.000000 0.000000 0.000000
# 2 -0.023177 0.024178 -0.000445 0.000000 0.000000 0.000000
# 3 -0.026665 -0.000445 0.031047 0.000000 0.000000 0.000000
# 4 0.000000 0.000000 0.000000 0.047977 0.000000 0.000000
# 5 0.000000 0.000000 0.000000 0.000000 0.057263 0.000000
# 6 0.000000 0.000000 0.000000 0.000000 0.000000 0.040881
#
#
# Mechanical properties :
#
#
# Convention : Reuss Voigt Hill
#
# Bulk Modulus (GPa) = 49.05754 53.65210 51.35482
# Shear Modulus (GPa) = 13.35282 17.46554 15.40918
#
# Velocity S-wave (km/s) = 3.19026 3.64864 3.42712
# Velocity P-wave (km/s) = 7.13883 7.65798 7.40296
#
# Compressibility (1/GPa) = 0.02038423
#
# Stress axis : x y z
#
# Youngs Moduli (GPa) = 15.21229 41.36074 32.20969
#
# Poissons Ratio (x) = 0.95863 0.85888
# Poissons Ratio (y) = 0.35258 0.01435
# Poissons Ratio (z) = 0.40564 0.01842
#
# Static dielectric constant tensor:
#      x y z
#    x 1.425360 0.000000 0.000000 
#    y 0.000000 1.434080 0.000000 
#    z 0.000000 0.000000 1.444540 
# 
# From -- ./inp_files/10873.got.cif
#   From: 2010.05.17/outbox.cif.g08.bks.cpg/sg66_6_cif.got.tgz:10873.got - 2010.06.03 17:51:23.
