data_PCOD9495977
_publ_section_title
;
Structure prediction by ZEFSAII (Michael W. Deem and Ramdas Pophale) SiO2 
 PCOD9495977
Probable space group: C C C M
;
_chemical_formula_sum "Si O2"
_cell_formula_units_Z 96
_cell_length_a 21.074041
_cell_length_b 10.148995
_cell_length_c 23.539218
_cell_angle_alpha 90.000000
_cell_angle_beta 90.000000
_cell_angle_gamma 90.000000
_cell_volume 5034.575872
_symmetry_space_group_name_H-M "C C C M"
_symmetry_group_IT_number 66
_symmetry_cell_setting 'orthorhombic'
loop_
_space_group_symop_operation_xyz
x,y,z
-x,-y,z
x,-y,1/2-z
-x,y,1/2-z
-x,-y,-z
x,y,-z
-x,y,1/2+z
x,-y,1/2+z
1/2+x,1/2+y,z
1/2-x,1/2-y,z
1/2+x,1/2-y,1/2-z
1/2-x,1/2+y,1/2-z
1/2-x,1/2-y,-z
1/2+x,1/2+y,-z
1/2-x,1/2+y,1/2+z
1/2+x,1/2-y,1/2+z
loop_
_atom_site_type_symbol
_atom_site_label
_atom_site_fract_x
_atom_site_fract_y
_atom_site_fract_z
Si Si1 0.210498 0.432288 0.606194
Si Si2 0.836121 0.979638 0.936726
Si Si3 0.207518 0.136165 0.718101
Si Si4 0.647670 0.809407 0.933218
Si Si5 0.112934 0.212830 0.372100
Si Si6 0.999119 0.341723 0.934762
O O1 0.268294 0.449057 0.563130
O O2 0.247213 0.405368 0.665066
O O3 0.171456 0.567400 0.602886
O O4 0.162681 0.312178 0.597113
O O5 0.881565 0.068112 0.898834
O O6 0.824907 0.831543 0.915104
O O7 0.862147 0.967691 0.000000
O O8 0.250000 0.250000 0.748276
O O9 0.142908 0.196931 0.690960
O O10 0.194597 0.000000 0.750000
O O11 0.571800 0.797551 0.929973
O O12 0.664430 0.833212 0.000000
O O13 0.045468 0.274821 0.387723
O O14 0.000000 0.500000 0.928655
O O15 0.976765 0.312959 0.000000
#
# Coordination Sequence:
#
# PCOD9495977 Si02
#       6
#    16  16  16  16  16  16
#     4  10  19  33  52  77 105 138 180 220 269 330
#     4  10  20  30  45  74 111 145 177 221 265 307
#     4   9  20  36  56  82 106 130 170 231 293 341
#     4  10  20  32  48  77 115 154 188 215 254 312
#     4  10  20  34  52  78 107 140 185 223 264 326
#     4  10  19  32  53  78 112 158 194 219 252 314
#
# _framework density 19.068138999999999
#
# number of rings (size 3 to 8) (size 9 to 14) (size 15 to 20)
#    0.000    2.167    1.667    3.000    0.000    7.333 
#    0.000    2.500    0.000    0.000    0.000   37.333 
#    0.000    0.000    0.000    0.000    0.000    0.000 
#
# Total GULP energy -267447.820217 kJ/mol
# GULP energy per Si atom -5571.829588 kJ/mol
# Density = 1.902474 g / cm^3
# Si number density = 19.068139 Si / 1000 Ang^3
#
#
#
# Elastic Constant Matrix: (Units=GPa)
#
#
# Indices 1 2 3 4 5 6 
#
# 1 48.9954 7.7516 9.9183 0.0000 0.0000 0.0000
# 2 7.7516 99.1951 11.9967 0.0000 0.0000 0.0000
# 3 9.9183 11.9967 15.8673 0.0000 0.0000 0.0000
# 4 0.0000 0.0000 0.0000 31.8781 0.0000 0.0000
# 5 0.0000 0.0000 0.0000 0.0000 16.3129 0.0000
# 6 0.0000 0.0000 0.0000 0.0000 0.0000 27.3637
#
#
#
# Elastic Compliance Matrix: (Units=1/GPa)
#
#
# Indices 1 2 3 4 5 6 
#
# 1 0.023367 -0.000066 -0.014557 0.000000 0.000000 0.000000
# 2 -0.000066 0.011096 -0.008348 0.000000 0.000000 0.000000
# 3 -0.014557 -0.008348 0.078433 0.000000 0.000000 0.000000
# 4 0.000000 0.000000 0.000000 0.031369 0.000000 0.000000
# 5 0.000000 0.000000 0.000000 0.000000 0.061301 0.000000
# 6 0.000000 0.000000 0.000000 0.000000 0.000000 0.036545
#
#
# Mechanical properties :
#
#
# Convention : Reuss Voigt Hill
#
# Bulk Modulus (GPa) = 14.93528 24.82123 19.87826
# Shear Modulus (GPa) = 16.10972 24.07036 20.09004
#
# Velocity S-wave (km/s) = 2.90978 3.55679 3.24943
# Velocity P-wave (km/s) = 4.37478 5.46928 4.95236
#
# Compressibility (1/GPa) = 0.06695554
#
# Stress axis : x y z
#
# Youngs Moduli (GPa) = 42.79502 90.12335 12.74966
#
# Poissons Ratio (x) = 0.00591 0.18559
# Poissons Ratio (y) = 0.00280 0.10644
# Poissons Ratio (z) = 0.62296 0.75237
#
# Static dielectric constant tensor:
#      x y z
#    x 1.684760 0.000000 0.000000 
#    y 0.000000 1.715570 0.000000 
#    z 0.000000 0.000000 1.671180 
# 
# From -- ./inp_files/62573.got.cif
#   From: 2010.05.17/outbox.cif.g08.bks.cpg/sg66_32_cif.got.tgz:62573.got - 2010.06.03 17:51:23.
