data_PCOD9495507
_publ_section_title
;
Structure prediction by ZEFSAII (Michael W. Deem and Ramdas Pophale) SiO2 
 PCOD9495507
Probable space group: C C C M
;
_chemical_formula_sum "Si O2"
_cell_formula_units_Z 96
_cell_length_a 23.000918
_cell_length_b 10.912553
_cell_length_c 18.308284
_cell_angle_alpha 90.000000
_cell_angle_beta 90.000000
_cell_angle_gamma 90.000000
_cell_volume 4595.356156
_symmetry_space_group_name_H-M "C C C M"
_symmetry_group_IT_number 66
_symmetry_cell_setting 'orthorhombic'
loop_
_space_group_symop_operation_xyz
x,y,z
-x,-y,z
x,-y,1/2-z
-x,y,1/2-z
-x,-y,-z
x,y,-z
-x,y,1/2+z
x,-y,1/2+z
1/2+x,1/2+y,z
1/2-x,1/2-y,z
1/2+x,1/2-y,1/2-z
1/2-x,1/2+y,1/2-z
1/2-x,1/2-y,-z
1/2+x,1/2+y,-z
1/2-x,1/2+y,1/2+z
1/2+x,1/2-y,1/2+z
loop_
_atom_site_type_symbol
_atom_site_label
_atom_site_fract_x
_atom_site_fract_y
_atom_site_fract_z
Si Si1 0.472149 0.363311 0.917218
Si Si2 0.139856 0.999967 0.588408
Si Si3 0.083479 0.241781 0.651825
Si Si4 0.760690 0.611017 0.911316
Si Si5 0.612390 0.008308 0.413197
Si Si6 0.564878 0.875179 0.217420
O O1 0.500000 0.500000 0.920941
O O2 0.406265 0.391752 0.893551
O O3 0.516153 0.291443 0.865439
O O4 0.473247 0.313215 0.000000
O O5 0.137086 0.010716 0.500000
O O6 0.119397 0.127593 0.622048
O O7 0.204722 0.966844 0.611132
O O8 0.099088 0.368409 0.610444
O O9 0.092679 0.263939 0.738073
O O10 0.750000 0.750000 0.885631
O O11 0.822282 0.550788 0.892356
O O12 0.760099 0.615072 0.000000
O O13 0.605060 0.020053 0.500000
O O14 0.571226 0.101397 0.368090
O O15 0.500000 0.877938 0.250000
O O16 0.593260 0.000000 0.250000
#
# Coordination Sequence:
#
# PCOD9495507 Si02
#       6
#    16  16  16  16  16  16
#     4   8  14  26  48  84 126 159 188 232 293 364
#     4   9  17  31  55  90 129 161 196 250 309 362
#     4  10  18  32  57  87 123 160 200 248 317 372
#     4   9  19  35  56  82 115 160 207 252 298 349
#     4  10  20  36  61  88 116 160 215 257 298 365
#     4   9  20  38  56  79 119 162 190 241 308 359
#
# _framework density 20.890656
#
# number of rings (size 3 to 8) (size 9 to 14) (size 15 to 20)
#    0.000    2.833    0.000    2.500    0.000    2.000 
#    0.000   12.500   11.000   10.500    0.000    0.000 
#    0.000    6.000    0.000    0.000    0.000    0.500 
#
# Total GULP energy -267702.813560 kJ/mol
# GULP energy per Si atom -5577.141949 kJ/mol
# Density = 2.084311 g / cm^3
# Si number density = 20.890656 Si / 1000 Ang^3
#
#
#
# Elastic Constant Matrix: (Units=GPa)
#
#
# Indices 1 2 3 4 5 6 
#
# 1 118.1391 60.4249 36.6781 0.0000 0.0000 0.0000
# 2 60.4249 126.8043 55.6397 0.0000 0.0000 0.0000
# 3 36.6781 55.6397 104.0333 0.0000 0.0000 0.0000
# 4 0.0000 0.0000 0.0000 30.3145 0.0000 0.0000
# 5 0.0000 0.0000 0.0000 0.0000 7.9768 0.0000
# 6 0.0000 0.0000 0.0000 0.0000 0.0000 36.7129
#
#
#
# Elastic Compliance Matrix: (Units=1/GPa)
#
#
# Indices 1 2 3 4 5 6 
#
# 1 0.011357 -0.004776 -0.001450 0.000000 0.000000 0.000000
# 2 -0.004776 0.012313 -0.004901 0.000000 0.000000 0.000000
# 3 -0.001450 -0.004901 0.012745 0.000000 0.000000 0.000000
# 4 0.000000 0.000000 0.000000 0.032987 0.000000 0.000000
# 5 0.000000 0.000000 0.000000 0.000000 0.125364 0.000000
# 6 0.000000 0.000000 0.000000 0.000000 0.000000 0.027238
#
#
# Mechanical properties :
#
#
# Convention : Reuss Voigt Hill
#
# Bulk Modulus (GPa) = 70.61811 72.71802 71.66807
# Shear Modulus (GPa) = 20.08198 28.08311 24.08254
#
# Velocity S-wave (km/s) = 3.10383 3.67043 3.39896
# Velocity P-wave (km/s) = 6.83536 7.26961 7.05582
#
# Compressibility (1/GPa) = 0.01416067
#
# Stress axis : x y z
#
# Youngs Moduli (GPa) = 88.04768 81.21776 78.46307
#
# Poissons Ratio (x) = 0.38788 0.11377
# Poissons Ratio (y) = 0.42050 0.38457
# Poissons Ratio (z) = 0.12767 0.39807
#
# Static dielectric constant tensor:
#      x y z
#    x 1.777830 0.000000 0.000000 
#    y 0.000000 1.786830 0.000000 
#    z 0.000000 0.000000 1.789400 
# 
# From -- ./inp_files/52530.got.cif
#   From: 2010.05.17/outbox.cif.g08.bks.cpg/sg66_27_cif.got.tgz:52530.got - 2010.06.03 17:51:23.
