data_PCOD9495833
_publ_section_title
;
Structure prediction by ZEFSAII (Michael W. Deem and Ramdas Pophale) SiO2 
 PCOD9495833
Probable space group: C C C M
;
_chemical_formula_sum "Si O2"
_cell_formula_units_Z 128
_cell_length_a 25.194468
_cell_length_b 28.440969
_cell_length_c 10.502741
_cell_angle_alpha 90.000000
_cell_angle_beta 90.000000
_cell_angle_gamma 90.000000
_cell_volume 7525.792453
_symmetry_space_group_name_H-M "C C C M"
_symmetry_group_IT_number 66
_symmetry_cell_setting 'orthorhombic'
loop_
_space_group_symop_operation_xyz
x,y,z
-x,-y,z
x,-y,1/2-z
-x,y,1/2-z
-x,-y,-z
x,y,-z
-x,y,1/2+z
x,-y,1/2+z
1/2+x,1/2+y,z
1/2-x,1/2-y,z
1/2+x,1/2-y,1/2-z
1/2-x,1/2+y,1/2-z
1/2-x,1/2-y,-z
1/2+x,1/2+y,-z
1/2-x,1/2+y,1/2+z
1/2+x,1/2-y,1/2+z
loop_
_atom_site_type_symbol
_atom_site_label
_atom_site_fract_x
_atom_site_fract_y
_atom_site_fract_z
Si Si1 0.044821 0.137957 0.649900
Si Si2 0.456822 0.189766 0.646341
Si Si3 0.837263 0.458792 0.150897
Si Si4 0.662315 0.777878 0.653541
Si Si5 0.042162 0.424020 0.356270
Si Si6 0.730085 0.133237 0.845343
Si Si7 0.161736 0.827529 0.154716
Si Si8 0.942475 0.025906 0.135442
O O1 0.034233 0.149849 0.500000
O O2 0.102146 0.158038 0.688686
O O3 0.048798 0.081049 0.655952
O O4 0.000000 0.153214 0.750000
O O5 0.500000 0.204661 0.750000
O O6 0.470466 0.202745 0.500000
O O7 0.399249 0.210596 0.676944
O O8 0.452808 0.132880 0.650348
O O9 0.825874 0.500000 0.250000
O O10 0.899353 0.444841 0.162797
O O11 0.801557 0.413728 0.186790
O O12 0.828310 0.469847 0.000000
O O13 0.668888 0.777229 0.500000
O O14 0.698664 0.820426 0.700889
O O15 0.674803 0.725396 0.698532
O O16 0.024110 0.435775 0.500000
O O17 0.000000 0.438978 0.250000
O O18 0.791218 0.137749 0.804201
O O19 0.729374 0.134901 0.000000
O O20 0.162009 0.827255 0.000000
O O21 0.913634 0.000000 0.250000
O O22 0.915126 0.019735 0.000000
O O23 0.000000 0.000000 0.127093
#
# Coordination Sequence:
#
# PCOD9495833 Si02
#       8
#    16  16  16  16  16  16  16  16
#     4  10  19  31  47  71 102 130 158 199 248 294
#     4   9  16  27  45  71 102 131 162 199 241 293
#     4  10  20  34  53  75 102 136 169 205 254 304
#     4   9  15  27  49  74  98 128 164 204 251 295
#     4   9  17  30  47  70 100 133 166 203 245 291
#     4   9  16  31  52  72  98 129 163 208 252 292
#     4   9  18  29  47  76 101 124 163 210 250 291
#     4   9  15  25  43  64  86 119 160 192 222 272
#
# _framework density 17.008175000000001
#
# number of rings (size 3 to 8) (size 9 to 14) (size 15 to 20)
#    0.000    2.750    2.500    0.375    0.000    2.750 
#    0.000    1.875    0.000    0.750    0.000    0.000 
#    0.000    3.000    0.000    0.000    0.000    0.000 
#
# Total GULP energy -356331.268485 kJ/mol
# GULP energy per Si atom -5567.676070 kJ/mol
# Density = 1.696946 g / cm^3
# Si number density = 17.008175 Si / 1000 Ang^3
#
#
#
# Elastic Constant Matrix: (Units=GPa)
#
#
# Indices 1 2 3 4 5 6 
#
# 1 104.5016 52.3426 49.9210 0.0000 0.0000 0.0000
# 2 52.3426 73.9551 31.1755 0.0000 0.0000 0.0000
# 3 49.9210 31.1755 71.1936 0.0000 0.0000 0.0000
# 4 0.0000 0.0000 0.0000 89.4084 0.0000 0.0000
# 5 0.0000 0.0000 0.0000 0.0000 17.0829 0.0000
# 6 0.0000 0.0000 0.0000 0.0000 0.0000 5.9097
#
#
#
# Elastic Compliance Matrix: (Units=1/GPa)
#
#
# Indices 1 2 3 4 5 6 
#
# 1 0.018488 -0.009345 -0.008872 0.000000 0.000000 0.000000
# 2 -0.009345 0.021307 -0.002777 0.000000 0.000000 0.000000
# 3 -0.008872 -0.002777 0.021483 0.000000 0.000000 0.000000
# 4 0.000000 0.000000 0.000000 0.011185 0.000000 0.000000
# 5 0.000000 0.000000 0.000000 0.000000 0.058538 0.000000
# 6 0.000000 0.000000 0.000000 0.000000 0.000000 0.169214
#
#
# Mechanical properties :
#
#
# Convention : Reuss Voigt Hill
#
# Bulk Modulus (GPa) = 51.84121 57.39204 54.61662
# Shear Modulus (GPa) = 14.34173 30.22762 22.28467
#
# Velocity S-wave (km/s) = 2.90698 4.22031 3.62364
# Velocity P-wave (km/s) = 6.46636 7.58716 7.04907
#
# Compressibility (1/GPa) = 0.01928967
#
# Stress axis : x y z
#
# Youngs Moduli (GPa) = 54.08876 46.93348 46.54838
#
# Poissons Ratio (x) = 0.43861 0.41296
# Poissons Ratio (y) = 0.50548 0.12927
# Poissons Ratio (z) = 0.47985 0.13034
#
# Static dielectric constant tensor:
#      x y z
#    x 1.567560 0.000000 0.000000 
#    y 0.000000 1.590870 0.000000 
#    z 0.000000 0.000000 1.595920 
# 
# From -- ./inp_files/20125.got.cif
#   From: 2010.05.17/outbox.cif.g08.bks.cpg/sg66_11_cif.got.tgz:20125.got - 2010.06.03 17:51:23.
