data_PCOD9495500
_publ_section_title
;
Structure prediction by ZEFSAII (Michael W. Deem and Ramdas Pophale) SiO2 
 PCOD9495500
Probable space group: C C C M
;
_chemical_formula_sum "Si O2"
_cell_formula_units_Z 88
_cell_length_a 21.297447
_cell_length_b 16.270950
_cell_length_c 11.332683
_cell_angle_alpha 90.000000
_cell_angle_beta 90.000000
_cell_angle_gamma 90.000000
_cell_volume 3927.111187
_symmetry_space_group_name_H-M "C C C M"
_symmetry_group_IT_number 66
_symmetry_cell_setting 'orthorhombic'
loop_
_space_group_symop_operation_xyz
x,y,z
-x,-y,z
x,-y,1/2-z
-x,y,1/2-z
-x,-y,-z
x,y,-z
-x,y,1/2+z
x,-y,1/2+z
1/2+x,1/2+y,z
1/2-x,1/2-y,z
1/2+x,1/2-y,1/2-z
1/2-x,1/2+y,1/2-z
1/2-x,1/2-y,-z
1/2+x,1/2+y,-z
1/2-x,1/2+y,1/2+z
1/2+x,1/2-y,1/2+z
loop_
_atom_site_type_symbol
_atom_site_label
_atom_site_fract_x
_atom_site_fract_y
_atom_site_fract_z
Si Si1 0.111865 0.943927 0.371963
Si Si2 0.586617 0.769230 0.367701
Si Si3 0.228643 0.949043 0.136001
Si Si4 0.070080 0.537406 0.869390
Si Si5 0.000000 0.144414 0.250000
Si Si6 0.303420 0.695970 0.281621
O O1 0.082188 0.946640 0.500000
O O2 0.056542 0.913558 0.289225
O O3 0.165057 0.873026 0.362980
O O4 0.154244 0.025822 0.361962
O O5 0.611181 0.756730 0.500000
O O6 0.567089 0.864237 0.356475
O O7 0.528854 0.707052 0.346168
O O8 0.639868 0.748022 0.272872
O O9 0.230496 0.854706 0.175617
O O10 0.255057 0.000000 0.250000
O O11 0.249733 0.962764 0.000000
O O12 0.099719 0.500000 0.750000
O O13 0.000000 0.500000 0.873618
O O14 0.098657 0.519922 0.000000
O O15 0.250000 0.750000 0.340582
#
# Coordination Sequence:
#
# PCOD9495500 Si02
#       6
#    16  16  16  16   8  16
#     4   9  19  36  58  86 120 156 192 235 293 355
#     4  10  20  33  52  79 107 138 181 231 281 336
#     4   9  18  35  57  79 109 148 189 235 288 344
#     4   9  17  31  50  71 101 140 178 219 270 328
#     4  10  18  32  56  84 116 148 184 226 283 356
#     4  10  21  37  58  82 109 146 194 245 290 336
#
# _framework density 22.408328999999998
#
# number of rings (size 3 to 8) (size 9 to 14) (size 15 to 20)
#    0.000    2.545    0.000    2.182    0.000    1.818 
#    0.000   18.636    0.000   30.545    0.000    0.000 
#    0.000    0.000    0.000    0.000    0.000    0.000 
#
# Total GULP energy -245239.128663 kJ/mol
# GULP energy per Si atom -5573.616561 kJ/mol
# Density = 2.235733 g / cm^3
# Si number density = 22.408329 Si / 1000 Ang^3
#
#
#
# Elastic Constant Matrix: (Units=GPa)
#
#
# Indices 1 2 3 4 5 6 
#
# 1 76.5020 17.3383 -5.9916 0.0000 0.0000 0.0000
# 2 17.3383 87.1176 14.4815 0.0000 0.0000 0.0000
# 3 -5.9916 14.4815 126.1515 0.0000 0.0000 0.0000
# 4 0.0000 0.0000 0.0000 15.1416 0.0000 0.0000
# 5 0.0000 0.0000 0.0000 0.0000 -2.2234 0.0000
# 6 0.0000 0.0000 0.0000 0.0000 0.0000 9.6527
#
#
#
# Elastic Compliance Matrix: (Units=1/GPa)
#
#
# Indices 1 2 3 4 5 6 
#
# 1 0.013809 -0.002913 0.000990 0.000000 0.000000 0.000000
# 2 -0.002913 0.012317 -0.001552 0.000000 0.000000 0.000000
# 3 0.000990 -0.001552 0.008152 0.000000 0.000000 0.000000
# 4 0.000000 0.000000 0.000000 0.066043 0.000000 0.000000
# 5 0.000000 0.000000 0.000000 0.000000 -0.449757 0.000000
# 6 0.000000 0.000000 0.000000 0.000000 0.000000 0.103598
#
#
# Mechanical properties :
#
#
# Convention : Reuss Voigt Hill
#
# Bulk Modulus (GPa) = 36.59228 37.93640 37.26434
# Shear Modulus (GPa) = -21.76010 22.11037 0.17513
#
# Velocity S-wave (km/s) = -3.11958 3.14459 0.27987
# Velocity P-wave (km/s) = 1.84106 5.49099 4.09515
#
# Compressibility (1/GPa) = 0.02732817
#
# Stress axis : x y z
#
# Youngs Moduli (GPa) = 72.41493 81.19188 122.66637
#
# Poissons Ratio (x) = 0.23651 -0.12147
# Poissons Ratio (y) = 0.21094 0.19040
# Poissons Ratio (z) = -0.07171 0.12603
#
# Static dielectric constant tensor:
#      x y z
#    x 1.802220 0.000000 0.000000 
#    y 0.000000 1.825520 0.000000 
#    z 0.000000 0.000000 1.946920 
# 
# From -- ./inp_files/16479.got.cif
#   From: 2010.05.17/outbox.cif.g08.bks.cpg/sg66_9_cif.got.tgz:16479.got - 2010.06.03 17:51:23.
