data_PCOD9495620
_publ_section_title
;
Structure prediction by ZEFSAII (Michael W. Deem and Ramdas Pophale) SiO2 
 PCOD9495620
Probable space group: C C C M
;
_chemical_formula_sum "Si O2"
_cell_formula_units_Z 104
_cell_length_a 9.529412
_cell_length_b 18.976955
_cell_length_c 28.415706
_cell_angle_alpha 90.000000
_cell_angle_beta 90.000000
_cell_angle_gamma 90.000000
_cell_volume 5138.674186
_symmetry_space_group_name_H-M "C C C M"
_symmetry_group_IT_number 66
_symmetry_cell_setting 'orthorhombic'
loop_
_space_group_symop_operation_xyz
x,y,z
-x,-y,z
x,-y,1/2-z
-x,y,1/2-z
-x,-y,-z
x,y,-z
-x,y,1/2+z
x,-y,1/2+z
1/2+x,1/2+y,z
1/2-x,1/2-y,z
1/2+x,1/2-y,1/2-z
1/2-x,1/2+y,1/2-z
1/2-x,1/2-y,-z
1/2+x,1/2+y,-z
1/2-x,1/2+y,1/2+z
1/2+x,1/2-y,1/2+z
loop_
_atom_site_type_symbol
_atom_site_label
_atom_site_fract_x
_atom_site_fract_y
_atom_site_fract_z
Si Si1 0.054174 0.126617 0.298713
Si Si2 0.302089 0.976114 0.195366
Si Si3 0.650087 0.468748 0.555446
Si Si4 0.776282 0.118694 0.357590
Si Si5 0.473889 0.856255 0.147274
Si Si6 0.903845 0.430610 0.052226
Si Si7 0.250000 0.750000 0.812237
O O1 0.164415 0.070030 0.317149
O O2 0.149152 0.194833 0.285939
O O3 0.000000 0.096057 0.250000
O O4 0.921398 0.140161 0.332317
O O5 0.428363 0.923498 0.180150
O O6 0.310480 0.000000 0.250000
O O7 0.278543 0.045667 0.165203
O O8 0.500000 0.500000 0.568591
O O9 0.652612 0.449433 0.500000
O O10 0.693330 0.403725 0.588593
O O11 0.753141 0.535255 0.561253
O O12 0.637358 0.165724 0.348838
O O13 0.450890 0.881205 0.094002
O O14 0.361794 0.796021 0.158820
O O15 0.000000 0.500000 0.052410
O O16 0.910053 0.398746 0.000000
#
# Coordination Sequence:
#
# PCOD9495620 Si02
#       7
#    16  16  16  16  16  16   8
#     4  11  24  43  63  85 119 163 205 254 297 367
#     4  11  21  38  60  94 127 154 191 246 322 373
#     4  10  20  33  55  95 132 155 185 235 312 384
#     4  12  22  35  65  94 123 155 197 256 317 361
#     4  11  23  41  59  89 125 167 208 250 294 364
#     4  10  18  34  62  94 127 156 192 249 316 373
#     4  10  28  46  59  78 120 170 223 252 286 348
#
# _framework density 20.238683000000002
#
# number of rings (size 3 to 8) (size 9 to 14) (size 15 to 20)
#    0.000    1.231    4.615    1.846    2.154    3.077 
#    0.000    0.385    0.000    0.923    0.000    2.154 
#    0.000    0.000    0.000    0.000    0.000    0.000 
#
# Total GULP energy -290158.291202 kJ/mol
# GULP energy per Si atom -5579.967138 kJ/mol
# Density = 2.019262 g / cm^3
# Si number density = 20.238683 Si / 1000 Ang^3
#
#
#
# Elastic Constant Matrix: (Units=GPa)
#
#
# Indices 1 2 3 4 5 6 
#
# 1 162.3796 12.1511 7.7116 0.0000 0.0000 0.0000
# 2 12.1511 31.3344 -7.3145 0.0000 0.0000 0.0000
# 3 7.7116 -7.3145 70.0671 0.0000 0.0000 0.0000
# 4 0.0000 0.0000 0.0000 11.2417 0.0000 0.0000
# 5 0.0000 0.0000 0.0000 0.0000 22.4457 0.0000
# 6 0.0000 0.0000 0.0000 0.0000 0.0000 14.8036
#
#
#
# Elastic Compliance Matrix: (Units=1/GPa)
#
#
# Indices 1 2 3 4 5 6 
#
# 1 0.006409 -0.002716 -0.000989 0.000000 0.000000 0.000000
# 2 -0.002716 0.033862 0.003834 0.000000 0.000000 0.000000
# 3 -0.000989 0.003834 0.014781 0.000000 0.000000 0.000000
# 4 0.000000 0.000000 0.000000 0.088955 0.000000 0.000000
# 5 0.000000 0.000000 0.000000 0.000000 0.044552 0.000000
# 6 0.000000 0.000000 0.000000 0.000000 0.000000 0.067551
#
#
# Mechanical properties :
#
#
# Convention : Reuss Voigt Hill
#
# Bulk Modulus (GPa) = 18.08000 32.09749 25.08875
# Shear Modulus (GPa) = 18.22902 26.44706 22.33804
#
# Velocity S-wave (km/s) = 3.00443 3.61883 3.32585
# Velocity P-wave (km/s) = 4.58129 5.77539 5.21265
#
# Compressibility (1/GPa) = 0.05530973
#
# Stress axis : x y z
#
# Youngs Moduli (GPa) = 156.04000 29.53160 67.65400
#
# Poissons Ratio (x) = 0.08021 0.06690
# Poissons Ratio (y) = 0.42381 -0.25938
# Poissons Ratio (z) = 0.15430 -0.11322
#
# Static dielectric constant tensor:
#      x y z
#    x 1.733230 0.000000 0.000000 
#    y 0.000000 1.705710 0.000000 
#    z 0.000000 0.000000 1.732970 
# 
# From -- ./inp_files/62658.got.cif
#   From: 2010.05.17/outbox.cif.g08.bks.cpg/sg66_32_cif.got.tgz:62658.got - 2010.06.03 17:51:23.
