data_PCOD9495676
_publ_section_title
;
Structure prediction by ZEFSAII (Michael W. Deem and Ramdas Pophale) SiO2 
 PCOD9495676
Probable space group: C C C M
;
_chemical_formula_sum "Si O2"
_cell_formula_units_Z 60
_cell_length_a 16.060058
_cell_length_b 13.097234
_cell_length_c 16.466967
_cell_angle_alpha 90.000000
_cell_angle_beta 90.000000
_cell_angle_gamma 90.000000
_cell_volume 3463.700333
_symmetry_space_group_name_H-M "C C C M"
_symmetry_group_IT_number 66
_symmetry_cell_setting 'orthorhombic'
loop_
_space_group_symop_operation_xyz
x,y,z
-x,-y,z
x,-y,1/2-z
-x,y,1/2-z
-x,-y,-z
x,y,-z
-x,y,1/2+z
x,-y,1/2+z
1/2+x,1/2+y,z
1/2-x,1/2-y,z
1/2+x,1/2-y,1/2-z
1/2-x,1/2+y,1/2-z
1/2-x,1/2-y,-z
1/2+x,1/2+y,-z
1/2-x,1/2+y,1/2+z
1/2+x,1/2-y,1/2+z
loop_
_atom_site_type_symbol
_atom_site_label
_atom_site_fract_x
_atom_site_fract_y
_atom_site_fract_z
Si Si1 0.250000 0.250000 0.786361
Si Si2 0.404046 0.032000 0.500000
Si Si3 0.644579 0.380993 0.163936
Si Si4 0.696846 0.967533 0.839658
Si Si5 0.650047 0.263389 0.000000
Si Si6 0.000000 0.000000 0.750000
O O1 0.320186 0.298002 0.727587
O O2 0.283269 0.152923 0.835936
O O3 0.392593 0.153794 0.500000
O O4 0.500000 0.000000 0.500000
O O5 0.359061 0.993056 0.582500
O O6 0.717736 0.465956 0.154443
O O7 0.561550 0.432029 0.196563
O O8 0.628732 0.326090 0.079696
O O9 0.661906 0.000000 0.750000
O O10 0.750000 0.250000 0.000000
#
# Coordination Sequence:
#
# PCOD9495676 Si02
#       6
#     8   8  16  16   8   4
#     4  10  18  36  64  88 120 180 200 243 336 383
#     4  12  26  41  60 100 128 153 228 281 292 383
#     4  11  21  39  66  95 126 167 221 260 312 400
#     4  10  20  40  65  89 125 173 207 255 331 384
#     4  12  20  41  72  84 118 184 213 246 333 398
#     4  12  24  38  60 104 132 146 216 288 300 370
#
# _framework density 17.322514999999999
#
# number of rings (size 3 to 8) (size 9 to 14) (size 15 to 20)
#    0.000    1.067    8.000    1.600    0.000    3.733 
#    0.000    0.000    0.000    0.000    0.000    0.000 
#    0.000    0.000    0.000    0.000    0.000    0.000 
#
# Total GULP energy -167477.101759 kJ/mol
# GULP energy per Si atom -5582.570059 kJ/mol
# Density = 1.728309 g / cm^3
# Si number density = 17.322515 Si / 1000 Ang^3
#
#
#
# Elastic Constant Matrix: (Units=GPa)
#
#
# Indices 1 2 3 4 5 6 
#
# 1 140.9136 72.7068 87.0818 0.0000 0.0000 0.0000
# 2 72.7068 175.1587 91.6419 0.0000 0.0000 0.0000
# 3 87.0818 91.6419 173.4079 0.0000 0.0000 0.0000
# 4 0.0000 0.0000 0.0000 34.7795 0.0000 0.0000
# 5 0.0000 0.0000 0.0000 0.0000 34.0962 0.0000
# 6 0.0000 0.0000 0.0000 0.0000 0.0000 33.7540
#
#
#
# Elastic Compliance Matrix: (Units=1/GPa)
#
#
# Indices 1 2 3 4 5 6 
#
# 1 0.010921 -0.002300 -0.004269 0.000000 0.000000 0.000000
# 2 -0.002300 0.008375 -0.003271 0.000000 0.000000 0.000000
# 3 -0.004269 -0.003271 0.009639 0.000000 0.000000 0.000000
# 4 0.000000 0.000000 0.000000 0.028753 0.000000 0.000000
# 5 0.000000 0.000000 0.000000 0.000000 0.029329 0.000000
# 6 0.000000 0.000000 0.000000 0.000000 0.000000 0.029626
#
#
# Mechanical properties :
#
#
# Convention : Reuss Voigt Hill
#
# Bulk Modulus (GPa) = 108.04081 110.26015 109.15048
# Shear Modulus (GPa) = 35.86575 36.39593 36.13084
#
# Velocity S-wave (km/s) = 4.55518 4.58872 4.57198
# Velocity P-wave (km/s) = 9.49588 9.58461 9.54035
#
# Compressibility (1/GPa) = 0.00925576
#
# Stress axis : x y z
#
# Youngs Moduli (GPa) = 91.56340 119.40021 103.74157
#
# Poissons Ratio (x) = 0.27460 0.44288
# Poissons Ratio (y) = 0.21058 0.33936
# Poissons Ratio (z) = 0.39089 0.39058
#
# Static dielectric constant tensor:
#      x y z
#    x 1.560800 0.000000 0.000000 
#    y 0.000000 1.578200 0.000000 
#    z 0.000000 0.000000 1.586430 
# 
# From -- ./inp_files/27794.got.cif
#   From: 2010.05.17/outbox.cif.g08.bks.cpg/sg66_14_cif.got.tgz:27794.got - 2010.06.03 17:51:23.
