data_PCOD9495317
_publ_section_title
;
Structure prediction by ZEFSAII (Michael W. Deem and Ramdas Pophale) SiO2 
 PCOD9495317
Probable space group: C C C M
;
_chemical_formula_sum "Si O2"
_cell_formula_units_Z 128
_cell_length_a 22.463464
_cell_length_b 22.019639
_cell_length_c 16.916868
_cell_angle_alpha 90.000000
_cell_angle_beta 90.000000
_cell_angle_gamma 90.000000
_cell_volume 8367.715062
_symmetry_space_group_name_H-M "C C C M"
_symmetry_group_IT_number 66
_symmetry_cell_setting 'orthorhombic'
loop_
_space_group_symop_operation_xyz
x,y,z
-x,-y,z
x,-y,1/2-z
-x,y,1/2-z
-x,-y,-z
x,y,-z
-x,y,1/2+z
x,-y,1/2+z
1/2+x,1/2+y,z
1/2-x,1/2-y,z
1/2+x,1/2-y,1/2-z
1/2-x,1/2+y,1/2-z
1/2-x,1/2-y,-z
1/2+x,1/2+y,-z
1/2-x,1/2+y,1/2+z
1/2+x,1/2-y,1/2+z
loop_
_atom_site_type_symbol
_atom_site_label
_atom_site_fract_x
_atom_site_fract_y
_atom_site_fract_z
Si Si1 0.570189 0.396513 0.907518
Si Si2 0.571142 0.750676 0.590792
Si Si3 0.202201 0.070649 0.406972
Si Si4 0.652787 0.768435 0.733272
Si Si5 0.763715 0.149717 0.765636
Si Si6 0.676340 0.542260 0.173028
Si Si7 0.940208 0.901768 0.095942
Si Si8 0.040923 0.772853 0.673431
O O1 0.571928 0.323290 0.901102
O O2 0.633296 0.419796 0.878856
O O3 0.507103 0.420722 0.876727
O O4 0.569316 0.412127 0.000000
O O5 0.580908 0.765766 0.500000
O O6 0.620900 0.776625 0.648586
O O7 0.504602 0.765801 0.620190
O O8 0.207145 0.084390 0.500000
O O9 0.238341 0.115263 0.350118
O O10 0.212600 0.000060 0.388112
O O11 0.700097 0.820489 0.752167
O O12 0.689221 0.705080 0.730111
O O13 0.598605 0.761238 0.794322
O O14 0.787697 0.101185 0.702345
O O15 0.668104 0.500000 0.250000
O O16 0.613756 0.562140 0.134834
O O17 0.937887 0.832020 0.125526
O O18 0.937117 0.904967 0.000000
O O19 0.000000 0.790833 0.750000
#
# Coordination Sequence:
#
# PCOD9495317 Si02
#       8
#    16  16  16  16  16  16  16  16
#     4   8  15  26  41  62  88 115 149 193 231 262
#     4   9  16  28  47  72  97 119 149 190 236 279
#     4  10  19  33  48  63  89 122 161 206 243 269
#     4  10  18  30  49  67  94 126 155 192 232 278
#     4  10  20  32  45  66  92 125 163 197 228 274
#     4  10  21  33  45  61  88 125 164 202 237 270
#     4  10  18  30  47  64  87 121 162 201 232 263
#     4   9  17  28  47  69  93 122 150 184 234 282
#
# _framework density 15.296887999999999
#
# number of rings (size 3 to 8) (size 9 to 14) (size 15 to 20)
#    0.000    2.500    2.500    1.500    0.000    1.000 
#    0.000    5.000    0.000    3.750    0.000    0.000 
#    0.000   40.500    0.000   20.250    0.000    0.000 
#
# Total GULP energy -356411.230786 kJ/mol
# GULP energy per Si atom -5568.925481 kJ/mol
# Density = 1.526207 g / cm^3
# Si number density = 15.296888 Si / 1000 Ang^3
#
#
#
# Elastic Constant Matrix: (Units=GPa)
#
#
# Indices 1 2 3 4 5 6 
#
# 1 78.3320 31.9065 22.6620 0.0000 0.0000 0.0000
# 2 31.9065 48.3014 14.2976 0.0000 0.0000 0.0000
# 3 22.6620 14.2976 39.7776 0.0000 0.0000 0.0000
# 4 0.0000 0.0000 0.0000 9.2179 0.0000 0.0000
# 5 0.0000 0.0000 0.0000 0.0000 17.0034 0.0000
# 6 0.0000 0.0000 0.0000 0.0000 0.0000 19.3534
#
#
#
# Elastic Compliance Matrix: (Units=1/GPa)
#
#
# Indices 1 2 3 4 5 6 
#
# 1 0.019106 -0.010518 -0.007104 0.000000 0.000000 0.000000
# 2 -0.010518 0.028958 -0.004417 0.000000 0.000000 0.000000
# 3 -0.007104 -0.004417 0.030775 0.000000 0.000000 0.000000
# 4 0.000000 0.000000 0.000000 0.108484 0.000000 0.000000
# 5 0.000000 0.000000 0.000000 0.000000 0.058812 0.000000
# 6 0.000000 0.000000 0.000000 0.000000 0.000000 0.051671
#
#
# Mechanical properties :
#
#
# Convention : Reuss Voigt Hill
#
# Bulk Modulus (GPa) = 28.76754 33.79368 31.28061
# Shear Modulus (GPa) = 14.14547 15.61792 14.88170
#
# Velocity S-wave (km/s) = 3.04423 3.19876 3.12245
# Velocity P-wave (km/s) = 5.58600 5.98185 5.78731
#
# Compressibility (1/GPa) = 0.03476140
#
# Stress axis : x y z
#
# Youngs Moduli (GPa) = 52.34074 34.53238 32.49413
#
# Poissons Ratio (x) = 0.36320 0.23085
# Poissons Ratio (y) = 0.55050 0.14352
# Poissons Ratio (z) = 0.37185 0.15252
#
# Static dielectric constant tensor:
#      x y z
#    x 1.516560 0.000000 0.000000 
#    y 0.000000 1.517860 0.000000 
#    z 0.000000 0.000000 1.537820 
# 
# From -- ./inp_files/43186.got.cif
#   From: 2010.05.17/outbox.cif.g08.bks.cpg/sg66_22_cif.got.tgz:43186.got - 2010.06.03 17:51:23.
