data_PCOD9495832
_publ_section_title
;
Structure prediction by ZEFSAII (Michael W. Deem and Ramdas Pophale) SiO2 
 PCOD9495832
Probable space group: C C C M
;
_chemical_formula_sum "Si O2"
_cell_formula_units_Z 96
_cell_length_a 32.943103
_cell_length_b 19.482238
_cell_length_c 8.668267
_cell_angle_alpha 90.000000
_cell_angle_beta 90.000000
_cell_angle_gamma 90.000000
_cell_volume 5563.340336
_symmetry_space_group_name_H-M "C C C M"
_symmetry_group_IT_number 66
_symmetry_cell_setting 'orthorhombic'
loop_
_space_group_symop_operation_xyz
x,y,z
-x,-y,z
x,-y,1/2-z
-x,y,1/2-z
-x,-y,-z
x,y,-z
-x,y,1/2+z
x,-y,1/2+z
1/2+x,1/2+y,z
1/2-x,1/2-y,z
1/2+x,1/2-y,1/2-z
1/2-x,1/2+y,1/2-z
1/2-x,1/2-y,-z
1/2+x,1/2+y,-z
1/2-x,1/2+y,1/2+z
1/2+x,1/2-y,1/2+z
loop_
_atom_site_type_symbol
_atom_site_label
_atom_site_fract_x
_atom_site_fract_y
_atom_site_fract_z
Si Si1 0.376875 0.286573 0.685593
Si Si2 0.746908 0.074896 0.685992
Si Si3 0.589365 0.075955 0.684791
Si Si4 0.836704 0.074447 0.185485
Si Si5 0.169639 0.339595 0.814724
Si Si6 0.956146 0.704708 0.685119
O O1 0.376606 0.285334 0.500000
O O2 0.365861 0.363416 0.734692
O O3 0.343246 0.232741 0.743685
O O4 0.420478 0.256971 0.736437
O O5 0.748787 0.072005 0.500000
O O6 0.791430 0.089636 0.752349
O O7 0.712963 0.130029 0.732573
O O8 0.734898 0.000000 0.750000
O O9 0.585978 0.075130 0.500000
O O10 0.633849 0.106514 0.726155
O O11 0.557456 0.130080 0.753547
O O12 0.584306 0.000000 0.750000
O O13 0.848586 0.000000 0.250000
O O14 0.835344 0.071102 0.000000
O O15 0.169635 0.332916 0.000000
O O16 0.957192 0.703457 0.500000
O O17 0.000000 0.723139 0.750000
#
# Coordination Sequence:
#
# PCOD9495832 Si02
#       6
#    16  16  16  16  16  16
#     4   9  20  36  54  74  99 128 161 199 245 296
#     4  10  19  31  47  71 101 136 173 210 245 283
#     4  10  19  32  49  72 101 136 173 209 244 283
#     4  10  20  35  53  75  99 128 163 201 244 294
#     4   9  19  32  48  71 101 135 173 209 245 284
#     4  10  20  36  55  76  99 126 159 200 246 296
#
# _framework density 17.255821000000001
#
# number of rings (size 3 to 8) (size 9 to 14) (size 15 to 20)
#    0.000    2.333    0.000    3.500    0.000    5.000 
#    0.000    5.000    0.000    0.500    0.000    3.500 
#    0.000    0.000    0.000    0.000    0.000    0.000 
#
# Total GULP energy -267850.507848 kJ/mol
# GULP energy per Si atom -5580.218913 kJ/mol
# Density = 1.721655 g / cm^3
# Si number density = 17.255821 Si / 1000 Ang^3
#
#
#
# Elastic Constant Matrix: (Units=GPa)
#
#
# Indices 1 2 3 4 5 6 
#
# 1 75.3384 91.0359 27.8258 0.0000 0.0000 0.0000
# 2 91.0359 148.6486 36.1902 0.0000 0.0000 0.0000
# 3 27.8258 36.1902 42.8465 0.0000 0.0000 0.0000
# 4 0.0000 0.0000 0.0000 22.0073 0.0000 0.0000
# 5 0.0000 0.0000 0.0000 0.0000 -5.9175 0.0000
# 6 0.0000 0.0000 0.0000 0.0000 0.0000 10.5037
#
#
#
# Elastic Compliance Matrix: (Units=1/GPa)
#
#
# Indices 1 2 3 4 5 6 
#
# 1 0.053637 -0.030676 -0.008923 0.000000 0.000000 0.000000
# 2 -0.030676 0.026013 -0.002050 0.000000 0.000000 0.000000
# 3 -0.008923 -0.002050 0.030865 0.000000 0.000000 0.000000
# 4 0.000000 0.000000 0.000000 0.045439 0.000000 0.000000
# 5 0.000000 0.000000 0.000000 0.000000 -0.168991 0.000000
# 6 0.000000 0.000000 0.000000 0.000000 0.000000 0.095205
#
#
# Mechanical properties :
#
#
# Convention : Reuss Voigt Hill
#
# Bulk Modulus (GPa) = 36.74099 64.10416 50.42257
# Shear Modulus (GPa) = 28.64688 12.77081 20.70884
#
# Velocity S-wave (km/s) = 4.07889 2.72341 3.46802
# Velocity P-wave (km/s) = 6.59706 6.86434 6.73203
#
# Compressibility (1/GPa) = 0.02721756
#
# Stress axis : x y z
#
# Youngs Moduli (GPa) = 18.64392 38.44212 32.39870
#
# Poissons Ratio (x) = 1.17925 0.28909
# Poissons Ratio (y) = 0.57192 0.06642
# Poissons Ratio (z) = 0.16636 0.07881
#
# Static dielectric constant tensor:
#      x y z
#    x 1.581570 0.000000 0.000000 
#    y 0.000000 1.571350 0.000000 
#    z 0.000000 0.000000 1.582310 
# 
# From -- ./inp_files/10240.got.cif
#   From: 2010.05.17/outbox.cif.g08.bks.cpg/sg66_6_cif.got.tgz:10240.got - 2010.06.03 17:51:23.
