data_PCOD9495835
_publ_section_title
;
Structure prediction by ZEFSAII (Michael W. Deem and Ramdas Pophale) SiO2 
 PCOD9495835
Probable space group: C C C M
;
_chemical_formula_sum "Si O2"
_cell_formula_units_Z 80
_cell_length_a 25.519829
_cell_length_b 19.895254
_cell_length_c 10.470299
_cell_angle_alpha 90.000000
_cell_angle_beta 90.000000
_cell_angle_gamma 90.000000
_cell_volume 5316.016645
_symmetry_space_group_name_H-M "C C C M"
_symmetry_group_IT_number 66
_symmetry_cell_setting 'orthorhombic'
loop_
_space_group_symop_operation_xyz
x,y,z
-x,-y,z
x,-y,1/2-z
-x,y,1/2-z
-x,-y,-z
x,y,-z
-x,y,1/2+z
x,-y,1/2+z
1/2+x,1/2+y,z
1/2-x,1/2-y,z
1/2+x,1/2-y,1/2-z
1/2-x,1/2+y,1/2-z
1/2-x,1/2-y,-z
1/2+x,1/2+y,-z
1/2-x,1/2+y,1/2+z
1/2+x,1/2-y,1/2+z
loop_
_atom_site_type_symbol
_atom_site_label
_atom_site_fract_x
_atom_site_fract_y
_atom_site_fract_z
Si Si1 0.210582 0.000000 0.750000
Si Si2 0.941005 0.785075 0.752522
Si Si3 0.559243 0.374912 0.000000
Si Si4 0.361144 0.503317 0.000000
Si Si5 0.163703 0.257119 0.846903
Si Si6 0.558425 0.619189 0.000000
Si Si7 0.756321 0.861135 0.153415
O O1 0.242132 0.069076 0.771519
O O2 0.174317 0.004775 0.625464
O O3 0.935653 0.828520 0.624571
O O4 0.890950 0.737666 0.772865
O O5 0.000000 0.755177 0.750000
O O6 0.937470 0.834968 0.874112
O O7 0.601762 0.432439 0.000000
O O8 0.501160 0.407311 0.000000
O O9 0.397518 0.437248 0.000000
O O10 0.193428 0.186533 0.817417
O O11 0.205265 0.315960 0.819212
O O12 0.154603 0.257825 0.000000
O O13 0.757609 0.873500 0.000000
#
# Coordination Sequence:
#
# PCOD9495835 Si02
#       7
#     8  16   8   8  16   8  16
#     4  12  22  32  47  72 101 122 170 204 244 294
#     4  10  19  31  48  70  95 124 162 208 246 283
#     4  10  21  30  41  66  99 128 160 205 246 274
#     4  12  21  30  46  62  94 138 165 200 234 280
#     4   9  16  31  55  71  93 126 172 206 238 290
#     4  10  19  32  45  62  91 132 178 197 222 282
#     4   9  18  32  50  75  94 126 168 209 243 289
#
# _framework density 15.048862
#
# number of rings (size 3 to 8) (size 9 to 14) (size 15 to 20)
#    0.000    2.000    2.000    5.100    0.000    0.000 
#    0.000    5.000    0.000    3.600    0.000    0.700 
#    0.000    3.200    0.000    0.000    0.000    0.000 
#
# Total GULP energy -223055.766366 kJ/mol
# GULP energy per Si atom -5576.394159 kJ/mol
# Density = 1.501461 g / cm^3
# Si number density = 15.048862 Si / 1000 Ang^3
#
#
#
# Elastic Constant Matrix: (Units=GPa)
#
#
# Indices 1 2 3 4 5 6 
#
# 1 112.8804 47.1500 29.6512 0.0000 0.0000 0.0000
# 2 47.1500 76.8478 24.3637 0.0000 0.0000 0.0000
# 3 29.6512 24.3637 84.9210 0.0000 0.0000 0.0000
# 4 0.0000 0.0000 0.0000 19.1512 0.0000 0.0000
# 5 0.0000 0.0000 0.0000 0.0000 27.3057 0.0000
# 6 0.0000 0.0000 0.0000 0.0000 0.0000 28.5724
#
#
#
# Elastic Compliance Matrix: (Units=1/GPa)
#
#
# Indices 1 2 3 4 5 6 
#
# 1 0.012323 -0.006817 -0.002347 0.000000 0.000000 0.000000
# 2 -0.006817 0.018085 -0.002809 0.000000 0.000000 0.000000
# 3 -0.002347 -0.002809 0.013401 0.000000 0.000000 0.000000
# 4 0.000000 0.000000 0.000000 0.052216 0.000000 0.000000
# 5 0.000000 0.000000 0.000000 0.000000 0.036622 0.000000
# 6 0.000000 0.000000 0.000000 0.000000 0.000000 0.034999
#
#
# Mechanical properties :
#
#
# Convention : Reuss Voigt Hill
#
# Bulk Modulus (GPa) = 50.34018 52.99767 51.66892
# Shear Modulus (GPa) = 25.22548 26.57146 25.89847
#
# Velocity S-wave (km/s) = 4.09863 4.20656 4.15294
# Velocity P-wave (km/s) = 7.47811 7.67379 7.57658
#
# Compressibility (1/GPa) = 0.01986485
#
# Stress axis : x y z
#
# Youngs Moduli (GPa) = 81.15112 55.29302 74.62174
#
# Poissons Ratio (x) = 0.37691 0.17513
# Poissons Ratio (y) = 0.55317 0.20958
# Poissons Ratio (z) = 0.19046 0.15530
#
# Static dielectric constant tensor:
#      x y z
#    x 1.534650 0.000000 0.000000 
#    y 0.000000 1.487030 0.000000 
#    z 0.000000 0.000000 1.488510 
# 
# From -- ./inp_files/6803.got.cif
#   From: 2010.05.17/outbox.cif.g08.bks.cpg/sg66_4_cif.got.tgz:6803.got - 2010.06.03 17:51:23.
