data_PCOD9495547
_publ_section_title
;
Structure prediction by ZEFSAII (Michael W. Deem and Ramdas Pophale) SiO2 
 PCOD9495547
Probable space group: C C C M
;
_chemical_formula_sum "Si O2"
_cell_formula_units_Z 88
_cell_length_a 14.110558
_cell_length_b 17.681215
_cell_length_c 17.084169
_cell_angle_alpha 90.000000
_cell_angle_beta 90.000000
_cell_angle_gamma 90.000000
_cell_volume 4262.360242
_symmetry_space_group_name_H-M "C C C M"
_symmetry_group_IT_number 66
_symmetry_cell_setting 'orthorhombic'
loop_
_space_group_symop_operation_xyz
x,y,z
-x,-y,z
x,-y,1/2-z
-x,y,1/2-z
-x,-y,-z
x,y,-z
-x,y,1/2+z
x,-y,1/2+z
1/2+x,1/2+y,z
1/2-x,1/2-y,z
1/2+x,1/2-y,1/2-z
1/2-x,1/2+y,1/2-z
1/2-x,1/2-y,-z
1/2+x,1/2+y,-z
1/2-x,1/2+y,1/2+z
1/2+x,1/2-y,1/2+z
loop_
_atom_site_type_symbol
_atom_site_label
_atom_site_fract_x
_atom_site_fract_y
_atom_site_fract_z
Si Si1 0.724368 0.559188 0.087191
Si Si2 0.109639 0.656833 0.225561
Si Si3 0.784118 0.500000 0.750000
Si Si4 0.946885 0.757259 0.588888
Si Si5 0.839841 0.702732 0.111955
Si Si6 0.511547 0.414982 0.408084
O O1 0.729186 0.513208 0.168149
O O2 0.812518 0.616821 0.089955
O O3 0.623678 0.602123 0.093227
O O4 0.723848 0.522067 0.000000
O O5 0.154786 0.574328 0.230576
O O6 0.110865 0.700744 0.143852
O O7 0.156736 0.705609 0.294038
O O8 0.000000 0.649816 0.250000
O O9 0.911121 0.759558 0.500000
O O10 0.056266 0.727917 0.585619
O O11 0.954775 0.842736 0.623616
O O12 0.750000 0.750000 0.083786
O O13 0.500000 0.500000 0.375174
O O14 0.484132 0.419552 0.500000
#
# Coordination Sequence:
#
# PCOD9495547 Si02
#       6
#    16  16   8  16  16  16
#     4  10  20  35  57  83 111 146 190 239 288 336
#     4   9  20  36  53  76 110 148 179 226 285 345
#     4  10  21  38  55  82 114 150 190 232 293 348
#     4  10  19  33  57  86 110 143 190 234 288 347
#     4  10  18  33  56  81 107 137 184 241 282 324
#     4   9  18  34  54  79 113 149 183 231 289 342
#
# _framework density 20.645838000000001
#
# number of rings (size 3 to 8) (size 9 to 14) (size 15 to 20)
#    0.000    2.364    1.818    0.818    0.000    1.455 
#    6.545    0.455    0.000    7.091    0.000    0.000 
#    0.000    0.000    0.000    0.000    0.000    0.000 
#
# Total GULP energy -245048.962821 kJ/mol
# GULP energy per Si atom -5569.294610 kJ/mol
# Density = 2.059885 g / cm^3
# Si number density = 20.645838 Si / 1000 Ang^3
#
#
#
# Elastic Constant Matrix: (Units=GPa)
#
#
# Indices 1 2 3 4 5 6 
#
# 1 31.0628 9.9095 20.5509 0.0000 0.0000 0.0000
# 2 9.9095 85.5717 48.2243 0.0000 0.0000 0.0000
# 3 20.5509 48.2243 155.0587 0.0000 0.0000 0.0000
# 4 0.0000 0.0000 0.0000 10.9828 0.0000 0.0000
# 5 0.0000 0.0000 0.0000 0.0000 -13.3621 0.0000
# 6 0.0000 0.0000 0.0000 0.0000 0.0000 23.8121
#
#
#
# Elastic Compliance Matrix: (Units=1/GPa)
#
#
# Indices 1 2 3 4 5 6 
#
# 1 0.035507 -0.001770 -0.004155 0.000000 0.000000 0.000000
# 2 -0.001770 0.014258 -0.004200 0.000000 0.000000 0.000000
# 3 -0.004155 -0.004200 0.008306 0.000000 0.000000 0.000000
# 4 0.000000 0.000000 0.000000 0.091052 0.000000 0.000000
# 5 0.000000 0.000000 0.000000 0.000000 -0.074838 0.000000
# 6 0.000000 0.000000 0.000000 0.000000 0.000000 0.041995
#
#
# Mechanical properties :
#
#
# Convention : Reuss Voigt Hill
#
# Bulk Modulus (GPa) = 26.44081 47.67362 37.05722
# Shear Modulus (GPa) = 33.52638 17.15379 25.34008
#
# Velocity S-wave (km/s) = 4.03411 2.88559 3.50718
# Velocity P-wave (km/s) = 5.87651 5.85179 5.86416
#
# Compressibility (1/GPa) = 0.03782032
#
# Stress axis : x y z
#
# Youngs Moduli (GPa) = 28.16373 70.13689 120.39414
#
# Poissons Ratio (x) = 0.12414 0.50029
# Poissons Ratio (y) = 0.04985 0.50562
# Poissons Ratio (z) = 0.11703 0.29455
#
# Static dielectric constant tensor:
#      x y z
#    x 1.717040 0.000000 0.000000 
#    y 0.000000 1.784880 0.000000 
#    z 0.000000 0.000000 1.796520 
# 
# From -- ./inp_files/40309.got.cif
#   From: 2010.05.17/outbox.cif.g08.bks.cpg/sg66_21_cif.got.tgz:40309.got - 2010.06.03 17:51:23.
