data_PCOD9495367
_publ_section_title
;
Structure prediction by ZEFSAII (Michael W. Deem and Ramdas Pophale) SiO2 
 PCOD9495367
Probable space group: C C C M
;
_chemical_formula_sum "Si O2"
_cell_formula_units_Z 96
_cell_length_a 24.417720
_cell_length_b 12.251574
_cell_length_c 14.379082
_cell_angle_alpha 90.000000
_cell_angle_beta 90.000000
_cell_angle_gamma 90.000000
_cell_volume 4301.581515
_symmetry_space_group_name_H-M "C C C M"
_symmetry_group_IT_number 66
_symmetry_cell_setting 'orthorhombic'
loop_
_space_group_symop_operation_xyz
x,y,z
-x,-y,z
x,-y,1/2-z
-x,y,1/2-z
-x,-y,-z
x,y,-z
-x,y,1/2+z
x,-y,1/2+z
1/2+x,1/2+y,z
1/2-x,1/2-y,z
1/2+x,1/2-y,1/2-z
1/2-x,1/2+y,1/2-z
1/2-x,1/2-y,-z
1/2+x,1/2+y,-z
1/2-x,1/2+y,1/2+z
1/2+x,1/2-y,1/2+z
loop_
_atom_site_type_symbol
_atom_site_label
_atom_site_fract_x
_atom_site_fract_y
_atom_site_fract_z
Si Si1 0.553264 0.668980 0.112819
Si Si2 0.631793 0.137450 0.603985
Si Si3 0.356797 0.509144 0.886950
Si Si4 0.747817 0.881609 0.890735
Si Si5 0.569798 0.298577 0.887512
Si Si6 0.557823 0.044227 0.854697
O O1 0.587308 0.776921 0.143792
O O2 0.592124 0.568698 0.136737
O O3 0.490394 0.659272 0.143667
O O4 0.550031 0.675028 0.000000
O O5 0.644829 0.183739 0.500000
O O6 0.688117 0.107543 0.655224
O O7 0.603571 0.022419 0.593855
O O8 0.300570 0.449117 0.854666
O O9 0.378228 0.628695 0.855489
O O10 0.353050 0.511575 0.000000
O O11 0.750000 0.750000 0.888202
O O12 0.744258 0.914663 0.000000
O O13 0.567615 0.171877 0.861292
O O14 0.570854 0.304464 0.000000
O O15 0.500000 0.000000 0.891902
O O16 0.560307 0.000000 0.750000
#
# Coordination Sequence:
#
# PCOD9495367 Si02
#       6
#    16  16  16  16  16  16
#     4   9  15  25  46  79 112 135 164 215 267 314
#     4  10  18  30  53  80 102 131 177 221 255 309
#     4   9  16  27  46  80 117 140 166 214 274 322
#     4   9  15  26  47  78 110 137 171 215 259 305
#     4  10  19  31  51  79 109 139 174 219 270 324
#     4  11  23  37  52  71  98 137 178 221 272 324
#
# _framework density 22.317373
#
# number of rings (size 3 to 8) (size 9 to 14) (size 15 to 20)
#    0.000    2.333    3.333    1.000    0.000    2.667 
#    0.000    0.833    0.000    7.000    0.000    0.000 
#    0.000    0.000    0.000    0.000    0.000    0.000 
#
# Total GULP energy -267377.155235 kJ/mol
# GULP energy per Si atom -5570.357401 kJ/mol
# Density = 2.226658 g / cm^3
# Si number density = 22.317373 Si / 1000 Ang^3
#
#
#
# Elastic Constant Matrix: (Units=GPa)
#
#
# Indices 1 2 3 4 5 6 
#
# 1 122.6049 42.5109 -6.8776 0.0000 0.0000 0.0000
# 2 42.5109 104.0879 -6.1090 0.0000 0.0000 0.0000
# 3 -6.8776 -6.1090 56.5822 0.0000 0.0000 0.0000
# 4 0.0000 0.0000 0.0000 -22.1281 0.0000 0.0000
# 5 0.0000 0.0000 0.0000 0.0000 -8.3158 0.0000
# 6 0.0000 0.0000 0.0000 0.0000 0.0000 39.7930
#
#
#
# Elastic Compliance Matrix: (Units=1/GPa)
#
#
# Indices 1 2 3 4 5 6 
#
# 1 0.009533 -0.003850 0.000743 0.000000 0.000000 0.000000
# 2 -0.003850 0.011223 0.000744 0.000000 0.000000 0.000000
# 3 0.000743 0.000744 0.017844 0.000000 0.000000 0.000000
# 4 0.000000 0.000000 0.000000 -0.045191 0.000000 0.000000
# 5 0.000000 0.000000 0.000000 0.000000 -0.120253 0.000000
# 6 0.000000 0.000000 0.000000 0.000000 0.000000 0.025130
#
#
# Mechanical properties :
#
#
# Convention : Reuss Voigt Hill
#
# Bulk Modulus (GPa) = 29.52087 38.03596 33.77842
# Shear Modulus (GPa) = -58.34519 18.78653 -19.77933
#
# Velocity S-wave (km/s) = -5.11861 2.90451 -2.98027
# Velocity P-wave (km/s) = 4.65586 5.32245 1.82365
#
# Compressibility (1/GPa) = 0.03387434
#
# Stress axis : x y z
#
# Youngs Moduli (GPa) = 104.90124 89.10123 56.04115
#
# Poissons Ratio (x) = 0.34301 -0.04164
# Poissons Ratio (y) = 0.40384 -0.04168
# Poissons Ratio (z) = -0.07795 -0.06627
#
# Static dielectric constant tensor:
#      x y z
#    x 1.953500 0.000000 0.000000 
#    y 0.000000 1.854420 0.000000 
#    z 0.000000 0.000000 1.933150 
# 
# From -- ./inp_files/52527.got.cif
#   From: 2010.05.17/outbox.cif.g08.bks.cpg/sg66_27_cif.got.tgz:52527.got - 2010.06.03 17:51:23.
