data_PCOD9495381
_publ_section_title
;
Structure prediction by ZEFSAII (Michael W. Deem and Ramdas Pophale) SiO2 
 PCOD9495381
Probable space group: C C C M
;
_chemical_formula_sum "Si O2"
_cell_formula_units_Z 80
_cell_length_a 5.462212
_cell_length_b 27.571537
_cell_length_c 27.708675
_cell_angle_alpha 90.000000
_cell_angle_beta 90.000000
_cell_angle_gamma 90.000000
_cell_volume 4172.970242
_symmetry_space_group_name_H-M "C C C M"
_symmetry_group_IT_number 66
_symmetry_cell_setting 'orthorhombic'
loop_
_space_group_symop_operation_xyz
x,y,z
-x,-y,z
x,-y,1/2-z
-x,y,1/2-z
-x,-y,-z
x,y,-z
-x,y,1/2+z
x,-y,1/2+z
1/2+x,1/2+y,z
1/2-x,1/2-y,z
1/2+x,1/2-y,1/2-z
1/2-x,1/2+y,1/2-z
1/2-x,1/2-y,-z
1/2+x,1/2+y,-z
1/2-x,1/2+y,1/2+z
1/2+x,1/2-y,1/2+z
loop_
_atom_site_type_symbol
_atom_site_label
_atom_site_fract_x
_atom_site_fract_y
_atom_site_fract_z
Si Si1 0.024962 0.443878 0.941154
Si Si2 0.009527 0.691441 0.846260
Si Si3 0.006265 0.197884 0.192786
Si Si4 0.028448 0.107301 0.558004
Si Si5 0.699883 0.193111 0.446407
O O1 0.785731 0.413918 0.924176
O O2 0.000000 0.500000 0.927231
O O3 0.285607 0.421870 0.925190
O O4 0.028003 0.442386 0.000000
O O5 0.001079 0.749069 0.832714
O O6 0.757923 0.672695 0.822696
O O7 0.987506 0.685214 0.903299
O O8 0.259388 0.671894 0.824212
O O9 0.000000 0.205949 0.250000
O O10 0.040185 0.101123 0.500000
O O11 0.946468 0.163128 0.565320
O O12 0.614219 0.177427 0.500000
O O13 0.750000 0.250000 0.447834
#
# Coordination Sequence:
#
# PCOD9495381 Si02
#       5
#    16  16  16  16  16
#     4   9  16  29  48  66  83 107 150 213 270 307
#     4  10  18  31  46  66  86 119 163 205 247 299
#     4  10  18  31  49  67  85 108 159 225 261 294
#     4   9  18  30  44  65  89 119 161 204 251 296
#     4  10  20  35  48  66 101 145 181 212 238 285
#
# _framework density 19.170998000000001
#
# number of rings (size 3 to 8) (size 9 to 14) (size 15 to 20)
#    0.000    2.400    2.000    3.600    0.000    4.000 
#    0.000    5.000    0.000    0.000    0.000    0.000 
#    0.000    0.000    0.000    0.000    0.000   41.000 
#
# Total GULP energy -223083.175833 kJ/mol
# GULP energy per Si atom -5577.079396 kJ/mol
# Density = 1.912736 g / cm^3
# Si number density = 19.170998 Si / 1000 Ang^3
#
#
#
# Elastic Constant Matrix: (Units=GPa)
#
#
# Indices 1 2 3 4 5 6 
#
# 1 170.3187 35.2442 40.6886 0.0000 0.0000 0.0000
# 2 35.2442 94.5313 4.2734 0.0000 0.0000 0.0000
# 3 40.6886 4.2734 107.0783 0.0000 0.0000 0.0000
# 4 0.0000 0.0000 0.0000 0.6335 0.0000 0.0000
# 5 0.0000 0.0000 0.0000 0.0000 213.1962 0.0000
# 6 0.0000 0.0000 0.0000 0.0000 0.0000 15.3466
#
#
#
# Elastic Compliance Matrix: (Units=1/GPa)
#
#
# Indices 1 2 3 4 5 6 
#
# 1 0.006999 -0.002494 -0.002560 0.000000 0.000000 0.000000
# 2 -0.002494 0.011486 0.000489 0.000000 0.000000 0.000000
# 3 -0.002560 0.000489 0.010292 0.000000 0.000000 0.000000
# 4 0.000000 0.000000 0.000000 1.578501 0.000000 0.000000
# 5 0.000000 0.000000 0.000000 0.000000 0.004691 0.000000
# 6 0.000000 0.000000 0.000000 0.000000 0.000000 0.065161
#
#
# Mechanical properties :
#
#
# Convention : Reuss Voigt Hill
#
# Bulk Modulus (GPa) = 50.89517 59.14897 55.02207
# Shear Modulus (GPa) = 2.95367 65.28340 34.11854
#
# Velocity S-wave (km/s) = 1.24260 5.84184 4.22322
# Velocity P-wave (km/s) = 5.35391 8.74204 7.24871
#
# Compressibility (1/GPa) = 0.01964823
#
# Stress axis : x y z
#
# Youngs Moduli (GPa) = 142.87862 87.06157 97.16086
#
# Poissons Ratio (x) = 0.21711 0.24873
# Poissons Ratio (y) = 0.35630 -0.04753
# Poissons Ratio (z) = 0.36577 -0.04259
#
# Static dielectric constant tensor:
#      x y z
#    x 1.780230 0.000000 0.000000 
#    y 0.000000 1.685050 0.000000 
#    z 0.000000 0.000000 1.677990 
# 
# From -- ./inp_files/67426.got.cif
#   From: 2010.05.17/outbox.cif.g08.bks.cpg/sg66_34_cif.got.tgz:67426.got - 2010.06.03 17:51:23.
