data_PCOD9495913
_publ_section_title
;
Structure prediction by ZEFSAII (Michael W. Deem and Ramdas Pophale) SiO2 
 PCOD9495913
Probable space group: C C C M
;
_chemical_formula_sum "Si O2"
_cell_formula_units_Z 104
_cell_length_a 26.370770
_cell_length_b 24.001314
_cell_length_c 9.369645
_cell_angle_alpha 90.000000
_cell_angle_beta 90.000000
_cell_angle_gamma 90.000000
_cell_volume 5930.358748
_symmetry_space_group_name_H-M "C C C M"
_symmetry_group_IT_number 66
_symmetry_cell_setting 'orthorhombic'
loop_
_space_group_symop_operation_xyz
x,y,z
-x,-y,z
x,-y,1/2-z
-x,y,1/2-z
-x,-y,-z
x,y,-z
-x,y,1/2+z
x,-y,1/2+z
1/2+x,1/2+y,z
1/2-x,1/2-y,z
1/2+x,1/2-y,1/2-z
1/2-x,1/2+y,1/2-z
1/2-x,1/2-y,-z
1/2+x,1/2+y,-z
1/2-x,1/2+y,1/2+z
1/2+x,1/2-y,1/2+z
loop_
_atom_site_type_symbol
_atom_site_label
_atom_site_fract_x
_atom_site_fract_y
_atom_site_fract_z
Si Si1 0.424488 0.946999 0.161124
Si Si2 0.553841 0.339316 0.673306
Si Si3 0.756767 0.942831 0.829739
Si Si4 0.500000 0.144309 0.250000
Si Si5 0.907625 0.721141 0.835108
Si Si6 0.158686 0.378112 0.172551
Si Si7 0.873823 0.942947 0.170484
O O1 0.466271 0.898086 0.157754
O O2 0.376881 0.922387 0.247622
O O3 0.442774 0.000000 0.250000
O O4 0.411195 0.963020 0.000000
O O5 0.500000 0.344760 0.750000
O O6 0.547205 0.336232 0.500000
O O7 0.579989 0.281755 0.725622
O O8 0.589431 0.391913 0.705417
O O9 0.716488 0.894446 0.796715
O O10 0.815098 0.929432 0.793119
O O11 0.742818 0.000000 0.750000
O O12 0.754306 0.952502 0.000000
O O13 0.458754 0.183876 0.175079
O O14 0.862291 0.682178 0.778149
O O15 0.895149 0.730956 0.000000
O O16 0.150918 0.381684 0.000000
O O17 0.887613 0.000000 0.250000
O O18 0.876228 0.951925 0.000000
#
# Coordination Sequence:
#
# PCOD9495913 Si02
#       7
#    16  16  16   8  16  16  16
#     4  11  22  32  45  67  96 130 169 214 259 302
#     4  10  20  35  55  78 104 134 168 206 250 302
#     4   9  17  31  51  74 100 133 170 207 252 301
#     4  10  19  32  48  64  91 126 170 208 252 298
#     4   9  17  31  49  70  97 128 164 206 250 293
#     4   9  18  32  50  71  99 132 168 210 251 297
#     4   9  19  35  55  79 106 133 164 204 250 304
#
# _framework density 17.536881000000001
#
# number of rings (size 3 to 8) (size 9 to 14) (size 15 to 20)
#    0.000    2.462    0.769    1.615    0.000    5.231 
#    0.000    2.308    0.000    4.615    0.000    0.000 
#    0.000    8.923    0.000    0.000    0.000    0.000 
#
# Total GULP energy -289682.105970 kJ/mol
# GULP energy per Si atom -5570.809730 kJ/mol
# Density = 1.749697 g / cm^3
# Si number density = 17.536881 Si / 1000 Ang^3
#
#
#
# Elastic Constant Matrix: (Units=GPa)
#
#
# Indices 1 2 3 4 5 6 
#
# 1 98.4390 90.0401 27.7059 0.0000 0.0000 0.0000
# 2 90.0401 151.7520 36.8157 0.0000 0.0000 0.0000
# 3 27.7059 36.8157 38.1166 0.0000 0.0000 0.0000
# 4 0.0000 0.0000 0.0000 20.5087 0.0000 0.0000
# 5 0.0000 0.0000 0.0000 0.0000 15.9616 0.0000
# 6 0.0000 0.0000 0.0000 0.0000 0.0000 22.0830
#
#
#
# Elastic Compliance Matrix: (Units=1/GPa)
#
#
# Indices 1 2 3 4 5 6 
#
# 1 0.022812 -0.012423 -0.004582 0.000000 0.000000 0.000000
# 2 -0.012423 0.015372 -0.005817 0.000000 0.000000 0.000000
# 3 -0.004582 -0.005817 0.035185 0.000000 0.000000 0.000000
# 4 0.000000 0.000000 0.000000 0.048760 0.000000 0.000000
# 5 0.000000 0.000000 0.000000 0.000000 0.062650 0.000000
# 6 0.000000 0.000000 0.000000 0.000000 0.000000 0.045284
#
#
# Mechanical properties :
#
#
# Convention : Reuss Voigt Hill
#
# Bulk Modulus (GPa) = 36.07073 66.38121 51.22597
# Shear Modulus (GPa) = 17.54704 20.62704 19.08704
#
# Velocity S-wave (km/s) = 3.16663 3.43331 3.30266
# Velocity P-wave (km/s) = 5.82951 7.32471 6.61946
#
# Compressibility (1/GPa) = 0.02772331
#
# Stress axis : x y z
#
# Youngs Moduli (GPa) = 43.83748 65.05212 28.42160
#
# Poissons Ratio (x) = 0.80817 0.13022
# Poissons Ratio (y) = 0.54461 0.16534
# Poissons Ratio (z) = 0.20085 0.37844
#
# Static dielectric constant tensor:
#      x y z
#    x 1.601870 0.000000 0.000000 
#    y 0.000000 1.602680 0.000000 
#    z 0.000000 0.000000 1.596530 
# 
# From -- ./inp_files/10537.got.cif
#   From: 2010.05.17/outbox.cif.g08.bks.cpg/sg66_6_cif.got.tgz:10537.got - 2010.06.03 17:51:23.
