data_PCOD9495713
_publ_section_title
;
Structure prediction by ZEFSAII (Michael W. Deem and Ramdas Pophale) SiO2 
 PCOD9495713
Probable space group: C C C M
;
_chemical_formula_sum "Si O2"
_cell_formula_units_Z 96
_cell_length_a 15.274686
_cell_length_b 23.539574
_cell_length_c 14.406294
_cell_angle_alpha 90.000000
_cell_angle_beta 90.000000
_cell_angle_gamma 90.000000
_cell_volume 5179.921329
_symmetry_space_group_name_H-M "C C C M"
_symmetry_group_IT_number 66
_symmetry_cell_setting 'orthorhombic'
loop_
_space_group_symop_operation_xyz
x,y,z
-x,-y,z
x,-y,1/2-z
-x,y,1/2-z
-x,-y,-z
x,y,-z
-x,y,1/2+z
x,-y,1/2+z
1/2+x,1/2+y,z
1/2-x,1/2-y,z
1/2+x,1/2-y,1/2-z
1/2-x,1/2+y,1/2-z
1/2-x,1/2-y,-z
1/2+x,1/2+y,-z
1/2-x,1/2+y,1/2+z
1/2+x,1/2-y,1/2+z
loop_
_atom_site_type_symbol
_atom_site_label
_atom_site_fract_x
_atom_site_fract_y
_atom_site_fract_z
Si Si1 0.687679 0.405644 0.500000
Si Si2 0.090327 0.757242 0.500000
Si Si3 0.092336 0.386200 0.203054
Si Si4 0.087418 0.857066 0.801695
Si Si5 0.984672 0.140055 0.000000
Si Si6 0.647630 0.246803 0.293031
Si Si7 0.724533 0.560877 0.791172
Si Si8 0.379950 0.129249 0.000000
O O1 0.586286 0.383589 0.500000
O O2 0.704638 0.437247 0.597940
O O3 0.773165 0.363013 0.500000
O O4 0.002238 0.792651 0.500000
O O5 0.135641 0.768749 0.400055
O O6 0.076880 0.690632 0.500000
O O7 0.114689 0.318364 0.212536
O O8 0.175868 0.422482 0.234446
O O9 0.000000 0.397832 0.250000
O O10 0.090298 0.399706 0.093645
O O11 0.100149 0.790431 0.776590
O O12 0.166691 0.890297 0.755705
O O13 0.000000 0.875945 0.750000
O O14 0.069773 0.872326 0.908092
O O15 0.750000 0.250000 0.272206
O O16 0.701879 0.500000 0.750000
#
# Coordination Sequence:
#
# PCOD9495713 Si02
#       8
#     8   8  16  16   8  16  16   8
#     4  10  20  42  63  88 118 156 213 268 296 354
#     4  10  19  26  55  92 116 152 202 254 293 347
#     4  10  21  39  62  91 122 160 207 256 311 372
#     4  12  23  40  59  91 128 165 199 251 316 373
#     4  12  24  36  60  91 130 165 208 250 304 379
#     4  11  20  35  61  90 127 162 200 250 314 371
#     4  11  24  43  67  89 122 163 211 264 311 361
#     4   8  20  33  55  91 119 151 203 255 302 352
#
# _framework density 18.533100000000001
#
# number of rings (size 3 to 8) (size 9 to 14) (size 15 to 20)
#    0.000    1.333    5.000    0.750    7.000    1.333 
#    0.000    2.917    0.000    3.000    0.000    0.000 
#    0.000    0.000    0.000    0.000    0.000    0.000 
#
# Total GULP energy -267530.481689 kJ/mol
# GULP energy per Si atom -5573.551702 kJ/mol
# Density = 1.849092 g / cm^3
# Si number density = 18.533100 Si / 1000 Ang^3
#
#
#
# Elastic Constant Matrix: (Units=GPa)
#
#
# Indices 1 2 3 4 5 6 
#
# 1 73.7474 -22.9202 24.4138 0.0000 0.0000 0.0000
# 2 -22.9202 31.9276 1.1399 0.0000 0.0000 0.0000
# 3 24.4138 1.1399 105.3498 0.0000 0.0000 0.0000
# 4 0.0000 0.0000 0.0000 24.5453 0.0000 0.0000
# 5 0.0000 0.0000 0.0000 0.0000 24.2226 0.0000
# 6 0.0000 0.0000 0.0000 0.0000 0.0000 -7.2401
#
#
#
# Elastic Compliance Matrix: (Units=1/GPa)
#
#
# Indices 1 2 3 4 5 6 
#
# 1 0.019513 0.014175 -0.004675 0.000000 0.000000 0.000000
# 2 0.014175 0.041630 -0.003735 0.000000 0.000000 0.000000
# 3 -0.004675 -0.003735 0.010616 0.000000 0.000000 0.000000
# 4 0.000000 0.000000 0.000000 0.040741 0.000000 0.000000
# 5 0.000000 0.000000 0.000000 0.000000 0.041284 0.000000
# 6 0.000000 0.000000 0.000000 0.000000 0.000000 -0.138120
#
#
# Mechanical properties :
#
#
# Convention : Reuss Voigt Hill
#
# Bulk Modulus (GPa) = 12.00659 24.03245 18.01952
# Shear Modulus (GPa) = 156.74764 22.19831 89.47298
#
# Velocity S-wave (km/s) = 9.20656 3.46463 6.95573
# Velocity P-wave (km/s) = 10.93192 5.38520 8.61705
#
# Compressibility (1/GPa) = 0.08328759
#
# Stress axis : x y z
#
# Youngs Moduli (GPa) = 51.24788 24.02109 94.19686
#
# Poissons Ratio (x) = -0.34050 0.44040
# Poissons Ratio (y) = -0.72643 0.35186
# Poissons Ratio (z) = 0.23960 0.08973
#
# Static dielectric constant tensor:
#      x y z
#    x 1.639580 0.000000 0.000000 
#    y 0.000000 1.648590 0.000000 
#    z 0.000000 0.000000 1.680980 
# 
# From -- ./inp_files/28467.got.cif
#   From: 2010.05.17/outbox.cif.g08.bks.cpg/sg66_15_cif.got.tgz:28467.got - 2010.06.03 17:51:23.
