data_PCOD9495340
_publ_section_title
;
Structure prediction by ZEFSAII (Michael W. Deem and Ramdas Pophale) SiO2 
 PCOD9495340
Probable space group: C C C M
;
_chemical_formula_sum "Si O2"
_cell_formula_units_Z 80
_cell_length_a 9.903079
_cell_length_b 26.556188
_cell_length_c 16.000836
_cell_angle_alpha 90.000000
_cell_angle_beta 90.000000
_cell_angle_gamma 90.000000
_cell_volume 4208.028301
_symmetry_space_group_name_H-M "C C C M"
_symmetry_group_IT_number 66
_symmetry_cell_setting 'orthorhombic'
loop_
_space_group_symop_operation_xyz
x,y,z
-x,-y,z
x,-y,1/2-z
-x,y,1/2-z
-x,-y,-z
x,y,-z
-x,y,1/2+z
x,-y,1/2+z
1/2+x,1/2+y,z
1/2-x,1/2-y,z
1/2+x,1/2-y,1/2-z
1/2-x,1/2+y,1/2-z
1/2-x,1/2-y,-z
1/2+x,1/2+y,-z
1/2-x,1/2+y,1/2+z
1/2+x,1/2-y,1/2+z
loop_
_atom_site_type_symbol
_atom_site_label
_atom_site_fract_x
_atom_site_fract_y
_atom_site_fract_z
Si Si1 0.535717 0.883757 0.905257
Si Si2 0.239410 0.957660 0.361492
Si Si3 0.765926 0.572716 0.335229
Si Si4 0.009859 0.115019 0.850219
Si Si5 0.763259 0.807515 0.899023
O O1 0.638340 0.930592 0.907278
O O2 0.407152 0.900550 0.852815
O O3 0.631879 0.839268 0.870856
O O4 0.493515 0.871113 0.000000
O O5 0.255303 0.940744 0.263719
O O6 0.097069 0.932113 0.384602
O O7 0.249624 0.016967 0.373603
O O8 0.646421 0.607559 0.372097
O O9 0.099636 0.163673 0.872686
O O10 0.000000 0.112341 0.750000
O O11 0.750000 0.750000 0.870836
O O12 0.761396 0.808533 0.000000
#
# Coordination Sequence:
#
# PCOD9495340 Si02
#       5
#    16  16  16  16  16
#     4  10  20  32  48  72  99 128 166 208 245 288
#     4   9  18  32  49  70 102 141 164 183 238 308
#     4  10  18  30  50  75 102 130 163 202 240 287
#     4   9  18  33  52  76 100 126 165 209 245 287
#     4   9  19  38  57  69  93 136 173 202 254 319
#
# _framework density 19.011279999999999
#
# number of rings (size 3 to 8) (size 9 to 14) (size 15 to 20)
#    0.000    2.600    0.000    1.800    0.000    6.400 
#    0.000    7.000    0.000    9.600    0.000    0.000 
#    0.000    0.000    0.000    0.000    0.000    0.000 
#
# Total GULP energy -222806.110277 kJ/mol
# GULP energy per Si atom -5570.152757 kJ/mol
# Density = 1.896801 g / cm^3
# Si number density = 19.011280 Si / 1000 Ang^3
#
#
#
# Elastic Constant Matrix: (Units=GPa)
#
#
# Indices 1 2 3 4 5 6 
#
# 1 159.9802 72.0253 22.9229 0.0000 0.0000 0.0000
# 2 72.0253 136.8781 14.7753 0.0000 0.0000 0.0000
# 3 22.9229 14.7753 12.5755 0.0000 0.0000 0.0000
# 4 0.0000 0.0000 0.0000 16.2503 0.0000 0.0000
# 5 0.0000 0.0000 0.0000 0.0000 -1.7604 0.0000
# 6 0.0000 0.0000 0.0000 0.0000 0.0000 8.6601
#
#
#
# Elastic Compliance Matrix: (Units=1/GPa)
#
#
# Indices 1 2 3 4 5 6 
#
# 1 0.009883 -0.003729 -0.013634 0.000000 0.000000 0.000000
# 2 -0.003729 0.009774 -0.004687 0.000000 0.000000 0.000000
# 3 -0.013634 -0.004687 0.109878 0.000000 0.000000 0.000000
# 4 0.000000 0.000000 0.000000 0.061537 0.000000 0.000000
# 5 0.000000 0.000000 0.000000 0.000000 -0.568038 0.000000
# 6 0.000000 0.000000 0.000000 0.000000 0.000000 0.115472
#
#
# Mechanical properties :
#
#
# Convention : Reuss Voigt Hill
#
# Bulk Modulus (GPa) = 11.70462 58.76455 35.23458
# Shear Modulus (GPa) = -26.46671 17.94403 -4.26134
#
# Velocity S-wave (km/s) = -3.73521 3.07557 -1.49878
# Velocity P-wave (km/s) = 3.52596 6.60224 3.94698
#
# Compressibility (1/GPa) = 0.08543636
#
# Stress axis : x y z
#
# Youngs Moduli (GPa) = 101.18306 102.31516 9.10098
#
# Poissons Ratio (x) = 0.38151 0.12408
# Poissons Ratio (y) = 0.37729 0.04265
# Poissons Ratio (z) = 1.37954 0.47950
#
# Static dielectric constant tensor:
#      x y z
#    x 1.671100 0.000000 0.000000 
#    y 0.000000 1.660430 0.000000 
#    z 0.000000 0.000000 1.722330 
# 
# From -- ./inp_files/36933.got.cif
#   From: 2010.05.17/outbox.cif.g08.bks.cpg/sg66_19_cif.got.tgz:36933.got - 2010.06.03 17:51:23.
