data_PCOD9495357
_publ_section_title
;
Structure prediction by ZEFSAII (Michael W. Deem and Ramdas Pophale) SiO2 
 PCOD9495357
Probable space group: C C C M
;
_chemical_formula_sum "Si O2"
_cell_formula_units_Z 104
_cell_length_a 15.455303
_cell_length_b 17.389693
_cell_length_c 20.816708
_cell_angle_alpha 90.000000
_cell_angle_beta 90.000000
_cell_angle_gamma 90.000000
_cell_volume 5594.760359
_symmetry_space_group_name_H-M "C C C M"
_symmetry_group_IT_number 66
_symmetry_cell_setting 'orthorhombic'
loop_
_space_group_symop_operation_xyz
x,y,z
-x,-y,z
x,-y,1/2-z
-x,y,1/2-z
-x,-y,-z
x,y,-z
-x,y,1/2+z
x,-y,1/2+z
1/2+x,1/2+y,z
1/2-x,1/2-y,z
1/2+x,1/2-y,1/2-z
1/2-x,1/2+y,1/2-z
1/2-x,1/2-y,-z
1/2+x,1/2+y,-z
1/2-x,1/2+y,1/2+z
1/2+x,1/2-y,1/2+z
loop_
_atom_site_type_symbol
_atom_site_label
_atom_site_fract_x
_atom_site_fract_y
_atom_site_fract_z
Si Si1 0.271597 0.074701 0.925382
Si Si2 0.713138 0.588646 0.423888
Si Si3 0.920958 0.855058 0.070984
Si Si4 0.447126 0.423034 0.330467
Si Si5 0.250000 0.750000 0.141961
Si Si6 0.157980 0.280631 0.879739
Si Si7 0.900405 0.221173 0.756861
O O1 0.171285 0.102617 0.917019
O O2 0.333190 0.128259 0.882762
O O3 0.277234 0.983701 0.914538
O O4 0.291815 0.090661 0.000000
O O5 0.691815 0.591083 0.500000
O O6 0.631986 0.565473 0.379430
O O7 0.744886 0.671932 0.399804
O O8 0.908827 0.763216 0.075059
O O9 0.986177 0.873894 0.127323
O O10 0.950835 0.878776 0.000000
O O11 0.500000 0.500000 0.315896
O O12 0.410936 0.370297 0.272471
O O13 0.163454 0.749301 0.186733
O O14 0.250000 0.250000 0.904431
O O15 0.143979 0.245291 0.809418
O O16 0.000000 0.249780 0.750000
#
# Coordination Sequence:
#
# PCOD9495357 Si02
#       7
#    16  16  16  16   8  16  16
#     4   9  18  32  56  85 113 147 190 244 302 353
#     4  10  20  36  60  89 121 159 196 244 308 372
#     4  10  18  30  51  83 118 150 184 231 303 372
#     4  11  21  33  53  87 125 156 189 239 303 379
#     4  10  23  40  60  86 123 160 210 244 300 370
#     4  10  19  35  54  77 113 154 197 245 287 342
#     4  11  22  39  58  81 114 166 202 247 290 353
#
# _framework density 18.588822
#
# number of rings (size 3 to 8) (size 9 to 14) (size 15 to 20)
#    0.000    1.846    3.846    1.154    0.000    2.769 
#    0.000    0.769    0.000    1.846    0.000    2.154 
#    0.000    0.000    0.000    0.000    0.000    0.000 
#
# Total GULP energy -289577.441731 kJ/mol
# GULP energy per Si atom -5568.796956 kJ/mol
# Density = 1.854651 g / cm^3
# Si number density = 18.588822 Si / 1000 Ang^3
#
#
#
# Elastic Constant Matrix: (Units=GPa)
#
#
# Indices 1 2 3 4 5 6 
#
# 1 48.7567 34.8057 19.5786 0.0000 0.0000 0.0000
# 2 34.8057 147.2164 58.6114 0.0000 0.0000 0.0000
# 3 19.5786 58.6114 95.5045 0.0000 0.0000 0.0000
# 4 0.0000 0.0000 0.0000 22.2032 0.0000 0.0000
# 5 0.0000 0.0000 0.0000 0.0000 18.9272 0.0000
# 6 0.0000 0.0000 0.0000 0.0000 0.0000 31.5998
#
#
#
# Elastic Compliance Matrix: (Units=1/GPa)
#
#
# Indices 1 2 3 4 5 6 
#
# 1 0.024954 -0.005112 -0.001978 0.000000 0.000000 0.000000
# 2 -0.005112 0.010036 -0.005111 0.000000 0.000000 0.000000
# 3 -0.001978 -0.005111 0.014013 0.000000 0.000000 0.000000
# 4 0.000000 0.000000 0.000000 0.045039 0.000000 0.000000
# 5 0.000000 0.000000 0.000000 0.000000 0.052834 0.000000
# 6 0.000000 0.000000 0.000000 0.000000 0.000000 0.031646
#
#
# Mechanical properties :
#
#
# Convention : Reuss Voigt Hill
#
# Bulk Modulus (GPa) = 40.65078 57.49656 49.07367
# Shear Modulus (GPa) = 23.68268 26.44484 25.06376
#
# Velocity S-wave (km/s) = 3.57323 3.77586 3.67594
# Velocity P-wave (km/s) = 6.24018 7.07159 6.66885
#
# Compressibility (1/GPa) = 0.02459977
#
# Stress axis : x y z
#
# Youngs Moduli (GPa) = 40.07423 99.63795 71.36176
#
# Poissons Ratio (x) = 0.50936 0.14117
# Poissons Ratio (y) = 0.20486 0.36475
# Poissons Ratio (z) = 0.07928 0.50928
#
# Static dielectric constant tensor:
#      x y z
#    x 1.677100 0.000000 0.000000 
#    y 0.000000 1.702520 0.000000 
#    z 0.000000 0.000000 1.677280 
# 
# From -- ./inp_files/51120.got.cif
#   From: 2010.05.17/outbox.cif.g08.bks.cpg/sg66_26_cif.got.tgz:51120.got - 2010.06.03 17:51:23.
