data_PCOD9495230
_publ_section_title
;
Structure prediction by ZEFSAII (Michael W. Deem and Ramdas Pophale) SiO2 
 PCOD9495230
Probable space group: C C C M
;
_chemical_formula_sum "Si O2"
_cell_formula_units_Z 68
_cell_length_a 21.507142
_cell_length_b 14.958473
_cell_length_c 13.939917
_cell_angle_alpha 90.000000
_cell_angle_beta 90.000000
_cell_angle_gamma 90.000000
_cell_volume 4484.666498
_symmetry_space_group_name_H-M "C C C M"
_symmetry_group_IT_number 66
_symmetry_cell_setting 'orthorhombic'
loop_
_space_group_symop_operation_xyz
x,y,z
-x,-y,z
x,-y,1/2-z
-x,y,1/2-z
-x,-y,-z
x,y,-z
-x,y,1/2+z
x,-y,1/2+z
1/2+x,1/2+y,z
1/2-x,1/2-y,z
1/2+x,1/2-y,1/2-z
1/2-x,1/2+y,1/2-z
1/2-x,1/2-y,-z
1/2+x,1/2+y,-z
1/2-x,1/2+y,1/2+z
1/2+x,1/2-y,1/2+z
loop_
_atom_site_type_symbol
_atom_site_label
_atom_site_fract_x
_atom_site_fract_y
_atom_site_fract_z
Si Si1 0.403435 0.898004 0.275214
Si Si2 0.484814 0.824875 0.111302
Si Si3 0.062232 0.857453 0.387647
Si Si4 0.500000 0.500000 0.250000
Si Si5 0.177452 0.267267 0.112896
O O1 0.427911 0.844535 0.181843
O O2 0.460047 0.889448 0.351461
O O3 0.345769 0.848560 0.322583
O O4 0.392178 0.000000 0.250000
O O5 0.513788 0.725561 0.123289
O O6 0.470787 0.838933 0.000000
O O7 0.061064 0.884374 0.500000
O O8 0.041662 0.936345 0.317809
O O9 0.130201 0.815035 0.366483
O O10 0.250000 0.250000 0.127448
O O11 0.167408 0.287938 0.000000
#
# Coordination Sequence:
#
# PCOD9495230 Si02
#       5
#    16  16  16   4  16
#     4  10  18  27  45  76  98 116 155 197 233 278
#     4   9  17  30  47  68 101 130 149 181 236 293
#     4   9  18  30  46  70  92 122 159 188 231 287
#     4  12  18  28  48  74 102 116 142 206 256 274
#     4   9  18  35  53  64  88 129 167 197 230 279
#
# _framework density 15.162777
#
# number of rings (size 3 to 8) (size 9 to 14) (size 15 to 20)
#    0.000    2.588    0.000    6.706    0.000    2.824 
#    2.118    0.000    0.000    0.706    0.000    0.000 
#    0.000    0.000    0.000    0.000    0.000    0.000 
#
# Total GULP energy -189476.021890 kJ/mol
# GULP energy per Si atom -5572.824173 kJ/mol
# Density = 1.512827 g / cm^3
# Si number density = 15.162777 Si / 1000 Ang^3
#
#
#
# Elastic Constant Matrix: (Units=GPa)
#
#
# Indices 1 2 3 4 5 6 
#
# 1 88.6285 59.9905 64.1526 0.0000 0.0000 0.0000
# 2 59.9905 106.6908 68.9454 0.0000 0.0000 0.0000
# 3 64.1526 68.9454 105.3696 0.0000 0.0000 0.0000
# 4 0.0000 0.0000 0.0000 9.0910 0.0000 0.0000
# 5 0.0000 0.0000 0.0000 0.0000 20.5455 0.0000
# 6 0.0000 0.0000 0.0000 0.0000 0.0000 9.0899
#
#
#
# Elastic Compliance Matrix: (Units=1/GPa)
#
#
# Indices 1 2 3 4 5 6 
#
# 1 0.022573 -0.006604 -0.009422 0.000000 0.000000 0.000000
# 2 -0.006604 0.018171 -0.007869 0.000000 0.000000 0.000000
# 3 -0.009422 -0.007869 0.020376 0.000000 0.000000 0.000000
# 4 0.000000 0.000000 0.000000 0.109999 0.000000 0.000000
# 5 0.000000 0.000000 0.000000 0.000000 0.048672 0.000000
# 6 0.000000 0.000000 0.000000 0.000000 0.000000 0.110013
#
#
# Mechanical properties :
#
#
# Convention : Reuss Voigt Hill
#
# Bulk Modulus (GPa) = 75.01952 76.31846 75.66899
# Shear Modulus (GPa) = 13.08766 14.91863 14.00314
#
# Velocity S-wave (km/s) = 2.94112 3.14012 3.04225
# Velocity P-wave (km/s) = 7.81774 7.97428 7.89640
#
# Compressibility (1/GPa) = 0.01332986
#
# Stress axis : x y z
#
# Youngs Moduli (GPa) = 44.30035 55.03191 49.07687
#
# Poissons Ratio (x) = 0.36341 0.46243
# Poissons Ratio (y) = 0.29254 0.38620
# Poissons Ratio (z) = 0.41742 0.43307
#
# Static dielectric constant tensor:
#      x y z
#    x 1.491210 0.000000 0.000000 
#    y 0.000000 1.502830 0.000000 
#    z 0.000000 0.000000 1.513090 
# 
# From -- ./inp_files/26065.got.cif
#   From: 2010.05.17/outbox.cif.g08.bks.cpg/sg66_14_cif.got.tgz:26065.got - 2010.06.03 17:51:23.
