data_PCOD9495100
_publ_section_title
;
Structure prediction by ZEFSAII (Michael W. Deem and Ramdas Pophale) SiO2 
 PCOD9495100
Probable space group: C C C M
;
_chemical_formula_sum "Si O2"
_cell_formula_units_Z 64
_cell_length_a 15.071881
_cell_length_b 7.513995
_cell_length_c 25.693920
_cell_angle_alpha 90.000000
_cell_angle_beta 90.000000
_cell_angle_gamma 90.000000
_cell_volume 2909.837429
_symmetry_space_group_name_H-M "C C C M"
_symmetry_group_IT_number 66
_symmetry_cell_setting 'orthorhombic'
loop_
_space_group_symop_operation_xyz
x,y,z
-x,-y,z
x,-y,1/2-z
-x,y,1/2-z
-x,-y,-z
x,y,-z
-x,y,1/2+z
x,-y,1/2+z
1/2+x,1/2+y,z
1/2-x,1/2-y,z
1/2+x,1/2-y,1/2-z
1/2-x,1/2+y,1/2-z
1/2-x,1/2-y,-z
1/2+x,1/2+y,-z
1/2-x,1/2+y,1/2+z
1/2+x,1/2-y,1/2+z
loop_
_atom_site_type_symbol
_atom_site_label
_atom_site_fract_x
_atom_site_fract_y
_atom_site_fract_z
Si Si1 0.079282 0.154593 0.000000
Si Si2 0.354531 0.715245 0.112397
Si Si3 0.645097 0.710204 0.107364
Si Si4 0.649099 0.295463 0.000000
Si Si5 0.003592 0.218392 0.809590
O O1 0.094715 0.259442 0.053412
O O2 0.000000 0.000000 0.000000
O O3 0.157121 0.009604 0.000000
O O4 0.250000 0.750000 0.119389
O O5 0.364548 0.502788 0.110507
O O6 0.417923 0.781065 0.157827
O O7 0.387095 0.774308 0.054819
O O8 0.750000 0.750000 0.106760
O O9 0.590442 0.775602 0.157617
O O10 0.750000 0.250000 0.000000
O O11 0.000000 0.277323 0.750000
O O12 0.000000 0.000000 0.808673
#
# Coordination Sequence:
#
# PCOD9495100 Si02
#       5
#     8  16  16   8  16
#     4  10  17  29  50  73  97 128 162 194 239 291
#     4   9  17  31  51  71  94 127 161 193 238 294
#     4  10  19  31  49  75 101 124 157 205 246 283
#     4   8  14  25  44  69  90 112 147 186 224 275
#     4   9  18  32  49  69  94 128 167 199 234 288
#
# _framework density 21.994357000000001
#
# number of rings (size 3 to 8) (size 9 to 14) (size 15 to 20)
#    0.000    2.750    0.000    4.125    0.000    1.000 
#    0.000    1.250    0.000    1.500    0.000   22.750 
#    0.000    0.000    0.000    0.000    0.000    0.000 
#
# Total GULP energy -178208.355893 kJ/mol
# GULP energy per Si atom -5569.011122 kJ/mol
# Density = 2.194430 g / cm^3
# Si number density = 21.994357 Si / 1000 Ang^3
#
#
#
# Elastic Constant Matrix: (Units=GPa)
#
#
# Indices 1 2 3 4 5 6 
#
# 1 156.0268 -4.4781 115.3398 0.0000 0.0000 0.0000
# 2 -4.4781 39.7588 4.9856 0.0000 0.0000 0.0000
# 3 115.3398 4.9856 274.1762 0.0000 0.0000 0.0000
# 4 0.0000 0.0000 0.0000 0.1978 0.0000 0.0000
# 5 0.0000 0.0000 0.0000 0.0000 323.9005 0.0000
# 6 0.0000 0.0000 0.0000 0.0000 0.0000 28.8919
#
#
#
# Elastic Compliance Matrix: (Units=1/GPa)
#
#
# Indices 1 2 3 4 5 6 
#
# 1 0.009397 0.001558 -0.003981 0.000000 0.000000 0.000000
# 2 0.001558 0.025467 -0.001118 0.000000 0.000000 0.000000
# 3 -0.003981 -0.001118 0.005343 0.000000 0.000000 0.000000
# 4 0.000000 0.000000 0.000000 5.055217 0.000000 0.000000
# 5 0.000000 0.000000 0.000000 0.000000 0.003087 0.000000
# 6 0.000000 0.000000 0.000000 0.000000 0.000000 0.034612
#
#
# Mechanical properties :
#
#
# Convention : Reuss Voigt Hill
#
# Bulk Modulus (GPa) = 30.19082 77.96182 54.07632
# Shear Modulus (GPa) = 0.97064 94.20568 47.58816
#
# Velocity S-wave (km/s) = 0.66503 6.55170 4.65655
# Velocity P-wave (km/s) = 3.78763 9.63100 7.31787
#
# Compressibility (1/GPa) = 0.03312266
#
# Stress axis : x y z
#
# Youngs Moduli (GPa) = 106.41601 39.26592 187.17693
#
# Poissons Ratio (x) = -0.06116 0.74524
# Poissons Ratio (y) = -0.16576 0.20933
# Poissons Ratio (z) = 0.42369 0.04391
#
# Static dielectric constant tensor:
#      x y z
#    x 6.429190 0.000000 0.000000 
#    y 0.000000 2.307320 0.000000 
#    z 0.000000 0.000000 1.885560 
# 
# From -- ./inp_files/56355.got.cif
#   From: 2010.05.17/outbox.cif.g08.bks.cpg/sg66_29_cif.got.tgz:56355.got - 2010.06.03 17:51:23.
