data_PCOD9495102
_publ_section_title
;
Structure prediction by ZEFSAII (Michael W. Deem and Ramdas Pophale) SiO2 
 PCOD9495102
Probable space group: C C C M
;
_chemical_formula_sum "Si O2"
_cell_formula_units_Z 96
_cell_length_a 20.214440
_cell_length_b 30.110216
_cell_length_c 8.682760
_cell_angle_alpha 90.000000
_cell_angle_beta 90.000000
_cell_angle_gamma 90.000000
_cell_volume 5284.858728
_symmetry_space_group_name_H-M "C C C M"
_symmetry_group_IT_number 66
_symmetry_cell_setting 'orthorhombic'
loop_
_space_group_symop_operation_xyz
x,y,z
-x,-y,z
x,-y,1/2-z
-x,y,1/2-z
-x,-y,-z
x,y,-z
-x,y,1/2+z
x,-y,1/2+z
1/2+x,1/2+y,z
1/2-x,1/2-y,z
1/2+x,1/2-y,1/2-z
1/2-x,1/2+y,1/2-z
1/2-x,1/2-y,-z
1/2+x,1/2+y,-z
1/2-x,1/2+y,1/2+z
1/2+x,1/2-y,1/2+z
loop_
_atom_site_type_symbol
_atom_site_label
_atom_site_fract_x
_atom_site_fract_y
_atom_site_fract_z
Si Si1 0.297059 0.878091 0.815620
Si Si2 0.704546 0.450397 0.316640
Si Si3 0.571142 0.162508 0.684762
Si Si4 0.429307 0.266856 0.816454
Si Si5 0.207809 0.792973 0.814957
Si Si6 0.567675 0.550560 0.684288
O O1 0.265980 0.920808 0.734867
O O2 0.369527 0.865360 0.756900
O O3 0.249304 0.836643 0.776238
O O4 0.297069 0.883643 0.000000
O O5 0.711769 0.500000 0.250000
O O6 0.697599 0.452411 0.500000
O O7 0.636880 0.430177 0.244223
O O8 0.500000 0.148626 0.750000
O O9 0.572052 0.159450 0.500000
O O10 0.579707 0.214703 0.727786
O O11 0.500000 0.281678 0.750000
O O12 0.365299 0.292115 0.754434
O O13 0.431713 0.269449 0.000000
O O14 0.250000 0.750000 0.762199
O O15 0.202002 0.790260 0.000000
O O16 0.568516 0.500000 0.750000
O O17 0.500000 0.571264 0.750000
O O18 0.565947 0.549550 0.500000
#
# Coordination Sequence:
#
# PCOD9495102 Si02
#       6
#    16  16  16  16  16  16
#     4  11  22  37  58  84 114 148 187 231 281 336
#     4  11  22  38  58  82 112 146 188 235 285 337
#     4  10  20  34  54  82 112 146 186 231 276 328
#     4  10  20  33  53  78 111 150 191 232 276 329
#     4  10  20  35  55  80 112 148 183 225 275 328
#     4  10  17  29  50  77 106 138 178 223 273 324
#
# _framework density 18.165102000000001
#
# number of rings (size 3 to 8) (size 9 to 14) (size 15 to 20)
#    0.000    1.667    1.667    6.000    0.000    3.000 
#    0.000    0.833    0.000    4.500    0.000    3.500 
#    0.000    0.000    0.000    0.000    0.000    0.000 
#
# Total GULP energy -268126.051373 kJ/mol
# GULP energy per Si atom -5585.959404 kJ/mol
# Density = 1.812376 g / cm^3
# Si number density = 18.165102 Si / 1000 Ang^3
#
#
#
# Elastic Constant Matrix: (Units=GPa)
#
#
# Indices 1 2 3 4 5 6 
#
# 1 171.8112 44.6966 57.6925 0.0000 0.0000 0.0000
# 2 44.6966 47.0384 35.1386 0.0000 0.0000 0.0000
# 3 57.6925 35.1386 101.2403 0.0000 0.0000 0.0000
# 4 0.0000 0.0000 0.0000 37.2126 0.0000 0.0000
# 5 0.0000 0.0000 0.0000 0.0000 37.9906 0.0000
# 6 0.0000 0.0000 0.0000 0.0000 0.0000 24.5527
#
#
#
# Elastic Compliance Matrix: (Units=1/GPa)
#
#
# Indices 1 2 3 4 5 6 
#
# 1 0.008233 -0.005830 -0.002668 0.000000 0.000000 0.000000
# 2 -0.005830 0.032829 -0.008072 0.000000 0.000000 0.000000
# 3 -0.002668 -0.008072 0.014200 0.000000 0.000000 0.000000
# 4 0.000000 0.000000 0.000000 0.026873 0.000000 0.000000
# 5 0.000000 0.000000 0.000000 0.000000 0.026322 0.000000
# 6 0.000000 0.000000 0.000000 0.000000 0.000000 0.040729
#
#
# Mechanical properties :
#
#
# Convention : Reuss Voigt Hill
#
# Bulk Modulus (GPa) = 45.20557 66.12727 55.66642
# Shear Modulus (GPa) = 26.35754 32.12198 29.23976
#
# Velocity S-wave (km/s) = 3.81333 4.20972 4.01642
# Velocity P-wave (km/s) = 6.65797 7.75316 7.22634
#
# Compressibility (1/GPa) = 0.02212117
#
# Stress axis : x y z
#
# Youngs Moduli (GPa) = 121.46361 30.46102 70.42442
#
# Poissons Ratio (x) = 0.17758 0.18790
# Poissons Ratio (y) = 0.70812 0.56847
# Poissons Ratio (z) = 0.32408 0.24588
#
# Static dielectric constant tensor:
#      x y z
#    x 1.635770 0.000000 0.000000 
#    y 0.000000 1.626080 0.000000 
#    z 0.000000 0.000000 1.604080 
# 
# From -- ./inp_files/8028.got.cif
#   From: 2010.05.17/outbox.cif.g08.bks.cpg/sg66_5_cif.got.tgz:8028.got - 2010.06.03 17:51:23.
