data_PCOD9495195
_publ_section_title
;
Structure prediction by ZEFSAII (Michael W. Deem and Ramdas Pophale) SiO2 
 PCOD9495195
Probable space group: C C C M
;
_chemical_formula_sum "Si O2"
_cell_formula_units_Z 112
_cell_length_a 16.831443
_cell_length_b 18.386598
_cell_length_c 18.773012
_cell_angle_alpha 90.000000
_cell_angle_beta 90.000000
_cell_angle_gamma 90.000000
_cell_volume 5809.739896
_symmetry_space_group_name_H-M "C C C M"
_symmetry_group_IT_number 66
_symmetry_cell_setting 'orthorhombic'
loop_
_space_group_symop_operation_xyz
x,y,z
-x,-y,z
x,-y,1/2-z
-x,y,1/2-z
-x,-y,-z
x,y,-z
-x,y,1/2+z
x,-y,1/2+z
1/2+x,1/2+y,z
1/2-x,1/2-y,z
1/2+x,1/2-y,1/2-z
1/2-x,1/2+y,1/2-z
1/2-x,1/2-y,-z
1/2+x,1/2+y,-z
1/2-x,1/2+y,1/2+z
1/2+x,1/2-y,1/2+z
loop_
_atom_site_type_symbol
_atom_site_label
_atom_site_fract_x
_atom_site_fract_y
_atom_site_fract_z
Si Si1 0.544776 0.676156 0.173794
Si Si2 0.585733 0.890075 0.340567
Si Si3 0.415890 0.842466 0.326158
Si Si4 0.816067 0.526570 0.167167
Si Si5 0.864770 0.973971 0.832090
Si Si6 0.737711 0.164789 0.920339
Si Si7 0.409123 0.391852 0.414699
O O1 0.500000 0.672918 0.250000
O O2 0.584964 0.755497 0.168441
O O3 0.605086 0.608808 0.166604
O O4 0.475874 0.661824 0.115839
O O5 0.497389 0.868933 0.363781
O O6 0.582970 0.867761 0.257109
O O7 0.659776 0.848356 0.374478
O O8 0.612321 0.972952 0.355676
O O9 0.342612 0.891715 0.350578
O O10 0.809395 0.500000 0.250000
O O11 0.726160 0.518351 0.140992
O O12 0.870148 0.000000 0.750000
O O13 0.916421 0.028951 0.879415
O O14 0.750000 0.250000 0.925844
O O15 0.821004 0.134478 0.891539
O O16 0.725320 0.134025 0.000000
O O17 0.411996 0.393954 0.500000
#
# Coordination Sequence:
#
# PCOD9495195 Si02
#       7
#    16  16  16  16  16  16  16
#     4  12  23  37  58  88 124 159 202 256 306 353
#     4  10  17  35  58  81 118 153 199 245 302 364
#     4  10  21  34  56  88 116 157 196 248 307 362
#     4   9  19  35  55  85 115 156 198 247 301 358
#     4  11  22  37  59  87 120 157 203 255 306 355
#     4  10  21  35  57  88 123 160 199 250 305 363
#     4  11  24  42  63  90 124 166 210 249 309 379
#
# _framework density 19.277971000000001
#
# number of rings (size 3 to 8) (size 9 to 14) (size 15 to 20)
#    0.000    1.571    4.286    1.714    0.000    3.429 
#    0.000    0.000    0.000    4.286    0.000    2.000 
#    0.000    0.000    0.000    0.000    0.000    0.000 
#
# Total GULP energy -311967.798503 kJ/mol
# GULP energy per Si atom -5570.853545 kJ/mol
# Density = 1.923409 g / cm^3
# Si number density = 19.277971 Si / 1000 Ang^3
#
#
#
# Elastic Constant Matrix: (Units=GPa)
#
#
# Indices 1 2 3 4 5 6 
#
# 1 98.5351 48.2631 24.2638 0.0000 0.0000 0.0000
# 2 48.2631 145.8363 13.9155 0.0000 0.0000 0.0000
# 3 24.2638 13.9155 38.5711 0.0000 0.0000 0.0000
# 4 0.0000 0.0000 0.0000 0.1221 0.0000 0.0000
# 5 0.0000 0.0000 0.0000 0.0000 -8.5550 0.0000
# 6 0.0000 0.0000 0.0000 0.0000 0.0000 30.0418
#
#
#
# Elastic Compliance Matrix: (Units=1/GPa)
#
#
# Indices 1 2 3 4 5 6 
#
# 1 0.013853 -0.003887 -0.007312 0.000000 0.000000 0.000000
# 2 -0.003887 0.008192 -0.000510 0.000000 0.000000 0.000000
# 3 -0.007312 -0.000510 0.030710 0.000000 0.000000 0.000000
# 4 0.000000 0.000000 0.000000 8.189268 0.000000 0.000000
# 5 0.000000 0.000000 0.000000 0.000000 -0.116891 0.000000
# 6 0.000000 0.000000 0.000000 0.000000 0.000000 0.033287
#
#
# Mechanical properties :
#
#
# Convention : Reuss Voigt Hill
#
# Bulk Modulus (GPa) = 34.08744 50.64747 42.36746
# Shear Modulus (GPa) = 0.61038 17.42179 9.01608
#
# Velocity S-wave (km/s) = 0.56330 3.00945 2.16496
# Velocity P-wave (km/s) = 4.25952 6.19717 5.31735
#
# Compressibility (1/GPa) = 0.02933632
#
# Stress axis : x y z
#
# Youngs Moduli (GPa) = 72.18621 122.07016 32.56253
#
# Poissons Ratio (x) = 0.47446 0.23810
# Poissons Ratio (y) = 0.28057 0.01662
# Poissons Ratio (z) = 0.52784 0.06230
#
# Static dielectric constant tensor:
#      x y z
#    x 1.684730 0.000000 0.000000 
#    y 0.000000 1.719230 0.000000 
#    z 0.000000 0.000000 1.715880 
# 
# From -- ./inp_files/51187.got.cif
#   From: 2010.05.17/outbox.cif.g08.bks.cpg/sg66_26_cif.got.tgz:51187.got - 2010.06.03 17:51:23.
