data_PCOD9495047
_publ_section_title
;
Structure prediction by ZEFSAII (Michael W. Deem and Ramdas Pophale) SiO2 
 PCOD9495047
Probable space group: C C C M
;
_chemical_formula_sum "Si O2"
_cell_formula_units_Z 96
_cell_length_a 10.303482
_cell_length_b 23.040981
_cell_length_c 19.101210
_cell_angle_alpha 90.000000
_cell_angle_beta 90.000000
_cell_angle_gamma 90.000000
_cell_volume 4534.671817
_symmetry_space_group_name_H-M "C C C M"
_symmetry_group_IT_number 66
_symmetry_cell_setting 'orthorhombic'
loop_
_space_group_symop_operation_xyz
x,y,z
-x,-y,z
x,-y,1/2-z
-x,y,1/2-z
-x,-y,-z
x,y,-z
-x,y,1/2+z
x,-y,1/2+z
1/2+x,1/2+y,z
1/2-x,1/2-y,z
1/2+x,1/2-y,1/2-z
1/2-x,1/2+y,1/2-z
1/2-x,1/2-y,-z
1/2+x,1/2+y,-z
1/2-x,1/2+y,1/2+z
1/2+x,1/2-y,1/2+z
loop_
_atom_site_type_symbol
_atom_site_label
_atom_site_fract_x
_atom_site_fract_y
_atom_site_fract_z
Si Si1 0.282858 0.117988 0.842271
Si Si2 0.123553 0.792095 0.578873
Si Si3 0.977328 0.318356 0.916291
Si Si4 0.642382 0.567772 0.276441
Si Si5 0.864517 0.488229 0.577856
Si Si6 0.276001 0.610042 0.922446
O O1 0.166043 0.158409 0.868549
O O2 0.418572 0.146330 0.868836
O O3 0.257841 0.103327 0.761708
O O4 0.276658 0.056832 0.882272
O O5 0.108244 0.814802 0.500000
O O6 0.250000 0.750000 0.577561
O O7 0.004480 0.749777 0.597199
O O8 0.830943 0.340379 0.906402
O O9 0.007733 0.327022 0.000000
O O10 0.660858 0.500000 0.250000
O O11 0.500000 0.582677 0.250000
O O12 0.639399 0.590202 0.356576
O O13 0.891283 0.463781 0.500000
O O14 0.805267 0.550883 0.570243
O O15 0.000000 0.500000 0.616120
O O16 0.334297 0.621985 0.000000
#
# Coordination Sequence:
#
# PCOD9495047 Si02
#       6
#    16  16  16  16  16  16
#     4  11  18  31  56  81 119 162 199 246 316 365
#     4   8  15  28  52  87 122 154 192 237 296 371
#     4   9  17  32  58  93 127 153 193 255 315 381
#     4  11  25  43  56  78 118 164 207 263 309 370
#     4  10  17  27  48  86 125 154 197 251 306 376
#     4  10  20  37  59  84 119 162 201 248 320 384
#
# _framework density 21.170218999999999
#
# number of rings (size 3 to 8) (size 9 to 14) (size 15 to 20)
#    0.000    2.167    3.333    2.500    0.000    0.667 
#    0.000    5.833   11.000    0.000    0.000    3.500 
#    0.000    0.000    0.000    0.000    0.000    0.000 
#
# Total GULP energy -267219.627194 kJ/mol
# GULP energy per Si atom -5567.075567 kJ/mol
# Density = 2.112203 g / cm^3
# Si number density = 21.170219 Si / 1000 Ang^3
#
#
#
# Elastic Constant Matrix: (Units=GPa)
#
#
# Indices 1 2 3 4 5 6 
#
# 1 64.3528 23.5268 45.3348 0.0000 0.0000 0.0000
# 2 23.5268 49.8903 8.3872 0.0000 0.0000 0.0000
# 3 45.3348 8.3872 98.1094 0.0000 0.0000 0.0000
# 4 0.0000 0.0000 0.0000 16.7401 0.0000 0.0000
# 5 0.0000 0.0000 0.0000 0.0000 21.8050 0.0000
# 6 0.0000 0.0000 0.0000 0.0000 0.0000 24.7077
#
#
#
# Elastic Compliance Matrix: (Units=1/GPa)
#
#
# Indices 1 2 3 4 5 6 
#
# 1 0.028129 -0.011241 -0.012037 0.000000 0.000000 0.000000
# 2 -0.011241 0.024829 0.003072 0.000000 0.000000 0.000000
# 3 -0.012037 0.003072 0.015492 0.000000 0.000000 0.000000
# 4 0.000000 0.000000 0.000000 0.059737 0.000000 0.000000
# 5 0.000000 0.000000 0.000000 0.000000 0.045861 0.000000
# 6 0.000000 0.000000 0.000000 0.000000 0.000000 0.040473
#
#
# Mechanical properties :
#
#
# Convention : Reuss Voigt Hill
#
# Bulk Modulus (GPa) = 35.66709 40.76112 38.21410
# Shear Modulus (GPa) = 18.91947 21.65748 20.28848
#
# Velocity S-wave (km/s) = 2.99270 3.20193 3.09908
# Velocity P-wave (km/s) = 5.36898 5.74157 5.55840
#
# Compressibility (1/GPa) = 0.02803705
#
# Stress axis : x y z
#
# Youngs Moduli (GPa) = 35.55109 40.27626 64.54901
#
# Poissons Ratio (x) = 0.45275 0.77696
# Poissons Ratio (y) = 0.39963 -0.19828
# Poissons Ratio (z) = 0.42792 -0.12372
#
# Static dielectric constant tensor:
#      x y z
#    x 1.790390 0.000000 0.000000 
#    y 0.000000 1.785730 0.000000 
#    z 0.000000 0.000000 1.855920 
# 
# From -- ./inp_files/38847.got.cif
#   From: 2010.05.17/outbox.cif.g08.bks.cpg/sg66_20_cif.got.tgz:38847.got - 2010.06.03 17:51:23.
