data_PCOD9495073
_publ_section_title
;
Structure prediction by ZEFSAII (Michael W. Deem and Ramdas Pophale) SiO2 
 PCOD9495073
Probable space group: C C C M
;
_chemical_formula_sum "Si O2"
_cell_formula_units_Z 56
_cell_length_a 27.214356
_cell_length_b 14.982459
_cell_length_c 5.507130
_cell_angle_alpha 90.000000
_cell_angle_beta 90.000000
_cell_angle_gamma 90.000000
_cell_volume 2245.466023
_symmetry_space_group_name_H-M "C C C M"
_symmetry_group_IT_number 66
_symmetry_cell_setting 'orthorhombic'
loop_
_space_group_symop_operation_xyz
x,y,z
-x,-y,z
x,-y,1/2-z
-x,y,1/2-z
-x,-y,-z
x,y,-z
-x,y,1/2+z
x,-y,1/2+z
1/2+x,1/2+y,z
1/2-x,1/2-y,z
1/2+x,1/2-y,1/2-z
1/2-x,1/2+y,1/2-z
1/2-x,1/2-y,-z
1/2+x,1/2+y,-z
1/2-x,1/2+y,1/2+z
1/2+x,1/2-y,1/2+z
loop_
_atom_site_type_symbol
_atom_site_label
_atom_site_fract_x
_atom_site_fract_y
_atom_site_fract_z
Si Si1 0.626316 0.055287 0.000000
Si Si2 0.476118 0.862539 0.000000
Si Si3 0.135098 0.811191 0.500000
Si Si4 0.109677 0.005897 0.500000
Si Si5 0.982439 0.164691 0.500000
Si Si6 0.240100 0.556720 0.000000
Si Si7 0.827695 0.812595 0.500000
O O1 0.581943 0.124630 0.000000
O O2 0.619787 0.000000 0.250000
O O3 0.682999 0.083901 0.000000
O O4 0.500000 0.898486 0.250000
O O5 0.487967 0.758079 0.000000
O O6 0.075718 0.811709 0.500000
O O7 0.157989 0.769562 0.257177
O O8 0.145847 0.919274 0.500000
O O9 0.137260 0.099120 0.500000
O O10 0.081925 0.000000 0.750000
O O11 0.000000 0.121682 0.250000
O O12 0.249057 0.500000 0.750000
O O13 0.273819 0.644604 0.000000
#
# Coordination Sequence:
#
# PCOD9495073 Si02
#       7
#     8   8   8   8   8   8   8
#     4  10  21  34  53  85 119 144 171 214 263 323
#     4  10  21  37  57  79 103 142 183 221 272 320
#     4  10  18  29  49  73  98 132 184 228 258 313
#     4   8  14  23  39  62  90 122 156 195 248 300
#     4  10  21  37  54  74  97 133 187 237 275 311
#     4  10  18  30  48  77 116 149 174 204 258 328
#     4  10  17  28  48  74 105 140 170 211 269 322
#
# _framework density 24.939145
#
# number of rings (size 3 to 8) (size 9 to 14) (size 15 to 20)
#    0.000    2.286    0.000    5.143    0.000    1.714 
#    0.000    0.000    0.000   23.143    0.000   24.000 
#    0.000    0.000    0.000    0.000    0.000    0.000 
#
# Total GULP energy -156435.913915 kJ/mol
# GULP energy per Si atom -5586.996926 kJ/mol
# Density = 2.488238 g / cm^3
# Si number density = 24.939145 Si / 1000 Ang^3
#
#
#
# Elastic Constant Matrix: (Units=GPa)
#
#
# Indices 1 2 3 4 5 6 
#
# 1 169.0016 18.0933 56.9027 0.0000 0.0000 0.0000
# 2 18.0933 42.9005 8.3228 0.0000 0.0000 0.0000
# 3 56.9027 8.3228 307.6855 0.0000 0.0000 0.0000
# 4 0.0000 0.0000 0.0000 2.9112 0.0000 0.0000
# 5 0.0000 0.0000 0.0000 0.0000 -32.6509 0.0000
# 6 0.0000 0.0000 0.0000 0.0000 0.0000 18.2603
#
#
#
# Elastic Compliance Matrix: (Units=1/GPa)
#
#
# Indices 1 2 3 4 5 6 
#
# 1 0.006576 -0.002551 -0.001147 0.000000 0.000000 0.000000
# 2 -0.002551 0.024422 -0.000189 0.000000 0.000000 0.000000
# 3 -0.001147 -0.000189 0.003467 0.000000 0.000000 0.000000
# 4 0.000000 0.000000 0.000000 0.343501 0.000000 0.000000
# 5 0.000000 0.000000 0.000000 0.000000 -0.030627 0.000000
# 6 0.000000 0.000000 0.000000 0.000000 0.000000 0.054764
#
#
# Mechanical properties :
#
#
# Convention : Reuss Voigt Hill
#
# Bulk Modulus (GPa) = 37.46457 76.24723 56.85590
# Shear Modulus (GPa) = 11.93957 26.78869 19.36413
#
# Velocity S-wave (km/s) = 2.19040 3.28100 2.78952
# Velocity P-wave (km/s) = 4.63165 6.70768 5.76390
#
# Compressibility (1/GPa) = 0.02669188
#
# Stress axis : x y z
#
# Youngs Moduli (GPa) = 152.05665 40.94617 288.40486
#
# Poissons Ratio (x) = 0.10446 0.33087
# Poissons Ratio (y) = 0.38791 0.05446
# Poissons Ratio (z) = 0.17445 0.00773
#
# Static dielectric constant tensor:
#      x y z
#    x 1.914280 0.000000 0.000000 
#    y 0.000000 2.031110 0.000000 
#    z 0.000000 0.000000 2.020920 
# 
# From -- ./inp_files/1415.got.cif
#   From: 2010.05.17/outbox.cif.g08.bks.cpg/sg66_1_cif.got.tgz:1415.got - 2010.06.03 17:51:23.
