data_PCOD9495699
_publ_section_title
;
Structure prediction by ZEFSAII (Michael W. Deem and Ramdas Pophale) SiO2 
 PCOD9495699
Probable space group: C C C M
;
_chemical_formula_sum "Si O2"
_cell_formula_units_Z 72
_cell_length_a 7.082238
_cell_length_b 25.243306
_cell_length_c 14.809857
_cell_angle_alpha 90.000000
_cell_angle_beta 90.000000
_cell_angle_gamma 90.000000
_cell_volume 2647.692920
_symmetry_space_group_name_H-M "C C C M"
_symmetry_group_IT_number 66
_symmetry_cell_setting 'orthorhombic'
loop_
_space_group_symop_operation_xyz
x,y,z
-x,-y,z
x,-y,1/2-z
-x,y,1/2-z
-x,-y,-z
x,y,-z
-x,y,1/2+z
x,-y,1/2+z
1/2+x,1/2+y,z
1/2-x,1/2-y,z
1/2+x,1/2-y,1/2-z
1/2-x,1/2+y,1/2-z
1/2-x,1/2-y,-z
1/2+x,1/2+y,-z
1/2-x,1/2+y,1/2+z
1/2+x,1/2-y,1/2+z
loop_
_atom_site_type_symbol
_atom_site_label
_atom_site_fract_x
_atom_site_fract_y
_atom_site_fract_z
Si Si1 0.544372 0.559606 0.394511
Si Si2 0.331654 0.865615 0.500000
Si Si3 0.440847 0.325523 0.605989
Si Si4 0.978759 0.562310 0.353837
Si Si5 0.009096 0.706034 0.145813
O O1 0.500000 0.500000 0.357408
O O2 0.486376 0.558518 0.500000
O O3 0.489307 0.617927 0.354660
O O4 0.768166 0.568727 0.390486
O O5 0.375563 0.910875 0.420767
O O6 0.360755 0.820281 0.420263
O O7 0.497142 0.331288 0.500000
O O8 0.213621 0.315328 0.610642
O O9 0.509094 0.269525 0.642767
O O10 0.000000 0.500000 0.353808
O O11 0.000000 0.579598 0.250000
O O12 0.000000 0.691510 0.250000
#
# Coordination Sequence:
#
# PCOD9495699 Si02
#       5
#    16   8  16  16  16
#     4  10  20  38  69  99 130 171 218 275 335 389
#     4  12  19  37  65  93 130 164 213 275 335 388
#     4  10  18  38  63  92 126 171 217 263 329 397
#     4  11  23  40  63 100 131 172 223 269 329 396
#     4  11  20  33  63  99 124 163 216 274 326 390
#
# _framework density 27.193487000000001
#
# number of rings (size 3 to 8) (size 9 to 14) (size 15 to 20)
#    0.000    1.333    5.556    1.667    0.000    0.000 
#    0.000    6.667    0.000    2.667    0.000    0.000 
#    0.000    0.000    0.000    0.000    0.000    0.000 
#
# Total GULP energy -200478.123683 kJ/mol
# GULP energy per Si atom -5568.836769 kJ/mol
# Density = 2.713159 g / cm^3
# Si number density = 27.193487 Si / 1000 Ang^3
#
#
#
# Elastic Constant Matrix: (Units=GPa)
#
#
# Indices 1 2 3 4 5 6 
#
# 1 76.5320 9.0653 -12.9848 0.0000 0.0000 0.0000
# 2 9.0653 336.1540 41.4509 0.0000 0.0000 0.0000
# 3 -12.9848 41.4509 154.5404 0.0000 0.0000 0.0000
# 4 0.0000 0.0000 0.0000-3463.6913 0.0000 0.0000
# 5 0.0000 0.0000 0.0000 0.0000 -84.3884 0.0000
# 6 0.0000 0.0000 0.0000 0.0000 0.0000 128.2660
#
#
#
# Elastic Compliance Matrix: (Units=1/GPa)
#
#
# Indices 1 2 3 4 5 6 
#
# 1 0.013341 -0.000515 0.001259 0.000000 0.000000 0.000000
# 2 -0.000515 0.003096 -0.000874 0.000000 0.000000 0.000000
# 3 0.001259 -0.000874 0.006811 0.000000 0.000000 0.000000
# 4 0.000000 0.000000 0.000000 -0.000289 0.000000 0.000000
# 5 0.000000 0.000000 0.000000 0.000000 -0.011850 0.000000
# 6 0.000000 0.000000 0.000000 0.000000 0.000000 0.007796
#
#
# Mechanical properties :
#
#
# Convention : Reuss Voigt Hill
#
# Bulk Modulus (GPa) = 43.49912 71.36547 57.43229
# Shear Modulus (GPa) = 186.36818 -648.64974 -231.14078
#
# Velocity S-wave (km/s) = 8.28752 -15.46121 -9.22947
# Velocity P-wave (km/s) = 10.37343 17.10063 9.61310
#
# Compressibility (1/GPa) = 0.02298897
#
# Stress axis : x y z
#
# Youngs Moduli (GPa) = 74.95656 322.94894 146.82210
#
# Poissons Ratio (x) = 0.16633 -0.18486
# Poissons Ratio (y) = 0.03861 0.12829
# Poissons Ratio (z) = -0.09438 0.28220
#
# Static dielectric constant tensor:
#      x y z
#    x 2.369200 0.000000 0.000000 
#    y 0.000000 0.876170 0.000000 
#    z 0.000000 0.000000 1.941500 
# 
# From -- ./inp_files/24493.got.cif
#   From: 2010.05.17/outbox.cif.g08.bks.cpg/sg66_13_cif.got.tgz:24493.got - 2010.06.03 17:51:23.
