data_PCOD9495296
_publ_section_title
;
Structure prediction by ZEFSAII (Michael W. Deem and Ramdas Pophale) SiO2 
 PCOD9495296
Probable space group: C C C M
;
_chemical_formula_sum "Si O2"
_cell_formula_units_Z 80
_cell_length_a 28.688472
_cell_length_b 8.224717
_cell_length_c 17.718315
_cell_angle_alpha 90.000000
_cell_angle_beta 90.000000
_cell_angle_gamma 90.000000
_cell_volume 4180.717279
_symmetry_space_group_name_H-M "C C C M"
_symmetry_group_IT_number 66
_symmetry_cell_setting 'orthorhombic'
loop_
_space_group_symop_operation_xyz
x,y,z
-x,-y,z
x,-y,1/2-z
-x,y,1/2-z
-x,-y,-z
x,y,-z
-x,y,1/2+z
x,-y,1/2+z
1/2+x,1/2+y,z
1/2-x,1/2-y,z
1/2+x,1/2-y,1/2-z
1/2-x,1/2+y,1/2-z
1/2-x,1/2-y,-z
1/2+x,1/2+y,-z
1/2-x,1/2+y,1/2+z
1/2+x,1/2-y,1/2+z
loop_
_atom_site_type_symbol
_atom_site_label
_atom_site_fract_x
_atom_site_fract_y
_atom_site_fract_z
Si Si1 0.603963 0.161664 0.792845
Si Si2 0.550788 0.456275 0.839354
Si Si3 0.170275 0.505939 0.085188
Si Si4 0.761683 0.058960 0.334810
Si Si5 0.361026 0.339895 0.856236
O O1 0.565186 0.267761 0.835468
O O2 0.641547 0.105439 0.853449
O O3 0.629165 0.269572 0.728202
O O4 0.585816 0.000000 0.750000
O O5 0.500000 0.500000 0.870420
O O6 0.549785 0.500000 0.750000
O O7 0.592335 0.561539 0.876073
O O8 0.224480 0.516678 0.108288
O O9 0.152399 0.318578 0.095027
O O10 0.162660 0.558840 0.000000
O O11 0.750000 0.250000 0.335475
O O12 0.815941 0.044286 0.355086
O O13 0.753234 0.000000 0.250000
#
# Coordination Sequence:
#
# PCOD9495296 Si02
#       5
#    16  16  16  16  16
#     4   9  17  33  54  78 106 136 169 210 262 310
#     4   9  17  32  55  81 103 126 167 218 259 299
#     4  10  20  33  49  73 104 136 173 216 258 301
#     4  10  18  29  50  74 100 135 170 206 252 308
#     4   9  18  32  53  75 101 136 170 207 253 312
#
# _framework density 19.135473999999999
#
# number of rings (size 3 to 8) (size 9 to 14) (size 15 to 20)
#    0.000    2.600    0.000    4.800    0.000    3.600 
#    0.000   18.000    0.000   17.400    0.000    0.000 
#    0.000    0.000    0.000    0.000    0.000    0.000 
#
# Total GULP energy -223026.905765 kJ/mol
# GULP energy per Si atom -5575.672644 kJ/mol
# Density = 1.909192 g / cm^3
# Si number density = 19.135474 Si / 1000 Ang^3
#
#
#
# Elastic Constant Matrix: (Units=GPa)
#
#
# Indices 1 2 3 4 5 6 
#
# 1 155.8158 55.8090 18.5389 0.0000 0.0000 0.0000
# 2 55.8090 63.8658 9.7064 0.0000 0.0000 0.0000
# 3 18.5389 9.7064 45.8102 0.0000 0.0000 0.0000
# 4 0.0000 0.0000 0.0000 4.0447 0.0000 0.0000
# 5 0.0000 0.0000 0.0000 0.0000 -8.7199 0.0000
# 6 0.0000 0.0000 0.0000 0.0000 0.0000 19.0594
#
#
#
# Elastic Compliance Matrix: (Units=1/GPa)
#
#
# Indices 1 2 3 4 5 6 
#
# 1 0.009545 -0.008012 -0.002165 0.000000 0.000000 0.000000
# 2 -0.008012 0.022904 -0.001611 0.000000 0.000000 0.000000
# 3 -0.002165 -0.001611 0.023047 0.000000 0.000000 0.000000
# 4 0.000000 0.000000 0.000000 0.247238 0.000000 0.000000
# 5 0.000000 0.000000 0.000000 0.000000 -0.114681 0.000000
# 6 0.000000 0.000000 0.000000 0.000000 0.000000 0.052468
#
#
# Mechanical properties :
#
#
# Convention : Reuss Voigt Hill
#
# Bulk Modulus (GPa) = 31.32815 48.17784 39.75299
# Shear Modulus (GPa) = 18.19930 14.97267 16.58599
#
# Velocity S-wave (km/s) = 3.08730 2.80028 2.94728
# Velocity P-wave (km/s) = 5.39591 5.97388 5.69224
#
# Compressibility (1/GPa) = 0.03192018
#
# Stress axis : x y z
#
# Youngs Moduli (GPa) = 104.76582 43.66085 43.39012
#
# Poissons Ratio (x) = 0.34981 0.09395
# Poissons Ratio (y) = 0.83937 0.06988
# Poissons Ratio (z) = 0.22684 0.07032
#
# Static dielectric constant tensor:
#      x y z
#    x 1.693790 0.000000 0.000000 
#    y 0.000000 1.744040 0.000000 
#    z 0.000000 0.000000 1.626140 
# 
# From -- ./inp_files/36986.got.cif
#   From: 2010.05.17/outbox.cif.g08.bks.cpg/sg66_19_cif.got.tgz:36986.got - 2010.06.03 17:51:23.
