data_PCOD9495502
_publ_section_title
;
Structure prediction by ZEFSAII (Michael W. Deem and Ramdas Pophale) SiO2 
 PCOD9495502
Probable space group: C C C M
;
_chemical_formula_sum "Si O2"
_cell_formula_units_Z 104
_cell_length_a 13.432335
_cell_length_b 20.509963
_cell_length_c 19.283188
_cell_angle_alpha 90.000000
_cell_angle_beta 90.000000
_cell_angle_gamma 90.000000
_cell_volume 5312.454541
_symmetry_space_group_name_H-M "C C C M"
_symmetry_group_IT_number 66
_symmetry_cell_setting 'orthorhombic'
loop_
_space_group_symop_operation_xyz
x,y,z
-x,-y,z
x,-y,1/2-z
-x,y,1/2-z
-x,-y,-z
x,y,-z
-x,y,1/2+z
x,-y,1/2+z
1/2+x,1/2+y,z
1/2-x,1/2-y,z
1/2+x,1/2-y,1/2-z
1/2-x,1/2+y,1/2-z
1/2-x,1/2-y,-z
1/2+x,1/2+y,-z
1/2-x,1/2+y,1/2+z
1/2+x,1/2-y,1/2+z
loop_
_atom_site_type_symbol
_atom_site_label
_atom_site_fract_x
_atom_site_fract_y
_atom_site_fract_z
Si Si1 0.771051 0.500000 0.750000
Si Si2 0.835664 0.110385 0.422738
Si Si3 0.389126 0.131887 0.719953
Si Si4 0.549465 0.347403 0.917092
Si Si5 0.453347 0.198105 0.582800
Si Si6 0.611241 0.517362 0.366093
Si Si7 0.176002 0.690719 0.644579
O O1 0.835958 0.563421 0.733606
O O2 0.694741 0.496581 0.686962
O O3 0.819931 0.136396 0.500000
O O4 0.737261 0.127530 0.380636
O O5 0.934859 0.144380 0.392044
O O6 0.866342 0.034604 0.426264
O O7 0.500000 0.125356 0.750000
O O8 0.396449 0.153631 0.639565
O O9 0.340929 0.184388 0.772793
O O10 0.580889 0.273127 0.905632
O O11 0.611789 0.406400 0.884363
O O12 0.547574 0.358448 0.000000
O O13 0.442477 0.183126 0.500000
O O14 0.570441 0.195066 0.604910
O O15 0.500000 0.500000 0.340988
O O16 0.250000 0.750000 0.628166
#
# Coordination Sequence:
#
# PCOD9495502 Si02
#       7
#     8  16  16  16  16  16  16
#     4  12  22  42  64  80 114 166 218 264 324 368
#     4  10  18  32  56  90 126 161 200 250 309 375
#     4  10  24  42  63  87 122 166 213 268 321 376
#     4   9  18  34  58  89 131 167 193 243 319 390
#     4  10  21  39  62  93 130 170 212 265 322 384
#     4  10  21  36  57  91 124 165 206 256 312 386
#     4  11  20  35  61  97 126 162 213 265 316 375
#
# _framework density 19.576637999999999
#
# number of rings (size 3 to 8) (size 9 to 14) (size 15 to 20)
#    0.000    1.846    3.077    1.385    0.000    3.692 
#    0.000    3.077    0.000    4.154    0.000    0.000 
#    0.000    0.000    0.000    0.000    0.000    0.000 
#
# Total GULP energy -289678.318421 kJ/mol
# GULP energy per Si atom -5570.736893 kJ/mol
# Density = 1.953208 g / cm^3
# Si number density = 19.576638 Si / 1000 Ang^3
#
#
#
# Elastic Constant Matrix: (Units=GPa)
#
#
# Indices 1 2 3 4 5 6 
#
# 1 53.0785 44.1094 30.4350 0.0000 0.0000 0.0000
# 2 44.1094 118.4880 50.3688 0.0000 0.0000 0.0000
# 3 30.4350 50.3688 113.8504 0.0000 0.0000 0.0000
# 4 0.0000 0.0000 0.0000 26.1329 0.0000 0.0000
# 5 0.0000 0.0000 0.0000 0.0000 24.5694 0.0000
# 6 0.0000 0.0000 0.0000 0.0000 0.0000 22.9217
#
#
#
# Elastic Compliance Matrix: (Units=1/GPa)
#
#
# Indices 1 2 3 4 5 6 
#
# 1 0.028424 -0.009054 -0.003593 0.000000 0.000000 0.000000
# 2 -0.009054 0.013279 -0.003454 0.000000 0.000000 0.000000
# 3 -0.003593 -0.003454 0.011272 0.000000 0.000000 0.000000
# 4 0.000000 0.000000 0.000000 0.038266 0.000000 0.000000
# 5 0.000000 0.000000 0.000000 0.000000 0.040701 0.000000
# 6 0.000000 0.000000 0.000000 0.000000 0.000000 0.043627
#
#
# Mechanical properties :
#
#
# Convention : Reuss Voigt Hill
#
# Bulk Modulus (GPa) = 48.14034 59.47148 53.80591
# Shear Modulus (GPa) = 23.28878 25.42505 24.35691
#
# Velocity S-wave (km/s) = 3.45283 3.60772 3.53112
# Velocity P-wave (km/s) = 6.36711 6.91368 6.64602
#
# Compressibility (1/GPa) = 0.02077260
#
# Stress axis : x y z
#
# Youngs Moduli (GPa) = 35.18100 75.30875 88.71460
#
# Poissons Ratio (x) = 0.68186 0.31874
# Poissons Ratio (y) = 0.31854 0.30644
# Poissons Ratio (z) = 0.12640 0.26013
#
# Static dielectric constant tensor:
#      x y z
#    x 1.692920 0.000000 0.000000 
#    y 0.000000 1.741190 0.000000 
#    z 0.000000 0.000000 1.716350 
# 
# From -- ./inp_files/40551.got.cif
#   From: 2010.05.17/outbox.cif.g08.bks.cpg/sg66_21_cif.got.tgz:40551.got - 2010.06.03 17:51:23.
