data_PCOD9495158
_publ_section_title
;
Structure prediction by ZEFSAII (Michael W. Deem and Ramdas Pophale) SiO2 
 PCOD9495158
Probable space group: C C C M
;
_chemical_formula_sum "Si O2"
_cell_formula_units_Z 88
_cell_length_a 18.969030
_cell_length_b 16.249661
_cell_length_c 15.347704
_cell_angle_alpha 90.000000
_cell_angle_beta 90.000000
_cell_angle_gamma 90.000000
_cell_volume 4730.780993
_symmetry_space_group_name_H-M "C C C M"
_symmetry_group_IT_number 66
_symmetry_cell_setting 'orthorhombic'
loop_
_space_group_symop_operation_xyz
x,y,z
-x,-y,z
x,-y,1/2-z
-x,y,1/2-z
-x,-y,-z
x,y,-z
-x,y,1/2+z
x,-y,1/2+z
1/2+x,1/2+y,z
1/2-x,1/2-y,z
1/2+x,1/2-y,1/2-z
1/2-x,1/2+y,1/2-z
1/2-x,1/2-y,-z
1/2+x,1/2+y,-z
1/2-x,1/2+y,1/2+z
1/2+x,1/2-y,1/2+z
loop_
_atom_site_type_symbol
_atom_site_label
_atom_site_fract_x
_atom_site_fract_y
_atom_site_fract_z
Si Si1 0.000000 0.635680 0.250000
Si Si2 0.092629 0.447259 0.599077
Si Si3 0.218913 0.329802 0.641613
Si Si4 0.131602 0.262375 0.807957
Si Si5 0.807173 0.404352 0.599360
Si Si6 0.178763 0.912411 0.268201
O O1 0.959792 0.583489 0.325165
O O2 0.943727 0.696091 0.204596
O O3 0.063707 0.447085 0.500000
O O4 0.160337 0.386510 0.598534
O O5 0.126400 0.536284 0.620648
O O6 0.250000 0.250000 0.594412
O O7 0.178511 0.291984 0.725695
O O8 0.283313 0.383102 0.679076
O O9 0.169347 0.309846 0.887034
O O10 0.133911 0.163965 0.805291
O O11 0.787576 0.420564 0.500000
O O12 0.743600 0.424097 0.664372
O O13 0.143290 0.000000 0.250000
#
# Coordination Sequence:
#
# PCOD9495158 Si02
#       6
#     8  16  16  16  16  16
#     4  10  22  39  53  72 118 154 191 232 274 323
#     4  10  20  33  52  79 109 149 190 224 275 344
#     4   8  15  29  49  74 101 130 175 229 280 323
#     4   9  20  32  51  75 102 149 186 222 276 335
#     4  10  20  33  52  83 114 139 180 234 294 352
#     4  10  17  32  55  77 105 140 182 228 285 339
#
# _framework density 18.601579999999998
#
# number of rings (size 3 to 8) (size 9 to 14) (size 15 to 20)
#    0.000    2.545    1.818    1.636    0.000    4.000 
#    0.000    2.273    0.000    0.000    0.000    0.000 
#    0.000    8.000    0.000    0.000    0.000    0.000 
#
# Total GULP energy -245272.300918 kJ/mol
# GULP energy per Si atom -5574.370475 kJ/mol
# Density = 1.855924 g / cm^3
# Si number density = 18.601580 Si / 1000 Ang^3
#
#
#
# Elastic Constant Matrix: (Units=GPa)
#
#
# Indices 1 2 3 4 5 6 
#
# 1 51.1492 33.4815 24.6313 0.0000 0.0000 0.0000
# 2 33.4815 158.5042 31.3685 0.0000 0.0000 0.0000
# 3 24.6313 31.3685 81.6556 0.0000 0.0000 0.0000
# 4 0.0000 0.0000 0.0000 11.5033 0.0000 0.0000
# 5 0.0000 0.0000 0.0000 0.0000 291.5981 0.0000
# 6 0.0000 0.0000 0.0000 0.0000 0.0000 30.7634
#
#
#
# Elastic Compliance Matrix: (Units=1/GPa)
#
#
# Indices 1 2 3 4 5 6 
#
# 1 0.025138 -0.004123 -0.005999 0.000000 0.000000 0.000000
# 2 -0.004123 0.007504 -0.001639 0.000000 0.000000 0.000000
# 3 -0.005999 -0.001639 0.014686 0.000000 0.000000 0.000000
# 4 0.000000 0.000000 0.000000 0.086932 0.000000 0.000000
# 5 0.000000 0.000000 0.000000 0.000000 0.003429 0.000000
# 6 0.000000 0.000000 0.000000 0.000000 0.000000 0.032506
#
#
# Mechanical properties :
#
#
# Convention : Reuss Voigt Hill
#
# Bulk Modulus (GPa) = 42.00583 52.25239 47.12911
# Shear Modulus (GPa) = 24.79503 80.22815 52.51159
#
# Velocity S-wave (km/s) = 3.65492 6.57445 5.31892
# Velocity P-wave (km/s) = 6.35942 9.26188 7.94433
#
# Compressibility (1/GPa) = 0.02380622
#
# Stress axis : x y z
#
# Youngs Moduli (GPa) = 39.77996 133.25773 68.09268
#
# Poissons Ratio (x) = 0.54940 0.40850
# Poissons Ratio (y) = 0.16401 0.11161
# Poissons Ratio (z) = 0.23864 0.21843
#
# Static dielectric constant tensor:
#      x y z
#    x 1.657140 0.000000 0.000000 
#    y 0.000000 1.703510 0.000000 
#    z 0.000000 0.000000 1.653530 
# 
# From -- ./inp_files/41546.got.cif
#   From: 2010.05.17/outbox.cif.g08.bks.cpg/sg66_21_cif.got.tgz:41546.got - 2010.06.03 17:51:23.
