data_PCOD9495345
_publ_section_title
;
Structure prediction by ZEFSAII (Michael W. Deem and Ramdas Pophale) SiO2 
 PCOD9495345
Probable space group: C C C M
;
_chemical_formula_sum "Si O2"
_cell_formula_units_Z 96
_cell_length_a 21.154895
_cell_length_b 17.910922
_cell_length_c 13.786594
_cell_angle_alpha 90.000000
_cell_angle_beta 90.000000
_cell_angle_gamma 90.000000
_cell_volume 5223.791122
_symmetry_space_group_name_H-M "C C C M"
_symmetry_group_IT_number 66
_symmetry_cell_setting 'orthorhombic'
loop_
_space_group_symop_operation_xyz
x,y,z
-x,-y,z
x,-y,1/2-z
-x,y,1/2-z
-x,-y,-z
x,y,-z
-x,y,1/2+z
x,-y,1/2+z
1/2+x,1/2+y,z
1/2-x,1/2-y,z
1/2+x,1/2-y,1/2-z
1/2-x,1/2+y,1/2-z
1/2-x,1/2-y,-z
1/2+x,1/2+y,-z
1/2-x,1/2+y,1/2+z
1/2+x,1/2-y,1/2+z
loop_
_atom_site_type_symbol
_atom_site_label
_atom_site_fract_x
_atom_site_fract_y
_atom_site_fract_z
Si Si1 0.296465 0.805057 0.702488
Si Si2 0.152757 0.213438 0.615346
Si Si3 0.278823 0.428042 0.300621
Si Si4 0.141976 0.461178 0.384091
Si Si5 0.414113 0.120111 0.116419
Si Si6 0.551762 0.173596 0.883304
O O1 0.250000 0.750000 0.646744
O O2 0.311288 0.766725 0.807396
O O3 0.255211 0.878368 0.718932
O O4 0.360602 0.822858 0.649295
O O5 0.166755 0.226550 0.500000
O O6 0.174902 0.129298 0.642481
O O7 0.081067 0.243802 0.633339
O O8 0.309558 0.500000 0.250000
O O9 0.216149 0.454741 0.359060
O O10 0.137928 0.460423 0.500000
O O11 0.108433 0.537622 0.350704
O O12 0.102064 0.389259 0.349149
O O13 0.482102 0.150153 0.149688
O O14 0.416182 0.116272 0.000000
O O15 0.549964 0.167170 0.000000
#
# Coordination Sequence:
#
# PCOD9495345 Si02
#       6
#    16  16  16  16  16  16
#     4  10  21  34  52  78 108 142 188 234 276 335
#     4  10  21  36  56  80 109 150 196 242 283 325
#     4  11  20  33  50  77 113 143 187 241 284 332
#     4  10  18  30  50  76 111 153 186 221 273 336
#     4  10  20  34  51  76 116 154 183 222 277 344
#     4   9  18  32  52  80 111 149 194 230 269 330
#
# _framework density 18.377458000000001
#
# number of rings (size 3 to 8) (size 9 to 14) (size 15 to 20)
#    0.000    2.000    3.333    1.000    0.000    6.000 
#    0.000    0.000    0.000    0.000    0.000    9.333 
#    0.000   22.667    0.000    0.000    0.000    0.000 
#
# Total GULP energy -267296.729695 kJ/mol
# GULP energy per Si atom -5568.681869 kJ/mol
# Density = 1.833563 g / cm^3
# Si number density = 18.377458 Si / 1000 Ang^3
#
#
#
# Elastic Constant Matrix: (Units=GPa)
#
#
# Indices 1 2 3 4 5 6 
#
# 1 121.9437 78.2082 30.5739 0.0000 0.0000 0.0000
# 2 78.2082 127.4458 35.4896 0.0000 0.0000 0.0000
# 3 30.5739 35.4896 41.7161 0.0000 0.0000 0.0000
# 4 0.0000 0.0000 0.0000 30.5193 0.0000 0.0000
# 5 0.0000 0.0000 0.0000 0.0000 16.3701 0.0000
# 6 0.0000 0.0000 0.0000 0.0000 0.0000 33.6259
#
#
#
# Elastic Compliance Matrix: (Units=1/GPa)
#
#
# Indices 1 2 3 4 5 6 
#
# 1 0.013982 -0.007504 -0.003863 0.000000 0.000000 0.000000
# 2 -0.007504 0.014310 -0.006674 0.000000 0.000000 0.000000
# 3 -0.003863 -0.006674 0.032481 0.000000 0.000000 0.000000
# 4 0.000000 0.000000 0.000000 0.032766 0.000000 0.000000
# 5 0.000000 0.000000 0.000000 0.000000 0.061087 0.000000
# 6 0.000000 0.000000 0.000000 0.000000 0.000000 0.029739
#
#
# Mechanical properties :
#
#
# Convention : Reuss Voigt Hill
#
# Bulk Modulus (GPa) = 40.50303 64.40544 52.45424
# Shear Modulus (GPa) = 21.86474 25.89198 23.87836
#
# Velocity S-wave (km/s) = 3.45303 3.75760 3.60853
# Velocity P-wave (km/s) = 6.16322 7.34494 6.77987
#
# Compressibility (1/GPa) = 0.02468951
#
# Stress axis : x y z
#
# Youngs Moduli (GPa) = 71.52044 69.88032 30.78724
#
# Poissons Ratio (x) = 0.52441 0.11894
# Poissons Ratio (y) = 0.53672 0.20548
# Poissons Ratio (z) = 0.27630 0.46640
#
# Static dielectric constant tensor:
#      x y z
#    x 1.661140 0.000000 0.000000 
#    y 0.000000 1.677670 0.000000 
#    z 0.000000 0.000000 1.694650 
# 
# From -- ./inp_files/31171.got.cif
#   From: 2010.05.17/outbox.cif.g08.bks.cpg/sg66_16_cif.got.tgz:31171.got - 2010.06.03 17:51:23.
