data_PCOD9495939
_publ_section_title
;
Structure prediction by ZEFSAII (Michael W. Deem and Ramdas Pophale) SiO2 
 PCOD9495939
Probable space group: C C C M
;
_chemical_formula_sum "Si O2"
_cell_formula_units_Z 112
_cell_length_a 13.512235
_cell_length_b 28.335798
_cell_length_c 14.272869
_cell_angle_alpha 90.000000
_cell_angle_beta 90.000000
_cell_angle_gamma 90.000000
_cell_volume 5464.795533
_symmetry_space_group_name_H-M "C C C M"
_symmetry_group_IT_number 66
_symmetry_cell_setting 'orthorhombic'
loop_
_space_group_symop_operation_xyz
x,y,z
-x,-y,z
x,-y,1/2-z
-x,y,1/2-z
-x,-y,-z
x,y,-z
-x,y,1/2+z
x,-y,1/2+z
1/2+x,1/2+y,z
1/2-x,1/2-y,z
1/2+x,1/2-y,1/2-z
1/2-x,1/2+y,1/2-z
1/2-x,1/2-y,-z
1/2+x,1/2+y,-z
1/2-x,1/2+y,1/2+z
1/2+x,1/2-y,1/2+z
loop_
_atom_site_type_symbol
_atom_site_label
_atom_site_fract_x
_atom_site_fract_y
_atom_site_fract_z
Si Si1 0.631807 0.284578 0.391157
Si Si2 0.617333 0.786405 0.739830
Si Si3 0.780259 0.363869 0.889752
Si Si4 0.103622 0.798981 0.105643
Si Si5 0.159952 0.888270 0.611602
Si Si6 0.262659 0.552633 0.772528
Si Si7 0.959105 0.053544 0.893457
O O1 0.654413 0.279832 0.500000
O O2 0.649198 0.234688 0.340520
O O3 0.514378 0.298216 0.384197
O O4 0.675254 0.334262 0.355916
O O5 0.500000 0.795034 0.750000
O O6 0.663588 0.828461 0.680304
O O7 0.637723 0.739730 0.678360
O O8 0.664511 0.347150 0.881728
O O9 0.794828 0.415975 0.848596
O O10 0.806879 0.359484 0.000000
O O11 0.126183 0.782991 0.000000
O O12 0.178010 0.890728 0.500000
O O13 0.230283 0.919949 0.674685
O O14 0.048726 0.909711 0.624204
O O15 0.229280 0.500000 0.750000
O O16 0.372937 0.552243 0.817318
O O17 0.921424 0.063043 0.000000
O O18 0.000000 0.000000 0.894340
#
# Coordination Sequence:
#
# PCOD9495939 Si02
#       7
#    16  16  16  16  16  16  16
#     4   9  18  33  52  77 110 149 189 228 272 332
#     4  10  20  35  57  83 109 143 184 231 283 339
#     4  11  23  38  59  88 118 147 185 235 290 343
#     4   9  17  31  53  83 116 145 177 223 279 331
#     4  10  20  32  48  73 112 158 200 235 270 329
#     4  12  23  34  52  77 111 153 195 239 288 339
#     4  10  19  32  50  76 112 157 204 242 277 326
#
# _framework density 20.494819
#
# number of rings (size 3 to 8) (size 9 to 14) (size 15 to 20)
#    0.000    1.857    1.429    3.429    0.000    6.857 
#    0.000    0.714    0.000    3.857    0.000    1.000 
#    0.000    0.000    0.000    0.000    0.000    0.000 
#
# Total GULP energy -312568.183893 kJ/mol
# GULP energy per Si atom -5581.574712 kJ/mol
# Density = 2.044817 g / cm^3
# Si number density = 20.494819 Si / 1000 Ang^3
#
#
#
# Elastic Constant Matrix: (Units=GPa)
#
#
# Indices 1 2 3 4 5 6 
#
# 1 41.6564 23.4536 8.0993 0.0000 0.0000 0.0000
# 2 23.4536 154.2309 61.7318 0.0000 0.0000 0.0000
# 3 8.0993 61.7318 102.9021 0.0000 0.0000 0.0000
# 4 0.0000 0.0000 0.0000 27.2736 0.0000 0.0000
# 5 0.0000 0.0000 0.0000 0.0000 15.5850 0.0000
# 6 0.0000 0.0000 0.0000 0.0000 0.0000 22.2579
#
#
#
# Elastic Compliance Matrix: (Units=1/GPa)
#
#
# Indices 1 2 3 4 5 6 
#
# 1 0.026268 -0.004168 0.000433 0.000000 0.000000 0.000000
# 2 -0.004168 0.009194 -0.005187 0.000000 0.000000 0.000000
# 3 0.000433 -0.005187 0.012796 0.000000 0.000000 0.000000
# 4 0.000000 0.000000 0.000000 0.036665 0.000000 0.000000
# 5 0.000000 0.000000 0.000000 0.000000 0.064164 0.000000
# 6 0.000000 0.000000 0.000000 0.000000 0.000000 0.044928
#
#
# Mechanical properties :
#
#
# Convention : Reuss Voigt Hill
#
# Bulk Modulus (GPa) = 32.88051 53.92876 43.40464
# Shear Modulus (GPa) = 22.52267 26.72361 24.62314
#
# Velocity S-wave (km/s) = 3.31863 3.61490 3.46993
# Velocity P-wave (km/s) = 5.54640 6.61769 6.10559
#
# Compressibility (1/GPa) = 0.03041315
#
# Stress axis : x y z
#
# Youngs Moduli (GPa) = 38.06864 108.76810 78.15007
#
# Poissons Ratio (x) = 0.45332 -0.03382
# Poissons Ratio (y) = 0.15866 0.40540
# Poissons Ratio (z) = -0.01647 0.56423
#
# Static dielectric constant tensor:
#      x y z
#    x 1.780260 0.000000 0.000000 
#    y 0.000000 1.742060 0.000000 
#    z 0.000000 0.000000 1.768060 
# 
# From -- ./inp_files/28866.got.cif
#   From: 2010.05.17/outbox.cif.g08.bks.cpg/sg66_15_cif.got.tgz:28866.got - 2010.06.03 17:51:23.
