data_PCOD9495464
_publ_section_title
;
Structure prediction by ZEFSAII (Michael W. Deem and Ramdas Pophale) SiO2 
 PCOD9495464
Probable space group: C C C M
;
_chemical_formula_sum "Si O2"
_cell_formula_units_Z 80
_cell_length_a 16.398926
_cell_length_b 9.761217
_cell_length_c 25.333281
_cell_angle_alpha 90.000000
_cell_angle_beta 90.000000
_cell_angle_gamma 90.000000
_cell_volume 4055.186329
_symmetry_space_group_name_H-M "C C C M"
_symmetry_group_IT_number 66
_symmetry_cell_setting 'orthorhombic'
loop_
_space_group_symop_operation_xyz
x,y,z
-x,-y,z
x,-y,1/2-z
-x,y,1/2-z
-x,-y,-z
x,y,-z
-x,y,1/2+z
x,-y,1/2+z
1/2+x,1/2+y,z
1/2-x,1/2-y,z
1/2+x,1/2-y,1/2-z
1/2-x,1/2+y,1/2-z
1/2-x,1/2-y,-z
1/2+x,1/2+y,-z
1/2-x,1/2+y,1/2+z
1/2+x,1/2-y,1/2+z
loop_
_atom_site_type_symbol
_atom_site_label
_atom_site_fract_x
_atom_site_fract_y
_atom_site_fract_z
Si Si1 0.081947 0.449760 0.385624
Si Si2 0.142396 0.342081 0.805369
Si Si3 0.250723 0.083776 0.560032
Si Si4 0.678998 0.552237 0.838264
Si Si5 0.349235 0.264744 0.310489
O O1 0.086631 0.552534 0.335743
O O2 0.158753 0.465460 0.424257
O O3 0.099575 0.303357 0.357761
O O4 0.000000 0.500000 0.413268
O O5 0.232885 0.407659 0.813016
O O6 0.134918 0.196954 0.835301
O O7 0.130385 0.310654 0.744101
O O8 0.229630 0.048544 0.500000
O O9 0.250000 0.250000 0.564089
O O10 0.194706 0.009993 0.603667
O O11 0.638323 0.427080 0.807320
O O12 0.250000 0.250000 0.318562
#
# Coordination Sequence:
#
# PCOD9495464 Si02
#       5
#    16  16  16  16  16
#     4  11  23  38  52  79 118 153 185 225 279 346
#     4  10  21  29  54  84 112 141 180 227 282 324
#     4  10  19  36  62  85 103 137 193 244 285 331
#     4  10  18  32  52  85 108 135 180 237 283 318
#     4  12  18  32  55  81 110 148 187 226 271 335
#
# _framework density 19.727822
#
# number of rings (size 3 to 8) (size 9 to 14) (size 15 to 20)
#    0.000    1.400    8.000    1.200    0.000    2.000 
#    0.000    9.000    0.000    2.400    0.000    2.800 
#    0.000    0.000    0.000    0.000    0.000    0.000 
#
# Total GULP energy -223012.578507 kJ/mol
# GULP energy per Si atom -5575.314463 kJ/mol
# Density = 1.968292 g / cm^3
# Si number density = 19.727822 Si / 1000 Ang^3
#
#
#
# Elastic Constant Matrix: (Units=GPa)
#
#
# Indices 1 2 3 4 5 6 
#
# 1 35.9583 2.3433 -15.1832 0.0000 0.0000 0.0000
# 2 2.3433 106.5545 -0.2793 0.0000 0.0000 0.0000
# 3 -15.1832 -0.2793 93.8817 0.0000 0.0000 0.0000
# 4 0.0000 0.0000 0.0000 0.4848 0.0000 0.0000
# 5 0.0000 0.0000 0.0000 0.0000 5.5994 0.0000
# 6 0.0000 0.0000 0.0000 0.0000 0.0000 17.4073
#
#
#
# Elastic Compliance Matrix: (Units=1/GPa)
#
#
# Indices 1 2 3 4 5 6 
#
# 1 0.029892 -0.000645 0.004832 0.000000 0.000000 0.000000
# 2 -0.000645 0.009399 -0.000076 0.000000 0.000000 0.000000
# 3 0.004832 -0.000076 0.011433 0.000000 0.000000 0.000000
# 4 0.000000 0.000000 0.000000 2.062774 0.000000 0.000000
# 5 0.000000 0.000000 0.000000 0.000000 0.178591 0.000000
# 6 0.000000 0.000000 0.000000 0.000000 0.000000 0.057447
#
#
# Mechanical properties :
#
#
# Convention : Reuss Voigt Hill
#
# Bulk Modulus (GPa) = 16.96431 23.35068 20.15749
# Shear Modulus (GPa) = 2.11778 21.33255 11.72517
#
# Velocity S-wave (km/s) = 1.03722 3.29195 2.44057
# Velocity P-wave (km/s) = 3.17053 5.12946 4.26401
#
# Compressibility (1/GPa) = 0.05894730
#
# Stress axis : x y z
#
# Youngs Moduli (GPa) = 33.45323 106.39601 87.46601
#
# Poissons Ratio (x) = 0.06859 -0.42268
# Poissons Ratio (y) = 0.02157 0.00667
# Poissons Ratio (z) = -0.16166 0.00812
#
# Static dielectric constant tensor:
#      x y z
#    x 1.794920 0.000000 0.000000 
#    y 0.000000 1.729540 0.000000 
#    z 0.000000 0.000000 1.717690 
# 
# From -- ./inp_files/69874.got.cif
#   From: 2010.05.17/outbox.cif.g08.bks.cpg/sg66_35_cif.got.tgz:69874.got - 2010.06.03 17:51:23.
