data_PCOD9495325
_publ_section_title
;
Structure prediction by ZEFSAII (Michael W. Deem and Ramdas Pophale) SiO2 
 PCOD9495325
Probable space group: C C C M
;
_chemical_formula_sum "Si O2"
_cell_formula_units_Z 80
_cell_length_a 12.744583
_cell_length_b 21.977612
_cell_length_c 15.413600
_cell_angle_alpha 90.000000
_cell_angle_beta 90.000000
_cell_angle_gamma 90.000000
_cell_volume 4317.280003
_symmetry_space_group_name_H-M "C C C M"
_symmetry_group_IT_number 66
_symmetry_cell_setting 'orthorhombic'
loop_
_space_group_symop_operation_xyz
x,y,z
-x,-y,z
x,-y,1/2-z
-x,y,1/2-z
-x,-y,-z
x,y,-z
-x,y,1/2+z
x,-y,1/2+z
1/2+x,1/2+y,z
1/2-x,1/2-y,z
1/2+x,1/2-y,1/2-z
1/2-x,1/2+y,1/2-z
1/2-x,1/2-y,-z
1/2+x,1/2+y,-z
1/2-x,1/2+y,1/2+z
1/2+x,1/2-y,1/2+z
loop_
_atom_site_type_symbol
_atom_site_label
_atom_site_fract_x
_atom_site_fract_y
_atom_site_fract_z
Si Si1 0.854042 0.966745 0.340797
Si Si2 0.646148 0.715726 0.106110
Si Si3 0.069368 0.914100 0.597913
Si Si4 0.081555 0.254196 0.394354
Si Si5 0.751451 0.848664 0.395009
O O1 0.768632 0.915848 0.359557
O O2 0.965620 0.931827 0.349122
O O3 0.841905 0.000000 0.250000
O O4 0.862376 0.024587 0.404198
O O5 0.750000 0.750000 0.138057
O O6 0.632095 0.644695 0.130588
O O7 0.538024 0.747703 0.134526
O O8 0.650217 0.717213 0.000000
O O9 0.032354 0.899674 0.500000
O O10 0.080431 0.254314 0.500000
O O11 0.151907 0.195773 0.369257
O O12 0.145799 0.313886 0.367519
O O13 0.752813 0.851696 0.500000
#
# Coordination Sequence:
#
# PCOD9495325 Si02
#       5
#    16  16  16  16  16
#     4  11  20  29  45  70 103 130 164 213 259 297
#     4   9  16  27  47  74 101 127 161 209 257 301
#     4  10  18  30  48  69  97 133 169 202 255 310
#     4   8  14  25  46  75 101 127 161 204 252 303
#     4   9  15  27  48  73 101 130 164 203 252 307
#
# _framework density 18.530183999999998
#
# number of rings (size 3 to 8) (size 9 to 14) (size 15 to 20)
#    0.000    2.600    2.000    4.800    0.000    0.000 
#    0.000    0.000    4.400    1.200    0.000    9.800 
#    0.000    0.000    0.000    0.000    0.000    0.000 
#
# Total GULP energy -223008.359563 kJ/mol
# GULP energy per Si atom -5575.208989 kJ/mol
# Density = 1.848801 g / cm^3
# Si number density = 18.530184 Si / 1000 Ang^3
#
#
#
# Elastic Constant Matrix: (Units=GPa)
#
#
# Indices 1 2 3 4 5 6 
#
# 1 129.1503 93.7142 10.9155 0.0000 0.0000 0.0000
# 2 93.7142 176.6336 20.9219 0.0000 0.0000 0.0000
# 3 10.9155 20.9219 35.2301 0.0000 0.0000 0.0000
# 4 0.0000 0.0000 0.0000 -0.1164 0.0000 0.0000
# 5 0.0000 0.0000 0.0000 0.0000 6.3982 0.0000
# 6 0.0000 0.0000 0.0000 0.0000 0.0000 40.0473
#
#
#
# Elastic Compliance Matrix: (Units=1/GPa)
#
#
# Indices 1 2 3 4 5 6 
#
# 1 0.012590 -0.006688 0.000071 0.000000 0.000000 0.000000
# 2 -0.006688 0.009643 -0.003654 0.000000 0.000000 0.000000
# 3 0.000071 -0.003654 0.030533 0.000000 0.000000 0.000000
# 4 0.000000 0.000000 0.000000 -8.592358 0.000000 0.000000
# 5 0.000000 0.000000 0.000000 0.000000 0.156294 0.000000
# 6 0.000000 0.000000 0.000000 0.000000 0.000000 0.024970
#
#
# Mechanical properties :
#
#
# Convention : Reuss Voigt Hill
#
# Bulk Modulus (GPa) = 31.03378 65.79080 48.41229
# Shear Modulus (GPa) = -0.60045 23.62998 11.51476
#
# Velocity S-wave (km/s) = -0.56986 3.57489 2.49551
# Velocity P-wave (km/s) = 4.04364 7.25407 5.87250
#
# Compressibility (1/GPa) = 0.03222295
#
# Stress axis : x y z
#
# Youngs Moduli (GPa) = 79.42854 103.70546 32.75149
#
# Poissons Ratio (x) = 0.69359 -0.00233
# Poissons Ratio (y) = 0.53123 0.11968
# Poissons Ratio (z) = -0.00564 0.37897
#
# Static dielectric constant tensor:
#      x y z
#    x 1.637280 0.000000 0.000000 
#    y 0.000000 1.650200 0.000000 
#    z 0.000000 0.000000 1.756020 
# 
# From -- ./inp_files/26370.got.cif
#   From: 2010.05.17/outbox.cif.g08.bks.cpg/sg66_14_cif.got.tgz:26370.got - 2010.06.03 17:51:23.
