data_PCOD9495060
_publ_section_title
;
Structure prediction by ZEFSAII (Michael W. Deem and Ramdas Pophale) SiO2 
 PCOD9495060
Probable space group: C C C M
;
_chemical_formula_sum "Si O2"
_cell_formula_units_Z 116
_cell_length_a 25.344268
_cell_length_b 13.737830
_cell_length_c 19.332587
_cell_angle_alpha 90.000000
_cell_angle_beta 90.000000
_cell_angle_gamma 90.000000
_cell_volume 6731.128220
_symmetry_space_group_name_H-M "C C C M"
_symmetry_group_IT_number 66
_symmetry_cell_setting 'orthorhombic'
loop_
_space_group_symop_operation_xyz
x,y,z
-x,-y,z
x,-y,1/2-z
-x,y,1/2-z
-x,-y,-z
x,y,-z
-x,y,1/2+z
x,-y,1/2+z
1/2+x,1/2+y,z
1/2-x,1/2-y,z
1/2+x,1/2-y,1/2-z
1/2-x,1/2+y,1/2-z
1/2-x,1/2-y,-z
1/2+x,1/2+y,-z
1/2-x,1/2+y,1/2+z
1/2+x,1/2-y,1/2+z
loop_
_atom_site_type_symbol
_atom_site_label
_atom_site_fract_x
_atom_site_fract_y
_atom_site_fract_z
Si Si1 0.689373 0.221557 0.082407
Si Si2 0.623050 0.035794 0.082171
Si Si3 0.500000 0.000000 0.250000
Si Si4 0.559548 0.333538 0.717990
Si Si5 0.101304 0.857469 0.140289
Si Si6 0.072182 0.633410 0.655687
Si Si7 0.530800 0.190015 0.080327
Si Si8 0.941273 0.044008 0.577048
O O1 0.750000 0.250000 0.092677
O O2 0.669842 0.111771 0.100593
O O3 0.653393 0.297073 0.123721
O O4 0.677422 0.231149 0.000000
O O5 0.568850 0.097576 0.094763
O O6 0.617182 0.934762 0.123166
O O7 0.625914 0.016351 0.000000
O O8 0.462646 0.933543 0.295203
O O9 0.500000 0.326420 0.750000
O O10 0.592661 0.382565 0.779534
O O11 0.584551 0.228176 0.701043
O O12 0.560416 0.388288 0.644621
O O13 0.054419 0.781409 0.120980
O O14 0.096291 0.952351 0.093069
O O15 0.029456 0.667784 0.598393
O O16 0.536361 0.212746 0.000000
O O17 0.930847 0.086116 0.500000
O O18 0.000000 0.000000 0.575579
#
# Coordination Sequence:
#
# PCOD9495060 Si02
#       8
#    16  16   4  16  16  16  16  16
#     4   9  19  37  60  86 112 141 191 253 299 334
#     4   9  18  30  48  74 102 137 178 227 279 325
#     4  12  20  28  42  64 102 144 192 210 248 332
#     4  12  23  35  49  76 115 157 188 227 281 340
#     4  11  20  35  56  80 110 146 188 238 289 341
#     4  12  20  30  44  68 108 149 185 216 262 336
#     4  10  17  28  45  71 104 140 181 222 267 329
#     4  11  22  35  54  78 109 151 196 235 277 342
#
# _framework density 17.233366
#
# number of rings (size 3 to 8) (size 9 to 14) (size 15 to 20)
#    0.000    1.379    4.828    2.897    1.931    3.310 
#    0.000    0.000    0.000    3.310    0.000    0.000 
#    0.000    4.966    0.000    0.000    0.000    0.000 
#
# Total GULP energy -323467.825504 kJ/mol
# GULP energy per Si atom -5577.031474 kJ/mol
# Density = 1.719414 g / cm^3
# Si number density = 17.233366 Si / 1000 Ang^3
#
#
#
# Elastic Constant Matrix: (Units=GPa)
#
#
# Indices 1 2 3 4 5 6 
#
# 1 61.8877 18.5117 22.6554 0.0000 0.0000 0.0000
# 2 18.5117 72.6077 37.4098 0.0000 0.0000 0.0000
# 3 22.6554 37.4098 102.3460 0.0000 0.0000 0.0000
# 4 0.0000 0.0000 0.0000 29.4491 0.0000 0.0000
# 5 0.0000 0.0000 0.0000 0.0000 12.4357 0.0000
# 6 0.0000 0.0000 0.0000 0.0000 0.0000 51.7562
#
#
#
# Elastic Compliance Matrix: (Units=1/GPa)
#
#
# Indices 1 2 3 4 5 6 
#
# 1 0.018150 -0.003151 -0.002866 0.000000 0.000000 0.000000
# 2 -0.003151 0.017515 -0.005705 0.000000 0.000000 0.000000
# 3 -0.002866 -0.005705 0.012490 0.000000 0.000000 0.000000
# 4 0.000000 0.000000 0.000000 0.033957 0.000000 0.000000
# 5 0.000000 0.000000 0.000000 0.000000 0.080414 0.000000
# 6 0.000000 0.000000 0.000000 0.000000 0.000000 0.019321
#
#
# Mechanical properties :
#
#
# Convention : Reuss Voigt Hill
#
# Bulk Modulus (GPa) = 40.46534 43.77724 42.12129
# Shear Modulus (GPa) = 23.41615 29.27917 26.34766
#
# Velocity S-wave (km/s) = 3.69015 4.12634 3.91432
# Velocity P-wave (km/s) = 6.45663 6.93974 6.70254
#
# Compressibility (1/GPa) = 0.02471251
#
# Stress axis : x y z
#
# Youngs Moduli (GPa) = 55.09664 57.09326 80.06135
#
# Poissons Ratio (x) = 0.17989 0.22946
# Poissons Ratio (y) = 0.17360 0.45673
# Poissons Ratio (z) = 0.15791 0.32570
#
# Static dielectric constant tensor:
#      x y z
#    x 1.554980 0.000000 0.000000 
#    y 0.000000 1.634560 0.000000 
#    z 0.000000 0.000000 1.766520 
# 
# From -- ./inp_files/40787.got.cif
#   From: 2010.05.17/outbox.cif.g08.bks.cpg/sg66_21_cif.got.tgz:40787.got - 2010.06.03 17:51:23.
