data_PCOD9495633
_publ_section_title
;
Structure prediction by ZEFSAII (Michael W. Deem and Ramdas Pophale) SiO2 
 PCOD9495633
Probable space group: C C C M
;
_chemical_formula_sum "Si O2"
_cell_formula_units_Z 104
_cell_length_a 26.731330
_cell_length_b 9.080278
_cell_length_c 27.822817
_cell_angle_alpha 90.000000
_cell_angle_beta 90.000000
_cell_angle_gamma 90.000000
_cell_volume 6753.374157
_symmetry_space_group_name_H-M "C C C M"
_symmetry_group_IT_number 66
_symmetry_cell_setting 'orthorhombic'
loop_
_space_group_symop_operation_xyz
x,y,z
-x,-y,z
x,-y,1/2-z
-x,y,1/2-z
-x,-y,-z
x,y,-z
-x,y,1/2+z
x,-y,1/2+z
1/2+x,1/2+y,z
1/2-x,1/2-y,z
1/2+x,1/2-y,1/2-z
1/2-x,1/2+y,1/2-z
1/2-x,1/2-y,-z
1/2+x,1/2+y,-z
1/2-x,1/2+y,1/2+z
1/2+x,1/2-y,1/2+z
loop_
_atom_site_type_symbol
_atom_site_label
_atom_site_fract_x
_atom_site_fract_y
_atom_site_fract_z
Si Si1 0.253401 0.914324 0.102558
Si Si2 0.701553 0.342208 0.331325
Si Si3 0.729656 0.511035 0.000000
Si Si4 0.557067 0.016325 0.668862
Si Si5 0.667380 0.797818 0.000000
Si Si6 0.853322 0.402634 0.603409
Si Si7 0.057468 0.745038 0.245811
Si Si8 0.864427 0.000000 0.750000
O O1 0.250000 0.750000 0.122389
O O2 0.223147 0.033678 0.133215
O O3 0.310088 0.973562 0.101429
O O4 0.231283 0.918842 0.048692
O O5 0.750000 0.250000 0.312631
O O6 0.668474 0.227637 0.362447
O O7 0.670248 0.425289 0.290524
O O8 0.684580 0.628062 0.000000
O O9 0.780566 0.609119 0.000000
O O10 0.597168 0.031400 0.627015
O O11 0.564731 0.157430 0.703948
O O12 0.500000 0.000000 0.651330
O O13 0.562893 0.876778 0.704152
O O14 0.640404 0.839973 0.950437
O O15 0.000000 0.799277 0.250000
O O16 0.097695 0.869833 0.235197
#
# Coordination Sequence:
#
# PCOD9495633 Si02
#       8
#    16  16   8  16   8  16  16   8
#     4  10  20  31  50  75 102 128 170 213 251 298
#     4  10  22  36  46  70 105 143 171 197 245 315
#     4   9  15  30  50  72  99 128 169 218 252 281
#     4   9  18  35  54  74 102 131 166 213 263 304
#     4   9  16  28  55  74  97 136 173 210 247 306
#     4  10  18  35  53  73 102 139 171 205 258 306
#     4   9  19  34  55  78  97 127 171 219 259 297
#     4  12  21  34  54  74 104 134 173 210 250 306
#
# _framework density 15.399709
#
# number of rings (size 3 to 8) (size 9 to 14) (size 15 to 20)
#    0.000    2.308    3.077    1.385    2.154    0.615 
#    2.769    0.385    0.000    0.000    0.000    0.000 
#    0.000    4.000    0.000    0.000    0.000    0.000 
#
# Total GULP energy -289640.527374 kJ/mol
# GULP energy per Si atom -5570.010142 kJ/mol
# Density = 1.536466 g / cm^3
# Si number density = 15.399709 Si / 1000 Ang^3
#
#
#
# Elastic Constant Matrix: (Units=GPa)
#
#
# Indices 1 2 3 4 5 6 
#
# 1 102.1043 44.2522 62.8965 0.0000 0.0000 0.0000
# 2 44.2522 80.7531 23.6017 0.0000 0.0000 0.0000
# 3 62.8965 23.6017 85.5004 0.0000 0.0000 0.0000
# 4 0.0000 0.0000 0.0000 18.6443 0.0000 0.0000
# 5 0.0000 0.0000 0.0000 0.0000 22.0862 0.0000
# 6 0.0000 0.0000 0.0000 0.0000 0.0000 26.0117
#
#
#
# Elastic Compliance Matrix: (Units=1/GPa)
#
#
# Indices 1 2 3 4 5 6 
#
# 1 0.021694 -0.007858 -0.013790 0.000000 0.000000 0.000000
# 2 -0.007858 0.016316 0.001276 0.000000 0.000000 0.000000
# 3 -0.013790 0.001276 0.021487 0.000000 0.000000 0.000000
# 4 0.000000 0.000000 0.000000 0.053636 0.000000 0.000000
# 5 0.000000 0.000000 0.000000 0.000000 0.045277 0.000000
# 6 0.000000 0.000000 0.000000 0.000000 0.000000 0.038444
#
#
# Mechanical properties :
#
#
# Convention : Reuss Voigt Hill
#
# Bulk Modulus (GPa) = 53.31664 58.87319 56.09491
# Shear Modulus (GPa) = 20.50451 22.52225 21.51338
#
# Velocity S-wave (km/s) = 3.65291 3.82843 3.74170
# Velocity P-wave (km/s) = 7.24491 7.60628 7.42779
#
# Compressibility (1/GPa) = 0.01875587
#
# Stress axis : x y z
#
# Youngs Moduli (GPa) = 46.09593 61.28796 46.53877
#
# Poissons Ratio (x) = 0.48159 0.64175
# Poissons Ratio (y) = 0.36221 -0.05940
# Poissons Ratio (z) = 0.63564 -0.07823
#
# Static dielectric constant tensor:
#      x y z
#    x 1.505010 0.000000 0.000000 
#    y 0.000000 1.510750 0.000000 
#    z 0.000000 0.000000 1.505960 
# 
# From -- ./inp_files/66314.got.cif
#   From: 2010.05.17/outbox.cif.g08.bks.cpg/sg66_34_cif.got.tgz:66314.got - 2010.06.03 17:51:23.
