data_PCOD9495994
_publ_section_title
;
Structure prediction by ZEFSAII (Michael W. Deem and Ramdas Pophale) SiO2 
 PCOD9495994
Probable space group: C C C M
;
_chemical_formula_sum "Si O2"
_cell_formula_units_Z 80
_cell_length_a 8.544129
_cell_length_b 16.098166
_cell_length_c 30.391851
_cell_angle_alpha 90.000000
_cell_angle_beta 90.000000
_cell_angle_gamma 90.000000
_cell_volume 4180.241279
_symmetry_space_group_name_H-M "C C C M"
_symmetry_group_IT_number 66
_symmetry_cell_setting 'orthorhombic'
loop_
_space_group_symop_operation_xyz
x,y,z
-x,-y,z
x,-y,1/2-z
-x,y,1/2-z
-x,-y,-z
x,y,-z
-x,y,1/2+z
x,-y,1/2+z
1/2+x,1/2+y,z
1/2-x,1/2-y,z
1/2+x,1/2-y,1/2-z
1/2-x,1/2+y,1/2-z
1/2-x,1/2-y,-z
1/2+x,1/2+y,-z
1/2-x,1/2+y,1/2+z
1/2+x,1/2-y,1/2+z
loop_
_atom_site_type_symbol
_atom_site_label
_atom_site_fract_x
_atom_site_fract_y
_atom_site_fract_z
Si Si1 0.806690 0.655205 0.450253
Si Si2 0.817715 0.655832 0.048290
Si Si3 0.883367 0.078335 0.127713
Si Si4 0.686002 0.010238 0.301119
Si Si5 0.809853 0.156553 0.359173
O O1 0.764766 0.629167 0.500000
O O2 0.750000 0.750000 0.444688
O O3 0.721107 0.599753 0.414218
O O4 0.994866 0.654688 0.447025
O O5 0.750000 0.750000 0.047011
O O6 0.748133 0.620801 0.093394
O O7 0.778646 0.618597 0.000000
O O8 0.002701 0.152653 0.138824
O O9 0.774145 0.056750 0.168782
O O10 0.000000 0.000000 0.121197
O O11 0.742835 0.098032 0.321031
O O12 0.500000 0.000000 0.305827
O O13 0.727154 0.000000 0.250000
O O14 0.750000 0.250000 0.354846
#
# Coordination Sequence:
#
# PCOD9495994 Si02
#       5
#    16  16  16  16  16
#     4  10  19  32  53  82 116 154 196 236 275 328
#     4   9  17  30  51  80 114 149 185 232 281 322
#     4  10  22  37  58  85 116 154 186 230 289 342
#     4  10  22  42  62  82 113 149 184 233 295 347
#     4  10  20  36  59  86 116 149 190 234 276 333
#
# _framework density 19.137651000000002
#
# number of rings (size 3 to 8) (size 9 to 14) (size 15 to 20)
#    0.000    2.200    0.000    3.600    0.000    6.400 
#    0.000    8.000    0.000   10.800    0.000    0.000 
#    0.000    0.000    0.000    0.000    0.000    0.000 
#
# Total GULP energy -223204.350534 kJ/mol
# GULP energy per Si atom -5580.108763 kJ/mol
# Density = 1.909409 g / cm^3
# Si number density = 19.137651 Si / 1000 Ang^3
#
#
#
# Elastic Constant Matrix: (Units=GPa)
#
#
# Indices 1 2 3 4 5 6 
#
# 1 108.0654 34.4709 87.3029 0.0000 0.0000 0.0000
# 2 34.4709 48.1616 55.7032 0.0000 0.0000 0.0000
# 3 87.3029 55.7032 205.7164 0.0000 0.0000 0.0000
# 4 0.0000 0.0000 0.0000 30.7918 0.0000 0.0000
# 5 0.0000 0.0000 0.0000 0.0000 39.7775 0.0000
# 6 0.0000 0.0000 0.0000 0.0000 0.0000 34.0064
#
#
#
# Elastic Compliance Matrix: (Units=1/GPa)
#
#
# Indices 1 2 3 4 5 6 
#
# 1 0.014822 -0.004853 -0.004976 0.000000 0.000000 0.000000
# 2 -0.004853 0.031820 -0.006557 0.000000 0.000000 0.000000
# 3 -0.004976 -0.006557 0.008748 0.000000 0.000000 0.000000
# 4 0.000000 0.000000 0.000000 0.032476 0.000000 0.000000
# 5 0.000000 0.000000 0.000000 0.000000 0.025140 0.000000
# 6 0.000000 0.000000 0.000000 0.000000 0.000000 0.029406
#
#
# Mechanical properties :
#
#
# Convention : Reuss Voigt Hill
#
# Bulk Modulus (GPa) = 44.21134 79.65528 61.93331
# Shear Modulus (GPa) = 27.36374 33.21289 30.28832
#
# Velocity S-wave (km/s) = 3.78542 4.17042 3.98258
# Velocity P-wave (km/s) = 6.50060 8.05621 7.31985
#
# Compressibility (1/GPa) = 0.02261863
#
# Stress axis : x y z
#
# Youngs Moduli (GPa) = 67.46873 31.42644 114.30999
#
# Poissons Ratio (x) = 0.15252 0.56880
# Poissons Ratio (y) = 0.32744 0.74948
# Poissons Ratio (z) = 0.33572 0.20605
#
# Static dielectric constant tensor:
#      x y z
#    x 1.664270 0.000000 0.000000 
#    y 0.000000 1.684300 0.000000 
#    z 0.000000 0.000000 1.664370 
# 
# From -- ./inp_files/62370.got.cif
#   From: 2010.05.17/outbox.cif.g08.bks.cpg/sg66_32_cif.got.tgz:62370.got - 2010.06.03 17:51:23.
