data_PCOD9495120
_publ_section_title
;
Structure prediction by ZEFSAII (Michael W. Deem and Ramdas Pophale) SiO2 
 PCOD9495120
Probable space group: C C C M
;
_chemical_formula_sum "Si O2"
_cell_formula_units_Z 96
_cell_length_a 16.186840
_cell_length_b 11.240658
_cell_length_c 26.447606
_cell_angle_alpha 90.000000
_cell_angle_beta 90.000000
_cell_angle_gamma 90.000000
_cell_volume 4812.161286
_symmetry_space_group_name_H-M "C C C M"
_symmetry_group_IT_number 66
_symmetry_cell_setting 'orthorhombic'
loop_
_space_group_symop_operation_xyz
x,y,z
-x,-y,z
x,-y,1/2-z
-x,y,1/2-z
-x,-y,-z
x,y,-z
-x,y,1/2+z
x,-y,1/2+z
1/2+x,1/2+y,z
1/2-x,1/2-y,z
1/2+x,1/2-y,1/2-z
1/2-x,1/2+y,1/2-z
1/2-x,1/2-y,-z
1/2+x,1/2+y,-z
1/2-x,1/2+y,1/2+z
1/2+x,1/2-y,1/2+z
loop_
_atom_site_type_symbol
_atom_site_label
_atom_site_fract_x
_atom_site_fract_y
_atom_site_fract_z
Si Si1 0.349129 0.873821 0.726678
Si Si2 0.660186 0.377152 0.765468
Si Si3 0.829135 0.514135 0.444371
Si Si4 0.444032 0.118000 0.122601
Si Si5 0.938115 0.756818 0.442266
Si Si6 0.197868 0.127500 0.383065
O O1 0.377869 0.752473 0.754406
O O2 0.249304 0.876819 0.735673
O O3 0.384204 0.864324 0.670131
O O4 0.378678 0.000000 0.750000
O O5 0.616494 0.500000 0.750000
O O6 0.675096 0.385954 0.825093
O O7 0.794442 0.497092 0.500000
O O8 0.891462 0.413870 0.427054
O O9 0.882652 0.635964 0.444959
O O10 0.758839 0.526885 0.402765
O O11 0.498916 0.227388 0.103274
O O12 0.500000 0.000000 0.133331
O O13 0.967716 0.777985 0.500000
O O14 0.877767 0.858460 0.421488
O O15 0.250000 0.250000 0.385988
#
# Coordination Sequence:
#
# PCOD9495120 Si02
#       6
#    16  16  16  16  16  16
#     4  10  20  34  54  81 110 149 188 232 285 338
#     4  10  20  35  56  79 111 147 192 239 279 330
#     4   9  16  27  47  75 110 146 185 231 288 340
#     4  10  20  31  49  80 115 149 180 234 290 353
#     4   9  18  30  47  76 113 146 181 230 293 347
#     4  10  17  30  51  75 108 149 190 238 280 344
#
# _framework density 19.949455
#
# number of rings (size 3 to 8) (size 9 to 14) (size 15 to 20)
#    0.000    2.333    1.667    3.000    4.667    4.333 
#    0.000    0.000    0.000    2.000    0.000   25.667 
#    0.000    0.000    0.000    0.000    0.000    0.000 
#
# Total GULP energy -267304.665484 kJ/mol
# GULP energy per Si atom -5568.847198 kJ/mol
# Density = 1.990405 g / cm^3
# Si number density = 19.949455 Si / 1000 Ang^3
#
#
#
# Elastic Constant Matrix: (Units=GPa)
#
#
# Indices 1 2 3 4 5 6 
#
# 1 21.9344 3.4390 21.4915 0.0000 0.0000 0.0000
# 2 3.4390 72.8612 6.6875 0.0000 0.0000 0.0000
# 3 21.4915 6.6875 126.0842 0.0000 0.0000 0.0000
# 4 0.0000 0.0000 0.0000 3.4876 0.0000 0.0000
# 5 0.0000 0.0000 0.0000 0.0000 93.9986 0.0000
# 6 0.0000 0.0000 0.0000 0.0000 0.0000 4.1308
#
#
#
# Elastic Compliance Matrix: (Units=1/GPa)
#
#
# Indices 1 2 3 4 5 6 
#
# 1 0.054950 -0.001742 -0.009274 0.000000 0.000000 0.000000
# 2 -0.001742 0.013847 -0.000437 0.000000 0.000000 0.000000
# 3 -0.009274 -0.000437 0.009535 0.000000 0.000000 0.000000
# 4 0.000000 0.000000 0.000000 0.286729 0.000000 0.000000
# 5 0.000000 0.000000 0.000000 0.000000 0.010638 0.000000
# 6 0.000000 0.000000 0.000000 0.000000 0.000000 0.242082
#
#
# Mechanical properties :
#
#
# Convention : Reuss Voigt Hill
#
# Bulk Modulus (GPa) = 18.04244 31.56842 24.80543
# Shear Modulus (GPa) = 7.58535 32.94087 20.26311
#
# Velocity S-wave (km/s) = 1.95206 4.06792 3.19050
# Velocity P-wave (km/s) = 3.76091 6.15813 5.10230
#
# Compressibility (1/GPa) = 0.05542486
#
# Stress axis : x y z
#
# Youngs Moduli (GPa) = 18.19822 72.21722 104.87451
#
# Poissons Ratio (x) = 0.12583 0.97261
# Poissons Ratio (y) = 0.03171 0.04588
# Poissons Ratio (z) = 0.16877 0.03159
#
# Static dielectric constant tensor:
#      x y z
#    x 1.724120 0.000000 0.000000 
#    y 0.000000 1.714270 0.000000 
#    z 0.000000 0.000000 1.673070 
# 
# From -- ./inp_files/58755.got.cif
#   From: 2010.05.17/outbox.cif.g08.bks.cpg/sg66_30_cif.got.tgz:58755.got - 2010.06.03 17:51:23.
