data_PCOD9495259
_publ_section_title
;
Structure prediction by ZEFSAII (Michael W. Deem and Ramdas Pophale) SiO2 
 PCOD9495259
Probable space group: C C C M
;
_chemical_formula_sum "Si O2"
_cell_formula_units_Z 96
_cell_length_a 10.489996
_cell_length_b 14.912484
_cell_length_c 24.242912
_cell_angle_alpha 90.000000
_cell_angle_beta 90.000000
_cell_angle_gamma 90.000000
_cell_volume 3792.364725
_symmetry_space_group_name_H-M "C C C M"
_symmetry_group_IT_number 66
_symmetry_cell_setting 'orthorhombic'
loop_
_space_group_symop_operation_xyz
x,y,z
-x,-y,z
x,-y,1/2-z
-x,y,1/2-z
-x,-y,-z
x,y,-z
-x,y,1/2+z
x,-y,1/2+z
1/2+x,1/2+y,z
1/2-x,1/2-y,z
1/2+x,1/2-y,1/2-z
1/2-x,1/2+y,1/2-z
1/2-x,1/2-y,-z
1/2+x,1/2+y,-z
1/2-x,1/2+y,1/2+z
1/2+x,1/2-y,1/2+z
loop_
_atom_site_type_symbol
_atom_site_label
_atom_site_fract_x
_atom_site_fract_y
_atom_site_fract_z
Si Si1 0.724572 0.612312 0.201885
Si Si2 0.490631 0.102151 0.658363
Si Si3 0.303943 0.631320 0.581613
Si Si4 0.703192 0.403080 0.182487
Si Si5 0.465253 0.781466 0.557341
Si Si6 0.871318 0.939819 0.436471
O O1 0.678651 0.657271 0.145765
O O2 0.679740 0.509120 0.192593
O O3 0.665410 0.644582 0.259799
O O4 0.879226 0.615557 0.193181
O O5 0.355524 0.105606 0.687522
O O6 0.475397 0.175253 0.610567
O O7 0.500000 0.000000 0.636011
O O8 0.431676 0.675951 0.557382
O O9 0.176227 0.676030 0.559229
O O10 0.278508 0.526814 0.571667
O O11 0.654456 0.383450 0.120287
O O12 0.531399 0.804527 0.500000
O O13 0.852808 0.907468 0.500000
O O14 0.000000 0.000000 0.431831
#
# Coordination Sequence:
#
# PCOD9495259 Si02
#       6
#    16  16  16  16  16  16
#     4   8  15  28  48  72  96 126 160 202 255 309
#     4   9  17  27  45  74 106 134 164 200 249 311
#     4   9  17  31  49  70  97 129 166 207 253 299
#     4   9  16  29  48  71  97 126 163 208 253 295
#     4  10  18  28  48  75 102 132 162 202 255 305
#     4  10  20  33  51  73  98 132 172 211 249 294
#
# _framework density 25.314021
#
# number of rings (size 3 to 8) (size 9 to 14) (size 15 to 20)
#    0.000    2.833    0.000    3.500    0.000    3.000 
#    0.000    6.667    0.000   15.000    0.000    3.500 
#    0.000    0.000    0.000    0.000    0.000    0.000 
#
# Total GULP energy -267216.792833 kJ/mol
# GULP energy per Si atom -5567.016517 kJ/mol
# Density = 2.525641 g / cm^3
# Si number density = 25.314021 Si / 1000 Ang^3
#
#
#
# Elastic Constant Matrix: (Units=GPa)
#
#
# Indices 1 2 3 4 5 6 
#
# 1 43.4811 -7.5372 17.6883 0.0000 0.0000 0.0000
# 2 -7.5372 50.1031 30.1792 0.0000 0.0000 0.0000
# 3 17.6883 30.1792 260.2486 0.0000 0.0000 0.0000
# 4 0.0000 0.0000 0.0000 6.1182 0.0000 0.0000
# 5 0.0000 0.0000 0.0000 0.0000 -11.9339 0.0000
# 6 0.0000 0.0000 0.0000 0.0000 0.0000 11.5946
#
#
#
# Elastic Compliance Matrix: (Units=1/GPa)
#
#
# Indices 1 2 3 4 5 6 
#
# 1 0.024810 0.005105 -0.002278 0.000000 0.000000 0.000000
# 2 0.005105 0.022508 -0.002957 0.000000 0.000000 0.000000
# 3 -0.002278 -0.002957 0.004340 0.000000 0.000000 0.000000
# 4 0.000000 0.000000 0.000000 0.163446 0.000000 0.000000
# 5 0.000000 0.000000 0.000000 0.000000 -0.083795 0.000000
# 6 0.000000 0.000000 0.000000 0.000000 0.000000 0.086247
#
#
# Mechanical properties :
#
#
# Convention : Reuss Voigt Hill
#
# Bulk Modulus (GPa) = 19.45647 48.27705 33.86676
# Shear Modulus (GPa) = 21.28116 22.05596 21.66856
#
# Velocity S-wave (km/s) = 2.90261 2.95497 2.92891
# Velocity P-wave (km/s) = 4.35158 5.54573 4.98454
#
# Compressibility (1/GPa) = 0.05139678
#
# Stress axis : x y z
#
# Youngs Moduli (GPa) = 40.30615 44.42896 230.40283
#
# Poissons Ratio (x) = -0.22679 0.52490
# Poissons Ratio (y) = -0.20574 0.68130
# Poissons Ratio (z) = 0.09183 0.13138
#
# Static dielectric constant tensor:
#      x y z
#    x 2.033470 0.000000 0.000000 
#    y 0.000000 1.919210 0.000000 
#    z 0.000000 0.000000 2.106020 
# 
# From -- ./inp_files/56946.got.cif
#   From: 2010.05.17/outbox.cif.g08.bks.cpg/sg66_29_cif.got.tgz:56946.got - 2010.06.03 17:51:23.
