data_PCOD9495667
_publ_section_title
;
Structure prediction by ZEFSAII (Michael W. Deem and Ramdas Pophale) SiO2 
 PCOD9495667
Probable space group: C C C M
;
_chemical_formula_sum "Si O2"
_cell_formula_units_Z 96
_cell_length_a 21.528975
_cell_length_b 10.298410
_cell_length_c 19.806246
_cell_angle_alpha 90.000000
_cell_angle_beta 90.000000
_cell_angle_gamma 90.000000
_cell_volume 4391.326213
_symmetry_space_group_name_H-M "C C C M"
_symmetry_group_IT_number 66
_symmetry_cell_setting 'orthorhombic'
loop_
_space_group_symop_operation_xyz
x,y,z
-x,-y,z
x,-y,1/2-z
-x,y,1/2-z
-x,-y,-z
x,y,-z
-x,y,1/2+z
x,-y,1/2+z
1/2+x,1/2+y,z
1/2-x,1/2-y,z
1/2+x,1/2-y,1/2-z
1/2-x,1/2+y,1/2-z
1/2-x,1/2-y,-z
1/2+x,1/2+y,-z
1/2-x,1/2+y,1/2+z
1/2+x,1/2-y,1/2+z
loop_
_atom_site_type_symbol
_atom_site_label
_atom_site_fract_x
_atom_site_fract_y
_atom_site_fract_z
Si Si1 0.443961 0.674707 0.923789
Si Si2 0.101068 0.048659 0.826551
Si Si3 0.155196 0.321502 0.657908
Si Si4 0.774064 0.953608 0.674336
Si Si5 0.567596 0.166227 0.284465
Si Si6 0.549574 0.885287 0.072077
O O1 0.435958 0.554742 0.872183
O O2 0.393237 0.781078 0.899836
O O3 0.508617 0.752762 0.924531
O O4 0.431864 0.629243 0.000000
O O5 0.071870 0.186855 0.811438
O O6 0.106665 0.000000 0.750000
O O7 0.172477 0.049942 0.853647
O O8 0.190666 0.185355 0.674464
O O9 0.208347 0.424770 0.639522
O O10 0.117354 0.354042 0.725792
O O11 0.759028 0.000000 0.750000
O O12 0.500000 0.144504 0.250000
O O13 0.579935 0.092421 0.354794
O O14 0.500000 0.000000 0.067791
O O15 0.584728 0.883247 0.000000
#
# Coordination Sequence:
#
# PCOD9495667 Si02
#       6
#    16  16  16  16  16  16
#     4  10  20  37  56  83 116 155 195 233 300 365
#     4  10  18  36  56  84 118 150 185 246 294 346
#     4  10  19  34  55  86 113 151 187 248 283 344
#     4   9  17  34  53  79 117 147 195 229 297 340
#     4  12  21  36  61  93 120 149 195 248 301 346
#     4  10  23  40  54  76 122 164 193 237 297 366
#
# _framework density 21.861277000000001
#
# number of rings (size 3 to 8) (size 9 to 14) (size 15 to 20)
#    0.000    1.833    6.667    0.000    0.000    4.667 
#    0.000    8.333    0.000    0.000    0.000   12.833 
#    0.000    0.000    0.000    0.000    0.000    0.000 
#
# Total GULP energy -267586.480174 kJ/mol
# GULP energy per Si atom -5574.718337 kJ/mol
# Density = 2.181152 g / cm^3
# Si number density = 21.861277 Si / 1000 Ang^3
#
#
#
# Elastic Constant Matrix: (Units=GPa)
#
#
# Indices 1 2 3 4 5 6 
#
# 1 81.0243 1.7676 35.2764 0.0000 0.0000 0.0000
# 2 1.7676 63.0681 21.3419 0.0000 0.0000 0.0000
# 3 35.2764 21.3419 130.0165 0.0000 0.0000 0.0000
# 4 0.0000 0.0000 0.0000 5.3536 0.0000 0.0000
# 5 0.0000 0.0000 0.0000 0.0000 46.0983 0.0000
# 6 0.0000 0.0000 0.0000 0.0000 0.0000 11.2712
#
#
#
# Elastic Compliance Matrix: (Units=1/GPa)
#
#
# Indices 1 2 3 4 5 6 
#
# 1 0.014049 0.000949 -0.003967 0.000000 0.000000 0.000000
# 2 0.000949 0.016853 -0.003024 0.000000 0.000000 0.000000
# 3 -0.003967 -0.003024 0.009264 0.000000 0.000000 0.000000
# 4 0.000000 0.000000 0.000000 0.186789 0.000000 0.000000
# 5 0.000000 0.000000 0.000000 0.000000 0.021693 0.000000
# 6 0.000000 0.000000 0.000000 0.000000 0.000000 0.088722
#
#
# Mechanical properties :
#
#
# Convention : Reuss Voigt Hill
#
# Bulk Modulus (GPa) = 35.61185 43.43117 39.52151
# Shear Modulus (GPa) = 13.93481 26.92617 20.43049
#
# Velocity S-wave (km/s) = 2.52746 3.51334 3.06036
# Velocity P-wave (km/s) = 4.98424 6.03058 5.53221
#
# Compressibility (1/GPa) = 0.02808054
#
# Stress axis : x y z
#
# Youngs Moduli (GPa) = 71.18130 59.33835 107.94317
#
# Poissons Ratio (x) = -0.05630 0.42826
# Poissons Ratio (y) = -0.06754 0.32639
# Poissons Ratio (z) = 0.28241 0.17942
#
# Static dielectric constant tensor:
#      x y z
#    x 1.872720 0.000000 0.000000 
#    y 0.000000 1.925070 0.000000 
#    z 0.000000 0.000000 1.831870 
# 
# From -- ./inp_files/52529.got.cif
#   From: 2010.05.17/outbox.cif.g08.bks.cpg/sg66_27_cif.got.tgz:52529.got - 2010.06.03 17:51:23.
