data_PCOD9495918
_publ_section_title
;
Structure prediction by ZEFSAII (Michael W. Deem and Ramdas Pophale) SiO2 
 PCOD9495918
Probable space group: C C C M
;
_chemical_formula_sum "Si O2"
_cell_formula_units_Z 88
_cell_length_a 16.946554
_cell_length_b 21.764497
_cell_length_c 14.432518
_cell_angle_alpha 90.000000
_cell_angle_beta 90.000000
_cell_angle_gamma 90.000000
_cell_volume 5323.192140
_symmetry_space_group_name_H-M "C C C M"
_symmetry_group_IT_number 66
_symmetry_cell_setting 'orthorhombic'
loop_
_space_group_symop_operation_xyz
x,y,z
-x,-y,z
x,-y,1/2-z
-x,y,1/2-z
-x,-y,-z
x,y,-z
-x,y,1/2+z
x,-y,1/2+z
1/2+x,1/2+y,z
1/2-x,1/2-y,z
1/2+x,1/2-y,1/2-z
1/2-x,1/2+y,1/2-z
1/2-x,1/2-y,-z
1/2+x,1/2+y,-z
1/2-x,1/2+y,1/2+z
1/2+x,1/2-y,1/2+z
loop_
_atom_site_type_symbol
_atom_site_label
_atom_site_fract_x
_atom_site_fract_y
_atom_site_fract_z
Si Si1 0.264200 0.366337 0.238357
Si Si2 0.372193 0.169563 0.890245
Si Si3 0.676358 0.797296 0.396356
Si Si4 0.588022 0.276936 0.249022
Si Si5 0.283659 0.000000 0.750000
Si Si6 0.418256 0.967477 0.610418
O O1 0.215884 0.344296 0.147958
O O2 0.208115 0.347949 0.325212
O O3 0.344930 0.328752 0.243738
O O4 0.268765 0.439279 0.242333
O O5 0.402289 0.227401 0.831657
O O6 0.418437 0.105793 0.869072
O O7 0.373915 0.180160 0.000000
O O8 0.656785 0.818313 0.500000
O O9 0.750000 0.750000 0.402049
O O10 0.606538 0.761065 0.345076
O O11 0.500000 0.301903 0.250000
O O12 0.344455 0.002880 0.836371
O O13 0.408024 0.973904 0.500000
O O14 0.500000 0.000000 0.636776
#
# Coordination Sequence:
#
# PCOD9495918 Si02
#       6
#    16  16  16  16   8  16
#     4   9  19  33  49  70  94 124 163 200 234 281
#     4   9  18  33  52  72  96 128 160 191 236 292
#     4   8  15  30  50  69  90 116 147 187 235 283
#     4  10  20  32  47  71  99 124 158 202 241 279
#     4  10  19  32  49  66  92 130 164 194 233 276
#     4   9  18  31  48  74 102 124 152 190 235 291
#
# _framework density 16.531434000000001
#
# number of rings (size 3 to 8) (size 9 to 14) (size 15 to 20)
#    0.000    2.909    0.000    1.909    0.000    7.273 
#    0.000    2.273    0.000    0.000    0.000    0.000 
#    0.000   13.091    0.000    0.000    0.000    0.000 
#
# Total GULP energy -245158.323579 kJ/mol
# GULP energy per Si atom -5571.780081 kJ/mol
# Density = 1.649381 g / cm^3
# Si number density = 16.531434 Si / 1000 Ang^3
#
#
#
# Elastic Constant Matrix: (Units=GPa)
#
#
# Indices 1 2 3 4 5 6 
#
# 1 95.2368 52.5572 25.0861 0.0000 0.0000 0.0000
# 2 52.5572 90.3382 26.6383 0.0000 0.0000 0.0000
# 3 25.0861 26.6383 85.5584 0.0000 0.0000 0.0000
# 4 0.0000 0.0000 0.0000 17.8408 0.0000 0.0000
# 5 0.0000 0.0000 0.0000 0.0000 6.9898 0.0000
# 6 0.0000 0.0000 0.0000 0.0000 0.0000 19.4889
#
#
#
# Elastic Compliance Matrix: (Units=1/GPa)
#
#
# Indices 1 2 3 4 5 6 
#
# 1 0.015754 -0.008592 -0.001944 0.000000 0.000000 0.000000
# 2 -0.008592 0.016875 -0.002735 0.000000 0.000000 0.000000
# 3 -0.001944 -0.002735 0.013109 0.000000 0.000000 0.000000
# 4 0.000000 0.000000 0.000000 0.056051 0.000000 0.000000
# 5 0.000000 0.000000 0.000000 0.000000 0.143066 0.000000
# 6 0.000000 0.000000 0.000000 0.000000 0.000000 0.051311
#
#
# Mechanical properties :
#
#
# Convention : Reuss Voigt Hill
#
# Bulk Modulus (GPa) = 52.09307 53.29961 52.69634
# Shear Modulus (GPa) = 15.19266 19.98734 17.59000
#
# Velocity S-wave (km/s) = 3.03482 3.48091 3.26549
# Velocity P-wave (km/s) = 6.62270 6.96183 6.79438
#
# Compressibility (1/GPa) = 0.01919641
#
# Stress axis : x y z
#
# Youngs Moduli (GPa) = 63.47674 59.26071 76.28166
#
# Poissons Ratio (x) = 0.50917 0.14829
# Poissons Ratio (y) = 0.54540 0.20860
# Poissons Ratio (z) = 0.12340 0.16205
#
# Static dielectric constant tensor:
#      x y z
#    x 1.546610 0.000000 0.000000 
#    y 0.000000 1.561490 0.000000 
#    z 0.000000 0.000000 1.574980 
# 
# From -- ./inp_files/28237.got.cif
#   From: 2010.05.17/outbox.cif.g08.bks.cpg/sg66_15_cif.got.tgz:28237.got - 2010.06.03 17:51:23.
