data_PCOD9495692
_publ_section_title
;
Structure prediction by ZEFSAII (Michael W. Deem and Ramdas Pophale) SiO2 
 PCOD9495692
Probable space group: C C C M
;
_chemical_formula_sum "Si O2"
_cell_formula_units_Z 72
_cell_length_a 6.947071
_cell_length_b 12.297717
_cell_length_c 27.542688
_cell_angle_alpha 90.000000
_cell_angle_beta 90.000000
_cell_angle_gamma 90.000000
_cell_volume 2353.057580
_symmetry_space_group_name_H-M "C C C M"
_symmetry_group_IT_number 66
_symmetry_cell_setting 'orthorhombic'
loop_
_space_group_symop_operation_xyz
x,y,z
-x,-y,z
x,-y,1/2-z
-x,y,1/2-z
-x,-y,-z
x,y,-z
-x,y,1/2+z
x,-y,1/2+z
1/2+x,1/2+y,z
1/2-x,1/2-y,z
1/2+x,1/2-y,1/2-z
1/2-x,1/2+y,1/2-z
1/2-x,1/2-y,-z
1/2+x,1/2+y,-z
1/2-x,1/2+y,1/2+z
1/2+x,1/2-y,1/2+z
loop_
_atom_site_type_symbol
_atom_site_label
_atom_site_fract_x
_atom_site_fract_y
_atom_site_fract_z
Si Si1 0.628646 0.415417 0.323270
Si Si2 0.208061 0.593377 0.052517
Si Si3 0.750000 0.250000 0.241035
Si Si4 0.629401 0.649259 0.931567
Si Si5 0.117441 0.586271 0.164062
O O1 0.662066 0.342321 0.276157
O O2 0.616186 0.351599 0.373668
O O3 0.374576 0.444926 0.323392
O O4 0.875685 0.448248 0.330179
O O5 0.272707 0.465902 0.055426
O O6 0.411487 0.654054 0.051060
O O7 0.122584 0.615563 0.106199
O O8 0.110912 0.609507 0.000000
O O9 0.882332 0.317946 0.203475
O O10 0.750000 0.750000 0.948165
#
# Coordination Sequence:
#
# PCOD9495692 Si02
#       5
#    16  16   8  16  16
#     4  11  23  45  72 107 143 195 252 307 387 463
#     4  10  22  42  67  99 146 193 249 326 384 444
#     4  12  28  46  77 104 153 206 244 316 394 450
#     4  10  18  37  70 108 144 184 248 315 383 469
#     4  11  27  47  65 104 150 193 259 312 374 476
#
# _framework density 30.598486000000001
#
# number of rings (size 3 to 8) (size 9 to 14) (size 15 to 20)
#    0.000    1.333    5.556    2.000    0.000   12.889 
#    0.000    0.556    0.000    0.000    0.000    0.000 
#    0.000    0.000    0.000    0.000    0.000    0.000 
#
# Total GULP energy -201870.781534 kJ/mol
# GULP energy per Si atom -5607.521709 kJ/mol
# Density = 3.052884 g / cm^3
# Si number density = 30.598486 Si / 1000 Ang^3
#
#
#
# Elastic Constant Matrix: (Units=GPa)
#
#
# Indices 1 2 3 4 5 6 
#
# 1 228.8353 99.7164 98.8140 0.0000 0.0000 0.0000
# 2 99.7164 169.3105 117.0509 0.0000 0.0000 0.0000
# 3 98.8140 117.0509 377.5781 0.0000 0.0000 0.0000
# 4 0.0000 0.0000 0.0000 16.2699 0.0000 0.0000
# 5 0.0000 0.0000 0.0000 0.0000 33.5607 0.0000
# 6 0.0000 0.0000 0.0000 0.0000 0.0000 103.6343
#
#
#
# Elastic Compliance Matrix: (Units=1/GPa)
#
#
# Indices 1 2 3 4 5 6 
#
# 1 0.005985 -0.003108 -0.000603 0.000000 0.000000 0.000000
# 2 -0.003108 0.009131 -0.002017 0.000000 0.000000 0.000000
# 3 -0.000603 -0.002017 0.003432 0.000000 0.000000 0.000000
# 4 0.000000 0.000000 0.000000 0.061463 0.000000 0.000000
# 5 0.000000 0.000000 0.000000 0.000000 0.029797 0.000000
# 6 0.000000 0.000000 0.000000 0.000000 0.000000 0.009649
#
#
# Mechanical properties :
#
#
# Convention : Reuss Voigt Hill
#
# Bulk Modulus (GPa) = 141.01514 156.32072 148.66793
# Shear Modulus (GPa) = 37.51584 61.36913 49.44249
#
# Velocity S-wave (km/s) = 3.50532 4.48328 4.02412
# Velocity P-wave (km/s) = 7.91004 8.83167 8.38353
#
# Compressibility (1/GPa) = 0.00709144
#
# Stress axis : x y z
#
# Youngs Moduli (GPa) = 167.09792 109.51122 291.40908
#
# Poissons Ratio (x) = 0.34036 0.17563
# Poissons Ratio (y) = 0.51933 0.58790
# Poissons Ratio (z) = 0.10071 0.22093
#
# Static dielectric constant tensor:
#      x y z
#    x 3.220180 0.000000 0.000000 
#    y 0.000000 2.229340 0.000000 
#    z 0.000000 0.000000 2.060440 
# 
# From -- ./inp_files/68684.got.cif
#   From: 2010.05.17/outbox.cif.g08.bks.cpg/sg66_35_cif.got.tgz:68684.got - 2010.06.03 17:51:23.
