data_PCOD9495198
_publ_section_title
;
Structure prediction by ZEFSAII (Michael W. Deem and Ramdas Pophale) SiO2 
 PCOD9495198
Probable space group: C C C M
;
_chemical_formula_sum "Si O2"
_cell_formula_units_Z 116
_cell_length_a 18.443861
_cell_length_b 15.763032
_cell_length_c 19.131629
_cell_angle_alpha 90.000000
_cell_angle_beta 90.000000
_cell_angle_gamma 90.000000
_cell_volume 5562.160905
_symmetry_space_group_name_H-M "C C C M"
_symmetry_group_IT_number 66
_symmetry_cell_setting 'orthorhombic'
loop_
_space_group_symop_operation_xyz
x,y,z
-x,-y,z
x,-y,1/2-z
-x,y,1/2-z
-x,-y,-z
x,y,-z
-x,y,1/2+z
x,-y,1/2+z
1/2+x,1/2+y,z
1/2-x,1/2-y,z
1/2+x,1/2-y,1/2-z
1/2-x,1/2+y,1/2-z
1/2-x,1/2-y,-z
1/2+x,1/2+y,-z
1/2-x,1/2+y,1/2+z
1/2+x,1/2-y,1/2+z
loop_
_atom_site_type_symbol
_atom_site_label
_atom_site_fract_x
_atom_site_fract_y
_atom_site_fract_z
Si Si1 0.082020 0.532207 0.324352
Si Si2 0.750000 0.250000 0.500000
Si Si3 0.670288 0.816701 0.139855
Si Si4 0.637633 0.891689 0.417993
Si Si5 0.785951 0.159416 0.854653
Si Si6 0.933704 0.780823 0.416952
Si Si7 0.527969 0.408643 0.330121
Si Si8 0.685550 0.633309 0.798995
O O1 0.114112 0.500000 0.250000
O O2 0.098783 0.629429 0.342746
O O3 0.115148 0.480183 0.387442
O O4 0.000000 0.500000 0.322317
O O5 0.692966 0.216283 0.437178
O O6 0.669326 0.733664 0.188897
O O7 0.737429 0.877296 0.163374
O O8 0.630836 0.887791 0.500000
O O9 0.720957 0.880593 0.397334
O O10 0.586009 0.814670 0.391130
O O11 0.750000 0.250000 0.834357
O O12 0.857546 0.172075 0.900454
O O13 0.806304 0.114081 0.782633
O O14 0.948440 0.780214 0.500000
O O15 0.995497 0.831640 0.375544
O O16 0.500000 0.500000 0.355493
O O17 0.500000 0.397780 0.250000
O O18 0.615029 0.410938 0.330036
#
# Coordination Sequence:
#
# PCOD9495198 Si02
#       8
#    16   4  16  16  16  16  16  16
#     4  11  26  42  63 102 142 176 227 287 340 406
#     4   8  20  44  70  96 134 172 232 280 322 422
#     4  10  22  43  68  99 127 178 234 272 336 401
#     4  10  23  41  62  98 130 174 218 268 352 405
#     4  10  17  35  66  90 120 159 216 268 317 394
#     4  10  22  40  62  89 126 171 214 266 331 409
#     4  11  24  40  60  94 129 166 217 275 336 393
#     4  10  20  39  67  94 120 176 223 273 328 390
#
# _framework density 20.855205000000002
#
# number of rings (size 3 to 8) (size 9 to 14) (size 15 to 20)
#    0.000    1.931    2.759    1.241    4.828    3.310 
#    7.448    0.000    0.000    0.000    0.000    0.000 
#    0.000    0.000    0.000    0.000    0.000    0.000 
#
# Total GULP energy -323045.805320 kJ/mol
# GULP energy per Si atom -5569.755264 kJ/mol
# Density = 2.080774 g / cm^3
# Si number density = 20.855205 Si / 1000 Ang^3
#
#
#
# Elastic Constant Matrix: (Units=GPa)
#
#
# Indices 1 2 3 4 5 6 
#
# 1 57.7634 4.1007 -1.9033 0.0000 0.0000 0.0000
# 2 4.1007 45.7577 16.1982 0.0000 0.0000 0.0000
# 3 -1.9033 16.1982 66.4086 0.0000 0.0000 0.0000
# 4 0.0000 0.0000 0.0000 19.6138 0.0000 0.0000
# 5 0.0000 0.0000 0.0000 0.0000 12.1519 0.0000
# 6 0.0000 0.0000 0.0000 0.0000 0.0000 28.8333
#
#
#
# Elastic Compliance Matrix: (Units=1/GPa)
#
#
# Indices 1 2 3 4 5 6 
#
# 1 0.017479 -0.001909 0.000967 0.000000 0.000000 0.000000
# 2 -0.001909 0.024128 -0.005940 0.000000 0.000000 0.000000
# 3 0.000967 -0.005940 0.016535 0.000000 0.000000 0.000000
# 4 0.000000 0.000000 0.000000 0.050984 0.000000 0.000000
# 5 0.000000 0.000000 0.000000 0.000000 0.082292 0.000000
# 6 0.000000 0.000000 0.000000 0.000000 0.000000 0.034682
#
#
# Mechanical properties :
#
#
# Convention : Reuss Voigt Hill
#
# Bulk Modulus (GPa) = 22.53361 22.96898 22.75130
# Shear Modulus (GPa) = 19.63424 22.22208 20.92816
#
# Velocity S-wave (km/s) = 3.07164 3.26780 3.17124
# Velocity P-wave (km/s) = 4.83821 5.02748 4.93375
#
# Compressibility (1/GPa) = 0.04437815
#
# Stress axis : x y z
#
# Youngs Moduli (GPa) = 57.21045 41.44562 60.47837
#
# Poissons Ratio (x) = 0.07910 -0.05845
# Poissons Ratio (y) = 0.10919 0.35924
# Poissons Ratio (z) = -0.05529 0.24618
#
# Static dielectric constant tensor:
#      x y z
#    x 1.826830 0.000000 0.000000 
#    y 0.000000 1.826520 0.000000 
#    z 0.000000 0.000000 1.714460 
# 
# From -- ./inp_files/41869.got.cif
#   From: 2010.05.17/outbox.cif.g08.bks.cpg/sg66_21_cif.got.tgz:41869.got - 2010.06.03 17:51:23.
