data_PCOD9495996
_publ_section_title
;
Structure prediction by ZEFSAII (Michael W. Deem and Ramdas Pophale) SiO2 
 PCOD9495996
Probable space group: C C C M
;
_chemical_formula_sum "Si O2"
_cell_formula_units_Z 72
_cell_length_a 20.394742
_cell_length_b 9.784925
_cell_length_c 18.536073
_cell_angle_alpha 90.000000
_cell_angle_beta 90.000000
_cell_angle_gamma 90.000000
_cell_volume 3699.077651
_symmetry_space_group_name_H-M "C C C M"
_symmetry_group_IT_number 66
_symmetry_cell_setting 'orthorhombic'
loop_
_space_group_symop_operation_xyz
x,y,z
-x,-y,z
x,-y,1/2-z
-x,y,1/2-z
-x,-y,-z
x,y,-z
-x,y,1/2+z
x,-y,1/2+z
1/2+x,1/2+y,z
1/2-x,1/2-y,z
1/2+x,1/2-y,1/2-z
1/2-x,1/2+y,1/2-z
1/2-x,1/2-y,-z
1/2+x,1/2+y,-z
1/2-x,1/2+y,1/2+z
1/2+x,1/2-y,1/2+z
loop_
_atom_site_type_symbol
_atom_site_label
_atom_site_fract_x
_atom_site_fract_y
_atom_site_fract_z
Si Si1 0.436114 0.097823 0.805126
Si Si2 0.335482 0.075883 0.917825
Si Si3 0.120632 0.154800 0.729567
Si Si4 0.250000 0.250000 0.184589
Si Si5 0.827996 0.252383 0.081851
O O1 0.401536 0.128280 0.880145
O O2 0.432426 0.239369 0.761615
O O3 0.500000 0.000000 0.817701
O O4 0.394520 0.000000 0.750000
O O5 0.277177 0.130297 0.867364
O O6 0.343492 0.913114 0.915991
O O7 0.326229 0.119911 0.000000
O O8 0.189697 0.196903 0.767572
O O9 0.132347 0.176732 0.644403
O O10 0.105263 0.000000 0.750000
O O11 0.750000 0.250000 0.095337
O O12 0.839527 0.200836 0.000000
#
# Coordination Sequence:
#
# PCOD9495996 Si02
#       5
#    16  16  16   8  16
#     4  10  21  39  60  81 113 152 203 263 289 346
#     4  10  20  35  56  85 119 156 196 240 299 366
#     4  11  21  35  59  89 120 160 200 245 304 362
#     4  10  21  30  57  88 130 154 192 242 297 376
#     4  10  19  32  53  83 123 158 189 231 300 376
#
# _framework density 19.464310999999999
#
# number of rings (size 3 to 8) (size 9 to 14) (size 15 to 20)
#    0.000    1.778    3.333    1.667    0.000    0.444 
#    0.000    6.667    0.000    0.667    0.000    3.111 
#    0.000    0.000    0.000    0.000    0.000    0.000 
#
# Total GULP energy -200539.656731 kJ/mol
# GULP energy per Si atom -5570.546020 kJ/mol
# Density = 1.942001 g / cm^3
# Si number density = 19.464311 Si / 1000 Ang^3
#
#
#
# Elastic Constant Matrix: (Units=GPa)
#
#
# Indices 1 2 3 4 5 6 
#
# 1 83.7351 26.9633 37.6718 0.0000 0.0000 0.0000
# 2 26.9633 119.3711 41.6377 0.0000 0.0000 0.0000
# 3 37.6718 41.6377 137.5630 0.0000 0.0000 0.0000
# 4 0.0000 0.0000 0.0000 27.4147 0.0000 0.0000
# 5 0.0000 0.0000 0.0000 0.0000 1.4188 0.0000
# 6 0.0000 0.0000 0.0000 0.0000 0.0000 22.3647
#
#
#
# Elastic Compliance Matrix: (Units=1/GPa)
#
#
# Indices 1 2 3 4 5 6 
#
# 1 0.014055 -0.002048 -0.003229 0.000000 0.000000 0.000000
# 2 -0.002048 0.009665 -0.002364 0.000000 0.000000 0.000000
# 3 -0.003229 -0.002364 0.008869 0.000000 0.000000 0.000000
# 4 0.000000 0.000000 0.000000 0.036477 0.000000 0.000000
# 5 0.000000 0.000000 0.000000 0.000000 0.704831 0.000000
# 6 0.000000 0.000000 0.000000 0.000000 0.000000 0.044713
#
#
# Mechanical properties :
#
#
# Convention : Reuss Voigt Hill
#
# Bulk Modulus (GPa) = 57.78561 61.46832 59.62696
# Shear Modulus (GPa) = 5.95478 25.86607 15.91043
#
# Velocity S-wave (km/s) = 1.75099 3.64936 2.86215
# Velocity P-wave (km/s) = 5.81725 7.02892 6.45159
#
# Compressibility (1/GPa) = 0.01730535
#
# Stress axis : x y z
#
# Youngs Moduli (GPa) = 71.15075 103.47016 112.74886
#
# Poissons Ratio (x) = 0.21195 0.36405
# Poissons Ratio (y) = 0.14574 0.26658
# Poissons Ratio (z) = 0.22974 0.24464
#
# Static dielectric constant tensor:
#      x y z
#    x 1.792620 0.000000 0.000000 
#    y 0.000000 1.708320 0.000000 
#    z 0.000000 0.000000 1.715470 
# 
# From -- ./inp_files/52294.got.cif
#   From: 2010.05.17/outbox.cif.g08.bks.cpg/sg66_27_cif.got.tgz:52294.got - 2010.06.03 17:51:23.
