data_PCOD9495006
_publ_section_title
;
Structure prediction by ZEFSAII (Michael W. Deem and Ramdas Pophale) SiO2 
 PCOD9495006
Probable space group: C C C M
;
_chemical_formula_sum "Si O2"
_cell_formula_units_Z 52
_cell_length_a 19.353477
_cell_length_b 6.822649
_cell_length_c 13.528436
_cell_angle_alpha 90.000000
_cell_angle_beta 90.000000
_cell_angle_gamma 90.000000
_cell_volume 1786.321483
_symmetry_space_group_name_H-M "C C C M"
_symmetry_group_IT_number 66
_symmetry_cell_setting 'orthorhombic'
loop_
_space_group_symop_operation_xyz
x,y,z
-x,-y,z
x,-y,1/2-z
-x,y,1/2-z
-x,-y,-z
x,y,-z
-x,y,1/2+z
x,-y,1/2+z
1/2+x,1/2+y,z
1/2-x,1/2-y,z
1/2+x,1/2-y,1/2-z
1/2-x,1/2+y,1/2-z
1/2-x,1/2-y,-z
1/2+x,1/2+y,-z
1/2-x,1/2+y,1/2+z
1/2+x,1/2-y,1/2+z
loop_
_atom_site_type_symbol
_atom_site_label
_atom_site_fract_x
_atom_site_fract_y
_atom_site_fract_z
Si Si1 0.849886 0.703305 0.612593
Si Si2 0.492308 0.225765 0.887243
Si Si3 0.750000 0.250000 0.500000
Si Si4 0.847554 0.238409 0.672898
O O1 0.823120 0.716893 0.500000
O O2 0.849185 0.468782 0.637072
O O3 0.821813 0.789237 0.715372
O O4 0.928244 0.785572 0.608577
O O5 0.429267 0.313179 0.826777
O O6 0.500000 0.000000 0.857530
O O7 0.466399 0.233103 0.000000
O O8 0.799521 0.151570 0.587805
#
# Coordination Sequence:
#
# PCOD9495006 Si02
#       4
#    16  16   4  16
#     4   9  16  27  43  60  78 113 157 186 202 241
#     4   8  12  22  39  60  82 107 146 181 201 236
#     4  12  20  28  36  60  92 126 142 170 220 272
#     4  10  17  26  39  59  90 119 148 174 210 260
#
# _framework density 29.110104
#
# number of rings (size 3 to 8) (size 9 to 14) (size 15 to 20)
#    0.000    2.769    3.077    2.769    0.000    3.692 
#    0.000    0.769    0.000    0.000    0.000    0.000 
#    0.000    0.000    0.000   66.462    0.000    0.000 
#
# Total GULP energy -144805.321744 kJ/mol
# GULP energy per Si atom -5569.435452 kJ/mol
# Density = 2.904385 g / cm^3
# Si number density = 29.110104 Si / 1000 Ang^3
#
#
#
# Elastic Constant Matrix: (Units=GPa)
#
#
# Indices 1 2 3 4 5 6 
#
# 1 216.8990 -12.7896 61.7377 0.0000 0.0000 0.0000
# 2 -12.7896 132.8414 29.4836 0.0000 0.0000 0.0000
# 3 61.7377 29.4836 402.5134 0.0000 0.0000 0.0000
# 4 0.0000 0.0000 0.0000 21.1375 0.0000 0.0000
# 5 0.0000 0.0000 0.0000 0.0000 -37.9384 0.0000
# 6 0.0000 0.0000 0.0000 0.0000 0.0000 -1.8391
#
#
#
# Elastic Compliance Matrix: (Units=1/GPa)
#
#
# Indices 1 2 3 4 5 6 
#
# 1 0.004875 0.000646 -0.000795 0.000000 0.000000 0.000000
# 2 0.000646 0.007738 -0.000666 0.000000 0.000000 0.000000
# 3 -0.000795 -0.000666 0.002655 0.000000 0.000000 0.000000
# 4 0.000000 0.000000 0.000000 0.047309 0.000000 0.000000
# 5 0.000000 0.000000 0.000000 0.000000 -0.026359 0.000000
# 6 0.000000 0.000000 0.000000 0.000000 0.000000 -0.543738
#
#
# Mechanical properties :
#
#
# Convention : Reuss Voigt Hill
#
# Bulk Modulus (GPa) = 73.32705 101.01302 87.17003
# Shear Modulus (GPa) = -9.97320 41.19347 15.61014
#
# Velocity S-wave (km/s) = -1.85296 3.76585 2.31821
# Velocity P-wave (km/s) = 4.54602 7.32697 6.09716
#
# Compressibility (1/GPa) = 0.01363753
#
# Stress axis : x y z
#
# Youngs Moduli (GPa) = 205.13634 129.23690 376.63390
#
# Poissons Ratio (x) = -0.08346 0.29942
# Poissons Ratio (y) = -0.13247 0.25077
# Poissons Ratio (z) = 0.16308 0.08605
#
# Static dielectric constant tensor:
#      x y z
#    x 2.294420 0.000000 0.000000 
#    y 0.000000 2.524680 0.000000 
#    z 0.000000 0.000000 2.226830 
# 
# From -- ./inp_files/23726.got.cif
#   From: 2010.05.17/outbox.cif.g08.bks.cpg/sg66_12_cif.got.tgz:23726.got - 2010.06.03 17:51:23.
