data_PCOD9495784
_publ_section_title
;
Structure prediction by ZEFSAII (Michael W. Deem and Ramdas Pophale) SiO2 
 PCOD9495784
Probable space group: C C C M
;
_chemical_formula_sum "Si O2"
_cell_formula_units_Z 56
_cell_length_a 5.416207
_cell_length_b 19.027626
_cell_length_c 25.954465
_cell_angle_alpha 90.000000
_cell_angle_beta 90.000000
_cell_angle_gamma 90.000000
_cell_volume 2674.803863
_symmetry_space_group_name_H-M "C C C M"
_symmetry_group_IT_number 66
_symmetry_cell_setting 'orthorhombic'
loop_
_space_group_symop_operation_xyz
x,y,z
-x,-y,z
x,-y,1/2-z
-x,y,1/2-z
-x,-y,-z
x,y,-z
-x,y,1/2+z
x,-y,1/2+z
1/2+x,1/2+y,z
1/2-x,1/2-y,z
1/2+x,1/2-y,1/2-z
1/2-x,1/2+y,1/2-z
1/2-x,1/2-y,-z
1/2+x,1/2+y,-z
1/2-x,1/2+y,1/2+z
1/2+x,1/2-y,1/2+z
loop_
_atom_site_type_symbol
_atom_site_label
_atom_site_fract_x
_atom_site_fract_y
_atom_site_fract_z
Si Si1 0.250000 0.250000 0.369629
Si Si2 0.955444 0.838070 0.061372
Si Si3 0.747104 0.830396 0.731151
Si Si4 0.531496 0.920804 0.437888
O O1 0.025207 0.231241 0.406828
O O2 0.270852 0.185739 0.329306
O O3 0.197436 0.887734 0.070083
O O4 0.704842 0.875314 0.079128
O O5 0.942343 0.823233 0.000000
O O6 0.500000 0.866310 0.750000
O O7 0.750000 0.750000 0.755599
O O8 0.000000 0.863621 0.750000
O O9 0.505248 0.923812 0.500000
O O10 0.500000 0.000000 0.417868
#
# Coordination Sequence:
#
# PCOD9495784 Si02
#       4
#     8  16  16  16
#     4  10  19  30  46  70 104 124 141 186 246 294
#     4  10  20  30  45  69  96 127 155 185 233 287
#     4   8  16  29  44  62  88 121 156 184 213 272
#     4   9  18  33  48  61  84 124 171 204 219 248
#
# _framework density 20.936114
#
# number of rings (size 3 to 8) (size 9 to 14) (size 15 to 20)
#    0.857    2.000    0.000    1.286    0.000    9.143 
#    0.000    4.286    0.000    0.000    0.000    0.000 
#    0.000   68.571    0.000    0.000    0.000    0.000 
#
# Total GULP energy -155943.802770 kJ/mol
# GULP energy per Si atom -5569.421528 kJ/mol
# Density = 2.088846 g / cm^3
# Si number density = 20.936114 Si / 1000 Ang^3
#
#
#
# Elastic Constant Matrix: (Units=GPa)
#
#
# Indices 1 2 3 4 5 6 
#
# 1 186.5192 62.3621 26.5892 0.0000 0.0000 0.0000
# 2 62.3621 71.2509 27.1708 0.0000 0.0000 0.0000
# 3 26.5892 27.1708 75.8658 0.0000 0.0000 0.0000
# 4 0.0000 0.0000 0.0000 1.4263 0.0000 0.0000
# 5 0.0000 0.0000 0.0000 0.0000 -37.3451 0.0000
# 6 0.0000 0.0000 0.0000 0.0000 0.0000 20.9989
#
#
#
# Elastic Compliance Matrix: (Units=1/GPa)
#
#
# Indices 1 2 3 4 5 6 
#
# 1 0.007586 -0.006516 -0.000325 0.000000 0.000000 0.000000
# 2 -0.006516 0.021851 -0.005542 0.000000 0.000000 0.000000
# 3 -0.000325 -0.005542 0.015280 0.000000 0.000000 0.000000
# 4 0.000000 0.000000 0.000000 0.701098 0.000000 0.000000
# 5 0.000000 0.000000 0.000000 0.000000 -0.026777 0.000000
# 6 0.000000 0.000000 0.000000 0.000000 0.000000 0.047622
#
#
# Mechanical properties :
#
#
# Convention : Reuss Voigt Hill
#
# Bulk Modulus (GPa) = 50.12258 62.87556 56.49907
# Shear Modulus (GPa) = 6.26506 11.51693 8.89100
#
# Velocity S-wave (km/s) = 1.73175 2.34796 2.06299
# Velocity P-wave (km/s) = 5.29068 6.11947 5.72010
#
# Compressibility (1/GPa) = 0.01995109
#
# Stress axis : x y z
#
# Youngs Moduli (GPa) = 131.81662 45.76376 65.44471
#
# Poissons Ratio (x) = 0.29819 0.02128
# Poissons Ratio (y) = 0.85890 0.36271
# Poissons Ratio (z) = 0.04287 0.25363
#
# Static dielectric constant tensor:
#      x y z
#    x 1.791880 0.000000 0.000000 
#    y 0.000000 1.813970 0.000000 
#    z 0.000000 0.000000 1.752520 
# 
# From -- ./inp_files/61186.got.cif
#   From: 2010.05.17/outbox.cif.g08.bks.cpg/sg66_31_cif.got.tgz:61186.got - 2010.06.03 17:51:23.
