data_PCOD9495767
_publ_section_title
;
Structure prediction by ZEFSAII (Michael W. Deem and Ramdas Pophale) SiO2 
 PCOD9495767
Probable space group: C C C M
;
_chemical_formula_sum "Si O2"
_cell_formula_units_Z 84
_cell_length_a 13.759957
_cell_length_b 27.834952
_cell_length_c 9.349584
_cell_angle_alpha 90.000000
_cell_angle_beta 90.000000
_cell_angle_gamma 90.000000
_cell_volume 3580.963062
_symmetry_space_group_name_H-M "C C C M"
_symmetry_group_IT_number 66
_symmetry_cell_setting 'orthorhombic'
loop_
_space_group_symop_operation_xyz
x,y,z
-x,-y,z
x,-y,1/2-z
-x,y,1/2-z
-x,-y,-z
x,y,-z
-x,y,1/2+z
x,-y,1/2+z
1/2+x,1/2+y,z
1/2-x,1/2-y,z
1/2+x,1/2-y,1/2-z
1/2-x,1/2+y,1/2-z
1/2-x,1/2-y,-z
1/2+x,1/2+y,-z
1/2-x,1/2+y,1/2+z
1/2+x,1/2-y,1/2+z
loop_
_atom_site_type_symbol
_atom_site_label
_atom_site_fract_x
_atom_site_fract_y
_atom_site_fract_z
Si Si1 0.000000 0.000000 0.250000
Si Si2 0.629147 0.844617 0.660486
Si Si3 0.631871 0.753945 0.160533
Si Si4 0.652828 0.427008 0.340616
Si Si5 0.134571 0.837331 0.160307
Si Si6 0.845757 0.453050 0.829522
O O1 0.930679 0.966279 0.158403
O O2 0.593600 0.832873 0.500000
O O3 0.603199 0.806229 0.781088
O O4 0.747238 0.839995 0.653061
O O5 0.606651 0.900437 0.692188
O O6 0.750000 0.750000 0.153821
O O7 0.605264 0.713865 0.276771
O O8 0.595895 0.744858 0.000000
O O9 0.691629 0.418340 0.500000
O O10 0.610689 0.378614 0.272796
O O11 0.738594 0.445404 0.237705
O O12 0.097801 0.845987 0.000000
O O13 0.887002 0.500000 0.750000
O O14 0.840548 0.461373 0.000000
#
# Coordination Sequence:
#
# PCOD9495767 Si02
#       6
#     4  16  16  16  16  16
#     4  12  26  36  48  62  78 100 134 176 224 256
#     4   8  15  25  37  55  77 100 123 150 187 231
#     4   9  15  23  38  59  78  96 119 147 184 230
#     4  11  22  34  47  59  74  95 127 167 208 252
#     4   9  17  29  43  57  76  96 118 150 195 242
#     4  10  19  30  43  58  78 103 132 164 201 241
#
# _framework density 23.457377999999999
#
# number of rings (size 3 to 8) (size 9 to 14) (size 15 to 20)
#    0.000    2.476    0.952    3.714    0.000    9.905 
#    0.000    0.000    0.000    0.000    0.000    0.000 
#    0.000    0.000    0.000    0.000    0.000    0.000 
#
# Total GULP energy -234763.356918 kJ/mol
# GULP energy per Si atom -5589.603736 kJ/mol
# Density = 2.340399 g / cm^3
# Si number density = 23.457378 Si / 1000 Ang^3
#
#
#
# Elastic Constant Matrix: (Units=GPa)
#
#
# Indices 1 2 3 4 5 6 
#
# 1 71.3183 -9.6882 15.8783 0.0000 0.0000 0.0000
# 2 -9.6882 160.7640 93.1184 0.0000 0.0000 0.0000
# 3 15.8783 93.1184 160.4633 0.0000 0.0000 0.0000
# 4 0.0000 0.0000 0.0000 51.0731 0.0000 0.0000
# 5 0.0000 0.0000 0.0000 0.0000 8.7442 0.0000
# 6 0.0000 0.0000 0.0000 0.0000 0.0000 -12.8205
#
#
#
# Elastic Compliance Matrix: (Units=1/GPa)
#
#
# Indices 1 2 3 4 5 6 
#
# 1 0.015060 0.002667 -0.003038 0.000000 0.000000 0.000000
# 2 0.002667 0.009842 -0.005975 0.000000 0.000000 0.000000
# 3 -0.003038 -0.005975 0.010000 0.000000 0.000000 0.000000
# 4 0.000000 0.000000 0.000000 0.019580 0.000000 0.000000
# 5 0.000000 0.000000 0.000000 0.000000 0.114362 0.000000
# 6 0.000000 0.000000 0.000000 0.000000 0.000000 -0.078000
#
#
# Mechanical properties :
#
#
# Convention : Reuss Voigt Hill
#
# Bulk Modulus (GPa) = 45.02419 65.68473 55.35446
# Shear Modulus (GPa) = 45.06929 28.94850 37.00890
#
# Velocity S-wave (km/s) = 4.38805 3.51677 3.97635
# Velocity P-wave (km/s) = 6.70142 6.67479 6.68812
#
# Compressibility (1/GPa) = 0.02221029
#
# Stress axis : x y z
#
# Youngs Moduli (GPa) = 66.39926 101.60362 99.99796
#
# Poissons Ratio (x) = -0.27102 0.30381
# Poissons Ratio (y) = -0.17711 0.59753
# Poissons Ratio (z) = 0.20173 0.60713
#
# Static dielectric constant tensor:
#      x y z
#    x 1.950290 0.000000 0.000000 
#    y 0.000000 1.888190 0.000000 
#    z 0.000000 0.000000 1.827740 
# 
# From -- ./inp_files/9252.got.cif
#   From: 2010.05.17/outbox.cif.g08.bks.cpg/sg66_5_cif.got.tgz:9252.got - 2010.06.03 17:51:23.
