data_PCOD9495467
_publ_section_title
;
Structure prediction by ZEFSAII (Michael W. Deem and Ramdas Pophale) SiO2 
 PCOD9495467
Probable space group: C C C M
;
_chemical_formula_sum "Si O2"
_cell_formula_units_Z 104
_cell_length_a 30.096288
_cell_length_b 21.188862
_cell_length_c 8.147062
_cell_angle_alpha 90.000000
_cell_angle_beta 90.000000
_cell_angle_gamma 90.000000
_cell_volume 5195.431079
_symmetry_space_group_name_H-M "C C C M"
_symmetry_group_IT_number 66
_symmetry_cell_setting 'orthorhombic'
loop_
_space_group_symop_operation_xyz
x,y,z
-x,-y,z
x,-y,1/2-z
-x,y,1/2-z
-x,-y,-z
x,y,-z
-x,y,1/2+z
x,-y,1/2+z
1/2+x,1/2+y,z
1/2-x,1/2-y,z
1/2+x,1/2-y,1/2-z
1/2-x,1/2+y,1/2-z
1/2-x,1/2-y,-z
1/2+x,1/2+y,-z
1/2-x,1/2+y,1/2+z
1/2+x,1/2-y,1/2+z
loop_
_atom_site_type_symbol
_atom_site_label
_atom_site_fract_x
_atom_site_fract_y
_atom_site_fract_z
Si Si1 0.949862 0.299605 0.306635
Si Si2 0.847205 0.070073 0.304534
Si Si3 0.245874 0.598704 0.695516
Si Si4 0.622099 0.698952 0.304516
Si Si5 0.675312 0.000000 0.750000
Si Si6 0.882094 0.604725 0.686925
Si Si7 0.806386 0.288706 0.189521
O O1 0.948244 0.308576 0.500000
O O2 0.918635 0.239804 0.263249
O O3 0.928540 0.362475 0.226287
O O4 0.000000 0.289335 0.250000
O O5 0.848196 0.073914 0.500000
O O6 0.795964 0.083473 0.253719
O O7 0.877863 0.125370 0.234557
O O8 0.859501 0.000000 0.250000
O O9 0.239556 0.584032 0.500000
O O10 0.212319 0.553401 0.798609
O O11 0.232214 0.671618 0.723818
O O12 0.622666 0.708435 0.500000
O O13 0.669359 0.727107 0.239120
O O14 0.638479 0.052067 0.693506
O O15 0.880940 0.578935 0.500000
O O16 0.847771 0.662723 0.692017
O O17 0.793832 0.278501 0.000000
#
# Coordination Sequence:
#
# PCOD9495467 Si02
#       7
#    16  16  16  16   8  16  16
#     4  11  22  39  64  90 115 143 181 231 289 351
#     4  11  23  38  55  80 113 152 194 236 283 336
#     4  10  20  32  50  76 108 150 199 243 280 326
#     4  10  21  39  60  84 113 146 184 231 287 343
#     4  10  18  32  53  78 112 160 203 246 282 328
#     4   9  18  32  52  80 114 151 193 238 287 340
#     4   8  17  32  51  75 106 144 186 233 283 332
#
# _framework density 20.017588
#
# number of rings (size 3 to 8) (size 9 to 14) (size 15 to 20)
#    0.000    2.154    0.769    3.692    0.000    9.231 
#    0.000    3.462    0.000    2.308    0.000    3.231 
#    0.000    0.000    0.000    0.000    0.000    0.000 
#
# Total GULP energy -289470.261861 kJ/mol
# GULP energy per Si atom -5566.735805 kJ/mol
# Density = 1.997203 g / cm^3
# Si number density = 20.017588 Si / 1000 Ang^3
#
#
#
# Elastic Constant Matrix: (Units=GPa)
#
#
# Indices 1 2 3 4 5 6 
#
# 1 102.2224 34.5401 14.8047 0.0000 0.0000 0.0000
# 2 34.5401 84.3452 1.6693 0.0000 0.0000 0.0000
# 3 14.8047 1.6693 57.7637 0.0000 0.0000 0.0000
# 4 0.0000 0.0000 0.0000 19.9290 0.0000 0.0000
# 5 0.0000 0.0000 0.0000 0.0000 8.2935 0.0000
# 6 0.0000 0.0000 0.0000 0.0000 0.0000 34.1210
#
#
#
# Elastic Compliance Matrix: (Units=1/GPa)
#
#
# Indices 1 2 3 4 5 6 
#
# 1 0.011817 -0.004782 -0.002890 0.000000 0.000000 0.000000
# 2 -0.004782 0.013798 0.000827 0.000000 0.000000 0.000000
# 3 -0.002890 0.000827 0.018029 0.000000 0.000000 0.000000
# 4 0.000000 0.000000 0.000000 0.050178 0.000000 0.000000
# 5 0.000000 0.000000 0.000000 0.000000 0.120576 0.000000
# 6 0.000000 0.000000 0.000000 0.000000 0.000000 0.029307
#
#
# Mechanical properties :
#
#
# Convention : Reuss Voigt Hill
#
# Bulk Modulus (GPa) = 33.38608 38.48441 35.93524
# Shear Modulus (GPa) = 18.69992 25.35651 22.02822
#
# Velocity S-wave (km/s) = 3.05974 3.56295 3.32089
# Velocity P-wave (km/s) = 5.40345 6.01608 5.71797
#
# Compressibility (1/GPa) = 0.02995260
#
# Stress axis : x y z
#
# Youngs Moduli (GPa) = 84.62389 72.47470 55.46667
#
# Poissons Ratio (x) = 0.34657 0.16033
# Poissons Ratio (y) = 0.40467 -0.04586
# Poissons Ratio (z) = 0.24460 -0.05993
#
# Static dielectric constant tensor:
#      x y z
#    x 1.734210 0.000000 0.000000 
#    y 0.000000 1.744450 0.000000 
#    z 0.000000 0.000000 1.777870 
# 
# From -- ./inp_files/10358.got.cif
#   From: 2010.05.17/outbox.cif.g08.bks.cpg/sg66_6_cif.got.tgz:10358.got - 2010.06.03 17:51:23.
