data_PCOD9495657
_publ_section_title
;
Structure prediction by ZEFSAII (Michael W. Deem and Ramdas Pophale) SiO2 
 PCOD9495657
Probable space group: C C C M
;
_chemical_formula_sum "Si O2"
_cell_formula_units_Z 112
_cell_length_a 15.033482
_cell_length_b 13.640784
_cell_length_c 23.875027
_cell_angle_alpha 90.000000
_cell_angle_beta 90.000000
_cell_angle_gamma 90.000000
_cell_volume 4896.015514
_symmetry_space_group_name_H-M "C C C M"
_symmetry_group_IT_number 66
_symmetry_cell_setting 'orthorhombic'
loop_
_space_group_symop_operation_xyz
x,y,z
-x,-y,z
x,-y,1/2-z
-x,y,1/2-z
-x,-y,-z
x,y,-z
-x,y,1/2+z
x,-y,1/2+z
1/2+x,1/2+y,z
1/2-x,1/2-y,z
1/2+x,1/2-y,1/2-z
1/2-x,1/2+y,1/2-z
1/2-x,1/2-y,-z
1/2+x,1/2+y,-z
1/2-x,1/2+y,1/2+z
1/2+x,1/2-y,1/2+z
loop_
_atom_site_type_symbol
_atom_site_label
_atom_site_fract_x
_atom_site_fract_y
_atom_site_fract_z
Si Si1 0.561359 0.352136 0.148880
Si Si2 0.591166 0.913875 0.215107
Si Si3 0.382174 0.201340 0.434129
Si Si4 0.158609 0.782459 0.249409
Si Si5 0.055444 0.588356 0.586257
Si Si6 0.271059 0.998791 0.936943
Si Si7 0.129275 0.932328 0.654582
O O1 0.623096 0.301454 0.101538
O O2 0.580166 0.289353 0.204269
O O3 0.457769 0.370090 0.134916
O O4 0.595610 0.458640 0.167541
O O5 0.500000 0.902080 0.250000
O O6 0.640423 0.811660 0.212863
O O7 0.571850 0.937036 0.151213
O O8 0.639890 0.000000 0.250000
O O9 0.369060 0.218400 0.500000
O O10 0.485888 0.175096 0.421333
O O11 0.321024 0.105115 0.419695
O O12 0.250000 0.750000 0.219242
O O13 0.163339 0.875466 0.290397
O O14 0.152000 0.581665 0.560540
O O15 0.000000 0.500000 0.560058
O O16 0.201078 0.043416 0.893282
O O17 0.235201 0.983436 0.000000
#
# Coordination Sequence:
#
# PCOD9495657 Si02
#       7
#    16  16  16  16  16  16  16
#     4  11  26  45  69  96 138 193 240 295 359 441
#     4  11  21  36  61 100 134 177 223 283 348 436
#     4  10  22  41  69 104 142 189 244 308 371 439
#     4  12  26  41  68 100 136 180 228 288 361 437
#     4  10  18  35  63  98 144 179 226 291 377 438
#     4  10  23  41  69 103 140 187 246 312 371 440
#     4  11  25  47  68  96 141 190 242 294 362 440
#
# _framework density 22.875744000000001
#
# number of rings (size 3 to 8) (size 9 to 14) (size 15 to 20)
#    0.000    1.286    1.429    4.714    4.000    5.143 
#    0.000    2.857    0.000    4.714    0.000    0.000 
#    0.000    0.000    0.000    0.000    0.000    0.000 
#
# Total GULP energy -312281.788565 kJ/mol
# GULP energy per Si atom -5576.460510 kJ/mol
# Density = 2.282368 g / cm^3
# Si number density = 22.875744 Si / 1000 Ang^3
#
#
#
# Elastic Constant Matrix: (Units=GPa)
#
#
# Indices 1 2 3 4 5 6 
#
# 1 110.1902 32.3831 39.4658 0.0000 0.0000 0.0000
# 2 32.3831 111.5352 40.2111 0.0000 0.0000 0.0000
# 3 39.4658 40.2111 148.9537 0.0000 0.0000 0.0000
# 4 0.0000 0.0000 0.0000 61.6369 0.0000 0.0000
# 5 0.0000 0.0000 0.0000 0.0000 -5.9406 0.0000
# 6 0.0000 0.0000 0.0000 0.0000 0.0000 6.3835
#
#
#
# Elastic Compliance Matrix: (Units=1/GPa)
#
#
# Indices 1 2 3 4 5 6 
#
# 1 0.010521 -0.002271 -0.002175 0.000000 0.000000 0.000000
# 2 -0.002271 0.010423 -0.002212 0.000000 0.000000 0.000000
# 3 -0.002175 -0.002212 0.007887 0.000000 0.000000 0.000000
# 4 0.000000 0.000000 0.000000 0.016224 0.000000 0.000000
# 5 0.000000 0.000000 0.000000 0.000000 -0.168333 0.000000
# 6 0.000000 0.000000 0.000000 0.000000 0.000000 0.156655
#
#
# Mechanical properties :
#
#
# Convention : Reuss Voigt Hill
#
# Bulk Modulus (GPa) = 64.44988 66.08879 65.26934
# Shear Modulus (GPa) = 96.40670 29.65722 63.03196
#
# Velocity S-wave (km/s) = 6.49886 3.60453 5.25489
# Velocity P-wave (km/s) = 9.19503 6.80269 8.08780
#
# Compressibility (1/GPa) = 0.01551593
#
# Stress axis : x y z
#
# Youngs Moduli (GPa) = 95.04403 95.94581 126.79365
#
# Poissons Ratio (x) = 0.21787 0.27574
# Poissons Ratio (y) = 0.21582 0.28047
# Poissons Ratio (z) = 0.20669 0.21223
#
# Static dielectric constant tensor:
#      x y z
#    x 2.064850 0.000000 0.000000 
#    y 0.000000 2.186370 0.000000 
#    z 0.000000 0.000000 1.852110 
# 
# From -- ./inp_files/58219.got.cif
#   From: 2010.05.17/outbox.cif.g08.bks.cpg/sg66_30_cif.got.tgz:58219.got - 2010.06.03 17:51:23.
