data_PCOD9495248
_publ_section_title
;
Structure prediction by ZEFSAII (Michael W. Deem and Ramdas Pophale) SiO2 
 PCOD9495248
Probable space group: C C C M
;
_chemical_formula_sum "Si O2"
_cell_formula_units_Z 128
_cell_length_a 17.256785
_cell_length_b 23.923565
_cell_length_c 16.455904
_cell_angle_alpha 90.000000
_cell_angle_beta 90.000000
_cell_angle_gamma 90.000000
_cell_volume 6793.718230
_symmetry_space_group_name_H-M "C C C M"
_symmetry_group_IT_number 66
_symmetry_cell_setting 'orthorhombic'
loop_
_space_group_symop_operation_xyz
x,y,z
-x,-y,z
x,-y,1/2-z
-x,y,1/2-z
-x,-y,-z
x,y,-z
-x,y,1/2+z
x,-y,1/2+z
1/2+x,1/2+y,z
1/2-x,1/2-y,z
1/2+x,1/2-y,1/2-z
1/2-x,1/2+y,1/2-z
1/2-x,1/2-y,-z
1/2+x,1/2+y,-z
1/2-x,1/2+y,1/2+z
1/2+x,1/2-y,1/2+z
loop_
_atom_site_type_symbol
_atom_site_label
_atom_site_fract_x
_atom_site_fract_y
_atom_site_fract_z
Si Si1 0.639756 0.450900 0.181525
Si Si2 0.100769 0.349782 0.098799
Si Si3 0.029789 0.562868 0.098115
Si Si4 0.235331 0.579379 0.408121
Si Si5 0.088579 0.951417 0.405294
Si Si6 0.660230 0.730577 0.903582
Si Si7 0.425632 0.357198 0.209413
Si Si8 0.184314 0.470935 0.661901
O O1 0.633115 0.500000 0.250000
O O2 0.588385 0.482157 0.112837
O O3 0.615421 0.392286 0.219141
O O4 0.729883 0.445647 0.158010
O O5 0.181178 0.375308 0.133704
O O6 0.105158 0.284097 0.113017
O O7 0.030178 0.389138 0.125467
O O8 0.102324 0.356081 0.000000
O O9 0.113226 0.568162 0.140050
O O10 0.000000 0.500000 0.118233
O O11 0.037301 0.565741 0.000000
O O12 0.245505 0.598029 0.500000
O O13 0.321563 0.565124 0.381965
O O14 0.186743 0.522300 0.401828
O O15 0.076168 0.941963 0.500000
O O16 0.044066 0.907184 0.349895
O O17 0.750000 0.750000 0.892151
O O18 0.630235 0.682155 0.843837
O O19 0.653280 0.715257 0.000000
O O20 0.500000 0.327804 0.250000
O O21 0.175505 0.500000 0.750000
#
# Coordination Sequence:
#
# PCOD9495248 Si02
#       8
#    16  16  16  16  16  16  16  16
#     4   8  18  34  51  77 111 150 183 220 278 343
#     4   9  17  30  50  77 103 131 175 228 278 324
#     4  10  18  30  48  72 107 150 182 214 273 335
#     4   9  15  28  50  74 103 137 172 216 267 319
#     4   9  17  31  56  84 107 138 185 227 267 330
#     4  10  21  39  64  86 103 134 194 259 296 327
#     4  11  22  38  56  78 114 149 174 221 299 358
#     4  10  18  28  44  70 110 150 181 210 253 328
#
# _framework density 18.840935000000002
#
# number of rings (size 3 to 8) (size 9 to 14) (size 15 to 20)
#    0.000    2.500    1.250    2.250    0.000    5.000 
#    0.000    4.375    0.000    0.000    0.000    0.000 
#    0.000    5.500    0.000    0.000    0.000    0.000 
#
# Total GULP energy -356424.425995 kJ/mol
# GULP energy per Si atom -5569.131656 kJ/mol
# Density = 1.879805 g / cm^3
# Si number density = 18.840935 Si / 1000 Ang^3
#
#
#
# Elastic Constant Matrix: (Units=GPa)
#
#
# Indices 1 2 3 4 5 6 
#
# 1 70.7651 44.8883 23.2996 0.0000 0.0000 0.0000
# 2 44.8883 101.4669 21.6664 0.0000 0.0000 0.0000
# 3 23.2996 21.6664 49.4037 0.0000 0.0000 0.0000
# 4 0.0000 0.0000 0.0000 27.7529 0.0000 0.0000
# 5 0.0000 0.0000 0.0000 0.0000 22.1556 0.0000
# 6 0.0000 0.0000 0.0000 0.0000 0.0000 30.0928
#
#
#
# Elastic Compliance Matrix: (Units=1/GPa)
#
#
# Indices 1 2 3 4 5 6 
#
# 1 0.021410 -0.008072 -0.006558 0.000000 0.000000 0.000000
# 2 -0.008072 0.013917 -0.002297 0.000000 0.000000 0.000000
# 3 -0.006558 -0.002297 0.024341 0.000000 0.000000 0.000000
# 4 0.000000 0.000000 0.000000 0.036032 0.000000 0.000000
# 5 0.000000 0.000000 0.000000 0.000000 0.045135 0.000000
# 6 0.000000 0.000000 0.000000 0.000000 0.000000 0.033231
#
#
# Mechanical properties :
#
#
# Convention : Reuss Voigt Hill
#
# Bulk Modulus (GPa) = 38.73454 44.59380 41.66417
# Shear Modulus (GPa) = 23.09218 24.78568 23.93893
#
# Velocity S-wave (km/s) = 3.50471 3.63095 3.56839
# Velocity P-wave (km/s) = 6.08117 6.42638 6.25616
#
# Compressibility (1/GPa) = 0.02581675
#
# Stress axis : x y z
#
# Youngs Moduli (GPa) = 46.70632 71.85650 41.08247
#
# Poissons Ratio (x) = 0.57999 0.26940
# Poissons Ratio (y) = 0.37699 0.09435
# Poissons Ratio (z) = 0.30628 0.16502
#
# Static dielectric constant tensor:
#      x y z
#    x 1.730730 0.000000 0.000000 
#    y 0.000000 1.691620 0.000000 
#    z 0.000000 0.000000 1.683510 
# 
# From -- ./inp_files/42155.got.cif
#   From: 2010.05.17/outbox.cif.g08.bks.cpg/sg66_22_cif.got.tgz:42155.got - 2010.06.03 17:51:23.
