data_PCOD9495665
_publ_section_title
;
Structure prediction by ZEFSAII (Michael W. Deem and Ramdas Pophale) SiO2 
 PCOD9495665
Probable space group: C C C M
;
_chemical_formula_sum "Si O2"
_cell_formula_units_Z 104
_cell_length_a 22.522778
_cell_length_b 10.386551
_cell_length_c 25.612525
_cell_angle_alpha 90.000000
_cell_angle_beta 90.000000
_cell_angle_gamma 90.000000
_cell_volume 5991.639972
_symmetry_space_group_name_H-M "C C C M"
_symmetry_group_IT_number 66
_symmetry_cell_setting 'orthorhombic'
loop_
_space_group_symop_operation_xyz
x,y,z
-x,-y,z
x,-y,1/2-z
-x,y,1/2-z
-x,-y,-z
x,y,-z
-x,y,1/2+z
x,-y,1/2+z
1/2+x,1/2+y,z
1/2-x,1/2-y,z
1/2+x,1/2-y,1/2-z
1/2-x,1/2+y,1/2-z
1/2-x,1/2-y,-z
1/2+x,1/2+y,-z
1/2-x,1/2+y,1/2+z
1/2+x,1/2-y,1/2+z
loop_
_atom_site_type_symbol
_atom_site_label
_atom_site_fract_x
_atom_site_fract_y
_atom_site_fract_z
Si Si1 0.368402 0.285280 0.627193
Si Si2 0.750000 0.750000 0.199302
Si Si3 0.828793 0.544058 0.562171
Si Si4 0.734340 0.491740 0.857340
Si Si5 0.948049 0.401786 0.436957
Si Si6 0.836128 0.377917 0.219801
Si Si7 0.482269 0.649223 0.939123
O O1 0.340219 0.185471 0.585624
O O2 0.322614 0.400762 0.638424
O O3 0.376205 0.205540 0.681000
O O4 0.428542 0.330294 0.600475
O O5 0.725401 0.633211 0.165014
O O6 0.803541 0.705120 0.236306
O O7 0.827266 0.546246 0.500000
O O8 0.767643 0.498468 0.587473
O O9 0.883942 0.453938 0.580698
O O10 0.782237 0.428203 0.817411
O O11 0.946422 0.411506 0.500000
O O12 0.000000 0.500000 0.419008
O O13 0.967186 0.255211 0.425354
O O14 0.863553 0.500000 0.250000
O O15 0.500000 0.500000 0.937210
O O16 0.465062 0.677808 0.000000
#
# Coordination Sequence:
#
# PCOD9495665 Si02
#       7
#    16   8  16  16  16  16  16
#     4  11  19  32  52  82 109 139 180 227 278 336
#     4  10  18  36  53  72 109 142 176 226 264 328
#     4  10  19  32  52  79 111 140 176 225 266 324
#     4  10  21  31  52  85 108 138 178 212 283 344
#     4   9  16  31  53  72  97 145 194 221 253 305
#     4   9  17  32  54  79 105 128 175 226 269 322
#     4  10  21  35  53  80 114 153 192 228 271 329
#
# _framework density 17.357517999999999
#
# number of rings (size 3 to 8) (size 9 to 14) (size 15 to 20)
#    0.000    2.154    3.077    1.846    0.000    3.077 
#    0.000    0.385    0.000    0.000    0.000   39.846 
#    0.000    0.000    0.000    0.000    0.000    0.000 
#
# Total GULP energy -289775.564270 kJ/mol
# GULP energy per Si atom -5572.607005 kJ/mol
# Density = 1.731801 g / cm^3
# Si number density = 17.357518 Si / 1000 Ang^3
#
#
#
# Elastic Constant Matrix: (Units=GPa)
#
#
# Indices 1 2 3 4 5 6 
#
# 1 40.3742 32.7500 34.8923 0.0000 0.0000 0.0000
# 2 32.7500 119.3945 53.8564 0.0000 0.0000 0.0000
# 3 34.8923 53.8564 89.8189 0.0000 0.0000 0.0000
# 4 0.0000 0.0000 0.0000 22.2877 0.0000 0.0000
# 5 0.0000 0.0000 0.0000 0.0000 22.6895 0.0000
# 6 0.0000 0.0000 0.0000 0.0000 0.0000 23.8224
#
#
#
# Elastic Compliance Matrix: (Units=1/GPa)
#
#
# Indices 1 2 3 4 5 6 
#
# 1 0.039662 -0.005386 -0.012178 0.000000 0.000000 0.000000
# 2 -0.005386 0.012212 -0.005230 0.000000 0.000000 0.000000
# 3 -0.012178 -0.005230 0.019001 0.000000 0.000000 0.000000
# 4 0.000000 0.000000 0.000000 0.044868 0.000000 0.000000
# 5 0.000000 0.000000 0.000000 0.000000 0.044073 0.000000
# 6 0.000000 0.000000 0.000000 0.000000 0.000000 0.041977
#
#
# Mechanical properties :
#
#
# Convention : Reuss Voigt Hill
#
# Bulk Modulus (GPa) = 39.54781 54.73166 47.13974
# Shear Modulus (GPa) = 19.54576 22.29920 20.92248
#
# Velocity S-wave (km/s) = 3.35934 3.58816 3.47563
# Velocity P-wave (km/s) = 6.15472 6.98333 6.58208
#
# Compressibility (1/GPa) = 0.02528585
#
# Stress axis : x y z
#
# Youngs Moduli (GPa) = 25.21325 81.88508 52.63013
#
# Poissons Ratio (x) = 0.44103 0.64093
# Poissons Ratio (y) = 0.13580 0.27527
# Poissons Ratio (z) = 0.30705 0.42828
#
# Static dielectric constant tensor:
#      x y z
#    x 1.580660 0.000000 0.000000 
#    y 0.000000 1.625770 0.000000 
#    z 0.000000 0.000000 1.598060 
# 
# From -- ./inp_files/65730.got.cif
#   From: 2010.05.17/outbox.cif.g08.bks.cpg/sg66_33_cif.got.tgz:65730.got - 2010.06.03 17:51:23.
