data_PCOD9495146
_publ_section_title
;
Structure prediction by ZEFSAII (Michael W. Deem and Ramdas Pophale) SiO2 
 PCOD9495146
Probable space group: C C C M
;
_chemical_formula_sum "Si O2"
_cell_formula_units_Z 96
_cell_length_a 9.568590
_cell_length_b 18.882575
_cell_length_c 27.880800
_cell_angle_alpha 90.000000
_cell_angle_beta 90.000000
_cell_angle_gamma 90.000000
_cell_volume 5037.492302
_symmetry_space_group_name_H-M "C C C M"
_symmetry_group_IT_number 66
_symmetry_cell_setting 'orthorhombic'
loop_
_space_group_symop_operation_xyz
x,y,z
-x,-y,z
x,-y,1/2-z
-x,y,1/2-z
-x,-y,-z
x,y,-z
-x,y,1/2+z
x,-y,1/2+z
1/2+x,1/2+y,z
1/2-x,1/2-y,z
1/2+x,1/2-y,1/2-z
1/2-x,1/2+y,1/2-z
1/2-x,1/2-y,-z
1/2+x,1/2+y,-z
1/2-x,1/2+y,1/2+z
1/2+x,1/2-y,1/2+z
loop_
_atom_site_type_symbol
_atom_site_label
_atom_site_fract_x
_atom_site_fract_y
_atom_site_fract_z
Si Si1 0.649544 0.470331 0.196152
Si Si2 0.017439 0.847618 0.150154
Si Si3 0.409169 0.781959 0.298213
Si Si4 0.089931 0.072238 0.444960
Si Si5 0.843382 0.472945 0.553023
Si Si6 0.208231 0.588736 0.650893
O O1 0.500000 0.500000 0.177152
O O2 0.658548 0.500000 0.250000
O O3 0.626223 0.387431 0.186302
O O4 0.775967 0.507872 0.168856
O O5 0.058305 0.871177 0.096376
O O6 0.994235 0.766391 0.163680
O O7 0.861805 0.878491 0.158303
O O8 0.500000 0.780407 0.250000
O O9 0.250000 0.750000 0.291585
O O10 0.392067 0.861001 0.319035
O O11 0.066893 0.096139 0.500000
O O12 0.245156 0.041293 0.439886
O O13 0.000000 0.000000 0.437641
O O14 0.808788 0.444394 0.500000
O O15 0.821024 0.416446 0.594723
O O16 0.000000 0.500000 0.554106
#
# Coordination Sequence:
#
# PCOD9495146 Si02
#       6
#    16  16  16  16  16  16
#     4   9  17  28  54  83 107 141 193 251 287 330
#     4  10  18  33  58  86 109 147 196 240 289 346
#     4  10  24  41  59  78 120 166 197 238 301 370
#     4  10  17  31  58  87 113 143 188 248 298 343
#     4  10  20  35  56  84 118 152 184 236 309 363
#     4  10  19  37  54  83 114 147 192 242 291 345
#
# _framework density 19.057099999999998
#
# number of rings (size 3 to 8) (size 9 to 14) (size 15 to 20)
#    0.000    2.167    3.333    0.500    7.000    0.000 
#    6.000    0.833    0.000    3.000    0.000    3.500 
#    0.000    0.000    0.000    0.000    0.000    0.000 
#
# Total GULP energy -267276.692075 kJ/mol
# GULP energy per Si atom -5568.264418 kJ/mol
# Density = 1.901373 g / cm^3
# Si number density = 19.057100 Si / 1000 Ang^3
#
#
#
# Elastic Constant Matrix: (Units=GPa)
#
#
# Indices 1 2 3 4 5 6 
#
# 1 62.1932 37.8300 32.5419 0.0000 0.0000 0.0000
# 2 37.8300 64.2901 46.7692 0.0000 0.0000 0.0000
# 3 32.5419 46.7692 139.4584 0.0000 0.0000 0.0000
# 4 0.0000 0.0000 0.0000 15.0194 0.0000 0.0000
# 5 0.0000 0.0000 0.0000 0.0000 16.6533 0.0000
# 6 0.0000 0.0000 0.0000 0.0000 0.0000 14.4289
#
#
#
# Elastic Compliance Matrix: (Units=1/GPa)
#
#
# Indices 1 2 3 4 5 6 
#
# 1 0.025193 -0.013951 -0.001200 0.000000 0.000000 0.000000
# 2 -0.013951 0.028300 -0.006235 0.000000 0.000000 0.000000
# 3 -0.001200 -0.006235 0.009542 0.000000 0.000000 0.000000
# 4 0.000000 0.000000 0.000000 0.066581 0.000000 0.000000
# 5 0.000000 0.000000 0.000000 0.000000 0.060048 0.000000
# 6 0.000000 0.000000 0.000000 0.000000 0.000000 0.069305
#
#
# Mechanical properties :
#
#
# Convention : Reuss Voigt Hill
#
# Bulk Modulus (GPa) = 49.35475 55.58044 52.46759
# Shear Modulus (GPa) = 16.20771 19.14034 17.67403
#
# Velocity S-wave (km/s) = 2.91947 3.17261 3.04867
# Velocity P-wave (km/s) = 6.10892 6.53063 6.32330
#
# Compressibility (1/GPa) = 0.02026147
#
# Stress axis : x y z
#
# Youngs Moduli (GPa) = 39.69384 35.33602 104.80366
#
# Poissons Ratio (x) = 0.49298 0.12575
# Poissons Ratio (y) = 0.55378 0.65348
# Poissons Ratio (z) = 0.04763 0.22033
#
# Static dielectric constant tensor:
#      x y z
#    x 1.638430 0.000000 0.000000 
#    y 0.000000 1.694210 0.000000 
#    z 0.000000 0.000000 1.719130 
# 
# From -- ./inp_files/62602.got.cif
#   From: 2010.05.17/outbox.cif.g08.bks.cpg/sg66_32_cif.got.tgz:62602.got - 2010.06.03 17:51:23.
