data_PCOD9495627
_publ_section_title
;
Structure prediction by ZEFSAII (Michael W. Deem and Ramdas Pophale) SiO2 
 PCOD9495627
Probable space group: C C C M
;
_chemical_formula_sum "Si O2"
_cell_formula_units_Z 112
_cell_length_a 13.663044
_cell_length_b 12.251373
_cell_length_c 33.683347
_cell_angle_alpha 90.000000
_cell_angle_beta 90.000000
_cell_angle_gamma 90.000000
_cell_volume 5638.290767
_symmetry_space_group_name_H-M "C C C M"
_symmetry_group_IT_number 66
_symmetry_cell_setting 'orthorhombic'
loop_
_space_group_symop_operation_xyz
x,y,z
-x,-y,z
x,-y,1/2-z
-x,y,1/2-z
-x,-y,-z
x,y,-z
-x,y,1/2+z
x,-y,1/2+z
1/2+x,1/2+y,z
1/2-x,1/2-y,z
1/2+x,1/2-y,1/2-z
1/2-x,1/2+y,1/2-z
1/2-x,1/2-y,-z
1/2+x,1/2+y,-z
1/2-x,1/2+y,1/2+z
1/2+x,1/2-y,1/2+z
loop_
_atom_site_type_symbol
_atom_site_label
_atom_site_fract_x
_atom_site_fract_y
_atom_site_fract_z
Si Si1 0.392703 0.558926 0.166001
Si Si2 0.111519 0.261841 0.087042
Si Si3 0.471838 0.750030 0.792104
Si Si4 0.944523 0.614413 0.628531
Si Si5 0.268847 0.372264 0.593817
Si Si6 0.224169 0.911632 0.453467
Si Si7 0.831120 0.830396 0.173574
O O1 0.500000 0.500000 0.159817
O O2 0.397178 0.648068 0.201324
O O3 0.355815 0.620570 0.126438
O O4 0.316830 0.459757 0.172600
O O5 0.128676 0.161049 0.057292
O O6 0.185934 0.354349 0.070575
O O7 0.146957 0.213238 0.129250
O O8 0.005945 0.311678 0.096969
O O9 0.500000 0.801432 0.750000
O O10 0.450334 0.832379 0.827803
O O11 0.572627 0.689340 0.801722
O O12 0.833158 0.600372 0.615736
O O13 0.000000 0.500000 0.629488
O O14 0.250000 0.250000 0.578476
O O15 0.287357 0.465526 0.561614
O O16 0.244385 0.905350 0.500000
O O17 0.750000 0.750000 0.190151
#
# Coordination Sequence:
#
# PCOD9495627 Si02
#       7
#    16  16  16  16  16  16  16
#     4  10  21  39  66  90 122 172 217 262 316 382
#     4  10  18  37  64  90 125 164 223 257 305 389
#     4  10  23  41  61  90 129 165 218 266 322 376
#     4  11  23  40  67  93 127 176 214 264 328 392
#     4  12  23  40  65  95 132 167 217 258 328 411
#     4  11  22  38  65  97 131 167 215 276 324 377
#     4  10  18  34  64  93 115 163 215 261 304 375
#
# _framework density 19.864176
#
# number of rings (size 3 to 8) (size 9 to 14) (size 15 to 20)
#    0.000    1.429    5.714    0.857    2.000    3.143 
#    2.571    2.143    0.000    3.000    0.000    0.000 
#    0.000    0.000    0.000    0.000    0.000    0.000 
#
# Total GULP energy -312036.895685 kJ/mol
# GULP energy per Si atom -5572.087423 kJ/mol
# Density = 1.981896 g / cm^3
# Si number density = 19.864176 Si / 1000 Ang^3
#
#
#
# Elastic Constant Matrix: (Units=GPa)
#
#
# Indices 1 2 3 4 5 6 
#
# 1 54.7174 20.7754 13.1334 0.0000 0.0000 0.0000
# 2 20.7754 131.8085 17.6688 0.0000 0.0000 0.0000
# 3 13.1334 17.6688 77.2045 0.0000 0.0000 0.0000
# 4 0.0000 0.0000 0.0000 17.1945 0.0000 0.0000
# 5 0.0000 0.0000 0.0000 0.0000 11.1907 0.0000
# 6 0.0000 0.0000 0.0000 0.0000 0.0000 30.2800
#
#
#
# Elastic Compliance Matrix: (Units=1/GPa)
#
#
# Indices 1 2 3 4 5 6 
#
# 1 0.019995 -0.002781 -0.002765 0.000000 0.000000 0.000000
# 2 -0.002781 0.008214 -0.001407 0.000000 0.000000 0.000000
# 3 -0.002765 -0.001407 0.013745 0.000000 0.000000 0.000000
# 4 0.000000 0.000000 0.000000 0.058158 0.000000 0.000000
# 5 0.000000 0.000000 0.000000 0.000000 0.089360 0.000000
# 6 0.000000 0.000000 0.000000 0.000000 0.000000 0.033025
#
#
# Mechanical properties :
#
#
# Convention : Reuss Voigt Hill
#
# Bulk Modulus (GPa) = 35.65244 40.76505 38.20875
# Shear Modulus (GPa) = 20.34574 25.87657 23.11115
#
# Velocity S-wave (km/s) = 3.20385 3.61317 3.41465
# Velocity P-wave (km/s) = 5.62790 6.16224 5.90112
#
# Compressibility (1/GPa) = 0.02804857
#
# Stress axis : x y z
#
# Youngs Moduli (GPa) = 50.01184 121.74845 72.75432
#
# Poissons Ratio (x) = 0.33858 0.20116
# Poissons Ratio (y) = 0.13908 0.10234
# Poissons Ratio (z) = 0.13828 0.17126
#
# Static dielectric constant tensor:
#      x y z
#    x 1.751400 0.000000 0.000000 
#    y 0.000000 1.804070 0.000000 
#    z 0.000000 0.000000 1.705650 
# 
# From -- ./inp_files/69563.got.cif
#   From: 2010.05.17/outbox.cif.g08.bks.cpg/sg66_35_cif.got.tgz:69563.got - 2010.06.03 17:51:23.
