data_PCOD9495861
_publ_section_title
;
Structure prediction by ZEFSAII (Michael W. Deem and Ramdas Pophale) SiO2 
 PCOD9495861
Probable space group: C C C M
;
_chemical_formula_sum "Si O2"
_cell_formula_units_Z 100
_cell_length_a 14.210954
_cell_length_b 27.927869
_cell_length_c 14.673172
_cell_angle_alpha 90.000000
_cell_angle_beta 90.000000
_cell_angle_gamma 90.000000
_cell_volume 5823.512885
_symmetry_space_group_name_H-M "C C C M"
_symmetry_group_IT_number 66
_symmetry_cell_setting 'orthorhombic'
loop_
_space_group_symop_operation_xyz
x,y,z
-x,-y,z
x,-y,1/2-z
-x,y,1/2-z
-x,-y,-z
x,y,-z
-x,y,1/2+z
x,-y,1/2+z
1/2+x,1/2+y,z
1/2-x,1/2-y,z
1/2+x,1/2-y,1/2-z
1/2-x,1/2+y,1/2-z
1/2-x,1/2-y,-z
1/2+x,1/2+y,-z
1/2-x,1/2+y,1/2+z
1/2+x,1/2-y,1/2+z
loop_
_atom_site_type_symbol
_atom_site_label
_atom_site_fract_x
_atom_site_fract_y
_atom_site_fract_z
Si Si1 0.745950 0.307505 0.605518
Si Si2 0.740249 0.854525 0.605875
Si Si3 0.893247 0.735705 0.602933
Si Si4 0.569691 0.927446 0.602994
Si Si5 0.500000 0.000000 0.750000
Si Si6 0.605961 0.673283 0.734947
Si Si7 0.045830 0.338497 0.149939
O O1 0.736266 0.322393 0.500000
O O2 0.750000 0.250000 0.607727
O O3 0.659696 0.321572 0.669756
O O4 0.843888 0.328327 0.645026
O O5 0.766799 0.855914 0.500000
O O6 0.688728 0.803162 0.622292
O O7 0.661248 0.894704 0.619978
O O8 0.828656 0.859111 0.670963
O O9 0.878872 0.754885 0.500000
O O10 0.897777 0.776064 0.679749
O O11 0.989341 0.704872 0.602627
O O12 0.574503 0.947174 0.500000
O O13 0.483669 0.889347 0.607720
O O14 0.558331 0.966194 0.681710
O O15 0.500000 0.656892 0.750000
O O16 0.000000 0.339253 0.250000
#
# Coordination Sequence:
#
# PCOD9495861 Si02
#       7
#    16  16  16  16   4  16  16
#     4  11  22  33  46  69 103 143 186 228 265 302
#     4   9  19  36  55  74 102 142 184 224 268 321
#     4  10  19  31  50  75 101 138 189 233 269 315
#     4  10  21  37  58  86 114 141 169 204 266 337
#     4  12  22  36  60  94 114 136 150 220 268 342
#     4  12  23  32  46  71 102 144 192 235 265 297
#     4  11  19  34  55  76 109 149 179 212 266 328
#
# _framework density 17.171766000000002
#
# number of rings (size 3 to 8) (size 9 to 14) (size 15 to 20)
#    0.000    1.440    0.800    8.880    0.000    3.840 
#    0.000    0.000    0.000    0.000    0.000    0.560 
#    0.000    2.560    0.000    0.000    0.000    0.000 
#
# Total GULP energy -279360.052889 kJ/mol
# GULP energy per Si atom -5587.201058 kJ/mol
# Density = 1.713268 g / cm^3
# Si number density = 17.171766 Si / 1000 Ang^3
#
#
#
# Elastic Constant Matrix: (Units=GPa)
#
#
# Indices 1 2 3 4 5 6 
#
# 1 122.4426 15.9155 51.0297 0.0000 0.0000 0.0000
# 2 15.9155 50.2705 30.5499 0.0000 0.0000 0.0000
# 3 51.0297 30.5499 127.3484 0.0000 0.0000 0.0000
# 4 0.0000 0.0000 0.0000 12.7183 0.0000 0.0000
# 5 0.0000 0.0000 0.0000 0.0000 22.7163 0.0000
# 6 0.0000 0.0000 0.0000 0.0000 0.0000 9.6647
#
#
#
# Elastic Compliance Matrix: (Units=1/GPa)
#
#
# Indices 1 2 3 4 5 6 
#
# 1 0.009835 -0.000841 -0.003739 0.000000 0.000000 0.000000
# 2 -0.000841 0.023359 -0.005267 0.000000 0.000000 0.000000
# 3 -0.003739 -0.005267 0.010614 0.000000 0.000000 0.000000
# 4 0.000000 0.000000 0.000000 0.078627 0.000000 0.000000
# 5 0.000000 0.000000 0.000000 0.000000 0.044021 0.000000
# 6 0.000000 0.000000 0.000000 0.000000 0.000000 0.103469
#
#
# Mechanical properties :
#
#
# Convention : Reuss Voigt Hill
#
# Bulk Modulus (GPa) = 41.46931 55.00572 48.23752
# Shear Modulus (GPa) = 16.79785 22.52430 19.66107
#
# Velocity S-wave (km/s) = 3.13105 3.62568 3.38740
# Velocity P-wave (km/s) = 6.10520 7.04483 6.59178
#
# Compressibility (1/GPa) = 0.02411422
#
# Stress axis : x y z
#
# Youngs Moduli (GPa) = 101.68019 42.80951 94.21391
#
# Poissons Ratio (x) = 0.03602 0.35227
# Poissons Ratio (y) = 0.08555 0.49618
# Poissons Ratio (z) = 0.38019 0.22546
#
# Static dielectric constant tensor:
#      x y z
#    x 1.596300 0.000000 0.000000 
#    y 0.000000 1.567910 0.000000 
#    z 0.000000 0.000000 1.644530 
# 
# From -- ./inp_files/28832.got.cif
#   From: 2010.05.17/outbox.cif.g08.bks.cpg/sg66_15_cif.got.tgz:28832.got - 2010.06.03 17:51:23.
