data_PCOD9495762
_publ_section_title
;
Structure prediction by ZEFSAII (Michael W. Deem and Ramdas Pophale) SiO2 
 PCOD9495762
Probable space group: C C C M
;
_chemical_formula_sum "Si O2"
_cell_formula_units_Z 80
_cell_length_a 23.852423
_cell_length_b 9.621651
_cell_length_c 19.636471
_cell_angle_alpha 90.000000
_cell_angle_beta 90.000000
_cell_angle_gamma 90.000000
_cell_volume 4506.564000
_symmetry_space_group_name_H-M "C C C M"
_symmetry_group_IT_number 66
_symmetry_cell_setting 'orthorhombic'
loop_
_space_group_symop_operation_xyz
x,y,z
-x,-y,z
x,-y,1/2-z
-x,y,1/2-z
-x,-y,-z
x,y,-z
-x,y,1/2+z
x,-y,1/2+z
1/2+x,1/2+y,z
1/2-x,1/2-y,z
1/2+x,1/2-y,1/2-z
1/2-x,1/2+y,1/2-z
1/2-x,1/2-y,-z
1/2+x,1/2+y,-z
1/2-x,1/2+y,1/2+z
1/2+x,1/2-y,1/2+z
loop_
_atom_site_type_symbol
_atom_site_label
_atom_site_fract_x
_atom_site_fract_y
_atom_site_fract_z
Si Si1 0.606012 0.539270 0.325259
Si Si2 0.710693 0.883224 0.918968
Si Si3 0.477006 0.339798 0.576156
Si Si4 0.401898 0.269834 0.919672
Si Si5 0.263059 0.410281 0.684834
O O1 0.583949 0.500000 0.250000
O O2 0.568410 0.652968 0.364345
O O3 0.608088 0.401918 0.371985
O O4 0.669909 0.583592 0.319173
O O5 0.750000 0.750000 0.900899
O O6 0.645873 0.843156 0.903736
O O7 0.733778 0.015409 0.879013
O O8 0.715683 0.903569 0.000000
O O9 0.500000 0.500000 0.574705
O O10 0.454375 0.311649 0.500000
O O11 0.531408 0.242919 0.588010
O O12 0.394175 0.306245 0.000000
O O13 0.244938 0.500000 0.750000
O O14 0.250000 0.250000 0.692287
#
# Coordination Sequence:
#
# PCOD9495762 Si02
#       5
#    16  16  16  16  16
#     4  10  19  29  49  78 111 142 187 236 278 318
#     4  10  19  34  58  83 110 145 185 230 277 333
#     4   8  15  28  47  74 109 143 176 222 276 323
#     4   9  17  31  53  79 109 146 181 222 279 334
#     4  11  24  38  56  79 111 150 191 233 286 341
#
# _framework density 17.751884
#
# number of rings (size 3 to 8) (size 9 to 14) (size 15 to 20)
#    0.000    2.400    2.000    2.400    2.800    4.800 
#    0.000    0.000    0.000    1.200    0.000    5.600 
#    0.000    0.000    0.000    0.000    0.000    0.000 
#
# Total GULP energy -222787.932690 kJ/mol
# GULP energy per Si atom -5569.698317 kJ/mol
# Density = 1.771148 g / cm^3
# Si number density = 17.751884 Si / 1000 Ang^3
#
#
#
# Elastic Constant Matrix: (Units=GPa)
#
#
# Indices 1 2 3 4 5 6 
#
# 1 89.6562 32.2261 55.9579 0.0000 0.0000 0.0000
# 2 32.2261 82.1798 43.3958 0.0000 0.0000 0.0000
# 3 55.9579 43.3958 83.3672 0.0000 0.0000 0.0000
# 4 0.0000 0.0000 0.0000 13.7142 0.0000 0.0000
# 5 0.0000 0.0000 0.0000 0.0000 -8.8425 0.0000
# 6 0.0000 0.0000 0.0000 0.0000 0.0000 17.5080
#
#
#
# Elastic Compliance Matrix: (Units=1/GPa)
#
#
# Indices 1 2 3 4 5 6 
#
# 1 0.019255 -0.001001 -0.012403 0.000000 0.000000 0.000000
# 2 -0.001001 0.016833 -0.008090 0.000000 0.000000 0.000000
# 3 -0.012403 -0.008090 0.024532 0.000000 0.000000 0.000000
# 4 0.000000 0.000000 0.000000 0.072917 0.000000 0.000000
# 5 0.000000 0.000000 0.000000 0.000000 -0.113090 0.000000
# 6 0.000000 0.000000 0.000000 0.000000 0.000000 0.057117
#
#
# Mechanical properties :
#
#
# Convention : Reuss Voigt Hill
#
# Bulk Modulus (GPa) = 56.71964 57.59585 57.15774
# Shear Modulus (GPa) = 39.54775 12.71751 26.13263
#
# Velocity S-wave (km/s) = 4.72508 2.67948 3.84096
# Velocity P-wave (km/s) = 7.86061 6.48754 7.20685
#
# Compressibility (1/GPa) = 0.01763058
#
# Stress axis : x y z
#
# Youngs Moduli (GPa) = 51.93504 59.40640 40.76339
#
# Poissons Ratio (x) = 0.05946 0.50560
# Poissons Ratio (y) = 0.05199 0.32979
# Poissons Ratio (z) = 0.64416 0.48062
#
# Static dielectric constant tensor:
#      x y z
#    x 1.669230 0.000000 0.000000 
#    y 0.000000 1.611580 0.000000 
#    z 0.000000 0.000000 1.633320 
# 
# From -- ./inp_files/44085.got.cif
#   From: 2010.05.17/outbox.cif.g08.bks.cpg/sg66_23_cif.got.tgz:44085.got - 2010.06.03 17:51:23.
