data_PCOD9495169
_publ_section_title
;
Structure prediction by ZEFSAII (Michael W. Deem and Ramdas Pophale) SiO2 
 PCOD9495169
Probable space group: C C C M
;
_chemical_formula_sum "Si O2"
_cell_formula_units_Z 80
_cell_length_a 16.218549
_cell_length_b 13.614287
_cell_length_c 15.273185
_cell_angle_alpha 90.000000
_cell_angle_beta 90.000000
_cell_angle_gamma 90.000000
_cell_volume 3372.380048
_symmetry_space_group_name_H-M "C C C M"
_symmetry_group_IT_number 66
_symmetry_cell_setting 'orthorhombic'
loop_
_space_group_symop_operation_xyz
x,y,z
-x,-y,z
x,-y,1/2-z
-x,y,1/2-z
-x,-y,-z
x,y,-z
-x,y,1/2+z
x,-y,1/2+z
1/2+x,1/2+y,z
1/2-x,1/2-y,z
1/2+x,1/2-y,1/2-z
1/2-x,1/2+y,1/2-z
1/2-x,1/2-y,-z
1/2+x,1/2+y,-z
1/2-x,1/2+y,1/2+z
1/2+x,1/2-y,1/2+z
loop_
_atom_site_type_symbol
_atom_site_label
_atom_site_fract_x
_atom_site_fract_y
_atom_site_fract_z
Si Si1 0.956566 0.738374 0.338151
Si Si2 0.090885 0.527376 0.894909
Si Si3 0.744712 0.447444 0.599898
Si Si4 0.682429 0.666966 0.595542
Si Si5 0.563614 0.587114 0.102979
O O1 0.911106 0.644577 0.379577
O O2 0.883024 0.817023 0.328814
O O3 0.000000 0.707289 0.250000
O O4 0.023762 0.805179 0.387948
O O5 0.163360 0.455446 0.858604
O O6 0.000000 0.500000 0.863456
O O7 0.095079 0.513341 0.000000
O O8 0.752144 0.407007 0.500000
O O9 0.725669 0.563325 0.595851
O O10 0.658013 0.409635 0.639105
O O11 0.638909 0.674774 0.500000
O O12 0.750000 0.750000 0.599876
O O13 0.500000 0.500000 0.135262
O O14 0.574690 0.563647 0.000000
#
# Coordination Sequence:
#
# PCOD9495169 Si02
#       5
#    16  16  16  16  16
#     4  12  24  36  55  87 133 163 191 237 314 384
#     4  10  21  40  66  88 109 152 214 268 298 342
#     4   9  17  32  60  91 111 139 195 260 306 340
#     4  10  17  32  62  91 112 147 208 266 296 336
#     4  10  19  34  59  90 120 152 195 251 309 361
#
# _framework density 23.722117999999998
#
# number of rings (size 3 to 8) (size 9 to 14) (size 15 to 20)
#    0.000    1.800    4.000    1.800    0.000    0.800 
#    0.000    3.000    4.400    4.800    0.000    0.000 
#    0.000    0.000    0.000    0.000    0.000    0.000 
#
# Total GULP energy -222683.024428 kJ/mol
# GULP energy per Si atom -5567.075611 kJ/mol
# Density = 2.366813 g / cm^3
# Si number density = 23.722118 Si / 1000 Ang^3
#
#
#
# Elastic Constant Matrix: (Units=GPa)
#
#
# Indices 1 2 3 4 5 6 
#
# 1 181.5066 13.7016 20.2027 0.0000 0.0000 0.0000
# 2 13.7016 34.5065 -0.8035 0.0000 0.0000 0.0000
# 3 20.2027 -0.8035 30.0550 0.0000 0.0000 0.0000
# 4 0.0000 0.0000 0.0000 12.4864 0.0000 0.0000
# 5 0.0000 0.0000 0.0000 0.0000 4.0729 0.0000
# 6 0.0000 0.0000 0.0000 0.0000 0.0000 43.9699
#
#
#
# Elastic Compliance Matrix: (Units=1/GPa)
#
#
# Indices 1 2 3 4 5 6 
#
# 1 0.006171 -0.002549 -0.004216 0.000000 0.000000 0.000000
# 2 -0.002549 0.030051 0.002517 0.000000 0.000000 0.000000
# 3 -0.004216 0.002517 0.036174 0.000000 0.000000 0.000000
# 4 0.000000 0.000000 0.000000 0.080087 0.000000 0.000000
# 5 0.000000 0.000000 0.000000 0.000000 0.245523 0.000000
# 6 0.000000 0.000000 0.000000 0.000000 0.000000 0.022743
#
#
# Mechanical properties :
#
#
# Convention : Reuss Voigt Hill
#
# Bulk Modulus (GPa) = 15.64975 34.69662 25.17318
# Shear Modulus (GPa) = 11.09769 26.30367 18.70068
#
# Velocity S-wave (km/s) = 2.16526 3.33351 2.81075
# Velocity P-wave (km/s) = 3.58644 5.42904 4.60093
#
# Compressibility (1/GPa) = 0.06389879
#
# Stress axis : x y z
#
# Youngs Moduli (GPa) = 162.04494 33.27716 27.64437
#
# Poissons Ratio (x) = 0.08481 0.11656
# Poissons Ratio (y) = 0.41298 -0.06957
# Poissons Ratio (z) = 0.68323 -0.08374
#
# Static dielectric constant tensor:
#      x y z
#    x 2.112480 0.000000 0.000000 
#    y 0.000000 1.925810 0.000000 
#    z 0.000000 0.000000 1.924530 
# 
# From -- ./inp_files/40186.got.cif
#   From: 2010.05.17/outbox.cif.g08.bks.cpg/sg66_21_cif.got.tgz:40186.got - 2010.06.03 17:51:23.
