data_PCOD9495413
_publ_section_title
;
Structure prediction by ZEFSAII (Michael W. Deem and Ramdas Pophale) SiO2 
 PCOD9495413
Probable space group: C C C M
;
_chemical_formula_sum "Si O2"
_cell_formula_units_Z 96
_cell_length_a 13.825448
_cell_length_b 20.295524
_cell_length_c 14.295296
_cell_angle_alpha 90.000000
_cell_angle_beta 90.000000
_cell_angle_gamma 90.000000
_cell_volume 4011.184460
_symmetry_space_group_name_H-M "C C C M"
_symmetry_group_IT_number 66
_symmetry_cell_setting 'orthorhombic'
loop_
_space_group_symop_operation_xyz
x,y,z
-x,-y,z
x,-y,1/2-z
-x,y,1/2-z
-x,-y,-z
x,y,-z
-x,y,1/2+z
x,-y,1/2+z
1/2+x,1/2+y,z
1/2-x,1/2-y,z
1/2+x,1/2-y,1/2-z
1/2-x,1/2+y,1/2-z
1/2-x,1/2-y,-z
1/2+x,1/2+y,-z
1/2-x,1/2+y,1/2+z
1/2+x,1/2-y,1/2+z
loop_
_atom_site_type_symbol
_atom_site_label
_atom_site_fract_x
_atom_site_fract_y
_atom_site_fract_z
Si Si1 0.757292 0.062830 0.612368
Si Si2 0.053515 0.198083 0.385344
Si Si3 0.135924 0.329865 0.606535
Si Si4 0.164543 0.201152 0.114594
Si Si5 0.312161 0.582365 0.885592
Si Si6 0.529842 0.071281 0.642292
O O1 0.765367 0.061640 0.500000
O O2 0.813491 0.126866 0.645444
O O3 0.644353 0.074634 0.632708
O O4 0.798691 0.992824 0.645498
O O5 0.053805 0.199679 0.500000
O O6 0.121223 0.257870 0.351594
O O7 0.095755 0.126838 0.359066
O O8 0.944882 0.214920 0.355678
O O9 0.168282 0.318609 0.500000
O O10 0.216788 0.377862 0.647325
O O11 0.034007 0.368933 0.603134
O O12 0.250000 0.250000 0.144816
O O13 0.165329 0.203034 0.000000
O O14 0.311606 0.580055 0.000000
O O15 0.500000 0.070898 0.750000
O O16 0.500000 0.000000 0.602411
#
# Coordination Sequence:
#
# PCOD9495413 Si02
#       6
#    16  16  16  16  16  16
#     4  10  19  32  52  78 107 138 174 217 263 315
#     4   9  17  29  48  76 108 140 172 212 260 308
#     4  10  18  31  53  77 104 137 173 214 260 312
#     4   9  17  29  46  72 106 141 175 213 260 309
#     4   9  17  28  46  76 108 136 171 213 256 306
#     4  11  22  34  50  76 103 133 171 218 270 316
#
# _framework density 23.933078999999999
#
# number of rings (size 3 to 8) (size 9 to 14) (size 15 to 20)
#    0.000    2.333    1.667    2.000    0.000    6.000 
#    0.000    3.333    0.000    6.000    0.000    0.000 
#    0.000    0.000    0.000    0.000    0.000    0.000 
#
# Total GULP energy -268364.862271 kJ/mol
# GULP energy per Si atom -5590.934631 kJ/mol
# Density = 2.387861 g / cm^3
# Si number density = 23.933079 Si / 1000 Ang^3
#
#
#
# Elastic Constant Matrix: (Units=GPa)
#
#
# Indices 1 2 3 4 5 6 
#
# 1 102.4660 63.7372 6.5489 0.0000 0.0000 0.0000
# 2 63.7372 156.0112 11.8681 0.0000 0.0000 0.0000
# 3 6.5489 11.8681 83.7837 0.0000 0.0000 0.0000
# 4 0.0000 0.0000 0.0000 -11.4927 0.0000 0.0000
# 5 0.0000 0.0000 0.0000 0.0000 12.9019 0.0000
# 6 0.0000 0.0000 0.0000 0.0000 0.0000 45.6068
#
#
#
# Elastic Compliance Matrix: (Units=1/GPa)
#
#
# Indices 1 2 3 4 5 6 
#
# 1 0.013090 -0.005328 -0.000269 0.000000 0.000000 0.000000
# 2 -0.005328 0.008648 -0.000809 0.000000 0.000000 0.000000
# 3 -0.000269 -0.000809 0.012071 0.000000 0.000000 0.000000
# 4 0.000000 0.000000 0.000000 -0.087012 0.000000 0.000000
# 5 0.000000 0.000000 0.000000 0.000000 0.077508 0.000000
# 6 0.000000 0.000000 0.000000 0.000000 0.000000 0.021927
#
#
# Mechanical properties :
#
#
# Convention : Reuss Voigt Hill
#
# Bulk Modulus (GPa) = 47.61915 56.28546 51.95231
# Shear Modulus (GPa) = 75.70950 26.74362 51.22656
#
# Velocity S-wave (km/s) = 5.63050 3.34643 4.63147
# Velocity P-wave (km/s) = 7.88733 6.20487 7.09614
#
# Compressibility (1/GPa) = 0.02099996
#
# Stress axis : x y z
#
# Youngs Moduli (GPa) = 76.39170 115.63576 82.84303
#
# Poissons Ratio (x) = 0.61606 0.02225
# Poissons Ratio (y) = 0.40698 0.06698
# Poissons Ratio (z) = 0.02051 0.09350
#
# Static dielectric constant tensor:
#      x y z
#    x 1.685300 0.000000 0.000000 
#    y 0.000000 1.891410 0.000000 
#    z 0.000000 0.000000 1.959710 
# 
# From -- ./inp_files/48782.got.cif
#   From: 2010.05.17/outbox.cif.g08.bks.cpg/sg66_25_cif.got.tgz:48782.got - 2010.06.03 17:51:23.
