data_PCOD9495392
_publ_section_title
;
Structure prediction by ZEFSAII (Michael W. Deem and Ramdas Pophale) SiO2 
 PCOD9495392
Probable space group: C C C M
;
_chemical_formula_sum "Si O2"
_cell_formula_units_Z 80
_cell_length_a 9.007823
_cell_length_b 21.146954
_cell_length_c 27.395705
_cell_angle_alpha 90.000000
_cell_angle_beta 90.000000
_cell_angle_gamma 90.000000
_cell_volume 5218.553564
_symmetry_space_group_name_H-M "C C C M"
_symmetry_group_IT_number 66
_symmetry_cell_setting 'orthorhombic'
loop_
_space_group_symop_operation_xyz
x,y,z
-x,-y,z
x,-y,1/2-z
-x,y,1/2-z
-x,-y,-z
x,y,-z
-x,y,1/2+z
x,-y,1/2+z
1/2+x,1/2+y,z
1/2-x,1/2-y,z
1/2+x,1/2-y,1/2-z
1/2-x,1/2+y,1/2-z
1/2-x,1/2-y,-z
1/2+x,1/2+y,-z
1/2-x,1/2+y,1/2+z
1/2+x,1/2-y,1/2+z
loop_
_atom_site_type_symbol
_atom_site_label
_atom_site_fract_x
_atom_site_fract_y
_atom_site_fract_z
Si Si1 0.088995 0.400248 0.644200
Si Si2 0.328287 0.510656 0.623666
Si Si3 0.408709 0.933824 0.444816
Si Si4 0.814132 0.439331 0.285576
Si Si5 0.340394 0.813732 0.226184
O O1 0.224405 0.448741 0.634112
O O2 0.143862 0.337296 0.670535
O O3 0.000213 0.391862 0.593762
O O4 0.966667 0.428957 0.682833
O O5 0.500000 0.500000 0.613136
O O6 0.247058 0.548412 0.580205
O O7 0.310534 0.549205 0.673915
O O8 0.396836 0.910015 0.500000
O O9 0.500000 0.000000 0.446097
O O10 0.822131 0.500000 0.250000
O O11 0.783278 0.376104 0.254905
O O12 0.500000 0.801822 0.250000
O O13 0.250000 0.750000 0.230893
#
# Coordination Sequence:
#
# PCOD9495392 Si02
#       5
#    16  16  16  16  16
#     4   9  18  30  50  66  92 125 168 194 227 290
#     4  10  19  26  41  74  99 120 152 200 245 281
#     4   8  15  29  48  67  89 121 161 199 240 292
#     4  10  18  31  51  65  89 134 170 189 221 284
#     4  10  21  32  47  66  96 131 162 196 234 279
#
# _framework density 15.329917999999999
#
# number of rings (size 3 to 8) (size 9 to 14) (size 15 to 20)
#    0.000    2.600    2.000    1.800    5.600    2.400 
#    0.000    0.000    0.000    0.600    0.000    0.000 
#    0.000   66.400    0.000    0.000    0.000    0.000 
#
# Total GULP energy -222677.276316 kJ/mol
# GULP energy per Si atom -5566.931908 kJ/mol
# Density = 1.529503 g / cm^3
# Si number density = 15.329918 Si / 1000 Ang^3
#
#
#
# Elastic Constant Matrix: (Units=GPa)
#
#
# Indices 1 2 3 4 5 6 
#
# 1 84.4525 32.3715 43.7537 0.0000 0.0000 0.0000
# 2 32.3715 90.5758 45.9634 0.0000 0.0000 0.0000
# 3 43.7537 45.9634 133.6485 0.0000 0.0000 0.0000
# 4 0.0000 0.0000 0.0000 10.6972 0.0000 0.0000
# 5 0.0000 0.0000 0.0000 0.0000 9.7790 0.0000
# 6 0.0000 0.0000 0.0000 0.0000 0.0000 20.9969
#
#
#
# Elastic Compliance Matrix: (Units=1/GPa)
#
#
# Indices 1 2 3 4 5 6 
#
# 1 0.015125 -0.003505 -0.003746 0.000000 0.000000 0.000000
# 2 -0.003505 0.014187 -0.003732 0.000000 0.000000 0.000000
# 3 -0.003746 -0.003732 0.009992 0.000000 0.000000 0.000000
# 4 0.000000 0.000000 0.000000 0.093482 0.000000 0.000000
# 5 0.000000 0.000000 0.000000 0.000000 0.102260 0.000000
# 6 0.000000 0.000000 0.000000 0.000000 0.000000 0.047626
#
#
# Mechanical properties :
#
#
# Convention : Reuss Voigt Hill
#
# Bulk Modulus (GPa) = 57.67406 61.42822 59.55114
# Shear Modulus (GPa) = 16.10732 20.73381 18.42057
#
# Velocity S-wave (km/s) = 3.24498 3.68163 3.47018
# Velocity P-wave (km/s) = 7.19329 7.63088 7.41532
#
# Compressibility (1/GPa) = 0.01733882
#
# Stress axis : x y z
#
# Youngs Moduli (GPa) = 66.11436 70.48875 100.07823
#
# Poissons Ratio (x) = 0.24703 0.37494
# Poissons Ratio (y) = 0.23170 0.37346
# Poissons Ratio (z) = 0.24769 0.26304
#
# Static dielectric constant tensor:
#      x y z
#    x 1.526890 0.000000 0.000000 
#    y 0.000000 1.508930 0.000000 
#    z 0.000000 0.000000 1.541080 
# 
# From -- ./inp_files/68229.got.cif
#   From: 2010.05.17/outbox.cif.g08.bks.cpg/sg66_35_cif.got.tgz:68229.got - 2010.06.03 17:51:23.
