data_PCOD9495712
_publ_section_title
;
Structure prediction by ZEFSAII (Michael W. Deem and Ramdas Pophale) SiO2 
 PCOD9495712
Probable space group: C C C M
;
_chemical_formula_sum "Si O2"
_cell_formula_units_Z 116
_cell_length_a 28.655312
_cell_length_b 18.133557
_cell_length_c 15.116805
_cell_angle_alpha 90.000000
_cell_angle_beta 90.000000
_cell_angle_gamma 90.000000
_cell_volume 7855.035536
_symmetry_space_group_name_H-M "C C C M"
_symmetry_group_IT_number 66
_symmetry_cell_setting 'orthorhombic'
loop_
_space_group_symop_operation_xyz
x,y,z
-x,-y,z
x,-y,1/2-z
-x,y,1/2-z
-x,-y,-z
x,y,-z
-x,y,1/2+z
x,-y,1/2+z
1/2+x,1/2+y,z
1/2-x,1/2-y,z
1/2+x,1/2-y,1/2-z
1/2-x,1/2+y,1/2-z
1/2-x,1/2-y,-z
1/2+x,1/2+y,-z
1/2-x,1/2+y,1/2+z
1/2+x,1/2-y,1/2+z
loop_
_atom_site_type_symbol
_atom_site_label
_atom_site_fract_x
_atom_site_fract_y
_atom_site_fract_z
Si Si1 0.250000 0.750000 0.000000
Si Si2 0.717388 0.688169 0.837894
Si Si3 0.809798 0.954433 0.601743
Si Si4 0.319884 0.775181 0.164999
Si Si5 0.223379 0.579331 0.229803
Si Si6 0.611423 0.669240 0.398532
Si Si7 0.868750 0.901358 0.897154
Si Si8 0.945399 0.088886 0.250428
O O1 0.289338 0.762432 0.077756
O O2 0.750000 0.750000 0.882366
O O3 0.700053 0.725765 0.745993
O O4 0.749886 0.618670 0.811676
O O5 0.671378 0.660314 0.886968
O O6 0.795645 0.968458 0.500000
O O7 0.764995 0.938441 0.660621
O O8 0.842431 0.882644 0.602529
O O9 0.841971 0.023023 0.631134
O O10 0.311892 0.859642 0.192908
O O11 0.371434 0.746027 0.143168
O O12 0.201792 0.500000 0.250000
O O13 0.596188 0.676373 0.500000
O O14 0.575896 0.626134 0.336623
O O15 0.912591 0.887706 0.833166
O O16 0.882425 0.909507 0.000000
O O17 0.000000 0.108120 0.250000
O O18 0.942249 0.000000 0.250000
#
# Coordination Sequence:
#
# PCOD9495712 Si02
#       8
#     4  16  16  16  16  16  16  16
#     4  12  16  28  44  84 102 122 170 214 260 296
#     4  10  19  31  45  67  94 130 167 202 239 284
#     4  10  19  26  41  65  93 125 166 204 237 281
#     4  11  20  27  45  70  98 128 163 207 249 299
#     4  11  19  28  42  63  97 134 162 196 237 292
#     4  11  20  32  51  72  94 126 163 211 260 297
#     4  11  21  34  50  69  92 132 180 209 238 292
#     4  11  23  37  52  70  99 134 168 213 261 301
#
# _framework density 14.767595999999999
#
# number of rings (size 3 to 8) (size 9 to 14) (size 15 to 20)
#    0.000    1.241    8.276    0.000    2.897    0.828 
#    0.000    1.379    0.000    0.000    0.000    0.000 
#    0.000    0.552    0.000    1.241    0.000    0.000 
#
# Total GULP energy -322874.627263 kJ/mol
# GULP energy per Si atom -5566.803918 kJ/mol
# Density = 1.473398 g / cm^3
# Si number density = 14.767596 Si / 1000 Ang^3
#
#
#
# Elastic Constant Matrix: (Units=GPa)
#
#
# Indices 1 2 3 4 5 6 
#
# 1 67.9318 37.1623 31.6465 0.0000 0.0000 0.0000
# 2 37.1623 84.8171 22.6378 0.0000 0.0000 0.0000
# 3 31.6465 22.6378 52.5009 0.0000 0.0000 0.0000
# 4 0.0000 0.0000 0.0000 6.7081 0.0000 0.0000
# 5 0.0000 0.0000 0.0000 0.0000 3.6309 0.0000
# 6 0.0000 0.0000 0.0000 0.0000 0.0000 17.6806
#
#
#
# Elastic Compliance Matrix: (Units=1/GPa)
#
#
# Indices 1 2 3 4 5 6 
#
# 1 0.024104 -0.007552 -0.011273 0.000000 0.000000 0.000000
# 2 -0.007552 0.015690 -0.002213 0.000000 0.000000 0.000000
# 3 -0.011273 -0.002213 0.026796 0.000000 0.000000 0.000000
# 4 0.000000 0.000000 0.000000 0.149073 0.000000 0.000000
# 5 0.000000 0.000000 0.000000 0.000000 0.275415 0.000000
# 6 0.000000 0.000000 0.000000 0.000000 0.000000 0.056559
#
#
# Mechanical properties :
#
#
# Convention : Reuss Voigt Hill
#
# Bulk Modulus (GPa) = 40.79295 43.12703 41.95999
# Shear Modulus (GPa) = 8.36283 13.19081 10.77682
#
# Velocity S-wave (km/s) = 2.38228 2.99193 2.70434
# Velocity P-wave (km/s) = 5.93719 6.41894 6.18276
#
# Compressibility (1/GPa) = 0.02451404
#
# Stress axis : x y z
#
# Youngs Moduli (GPa) = 41.48759 63.73622 37.31831
#
# Poissons Ratio (x) = 0.48135 0.42068
# Poissons Ratio (y) = 0.31332 0.08258
# Poissons Ratio (z) = 0.46768 0.14104
#
# Static dielectric constant tensor:
#      x y z
#    x 1.474370 0.000000 0.000000 
#    y 0.000000 1.537350 0.000000 
#    z 0.000000 0.000000 1.514020 
# 
# From -- ./inp_files/33436.got.cif
#   From: 2010.05.17/outbox.cif.g08.bks.cpg/sg66_17_cif.got.tgz:33436.got - 2010.06.03 17:51:23.
