data_PCOD9495859
_publ_section_title
;
Structure prediction by ZEFSAII (Michael W. Deem and Ramdas Pophale) SiO2 
 PCOD9495859
Probable space group: C C C M
;
_chemical_formula_sum "Si O2"
_cell_formula_units_Z 112
_cell_length_a 19.685710
_cell_length_b 19.872634
_cell_length_c 17.129874
_cell_angle_alpha 90.000000
_cell_angle_beta 90.000000
_cell_angle_gamma 90.000000
_cell_volume 6701.325074
_symmetry_space_group_name_H-M "C C C M"
_symmetry_group_IT_number 66
_symmetry_cell_setting 'orthorhombic'
loop_
_space_group_symop_operation_xyz
x,y,z
-x,-y,z
x,-y,1/2-z
-x,y,1/2-z
-x,-y,-z
x,y,-z
-x,y,1/2+z
x,-y,1/2+z
1/2+x,1/2+y,z
1/2-x,1/2-y,z
1/2+x,1/2-y,1/2-z
1/2-x,1/2+y,1/2-z
1/2-x,1/2-y,-z
1/2+x,1/2+y,-z
1/2-x,1/2+y,1/2+z
1/2+x,1/2-y,1/2+z
loop_
_atom_site_type_symbol
_atom_site_label
_atom_site_fract_x
_atom_site_fract_y
_atom_site_fract_z
Si Si1 0.360524 0.249972 0.094074
Si Si2 0.443192 0.057336 0.590742
Si Si3 0.752117 0.856837 0.594682
Si Si4 0.743767 0.357788 0.594923
Si Si5 0.504090 0.198676 0.157871
Si Si6 0.296616 0.997554 0.904574
Si Si7 0.639295 0.249622 0.905754
O O1 0.326098 0.320796 0.120325
O O2 0.305118 0.192877 0.114536
O O3 0.432941 0.226312 0.125350
O O4 0.365065 0.252107 0.000000
O O5 0.430265 0.076037 0.500000
O O6 0.473580 0.124064 0.629723
O O7 0.372969 0.023807 0.620539
O O8 0.500000 0.000000 0.593578
O O9 0.752585 0.855623 0.500000
O O10 0.748835 0.933773 0.618922
O O11 0.684172 0.815816 0.617223
O O12 0.816588 0.813628 0.620134
O O13 0.740470 0.360704 0.500000
O O14 0.765463 0.431846 0.623013
O O15 0.500000 0.197780 0.250000
O O16 0.565302 0.245718 0.129215
O O17 0.298998 0.001473 0.000000
O O18 0.635093 0.249840 0.000000
#
# Coordination Sequence:
#
# PCOD9495859 Si02
#       7
#    16  16  16  16  16  16  16
#     4   9  17  32  51  70  95 131 170 205 241 290
#     4  10  19  31  50  74 101 133 163 193 241 308
#     4   8  14  25  47  73  96 120 153 205 256 294
#     4   8  15  28  50  76  97 121 162 209 247 287
#     4  12  23  32  45  71 102 138 165 202 245 287
#     4   9  14  24  46  77 101 117 149 202 254 294
#     4   9  16  30  49  70  95 125 162 200 243 298
#
# _framework density 16.713111999999999
#
# number of rings (size 3 to 8) (size 9 to 14) (size 15 to 20)
#    0.000    2.714    1.429    3.857    0.000    2.571 
#    0.000    2.857    0.000    0.857    0.000    6.000 
#    0.000    0.000    0.000    0.000    0.000    0.000 
#
# Total GULP energy -311861.039724 kJ/mol
# GULP energy per Si atom -5568.947138 kJ/mol
# Density = 1.667507 g / cm^3
# Si number density = 16.713112 Si / 1000 Ang^3
#
#
#
# Elastic Constant Matrix: (Units=GPa)
#
#
# Indices 1 2 3 4 5 6 
#
# 1 131.0271 84.9803 30.6382 0.0000 0.0000 0.0000
# 2 84.9803 146.0108 23.5789 0.0000 0.0000 0.0000
# 3 30.6382 23.5789 22.1778 0.0000 0.0000 0.0000
# 4 0.0000 0.0000 0.0000 6.2758 0.0000 0.0000
# 5 0.0000 0.0000 0.0000 0.0000 -29.0794 0.0000
# 6 0.0000 0.0000 0.0000 0.0000 0.0000 24.1197
#
#
#
# Elastic Compliance Matrix: (Units=1/GPa)
#
#
# Indices 1 2 3 4 5 6 
#
# 1 0.015153 -0.006566 -0.013953 0.000000 0.000000 0.000000
# 2 -0.006566 0.011114 -0.002745 0.000000 0.000000 0.000000
# 3 -0.013953 -0.002745 0.067284 0.000000 0.000000 0.000000
# 4 0.000000 0.000000 0.000000 0.159343 0.000000 0.000000
# 5 0.000000 0.000000 0.000000 0.000000 -0.034389 0.000000
# 6 0.000000 0.000000 0.000000 0.000000 0.000000 0.041460
#
#
# Mechanical properties :
#
#
# Convention : Reuss Voigt Hill
#
# Bulk Modulus (GPa) = 21.26613 64.17894 42.72254
# Shear Modulus (GPa) = 15.51989 10.93110 13.22549
#
# Velocity S-wave (km/s) = 3.05061 2.56020 2.81610
# Velocity P-wave (km/s) = 5.01599 6.87192 6.01595
#
# Compressibility (1/GPa) = 0.04702314
#
# Stress axis : x y z
#
# Youngs Moduli (GPa) = 65.99240 89.97933 14.86242
#
# Poissons Ratio (x) = 0.59082 0.20737
# Poissons Ratio (y) = 0.43332 0.04079
# Poissons Ratio (z) = 0.92078 0.24697
#
# Static dielectric constant tensor:
#      x y z
#    x 1.566310 0.000000 0.000000 
#    y 0.000000 1.583690 0.000000 
#    z 0.000000 0.000000 1.563310 
# 
# From -- ./inp_files/41981.got.cif
#   From: 2010.05.17/outbox.cif.g08.bks.cpg/sg66_21_cif.got.tgz:41981.got - 2010.06.03 17:51:23.
