data_PCOD9495622
_publ_section_title
;
Structure prediction by ZEFSAII (Michael W. Deem and Ramdas Pophale) SiO2 
 PCOD9495622
Probable space group: C C C M
;
_chemical_formula_sum "Si O2"
_cell_formula_units_Z 80
_cell_length_a 12.667410
_cell_length_b 22.965773
_cell_length_c 14.361566
_cell_angle_alpha 90.000000
_cell_angle_beta 90.000000
_cell_angle_gamma 90.000000
_cell_volume 4178.021722
_symmetry_space_group_name_H-M "C C C M"
_symmetry_group_IT_number 66
_symmetry_cell_setting 'orthorhombic'
loop_
_space_group_symop_operation_xyz
x,y,z
-x,-y,z
x,-y,1/2-z
-x,y,1/2-z
-x,-y,-z
x,y,-z
-x,y,1/2+z
x,-y,1/2+z
1/2+x,1/2+y,z
1/2-x,1/2-y,z
1/2+x,1/2-y,1/2-z
1/2-x,1/2+y,1/2-z
1/2-x,1/2-y,-z
1/2+x,1/2+y,-z
1/2-x,1/2+y,1/2+z
1/2+x,1/2-y,1/2+z
loop_
_atom_site_type_symbol
_atom_site_label
_atom_site_fract_x
_atom_site_fract_y
_atom_site_fract_z
Si Si1 0.997283 0.684502 0.361720
Si Si2 0.441164 0.055406 0.650358
Si Si3 0.372838 0.735132 0.000000
Si Si4 0.417797 0.597733 0.000000
Si Si5 0.813374 0.309219 0.500000
Si Si6 0.301747 0.518121 0.850760
Si Si7 0.831487 0.920961 0.000000
O O1 0.954367 0.620165 0.388960
O O2 0.927404 0.734044 0.410928
O O3 0.000000 0.690502 0.250000
O O4 0.111680 0.688127 0.409479
O O5 0.500000 0.059698 0.750000
O O6 0.317890 0.041266 0.659491
O O7 0.500000 0.000000 0.604013
O O8 0.250000 0.750000 0.000000
O O9 0.390857 0.665932 0.000000
O O10 0.368531 0.564842 0.910039
O O11 0.543298 0.588998 0.000000
O O12 0.750000 0.250000 0.500000
O O13 0.732479 0.361947 0.500000
O O14 0.344323 0.500000 0.750000
O O15 0.300110 0.459834 0.911784
#
# Coordination Sequence:
#
# PCOD9495622 Si02
#       7
#    16  16   8   8   8  16   8
#     4  10  23  41  67  96 134 172 222 277 336 405
#     4  10  18  34  63 100 133 157 210 269 331 401
#     4  11  23  46  64  94 132 172 220 280 327 391
#     4  11  26  46  62  92 136 170 232 270 320 413
#     4  11  24  44  66  94 136 176 222 280 332 397
#     4  11  22  41  68  96 130 172 211 273 337 402
#     4  11  25  42  64  92 132 172 222 272 327 395
#
# _framework density 19.147818000000001
#
# number of rings (size 3 to 8) (size 9 to 14) (size 15 to 20)
#    0.000    1.400    2.000    4.800    2.800    4.800 
#    7.200    5.000    0.000    0.000    0.000    0.000 
#    0.000    0.000    0.000    0.000    0.000    0.000 
#
# Total GULP energy -223426.221777 kJ/mol
# GULP energy per Si atom -5585.655544 kJ/mol
# Density = 1.910424 g / cm^3
# Si number density = 19.147818 Si / 1000 Ang^3
#
#
#
# Elastic Constant Matrix: (Units=GPa)
#
#
# Indices 1 2 3 4 5 6 
#
# 1 166.9526 71.9487 57.9098 0.0000 0.0000 0.0000
# 2 71.9487 202.2595 73.0654 0.0000 0.0000 0.0000
# 3 57.9098 73.0654 168.3978 0.0000 0.0000 0.0000
# 4 0.0000 0.0000 0.0000 0.9146 0.0000 0.0000
# 5 0.0000 0.0000 0.0000 0.0000 39.6777 0.0000
# 6 0.0000 0.0000 0.0000 0.0000 0.0000 44.2108
#
#
#
# Elastic Compliance Matrix: (Units=1/GPa)
#
#
# Indices 1 2 3 4 5 6 
#
# 1 0.007452 -0.002046 -0.001675 0.000000 0.000000 0.000000
# 2 -0.002046 0.006425 -0.002084 0.000000 0.000000 0.000000
# 3 -0.001675 -0.002084 0.007419 0.000000 0.000000 0.000000
# 4 0.000000 0.000000 0.000000 1.093352 0.000000 0.000000
# 5 0.000000 0.000000 0.000000 0.000000 0.025203 0.000000
# 6 0.000000 0.000000 0.000000 0.000000 0.000000 0.022619
#
#
# Mechanical properties :
#
#
# Convention : Reuss Voigt Hill
#
# Bulk Modulus (GPa) = 103.24500 104.82862 104.03681
# Shear Modulus (GPa) = 4.24698 39.27303 21.76000
#
# Velocity S-wave (km/s) = 1.49091 4.53376 3.37474
# Velocity P-wave (km/s) = 7.54989 9.07042 8.34486
#
# Compressibility (1/GPa) = 0.00968570
#
# Stress axis : x y z
#
# Youngs Moduli (GPa) = 134.18416 155.64744 134.79603
#
# Poissons Ratio (x) = 0.31844 0.22580
# Poissons Ratio (y) = 0.27453 0.28092
# Poissons Ratio (z) = 0.22477 0.32438
#
# Static dielectric constant tensor:
#      x y z
#    x 1.642690 0.000000 0.000000 
#    y 0.000000 1.664300 0.000000 
#    z 0.000000 0.000000 1.652480 
# 
# From -- ./inp_files/26475.got.cif
#   From: 2010.05.17/outbox.cif.g08.bks.cpg/sg66_14_cif.got.tgz:26475.got - 2010.06.03 17:51:23.
