data_PCOD9495893
_publ_section_title
;
Structure prediction by ZEFSAII (Michael W. Deem and Ramdas Pophale) SiO2 
 PCOD9495893
Probable space group: C C C M
;
_chemical_formula_sum "Si O2"
_cell_formula_units_Z 80
_cell_length_a 24.984847
_cell_length_b 8.954991
_cell_length_c 14.636226
_cell_angle_alpha 90.000000
_cell_angle_beta 90.000000
_cell_angle_gamma 90.000000
_cell_volume 3274.695740
_symmetry_space_group_name_H-M "C C C M"
_symmetry_group_IT_number 66
_symmetry_cell_setting 'orthorhombic'
loop_
_space_group_symop_operation_xyz
x,y,z
-x,-y,z
x,-y,1/2-z
-x,y,1/2-z
-x,-y,-z
x,y,-z
-x,y,1/2+z
x,-y,1/2+z
1/2+x,1/2+y,z
1/2-x,1/2-y,z
1/2+x,1/2-y,1/2-z
1/2-x,1/2+y,1/2-z
1/2-x,1/2-y,-z
1/2+x,1/2+y,-z
1/2-x,1/2+y,1/2+z
1/2+x,1/2-y,1/2+z
loop_
_atom_site_type_symbol
_atom_site_label
_atom_site_fract_x
_atom_site_fract_y
_atom_site_fract_z
Si Si1 0.605361 0.295124 0.601943
Si Si2 0.119312 0.788614 0.190314
Si Si3 0.332661 0.983292 0.902058
Si Si4 0.512884 0.831277 0.605632
Si Si5 0.723564 0.585496 0.344654
O O1 0.614842 0.364130 0.500000
O O2 0.618802 0.346169 0.705430
O O3 0.542361 0.258245 0.606447
O O4 0.637650 0.139369 0.599737
O O5 0.145572 0.623575 0.177553
O O6 0.059264 0.760486 0.156166
O O7 0.161698 0.885934 0.130965
O O8 0.268642 0.001878 0.900200
O O9 0.345708 0.909669 0.000000
O O10 0.529815 0.851250 0.500000
O O11 0.500000 0.000000 0.640772
O O12 0.723723 0.500000 0.250000
O O13 0.750000 0.750000 0.337571
#
# Coordination Sequence:
#
# PCOD9495893 Si02
#       5
#    16  16  16  16  16
#     4  10  20  33  52  81 119 159 202 247 297 364
#     4  11  20  32  55  80 117 160 199 247 313 363
#     4  10  19  32  53  84 118 155 199 251 307 366
#     4  10  19  31  52  87 122 153 198 253 311 368
#     4  10  22  39  60  87 121 162 208 253 307 372
#
# _framework density 24.429752000000001
#
# number of rings (size 3 to 8) (size 9 to 14) (size 15 to 20)
#    0.000    1.800    2.000    4.200    0.000    5.200 
#    0.000    1.000    0.000   10.800    0.000    2.800 
#    0.000    0.000    0.000    0.000    0.000    0.000 
#
# Total GULP energy -223015.556650 kJ/mol
# GULP energy per Si atom -5575.388916 kJ/mol
# Density = 2.437415 g / cm^3
# Si number density = 24.429752 Si / 1000 Ang^3
#
#
#
# Elastic Constant Matrix: (Units=GPa)
#
#
# Indices 1 2 3 4 5 6 
#
# 1 201.4085 49.4566 63.9514 0.0000 0.0000 0.0000
# 2 49.4566 28.3660 27.8615 0.0000 0.0000 0.0000
# 3 63.9514 27.8615 139.9791 0.0000 0.0000 0.0000
# 4 0.0000 0.0000 0.0000 30.0135 0.0000 0.0000
# 5 0.0000 0.0000 0.0000 0.0000 37.2213 0.0000
# 6 0.0000 0.0000 0.0000 0.0000 0.0000 36.3846
#
#
#
# Elastic Compliance Matrix: (Units=1/GPa)
#
#
# Indices 1 2 3 4 5 6 
#
# 1 0.008843 -0.014232 -0.001207 0.000000 0.000000 0.000000
# 2 -0.014232 0.066726 -0.006779 0.000000 0.000000 0.000000
# 3 -0.001207 -0.006779 0.009045 0.000000 0.000000 0.000000
# 4 0.000000 0.000000 0.000000 0.033318 0.000000 0.000000
# 5 0.000000 0.000000 0.000000 0.000000 0.026866 0.000000
# 6 0.000000 0.000000 0.000000 0.000000 0.000000 0.027484
#
#
# Mechanical properties :
#
#
# Convention : Reuss Voigt Hill
#
# Bulk Modulus (GPa) = 24.88992 72.47695 48.68343
# Shear Modulus (GPa) = 21.72847 35.95616 28.84232
#
# Velocity S-wave (km/s) = 2.98556 3.84059 3.43975
# Velocity P-wave (km/s) = 4.70056 7.02842 5.97888
#
# Compressibility (1/GPa) = 0.04017690
#
# Stress axis : x y z
#
# Youngs Moduli (GPa) = 113.08121 14.98659 110.56091
#
# Poissons Ratio (x) = 0.21330 0.13348
# Poissons Ratio (y) = 1.60942 0.74949
# Poissons Ratio (z) = 0.13652 0.10159
#
# Static dielectric constant tensor:
#      x y z
#    x 1.949030 0.000000 0.000000 
#    y 0.000000 1.963230 0.000000 
#    z 0.000000 0.000000 1.929350 
# 
# From -- ./inp_files/26351.got.cif
#   From: 2010.05.17/outbox.cif.g08.bks.cpg/sg66_14_cif.got.tgz:26351.got - 2010.06.03 17:51:23.
