data_PCOD9495353
_publ_section_title
;
Structure prediction by ZEFSAII (Michael W. Deem and Ramdas Pophale) SiO2 
 PCOD9495353
Probable space group: C C C M
;
_chemical_formula_sum "Si O2"
_cell_formula_units_Z 80
_cell_length_a 26.540711
_cell_length_b 9.982641
_cell_length_c 16.658118
_cell_angle_alpha 90.000000
_cell_angle_beta 90.000000
_cell_angle_gamma 90.000000
_cell_volume 4413.508225
_symmetry_space_group_name_H-M "C C C M"
_symmetry_group_IT_number 66
_symmetry_cell_setting 'orthorhombic'
loop_
_space_group_symop_operation_xyz
x,y,z
-x,-y,z
x,-y,1/2-z
-x,y,1/2-z
-x,-y,-z
x,y,-z
-x,y,1/2+z
x,-y,1/2+z
1/2+x,1/2+y,z
1/2-x,1/2-y,z
1/2+x,1/2-y,1/2-z
1/2-x,1/2+y,1/2-z
1/2-x,1/2-y,-z
1/2+x,1/2+y,-z
1/2-x,1/2+y,1/2+z
1/2+x,1/2-y,1/2+z
loop_
_atom_site_type_symbol
_atom_site_label
_atom_site_fract_x
_atom_site_fract_y
_atom_site_fract_z
Si Si1 0.467358 0.720084 0.097218
Si Si2 0.081835 0.745760 0.596314
Si Si3 0.109413 0.452763 0.597552
Si Si4 0.383245 0.519796 0.844386
Si Si5 0.307761 0.255865 0.402800
O O1 0.524800 0.726809 0.125482
O O2 0.437913 0.857336 0.117525
O O3 0.434254 0.598818 0.131168
O O4 0.466887 0.706737 0.000000
O O5 0.078529 0.734959 0.500000
O O6 0.102155 0.603515 0.627561
O O7 0.115428 0.873193 0.617003
O O8 0.111115 0.458276 0.500000
O O9 0.159294 0.372858 0.623601
O O10 0.381307 0.500000 0.750000
O O11 0.337715 0.613379 0.873762
O O12 0.308440 0.257935 0.500000
O O13 0.250000 0.250000 0.376119
#
# Coordination Sequence:
#
# PCOD9495353 Si02
#       5
#    16  16  16  16  16
#     4   9  17  31  51  73 102 140 173 201 244 305
#     4  10  18  30  51  77 102 131 171 216 252 289
#     4   8  15  29  51  78 101 124 165 216 257 294
#     4  11  22  34  48  73 106 136 166 206 256 311
#     4   9  18  37  61  77  95 131 176 217 263 319
#
# _framework density 18.126169999999998
#
# number of rings (size 3 to 8) (size 9 to 14) (size 15 to 20)
#    0.000    2.600    0.000    4.200    0.000    5.600 
#    0.000    7.000    0.000    9.600    0.000    0.000 
#    0.000    0.000    0.000    0.000    0.000    0.000 
#
# Total GULP energy -223113.916163 kJ/mol
# GULP energy per Si atom -5577.847904 kJ/mol
# Density = 1.808491 g / cm^3
# Si number density = 18.126170 Si / 1000 Ang^3
#
#
#
# Elastic Constant Matrix: (Units=GPa)
#
#
# Indices 1 2 3 4 5 6 
#
# 1 128.2490 69.4088 19.0465 0.0000 0.0000 0.0000
# 2 69.4088 160.0398 12.3603 0.0000 0.0000 0.0000
# 3 19.0465 12.3603 10.3312 0.0000 0.0000 0.0000
# 4 0.0000 0.0000 0.0000 -20.3217 0.0000 0.0000
# 5 0.0000 0.0000 0.0000 0.0000 8.6705 0.0000
# 6 0.0000 0.0000 0.0000 0.0000 0.0000 5.6281
#
#
#
# Elastic Compliance Matrix: (Units=1/GPa)
#
#
# Indices 1 2 3 4 5 6 
#
# 1 0.012792 -0.004106 -0.018672 0.000000 0.000000 0.000000
# 2 -0.004106 0.008202 -0.002244 0.000000 0.000000 0.000000
# 3 -0.018672 -0.002244 0.133902 0.000000 0.000000 0.000000
# 4 0.000000 0.000000 0.000000 -0.049208 0.000000 0.000000
# 5 0.000000 0.000000 0.000000 0.000000 0.115333 0.000000
# 6 0.000000 0.000000 0.000000 0.000000 0.000000 0.177681
#
#
# Mechanical properties :
#
#
# Convention : Reuss Voigt Hill
#
# Bulk Modulus (GPa) = 9.53708 55.58348 32.56028
# Shear Modulus (GPa) = 10.33707 11.98234 11.15970
#
# Velocity S-wave (km/s) = 2.39065 2.57388 2.48396
# Velocity P-wave (km/s) = 3.59071 6.29003 5.12141
#
# Compressibility (1/GPa) = 0.10485386
#
# Stress axis : x y z
#
# Youngs Moduli (GPa) = 78.17083 121.91414 7.46816
#
# Poissons Ratio (x) = 0.50058 0.13944
# Poissons Ratio (y) = 0.32097 0.01676
# Poissons Ratio (z) = 1.45959 0.27354
#
# Static dielectric constant tensor:
#      x y z
#    x 1.610270 0.000000 0.000000 
#    y 0.000000 1.631130 0.000000 
#    z 0.000000 0.000000 1.623120 
# 
# From -- ./inp_files/36957.got.cif
#   From: 2010.05.17/outbox.cif.g08.bks.cpg/sg66_19_cif.got.tgz:36957.got - 2010.06.03 17:51:23.
