data_PCOD9495546
_publ_section_title
;
Structure prediction by ZEFSAII (Michael W. Deem and Ramdas Pophale) SiO2 
 PCOD9495546
Probable space group: C C C M
;
_chemical_formula_sum "Si O2"
_cell_formula_units_Z 96
_cell_length_a 12.627889
_cell_length_b 24.051950
_cell_length_c 14.672878
_cell_angle_alpha 90.000000
_cell_angle_beta 90.000000
_cell_angle_gamma 90.000000
_cell_volume 4456.525077
_symmetry_space_group_name_H-M "C C C M"
_symmetry_group_IT_number 66
_symmetry_cell_setting 'orthorhombic'
loop_
_space_group_symop_operation_xyz
x,y,z
-x,-y,z
x,-y,1/2-z
-x,y,1/2-z
-x,-y,-z
x,y,-z
-x,y,1/2+z
x,-y,1/2+z
1/2+x,1/2+y,z
1/2-x,1/2-y,z
1/2+x,1/2-y,1/2-z
1/2-x,1/2+y,1/2-z
1/2-x,1/2-y,-z
1/2+x,1/2+y,-z
1/2-x,1/2+y,1/2+z
1/2+x,1/2-y,1/2+z
loop_
_atom_site_type_symbol
_atom_site_label
_atom_site_fract_x
_atom_site_fract_y
_atom_site_fract_z
Si Si1 0.260461 0.378651 0.112036
Si Si2 0.545988 0.821867 0.104319
Si Si3 0.375091 0.493462 0.110026
Si Si4 0.554296 0.300829 0.658417
Si Si5 0.369087 0.387062 0.395904
Si Si6 0.183305 0.300989 0.606738
O O1 0.141507 0.360455 0.139156
O O2 0.308165 0.439163 0.138042
O O3 0.337169 0.334132 0.159815
O O4 0.269210 0.372703 0.000000
O O5 0.573596 0.755884 0.103328
O O6 0.428202 0.820500 0.146715
O O7 0.532027 0.841244 0.000000
O O8 0.500000 0.500000 0.132577
O O9 0.339528 0.553617 0.146578
O O10 0.367644 0.489644 0.000000
O O11 0.500000 0.280060 0.750000
O O12 0.467719 0.348086 0.631045
O O13 0.396752 0.400604 0.500000
O O14 0.265207 0.350454 0.393569
O O15 0.160809 0.283780 0.500000
O O16 0.250000 0.250000 0.649135
#
# Coordination Sequence:
#
# PCOD9495546 Si02
#       6
#    16  16  16  16  16  16
#     4  10  20  37  59  82 111 146 186 229 281 335
#     4  10  20  37  58  80 109 147 186 229 281 335
#     4   9  16  29  55  83 107 138 181 232 277 323
#     4  12  23  34  50  83 113 146 180 230 281 334
#     4  10  18  33  56  79 106 142 186 225 272 331
#     4   9  16  29  53  79 103 138 183 222 266 327
#
# _framework density 21.541449
#
# number of rings (size 3 to 8) (size 9 to 14) (size 15 to 20)
#    0.000    2.000    3.333    2.000    0.000    1.333 
#    6.000    2.500    0.000    5.000    0.000    0.000 
#    0.000    0.000    0.000    0.000    0.000    0.000 
#
# Total GULP energy -267252.998585 kJ/mol
# GULP energy per Si atom -5567.770804 kJ/mol
# Density = 2.149242 g / cm^3
# Si number density = 21.541449 Si / 1000 Ang^3
#
#
#
# Elastic Constant Matrix: (Units=GPa)
#
#
# Indices 1 2 3 4 5 6 
#
# 1 147.5034 44.8813 7.9761 0.0000 0.0000 0.0000
# 2 44.8813 106.0201 5.5225 0.0000 0.0000 0.0000
# 3 7.9761 5.5225 53.5438 0.0000 0.0000 0.0000
# 4 0.0000 0.0000 0.0000 -15.8149 0.0000 0.0000
# 5 0.0000 0.0000 0.0000 0.0000 6.2897 0.0000
# 6 0.0000 0.0000 0.0000 0.0000 0.0000 28.6739
#
#
#
# Elastic Compliance Matrix: (Units=1/GPa)
#
#
# Indices 1 2 3 4 5 6 
#
# 1 0.007818 -0.003267 -0.000828 0.000000 0.000000 0.000000
# 2 -0.003267 0.010848 -0.000632 0.000000 0.000000 0.000000
# 3 -0.000828 -0.000632 0.018865 0.000000 0.000000 0.000000
# 4 0.000000 0.000000 0.000000 -0.063232 0.000000 0.000000
# 5 0.000000 0.000000 0.000000 0.000000 0.158990 0.000000
# 6 0.000000 0.000000 0.000000 0.000000 0.000000 0.034875
#
#
# Mechanical properties :
#
#
# Convention : Reuss Voigt Hill
#
# Bulk Modulus (GPa) = 35.61522 47.09190 41.35356
# Shear Modulus (GPa) = 26.74132 20.40890 23.57511
#
# Velocity S-wave (km/s) = 3.52716 3.08137 3.31177
# Velocity P-wave (km/s) = 5.75821 5.87948 5.81916
#
# Compressibility (1/GPa) = 0.02807789
#
# Stress axis : x y z
#
# Youngs Moduli (GPa) = 127.90693 92.18350 53.00874
#
# Poissons Ratio (x) = 0.30112 0.04388
# Poissons Ratio (y) = 0.41781 0.03352
# Poissons Ratio (z) = 0.10587 0.05828
#
# Static dielectric constant tensor:
#      x y z
#    x 1.823940 0.000000 0.000000 
#    y 0.000000 2.158890 0.000000 
#    z 0.000000 0.000000 1.947460 
# 
# From -- ./inp_files/38826.got.cif
#   From: 2010.05.17/outbox.cif.g08.bks.cpg/sg66_20_cif.got.tgz:38826.got - 2010.06.03 17:51:23.
