data_PCOD9495232
_publ_section_title
;
Structure prediction by ZEFSAII (Michael W. Deem and Ramdas Pophale) SiO2 
 PCOD9495232
Probable space group: C C C M
;
_chemical_formula_sum "Si O2"
_cell_formula_units_Z 96
_cell_length_a 9.617618
_cell_length_b 21.460838
_cell_length_c 20.598796
_cell_angle_alpha 90.000000
_cell_angle_beta 90.000000
_cell_angle_gamma 90.000000
_cell_volume 4251.635614
_symmetry_space_group_name_H-M "C C C M"
_symmetry_group_IT_number 66
_symmetry_cell_setting 'orthorhombic'
loop_
_space_group_symop_operation_xyz
x,y,z
-x,-y,z
x,-y,1/2-z
-x,y,1/2-z
-x,-y,-z
x,y,-z
-x,y,1/2+z
x,-y,1/2+z
1/2+x,1/2+y,z
1/2-x,1/2-y,z
1/2+x,1/2-y,1/2-z
1/2-x,1/2+y,1/2-z
1/2-x,1/2-y,-z
1/2+x,1/2+y,-z
1/2-x,1/2+y,1/2+z
1/2+x,1/2-y,1/2+z
loop_
_atom_site_type_symbol
_atom_site_label
_atom_site_fract_x
_atom_site_fract_y
_atom_site_fract_z
Si Si1 0.848315 0.103761 0.248569
Si Si2 0.939742 0.200408 0.922073
Si Si3 0.344659 0.503843 0.856662
Si Si4 0.109429 0.425542 0.924709
Si Si5 0.628859 0.158494 0.921687
Si Si6 0.720775 0.677722 0.859675
O O1 0.859408 0.047488 0.300102
O O2 0.749912 0.151620 0.286944
O O3 0.000000 0.134438 0.250000
O O4 0.819024 0.068641 0.181412
O O5 0.792588 0.167239 0.909592
O O6 0.930706 0.273443 0.902299
O O7 0.062383 0.168921 0.882694
O O8 0.964602 0.198266 0.000000
O O9 0.500000 0.500000 0.889608
O O10 0.209628 0.479076 0.895378
O O11 0.194376 0.362282 0.911495
O O12 0.959640 0.401195 0.897481
O O13 0.093873 0.440115 0.000000
O O14 0.615919 0.155759 0.000000
O O15 0.750000 0.750000 0.863331
#
# Coordination Sequence:
#
# PCOD9495232 Si02
#       6
#    16  16  16  16  16  16
#     4   8  16  32  51  70 101 146 202 247 308 370
#     4   9  16  27  43  68 114 166 195 223 287 379
#     4   8  15  30  51  76 101 147 200 258 315 364
#     4  10  18  27  46  82 120 149 189 251 312 375
#     4   8  15  27  42  65 109 165 201 224 280 375
#     4  11  19  27  48  80 113 150 193 249 307 372
#
# _framework density 22.579546000000001
#
# number of rings (size 3 to 8) (size 9 to 14) (size 15 to 20)
#    0.000    3.000    1.667    2.500    0.000    1.000 
#    0.000    0.000    3.667    0.000    0.000   38.500 
#    0.000   38.333    0.000    0.000    0.000    0.000 
#
# Total GULP energy -267245.255860 kJ/mol
# GULP energy per Si atom -5567.609497 kJ/mol
# Density = 2.252815 g / cm^3
# Si number density = 22.579546 Si / 1000 Ang^3
#
#
#
# Elastic Constant Matrix: (Units=GPa)
#
#
# Indices 1 2 3 4 5 6 
#
# 1 136.8790 43.6213 33.0990 0.0000 0.0000 0.0000
# 2 43.6213 88.0756 47.3628 0.0000 0.0000 0.0000
# 3 33.0990 47.3628 48.5733 0.0000 0.0000 0.0000
# 4 0.0000 0.0000 0.0000 21.2642 0.0000 0.0000
# 5 0.0000 0.0000 0.0000 0.0000 5.4907 0.0000
# 6 0.0000 0.0000 0.0000 0.0000 0.0000 39.8175
#
#
#
# Elastic Compliance Matrix: (Units=1/GPa)
#
#
# Indices 1 2 3 4 5 6 
#
# 1 0.008989 -0.002435 -0.003751 0.000000 0.000000 0.000000
# 2 -0.002435 0.024530 -0.022259 0.000000 0.000000 0.000000
# 3 -0.003751 -0.022259 0.044848 0.000000 0.000000 0.000000
# 4 0.000000 0.000000 0.000000 0.047027 0.000000 0.000000
# 5 0.000000 0.000000 0.000000 0.000000 0.182127 0.000000
# 6 0.000000 0.000000 0.000000 0.000000 0.000000 0.025115
#
#
# Mechanical properties :
#
#
# Convention : Reuss Voigt Hill
#
# Bulk Modulus (GPa) = 46.56294 57.96600 52.26447
# Shear Modulus (GPa) = 12.60447 23.27747 17.94097
#
# Velocity S-wave (km/s) = 2.36524 3.21426 2.82186
# Velocity P-wave (km/s) = 5.30336 6.28514 5.81501
#
# Compressibility (1/GPa) = 0.02147631
#
# Stress axis : x y z
#
# Youngs Moduli (GPa) = 111.25104 40.76689 22.29745
#
# Poissons Ratio (x) = 0.09925 0.08364
# Poissons Ratio (y) = 0.27086 0.49633
# Poissons Ratio (z) = 0.41731 0.90744
#
# Static dielectric constant tensor:
#      x y z
#    x 1.951960 0.000000 0.000000 
#    y 0.000000 1.904530 0.000000 
#    z 0.000000 0.000000 1.831400 
# 
# From -- ./inp_files/55651.got.cif
#   From: 2010.05.17/outbox.cif.g08.bks.cpg/sg66_28_cif.got.tgz:55651.got - 2010.06.03 17:51:23.
