data_PCOD9495735
_publ_section_title
;
Structure prediction by ZEFSAII (Michael W. Deem and Ramdas Pophale) SiO2 
 PCOD9495735
Probable space group: C C C M
;
_chemical_formula_sum "Si O2"
_cell_formula_units_Z 96
_cell_length_a 27.705627
_cell_length_b 27.502939
_cell_length_c 9.964099
_cell_angle_alpha 90.000000
_cell_angle_beta 90.000000
_cell_angle_gamma 90.000000
_cell_volume 7592.505628
_symmetry_space_group_name_H-M "C C C M"
_symmetry_group_IT_number 66
_symmetry_cell_setting 'orthorhombic'
loop_
_space_group_symop_operation_xyz
x,y,z
-x,-y,z
x,-y,1/2-z
-x,y,1/2-z
-x,-y,-z
x,y,-z
-x,y,1/2+z
x,-y,1/2+z
1/2+x,1/2+y,z
1/2-x,1/2-y,z
1/2+x,1/2-y,1/2-z
1/2-x,1/2+y,1/2-z
1/2-x,1/2-y,-z
1/2+x,1/2+y,-z
1/2-x,1/2+y,1/2+z
1/2+x,1/2-y,1/2+z
loop_
_atom_site_type_symbol
_atom_site_label
_atom_site_fract_x
_atom_site_fract_y
_atom_site_fract_z
Si Si1 0.158874 0.304316 0.656247
Si Si2 0.764942 0.145915 0.152112
Si Si3 0.112668 0.403144 0.267002
Si Si4 0.786009 0.453862 0.842757
Si Si5 0.302829 0.276278 0.155705
Si Si6 0.952606 0.560957 0.500000
Si Si7 0.567044 0.053764 0.500000
O O1 0.145229 0.294762 0.500000
O O2 0.212898 0.327052 0.650275
O O3 0.126229 0.346414 0.721796
O O4 0.163261 0.257844 0.752571
O O5 0.752017 0.089864 0.179577
O O6 0.795533 0.173120 0.265312
O O7 0.784784 0.150853 0.000000
O O8 0.161090 0.431921 0.310435
O O9 0.070564 0.414312 0.371312
O O10 0.094331 0.423949 0.126985
O O11 0.777105 0.500000 0.750000
O O12 0.785053 0.466736 0.000000
O O13 0.250000 0.250000 0.153817
O O14 0.317729 0.281142 0.000000
O O15 0.934434 0.504919 0.500000
O O16 0.010075 0.565518 0.500000
#
# Coordination Sequence:
#
# PCOD9495735 Si02
#       7
#    16  16  16  16  16   8   8
#     4   9  16  28  42  54  72  97 116 142 183 231
#     4   8  15  27  38  53  74  99 123 142 177 224
#     4  11  20  32  44  59  74  93 122 158 197 240
#     4  10  19  29  42  57  76 102 129 158 190 227
#     4   9  16  24  38  58  77  91 114 145 178 218
#     4  11  20  38  44  56  73  94 124 152 200 251
#     4  11  24  30  48  58  71  94 120 162 200 237
#
# _framework density 12.644047
#
# number of rings (size 3 to 8) (size 9 to 14) (size 15 to 20)
#    0.000    2.333    1.667    3.500    2.333    4.000 
#    3.000    0.000    0.000    0.000    0.000    0.000 
#    0.000    0.000    0.000    0.000    0.000    0.000 
#
# Total GULP energy -267357.093014 kJ/mol
# GULP energy per Si atom -5569.939438 kJ/mol
# Density = 1.261527 g / cm^3
# Si number density = 12.644047 Si / 1000 Ang^3
#
#
#
# Elastic Constant Matrix: (Units=GPa)
#
#
# Indices 1 2 3 4 5 6 
#
# 1 24.6267 29.1578 25.5844 0.0000 0.0000 0.0000
# 2 29.1578 80.7676 63.1977 0.0000 0.0000 0.0000
# 3 25.5844 63.1977 109.1243 0.0000 0.0000 0.0000
# 4 0.0000 0.0000 0.0000 19.8948 0.0000 0.0000
# 5 0.0000 0.0000 0.0000 0.0000 -12.1112 0.0000
# 6 0.0000 0.0000 0.0000 0.0000 0.0000 18.3060
#
#
#
# Elastic Compliance Matrix: (Units=1/GPa)
#
#
# Indices 1 2 3 4 5 6 
#
# 1 0.071572 -0.023239 -0.003322 0.000000 0.000000 0.000000
# 2 -0.023239 0.030187 -0.012034 0.000000 0.000000 0.000000
# 3 -0.003322 -0.012034 0.016912 0.000000 0.000000 0.000000
# 4 0.000000 0.000000 0.000000 0.050264 0.000000 0.000000
# 5 0.000000 0.000000 0.000000 0.000000 -0.082568 0.000000
# 6 0.000000 0.000000 0.000000 0.000000 0.000000 0.054627
#
#
# Mechanical properties :
#
#
# Convention : Reuss Voigt Hill
#
# Bulk Modulus (GPa) = 24.10709 50.04426 37.07567
# Shear Modulus (GPa) = 21.55086 11.65651 16.60368
#
# Velocity S-wave (km/s) = 4.13295 3.03957 3.62769
# Velocity P-wave (km/s) = 6.47166 7.20998 6.85078
#
# Compressibility (1/GPa) = 0.04148158
#
# Stress axis : x y z
#
# Youngs Moduli (GPa) = 13.97196 33.12716 59.13037
#
# Poissons Ratio (x) = 0.76985 0.19641
# Poissons Ratio (y) = 0.32470 0.71156
# Poissons Ratio (z) = 0.04641 0.39864
#
# Static dielectric constant tensor:
#      x y z
#    x 1.382010 0.000000 0.000000 
#    y 0.000000 1.415940 0.000000 
#    z 0.000000 0.000000 1.401970 
# 
# From -- ./inp_files/9334.got.cif
#   From: 2010.05.17/outbox.cif.g08.bks.cpg/sg66_5_cif.got.tgz:9334.got - 2010.06.03 17:51:23.
