data_PCOD9495815
_publ_section_title
;
Structure prediction by ZEFSAII (Michael W. Deem and Ramdas Pophale) SiO2 
 PCOD9495815
Probable space group: C C C M
;
_chemical_formula_sum "Si O2"
_cell_formula_units_Z 80
_cell_length_a 13.620639
_cell_length_b 29.197177
_cell_length_c 8.579387
_cell_angle_alpha 90.000000
_cell_angle_beta 90.000000
_cell_angle_gamma 90.000000
_cell_volume 3411.886722
_symmetry_space_group_name_H-M "C C C M"
_symmetry_group_IT_number 66
_symmetry_cell_setting 'orthorhombic'
loop_
_space_group_symop_operation_xyz
x,y,z
-x,-y,z
x,-y,1/2-z
-x,y,1/2-z
-x,-y,-z
x,y,-z
-x,y,1/2+z
x,-y,1/2+z
1/2+x,1/2+y,z
1/2-x,1/2-y,z
1/2+x,1/2-y,1/2-z
1/2-x,1/2+y,1/2-z
1/2-x,1/2-y,-z
1/2+x,1/2+y,-z
1/2-x,1/2+y,1/2+z
1/2+x,1/2-y,1/2+z
loop_
_atom_site_type_symbol
_atom_site_label
_atom_site_fract_x
_atom_site_fract_y
_atom_site_fract_z
Si Si1 0.398328 0.562053 0.675821
Si Si2 0.630703 0.754183 0.318804
Si Si3 0.856978 0.353496 0.181689
Si Si4 0.655452 0.663883 0.826721
Si Si5 0.318288 0.951788 0.813471
O O1 0.500000 0.546839 0.750000
O O2 0.388068 0.544222 0.500000
O O3 0.404783 0.617344 0.667904
O O4 0.296771 0.551139 0.763790
O O5 0.600472 0.750399 0.500000
O O6 0.750000 0.750000 0.317425
O O7 0.605240 0.804755 0.254036
O O8 0.601881 0.710568 0.217063
O O9 0.739910 0.346473 0.200973
O O10 0.871213 0.404876 0.246947
O O11 0.884240 0.354095 0.000000
O O12 0.700855 0.669311 0.000000
O O13 0.357477 0.000000 0.750000
O O14 0.323819 0.951312 0.000000
#
# Coordination Sequence:
#
# PCOD9495815 Si02
#       5
#    16  16  16  16  16
#     4  10  20  32  43  55  71  93 124 159 194 227
#     4   8  13  22  36  53  72  93 114 134 165 213
#     4   8  15  26  38  52  71  94 116 140 173 216
#     4   9  16  24  36  55  74  89 110 144 181 215
#     4  10  19  31  44  56  72  94 123 159 195 225
#
# _framework density 23.447437000000001
#
# number of rings (size 3 to 8) (size 9 to 14) (size 15 to 20)
#    0.000    3.000    0.000    3.000    0.000    7.200 
#    0.000    2.000    0.000    0.000    0.000    0.000 
#    0.000    0.000    0.000    0.000    0.000    1.000 
#
# Total GULP energy -222864.133382 kJ/mol
# GULP energy per Si atom -5571.603335 kJ/mol
# Density = 2.339407 g / cm^3
# Si number density = 23.447437 Si / 1000 Ang^3
#
#
#
# Elastic Constant Matrix: (Units=GPa)
#
#
# Indices 1 2 3 4 5 6 
#
# 1 48.6857 -6.3365 -1.6122 0.0000 0.0000 0.0000
# 2 -6.3365 253.4635 27.0380 0.0000 0.0000 0.0000
# 3 -1.6122 27.0380 40.4874 0.0000 0.0000 0.0000
# 4 0.0000 0.0000 0.0000 34.4140 0.0000 0.0000
# 5 0.0000 0.0000 0.0000 0.0000 2.0873 0.0000
# 6 0.0000 0.0000 0.0000 0.0000 0.0000 -26.9393
#
#
#
# Elastic Compliance Matrix: (Units=1/GPa)
#
#
# Indices 1 2 3 4 5 6 
#
# 1 0.020617 0.000461 0.000513 0.000000 0.000000 0.000000
# 2 0.000461 0.004258 -0.002825 0.000000 0.000000 0.000000
# 3 0.000513 -0.002825 0.026606 0.000000 0.000000 0.000000
# 4 0.000000 0.000000 0.000000 0.029058 0.000000 0.000000
# 5 0.000000 0.000000 0.000000 0.000000 0.479087 0.000000
# 6 0.000000 0.000000 0.000000 0.000000 0.000000 -0.037121
#
#
# Mechanical properties :
#
#
# Convention : Reuss Voigt Hill
#
# Bulk Modulus (GPa) = 20.92988 42.31283 31.62136
# Shear Modulus (GPa) = 9.22280 23.48222 16.35251
#
# Velocity S-wave (km/s) = 1.98543 3.16806 2.64372
# Velocity P-wave (km/s) = 3.76850 5.60955 4.77853
#
# Compressibility (1/GPa) = 0.04777859
#
# Stress axis : x y z
#
# Youngs Moduli (GPa) = 48.50402 234.83817 37.58509
#
# Poissons Ratio (x) = -0.10818 -0.01929
# Poissons Ratio (y) = -0.02234 0.10619
# Poissons Ratio (z) = -0.02490 0.66351
#
# Static dielectric constant tensor:
#      x y z
#    x 1.865000 0.000000 0.000000 
#    y 0.000000 1.989810 0.000000 
#    z 0.000000 0.000000 1.843240 
# 
# From -- ./inp_files/6888.got.cif
#   From: 2010.05.17/outbox.cif.g08.bks.cpg/sg66_4_cif.got.tgz:6888.got - 2010.06.03 17:51:23.
