data_PCOD9495409
_publ_section_title
;
Structure prediction by ZEFSAII (Michael W. Deem and Ramdas Pophale) SiO2 
 PCOD9495409
Probable space group: C C C M
;
_chemical_formula_sum "Si O2"
_cell_formula_units_Z 96
_cell_length_a 18.376942
_cell_length_b 13.478371
_cell_length_c 21.309154
_cell_angle_alpha 90.000000
_cell_angle_beta 90.000000
_cell_angle_gamma 90.000000
_cell_volume 5278.090823
_symmetry_space_group_name_H-M "C C C M"
_symmetry_group_IT_number 66
_symmetry_cell_setting 'orthorhombic'
loop_
_space_group_symop_operation_xyz
x,y,z
-x,-y,z
x,-y,1/2-z
-x,y,1/2-z
-x,-y,-z
x,y,-z
-x,y,1/2+z
x,-y,1/2+z
1/2+x,1/2+y,z
1/2-x,1/2-y,z
1/2+x,1/2-y,1/2-z
1/2-x,1/2+y,1/2-z
1/2-x,1/2-y,-z
1/2+x,1/2+y,-z
1/2-x,1/2+y,1/2+z
1/2+x,1/2-y,1/2+z
loop_
_atom_site_type_symbol
_atom_site_label
_atom_site_fract_x
_atom_site_fract_y
_atom_site_fract_z
Si Si1 0.181711 0.326291 0.371896
Si Si2 0.386082 0.415832 0.195216
Si Si3 0.667487 0.793189 0.233572
Si Si4 0.836259 0.244252 0.000000
Si Si5 0.114153 0.024475 0.500000
Si Si6 0.500000 0.500000 0.108191
Si Si7 0.773555 0.445808 0.365306
Si Si8 0.255582 0.631667 0.500000
O O1 0.250000 0.250000 0.369562
O O2 0.144246 0.319826 0.304057
O O3 0.138677 0.295619 0.435049
O O4 0.209247 0.438767 0.373366
O O5 0.388884 0.500000 0.250000
O O6 0.379629 0.301674 0.214821
O O7 0.458120 0.425305 0.153530
O O8 0.310352 0.436952 0.158033
O O9 0.750000 0.750000 0.235880
O O10 0.676776 0.884984 0.184949
O O11 0.750000 0.250000 0.000000
O O12 0.844539 0.126971 0.000000
O O13 0.063558 0.031652 0.561140
O O14 0.166157 0.927507 0.500000
O O15 0.780293 0.400201 0.434480
O O16 0.250000 0.750000 0.500000
#
# Coordination Sequence:
#
# PCOD9495409 Si02
#       8
#    16  16  16   8   8   8  16   8
#     4  10  18  31  52  83 112 149 183 231 314 345
#     4  11  21  35  55  82 118 154 203 233 285 362
#     4   9  19  32  52  81 115 153 180 241 306 347
#     4  10  21  33  58  82 112 147 184 240 293 345
#     4  11  24  42  56  85 128 145 195 240 291 357
#     4  11  25  38  58  78 121 167 190 234 292 337
#     4  11  20  34  54  85 124 148 186 249 305 363
#     4  12  21  33  58  79 118 161 186 244 302 365
#
# _framework density 18.188395
#
# number of rings (size 3 to 8) (size 9 to 14) (size 15 to 20)
#    0.000    1.500    1.667    7.750    2.333    0.000 
#    0.000    0.000    0.000    0.000    0.000    2.333 
#    0.000    0.000    0.000    0.000    0.000    0.000 
#
# Total GULP energy -267242.932162 kJ/mol
# GULP energy per Si atom -5567.561087 kJ/mol
# Density = 1.814700 g / cm^3
# Si number density = 18.188395 Si / 1000 Ang^3
#
#
#
# Elastic Constant Matrix: (Units=GPa)
#
#
# Indices 1 2 3 4 5 6 
#
# 1 39.4093 39.9320 33.2479 0.0000 0.0000 0.0000
# 2 39.9320 173.3117 70.3491 0.0000 0.0000 0.0000
# 3 33.2479 70.3491 155.6680 0.0000 0.0000 0.0000
# 4 0.0000 0.0000 0.0000 53.0939 0.0000 0.0000
# 5 0.0000 0.0000 0.0000 0.0000 3.0838 0.0000
# 6 0.0000 0.0000 0.0000 0.0000 0.0000 15.4762
#
#
#
# Elastic Compliance Matrix: (Units=1/GPa)
#
#
# Indices 1 2 3 4 5 6 
#
# 1 0.035811 -0.006302 -0.004800 0.000000 0.000000 0.000000
# 2 -0.006302 0.008175 -0.002348 0.000000 0.000000 0.000000
# 3 -0.004800 -0.002348 0.008511 0.000000 0.000000 0.000000
# 4 0.000000 0.000000 0.000000 0.018835 0.000000 0.000000
# 5 0.000000 0.000000 0.000000 0.000000 0.324276 0.000000
# 6 0.000000 0.000000 0.000000 0.000000 0.000000 0.064615
#
#
# Mechanical properties :
#
#
# Convention : Reuss Voigt Hill
#
# Bulk Modulus (GPa) = 39.07179 72.82744 55.94961
# Shear Modulus (GPa) = 10.08764 29.32143 19.70454
#
# Velocity S-wave (km/s) = 2.35759 4.01945 3.29501
# Velocity P-wave (km/s) = 5.37953 7.85295 6.73083
#
# Compressibility (1/GPa) = 0.02559392
#
# Stress axis : x y z
#
# Youngs Moduli (GPa) = 27.92471 122.31881 117.50182
#
# Poissons Ratio (x) = 0.77091 0.56404
# Poissons Ratio (y) = 0.17599 0.27595
# Poissons Ratio (z) = 0.13405 0.28726
#
# Static dielectric constant tensor:
#      x y z
#    x 1.615890 0.000000 0.000000 
#    y 0.000000 1.791700 0.000000 
#    z 0.000000 0.000000 1.734510 
# 
# From -- ./inp_files/51882.got.cif
#   From: 2010.05.17/outbox.cif.g08.bks.cpg/sg66_26_cif.got.tgz:51882.got - 2010.06.03 17:51:23.
