data_PCOD9495688
_publ_section_title
;
Structure prediction by ZEFSAII (Michael W. Deem and Ramdas Pophale) SiO2 
 PCOD9495688
Probable space group: C C C M
;
_chemical_formula_sum "Si O2"
_cell_formula_units_Z 80
_cell_length_a 13.903536
_cell_length_b 13.400886
_cell_length_c 22.573699
_cell_angle_alpha 90.000000
_cell_angle_beta 90.000000
_cell_angle_gamma 90.000000
_cell_volume 4205.924847
_symmetry_space_group_name_H-M "C C C M"
_symmetry_group_IT_number 66
_symmetry_cell_setting 'orthorhombic'
loop_
_space_group_symop_operation_xyz
x,y,z
-x,-y,z
x,-y,1/2-z
-x,y,1/2-z
-x,-y,-z
x,y,-z
-x,y,1/2+z
x,-y,1/2+z
1/2+x,1/2+y,z
1/2-x,1/2-y,z
1/2+x,1/2-y,1/2-z
1/2-x,1/2+y,1/2-z
1/2-x,1/2-y,-z
1/2+x,1/2+y,-z
1/2-x,1/2+y,1/2+z
1/2+x,1/2-y,1/2+z
loop_
_atom_site_type_symbol
_atom_site_label
_atom_site_fract_x
_atom_site_fract_y
_atom_site_fract_z
Si Si1 0.933872 0.405571 0.889700
Si Si2 0.969308 0.883230 0.000000
Si Si3 0.566580 0.785788 0.805697
Si Si4 0.793540 0.529233 0.187834
Si Si5 0.824037 0.840428 0.107822
Si Si6 0.360613 0.783532 0.000000
O O1 0.863988 0.444936 0.837983
O O2 0.880572 0.353123 0.943296
O O3 0.000000 0.500000 0.908539
O O4 0.002722 0.324614 0.860049
O O5 0.900970 0.860935 0.056786
O O6 0.000000 0.000000 0.000000
O O7 0.061909 0.808523 0.000000
O O8 0.500000 0.765133 0.750000
O O9 0.640031 0.876318 0.794520
O O10 0.625439 0.694347 0.831406
O O11 0.744117 0.500000 0.250000
O O12 0.733600 0.563153 0.130280
O O13 0.750000 0.750000 0.091065
O O14 0.250000 0.750000 0.000000
#
# Coordination Sequence:
#
# PCOD9495688 Si02
#       6
#    16   8  16  16  16   8
#     4  10  21  39  70  93 124 165 212 268 318 366
#     4  12  27  48  64  84 134 172 211 264 318 372
#     4  10  18  37  63  94 126 166 207 262 319 366
#     4  10  20  36  63  99 129 156 209 262 319 373
#     4  10  23  43  67  92 120 173 218 254 307 383
#     4  12  27  46  62  96 128 164 217 268 324 376
#
# _framework density 19.020786999999999
#
# number of rings (size 3 to 8) (size 9 to 14) (size 15 to 20)
#    0.000    1.600    4.000    0.600    2.800    0.000 
#    7.200    0.000    0.000    0.000    0.000    0.000 
#    0.000    0.000    0.000    0.000    0.000    0.000 
#
# Total GULP energy -223050.852133 kJ/mol
# GULP energy per Si atom -5576.271303 kJ/mol
# Density = 1.897750 g / cm^3
# Si number density = 19.020787 Si / 1000 Ang^3
#
#
#
# Elastic Constant Matrix: (Units=GPa)
#
#
# Indices 1 2 3 4 5 6 
#
# 1 90.1978 23.2844 42.9126 0.0000 0.0000 0.0000
# 2 23.2844 50.3059 29.0210 0.0000 0.0000 0.0000
# 3 42.9126 29.0210 99.9458 0.0000 0.0000 0.0000
# 4 0.0000 0.0000 0.0000-2278.3660 0.0000 0.0000
# 5 0.0000 0.0000 0.0000 0.0000 15.2157 0.0000
# 6 0.0000 0.0000 0.0000 0.0000 0.0000 2.9207
#
#
#
# Elastic Compliance Matrix: (Units=1/GPa)
#
#
# Indices 1 2 3 4 5 6 
#
# 1 0.014498 -0.003747 -0.005137 0.000000 0.000000 0.000000
# 2 -0.003747 0.024847 -0.005606 0.000000 0.000000 0.000000
# 3 -0.005137 -0.005606 0.013839 0.000000 0.000000 0.000000
# 4 0.000000 0.000000 0.000000 -0.000439 0.000000 0.000000
# 5 0.000000 0.000000 0.000000 0.000000 0.065722 0.000000
# 6 0.000000 0.000000 0.000000 0.000000 0.000000 0.342387
#
#
# Mechanical properties :
#
#
# Convention : Reuss Voigt Hill
#
# Bulk Modulus (GPa) = 41.31558 47.87616 44.59587
# Shear Modulus (GPa) = 10.04216 -442.36382 -216.16083
#
# Velocity S-wave (km/s) = 2.30022 -15.26675 -10.67198
# Velocity P-wave (km/s) = 5.36872 16.89792 11.32953
#
# Compressibility (1/GPa) = 0.02420394
#
# Stress axis : x y z
#
# Youngs Moduli (GPa) = 68.97535 40.24678 72.26116
#
# Poissons Ratio (x) = 0.15081 0.37119
# Poissons Ratio (y) = 0.25846 0.40508
# Poissons Ratio (z) = 0.35431 0.22562
#
# Static dielectric constant tensor:
#      x y z
#    x 1.656930 0.000000 0.000000 
#    y 0.000000 1.642300 0.000000 
#    z 0.000000 0.000000 1.644940 
# 
# From -- ./inp_files/57929.got.cif
#   From: 2010.05.17/outbox.cif.g08.bks.cpg/sg66_29_cif.got.tgz:57929.got - 2010.06.03 17:51:23.
