data_PCOD9495014
_publ_section_title
;
Structure prediction by ZEFSAII (Michael W. Deem and Ramdas Pophale) SiO2 
 PCOD9495014
Probable space group: C C C M
;
_chemical_formula_sum "Si O2"
_cell_formula_units_Z 112
_cell_length_a 25.727981
_cell_length_b 17.528873
_cell_length_c 15.892438
_cell_angle_alpha 90.000000
_cell_angle_beta 90.000000
_cell_angle_gamma 90.000000
_cell_volume 7167.211603
_symmetry_space_group_name_H-M "C C C M"
_symmetry_group_IT_number 66
_symmetry_cell_setting 'orthorhombic'
loop_
_space_group_symop_operation_xyz
x,y,z
-x,-y,z
x,-y,1/2-z
-x,y,1/2-z
-x,-y,-z
x,y,-z
-x,y,1/2+z
x,-y,1/2+z
1/2+x,1/2+y,z
1/2-x,1/2-y,z
1/2+x,1/2-y,1/2-z
1/2-x,1/2+y,1/2-z
1/2-x,1/2-y,-z
1/2+x,1/2+y,-z
1/2-x,1/2+y,1/2+z
1/2+x,1/2-y,1/2+z
loop_
_atom_site_type_symbol
_atom_site_label
_atom_site_fract_x
_atom_site_fract_y
_atom_site_fract_z
Si Si1 0.841717 0.730317 0.204870
Si Si2 0.607362 0.612923 0.406755
Si Si3 0.593117 0.568119 0.904985
Si Si4 0.558458 0.321264 0.737057
Si Si5 0.782672 0.588435 0.237000
Si Si6 0.284987 0.683431 0.860395
Si Si7 0.205491 0.149063 0.095154
O O1 0.900822 0.758171 0.204087
O O2 0.832239 0.641390 0.217789
O O3 0.813139 0.772357 0.283033
O O4 0.810318 0.766144 0.126377
O O5 0.586637 0.632440 0.500000
O O6 0.600177 0.522305 0.394533
O O7 0.579592 0.651476 0.327608
O O8 0.667733 0.639891 0.404955
O O9 0.561282 0.609392 0.830835
O O10 0.650712 0.604121 0.900971
O O11 0.572279 0.582180 0.000000
O O12 0.500000 0.294558 0.750000
O O13 0.792807 0.500000 0.250000
O O14 0.753533 0.621795 0.319236
O O15 0.743710 0.607621 0.160026
O O16 0.250000 0.750000 0.902689
O O17 0.224757 0.148544 0.000000
#
# Coordination Sequence:
#
# PCOD9495014 Si02
#       7
#    16  16  16  16  16  16  16
#     4   8  17  30  43  63  87 113 147 185 220 255
#     4  10  19  29  43  66  94 119 145 180 216 252
#     4   9  18  30  44  67  95 116 141 180 220 260
#     4  10  20  34  49  60  79 116 154 187 228 274
#     4  10  17  26  44  66  90 119 147 177 216 262
#     4   8  15  28  43  61  88 123 153 168 192 247
#     4   9  16  27  45  69  96 123 148 174 212 266
#
# _framework density 15.626719
#
# number of rings (size 3 to 8) (size 9 to 14) (size 15 to 20)
#    0.000    2.857    0.000    3.429    0.000    3.143 
#    0.000    1.429    0.000    3.857    0.000    0.000 
#    0.000    0.000    0.000   20.000    0.000    0.000 
#
# Total GULP energy -311816.013663 kJ/mol
# GULP energy per Si atom -5568.143101 kJ/mol
# Density = 1.559115 g / cm^3
# Si number density = 15.626719 Si / 1000 Ang^3
#
#
#
# Elastic Constant Matrix: (Units=GPa)
#
#
# Indices 1 2 3 4 5 6 
#
# 1 72.7254 30.6769 19.4110 0.0000 0.0000 0.0000
# 2 30.6769 103.1653 23.8495 0.0000 0.0000 0.0000
# 3 19.4110 23.8495 78.3119 0.0000 0.0000 0.0000
# 4 0.0000 0.0000 0.0000 12.1686 0.0000 0.0000
# 5 0.0000 0.0000 0.0000 0.0000 -7.2173 0.0000
# 6 0.0000 0.0000 0.0000 0.0000 0.0000 10.5543
#
#
#
# Elastic Compliance Matrix: (Units=1/GPa)
#
#
# Indices 1 2 3 4 5 6 
#
# 1 0.016255 -0.004198 -0.002751 0.000000 0.000000 0.000000
# 2 -0.004198 0.011511 -0.002465 0.000000 0.000000 0.000000
# 3 -0.002751 -0.002465 0.014202 0.000000 0.000000 0.000000
# 4 0.000000 0.000000 0.000000 0.082179 0.000000 0.000000
# 5 0.000000 0.000000 0.000000 0.000000 -0.138555 0.000000
# 6 0.000000 0.000000 0.000000 0.000000 0.000000 0.094748
#
#
# Mechanical properties :
#
#
# Convention : Reuss Voigt Hill
#
# Bulk Modulus (GPa) = 43.21295 44.67526 43.94411
# Shear Modulus (GPa) = 46.78084 15.11879 30.94981
#
# Velocity S-wave (km/s) = 5.47736 3.11383 4.45519
# Velocity P-wave (km/s) = 8.22892 6.44818 7.39237
#
# Compressibility (1/GPa) = 0.02314121
#
# Stress axis : x y z
#
# Youngs Moduli (GPa) = 61.51873 86.87118 70.41233
#
# Poissons Ratio (x) = 0.36466 0.19369
# Poissons Ratio (y) = 0.25824 0.17358
# Poissons Ratio (z) = 0.16922 0.21416
#
# Static dielectric constant tensor:
#      x y z
#    x 1.525420 0.000000 0.000000 
#    y 0.000000 1.518440 0.000000 
#    z 0.000000 0.000000 1.552560 
# 
# From -- ./inp_files/33338.got.cif
#   From: 2010.05.17/outbox.cif.g08.bks.cpg/sg66_17_cif.got.tgz:33338.got - 2010.06.03 17:51:23.
