data_PCOD9495906
_publ_section_title
;
Structure prediction by ZEFSAII (Michael W. Deem and Ramdas Pophale) SiO2 
 PCOD9495906
Probable space group: C C C M
;
_chemical_formula_sum "Si O2"
_cell_formula_units_Z 80
_cell_length_a 34.520466
_cell_length_b 5.034226
_cell_length_c 27.935968
_cell_angle_alpha 90.000000
_cell_angle_beta 90.000000
_cell_angle_gamma 90.000000
_cell_volume 4854.819443
_symmetry_space_group_name_H-M "C C C M"
_symmetry_group_IT_number 66
_symmetry_cell_setting 'orthorhombic'
loop_
_space_group_symop_operation_xyz
x,y,z
-x,-y,z
x,-y,1/2-z
-x,y,1/2-z
-x,-y,-z
x,y,-z
-x,y,1/2+z
x,-y,1/2+z
1/2+x,1/2+y,z
1/2-x,1/2-y,z
1/2+x,1/2-y,1/2-z
1/2-x,1/2+y,1/2-z
1/2-x,1/2-y,-z
1/2+x,1/2+y,-z
1/2-x,1/2+y,1/2+z
1/2+x,1/2-y,1/2+z
loop_
_atom_site_type_symbol
_atom_site_label
_atom_site_fract_x
_atom_site_fract_y
_atom_site_fract_z
Si Si1 0.088462 0.364736 0.944462
Si Si2 0.825989 0.368004 0.405326
Si Si3 0.205317 0.848415 0.146496
Si Si4 0.537213 0.348856 0.944751
Si Si5 0.777509 0.000000 0.750000
Si Si6 0.721796 0.001365 0.500000
O O1 0.128792 0.348122 0.917025
O O2 0.057012 0.580114 0.925581
O O3 0.069783 0.074593 0.945011
O O4 0.096461 0.442280 0.000000
O O5 0.819602 0.591163 0.365481
O O6 0.804449 0.476833 0.452762
O O7 0.806476 0.092526 0.387928
O O8 0.250000 0.750000 0.140471
O O9 0.200148 0.937468 0.201331
O O10 0.500000 0.500000 0.922774
O O11 0.525767 0.283219 0.000000
O O12 0.750000 0.750000 0.760763
O O13 0.750000 0.250000 0.500000
O O14 0.750000 0.750000 0.500000
#
# Coordination Sequence:
#
# PCOD9495906 Si02
#       6
#    16  16  16  16   8   8
#     4  10  19  32  46  66  99 131 163 197 239 285
#     4  12  22  35  49  71  99 135 165 206 243 288
#     4  11  22  36  54  71  94 124 170 213 257 299
#     4   9  17  29  48  68  89 124 168 203 233 278
#     4  10  20  36  56  74  90 116 159 218 271 306
#     4  12  24  34  46  64  93 134 177 204 226 266
#
# _framework density 16.478470000000002
#
# number of rings (size 3 to 8) (size 9 to 14) (size 15 to 20)
#    0.000    1.400    1.000    7.800    0.000    2.400 
#    0.000    0.000    0.000    0.000    0.000    0.000 
#    0.000    0.000    0.000   63.000    0.000    0.000 
#
# Total GULP energy -223193.490808 kJ/mol
# GULP energy per Si atom -5579.837270 kJ/mol
# Density = 1.644096 g / cm^3
# Si number density = 16.478470 Si / 1000 Ang^3
#
#
#
# Elastic Constant Matrix: (Units=GPa)
#
#
# Indices 1 2 3 4 5 6 
#
# 1 53.9376 11.0044 24.4049 0.0000 0.0000 0.0000
# 2 11.0044 101.5226 11.2070 0.0000 0.0000 0.0000
# 3 24.4049 11.2070 46.8828 0.0000 0.0000 0.0000
# 4 0.0000 0.0000 0.0000 25.5792 0.0000 0.0000
# 5 0.0000 0.0000 0.0000 0.0000 9.0963 0.0000
# 6 0.0000 0.0000 0.0000 0.0000 0.0000 24.2329
#
#
#
# Elastic Compliance Matrix: (Units=1/GPa)
#
#
# Indices 1 2 3 4 5 6 
#
# 1 0.024412 -0.001277 -0.012403 0.000000 0.000000 0.000000
# 2 -0.001277 0.010184 -0.001770 0.000000 0.000000 0.000000
# 3 -0.012403 -0.001770 0.028209 0.000000 0.000000 0.000000
# 4 0.000000 0.000000 0.000000 0.039094 0.000000 0.000000
# 5 0.000000 0.000000 0.000000 0.000000 0.109935 0.000000
# 6 0.000000 0.000000 0.000000 0.000000 0.000000 0.041266
#
#
# Mechanical properties :
#
#
# Convention : Reuss Voigt Hill
#
# Bulk Modulus (GPa) = 31.34147 32.84174 32.09161
# Shear Modulus (GPa) = 16.97017 22.16344 19.56680
#
# Velocity S-wave (km/s) = 3.21259 3.67139 3.44963
# Velocity P-wave (km/s) = 5.72904 6.16000 5.94842
#
# Compressibility (1/GPa) = 0.03190661
#
# Stress axis : x y z
#
# Youngs Moduli (GPa) = 40.96311 98.19529 35.44969
#
# Poissons Ratio (x) = 0.12540 0.43967
# Poissons Ratio (y) = 0.05231 0.06273
# Poissons Ratio (z) = 0.50805 0.17377
#
# Static dielectric constant tensor:
#      x y z
#    x 1.572610 0.000000 0.000000 
#    y 0.000000 1.571810 0.000000 
#    z 0.000000 0.000000 1.577930 
# 
# From -- ./inp_files/60361.got.cif
#   From: 2010.05.17/outbox.cif.g08.bks.cpg/sg66_31_cif.got.tgz:60361.got - 2010.06.03 17:51:23.
