data_PCOD9495319
_publ_section_title
;
Structure prediction by ZEFSAII (Michael W. Deem and Ramdas Pophale) SiO2 
 PCOD9495319
Probable space group: C C C M
;
_chemical_formula_sum "Si O2"
_cell_formula_units_Z 112
_cell_length_a 12.789606
_cell_length_b 23.661247
_cell_length_c 22.992220
_cell_angle_alpha 90.000000
_cell_angle_beta 90.000000
_cell_angle_gamma 90.000000
_cell_volume 6957.860244
_symmetry_space_group_name_H-M "C C C M"
_symmetry_group_IT_number 66
_symmetry_cell_setting 'orthorhombic'
loop_
_space_group_symop_operation_xyz
x,y,z
-x,-y,z
x,-y,1/2-z
-x,y,1/2-z
-x,-y,-z
x,y,-z
-x,y,1/2+z
x,-y,1/2+z
1/2+x,1/2+y,z
1/2-x,1/2-y,z
1/2+x,1/2-y,1/2-z
1/2-x,1/2+y,1/2-z
1/2-x,1/2-y,-z
1/2+x,1/2+y,-z
1/2-x,1/2+y,1/2+z
1/2+x,1/2-y,1/2+z
loop_
_atom_site_type_symbol
_atom_site_label
_atom_site_fract_x
_atom_site_fract_y
_atom_site_fract_z
Si Si1 0.492546 0.238741 0.064447
Si Si2 0.683754 0.692847 0.122770
Si Si3 0.846927 0.622843 0.729752
Si Si4 0.870392 0.256549 0.179885
Si Si5 0.612206 0.354992 0.745913
Si Si6 0.519842 0.065683 0.666694
Si Si7 0.135752 0.622129 0.434456
O O1 0.404171 0.285597 0.078217
O O2 0.565276 0.237188 0.120930
O O3 0.436012 0.178153 0.063182
O O4 0.538956 0.248549 0.000000
O O5 0.750000 0.750000 0.137518
O O6 0.635384 0.667268 0.181111
O O7 0.758924 0.645998 0.094808
O O8 0.873670 0.689373 0.722941
O O9 0.721650 0.616271 0.733810
O O10 0.903441 0.594917 0.785530
O O11 0.906867 0.595060 0.675213
O O12 0.750000 0.250000 0.163248
O O13 0.901588 0.200225 0.213738
O O14 0.500000 0.386196 0.750000
O O15 0.575371 0.077758 0.605750
O O16 0.500000 0.000000 0.677829
O O17 0.154135 0.602104 0.500000
#
# Coordination Sequence:
#
# PCOD9495319 Si02
#       7
#    16  16  16  16  16  16  16
#     4  10  19  31  47  69 105 143 175 206 247 313
#     4  10  18  30  47  74 105 141 172 208 256 307
#     4  10  20  34  49  74 107 133 167 214 263 309
#     4  10  20  29  47  74 101 139 172 202 251 306
#     4  11  20  29  51  80 105 135 173 208 252 312
#     4  11  22  35  57  77  99 137 172 218 267 314
#     4  10  20  34  52  75 104 137 172 215 263 305
#
# _framework density 16.096902
#
# number of rings (size 3 to 8) (size 9 to 14) (size 15 to 20)
#    0.000    1.714    4.286    2.571    4.000    2.286 
#    0.000    0.000    0.000    1.714    0.000    0.000 
#    0.000    1.143    0.000    0.000    0.000    0.000 
#
# Total GULP energy -312032.391875 kJ/mol
# GULP energy per Si atom -5572.006998 kJ/mol
# Density = 1.606027 g / cm^3
# Si number density = 16.096902 Si / 1000 Ang^3
#
#
#
# Elastic Constant Matrix: (Units=GPa)
#
#
# Indices 1 2 3 4 5 6 
#
# 1 114.4174 28.9605 40.3693 0.0000 0.0000 0.0000
# 2 28.9605 49.5110 16.9037 0.0000 0.0000 0.0000
# 3 40.3693 16.9037 111.7580 0.0000 0.0000 0.0000
# 4 0.0000 0.0000 0.0000 8.1797 0.0000 0.0000
# 5 0.0000 0.0000 0.0000 0.0000 16.0421 0.0000
# 6 0.0000 0.0000 0.0000 0.0000 0.0000 12.6760
#
#
#
# Elastic Compliance Matrix: (Units=1/GPa)
#
#
# Indices 1 2 3 4 5 6 
#
# 1 0.011273 -0.005487 -0.003242 0.000000 0.000000 0.000000
# 2 -0.005487 0.023968 -0.001643 0.000000 0.000000 0.000000
# 3 -0.003242 -0.001643 0.010368 0.000000 0.000000 0.000000
# 4 0.000000 0.000000 0.000000 0.122255 0.000000 0.000000
# 5 0.000000 0.000000 0.000000 0.000000 0.062336 0.000000
# 6 0.000000 0.000000 0.000000 0.000000 0.000000 0.078889
#
#
# Mechanical properties :
#
#
# Convention : Reuss Voigt Hill
#
# Bulk Modulus (GPa) = 40.21893 49.79483 45.00688
# Shear Modulus (GPa) = 14.78765 20.00974 17.39869
#
# Velocity S-wave (km/s) = 3.03424 3.52956 3.29123
# Velocity P-wave (km/s) = 6.10862 6.90014 6.51641
#
# Compressibility (1/GPa) = 0.02486392
#
# Stress axis : x y z
#
# Youngs Moduli (GPa) = 88.71101 41.72240 96.45500
#
# Poissons Ratio (x) = 0.22892 0.31271
# Poissons Ratio (y) = 0.48674 0.15850
# Poissons Ratio (z) = 0.28760 0.06856
#
# Static dielectric constant tensor:
#      x y z
#    x 1.581380 0.000000 0.000000 
#    y 0.000000 1.523630 0.000000 
#    z 0.000000 0.000000 1.561120 
# 
# From -- ./inp_files/57302.got.cif
#   From: 2010.05.17/outbox.cif.g08.bks.cpg/sg66_29_cif.got.tgz:57302.got - 2010.06.03 17:51:23.
