data_PCOD9495359
_publ_section_title
;
Structure prediction by ZEFSAII (Michael W. Deem and Ramdas Pophale) SiO2 
 PCOD9495359
Probable space group: C C C M
;
_chemical_formula_sum "Si O2"
_cell_formula_units_Z 96
_cell_length_a 33.101945
_cell_length_b 7.632309
_cell_length_c 18.453195
_cell_angle_alpha 90.000000
_cell_angle_beta 90.000000
_cell_angle_gamma 90.000000
_cell_volume 4662.094031
_symmetry_space_group_name_H-M "C C C M"
_symmetry_group_IT_number 66
_symmetry_cell_setting 'orthorhombic'
loop_
_space_group_symop_operation_xyz
x,y,z
-x,-y,z
x,-y,1/2-z
-x,y,1/2-z
-x,-y,-z
x,y,-z
-x,y,1/2+z
x,-y,1/2+z
1/2+x,1/2+y,z
1/2-x,1/2-y,z
1/2+x,1/2-y,1/2-z
1/2-x,1/2+y,1/2-z
1/2-x,1/2-y,-z
1/2+x,1/2+y,-z
1/2-x,1/2+y,1/2+z
1/2+x,1/2-y,1/2+z
loop_
_atom_site_type_symbol
_atom_site_label
_atom_site_fract_x
_atom_site_fract_y
_atom_site_fract_z
Si Si1 0.126165 0.983803 0.079482
Si Si2 0.631854 0.232552 0.303688
Si Si3 0.706772 0.837410 0.300838
Si Si4 0.539890 0.385465 0.078968
Si Si5 0.350092 0.921367 0.084043
Si Si6 0.954823 0.789958 0.732741
O O1 0.078055 0.014864 0.078138
O O2 0.130687 0.773907 0.086491
O O3 0.140792 0.097642 0.146456
O O4 0.143104 0.032308 0.000000
O O5 0.666223 0.235642 0.240731
O O6 0.586700 0.229317 0.270056
O O7 0.633937 0.067085 0.359157
O O8 0.750000 0.750000 0.303103
O O9 0.693996 0.885691 0.382307
O O10 0.714689 0.000000 0.250000
O O11 0.500000 0.500000 0.090500
O O12 0.547246 0.262635 0.146695
O O13 0.537694 0.299139 0.000000
O O14 0.351560 0.978689 0.000000
O O15 0.000000 0.723019 0.750000
O O16 0.955281 0.000000 0.750000
#
# Coordination Sequence:
#
# PCOD9495359 Si02
#       6
#    16  16  16  16  16  16
#     4  10  20  35  62  91 120 170 212 252 320 386
#     4  11  22  39  66  93 129 168 210 270 327 378
#     4  10  24  40  64  95 124 163 211 263 322 389
#     4  10  18  30  51  84 122 162 208 258 311 367
#     4  10  23  42  62  93 130 162 212 267 318 393
#     4  11  19  33  58  95 128 164 222 273 315 385
#
# _framework density 20.591605000000001
#
# number of rings (size 3 to 8) (size 9 to 14) (size 15 to 20)
#    0.000    1.667    3.333    1.500    2.333    0.333 
#    0.000    0.833    0.000   27.000    0.000   22.167 
#    0.000    0.000    0.000    0.000    0.000    0.000 
#
# Total GULP energy -267230.712774 kJ/mol
# GULP energy per Si atom -5567.306516 kJ/mol
# Density = 2.054474 g / cm^3
# Si number density = 20.591605 Si / 1000 Ang^3
#
#
#
# Elastic Constant Matrix: (Units=GPa)
#
#
# Indices 1 2 3 4 5 6 
#
# 1 135.3124 32.6747 55.9779 0.0000 0.0000 0.0000
# 2 32.6747 65.3982 36.5407 0.0000 0.0000 0.0000
# 3 55.9779 36.5407 172.1782 0.0000 0.0000 0.0000
# 4 0.0000 0.0000 0.0000 62.2715 0.0000 0.0000
# 5 0.0000 0.0000 0.0000 0.0000 82.6330 0.0000
# 6 0.0000 0.0000 0.0000 0.0000 0.0000 36.9119
#
#
#
# Elastic Compliance Matrix: (Units=1/GPa)
#
#
# Indices 1 2 3 4 5 6 
#
# 1 0.009123 -0.003291 -0.002268 0.000000 0.000000 0.000000
# 2 -0.003291 0.018535 -0.002864 0.000000 0.000000 0.000000
# 3 -0.002268 -0.002864 0.007153 0.000000 0.000000 0.000000
# 4 0.000000 0.000000 0.000000 0.016059 0.000000 0.000000
# 5 0.000000 0.000000 0.000000 0.000000 0.012102 0.000000
# 6 0.000000 0.000000 0.000000 0.000000 0.000000 0.027092
#
#
# Mechanical properties :
#
#
# Convention : Reuss Voigt Hill
#
# Bulk Modulus (GPa) = 55.65909 69.25283 62.45596
# Shear Modulus (GPa) = 44.28811 52.87630 48.58221
#
# Velocity S-wave (km/s) = 4.64269 5.07290 4.86255
# Velocity P-wave (km/s) = 7.47182 8.24724 7.86909
#
# Compressibility (1/GPa) = 0.01796652
#
# Stress axis : x y z
#
# Youngs Moduli (GPa) = 109.61140 53.95095 139.80307
#
# Poissons Ratio (x) = 0.17756 0.31702
# Poissons Ratio (y) = 0.36075 0.40035
# Poissons Ratio (z) = 0.24856 0.15450
#
# Static dielectric constant tensor:
#      x y z
#    x 0.907820 0.000000 0.000000 
#    y 0.000000 1.845580 0.000000 
#    z 0.000000 0.000000 1.805560 
# 
# From -- ./inp_files/52954.got.cif
#   From: 2010.05.17/outbox.cif.g08.bks.cpg/sg66_27_cif.got.tgz:52954.got - 2010.06.03 17:51:23.
