data_PCOD9495866
_publ_section_title
;
Structure prediction by ZEFSAII (Michael W. Deem and Ramdas Pophale) SiO2 
 PCOD9495866
Probable space group: C C C M
;
_chemical_formula_sum "Si O2"
_cell_formula_units_Z 116
_cell_length_a 26.942842
_cell_length_b 27.326215
_cell_length_c 8.982534
_cell_angle_alpha 90.000000
_cell_angle_beta 90.000000
_cell_angle_gamma 90.000000
_cell_volume 6613.353768
_symmetry_space_group_name_H-M "C C C M"
_symmetry_group_IT_number 66
_symmetry_cell_setting 'orthorhombic'
loop_
_space_group_symop_operation_xyz
x,y,z
-x,-y,z
x,-y,1/2-z
-x,y,1/2-z
-x,-y,-z
x,y,-z
-x,y,1/2+z
x,-y,1/2+z
1/2+x,1/2+y,z
1/2-x,1/2-y,z
1/2+x,1/2-y,1/2-z
1/2-x,1/2+y,1/2-z
1/2-x,1/2-y,-z
1/2+x,1/2+y,-z
1/2-x,1/2+y,1/2+z
1/2+x,1/2-y,1/2+z
loop_
_atom_site_type_symbol
_atom_site_label
_atom_site_fract_x
_atom_site_fract_y
_atom_site_fract_z
Si Si1 0.951074 0.215433 0.676544
Si Si2 0.427619 0.818998 0.172031
Si Si3 0.249262 0.368737 0.825393
Si Si4 0.077395 0.581714 0.669514
Si Si5 0.841352 0.189202 0.676983
Si Si6 0.686364 0.789626 0.670781
Si Si7 0.319311 0.051696 0.322602
Si Si8 0.000000 0.500000 0.250000
O O1 0.957236 0.219659 0.500000
O O2 0.944569 0.269796 0.745540
O O3 0.900071 0.186372 0.706722
O O4 0.000000 0.193286 0.750000
O O5 0.442228 0.868892 0.253422
O O6 0.367539 0.815625 0.173936
O O7 0.444054 0.818873 0.000000
O O8 0.307104 0.357802 0.794174
O O9 0.221730 0.318332 0.782343
O O10 0.221590 0.409153 0.728302
O O11 0.242831 0.379606 0.000000
O O12 0.091520 0.592882 0.500000
O O13 0.126521 0.565935 0.758909
O O14 0.037464 0.537794 0.669825
O O15 0.835694 0.200904 0.500000
O O16 0.821998 0.234589 0.774294
O O17 0.704310 0.791545 0.500000
O O18 0.322206 0.048800 0.500000
O O19 0.306244 0.000000 0.250000
#
# Coordination Sequence:
#
# PCOD9495866 Si02
#       8
#    16  16  16  16  16  16  16   4
#     4  10  20  36  55  77 108 145 185 223 266 316
#     4  10  21  36  54  76 104 137 179 225 273 329
#     4  11  21  35  56  80 108 143 178 219 274 329
#     4  12  25  42  61  78 101 135 177 231 288 337
#     4   9  20  35  52  77 110 145 182 220 264 325
#     4  10  19  31  50  78 110 141 175 219 268 321
#     4  12  25  42  62  83 107 138 179 226 279 336
#     4  12  30  44  60  78 106 128 186 240 296 332
#
# _framework density 17.540268999999999
#
# number of rings (size 3 to 8) (size 9 to 14) (size 15 to 20)
#    0.000    1.379    2.069    3.931    0.966    6.069 
#    0.000    0.000    0.000    0.000    0.000    0.000 
#    0.000    0.552    0.000    6.345    0.000    1.931 
#
# Total GULP energy -324012.400616 kJ/mol
# GULP energy per Si atom -5586.420700 kJ/mol
# Density = 1.750035 g / cm^3
# Si number density = 17.540269 Si / 1000 Ang^3
#
#
#
# Elastic Constant Matrix: (Units=GPa)
#
#
# Indices 1 2 3 4 5 6 
#
# 1 108.3391 44.7152 50.6206 0.0000 0.0000 0.0000
# 2 44.7152 50.3598 33.4372 0.0000 0.0000 0.0000
# 3 50.6206 33.4372 116.9804 0.0000 0.0000 0.0000
# 4 0.0000 0.0000 0.0000 10.1829 0.0000 0.0000
# 5 0.0000 0.0000 0.0000 0.0000 28.6322 0.0000
# 6 0.0000 0.0000 0.0000 0.0000 0.0000 14.6902
#
#
#
# Elastic Compliance Matrix: (Units=1/GPa)
#
#
# Indices 1 2 3 4 5 6 
#
# 1 0.015622 -0.011580 -0.003450 0.000000 0.000000 0.000000
# 2 -0.011580 0.033093 -0.004448 0.000000 0.000000 0.000000
# 3 -0.003450 -0.004448 0.011313 0.000000 0.000000 0.000000
# 4 0.000000 0.000000 0.000000 0.098204 0.000000 0.000000
# 5 0.000000 0.000000 0.000000 0.000000 0.034926 0.000000
# 6 0.000000 0.000000 0.000000 0.000000 0.000000 0.068073
#
#
# Mechanical properties :
#
#
# Convention : Reuss Voigt Hill
#
# Bulk Modulus (GPa) = 47.45883 59.24727 53.35305
# Shear Modulus (GPa) = 16.27558 20.49482 18.38520
#
# Velocity S-wave (km/s) = 3.04945 3.42196 3.24106
# Velocity P-wave (km/s) = 6.28607 7.03308 6.67004
#
# Compressibility (1/GPa) = 0.02107089
#
# Stress axis : x y z
#
# Youngs Moduli (GPa) = 64.01340 30.21825 88.39605
#
# Poissons Ratio (x) = 0.34993 0.30496
# Poissons Ratio (y) = 0.74128 0.39319
# Poissons Ratio (z) = 0.22084 0.13441
#
# Static dielectric constant tensor:
#      x y z
#    x 1.652920 0.000000 0.000000 
#    y 0.000000 1.590310 0.000000 
#    z 0.000000 0.000000 1.592640 
# 
# From -- ./inp_files/10632.got.cif
#   From: 2010.05.17/outbox.cif.g08.bks.cpg/sg66_6_cif.got.tgz:10632.got - 2010.06.03 17:51:23.
