data_PCOD9495882
_publ_section_title
;
Structure prediction by ZEFSAII (Michael W. Deem and Ramdas Pophale) SiO2 
 PCOD9495882
Probable space group: C C C M
;
_chemical_formula_sum "Si O2"
_cell_formula_units_Z 96
_cell_length_a 27.166099
_cell_length_b 21.156736
_cell_length_c 8.284995
_cell_angle_alpha 90.000000
_cell_angle_beta 90.000000
_cell_angle_gamma 90.000000
_cell_volume 4761.767609
_symmetry_space_group_name_H-M "C C C M"
_symmetry_group_IT_number 66
_symmetry_cell_setting 'orthorhombic'
loop_
_space_group_symop_operation_xyz
x,y,z
-x,-y,z
x,-y,1/2-z
-x,y,1/2-z
-x,-y,-z
x,y,-z
-x,y,1/2+z
x,-y,1/2+z
1/2+x,1/2+y,z
1/2-x,1/2-y,z
1/2+x,1/2-y,1/2-z
1/2-x,1/2+y,1/2-z
1/2-x,1/2-y,-z
1/2+x,1/2+y,-z
1/2-x,1/2+y,1/2+z
1/2+x,1/2-y,1/2+z
loop_
_atom_site_type_symbol
_atom_site_label
_atom_site_fract_x
_atom_site_fract_y
_atom_site_fract_z
Si Si1 0.554798 0.687967 0.307333
Si Si2 0.226077 0.084774 0.683177
Si Si3 0.613600 0.803362 0.192326
Si Si4 0.381694 0.566034 0.195892
Si Si5 0.162285 0.431276 0.693078
Si Si6 0.701027 0.711000 0.818688
O O1 0.500000 0.672690 0.250000
O O2 0.557038 0.687924 0.500000
O O3 0.568982 0.758858 0.250054
O O4 0.591425 0.631032 0.250862
O O5 0.228258 0.060250 0.500000
O O6 0.174622 0.063158 0.761626
O O7 0.280597 0.075183 0.756513
O O8 0.214700 0.158748 0.689492
O O9 0.627510 0.873062 0.255056
O O10 0.659275 0.758359 0.237811
O O11 0.611145 0.808097 0.000000
O O12 0.406096 0.500000 0.250000
O O13 0.379735 0.567730 0.000000
O O14 0.144386 0.500000 0.750000
O O15 0.165010 0.429618 0.500000
O O16 0.750000 0.750000 0.838961
O O17 0.688226 0.685950 0.000000
#
# Coordination Sequence:
#
# PCOD9495882 Si02
#       6
#    16  16  16  16  16  16
#     4  11  24  43  65  89 116 147 194 249 305 361
#     4  10  20  34  53  81 118 160 202 240 282 337
#     4  11  22  38  61  87 117 154 197 245 299 355
#     4  10  22  38  57  83 118 159 201 245 291 345
#     4  11  23  37  57  86 123 164 202 243 290 348
#     4  10  19  31  51  82 115 151 194 238 284 340
#
# _framework density 20.16058
#
# number of rings (size 3 to 8) (size 9 to 14) (size 15 to 20)
#    0.000    1.500    3.333    2.000    0.000    4.000 
#    0.000    1.667    0.000    0.500    0.000    3.500 
#    0.000    0.000    0.000    0.000    0.000    0.000 
#
# Total GULP energy -267395.590544 kJ/mol
# GULP energy per Si atom -5570.741470 kJ/mol
# Density = 2.011469 g / cm^3
# Si number density = 20.160580 Si / 1000 Ang^3
#
#
#
# Elastic Constant Matrix: (Units=GPa)
#
#
# Indices 1 2 3 4 5 6 
#
# 1 62.2083 43.4908 5.4085 0.0000 0.0000 0.0000
# 2 43.4908 158.2873 36.8637 0.0000 0.0000 0.0000
# 3 5.4085 36.8637 23.4491 0.0000 0.0000 0.0000
# 4 0.0000 0.0000 0.0000 33.1264 0.0000 0.0000
# 5 0.0000 0.0000 0.0000 0.0000 18.7201 0.0000
# 6 0.0000 0.0000 0.0000 0.0000 0.0000 2.2289
#
#
#
# Elastic Compliance Matrix: (Units=1/GPa)
#
#
# Indices 1 2 3 4 5 6 
#
# 1 0.020509 -0.007152 0.006513 0.000000 0.000000 0.000000
# 2 -0.007152 0.012461 -0.017939 0.000000 0.000000 0.000000
# 3 0.006513 -0.017939 0.069346 0.000000 0.000000 0.000000
# 4 0.000000 0.000000 0.000000 0.030187 0.000000 0.000000
# 5 0.000000 0.000000 0.000000 0.000000 0.053418 0.000000
# 6 0.000000 0.000000 0.000000 0.000000 0.000000 0.448649
#
#
# Mechanical properties :
#
#
# Convention : Reuss Voigt Hill
#
# Bulk Modulus (GPa) = 15.34731 46.16341 30.75536
# Shear Modulus (GPa) = 7.21037 21.36053 14.28545
#
# Velocity S-wave (km/s) = 1.89321 3.25856 2.66481
# Velocity P-wave (km/s) = 3.52251 6.09140 4.97560
#
# Compressibility (1/GPa) = 0.06515798
#
# Stress axis : x y z
#
# Youngs Moduli (GPa) = 48.75990 80.25336 14.42053
#
# Poissons Ratio (x) = 0.57395 -0.09392
# Poissons Ratio (y) = 0.34871 0.25870
# Poissons Ratio (z) = -0.31756 1.43970
#
# Static dielectric constant tensor:
#      x y z
#    x 1.730290 0.000000 0.000000 
#    y 0.000000 1.752440 0.000000 
#    z 0.000000 0.000000 1.797210 
# 
# From -- ./inp_files/10273.got.cif
#   From: 2010.05.17/outbox.cif.g08.bks.cpg/sg66_6_cif.got.tgz:10273.got - 2010.06.03 17:51:23.
