data_PCOD9495854
_publ_section_title
;
Structure prediction by ZEFSAII (Michael W. Deem and Ramdas Pophale) SiO2 
 PCOD9495854
Probable space group: C C C M
;
_chemical_formula_sum "Si O2"
_cell_formula_units_Z 116
_cell_length_a 23.259156
_cell_length_b 28.265705
_cell_length_c 9.473873
_cell_angle_alpha 90.000000
_cell_angle_beta 90.000000
_cell_angle_gamma 90.000000
_cell_volume 6228.469358
_symmetry_space_group_name_H-M "C C C M"
_symmetry_group_IT_number 66
_symmetry_cell_setting 'orthorhombic'
loop_
_space_group_symop_operation_xyz
x,y,z
-x,-y,z
x,-y,1/2-z
-x,y,1/2-z
-x,-y,-z
x,y,-z
-x,y,1/2+z
x,-y,1/2+z
1/2+x,1/2+y,z
1/2-x,1/2-y,z
1/2+x,1/2-y,1/2-z
1/2-x,1/2+y,1/2-z
1/2-x,1/2-y,-z
1/2+x,1/2+y,-z
1/2-x,1/2+y,1/2+z
1/2+x,1/2-y,1/2+z
loop_
_atom_site_type_symbol
_atom_site_label
_atom_site_fract_x
_atom_site_fract_y
_atom_site_fract_z
Si Si1 0.913848 0.313853 0.840197
Si Si2 0.207453 0.954317 0.830573
Si Si3 0.316946 0.072001 0.159119
Si Si4 0.791280 0.320862 0.269154
Si Si5 0.250000 0.250000 0.000000
Si Si6 0.168067 0.148319 0.667809
Si Si7 0.056923 0.205483 0.330051
Si Si8 0.944737 0.406671 0.668363
O O1 0.844448 0.312865 0.834469
O O2 0.934426 0.261361 0.803067
O O3 0.934887 0.354040 0.732916
O O4 0.932452 0.325567 0.000000
O O5 0.272788 0.947744 0.774010
O O6 0.174461 0.906276 0.786414
O O7 0.183916 0.000000 0.750000
O O8 0.206167 0.958802 0.000000
O O9 0.305076 0.128489 0.159236
O O10 0.384239 0.066399 0.193799
O O11 0.305194 0.053939 0.000000
O O12 0.786252 0.278810 0.378699
O O13 0.728299 0.326882 0.202896
O O14 0.162687 0.147359 0.500000
O O15 0.113017 0.176823 0.721758
O O16 0.051433 0.199961 0.500000
O O17 0.000000 0.189266 0.250000
O O18 0.953355 0.404861 0.500000
O O19 0.000000 0.426646 0.750000
#
# Coordination Sequence:
#
# PCOD9495854 Si02
#       8
#    16  16  16  16   4  16  16  16
#     4  10  20  33  52  72 102 142 189 236 273 312
#     4  10  20  35  60  87 108 132 161 211 274 343
#     4   9  18  34  50  73 109 141 174 218 261 313
#     4  10  19  31  49  76 105 139 179 221 270 316
#     4  12  20  28  42  72 112 144 174 212 272 310
#     4   9  19  37  57  76 104 138 178 220 267 321
#     4  10  21  37  50  71 100 139 183 223 261 309
#     4  10  20  32  50  74 107 147 192 234 268 305
#
# _framework density 18.624158000000001
#
# number of rings (size 3 to 8) (size 9 to 14) (size 15 to 20)
#    0.000    2.207    0.690    2.483    0.966    5.517 
#    3.724    2.759    0.000    0.828    0.000    5.793 
#    0.000    0.000    0.000    0.000    0.000    0.000 
#
# Total GULP energy -322941.247017 kJ/mol
# GULP energy per Si atom -5567.952535 kJ/mol
# Density = 1.858177 g / cm^3
# Si number density = 18.624158 Si / 1000 Ang^3
#
#
#
# Elastic Constant Matrix: (Units=GPa)
#
#
# Indices 1 2 3 4 5 6 
#
# 1 85.5600 5.0546 -3.6311 0.0000 0.0000 0.0000
# 2 5.0546 29.1742 14.4169 0.0000 0.0000 0.0000
# 3 -3.6311 14.4169 37.7803 0.0000 0.0000 0.0000
# 4 0.0000 0.0000 0.0000 124.5640 0.0000 0.0000
# 5 0.0000 0.0000 0.0000 0.0000 24.8942 0.0000
# 6 0.0000 0.0000 0.0000 0.0000 0.0000 11.2136
#
#
#
# Elastic Compliance Matrix: (Units=1/GPa)
#
#
# Indices 1 2 3 4 5 6 
#
# 1 0.011982 -0.003260 0.002396 0.000000 0.000000 0.000000
# 2 -0.003260 0.043130 -0.016771 0.000000 0.000000 0.000000
# 3 0.002396 -0.016771 0.033099 0.000000 0.000000 0.000000
# 4 0.000000 0.000000 0.000000 0.008028 0.000000 0.000000
# 5 0.000000 0.000000 0.000000 0.000000 0.040170 0.000000
# 6 0.000000 0.000000 0.000000 0.000000 0.000000 0.089177
#
#
# Mechanical properties :
#
#
# Convention : Reuss Voigt Hill
#
# Bulk Modulus (GPa) = 18.88963 20.46616 19.67790
# Shear Modulus (GPa) = 17.95308 41.24596 29.59952
#
# Velocity S-wave (km/s) = 3.10815 4.71111 3.99094
# Velocity P-wave (km/s) = 4.80056 6.37226 5.64141
#
# Compressibility (1/GPa) = 0.05293910
#
# Stress axis : x y z
#
# Youngs Moduli (GPa) = 83.45889 23.18594 30.21239
#
# Poissons Ratio (x) = 0.07558 -0.07237
# Poissons Ratio (y) = 0.27205 0.50671
# Poissons Ratio (z) = -0.19993 0.38886
#
# Static dielectric constant tensor:
#      x y z
#    x 1.662210 0.000000 0.000000 
#    y 0.000000 1.670240 0.000000 
#    z 0.000000 0.000000 1.626370 
# 
# From -- ./inp_files/9645.got.cif
#   From: 2010.05.17/outbox.cif.g08.bks.cpg/sg66_5_cif.got.tgz:9645.got - 2010.06.03 17:51:23.
