data_PCOD9495310
_publ_section_title
;
Structure prediction by ZEFSAII (Michael W. Deem and Ramdas Pophale) SiO2 
 PCOD9495310
Probable space group: C C C M
;
_chemical_formula_sum "Si O2"
_cell_formula_units_Z 80
_cell_length_a 20.197780
_cell_length_b 27.782355
_cell_length_c 8.617929
_cell_angle_alpha 90.000000
_cell_angle_beta 90.000000
_cell_angle_gamma 90.000000
_cell_volume 4835.881003
_symmetry_space_group_name_H-M "C C C M"
_symmetry_group_IT_number 66
_symmetry_cell_setting 'orthorhombic'
loop_
_space_group_symop_operation_xyz
x,y,z
-x,-y,z
x,-y,1/2-z
-x,y,1/2-z
-x,-y,-z
x,y,-z
-x,y,1/2+z
x,-y,1/2+z
1/2+x,1/2+y,z
1/2-x,1/2-y,z
1/2+x,1/2-y,1/2-z
1/2-x,1/2+y,1/2-z
1/2-x,1/2-y,-z
1/2+x,1/2+y,-z
1/2-x,1/2+y,1/2+z
1/2+x,1/2-y,1/2+z
loop_
_atom_site_type_symbol
_atom_site_label
_atom_site_fract_x
_atom_site_fract_y
_atom_site_fract_z
Si Si1 0.933049 0.693112 0.175463
Si Si2 0.283163 0.698121 0.687957
Si Si3 0.073589 0.446564 0.185992
Si Si4 0.172742 0.366801 0.319345
Si Si5 0.568519 0.308062 0.325639
O O1 0.875700 0.678423 0.290901
O O2 0.938398 0.750213 0.163990
O O3 0.000000 0.674095 0.250000
O O4 0.921150 0.674702 0.000000
O O5 0.286569 0.701245 0.500000
O O6 0.250000 0.750000 0.736790
O O7 0.238506 0.652769 0.736860
O O8 0.358026 0.688106 0.747048
O O9 0.087727 0.500000 0.250000
O O10 0.130637 0.410240 0.244099
O O11 0.000000 0.434005 0.250000
O O12 0.070981 0.447098 0.000000
O O13 0.183777 0.376182 0.500000
O O14 0.500000 0.325775 0.250000
O O15 0.571508 0.327978 0.500000
#
# Coordination Sequence:
#
# PCOD9495310 Si02
#       5
#    16  16  16  16  16
#     4  10  18  30  44  64  91 126 166 210 251 296
#     4  10  19  35  51  68  98 136 173 214 265 310
#     4  11  22  39  59  79 105 137 174 219 266 315
#     4  12  23  33  48  73 100 132 172 215 259 309
#     4   9  18  31  48  65  90 127 167 208 252 301
#
# _framework density 16.543004
#
# number of rings (size 3 to 8) (size 9 to 14) (size 15 to 20)
#    0.000    1.600    2.000    5.400    0.000    2.000 
#    0.000    0.000    0.000    0.000    0.000    0.000 
#    0.000    0.800    0.000    8.400    0.000    4.600 
#
# Total GULP energy -222781.590249 kJ/mol
# GULP energy per Si atom -5569.539756 kJ/mol
# Density = 1.650535 g / cm^3
# Si number density = 16.543004 Si / 1000 Ang^3
#
#
#
# Elastic Constant Matrix: (Units=GPa)
#
#
# Indices 1 2 3 4 5 6 
#
# 1 149.2352 33.6057 27.4917 0.0000 0.0000 0.0000
# 2 33.6057 56.9539 18.5785 0.0000 0.0000 0.0000
# 3 27.4917 18.5785 58.1688 0.0000 0.0000 0.0000
# 4 0.0000 0.0000 0.0000 16.5082 0.0000 0.0000
# 5 0.0000 0.0000 0.0000 0.0000 21.6406 0.0000
# 6 0.0000 0.0000 0.0000 0.0000 0.0000 35.9690
#
#
#
# Elastic Compliance Matrix: (Units=1/GPa)
#
#
# Indices 1 2 3 4 5 6 
#
# 1 0.008054 -0.003919 -0.002555 0.000000 0.000000 0.000000
# 2 -0.003919 0.021507 -0.005017 0.000000 0.000000 0.000000
# 3 -0.002555 -0.005017 0.020001 0.000000 0.000000 0.000000
# 4 0.000000 0.000000 0.000000 0.060576 0.000000 0.000000
# 5 0.000000 0.000000 0.000000 0.000000 0.046210 0.000000
# 6 0.000000 0.000000 0.000000 0.000000 0.000000 0.027802
#
#
# Mechanical properties :
#
#
# Convention : Reuss Voigt Hill
#
# Bulk Modulus (GPa) = 37.62118 47.07889 42.35004
# Shear Modulus (GPa) = 23.14915 27.13569 25.14242
#
# Velocity S-wave (km/s) = 3.74482 4.05447 3.90272
# Velocity P-wave (km/s) = 6.44120 7.10201 6.77966
#
# Compressibility (1/GPa) = 0.02658077
#
# Stress axis : x y z
#
# Youngs Moduli (GPa) = 124.16276 46.49664 49.99706
#
# Poissons Ratio (x) = 0.18221 0.12773
# Poissons Ratio (y) = 0.48658 0.25083
# Poissons Ratio (z) = 0.31721 0.23327
#
# Static dielectric constant tensor:
#      x y z
#    x 1.519370 0.000000 0.000000 
#    y 0.000000 1.557060 0.000000 
#    z 0.000000 0.000000 1.593470 
# 
# From -- ./inp_files/6734.got.cif
#   From: 2010.05.17/outbox.cif.g08.bks.cpg/sg66_4_cif.got.tgz:6734.got - 2010.06.03 17:51:23.
