data_PCOD9495717
_publ_section_title
;
Structure prediction by ZEFSAII (Michael W. Deem and Ramdas Pophale) SiO2 
 PCOD9495717
Probable space group: C C C M
;
_chemical_formula_sum "Si O2"
_cell_formula_units_Z 96
_cell_length_a 30.864740
_cell_length_b 25.035849
_cell_length_c 8.650634
_cell_angle_alpha 90.000000
_cell_angle_beta 90.000000
_cell_angle_gamma 90.000000
_cell_volume 6684.560899
_symmetry_space_group_name_H-M "C C C M"
_symmetry_group_IT_number 66
_symmetry_cell_setting 'orthorhombic'
loop_
_space_group_symop_operation_xyz
x,y,z
-x,-y,z
x,-y,1/2-z
-x,y,1/2-z
-x,-y,-z
x,y,-z
-x,y,1/2+z
x,-y,1/2+z
1/2+x,1/2+y,z
1/2-x,1/2-y,z
1/2+x,1/2-y,1/2-z
1/2-x,1/2+y,1/2-z
1/2-x,1/2-y,-z
1/2+x,1/2+y,-z
1/2-x,1/2+y,1/2+z
1/2+x,1/2-y,1/2+z
loop_
_atom_site_type_symbol
_atom_site_label
_atom_site_fract_x
_atom_site_fract_y
_atom_site_fract_z
Si Si1 0.217043 0.056375 0.676223
Si Si2 0.684624 0.218747 0.311520
Si Si3 0.276492 0.330217 0.185991
Si Si4 0.882300 0.362157 0.319230
Si Si5 0.178515 0.444221 0.678287
Si Si6 0.048195 0.442048 0.684041
O O1 0.202284 0.058022 0.500000
O O2 0.206994 0.112536 0.757536
O O3 0.269618 0.055754 0.677892
O O4 0.202903 0.000000 0.750000
O O5 0.684639 0.216381 0.500000
O O6 0.693768 0.279913 0.267030
O O7 0.727480 0.185341 0.260042
O O8 0.638767 0.193509 0.261355
O O9 0.274818 0.331326 0.000000
O O10 0.893166 0.358092 0.500000
O O11 0.841113 0.400464 0.290936
O O12 0.920780 0.393403 0.234298
O O13 0.164161 0.500000 0.750000
O O14 0.163805 0.437181 0.500000
O O15 0.062759 0.500000 0.750000
O O16 0.046702 0.445967 0.500000
O O17 0.000000 0.433280 0.750000
#
# Coordination Sequence:
#
# PCOD9495717 Si02
#       6
#    16  16  16  16  16  16
#     4  10  19  28  39  56  77 104 136 173 213 250
#     4   8  16  27  44  62  80 107 139 169 208 253
#     4   9  15  29  45  59  79 108 140 173 208 251
#     4  11  19  30  46  64  82 105 136 171 209 256
#     4  10  19  28  37  53  76 101 131 169 211 249
#     4  11  22  37  52  67  85 109 138 175 220 269
#
# _framework density 14.361452
#
# number of rings (size 3 to 8) (size 9 to 14) (size 15 to 20)
#    0.000    2.167    1.667    5.000    0.000    1.333 
#    0.000    3.333    0.000    0.000    0.000    0.000 
#    0.000    0.000    0.000    0.000    0.000    0.833 
#
# Total GULP energy -267302.403445 kJ/mol
# GULP energy per Si atom -5568.800072 kJ/mol
# Density = 1.432876 g / cm^3
# Si number density = 14.361452 Si / 1000 Ang^3
#
#
#
# Elastic Constant Matrix: (Units=GPa)
#
#
# Indices 1 2 3 4 5 6 
#
# 1 52.8534 35.9969 19.8298 0.0000 0.0000 0.0000
# 2 35.9969 120.9786 29.6192 0.0000 0.0000 0.0000
# 3 19.8298 29.6192 55.9383 0.0000 0.0000 0.0000
# 4 0.0000 0.0000 0.0000 18.4134 0.0000 0.0000
# 5 0.0000 0.0000 0.0000 0.0000 36.1228 0.0000
# 6 0.0000 0.0000 0.0000 0.0000 0.0000 30.3079
#
#
#
# Elastic Compliance Matrix: (Units=1/GPa)
#
#
# Indices 1 2 3 4 5 6 
#
# 1 0.025221 -0.006107 -0.005707 0.000000 0.000000 0.000000
# 2 -0.006107 0.010976 -0.003647 0.000000 0.000000 0.000000
# 3 -0.005707 -0.003647 0.021831 0.000000 0.000000 0.000000
# 4 0.000000 0.000000 0.000000 0.054308 0.000000 0.000000
# 5 0.000000 0.000000 0.000000 0.000000 0.027683 0.000000
# 6 0.000000 0.000000 0.000000 0.000000 0.000000 0.032995
#
#
# Mechanical properties :
#
#
# Convention : Reuss Voigt Hill
#
# Bulk Modulus (GPa) = 36.89234 44.51804 40.70519
# Shear Modulus (GPa) = 23.47739 26.59045 25.03392
#
# Velocity S-wave (km/s) = 4.04759 4.30759 4.17961
# Velocity P-wave (km/s) = 6.89842 7.47034 7.19007
#
# Compressibility (1/GPa) = 0.02710590
#
# Stress axis : x y z
#
# Youngs Moduli (GPa) = 39.64981 91.10839 45.80671
#
# Poissons Ratio (x) = 0.55641 0.26141
# Poissons Ratio (y) = 0.24215 0.16705
# Poissons Ratio (z) = 0.22628 0.33225
#
# Static dielectric constant tensor:
#      x y z
#    x 1.473700 0.000000 0.000000 
#    y 0.000000 1.522160 0.000000 
#    z 0.000000 0.000000 1.496050 
# 
# From -- ./inp_files/10639.got.cif
#   From: 2010.05.17/outbox.cif.g08.bks.cpg/sg66_6_cif.got.tgz:10639.got - 2010.06.03 17:51:23.
