data_PCOD9495876
_publ_section_title
;
Structure prediction by ZEFSAII (Michael W. Deem and Ramdas Pophale) SiO2 
 PCOD9495876
Probable space group: C C C M
;
_chemical_formula_sum "Si O2"
_cell_formula_units_Z 128
_cell_length_a 10.318563
_cell_length_b 27.380787
_cell_length_c 25.037346
_cell_angle_alpha 90.000000
_cell_angle_beta 90.000000
_cell_angle_gamma 90.000000
_cell_volume 7073.810771
_symmetry_space_group_name_H-M "C C C M"
_symmetry_group_IT_number 66
_symmetry_cell_setting 'orthorhombic'
loop_
_space_group_symop_operation_xyz
x,y,z
-x,-y,z
x,-y,1/2-z
-x,y,1/2-z
-x,-y,-z
x,y,-z
-x,y,1/2+z
x,-y,1/2+z
1/2+x,1/2+y,z
1/2-x,1/2-y,z
1/2+x,1/2-y,1/2-z
1/2-x,1/2+y,1/2-z
1/2-x,1/2-y,-z
1/2+x,1/2+y,-z
1/2-x,1/2+y,1/2+z
1/2+x,1/2-y,1/2+z
loop_
_atom_site_type_symbol
_atom_site_label
_atom_site_fract_x
_atom_site_fract_y
_atom_site_fract_z
Si Si1 0.604685 0.062842 0.400284
Si Si2 0.993709 0.369249 0.309592
Si Si3 0.256809 0.692524 0.180446
Si Si4 0.839067 0.543031 0.439282
Si Si5 0.648678 0.606418 0.860581
Si Si6 0.843173 0.055155 0.248841
Si Si7 0.765940 0.193553 0.304471
Si Si8 0.354259 0.398776 0.634319
O O1 0.532577 0.086149 0.349048
O O2 0.484597 0.065104 0.441073
O O3 0.738827 0.093306 0.402542
O O4 0.648880 0.006457 0.403988
O O5 0.872584 0.332441 0.310610
O O6 0.000000 0.389367 0.250000
O O7 0.118129 0.335265 0.320806
O O8 0.250000 0.750000 0.167804
O O9 0.306805 0.689238 0.242103
O O10 0.340950 0.659422 0.141001
O O11 0.799943 0.531039 0.500000
O O12 0.737953 0.578577 0.410366
O O13 0.692238 0.581679 0.803973
O O14 0.644007 0.663202 0.844295
O O15 0.505166 0.588187 0.874344
O O16 0.810419 0.080650 0.192799
O O17 0.000000 0.054290 0.250000
O O18 0.793832 0.000000 0.250000
O O19 0.750000 0.250000 0.316939
#
# Coordination Sequence:
#
# PCOD9495876 Si02
#       8
#    16  16  16  16  16  16  16  16
#     4  10  20  38  58  78 110 144 185 232 285 345
#     4   9  18  33  50  81 120 149 191 232 269 335
#     4  10  19  31  51  79 117 160 195 227 272 327
#     4  11  24  42  62  81 104 142 191 241 296 350
#     4  10  20  33  54  84 117 149 186 222 268 333
#     4   9  17  30  48  75 114 152 178 211 266 331
#     4   9  18  30  49  78 119 160 190 221 258 322
#     4  11  21  36  55  83 115 149 191 234 278 329
#
# _framework density 18.094915
#
# number of rings (size 3 to 8) (size 9 to 14) (size 15 to 20)
#    0.000    2.125    2.500    1.500    1.750    1.500 
#    0.000    3.125    0.000    0.375    0.000    0.000 
#    0.000   11.500    0.000    0.000    0.000    0.000 
#
# Total GULP energy -356479.341448 kJ/mol
# GULP energy per Si atom -5569.989710 kJ/mol
# Density = 1.805373 g / cm^3
# Si number density = 18.094915 Si / 1000 Ang^3
#
#
#
# Elastic Constant Matrix: (Units=GPa)
#
#
# Indices 1 2 3 4 5 6 
#
# 1 92.8242 26.7783 22.5441 0.0000 0.0000 0.0000
# 2 26.7783 119.4559 49.1330 0.0000 0.0000 0.0000
# 3 22.5441 49.1330 55.4458 0.0000 0.0000 0.0000
# 4 0.0000 0.0000 0.0000 0.0303 0.0000 0.0000
# 5 0.0000 0.0000 0.0000 0.0000 3.7741 0.0000
# 6 0.0000 0.0000 0.0000 0.0000 0.0000 14.2339
#
#
#
# Elastic Compliance Matrix: (Units=1/GPa)
#
#
# Indices 1 2 3 4 5 6 
#
# 1 0.012041 -0.001079 -0.003940 0.000000 0.000000 0.000000
# 2 -0.001079 0.013269 -0.011320 0.000000 0.000000 0.000000
# 3 -0.003940 -0.011320 0.029668 0.000000 0.000000 0.000000
# 4 0.000000 0.000000 0.000000 32.966716 0.000000 0.000000
# 5 0.000000 0.000000 0.000000 0.000000 0.264961 0.000000
# 6 0.000000 0.000000 0.000000 0.000000 0.000000 0.070255
#
#
# Mechanical properties :
#
#
# Convention : Reuss Voigt Hill
#
# Bulk Modulus (GPa) = 44.83922 51.62629 48.23275
# Shear Modulus (GPa) = 0.14971 14.89238 7.52105
#
# Velocity S-wave (km/s) = 0.28795 2.87194 2.04095
# Velocity P-wave (km/s) = 4.99443 6.29207 5.68043
#
# Compressibility (1/GPa) = 0.02230191
#
# Stress axis : x y z
#
# Youngs Moduli (GPa) = 83.04856 75.36400 33.70581
#
# Poissons Ratio (x) = 0.08129 0.13280
# Poissons Ratio (y) = 0.08958 0.38154
# Poissons Ratio (z) = 0.32721 0.85309
#
# Static dielectric constant tensor:
#      x y z
#    x 1.682020 0.000000 0.000000 
#    y 0.000000 1.642940 0.000000 
#    z 0.000000 0.000000 1.611580 
# 
# From -- ./inp_files/57410.got.cif
#   From: 2010.05.17/outbox.cif.g08.bks.cpg/sg66_29_cif.got.tgz:57410.got - 2010.06.03 17:51:23.
