data_PCOD9495044
_publ_section_title
;
Structure prediction by ZEFSAII (Michael W. Deem and Ramdas Pophale) SiO2 
 PCOD9495044
Probable space group: C C C M
;
_chemical_formula_sum "Si O2"
_cell_formula_units_Z 80
_cell_length_a 26.470974
_cell_length_b 17.374208
_cell_length_c 8.824454
_cell_angle_alpha 90.000000
_cell_angle_beta 90.000000
_cell_angle_gamma 90.000000
_cell_volume 4058.474126
_symmetry_space_group_name_H-M "C C C M"
_symmetry_group_IT_number 66
_symmetry_cell_setting 'orthorhombic'
loop_
_space_group_symop_operation_xyz
x,y,z
-x,-y,z
x,-y,1/2-z
-x,y,1/2-z
-x,-y,-z
x,y,-z
-x,y,1/2+z
x,-y,1/2+z
1/2+x,1/2+y,z
1/2-x,1/2-y,z
1/2+x,1/2-y,1/2-z
1/2-x,1/2+y,1/2-z
1/2-x,1/2-y,-z
1/2+x,1/2+y,-z
1/2-x,1/2+y,1/2+z
1/2+x,1/2-y,1/2+z
loop_
_atom_site_type_symbol
_atom_site_label
_atom_site_fract_x
_atom_site_fract_y
_atom_site_fract_z
Si Si1 0.949466 0.874393 0.818059
Si Si2 0.162569 0.120649 0.177909
Si Si3 0.266026 0.920089 0.821278
Si Si4 0.948757 0.701609 0.680913
Si Si5 0.344106 0.805797 0.678574
O O1 0.894042 0.907899 0.784911
O O2 0.947893 0.789121 0.744886
O O3 0.000000 0.911562 0.750000
O O4 0.953878 0.867690 0.000000
O O5 0.207120 0.088304 0.279215
O O6 0.162139 0.213620 0.196091
O O7 0.172781 0.104289 0.000000
O O8 0.296725 0.850239 0.747015
O O9 0.284551 0.000000 0.750000
O O10 0.272920 0.919939 0.000000
O O11 0.951245 0.702277 0.500000
O O12 0.895729 0.668355 0.739069
O O13 0.000000 0.666063 0.750000
O O14 0.348385 0.820938 0.500000
#
# Coordination Sequence:
#
# PCOD9495044 Si02
#       5
#    16  16  16  16  16
#     4   9  16  27  46  74 108 141 172 212 262 311
#     4   9  19  35  55  80 110 142 175 217 266 313
#     4  12  25  39  56  77 104 140 180 222 268 319
#     4  10  17  27  46  75 109 141 175 214 259 309
#     4  10  20  36  57  81 110 141 175 219 267 314
#
# _framework density 19.711842000000001
#
# number of rings (size 3 to 8) (size 9 to 14) (size 15 to 20)
#    0.000    2.000    0.000    7.800    0.000    7.200 
#    0.000    0.000    0.000    1.200    0.000    8.400 
#    0.000    0.000    0.000    0.000    0.000    0.000 
#
# Total GULP energy -223324.838740 kJ/mol
# GULP energy per Si atom -5583.120968 kJ/mol
# Density = 1.966698 g / cm^3
# Si number density = 19.711842 Si / 1000 Ang^3
#
#
#
# Elastic Constant Matrix: (Units=GPa)
#
#
# Indices 1 2 3 4 5 6 
#
# 1 115.7337 24.1851 59.0212 0.0000 0.0000 0.0000
# 2 24.1851 40.0520 36.0895 0.0000 0.0000 0.0000
# 3 59.0212 36.0895 111.8616 0.0000 0.0000 0.0000
# 4 0.0000 0.0000 0.0000 20.6928 0.0000 0.0000
# 5 0.0000 0.0000 0.0000 0.0000 45.5428 0.0000
# 6 0.0000 0.0000 0.0000 0.0000 0.0000 16.3891
#
#
#
# Elastic Compliance Matrix: (Units=1/GPa)
#
#
# Indices 1 2 3 4 5 6 
#
# 1 0.011953 -0.002164 -0.005609 0.000000 0.000000 0.000000
# 2 -0.002164 0.035592 -0.010341 0.000000 0.000000 0.000000
# 3 -0.005609 -0.010341 0.015235 0.000000 0.000000 0.000000
# 4 0.000000 0.000000 0.000000 0.048326 0.000000 0.000000
# 5 0.000000 0.000000 0.000000 0.000000 0.021957 0.000000
# 6 0.000000 0.000000 0.000000 0.000000 0.000000 0.061016
#
#
# Mechanical properties :
#
#
# Convention : Reuss Voigt Hill
#
# Bulk Modulus (GPa) = 37.66064 56.24875 46.95470
# Shear Modulus (GPa) = 20.90661 26.41503 23.66082
#
# Velocity S-wave (km/s) = 3.26024 3.66465 3.46834
# Velocity P-wave (km/s) = 5.77228 6.81936 6.31755
#
# Compressibility (1/GPa) = 0.02655292
#
# Stress axis : x y z
#
# Youngs Moduli (GPa) = 83.66129 28.09590 65.63749
#
# Poissons Ratio (x) = 0.06080 0.36813
# Poissons Ratio (y) = 0.18105 0.67877
# Poissons Ratio (z) = 0.46922 0.29055
#
# Static dielectric constant tensor:
#      x y z
#    x 1.751900 0.000000 0.000000 
#    y 0.000000 1.684400 0.000000 
#    z 0.000000 0.000000 1.646990 
# 
# From -- ./inp_files/6720.got.cif
#   From: 2010.05.17/outbox.cif.g08.bks.cpg/sg66_4_cif.got.tgz:6720.got - 2010.06.03 17:51:23.
