data_PCOD9495955
_publ_section_title
;
Structure prediction by ZEFSAII (Michael W. Deem and Ramdas Pophale) SiO2 
 PCOD9495955
Probable space group: C C C M
;
_chemical_formula_sum "Si O2"
_cell_formula_units_Z 96
_cell_length_a 30.405904
_cell_length_b 20.260740
_cell_length_c 8.855605
_cell_angle_alpha 90.000000
_cell_angle_beta 90.000000
_cell_angle_gamma 90.000000
_cell_volume 5455.461060
_symmetry_space_group_name_H-M "C C C M"
_symmetry_group_IT_number 66
_symmetry_cell_setting 'orthorhombic'
loop_
_space_group_symop_operation_xyz
x,y,z
-x,-y,z
x,-y,1/2-z
-x,y,1/2-z
-x,-y,-z
x,y,-z
-x,y,1/2+z
x,-y,1/2+z
1/2+x,1/2+y,z
1/2-x,1/2-y,z
1/2+x,1/2-y,1/2-z
1/2-x,1/2+y,1/2-z
1/2-x,1/2-y,-z
1/2+x,1/2+y,-z
1/2-x,1/2+y,1/2+z
1/2+x,1/2-y,1/2+z
loop_
_atom_site_type_symbol
_atom_site_label
_atom_site_fract_x
_atom_site_fract_y
_atom_site_fract_z
Si Si1 0.295912 0.212478 0.680510
Si Si2 0.548531 0.788323 0.680062
Si Si3 0.235678 0.568527 0.818751
Si Si4 0.450756 0.934559 0.180486
Si Si5 0.333355 0.431742 0.818716
Si Si6 0.624619 0.706581 0.820352
O O1 0.303450 0.218276 0.500000
O O2 0.250000 0.250000 0.713584
O O3 0.290781 0.135100 0.717402
O O4 0.335077 0.247809 0.766868
O O5 0.500000 0.783219 0.750000
O O6 0.545002 0.784369 0.500000
O O7 0.567657 0.861902 0.715946
O O8 0.580899 0.733405 0.742790
O O9 0.218117 0.500000 0.750000
O O10 0.284722 0.577438 0.751487
O O11 0.238624 0.562883 0.000000
O O12 0.500000 0.932552 0.250000
O O13 0.428920 0.000000 0.250000
O O14 0.453335 0.941815 0.000000
O O15 0.350793 0.500000 0.750000
O O16 0.362580 0.368403 0.780374
O O17 0.329454 0.436706 0.000000
O O18 0.619907 0.710643 0.000000
#
# Coordination Sequence:
#
# PCOD9495955 Si02
#       6
#    16  16  16  16  16  16
#     4  10  20  35  54  77 108 145 180 218 268 322
#     4  10  21  37  57  80 109 143 182 226 275 327
#     4  10  19  32  52  76 106 145 184 222 267 319
#     4   9  16  27  47  74 100 131 169 212 259 309
#     4  10  20  33  52  79 108 139 177 220 265 318
#     4  11  23  36  55  83 111 141 181 226 271 321
#
# _framework density 17.597045999999999
#
# number of rings (size 3 to 8) (size 9 to 14) (size 15 to 20)
#    0.000    2.000    1.667    4.000    0.000    5.667 
#    0.000    0.833    0.000    0.500    0.000    3.500 
#    0.000    0.000    0.000    0.000    0.000    0.000 
#
# Total GULP energy -267845.948821 kJ/mol
# GULP energy per Si atom -5580.123934 kJ/mol
# Density = 1.755699 g / cm^3
# Si number density = 17.597046 Si / 1000 Ang^3
#
#
#
# Elastic Constant Matrix: (Units=GPa)
#
#
# Indices 1 2 3 4 5 6 
#
# 1 51.9844 54.3923 32.1674 0.0000 0.0000 0.0000
# 2 54.3923 174.6214 67.5636 0.0000 0.0000 0.0000
# 3 32.1674 67.5636 65.2837 0.0000 0.0000 0.0000
# 4 0.0000 0.0000 0.0000 34.1537 0.0000 0.0000
# 5 0.0000 0.0000 0.0000 0.0000 25.8027 0.0000
# 6 0.0000 0.0000 0.0000 0.0000 0.0000 22.2001
#
#
#
# Elastic Compliance Matrix: (Units=1/GPa)
#
#
# Indices 1 2 3 4 5 6 
#
# 1 0.031366 -0.006322 -0.008913 0.000000 0.000000 0.000000
# 2 -0.006322 0.010825 -0.008089 0.000000 0.000000 0.000000
# 3 -0.008913 -0.008089 0.028080 0.000000 0.000000 0.000000
# 4 0.000000 0.000000 0.000000 0.029279 0.000000 0.000000
# 5 0.000000 0.000000 0.000000 0.000000 0.038756 0.000000
# 6 0.000000 0.000000 0.000000 0.000000 0.000000 0.045045
#
#
# Mechanical properties :
#
#
# Convention : Reuss Voigt Hill
#
# Bulk Modulus (GPa) = 42.32609 66.68177 54.50393
# Shear Modulus (GPa) = 21.01965 25.61572 23.31769
#
# Velocity S-wave (km/s) = 3.45990 3.81948 3.64413
# Velocity P-wave (km/s) = 6.32980 7.57808 6.98189
#
# Compressibility (1/GPa) = 0.02362609
#
# Stress axis : x y z
#
# Youngs Moduli (GPa) = 31.88154 92.37560 35.61221
#
# Poissons Ratio (x) = 0.58397 0.31740
# Poissons Ratio (y) = 0.20155 0.28805
# Poissons Ratio (z) = 0.28415 0.74718
#
# Static dielectric constant tensor:
#      x y z
#    x 1.571030 0.000000 0.000000 
#    y 0.000000 1.637670 0.000000 
#    z 0.000000 0.000000 1.586160 
# 
# From -- ./inp_files/8033.got.cif
#   From: 2010.05.17/outbox.cif.g08.bks.cpg/sg66_5_cif.got.tgz:8033.got - 2010.06.03 17:51:23.
