data_PCOD9495958
_publ_section_title
;
Structure prediction by ZEFSAII (Michael W. Deem and Ramdas Pophale) SiO2 
 PCOD9495958
Probable space group: C C C M
;
_chemical_formula_sum "Si O2"
_cell_formula_units_Z 116
_cell_length_a 27.831301
_cell_length_b 27.570877
_cell_length_c 8.577741
_cell_angle_alpha 90.000000
_cell_angle_beta 90.000000
_cell_angle_gamma 90.000000
_cell_volume 6581.986965
_symmetry_space_group_name_H-M "C C C M"
_symmetry_group_IT_number 66
_symmetry_cell_setting 'orthorhombic'
loop_
_space_group_symop_operation_xyz
x,y,z
-x,-y,z
x,-y,1/2-z
-x,y,1/2-z
-x,-y,-z
x,y,-z
-x,y,1/2+z
x,-y,1/2+z
1/2+x,1/2+y,z
1/2-x,1/2-y,z
1/2+x,1/2-y,1/2-z
1/2-x,1/2+y,1/2-z
1/2-x,1/2-y,-z
1/2+x,1/2+y,-z
1/2-x,1/2+y,1/2+z
1/2+x,1/2-y,1/2+z
loop_
_atom_site_type_symbol
_atom_site_label
_atom_site_fract_x
_atom_site_fract_y
_atom_site_fract_z
Si Si1 0.081850 0.076320 0.319438
Si Si2 0.290944 0.949620 0.186518
Si Si3 0.500000 0.500000 0.750000
Si Si4 0.709332 0.672836 0.184365
Si Si5 0.133068 0.253450 0.813468
Si Si6 0.180549 0.651513 0.313431
Si Si7 0.815494 0.072775 0.182921
Si Si8 0.947590 0.817495 0.313519
O O1 0.093284 0.086000 0.500000
O O2 0.132571 0.057580 0.249505
O O3 0.066512 0.128448 0.251137
O O4 0.038470 0.038121 0.320077
O O5 0.319006 0.901677 0.239813
O O6 0.235579 0.944930 0.250418
O O7 0.310963 0.000000 0.250000
O O8 0.289540 0.950317 0.000000
O O9 0.681828 0.722659 0.212112
O O10 0.765960 0.672847 0.215969
O O11 0.686329 0.630614 0.288855
O O12 0.702978 0.660523 0.000000
O O13 0.142483 0.308314 0.758273
O O14 0.090846 0.222511 0.737430
O O15 0.125071 0.254731 0.000000
O O16 0.175703 0.646684 0.500000
O O17 0.813392 0.060277 0.000000
O O18 0.949600 0.819836 0.500000
O O19 0.000000 0.805467 0.250000
#
# Coordination Sequence:
#
# PCOD9495958 Si02
#       8
#    16  16   4  16  16  16  16  16
#     4  10  21  36  50  66  90 122 167 221 275 318
#     4  10  20  33  51  72 101 136 173 210 254 304
#     4  12  22  36  52  66  88 124 174 232 284 316
#     4   9  16  28  48  74 100 130 164 203 249 305
#     4  10  19  32  52  78 103 134 168 207 258 314
#     4   9  18  32  50  74 107 136 169 208 249 304
#     4   9  18  33  48  66  93 126 166 213 260 311
#     4  11  22  38  56  74  99 131 170 218 269 324
#
# _framework density 17.623857999999998
#
# number of rings (size 3 to 8) (size 9 to 14) (size 15 to 20)
#    0.000    2.207    2.069    1.448    0.966    2.759 
#    0.000    1.379    0.000    4.138    0.000    0.000 
#    0.000    0.552    0.000    5.793    0.000    2.483 
#
# Total GULP energy -323103.119746 kJ/mol
# GULP energy per Si atom -5570.743444 kJ/mol
# Density = 1.758375 g / cm^3
# Si number density = 17.623858 Si / 1000 Ang^3
#
#
#
# Elastic Constant Matrix: (Units=GPa)
#
#
# Indices 1 2 3 4 5 6 
#
# 1 53.6327 52.9487 16.3703 0.0000 0.0000 0.0000
# 2 52.9487 135.1830 28.0983 0.0000 0.0000 0.0000
# 3 16.3703 28.0983 18.7797 0.0000 0.0000 0.0000
# 4 0.0000 0.0000 0.0000 348.6532 0.0000 0.0000
# 5 0.0000 0.0000 0.0000 0.0000 16.6232 0.0000
# 6 0.0000 0.0000 0.0000 0.0000 0.0000 15.3645
#
#
#
# Elastic Compliance Matrix: (Units=1/GPa)
#
#
# Indices 1 2 3 4 5 6 
#
# 1 0.032606 -0.009961 -0.013519 0.000000 0.000000 0.000000
# 2 -0.009961 0.013779 -0.011934 0.000000 0.000000 0.000000
# 3 -0.013519 -0.011934 0.082889 0.000000 0.000000 0.000000
# 4 0.000000 0.000000 0.000000 0.002868 0.000000 0.000000
# 5 0.000000 0.000000 0.000000 0.000000 0.060157 0.000000
# 6 0.000000 0.000000 0.000000 0.000000 0.000000 0.065085
#
#
# Mechanical properties :
#
#
# Convention : Reuss Voigt Hill
#
# Bulk Modulus (GPa) = 17.10955 44.71443 30.91199
# Shear Modulus (GPa) = 14.38050 83.47340 48.92695
#
# Velocity S-wave (km/s) = 2.85961 6.88961 5.27466
# Velocity P-wave (km/s) = 4.54229 9.41889 7.39419
#
# Compressibility (1/GPa) = 0.05844688
#
# Stress axis : x y z
#
# Youngs Moduli (GPa) = 30.66943 72.57175 12.06438
#
# Poissons Ratio (x) = 0.72290 0.16309
# Poissons Ratio (y) = 0.30550 0.14397
# Poissons Ratio (z) = 0.41461 0.86605
#
# Static dielectric constant tensor:
#      x y z
#    x 1.617020 0.000000 0.000000 
#    y 0.000000 1.623840 0.000000 
#    z 0.000000 0.000000 1.612910 
# 
# From -- ./inp_files/9458.got.cif
#   From: 2010.05.17/outbox.cif.g08.bks.cpg/sg66_5_cif.got.tgz:9458.got - 2010.06.03 17:51:23.
