data_PCOD9495404
_publ_section_title
;
Structure prediction by ZEFSAII (Michael W. Deem and Ramdas Pophale) SiO2 
 PCOD9495404
Probable space group: C C C M
;
_chemical_formula_sum "Si O2"
_cell_formula_units_Z 80
_cell_length_a 17.802696
_cell_length_b 23.219397
_cell_length_c 8.847639
_cell_angle_alpha 90.000000
_cell_angle_beta 90.000000
_cell_angle_gamma 90.000000
_cell_volume 3657.329653
_symmetry_space_group_name_H-M "C C C M"
_symmetry_group_IT_number 66
_symmetry_cell_setting 'orthorhombic'
loop_
_space_group_symop_operation_xyz
x,y,z
-x,-y,z
x,-y,1/2-z
-x,y,1/2-z
-x,-y,-z
x,y,-z
-x,y,1/2+z
x,-y,1/2+z
1/2+x,1/2+y,z
1/2-x,1/2-y,z
1/2+x,1/2-y,1/2-z
1/2-x,1/2+y,1/2-z
1/2-x,1/2-y,-z
1/2+x,1/2+y,-z
1/2-x,1/2+y,1/2+z
1/2+x,1/2-y,1/2+z
loop_
_atom_site_type_symbol
_atom_site_label
_atom_site_fract_x
_atom_site_fract_y
_atom_site_fract_z
Si Si1 0.758606 0.576776 0.325329
Si Si2 0.576123 0.099746 0.179513
Si Si3 0.111816 0.941602 0.674248
Si Si4 0.922315 0.273639 0.678930
Si Si5 0.350101 0.671764 0.827056
O O1 0.740274 0.558953 0.500000
O O2 0.845398 0.567735 0.293859
O O3 0.702654 0.553982 0.197122
O O4 0.733554 0.644384 0.324187
O O5 0.500000 0.074747 0.250000
O O6 0.586597 0.163143 0.250785
O O7 0.566442 0.105249 0.000000
O O8 0.091045 0.937322 0.500000
O O9 0.099345 0.882000 0.764927
O O10 0.082169 0.000000 0.750000
O O11 0.928191 0.278293 0.500000
O O12 0.860137 0.227696 0.727023
O O13 0.000000 0.250426 0.750000
O O14 0.369890 0.684504 0.000000
#
# Coordination Sequence:
#
# PCOD9495404 Si02
#       5
#    16  16  16  16  16
#     4   8  18  33  50  72  99 130 164 202 247 290
#     4  10  19  33  50  71 100 136 169 202 243 291
#     4  10  18  31  52  76 100 126 160 200 247 296
#     4  11  21  33  49  72 100 135 170 202 242 290
#     4   9  18  34  51  73  99 128 164 205 246 288
#
# _framework density 21.873881999999998
#
# number of rings (size 3 to 8) (size 9 to 14) (size 15 to 20)
#    1.200    1.200    0.000    5.400    0.000    2.400 
#    0.000    4.000    0.000    1.200    0.000    8.400 
#    0.000    0.000    0.000    0.000    0.000    0.000 
#
# Total GULP energy -222864.083582 kJ/mol
# GULP energy per Si atom -5571.602090 kJ/mol
# Density = 2.182410 g / cm^3
# Si number density = 21.873882 Si / 1000 Ang^3
#
#
#
# Elastic Constant Matrix: (Units=GPa)
#
#
# Indices 1 2 3 4 5 6 
#
# 1 73.0615 5.8045 34.5713 0.0000 0.0000 0.0000
# 2 5.8045 48.8512 19.0042 0.0000 0.0000 0.0000
# 3 34.5713 19.0042 107.0392 0.0000 0.0000 0.0000
# 4 0.0000 0.0000 0.0000 17.0180 0.0000 0.0000
# 5 0.0000 0.0000 0.0000 0.0000 3.0446 0.0000
# 6 0.0000 0.0000 0.0000 0.0000 0.0000 107.8253
#
#
#
# Elastic Compliance Matrix: (Units=1/GPa)
#
#
# Indices 1 2 3 4 5 6 
#
# 1 0.016157 0.000118 -0.005239 0.000000 0.000000 0.000000
# 2 0.000118 0.021990 -0.003942 0.000000 0.000000 0.000000
# 3 -0.005239 -0.003942 0.011735 0.000000 0.000000 0.000000
# 4 0.000000 0.000000 0.000000 0.058761 0.000000 0.000000
# 5 0.000000 0.000000 0.000000 0.000000 0.328445 0.000000
# 6 0.000000 0.000000 0.000000 0.000000 0.000000 0.009274
#
#
# Mechanical properties :
#
#
# Convention : Reuss Voigt Hill
#
# Bulk Modulus (GPa) = 31.49142 38.63464 35.06303
# Shear Modulus (GPa) = 10.52468 36.88238 23.70353
#
# Velocity S-wave (km/s) = 2.19590 4.11072 3.29545
# Velocity P-wave (km/s) = 4.56699 6.34283 5.52670
#
# Compressibility (1/GPa) = 0.03175469
#
# Stress axis : x y z
#
# Youngs Moduli (GPa) = 61.89327 45.47527 85.21869
#
# Poissons Ratio (x) = -0.00539 0.44649
# Poissons Ratio (y) = -0.00733 0.33597
# Poissons Ratio (z) = 0.32428 0.17928
#
# Static dielectric constant tensor:
#      x y z
#    x 1.853950 0.000000 0.000000 
#    y 0.000000 1.862140 0.000000 
#    z 0.000000 0.000000 1.750320 
# 
# From -- ./inp_files/6886.got.cif
#   From: 2010.05.17/outbox.cif.g08.bks.cpg/sg66_4_cif.got.tgz:6886.got - 2010.06.03 17:51:23.
