data_PCOD9495131
_publ_section_title
;
Structure prediction by ZEFSAII (Michael W. Deem and Ramdas Pophale) SiO2 
 PCOD9495131
Probable space group: C C C M
;
_chemical_formula_sum "Si O2"
_cell_formula_units_Z 104
_cell_length_a 21.812525
_cell_length_b 8.176347
_cell_length_c 28.991056
_cell_angle_alpha 90.000000
_cell_angle_beta 90.000000
_cell_angle_gamma 90.000000
_cell_volume 5170.461293
_symmetry_space_group_name_H-M "C C C M"
_symmetry_group_IT_number 66
_symmetry_cell_setting 'orthorhombic'
loop_
_space_group_symop_operation_xyz
x,y,z
-x,-y,z
x,-y,1/2-z
-x,y,1/2-z
-x,-y,-z
x,y,-z
-x,y,1/2+z
x,-y,1/2+z
1/2+x,1/2+y,z
1/2-x,1/2-y,z
1/2+x,1/2-y,1/2-z
1/2-x,1/2+y,1/2-z
1/2-x,1/2-y,-z
1/2+x,1/2+y,-z
1/2-x,1/2+y,1/2+z
1/2+x,1/2-y,1/2+z
loop_
_atom_site_type_symbol
_atom_site_label
_atom_site_fract_x
_atom_site_fract_y
_atom_site_fract_z
Si Si1 0.079722 0.398820 0.675825
Si Si2 0.500000 0.719459 0.750000
Si Si3 0.905651 0.886245 0.082444
Si Si4 0.925756 0.534348 0.500000
Si Si5 0.038755 0.248089 0.581306
Si Si6 0.816402 0.312551 0.766947
Si Si7 0.325748 0.740661 0.500000
Si Si8 0.398086 0.285566 0.185674
O O1 0.047530 0.329931 0.630893
O O2 0.144586 0.313552 0.686114
O O3 0.086386 0.593776 0.676433
O O4 0.043339 0.335870 0.720173
O O5 0.543996 0.634828 0.787615
O O6 0.886344 0.859058 0.135599
O O7 0.965557 0.771027 0.071947
O O8 0.932505 0.068087 0.079191
O O9 0.852090 0.850468 0.045802
O O10 0.923319 0.643480 0.545713
O O11 0.869395 0.405365 0.500000
O O12 0.000000 0.500000 0.500000
O O13 0.816703 0.500000 0.750000
O O14 0.750000 0.250000 0.776449
O O15 0.845026 0.211776 0.724026
O O16 0.250000 0.750000 0.500000
#
# Coordination Sequence:
#
# PCOD9495131 Si02
#       8
#    16   8  16   8  16  16   8  16
#     4  10  19  33  57  89 115 158 213 262 311 374
#     4  10  17  30  55  86 121 154 201 272 313 356
#     4  11  23  41  62  96 135 167 205 273 326 382
#     4  12  23  43  73  99 120 166 217 256 314 395
#     4  11  23  39  65  98 129 162 212 263 330 381
#     4   9  20  36  54  80 117 166 214 257 309 377
#     4  12  27  47  71  99 130 167 215 270 329 388
#     4  10  19  33  59  87 120 161 213 259 314 371
#
# _framework density 20.114259000000001
#
# number of rings (size 3 to 8) (size 9 to 14) (size 15 to 20)
#    0.000    1.538    3.077    3.692    0.000    3.077 
#    0.000    7.692    0.000    0.000    0.000    0.000 
#    0.000    0.000    0.000    0.000    0.000    0.000 
#
# Total GULP energy -290177.933087 kJ/mol
# GULP energy per Si atom -5580.344867 kJ/mol
# Density = 2.006848 g / cm^3
# Si number density = 20.114259 Si / 1000 Ang^3
#
#
#
# Elastic Constant Matrix: (Units=GPa)
#
#
# Indices 1 2 3 4 5 6 
#
# 1 144.3164 33.2467 47.6991 0.0000 0.0000 0.0000
# 2 33.2467 47.9099 26.7504 0.0000 0.0000 0.0000
# 3 47.6991 26.7504 124.4649 0.0000 0.0000 0.0000
# 4 0.0000 0.0000 0.0000 -27.6021 0.0000 0.0000
# 5 0.0000 0.0000 0.0000 0.0000 25.4615 0.0000
# 6 0.0000 0.0000 0.0000 0.0000 0.0000 29.0300
#
#
#
# Elastic Compliance Matrix: (Units=1/GPa)
#
#
# Indices 1 2 3 4 5 6 
#
# 1 0.008811 -0.004806 -0.002344 0.000000 0.000000 0.000000
# 2 -0.004806 0.026340 -0.003819 0.000000 0.000000 0.000000
# 3 -0.002344 -0.003819 0.009753 0.000000 0.000000 0.000000
# 4 0.000000 0.000000 0.000000 -0.036229 0.000000 0.000000
# 5 0.000000 0.000000 0.000000 0.000000 0.039275 0.000000
# 6 0.000000 0.000000 0.000000 0.000000 0.000000 0.034447
#
#
# Mechanical properties :
#
#
# Convention : Reuss Voigt Hill
#
# Bulk Modulus (GPa) = 43.54130 59.12041 51.33086
# Shear Modulus (GPa) = 44.64663 19.31089 31.97876
#
# Velocity S-wave (km/s) = 4.71643 3.10184 3.99162
# Velocity P-wave (km/s) = 7.16614 6.50267 6.84245
#
# Compressibility (1/GPa) = 0.02296670
#
# Stress axis : x y z
#
# Youngs Moduli (GPa) = 113.49467 37.96522 102.52732
#
# Poissons Ratio (x) = 0.18245 0.24031
# Poissons Ratio (y) = 0.54541 0.39159
# Poissons Ratio (z) = 0.26601 0.14500
#
# Static dielectric constant tensor:
#      x y z
#    x 1.746480 0.000000 0.000000 
#    y 0.000000 1.773620 0.000000 
#    z 0.000000 0.000000 1.721870 
# 
# From -- ./inp_files/65758.got.cif
#   From: 2010.05.17/outbox.cif.g08.bks.cpg/sg66_33_cif.got.tgz:65758.got - 2010.06.03 17:51:23.
