data_PCOD9495963
_publ_section_title
;
Structure prediction by ZEFSAII (Michael W. Deem and Ramdas Pophale) SiO2 
 PCOD9495963
Probable space group: C C C M
;
_chemical_formula_sum "Si O2"
_cell_formula_units_Z 96
_cell_length_a 18.522767
_cell_length_b 12.190620
_cell_length_c 20.631822
_cell_angle_alpha 90.000000
_cell_angle_beta 90.000000
_cell_angle_gamma 90.000000
_cell_volume 4658.748221
_symmetry_space_group_name_H-M "C C C M"
_symmetry_group_IT_number 66
_symmetry_cell_setting 'orthorhombic'
loop_
_space_group_symop_operation_xyz
x,y,z
-x,-y,z
x,-y,1/2-z
-x,y,1/2-z
-x,-y,-z
x,y,-z
-x,y,1/2+z
x,-y,1/2+z
1/2+x,1/2+y,z
1/2-x,1/2-y,z
1/2+x,1/2-y,1/2-z
1/2-x,1/2+y,1/2-z
1/2-x,1/2-y,-z
1/2+x,1/2+y,-z
1/2-x,1/2+y,1/2+z
1/2+x,1/2-y,1/2+z
loop_
_atom_site_type_symbol
_atom_site_label
_atom_site_fract_x
_atom_site_fract_y
_atom_site_fract_z
Si Si1 0.583022 0.329845 0.927629
Si Si2 0.688809 0.002175 0.371298
Si Si3 0.333487 0.217159 0.310673
Si Si4 0.607680 0.012075 0.000000
Si Si5 0.837383 0.742193 0.833116
Si Si6 0.151669 0.943763 0.422625
Si Si7 0.982616 0.306285 0.500000
O O1 0.622058 0.269083 0.869326
O O2 0.592244 0.459930 0.916755
O O3 0.505047 0.273663 0.940478
O O4 0.618060 0.313071 0.000000
O O5 0.652037 0.117920 0.355329
O O6 0.773690 0.014063 0.388724
O O7 0.670458 0.914147 0.316579
O O8 0.652968 0.961484 0.436997
O O9 0.250000 0.250000 0.317705
O O10 0.362045 0.256107 0.240941
O O11 0.540825 0.094891 0.000000
O O12 0.588612 0.880691 0.000000
O O13 0.750000 0.750000 0.831251
O O14 0.863904 0.833488 0.882913
O O15 0.162776 0.922243 0.500000
#
# Coordination Sequence:
#
# PCOD9495963 Si02
#       7
#    16  16  16   8  16  16   8
#     4   9  18  32  52  75 103 142 183 233 273 334
#     4  11  19  31  51  78 108 146 184 226 275 345
#     4  11  19  31  49  76 113 144 182 222 279 352
#     4  11  20  31  55  78 106 141 180 244 288 323
#     4   9  22  32  45  75 114 151 172 219 284 349
#     4  10  19  32  52  78 112 148 187 227 273 343
#     4   9  20  35  48  82 105 133 183 240 298 321
#
# _framework density 20.606393000000001
#
# number of rings (size 3 to 8) (size 9 to 14) (size 15 to 20)
#    0.500    1.500    4.167    0.500    1.167    2.000 
#    0.000    0.000    0.000    3.000    0.000    0.000 
#    0.000    2.667    0.333    0.000    0.000    0.000 
#
# Total GULP energy -267431.860657 kJ/mol
# GULP energy per Si atom -5571.497097 kJ/mol
# Density = 2.055949 g / cm^3
# Si number density = 20.606393 Si / 1000 Ang^3
#
#
#
# Elastic Constant Matrix: (Units=GPa)
#
#
# Indices 1 2 3 4 5 6 
#
# 1 41.0412 16.5816 16.8693 0.0000 0.0000 0.0000
# 2 16.5816 156.0892 51.0421 0.0000 0.0000 0.0000
# 3 16.8693 51.0421 109.1423 0.0000 0.0000 0.0000
# 4 0.0000 0.0000 0.0000 22.7451 0.0000 0.0000
# 5 0.0000 0.0000 0.0000 0.0000 7.6580 0.0000
# 6 0.0000 0.0000 0.0000 0.0000 0.0000 26.0525
#
#
#
# Elastic Compliance Matrix: (Units=1/GPa)
#
#
# Indices 1 2 3 4 5 6 
#
# 1 0.026411 -0.001736 -0.003270 0.000000 0.000000 0.000000
# 2 -0.001736 0.007677 -0.003322 0.000000 0.000000 0.000000
# 3 -0.003270 -0.003322 0.011221 0.000000 0.000000 0.000000
# 4 0.000000 0.000000 0.000000 0.043966 0.000000 0.000000
# 5 0.000000 0.000000 0.000000 0.000000 0.130583 0.000000
# 6 0.000000 0.000000 0.000000 0.000000 0.000000 0.038384
#
#
# Mechanical properties :
#
#
# Convention : Reuss Voigt Hill
#
# Bulk Modulus (GPa) = 34.90031 52.80652 43.85341
# Shear Modulus (GPa) = 17.57772 26.07641 21.82707
#
# Velocity S-wave (km/s) = 2.92382 3.56118 3.25812
# Velocity P-wave (km/s) = 5.32651 6.52620 5.95663
#
# Compressibility (1/GPa) = 0.02865304
#
# Stress axis : x y z
#
# Youngs Moduli (GPa) = 37.86234 130.25255 89.11530
#
# Poissons Ratio (x) = 0.22617 0.29142
# Poissons Ratio (y) = 0.06574 0.29605
# Poissons Ratio (z) = 0.12382 0.43271
#
# Static dielectric constant tensor:
#      x y z
#    x 1.742880 0.000000 0.000000 
#    y 0.000000 1.804460 0.000000 
#    z 0.000000 0.000000 1.753140 
# 
# From -- ./inp_files/43635.got.cif
#   From: 2010.05.17/outbox.cif.g08.bks.cpg/sg66_22_cif.got.tgz:43635.got - 2010.06.03 17:51:23.
