data_PCOD9495839
_publ_section_title
;
Structure prediction by ZEFSAII (Michael W. Deem and Ramdas Pophale) SiO2 
 PCOD9495839
Probable space group: C C C M
;
_chemical_formula_sum "Si O2"
_cell_formula_units_Z 68
_cell_length_a 19.595289
_cell_length_b 6.605417
_cell_length_c 29.705597
_cell_angle_alpha 90.000000
_cell_angle_beta 90.000000
_cell_angle_gamma 90.000000
_cell_volume 3844.945584
_symmetry_space_group_name_H-M "C C C M"
_symmetry_group_IT_number 66
_symmetry_cell_setting 'orthorhombic'
loop_
_space_group_symop_operation_xyz
x,y,z
-x,-y,z
x,-y,1/2-z
-x,y,1/2-z
-x,-y,-z
x,y,-z
-x,y,1/2+z
x,-y,1/2+z
1/2+x,1/2+y,z
1/2-x,1/2-y,z
1/2+x,1/2-y,1/2-z
1/2-x,1/2+y,1/2-z
1/2-x,1/2-y,-z
1/2+x,1/2+y,-z
1/2-x,1/2+y,1/2+z
1/2+x,1/2-y,1/2+z
loop_
_atom_site_type_symbol
_atom_site_label
_atom_site_fract_x
_atom_site_fract_y
_atom_site_fract_z
Si Si1 0.000000 0.000000 0.100720
Si Si2 0.955879 0.695902 0.176882
Si Si3 0.684378 0.870743 0.870406
Si Si4 0.500000 0.500000 0.750000
Si Si5 0.859028 0.063246 0.551981
Si Si6 0.250000 0.250000 0.413904
O O1 0.009435 0.191573 0.133949
O O2 0.068021 0.987763 0.070762
O O3 0.879971 0.637411 0.162174
O O4 0.000000 0.500000 0.188635
O O5 0.956579 0.855622 0.217439
O O6 0.750000 0.750000 0.851920
O O7 0.663676 0.748562 0.915947
O O8 0.706657 0.095333 0.883562
O O9 0.863815 0.122666 0.500000
O O10 0.802345 0.888490 0.558176
#
# Coordination Sequence:
#
# PCOD9495839 Si02
#       6
#     8  16  16   4  16   8
#     4   9  19  33  51  76 104 140 179 219 265 315
#     4  10  19  36  59  81 104 134 172 216 264 327
#     4   9  20  35  53  77 105 142 181 215 260 313
#     4  10  22  36  62  86 106 124 162 212 272 324
#     4  10  19  31  48  74 108 142 182 226 264 302
#     4  10  19  32  50  74 102 144 184 220 256 306
#
# _framework density 17.685555000000001
#
# number of rings (size 3 to 8) (size 9 to 14) (size 15 to 20)
#    0.000    2.353    0.000    2.471    0.000    7.059 
#    0.000    0.000    5.176    7.765    0.000    0.000 
#    0.000    0.000    0.000    0.000    0.000    0.000 
#
# Total GULP energy -189711.371898 kJ/mol
# GULP energy per Si atom -5579.746232 kJ/mol
# Density = 1.764530 g / cm^3
# Si number density = 17.685555 Si / 1000 Ang^3
#
#
#
# Elastic Constant Matrix: (Units=GPa)
#
#
# Indices 1 2 3 4 5 6 
#
# 1 134.9320 52.6721 60.7717 0.0000 0.0000 0.0000
# 2 52.6721 99.9916 41.0771 0.0000 0.0000 0.0000
# 3 60.7717 41.0771 89.6105 0.0000 0.0000 0.0000
# 4 0.0000 0.0000 0.0000 -17.4730 0.0000 0.0000
# 5 0.0000 0.0000 0.0000 0.0000 -5.5440 0.0000
# 6 0.0000 0.0000 0.0000 0.0000 0.0000 22.9166
#
#
#
# Elastic Compliance Matrix: (Units=1/GPa)
#
#
# Indices 1 2 3 4 5 6 
#
# 1 0.011610 -0.003550 -0.006247 0.000000 0.000000 0.000000
# 2 -0.003550 0.013406 -0.003738 0.000000 0.000000 0.000000
# 3 -0.006247 -0.003738 0.017109 0.000000 0.000000 0.000000
# 4 0.000000 0.000000 0.000000 -0.057231 0.000000 0.000000
# 5 0.000000 0.000000 0.000000 0.000000 -0.180376 0.000000
# 6 0.000000 0.000000 0.000000 0.000000 0.000000 0.043636
#
#
# Mechanical properties :
#
#
# Convention : Reuss Voigt Hill
#
# Bulk Modulus (GPa) = 66.41439 70.39735 68.40587
# Shear Modulus (GPa) = -41.75129 11.31413 -15.21858
#
# Velocity S-wave (km/s) = -4.86403 2.53205 -2.93663
# Velocity P-wave (km/s) = 2.46766 6.95987 5.22155
#
# Compressibility (1/GPa) = 0.01505698
#
# Stress axis : x y z
#
# Youngs Moduli (GPa) = 86.13125 74.59159 58.44809
#
# Poissons Ratio (x) = 0.26478 0.36510
# Poissons Ratio (y) = 0.30574 0.21848
# Poissons Ratio (z) = 0.53803 0.27883
#
# Static dielectric constant tensor:
#      x y z
#    x 1.593070 0.000000 0.000000 
#    y 0.000000 1.597070 0.000000 
#    z 0.000000 0.000000 1.582710 
# 
# From -- ./inp_files/65544.got.cif
#   From: 2010.05.17/outbox.cif.g08.bks.cpg/sg66_33_cif.got.tgz:65544.got - 2010.06.03 17:51:23.
