data_PCOD9495497
_publ_section_title
;
Structure prediction by ZEFSAII (Michael W. Deem and Ramdas Pophale) SiO2 
 PCOD9495497
Probable space group: C C C M
;
_chemical_formula_sum "Si O2"
_cell_formula_units_Z 80
_cell_length_a 25.702943
_cell_length_b 7.532313
_cell_length_c 16.908396
_cell_angle_alpha 90.000000
_cell_angle_beta 90.000000
_cell_angle_gamma 90.000000
_cell_volume 3273.509625
_symmetry_space_group_name_H-M "C C C M"
_symmetry_group_IT_number 66
_symmetry_cell_setting 'orthorhombic'
loop_
_space_group_symop_operation_xyz
x,y,z
-x,-y,z
x,-y,1/2-z
-x,y,1/2-z
-x,-y,-z
x,y,-z
-x,y,1/2+z
x,-y,1/2+z
1/2+x,1/2+y,z
1/2-x,1/2-y,z
1/2+x,1/2-y,1/2-z
1/2-x,1/2+y,1/2-z
1/2-x,1/2-y,-z
1/2+x,1/2+y,-z
1/2-x,1/2+y,1/2+z
1/2+x,1/2-y,1/2+z
loop_
_atom_site_type_symbol
_atom_site_label
_atom_site_fract_x
_atom_site_fract_y
_atom_site_fract_z
Si Si1 0.215217 0.925324 0.588986
Si Si2 0.115138 0.685095 0.094070
Si Si3 0.206594 0.351726 0.305055
Si Si4 0.001866 0.284597 0.406661
Si Si5 0.389197 0.755752 0.594994
O O1 0.205309 0.995007 0.500000
O O2 0.250000 0.750000 0.579887
O O3 0.253925 0.057609 0.633331
O O4 0.160151 0.855434 0.624630
O O5 0.162190 0.750326 0.147895
O O6 0.059525 0.758822 0.122884
O O7 0.117537 0.469360 0.102626
O O8 0.119898 0.719349 0.000000
O O9 0.181512 0.500000 0.250000
O O10 0.250000 0.250000 0.253413
O O11 0.002256 0.239189 0.500000
O O12 0.000000 0.500000 0.402488
O O13 0.947292 0.214215 0.373224
O O14 0.390298 0.725410 0.500000
#
# Coordination Sequence:
#
# PCOD9495497 Si02
#       5
#    16  16  16  16  16
#     4  10  18  32  56  84 111 141 176 219 275 333
#     4   9  16  30  54  81 110 138 172 224 272 321
#     4  12  26  39  52  74 104 148 192 234 281 330
#     4   7  11  21  43  80 113 134 161 205 265 315
#     4   8  13  24  50  84 113 136 163 208 266 326
#
# _framework density 24.438604000000002
#
# number of rings (size 3 to 8) (size 9 to 14) (size 15 to 20)
#    0.000    2.800    2.000    3.600    0.000    1.600 
#    0.000    0.000    0.000    6.600    0.000    7.000 
#    0.000    0.000    0.000    0.000    0.000    0.000 
#
# Total GULP energy -223152.859459 kJ/mol
# GULP energy per Si atom -5578.821486 kJ/mol
# Density = 2.438298 g / cm^3
# Si number density = 24.438604 Si / 1000 Ang^3
#
#
#
# Elastic Constant Matrix: (Units=GPa)
#
#
# Indices 1 2 3 4 5 6 
#
# 1 239.1682 27.5575 31.8125 0.0000 0.0000 0.0000
# 2 27.5575 64.8586 1.7356 0.0000 0.0000 0.0000
# 3 31.8125 1.7356 40.0627 0.0000 0.0000 0.0000
# 4 0.0000 0.0000 0.0000 7.7614 0.0000 0.0000
# 5 0.0000 0.0000 0.0000 0.0000 25.6380 0.0000
# 6 0.0000 0.0000 0.0000 0.0000 0.0000 27.7313
#
#
#
# Elastic Compliance Matrix: (Units=1/GPa)
#
#
# Indices 1 2 3 4 5 6 
#
# 1 0.004918 -0.001987 -0.003819 0.000000 0.000000 0.000000
# 2 -0.001987 0.016239 0.000875 0.000000 0.000000 0.000000
# 3 -0.003819 0.000875 0.027956 0.000000 0.000000 0.000000
# 4 0.000000 0.000000 0.000000 0.128842 0.000000 0.000000
# 5 0.000000 0.000000 0.000000 0.000000 0.039005 0.000000
# 6 0.000000 0.000000 0.000000 0.000000 0.000000 0.036060
#
#
# Mechanical properties :
#
#
# Convention : Reuss Voigt Hill
#
# Bulk Modulus (GPa) = 25.47834 51.81118 38.64476
# Shear Modulus (GPa) = 18.11809 31.09173 24.60491
#
# Velocity S-wave (km/s) = 2.72577 3.57071 3.17646
# Velocity P-wave (km/s) = 4.51160 6.18438 5.41300
#
# Compressibility (1/GPa) = 0.03924903
#
# Stress axis : x y z
#
# Youngs Moduli (GPa) = 203.32761 61.57937 35.77080
#
# Poissons Ratio (x) = 0.12239 0.13662
# Poissons Ratio (y) = 0.40411 -0.03129
# Poissons Ratio (z) = 0.77656 -0.05386
#
# Static dielectric constant tensor:
#      x y z
#    x 2.003050 0.000000 0.000000 
#    y 0.000000 2.130160 0.000000 
#    z 0.000000 0.000000 1.922800 
# 
# From -- ./inp_files/32092.got.cif
#   From: 2010.05.17/outbox.cif.g08.bks.cpg/sg66_17_cif.got.tgz:32092.got - 2010.06.03 17:51:23.
