data_PCOD9495838
_publ_section_title
;
Structure prediction by ZEFSAII (Michael W. Deem and Ramdas Pophale) SiO2 
 PCOD9495838
Probable space group: C C C M
;
_chemical_formula_sum "Si O2"
_cell_formula_units_Z 96
_cell_length_a 24.413462
_cell_length_b 13.749387
_cell_length_c 14.802799
_cell_angle_alpha 90.000000
_cell_angle_beta 90.000000
_cell_angle_gamma 90.000000
_cell_volume 4968.857569
_symmetry_space_group_name_H-M "C C C M"
_symmetry_group_IT_number 66
_symmetry_cell_setting 'orthorhombic'
loop_
_space_group_symop_operation_xyz
x,y,z
-x,-y,z
x,-y,1/2-z
-x,y,1/2-z
-x,-y,-z
x,y,-z
-x,y,1/2+z
x,-y,1/2+z
1/2+x,1/2+y,z
1/2-x,1/2-y,z
1/2+x,1/2-y,1/2-z
1/2-x,1/2+y,1/2-z
1/2-x,1/2-y,-z
1/2+x,1/2+y,-z
1/2-x,1/2+y,1/2+z
1/2+x,1/2-y,1/2+z
loop_
_atom_site_type_symbol
_atom_site_label
_atom_site_fract_x
_atom_site_fract_y
_atom_site_fract_z
Si Si1 0.283154 0.116438 0.606376
Si Si2 0.115737 0.633699 0.400544
Si Si3 0.740516 0.886108 0.099923
Si Si4 0.051617 0.559232 0.104746
Si Si5 0.684175 0.615359 0.267985
Si Si6 0.886987 0.289681 0.209860
O O1 0.291444 0.142634 0.500000
O O2 0.224306 0.143440 0.648732
O O3 0.331348 0.156141 0.671618
O O4 0.275754 0.999668 0.610810
O O5 0.094222 0.660991 0.500000
O O6 0.180102 0.658398 0.398480
O O7 0.101515 0.518780 0.390630
O O8 0.094777 0.682500 0.310612
O O9 0.781058 0.855520 0.178856
O O10 0.764659 0.871959 0.000000
O O11 0.067044 0.660965 0.148486
O O12 0.000000 0.500000 0.143000
O O13 0.040404 0.577242 0.000000
O O14 0.674977 0.500000 0.250000
O O15 0.629863 0.677285 0.285770
#
# Coordination Sequence:
#
# PCOD9495838 Si02
#       6
#    16  16  16  16  16  16
#     4  10  19  31  48  73 105 146 195 242 288 341
#     4  10  20  33  51  76 108 145 185 235 290 349
#     4   9  17  32  50  69 104 149 190 235 282 334
#     4  10  22  39  59  86 116 143 180 239 305 365
#     4  10  22  35  48  73 110 153 197 245 282 334
#     4  12  21  32  54  79 107 150 198 234 289 357
#
# _framework density 19.320336999999999
#
# number of rings (size 3 to 8) (size 9 to 14) (size 15 to 20)
#    0.000    1.833    3.333    1.500    0.000    4.000 
#    0.000    1.667    0.000    0.000    0.000    2.333 
#    0.000    4.000    0.000    0.000    0.000    0.000 
#
# Total GULP energy -267406.223565 kJ/mol
# GULP energy per Si atom -5570.962991 kJ/mol
# Density = 1.927636 g / cm^3
# Si number density = 19.320337 Si / 1000 Ang^3
#
#
#
# Elastic Constant Matrix: (Units=GPa)
#
#
# Indices 1 2 3 4 5 6 
#
# 1 57.5758 33.9395 23.9989 0.0000 0.0000 0.0000
# 2 33.9395 83.6283 28.3716 0.0000 0.0000 0.0000
# 3 23.9989 28.3716 105.4173 0.0000 0.0000 0.0000
# 4 0.0000 0.0000 0.0000 -18.0376 0.0000 0.0000
# 5 0.0000 0.0000 0.0000 0.0000 10.6769 0.0000
# 6 0.0000 0.0000 0.0000 0.0000 0.0000 28.7572
#
#
#
# Elastic Compliance Matrix: (Units=1/GPa)
#
#
# Indices 1 2 3 4 5 6 
#
# 1 0.023711 -0.008574 -0.003090 0.000000 0.000000 0.000000
# 2 -0.008574 0.016260 -0.002424 0.000000 0.000000 0.000000
# 3 -0.003090 -0.002424 0.010842 0.000000 0.000000 0.000000
# 4 0.000000 0.000000 0.000000 -0.055440 0.000000 0.000000
# 5 0.000000 0.000000 0.000000 0.000000 0.093660 0.000000
# 6 0.000000 0.000000 0.000000 0.000000 0.000000 0.034774
#
#
# Mechanical properties :
#
#
# Convention : Reuss Voigt Hill
#
# Bulk Modulus (GPa) = 44.17873 46.58237 45.38055
# Shear Modulus (GPa) = 31.34211 14.96672 23.15442
#
# Velocity S-wave (km/s) = 4.03207 2.78629 3.46562
# Velocity P-wave (km/s) = 6.67779 5.87487 6.28916
#
# Compressibility (1/GPa) = 0.02263533
#
# Stress axis : x y z
#
# Youngs Moduli (GPa) = 42.17475 61.50116 92.23354
#
# Poissons Ratio (x) = 0.52733 0.28503
# Poissons Ratio (y) = 0.36162 0.22358
# Poissons Ratio (z) = 0.13033 0.14909
#
# Static dielectric constant tensor:
#      x y z
#    x 1.719830 0.000000 0.000000 
#    y 0.000000 1.736230 0.000000 
#    z 0.000000 0.000000 1.718200 
# 
# From -- ./inp_files/31151.got.cif
#   From: 2010.05.17/outbox.cif.g08.bks.cpg/sg66_16_cif.got.tgz:31151.got - 2010.06.03 17:51:23.
