data_PCOD9495555
_publ_section_title
;
Structure prediction by ZEFSAII (Michael W. Deem and Ramdas Pophale) SiO2 
 PCOD9495555
Probable space group: C C C M
;
_chemical_formula_sum "Si O2"
_cell_formula_units_Z 96
_cell_length_a 19.281585
_cell_length_b 19.658909
_cell_length_c 14.630302
_cell_angle_alpha 90.000000
_cell_angle_beta 90.000000
_cell_angle_gamma 90.000000
_cell_volume 5545.688026
_symmetry_space_group_name_H-M "C C C M"
_symmetry_group_IT_number 66
_symmetry_cell_setting 'orthorhombic'
loop_
_space_group_symop_operation_xyz
x,y,z
-x,-y,z
x,-y,1/2-z
-x,y,1/2-z
-x,-y,-z
x,y,-z
-x,y,1/2+z
x,-y,1/2+z
1/2+x,1/2+y,z
1/2-x,1/2-y,z
1/2+x,1/2-y,1/2-z
1/2-x,1/2+y,1/2-z
1/2-x,1/2-y,-z
1/2+x,1/2+y,-z
1/2-x,1/2+y,1/2+z
1/2+x,1/2-y,1/2+z
loop_
_atom_site_type_symbol
_atom_site_label
_atom_site_fract_x
_atom_site_fract_y
_atom_site_fract_z
Si Si1 0.399934 0.025271 0.500000
Si Si2 0.751910 0.859120 0.000000
Si Si3 0.807805 0.198863 0.308248
Si Si4 0.063640 0.701144 0.691210
Si Si5 0.887636 0.569527 0.302399
Si Si6 0.768585 0.018210 0.000000
Si Si7 0.719782 0.567902 0.304825
Si Si8 0.417520 0.134492 0.000000
O O1 0.416271 0.062525 0.405166
O O2 0.315534 0.022455 0.500000
O O3 0.572822 0.052501 0.500000
O O4 0.780017 0.824647 0.092202
O O5 0.667484 0.857203 0.000000
O O6 0.778542 0.936996 0.000000
O O7 0.750000 0.250000 0.269073
O O8 0.877427 0.241927 0.316108
O O9 0.812081 0.133352 0.243561
O O10 0.087071 0.635372 0.749597
O O11 0.052778 0.670836 0.589926
O O12 0.000000 0.729468 0.750000
O O13 0.906638 0.500000 0.250000
O O14 0.803800 0.573729 0.300990
O O15 0.797077 0.054298 0.089949
O O16 0.700982 0.500000 0.250000
#
# Coordination Sequence:
#
# PCOD9495555 Si02
#       8
#     8   8  16  16  16   8  16   8
#     4   9  18  30  56  82 116 153 198 243 277 342
#     4  11  18  34  68  99 113 133 199 278 302 327
#     4  12  21  36  61  92 120 151 195 246 307 349
#     4  12  26  39  55  84 124 162 198 240 298 356
#     4  10  18  34  54  81 117 154 197 237 287 350
#     4   9  18  30  54  95 117 141 189 243 308 347
#     4  10  18  33  57  86 119 147 186 249 298 353
#     4  11  19  39  60  86 118 150 199 261 293 336
#
# _framework density 17.310746999999999
#
# number of rings (size 3 to 8) (size 9 to 14) (size 15 to 20)
#    0.000    1.333    6.667    0.750    0.000    1.000 
#    0.000    2.917    0.000    0.500    0.000    1.167 
#    0.000    0.000    0.000    0.000    0.000    0.000 
#
# Total GULP energy -268040.060503 kJ/mol
# GULP energy per Si atom -5584.167927 kJ/mol
# Density = 1.727135 g / cm^3
# Si number density = 17.310747 Si / 1000 Ang^3
#
#
#
# Elastic Constant Matrix: (Units=GPa)
#
#
# Indices 1 2 3 4 5 6 
#
# 1 36.2438 16.7540 16.8108 0.0000 0.0000 0.0000
# 2 16.7540 104.3120 50.3323 0.0000 0.0000 0.0000
# 3 16.8108 50.3323 148.8536 0.0000 0.0000 0.0000
# 4 0.0000 0.0000 0.0000 26.3962 0.0000 0.0000
# 5 0.0000 0.0000 0.0000 0.0000 -7.6295 0.0000
# 6 0.0000 0.0000 0.0000 0.0000 0.0000 19.2770
#
#
#
# Elastic Compliance Matrix: (Units=1/GPa)
#
#
# Indices 1 2 3 4 5 6 
#
# 1 0.030357 -0.003850 -0.002127 0.000000 0.000000 0.000000
# 2 -0.003850 0.011944 -0.003604 0.000000 0.000000 0.000000
# 3 -0.002127 -0.003604 0.008177 0.000000 0.000000 0.000000
# 4 0.000000 0.000000 0.000000 0.037884 0.000000 0.000000
# 5 0.000000 0.000000 0.000000 0.000000 -0.131070 0.000000
# 6 0.000000 0.000000 0.000000 0.000000 0.000000 0.051875
#
#
# Mechanical properties :
#
#
# Convention : Reuss Voigt Hill
#
# Bulk Modulus (GPa) = 31.93132 50.80042 41.36587
# Shear Modulus (GPa) = 128.97884 21.30957 75.14420
#
# Velocity S-wave (km/s) = 8.64116 3.51237 6.59570
# Velocity P-wave (km/s) = 10.86488 6.77192 9.05275
#
# Compressibility (1/GPa) = 0.03131722
#
# Stress axis : x y z
#
# Youngs Moduli (GPa) = 32.94147 83.72514 122.29774
#
# Poissons Ratio (x) = 0.32231 0.26009
# Poissons Ratio (y) = 0.12681 0.44074
# Poissons Ratio (z) = 0.07006 0.30173
#
# Static dielectric constant tensor:
#      x y z
#    x 1.605260 0.000000 0.000000 
#    y 0.000000 1.574560 0.000000 
#    z 0.000000 0.000000 1.604480 
# 
# From -- ./inp_files/31256.got.cif
#   From: 2010.05.17/outbox.cif.g08.bks.cpg/sg66_16_cif.got.tgz:31256.got - 2010.06.03 17:51:23.
