data_PCOD9495153
_publ_section_title
;
Structure prediction by ZEFSAII (Michael W. Deem and Ramdas Pophale) SiO2 
 PCOD9495153
Probable space group: C C C M
;
_chemical_formula_sum "Si O2"
_cell_formula_units_Z 80
_cell_length_a 11.647903
_cell_length_b 15.583278
_cell_length_c 25.811940
_cell_angle_alpha 90.000000
_cell_angle_beta 90.000000
_cell_angle_gamma 90.000000
_cell_volume 4685.190032
_symmetry_space_group_name_H-M "C C C M"
_symmetry_group_IT_number 66
_symmetry_cell_setting 'orthorhombic'
loop_
_space_group_symop_operation_xyz
x,y,z
-x,-y,z
x,-y,1/2-z
-x,y,1/2-z
-x,-y,-z
x,y,-z
-x,y,1/2+z
x,-y,1/2+z
1/2+x,1/2+y,z
1/2-x,1/2-y,z
1/2+x,1/2-y,1/2-z
1/2-x,1/2+y,1/2-z
1/2-x,1/2-y,-z
1/2+x,1/2+y,-z
1/2-x,1/2+y,1/2+z
1/2+x,1/2-y,1/2+z
loop_
_atom_site_type_symbol
_atom_site_label
_atom_site_fract_x
_atom_site_fract_y
_atom_site_fract_z
Si Si1 0.713559 0.874652 0.388054
Si Si2 0.867207 0.529268 0.058027
Si Si3 0.415270 0.723094 0.061218
Si Si4 0.130681 0.706863 0.608363
Si Si5 0.978800 0.397257 0.810359
O O1 0.633503 0.819341 0.427783
O O2 0.836973 0.834602 0.400542
O O3 0.646977 0.871061 0.333140
O O4 0.708749 0.973277 0.403697
O O5 0.853347 0.629241 0.067976
O O6 0.000000 0.500000 0.065159
O O7 0.834264 0.506805 0.000000
O O8 0.544718 0.725829 0.081355
O O9 0.403743 0.703113 0.000000
O O10 0.250000 0.750000 0.622662
O O11 0.066916 0.659430 0.655952
O O12 0.000000 0.500000 0.818531
O O13 0.000000 0.380881 0.750000
#
# Coordination Sequence:
#
# PCOD9495153 Si02
#       5
#    16  16  16  16  16
#     4  10  17  32  53  79 108 134 183 230 266 314
#     4  11  18  30  54  78 104 141 184 220 264 322
#     4  10  19  31  52  82 113 145 177 221 274 321
#     4  11  22  37  51  78 116 146 179 227 276 329
#     4  10  19  37  62  82  99 134 188 236 276 318
#
# _framework density 17.075081999999998
#
# number of rings (size 3 to 8) (size 9 to 14) (size 15 to 20)
#    0.000    1.600    6.000    3.000    0.000    1.600 
#    7.200    1.000    0.000    2.400    0.000    2.800 
#    0.000    0.000    0.000    0.000    0.000    0.000 
#
# Total GULP energy -222753.461170 kJ/mol
# GULP energy per Si atom -5568.836529 kJ/mol
# Density = 1.703622 g / cm^3
# Si number density = 17.075082 Si / 1000 Ang^3
#
#
#
# Elastic Constant Matrix: (Units=GPa)
#
#
# Indices 1 2 3 4 5 6 
#
# 1 97.7014 42.5375 35.5655 0.0000 0.0000 0.0000
# 2 42.5375 52.3364 18.1997 0.0000 0.0000 0.0000
# 3 35.5655 18.1997 119.0968 0.0000 0.0000 0.0000
# 4 0.0000 0.0000 0.0000 14.5249 0.0000 0.0000
# 5 0.0000 0.0000 0.0000 0.0000 11.9831 0.0000
# 6 0.0000 0.0000 0.0000 0.0000 0.0000 24.3358
#
#
#
# Elastic Compliance Matrix: (Units=1/GPa)
#
#
# Indices 1 2 3 4 5 6 
#
# 1 0.016863 -0.012626 -0.003106 0.000000 0.000000 0.000000
# 2 -0.012626 0.029632 -0.000758 0.000000 0.000000 0.000000
# 3 -0.003106 -0.000758 0.009440 0.000000 0.000000 0.000000
# 4 0.000000 0.000000 0.000000 0.068847 0.000000 0.000000
# 5 0.000000 0.000000 0.000000 0.000000 0.083451 0.000000
# 6 0.000000 0.000000 0.000000 0.000000 0.000000 0.041092
#
#
# Mechanical properties :
#
#
# Convention : Reuss Voigt Hill
#
# Bulk Modulus (GPa) = 43.56212 51.30444 47.43328
# Shear Modulus (GPa) = 17.24392 21.69086 19.46739
#
# Velocity S-wave (km/s) = 3.18132 3.56803 3.38021
# Velocity P-wave (km/s) = 6.24995 6.86192 6.56307
#
# Compressibility (1/GPa) = 0.02295572
#
# Stress axis : x y z
#
# Youngs Moduli (GPa) = 59.30146 33.74685 105.93210
#
# Poissons Ratio (x) = 0.42607 0.32907
# Poissons Ratio (y) = 0.74871 0.08029
# Poissons Ratio (z) = 0.18421 0.02558
#
# Static dielectric constant tensor:
#      x y z
#    x 1.616750 0.000000 0.000000 
#    y 0.000000 1.599360 0.000000 
#    z 0.000000 0.000000 1.591220 
# 
# From -- ./inp_files/63518.got.cif
#   From: 2010.05.17/outbox.cif.g08.bks.cpg/sg66_32_cif.got.tgz:63518.got - 2010.06.03 17:51:23.
