data_PCOD9495087
_publ_section_title
;
Structure prediction by ZEFSAII (Michael W. Deem and Ramdas Pophale) SiO2 
 PCOD9495087
Probable space group: C C C M
;
_chemical_formula_sum "Si O2"
_cell_formula_units_Z 80
_cell_length_a 20.444685
_cell_length_b 16.846885
_cell_length_c 13.425766
_cell_angle_alpha 90.000000
_cell_angle_beta 90.000000
_cell_angle_gamma 90.000000
_cell_volume 4624.226609
_symmetry_space_group_name_H-M "C C C M"
_symmetry_group_IT_number 66
_symmetry_cell_setting 'orthorhombic'
loop_
_space_group_symop_operation_xyz
x,y,z
-x,-y,z
x,-y,1/2-z
-x,y,1/2-z
-x,-y,-z
x,y,-z
-x,y,1/2+z
x,-y,1/2+z
1/2+x,1/2+y,z
1/2-x,1/2-y,z
1/2+x,1/2-y,1/2-z
1/2-x,1/2+y,1/2-z
1/2-x,1/2-y,-z
1/2+x,1/2+y,-z
1/2-x,1/2+y,1/2+z
1/2+x,1/2-y,1/2+z
loop_
_atom_site_type_symbol
_atom_site_label
_atom_site_fract_x
_atom_site_fract_y
_atom_site_fract_z
Si Si1 0.752740 0.051505 0.116129
Si Si2 0.595771 0.547748 0.620629
Si Si3 0.225319 0.375040 0.812125
Si Si4 0.151296 0.771814 0.619262
Si Si5 0.965281 0.877628 0.121185
O O1 0.829139 0.059163 0.147465
O O2 0.716353 0.106737 0.195305
O O3 0.731789 0.960232 0.134293
O O4 0.745520 0.071500 0.000000
O O5 0.595227 0.548943 0.500000
O O6 0.571850 0.459520 0.648458
O O7 0.540434 0.610467 0.653958
O O8 0.168616 0.317856 0.851903
O O9 0.292594 0.327499 0.833336
O O10 0.157871 0.780364 0.500000
O O11 0.080168 0.804062 0.649601
O O12 0.967296 0.876497 0.000000
#
# Coordination Sequence:
#
# PCOD9495087 Si02
#       5
#    16  16  16  16  16
#     4  10  18  30  43  61  94 126 157 203 248 293
#     4   8  13  23  40  62  87 119 155 192 239 291
#     4  10  19  27  43  65  86 121 171 202 240 293
#     4  10  17  29  45  62  86 119 164 216 251 276
#     4   8  13  22  41  63  85 118 160 201 241 282
#
# _framework density 17.300190000000001
#
# number of rings (size 3 to 8) (size 9 to 14) (size 15 to 20)
#    0.000    2.800    2.000    3.600    0.000    0.000 
#    0.000    3.000    0.000    0.000    0.000    0.000 
#    0.000    9.600    0.000   57.600    0.000  528.000 
#
# Total GULP energy -223071.383771 kJ/mol
# GULP energy per Si atom -5576.784594 kJ/mol
# Density = 1.726081 g / cm^3
# Si number density = 17.300190 Si / 1000 Ang^3
#
#
#
# Elastic Constant Matrix: (Units=GPa)
#
#
# Indices 1 2 3 4 5 6 
#
# 1 62.2124 44.3400 14.5171 0.0000 0.0000 0.0000
# 2 44.3400 78.6044 30.6457 0.0000 0.0000 0.0000
# 3 14.5171 30.6457 97.0412 0.0000 0.0000 0.0000
# 4 0.0000 0.0000 0.0000 25.2217 0.0000 0.0000
# 5 0.0000 0.0000 0.0000 0.0000 14.9231 0.0000
# 6 0.0000 0.0000 0.0000 0.0000 0.0000 36.0401
#
#
#
# Elastic Compliance Matrix: (Units=1/GPa)
#
#
# Indices 1 2 3 4 5 6 
#
# 1 0.026947 -0.015542 0.000877 0.000000 0.000000 0.000000
# 2 -0.015542 0.023473 -0.005088 0.000000 0.000000 0.000000
# 3 0.000877 -0.005088 0.011780 0.000000 0.000000 0.000000
# 4 0.000000 0.000000 0.000000 0.039648 0.000000 0.000000
# 5 0.000000 0.000000 0.000000 0.000000 0.067010 0.000000
# 6 0.000000 0.000000 0.000000 0.000000 0.000000 0.027747
#
#
# Mechanical properties :
#
#
# Convention : Reuss Voigt Hill
#
# Bulk Modulus (GPa) = 44.06432 46.31820 45.19126
# Shear Modulus (GPa) = 20.51908 25.12730 22.82319
#
# Velocity S-wave (km/s) = 3.44766 3.81521 3.63608
# Velocity P-wave (km/s) = 6.43228 6.79994 6.61866
#
# Compressibility (1/GPa) = 0.02269410
#
# Stress axis : x y z
#
# Youngs Moduli (GPa) = 37.11043 42.60259 84.88699
#
# Poissons Ratio (x) = 0.66214 -0.07446
# Poissons Ratio (y) = 0.57678 0.43187
# Poissons Ratio (z) = -0.03255 0.21675
#
# Static dielectric constant tensor:
#      x y z
#    x 1.596090 0.000000 0.000000 
#    y 0.000000 1.563650 0.000000 
#    z 0.000000 0.000000 1.661570 
# 
# From -- ./inp_files/28105.got.cif
#   From: 2010.05.17/outbox.cif.g08.bks.cpg/sg66_15_cif.got.tgz:28105.got - 2010.06.03 17:51:23.
