data_PCOD9495880
_publ_section_title
;
Structure prediction by ZEFSAII (Michael W. Deem and Ramdas Pophale) SiO2 
 PCOD9495880
Probable space group: C C C M
;
_chemical_formula_sum "Si O2"
_cell_formula_units_Z 96
_cell_length_a 21.211857
_cell_length_b 27.309424
_cell_length_c 8.458985
_cell_angle_alpha 90.000000
_cell_angle_beta 90.000000
_cell_angle_gamma 90.000000
_cell_volume 4900.151255
_symmetry_space_group_name_H-M "C C C M"
_symmetry_group_IT_number 66
_symmetry_cell_setting 'orthorhombic'
loop_
_space_group_symop_operation_xyz
x,y,z
-x,-y,z
x,-y,1/2-z
-x,y,1/2-z
-x,-y,-z
x,y,-z
-x,y,1/2+z
x,-y,1/2+z
1/2+x,1/2+y,z
1/2-x,1/2-y,z
1/2+x,1/2-y,1/2-z
1/2-x,1/2+y,1/2-z
1/2-x,1/2-y,-z
1/2+x,1/2+y,-z
1/2-x,1/2+y,1/2+z
1/2+x,1/2-y,1/2+z
loop_
_atom_site_type_symbol
_atom_site_label
_atom_site_fract_x
_atom_site_fract_y
_atom_site_fract_z
Si Si1 0.565732 0.892919 0.815141
Si Si2 0.732110 0.194111 0.171838
Si Si3 0.195163 0.444797 0.192286
Si Si4 0.931018 0.178658 0.690759
Si Si5 0.310629 0.382150 0.819893
Si Si6 0.085017 0.289425 0.679587
O O1 0.500000 0.914516 0.750000
O O2 0.632544 0.914748 0.752764
O O3 0.561858 0.834665 0.783715
O O4 0.566386 0.901976 0.000000
O O5 0.750000 0.250000 0.184583
O O6 0.763237 0.163931 0.310484
O O7 0.657924 0.196250 0.170636
O O8 0.755042 0.174912 0.000000
O O9 0.188480 0.500000 0.250000
O O10 0.263028 0.423111 0.249890
O O11 0.196724 0.442267 0.000000
O O12 0.928985 0.180295 0.500000
O O13 0.875761 0.141079 0.746316
O O14 0.921361 0.234472 0.753317
O O15 0.000000 0.163010 0.750000
O O16 0.324815 0.396625 0.000000
O O17 0.058963 0.290004 0.500000
#
# Coordination Sequence:
#
# PCOD9495880 Si02
#       6
#    16  16  16  16  16  16
#     4  11  23  39  58  82 116 154 193 234 277 329
#     4  10  19  31  51  82 114 146 186 231 272 322
#     4  10  23  42  63  86 110 139 183 237 290 343
#     4  11  23  37  56  82 117 156 191 231 277 332
#     4  10  21  38  59  82 110 146 188 233 282 337
#     4  11  21  34  54  82 118 156 195 231 269 322
#
# _framework density 19.591232999999999
#
# number of rings (size 3 to 8) (size 9 to 14) (size 15 to 20)
#    0.000    1.500    3.333    2.000    0.000    4.000 
#    0.000    1.667    0.000    0.500    0.000    3.500 
#    0.000    0.000    0.000    0.000    0.000    0.000 
#
# Total GULP energy -267306.873324 kJ/mol
# GULP energy per Si atom -5568.893194 kJ/mol
# Density = 1.954664 g / cm^3
# Si number density = 19.591233 Si / 1000 Ang^3
#
#
#
# Elastic Constant Matrix: (Units=GPa)
#
#
# Indices 1 2 3 4 5 6 
#
# 1 143.0355 59.0631 11.6399 0.0000 0.0000 0.0000
# 2 59.0631 87.1194 8.8663 0.0000 0.0000 0.0000
# 3 11.6399 8.8663 31.6206 0.0000 0.0000 0.0000
# 4 0.0000 0.0000 0.0000 25.7383 0.0000 0.0000
# 5 0.0000 0.0000 0.0000 0.0000 58.6696 0.0000
# 6 0.0000 0.0000 0.0000 0.0000 0.0000 7.0982
#
#
#
# Elastic Compliance Matrix: (Units=1/GPa)
#
#
# Indices 1 2 3 4 5 6 
#
# 1 0.009808 -0.006466 -0.001797 0.000000 0.000000 0.000000
# 2 -0.006466 0.016079 -0.002128 0.000000 0.000000 0.000000
# 3 -0.001797 -0.002128 0.032883 0.000000 0.000000 0.000000
# 4 0.000000 0.000000 0.000000 0.038853 0.000000 0.000000
# 5 0.000000 0.000000 0.000000 0.000000 0.017045 0.000000
# 6 0.000000 0.000000 0.000000 0.000000 0.000000 0.140880
#
#
# Mechanical properties :
#
#
# Convention : Reuss Voigt Hill
#
# Bulk Modulus (GPa) = 26.32505 46.76823 36.54664
# Shear Modulus (GPa) = 17.30147 30.44829 23.87488
#
# Velocity S-wave (km/s) = 2.97496 3.94658 3.49471
# Velocity P-wave (km/s) = 5.02662 6.68515 5.91431
#
# Compressibility (1/GPa) = 0.03798663
#
# Stress axis : x y z
#
# Youngs Moduli (GPa) = 101.96179 62.19332 30.41058
#
# Poissons Ratio (x) = 0.40216 0.05465
# Poissons Ratio (y) = 0.65931 0.06472
# Poissons Ratio (z) = 0.18325 0.13236
#
# Static dielectric constant tensor:
#      x y z
#    x 1.757830 0.000000 0.000000 
#    y 0.000000 1.644520 0.000000 
#    z 0.000000 0.000000 1.759840 
# 
# From -- ./inp_files/8015.got.cif
#   From: 2010.05.17/outbox.cif.g08.bks.cpg/sg66_5_cif.got.tgz:8015.got - 2010.06.03 17:51:23.
