data_PCOD9495685
_publ_section_title
;
Structure prediction by ZEFSAII (Michael W. Deem and Ramdas Pophale) SiO2 
 PCOD9495685
Probable space group: C C C M
;
_chemical_formula_sum "Si O2"
_cell_formula_units_Z 68
_cell_length_a 8.619730
_cell_length_b 30.083853
_cell_length_c 14.074654
_cell_angle_alpha 90.000000
_cell_angle_beta 90.000000
_cell_angle_gamma 90.000000
_cell_volume 3649.764542
_symmetry_space_group_name_H-M "C C C M"
_symmetry_group_IT_number 66
_symmetry_cell_setting 'orthorhombic'
loop_
_space_group_symop_operation_xyz
x,y,z
-x,-y,z
x,-y,1/2-z
-x,y,1/2-z
-x,-y,-z
x,y,-z
-x,y,1/2+z
x,-y,1/2+z
1/2+x,1/2+y,z
1/2-x,1/2-y,z
1/2+x,1/2-y,1/2-z
1/2-x,1/2+y,1/2-z
1/2-x,1/2-y,-z
1/2+x,1/2+y,-z
1/2-x,1/2+y,1/2+z
1/2+x,1/2-y,1/2+z
loop_
_atom_site_type_symbol
_atom_site_label
_atom_site_fract_x
_atom_site_fract_y
_atom_site_fract_z
Si Si1 0.866767 0.633736 0.688798
Si Si2 0.376470 0.663245 0.671759
Si Si3 0.871374 0.686401 0.500000
Si Si4 0.924952 0.079103 0.887095
Si Si5 0.000000 0.000000 0.250000
Si Si6 0.991428 0.786234 0.500000
O O1 0.783871 0.662579 0.771696
O O2 0.919397 0.661578 0.596914
O O3 0.731564 0.603644 0.645191
O O4 0.000000 0.609797 0.750000
O O5 0.500000 0.677019 0.750000
O O6 0.433488 0.613489 0.638536
O O7 0.406425 0.696873 0.587459
O O8 0.946901 0.734918 0.500000
O O9 0.680629 0.689956 0.500000
O O10 0.925073 0.034738 0.824258
O O11 0.927670 0.071228 0.000000
#
# Coordination Sequence:
#
# PCOD9495685 Si02
#       6
#    16  16   8  16   4   8
#     4  11  22  40  62  87 127 172 197 245 317 371
#     4  10  18  37  62  85 116 163 204 246 298 363
#     4  11  22  39  59  91 125 162 207 263 309 353
#     4  11  20  40  64  90 121 153 201 256 304 360
#     4  12  22  36  70 102 108 144 216 256 296 374
#     4  11  20  37  65  89 118 161 219 262 300 352
#
# _framework density 18.631338
#
# number of rings (size 3 to 8) (size 9 to 14) (size 15 to 20)
#    0.000    1.176   10.588    0.353    0.000    1.882 
#    0.000    1.765    0.000    1.412    0.000    0.000 
#    0.000    0.000    0.000    0.000    0.000    0.000 
#
# Total GULP energy -189281.403243 kJ/mol
# GULP energy per Si atom -5567.100095 kJ/mol
# Density = 1.858893 g / cm^3
# Si number density = 18.631338 Si / 1000 Ang^3
#
#
#
# Elastic Constant Matrix: (Units=GPa)
#
#
# Indices 1 2 3 4 5 6 
#
# 1 16.7047 4.2476 32.9292 0.0000 0.0000 0.0000
# 2 4.2476 92.8922 56.1668 0.0000 0.0000 0.0000
# 3 32.9292 56.1668 192.7958 0.0000 0.0000 0.0000
# 4 0.0000 0.0000 0.0000 39.0669 0.0000 0.0000
# 5 0.0000 0.0000 0.0000 0.0000 22.7001 0.0000
# 6 0.0000 0.0000 0.0000 0.0000 0.0000 10.4299
#
#
#
# Elastic Compliance Matrix: (Units=1/GPa)
#
#
# Indices 1 2 3 4 5 6 
#
# 1 0.093397 0.006524 -0.017853 0.000000 0.000000 0.000000
# 2 0.006524 0.013523 -0.005054 0.000000 0.000000 0.000000
# 3 -0.017853 -0.005054 0.009708 0.000000 0.000000 0.000000
# 4 0.000000 0.000000 0.000000 0.025597 0.000000 0.000000
# 5 0.000000 0.000000 0.000000 0.000000 0.044053 0.000000
# 6 0.000000 0.000000 0.000000 0.000000 0.000000 0.095878
#
#
# Mechanical properties :
#
#
# Convention : Reuss Voigt Hill
#
# Bulk Modulus (GPa) = 11.92429 54.34221 33.13325
# Shear Modulus (GPa) = 14.58258 28.37598 21.47928
#
# Velocity S-wave (km/s) = 2.80070 3.90683 3.39906
# Velocity P-wave (km/s) = 4.10762 7.04141 5.76429
#
# Compressibility (1/GPa) = 0.08386242
#
# Stress axis : x y z
#
# Youngs Moduli (GPa) = 10.70703 73.95030 103.00438
#
# Poissons Ratio (x) = -0.48244 1.83889
# Poissons Ratio (y) = -0.06985 0.52056
# Poissons Ratio (z) = 0.19115 0.37373
#
# Static dielectric constant tensor:
#      x y z
#    x 1.715020 0.000000 0.000000 
#    y 0.000000 1.655300 0.000000 
#    z 0.000000 0.000000 1.496550 
# 
# From -- ./inp_files/24402.got.cif
#   From: 2010.05.17/outbox.cif.g08.bks.cpg/sg66_13_cif.got.tgz:24402.got - 2010.06.03 17:51:23.
