data_PCOD9495505
_publ_section_title
;
Structure prediction by ZEFSAII (Michael W. Deem and Ramdas Pophale) SiO2 
 PCOD9495505
Probable space group: C C C M
;
_chemical_formula_sum "Si O2"
_cell_formula_units_Z 80
_cell_length_a 8.708923
_cell_length_b 27.677036
_cell_length_c 15.102278
_cell_angle_alpha 90.000000
_cell_angle_beta 90.000000
_cell_angle_gamma 90.000000
_cell_volume 3640.210431
_symmetry_space_group_name_H-M "C C C M"
_symmetry_group_IT_number 66
_symmetry_cell_setting 'orthorhombic'
loop_
_space_group_symop_operation_xyz
x,y,z
-x,-y,z
x,-y,1/2-z
-x,y,1/2-z
-x,-y,-z
x,y,-z
-x,y,1/2+z
x,-y,1/2+z
1/2+x,1/2+y,z
1/2-x,1/2-y,z
1/2+x,1/2-y,1/2-z
1/2-x,1/2+y,1/2-z
1/2-x,1/2-y,-z
1/2+x,1/2+y,-z
1/2-x,1/2+y,1/2+z
1/2+x,1/2-y,1/2+z
loop_
_atom_site_type_symbol
_atom_site_label
_atom_site_fract_x
_atom_site_fract_y
_atom_site_fract_z
Si Si1 0.435039 0.252113 0.349928
Si Si2 0.063811 0.549697 0.650122
Si Si3 0.567845 0.642813 0.349409
Si Si4 0.595791 0.545812 0.102122
Si Si5 0.063141 0.647769 0.851010
O O1 0.500000 0.252821 0.250000
O O2 0.250000 0.250000 0.345275
O O3 0.477117 0.304506 0.389018
O O4 0.479648 0.200282 0.390664
O O5 0.246431 0.550161 0.654184
O O6 0.000000 0.500000 0.609261
O O7 0.000000 0.550401 0.750000
O O8 0.008046 0.599709 0.607171
O O9 0.500000 0.641842 0.250000
O O10 0.500022 0.595144 0.393604
O O11 0.752849 0.641572 0.349019
O O12 0.500000 0.500000 0.135000
O O13 0.637645 0.536008 0.000000
O O14 0.000000 0.649897 0.750000
#
# Coordination Sequence:
#
# PCOD9495505 Si02
#       5
#    16  16  16  16  16
#     4   8  15  26  46  78 112 144 178 225 281 330
#     4  10  20  36  58  85 111 141 186 235 277 323
#     4  10  18  32  57  84 110 145 191 237 276 325
#     4  11  25  42  58  80 114 153 187 226 284 345
#     4   9  16  29  50  82 117 143 179 231 285 332
#
# _framework density 21.976752000000001
#
# number of rings (size 3 to 8) (size 9 to 14) (size 15 to 20)
#    0.000    2.400    0.000    3.600    0.000    4.000 
#    0.000    1.000    0.000    7.800    0.000    0.000 
#    0.000    0.000    0.000    0.000    0.000    0.000 
#
# Total GULP energy -223127.931831 kJ/mol
# GULP energy per Si atom -5578.198296 kJ/mol
# Density = 2.192673 g / cm^3
# Si number density = 21.976752 Si / 1000 Ang^3
#
#
#
# Elastic Constant Matrix: (Units=GPa)
#
#
# Indices 1 2 3 4 5 6 
#
# 1 115.8377 74.4770 15.0639 0.0000 0.0000 0.0000
# 2 74.4770 265.7654 9.0302 0.0000 0.0000 0.0000
# 3 15.0639 9.0302 56.1113 0.0000 0.0000 0.0000
# 4 0.0000 0.0000 0.0000 -16.8609 0.0000 0.0000
# 5 0.0000 0.0000 0.0000 0.0000 -21.1708 0.0000
# 6 0.0000 0.0000 0.0000 0.0000 0.0000 36.3604
#
#
#
# Elastic Compliance Matrix: (Units=1/GPa)
#
#
# Indices 1 2 3 4 5 6 
#
# 1 0.010852 -0.002958 -0.002437 0.000000 0.000000 0.000000
# 2 -0.002958 0.004590 0.000056 0.000000 0.000000 0.000000
# 3 -0.002437 0.000056 0.018467 0.000000 0.000000 0.000000
# 4 0.000000 0.000000 0.000000 -0.059309 0.000000 0.000000
# 5 0.000000 0.000000 0.000000 0.000000 -0.047235 0.000000
# 6 0.000000 0.000000 0.000000 0.000000 0.000000 0.027502
#
#
# Mechanical properties :
#
#
# Convention : Reuss Voigt Hill
#
# Bulk Modulus (GPa) = 43.05005 70.53964 56.79485
# Shear Modulus (GPa) = -187.19855 22.27528 -82.46164
#
# Velocity S-wave (km/s) = -9.23933 3.18714 -6.13218
# Velocity P-wave (km/s) = 9.70509 6.76098 4.92331
#
# Compressibility (1/GPa) = 0.02322878
#
# Stress axis : x y z
#
# Youngs Moduli (GPa) = 92.15166 217.87302 54.15032
#
# Poissons Ratio (x) = 0.64452 0.13198
# Poissons Ratio (y) = 0.27260 -0.00301
# Poissons Ratio (z) = 0.22459 -0.01210
#
# Static dielectric constant tensor:
#      x y z
#    x 1.749520 0.000000 0.000000 
#    y 0.000000 1.915810 0.000000 
#    z 0.000000 0.000000 1.775570 
# 
# From -- ./inp_files/37133.got.cif
#   From: 2010.05.17/outbox.cif.g08.bks.cpg/sg66_19_cif.got.tgz:37133.got - 2010.06.03 17:51:23.
