data_PCOD9495466
_publ_section_title
;
Structure prediction by ZEFSAII (Michael W. Deem and Ramdas Pophale) SiO2 
 PCOD9495466
Probable space group: C C C M
;
_chemical_formula_sum "Si O2"
_cell_formula_units_Z 112
_cell_length_a 16.183701
_cell_length_b 14.498551
_cell_length_c 28.787519
_cell_angle_alpha 90.000000
_cell_angle_beta 90.000000
_cell_angle_gamma 90.000000
_cell_volume 6754.709628
_symmetry_space_group_name_H-M "C C C M"
_symmetry_group_IT_number 66
_symmetry_cell_setting 'orthorhombic'
loop_
_space_group_symop_operation_xyz
x,y,z
-x,-y,z
x,-y,1/2-z
-x,y,1/2-z
-x,-y,-z
x,y,-z
-x,y,1/2+z
x,-y,1/2+z
1/2+x,1/2+y,z
1/2-x,1/2-y,z
1/2+x,1/2-y,1/2-z
1/2-x,1/2+y,1/2-z
1/2-x,1/2-y,-z
1/2+x,1/2+y,-z
1/2-x,1/2+y,1/2+z
1/2+x,1/2-y,1/2+z
loop_
_atom_site_type_symbol
_atom_site_label
_atom_site_fract_x
_atom_site_fract_y
_atom_site_fract_z
Si Si1 0.820636 0.465139 0.118781
Si Si2 0.187125 0.428260 0.785976
Si Si3 0.816488 0.830124 0.638028
Si Si4 0.864388 0.102678 0.240457
Si Si5 0.545950 0.197669 0.882568
Si Si6 0.931952 0.417925 0.552960
Si Si7 0.944274 0.724933 0.210074
O O1 0.801644 0.517513 0.166373
O O2 0.737938 0.405113 0.110064
O O3 0.895441 0.391765 0.126243
O O4 0.855136 0.538295 0.081356
O O5 0.145910 0.500000 0.750000
O O6 0.272356 0.399235 0.761985
O O7 0.134264 0.339038 0.796223
O O8 0.750000 0.750000 0.651613
O O9 0.854004 0.871020 0.686071
O O10 0.888929 0.780326 0.608875
O O11 0.915693 0.178011 0.268765
O O12 0.897428 0.000000 0.250000
O O13 0.479007 0.165287 0.920630
O O14 0.496401 0.226323 0.836674
O O15 0.910147 0.394426 0.500000
O O16 0.000000 0.500000 0.551525
O O17 0.000000 0.679911 0.250000
#
# Coordination Sequence:
#
# PCOD9495466 Si02
#       7
#    16  16  16  16  16  16  16
#     4  10  18  32  53  75 103 137 173 218 275 325
#     4  11  20  31  49  72 101 138 177 215 264 318
#     4  10  18  33  49  70 106 144 174 213 263 328
#     4  11  22  34  46  66 104 150 184 214 253 310
#     4  10  20  32  50  76 106 135 174 221 270 323
#     4   9  18  34  55  79 107 136 173 229 288 333
#     4  12  22  31  46  72 105 139 177 219 260 315
#
# _framework density 16.581022999999998
#
# number of rings (size 3 to 8) (size 9 to 14) (size 15 to 20)
#    0.000    1.571    5.714    2.143    0.000    1.714 
#    0.000    0.714    0.000    4.286    0.000    2.000 
#    0.000    1.143    0.000    0.000    0.000    0.000 
#
# Total GULP energy -312003.016708 kJ/mol
# GULP energy per Si atom -5571.482441 kJ/mol
# Density = 1.654328 g / cm^3
# Si number density = 16.581023 Si / 1000 Ang^3
#
#
#
# Elastic Constant Matrix: (Units=GPa)
#
#
# Indices 1 2 3 4 5 6 
#
# 1 73.7101 47.3840 34.4355 0.0000 0.0000 0.0000
# 2 47.3840 75.2302 24.6503 0.0000 0.0000 0.0000
# 3 34.4355 24.6503 81.3994 0.0000 0.0000 0.0000
# 4 0.0000 0.0000 0.0000 -8.5568 0.0000 0.0000
# 5 0.0000 0.0000 0.0000 0.0000 6.8396 0.0000
# 6 0.0000 0.0000 0.0000 0.0000 0.0000 -79.5420
#
#
#
# Elastic Compliance Matrix: (Units=1/GPa)
#
#
# Indices 1 2 3 4 5 6 
#
# 1 0.025649 -0.013987 -0.006615 0.000000 0.000000 0.000000
# 2 -0.013987 0.022385 -0.000862 0.000000 0.000000 0.000000
# 3 -0.006615 -0.000862 0.015344 0.000000 0.000000 0.000000
# 4 0.000000 0.000000 0.000000 -0.116866 0.000000 0.000000
# 5 0.000000 0.000000 0.000000 0.000000 0.146208 0.000000
# 6 0.000000 0.000000 0.000000 0.000000 0.000000 -0.012572
#
#
# Mechanical properties :
#
#
# Convention : Reuss Voigt Hill
#
# Bulk Modulus (GPa) = 48.89859 49.25325 49.07592
# Shear Modulus (GPa) = 38.49370 -7.99385 15.24993
#
# Velocity S-wave (km/s) = 4.82348 -2.19808 3.03598
# Velocity P-wave (km/s) = 7.78305 4.82980 6.47700
#
# Compressibility (1/GPa) = 0.02045049
#
# Stress axis : x y z
#
# Youngs Moduli (GPa) = 38.98847 44.67299 65.17084
#
# Poissons Ratio (x) = 0.62486 0.43108
# Poissons Ratio (y) = 0.54535 0.05615
# Poissons Ratio (z) = 0.25790 0.03849
#
# Static dielectric constant tensor:
#      x y z
#    x 1.602270 0.000000 0.000000 
#    y 0.000000 1.593250 0.000000 
#    z 0.000000 0.000000 1.460830 
# 
# From -- ./inp_files/64654.got.cif
#   From: 2010.05.17/outbox.cif.g08.bks.cpg/sg66_33_cif.got.tgz:64654.got - 2010.06.03 17:51:23.
