data_PCOD9495902
_publ_section_title
;
Structure prediction by ZEFSAII (Michael W. Deem and Ramdas Pophale) SiO2 
 PCOD9495902
Probable space group: C C C M
;
_chemical_formula_sum "Si O2"
_cell_formula_units_Z 68
_cell_length_a 10.334005
_cell_length_b 14.397353
_cell_length_c 19.696389
_cell_angle_alpha 90.000000
_cell_angle_beta 90.000000
_cell_angle_gamma 90.000000
_cell_volume 2930.474409
_symmetry_space_group_name_H-M "C C C M"
_symmetry_group_IT_number 66
_symmetry_cell_setting 'orthorhombic'
loop_
_space_group_symop_operation_xyz
x,y,z
-x,-y,z
x,-y,1/2-z
-x,y,1/2-z
-x,-y,-z
x,y,-z
-x,y,1/2+z
x,-y,1/2+z
1/2+x,1/2+y,z
1/2-x,1/2-y,z
1/2+x,1/2-y,1/2-z
1/2-x,1/2+y,1/2-z
1/2-x,1/2-y,-z
1/2+x,1/2+y,-z
1/2-x,1/2+y,1/2+z
1/2+x,1/2-y,1/2+z
loop_
_atom_site_type_symbol
_atom_site_label
_atom_site_fract_x
_atom_site_fract_y
_atom_site_fract_z
Si Si1 0.506075 0.148463 0.830070
Si Si2 0.740061 0.862711 0.078436
Si Si3 0.518047 0.630888 0.637060
Si Si4 0.000000 0.000000 0.250000
Si Si5 0.770053 0.361280 0.072858
O O1 0.500000 0.128418 0.750000
O O2 0.381394 0.116073 0.873119
O O3 0.513571 0.260958 0.841018
O O4 0.634930 0.111199 0.866801
O O5 0.750000 0.750000 0.075614
O O6 0.874385 0.893867 0.112628
O O7 0.726141 0.894193 0.000000
O O8 0.569323 0.571259 0.700284
O O9 0.622520 0.608447 0.579899
O O10 0.750000 0.250000 0.075450
O O11 0.828378 0.385126 0.000000
#
# Coordination Sequence:
#
# PCOD9495902 Si02
#       5
#    16  16  16   4  16
#     4  10  19  31  56  89 114 136 171 229 292 334
#     4   9  18  33  55  82 111 140 176 228 285 332
#     4  10  21  34  55  77 116 148 189 218 267 323
#     4  12  24  36  50  82 116 160 186 228 244 320
#     4   9  18  33  55  82 111 140 176 228 285 332
#
# _framework density 23.204435
#
# number of rings (size 3 to 8) (size 9 to 14) (size 15 to 20)
#    0.000    2.353    1.176    1.412    3.294    8.471 
#    0.000    2.353    0.000    2.824    0.000    3.294 
#    0.000    0.000    0.000    0.000    0.000    0.000 
#
# Total GULP energy -189713.660106 kJ/mol
# GULP energy per Si atom -5579.813533 kJ/mol
# Density = 2.315162 g / cm^3
# Si number density = 23.204435 Si / 1000 Ang^3
#
#
#
# Elastic Constant Matrix: (Units=GPa)
#
#
# Indices 1 2 3 4 5 6 
#
# 1 177.3858 4.5965 89.9193 0.0000 0.0000 0.0000
# 2 4.5965 83.5100 -1.5451 0.0000 0.0000 0.0000
# 3 89.9193 -1.5451 205.4481 0.0000 0.0000 0.0000
# 4 0.0000 0.0000 0.0000 -4.7104 0.0000 0.0000
# 5 0.0000 0.0000 0.0000 0.0000 25.7087 0.0000
# 6 0.0000 0.0000 0.0000 0.0000 0.0000 -16.7168
#
#
#
# Elastic Compliance Matrix: (Units=1/GPa)
#
#
# Indices 1 2 3 4 5 6 
#
# 1 0.007262 -0.000459 -0.003182 0.000000 0.000000 0.000000
# 2 -0.000459 0.012005 0.000291 0.000000 0.000000 0.000000
# 3 -0.003182 0.000291 0.006262 0.000000 0.000000 0.000000
# 4 0.000000 0.000000 0.000000 -0.212298 0.000000 0.000000
# 5 0.000000 0.000000 0.000000 0.000000 0.038897 0.000000
# 6 0.000000 0.000000 0.000000 0.000000 0.000000 -0.059820
#
#
# Mechanical properties :
#
#
# Convention : Reuss Voigt Hill
#
# Bulk Modulus (GPa) = 53.10486 72.47616 62.79051
# Shear Modulus (GPa) = -25.67857 25.74784 0.03463
#
# Velocity S-wave (km/s) = -3.33020 3.33469 0.12230
# Velocity P-wave (km/s) = 2.85453 6.79179 5.20945
#
# Compressibility (1/GPa) = 0.01883067
#
# Stress axis : x y z
#
# Youngs Moduli (GPa) = 137.69745 83.29697 159.68670
#
# Poissons Ratio (x) = 0.03820 0.50812
# Poissons Ratio (y) = 0.06315 -0.04647
# Poissons Ratio (z) = 0.43815 -0.02424
#
# Static dielectric constant tensor:
#      x y z
#    x 1.827110 0.000000 0.000000 
#    y 0.000000 1.927550 0.000000 
#    z 0.000000 0.000000 1.845870 
# 
# From -- ./inp_files/41320.got.cif
#   From: 2010.05.17/outbox.cif.g08.bks.cpg/sg66_21_cif.got.tgz:41320.got - 2010.06.03 17:51:23.
