data_PCOD9495509
_publ_section_title
;
Structure prediction by ZEFSAII (Michael W. Deem and Ramdas Pophale) SiO2 
 PCOD9495509
Probable space group: C C C M
;
_chemical_formula_sum "Si O2"
_cell_formula_units_Z 64
_cell_length_a 18.000655
_cell_length_b 10.342801
_cell_length_c 14.749418
_cell_angle_alpha 90.000000
_cell_angle_beta 90.000000
_cell_angle_gamma 90.000000
_cell_volume 2746.005235
_symmetry_space_group_name_H-M "C C C M"
_symmetry_group_IT_number 66
_symmetry_cell_setting 'orthorhombic'
loop_
_space_group_symop_operation_xyz
x,y,z
-x,-y,z
x,-y,1/2-z
-x,y,1/2-z
-x,-y,-z
x,y,-z
-x,y,1/2+z
x,-y,1/2+z
1/2+x,1/2+y,z
1/2-x,1/2-y,z
1/2+x,1/2-y,1/2-z
1/2-x,1/2+y,1/2-z
1/2-x,1/2-y,-z
1/2+x,1/2+y,-z
1/2-x,1/2+y,1/2+z
1/2+x,1/2-y,1/2+z
loop_
_atom_site_type_symbol
_atom_site_label
_atom_site_fract_x
_atom_site_fract_y
_atom_site_fract_z
Si Si1 0.262697 0.887439 0.602436
Si Si2 0.320501 0.157671 0.388888
Si Si3 0.471607 0.713687 0.101725
Si Si4 0.101090 0.049709 0.147965
O O1 0.291863 0.862928 0.500000
O O2 0.250000 0.750000 0.651000
O O3 0.178378 0.933997 0.599521
O O4 0.306640 0.009730 0.640520
O O5 0.321291 0.159552 0.500000
O O6 0.250000 0.250000 0.363773
O O7 0.402556 0.204472 0.359201
O O8 0.550288 0.679016 0.148353
O O9 0.437089 0.570448 0.099006
O O10 0.487875 0.761151 0.000000
O O11 0.111437 0.000000 0.250000
#
# Coordination Sequence:
#
# PCOD9495509 Si02
#       4
#    16  16  16  16
#     4  10  20  37  58  83 119 159 200 244 295 358
#     4   9  16  30  55  85 110 139 187 242 288 337
#     4  10  18  32  58  84 109 144 193 245 291 340
#     4  11  21  34  52  82 118 151 193 243 300 361
#
# _framework density 23.306584000000001
#
# number of rings (size 3 to 8) (size 9 to 14) (size 15 to 20)
#    0.000    2.000    2.500    4.500    0.000    0.000 
#    4.500    1.250    0.000    6.000    0.000    7.000 
#    0.000    0.000    0.000    0.000    0.000    0.000 
#
# Total GULP energy -178268.313398 kJ/mol
# GULP energy per Si atom -5570.884794 kJ/mol
# Density = 2.325354 g / cm^3
# Si number density = 23.306584 Si / 1000 Ang^3
#
#
#
# Elastic Constant Matrix: (Units=GPa)
#
#
# Indices 1 2 3 4 5 6 
#
# 1 79.8182 34.3252 1.9842 0.0000 0.0000 0.0000
# 2 34.3252 141.4292 1.3869 0.0000 0.0000 0.0000
# 3 1.9842 1.3869 95.2757 0.0000 0.0000 0.0000
# 4 0.0000 0.0000 0.0000 0.4454 0.0000 0.0000
# 5 0.0000 0.0000 0.0000 0.0000 -16.7534 0.0000
# 6 0.0000 0.0000 0.0000 0.0000 0.0000 46.8894
#
#
#
# Elastic Compliance Matrix: (Units=1/GPa)
#
#
# Indices 1 2 3 4 5 6 
#
# 1 0.013994 -0.003394 -0.000242 0.000000 0.000000 0.000000
# 2 -0.003394 0.007895 -0.000044 0.000000 0.000000 0.000000
# 3 -0.000242 -0.000044 0.010502 0.000000 0.000000 0.000000
# 4 0.000000 0.000000 0.000000 2.244932 0.000000 0.000000
# 5 0.000000 0.000000 0.000000 0.000000 -0.059689 0.000000
# 6 0.000000 0.000000 0.000000 0.000000 0.000000 0.021327
#
#
# Mechanical properties :
#
#
# Convention : Reuss Voigt Hill
#
# Bulk Modulus (GPa) = 39.95227 43.54618 41.74922
# Shear Modulus (GPa) = 2.21763 24.70475 13.46119
#
# Velocity S-wave (km/s) = 0.97651 3.25928 2.40588
# Velocity P-wave (km/s) = 4.29543 5.73485 5.06652
#
# Compressibility (1/GPa) = 0.02502987
#
# Stress axis : x y z
#
# Youngs Moduli (GPa) = 71.45890 126.66490 95.22416
#
# Poissons Ratio (x) = 0.42990 0.02305
# Poissons Ratio (y) = 0.24253 0.00421
# Poissons Ratio (z) = 0.01730 0.00560
#
# Static dielectric constant tensor:
#      x y z
#    x 1.776850 0.000000 0.000000 
#    y 0.000000 1.954320 0.000000 
#    z 0.000000 0.000000 1.991960 
# 
# From -- ./inp_files/41216.got.cif
#   From: 2010.05.17/outbox.cif.g08.bks.cpg/sg66_21_cif.got.tgz:41216.got - 2010.06.03 17:51:23.
