data_PCOD9495495
_publ_section_title
;
Structure prediction by ZEFSAII (Michael W. Deem and Ramdas Pophale) SiO2 
 PCOD9495495
Probable space group: C C C M
;
_chemical_formula_sum "Si O2"
_cell_formula_units_Z 80
_cell_length_a 15.842449
_cell_length_b 8.531503
_cell_length_c 30.164863
_cell_angle_alpha 90.000000
_cell_angle_beta 90.000000
_cell_angle_gamma 90.000000
_cell_volume 4077.079902
_symmetry_space_group_name_H-M "C C C M"
_symmetry_group_IT_number 66
_symmetry_cell_setting 'orthorhombic'
loop_
_space_group_symop_operation_xyz
x,y,z
-x,-y,z
x,-y,1/2-z
-x,y,1/2-z
-x,-y,-z
x,y,-z
-x,y,1/2+z
x,-y,1/2+z
1/2+x,1/2+y,z
1/2-x,1/2-y,z
1/2+x,1/2-y,1/2-z
1/2-x,1/2+y,1/2-z
1/2-x,1/2-y,-z
1/2+x,1/2+y,-z
1/2-x,1/2+y,1/2+z
1/2+x,1/2-y,1/2+z
loop_
_atom_site_type_symbol
_atom_site_label
_atom_site_fract_x
_atom_site_fract_y
_atom_site_fract_z
Si Si1 0.419065 0.385741 0.374633
Si Si2 0.152149 0.698711 0.206855
Si Si3 0.844332 0.675053 0.195625
Si Si4 0.344481 0.691975 0.396934
Si Si5 0.998991 0.312774 0.449082
O O1 0.500000 0.500000 0.369965
O O2 0.397489 0.294739 0.329995
O O3 0.345564 0.506265 0.388427
O O4 0.437808 0.266759 0.414373
O O5 0.250000 0.750000 0.205969
O O6 0.152983 0.512962 0.197117
O O7 0.118566 0.727003 0.256933
O O8 0.750000 0.750000 0.195246
O O9 0.880446 0.732207 0.148953
O O10 0.250000 0.750000 0.404380
O O11 0.407578 0.743945 0.435500
O O12 0.018587 0.273692 0.500000
O O13 0.000000 0.500000 0.444143
#
# Coordination Sequence:
#
# PCOD9495495 Si02
#       5
#    16  16  16  16  16
#     4  10  22  37  57  84 114 150 184 228 282 332
#     4  10  18  32  56  82 113 152 192 230 270 324
#     4   9  18  31  52  84 116 147 185 232 279 321
#     4  10  20  36  58  84 113 144 186 231 271 325
#     4  10  22  41  61  80 108 145 182 228 288 341
#
# _framework density 19.621887000000001
#
# number of rings (size 3 to 8) (size 9 to 14) (size 15 to 20)
#    0.000    2.200    0.000    3.600    0.000    6.400 
#    0.000    7.000    0.000   13.800    0.000    0.000 
#    0.000    0.000    0.000    0.000    0.000    0.000 
#
# Total GULP energy -223242.045530 kJ/mol
# GULP energy per Si atom -5581.051138 kJ/mol
# Density = 1.957723 g / cm^3
# Si number density = 19.621887 Si / 1000 Ang^3
#
#
#
# Elastic Constant Matrix: (Units=GPa)
#
#
# Indices 1 2 3 4 5 6 
#
# 1 26.6666 5.6333 5.5832 0.0000 0.0000 0.0000
# 2 5.6333 74.9122 31.8438 0.0000 0.0000 0.0000
# 3 5.5832 31.8438 100.8121 0.0000 0.0000 0.0000
# 4 0.0000 0.0000 0.0000 14.3427 0.0000 0.0000
# 5 0.0000 0.0000 0.0000 0.0000 29.8921 0.0000
# 6 0.0000 0.0000 0.0000 0.0000 0.0000 30.2933
#
#
#
# Elastic Compliance Matrix: (Units=1/GPa)
#
#
# Indices 1 2 3 4 5 6 
#
# 1 0.038275 -0.002284 -0.001398 0.000000 0.000000 0.000000
# 2 -0.002284 0.015556 -0.004787 0.000000 0.000000 0.000000
# 3 -0.001398 -0.004787 0.011509 0.000000 0.000000 0.000000
# 4 0.000000 0.000000 0.000000 0.069722 0.000000 0.000000
# 5 0.000000 0.000000 0.000000 0.000000 0.033454 0.000000
# 6 0.000000 0.000000 0.000000 0.000000 0.000000 0.033011
#
#
# Mechanical properties :
#
#
# Convention : Reuss Voigt Hill
#
# Bulk Modulus (GPa) = 20.66060 32.05682 26.35871
# Shear Modulus (GPa) = 21.31301 25.52766 23.42033
#
# Velocity S-wave (km/s) = 3.29931 3.61082 3.45857
# Velocity P-wave (km/s) = 5.00661 5.81006 5.42323
#
# Compressibility (1/GPa) = 0.04840130
#
# Stress axis : x y z
#
# Youngs Moduli (GPa) = 26.12652 64.28551 86.88845
#
# Poissons Ratio (x) = 0.14682 0.12150
# Poissons Ratio (y) = 0.05967 0.41594
# Poissons Ratio (z) = 0.03653 0.30774
#
# Static dielectric constant tensor:
#      x y z
#    x 1.707190 0.000000 0.000000 
#    y 0.000000 1.695290 0.000000 
#    z 0.000000 0.000000 1.686390 
# 
# From -- ./inp_files/65040.got.cif
#   From: 2010.05.17/outbox.cif.g08.bks.cpg/sg66_33_cif.got.tgz:65040.got - 2010.06.03 17:51:23.
