data_PCOD9495972
_publ_section_title
;
Structure prediction by ZEFSAII (Michael W. Deem and Ramdas Pophale) SiO2 
 PCOD9495972
Probable space group: C C C M
;
_chemical_formula_sum "Si O2"
_cell_formula_units_Z 80
_cell_length_a 21.217314
_cell_length_b 12.132971
_cell_length_c 17.254447
_cell_angle_alpha 90.000000
_cell_angle_beta 90.000000
_cell_angle_gamma 90.000000
_cell_volume 4441.795994
_symmetry_space_group_name_H-M "C C C M"
_symmetry_group_IT_number 66
_symmetry_cell_setting 'orthorhombic'
loop_
_space_group_symop_operation_xyz
x,y,z
-x,-y,z
x,-y,1/2-z
-x,y,1/2-z
-x,-y,-z
x,y,-z
-x,y,1/2+z
x,-y,1/2+z
1/2+x,1/2+y,z
1/2-x,1/2-y,z
1/2+x,1/2-y,1/2-z
1/2-x,1/2+y,1/2-z
1/2-x,1/2-y,-z
1/2+x,1/2+y,-z
1/2-x,1/2+y,1/2+z
1/2+x,1/2-y,1/2+z
loop_
_atom_site_type_symbol
_atom_site_label
_atom_site_fract_x
_atom_site_fract_y
_atom_site_fract_z
Si Si1 0.910000 0.055560 0.829969
Si Si2 0.486361 0.249391 0.409878
Si Si3 0.178887 0.781063 0.250109
Si Si4 0.435703 0.878727 0.214146
Si Si5 0.876108 0.164258 0.411361
O O1 0.846376 0.117813 0.802124
O O2 0.956173 0.147935 0.863459
O O3 0.932670 0.000000 0.750000
O O4 0.898679 0.960238 0.892421
O O5 0.471678 0.262038 0.500000
O O6 0.453573 0.139584 0.375631
O O7 0.561932 0.258441 0.402246
O O8 0.250000 0.750000 0.232019
O O9 0.127940 0.685447 0.233000
O O10 0.171096 0.808632 0.341350
O O11 0.500000 0.826624 0.250000
O O12 0.431517 0.000000 0.250000
O O13 0.853575 0.173263 0.500000
#
# Coordination Sequence:
#
# PCOD9495972 Si02
#       5
#    16  16  16  16  16
#     4   9  19  31  53  81 111 142 179 218 275 336
#     4  10  19  33  55  86 116 141 175 227 283 330
#     4  10  21  36  55  78 108 146 188 229 272 328
#     4  10  20  37  58  79 106 147 193 235 272 320
#     4  10  19  32  52  82 113 139 171 218 281 338
#
# _framework density 18.010732000000001
#
# number of rings (size 3 to 8) (size 9 to 14) (size 15 to 20)
#    0.000    2.200    2.000    1.200    0.000    6.800 
#    0.000    3.000    0.000   19.800    0.000    0.000 
#    0.000    0.000    0.000    0.000    0.000    0.000 
#
# Total GULP energy -222859.030587 kJ/mol
# GULP energy per Si atom -5571.475765 kJ/mol
# Density = 1.796974 g / cm^3
# Si number density = 18.010732 Si / 1000 Ang^3
#
#
#
# Elastic Constant Matrix: (Units=GPa)
#
#
# Indices 1 2 3 4 5 6 
#
# 1 106.5276 24.3763 15.0872 0.0000 0.0000 0.0000
# 2 24.3763 75.4972 14.1871 0.0000 0.0000 0.0000
# 3 15.0872 14.1871 83.3328 0.0000 0.0000 0.0000
# 4 0.0000 0.0000 0.0000 19.3478 0.0000 0.0000
# 5 0.0000 0.0000 0.0000 0.0000 13.0844 0.0000
# 6 0.0000 0.0000 0.0000 0.0000 0.0000 8.0438
#
#
#
# Elastic Compliance Matrix: (Units=1/GPa)
#
#
# Indices 1 2 3 4 5 6 
#
# 1 0.010279 -0.003067 -0.001339 0.000000 0.000000 0.000000
# 2 -0.003067 0.014599 -0.001930 0.000000 0.000000 0.000000
# 3 -0.001339 -0.001930 0.012571 0.000000 0.000000 0.000000
# 4 0.000000 0.000000 0.000000 0.051685 0.000000 0.000000
# 5 0.000000 0.000000 0.000000 0.000000 0.076427 0.000000
# 6 0.000000 0.000000 0.000000 0.000000 0.000000 0.124319
#
#
# Mechanical properties :
#
#
# Convention : Reuss Voigt Hill
#
# Bulk Modulus (GPa) = 40.36114 41.40654 40.88384
# Shear Modulus (GPa) = 16.08695 22.20899 19.14797
#
# Velocity S-wave (km/s) = 2.99187 3.51536 3.26412
# Velocity P-wave (km/s) = 5.86457 6.28624 6.07906
#
# Compressibility (1/GPa) = 0.02477631
#
# Stress axis : x y z
#
# Youngs Moduli (GPa) = 97.28857 68.50004 79.54796
#
# Poissons Ratio (x) = 0.21010 0.10650
# Poissons Ratio (y) = 0.29840 0.15353
# Poissons Ratio (z) = 0.13025 0.13221
#
# Static dielectric constant tensor:
#      x y z
#    x 1.601250 0.000000 0.000000 
#    y 0.000000 1.659490 0.000000 
#    z 0.000000 0.000000 1.667770 
# 
# From -- ./inp_files/30998.got.cif
#   From: 2010.05.17/outbox.cif.g08.bks.cpg/sg66_16_cif.got.tgz:30998.got - 2010.06.03 17:51:23.
