data_PCOD9495734
_publ_section_title
;
Structure prediction by ZEFSAII (Michael W. Deem and Ramdas Pophale) SiO2 
 PCOD9495734
Probable space group: C C C M
;
_chemical_formula_sum "Si O2"
_cell_formula_units_Z 80
_cell_length_a 28.724147
_cell_length_b 6.535013
_cell_length_c 14.500938
_cell_angle_alpha 90.000000
_cell_angle_beta 90.000000
_cell_angle_gamma 90.000000
_cell_volume 2722.009848
_symmetry_space_group_name_H-M "C C C M"
_symmetry_group_IT_number 66
_symmetry_cell_setting 'orthorhombic'
loop_
_space_group_symop_operation_xyz
x,y,z
-x,-y,z
x,-y,1/2-z
-x,y,1/2-z
-x,-y,-z
x,y,-z
-x,y,1/2+z
x,-y,1/2+z
1/2+x,1/2+y,z
1/2-x,1/2-y,z
1/2+x,1/2-y,1/2-z
1/2-x,1/2+y,1/2-z
1/2-x,1/2-y,-z
1/2+x,1/2+y,-z
1/2-x,1/2+y,1/2+z
1/2+x,1/2-y,1/2+z
loop_
_atom_site_type_symbol
_atom_site_label
_atom_site_fract_x
_atom_site_fract_y
_atom_site_fract_z
Si Si1 0.436718 0.305554 0.389181
Si Si2 0.263352 0.016896 0.858779
Si Si3 0.536859 0.785403 0.110770
Si Si4 0.838657 0.916775 0.609991
Si Si5 0.363542 0.132320 0.890913
O O1 0.435118 0.264959 0.500000
O O2 0.483832 0.197829 0.353290
O O3 0.448747 0.546984 0.377641
O O4 0.383536 0.291663 0.353786
O O5 0.250000 0.250000 0.889561
O O6 0.216742 0.888780 0.880741
O O7 0.317315 0.992219 0.887657
O O8 0.266241 0.000000 0.750000
O O9 0.583576 0.902804 0.143427
O O10 0.532670 0.816231 0.000000
O O11 0.845820 0.921367 0.500000
O O12 0.846718 0.148350 0.648451
O O13 0.370725 0.158141 0.000000
#
# Coordination Sequence:
#
# PCOD9495734 Si02
#       5
#    16  16  16  16  16
#     4   7   9  14  27  51  81 105 125 162 220 269
#     4  10  19  29  41  59  86 121 158 193 229 273
#     4   7   9  14  27  51  81 105 127 164 216 267
#     4   8  13  22  38  59  81 109 147 189 232 275
#     4   8  13  22  38  59  81 110 152 195 228 266
#
# _framework density 29.390046000000002
#
# number of rings (size 3 to 8) (size 9 to 14) (size 15 to 20)
#    0.000    4.000    0.000    4.200    0.000    2.400 
#    0.000    0.000    0.000    2.400    0.000   25.200 
#    0.000    3.200    0.000   10.000    0.000   16.000 
#
# Total GULP energy -223468.168720 kJ/mol
# GULP energy per Si atom -5586.704218 kJ/mol
# Density = 2.932315 g / cm^3
# Si number density = 29.390046 Si / 1000 Ang^3
#
#
#
# Elastic Constant Matrix: (Units=GPa)
#
#
# Indices 1 2 3 4 5 6 
#
# 1 477.2303 134.8452 23.9655 0.0000 0.0000 0.0000
# 2 134.8452 117.1346 -5.8910 0.0000 0.0000 0.0000
# 3 23.9655 -5.8910 76.4049 0.0000 0.0000 0.0000
# 4 0.0000 0.0000 0.0000 0.9082 0.0000 0.0000
# 5 0.0000 0.0000 0.0000 0.0000 -55.0695 0.0000
# 6 0.0000 0.0000 0.0000 0.0000 0.0000 97.3126
#
#
#
# Elastic Compliance Matrix: (Units=1/GPa)
#
#
# Indices 1 2 3 4 5 6 
#
# 1 0.003230 -0.003784 -0.001305 0.000000 0.000000 0.000000
# 2 -0.003784 0.013004 0.002190 0.000000 0.000000 0.000000
# 3 -0.001305 0.002190 0.013666 0.000000 0.000000 0.000000
# 4 0.000000 0.000000 0.000000 1.101044 0.000000 0.000000
# 5 0.000000 0.000000 0.000000 0.000000 -0.018159 0.000000
# 6 0.000000 0.000000 0.000000 0.000000 0.000000 0.010276
#
#
# Mechanical properties :
#
#
# Convention : Reuss Voigt Hill
#
# Bulk Modulus (GPa) = 41.49204 108.51213 75.00208
# Shear Modulus (GPa) = 4.39794 43.15360 23.77577
#
# Velocity S-wave (km/s) = 1.22460 3.83601 2.84733
# Velocity P-wave (km/s) = 4.01845 7.52472 6.03197
#
# Compressibility (1/GPa) = 0.02410101
#
# Stress axis : x y z
#
# Youngs Moduli (GPa) = 309.57526 76.90092 73.17257
#
# Poissons Ratio (x) = 0.29101 0.09549
# Poissons Ratio (y) = 1.17152 -0.16022
# Poissons Ratio (z) = 0.40399 -0.16838
#
# Static dielectric constant tensor:
#      x y z
#    x 2.328950 0.000000 0.000000 
#    y 0.000000 2.503420 0.000000 
#    z 0.000000 0.000000 2.118170 
# 
# From -- ./inp_files/26662.got.cif
#   From: 2010.05.17/outbox.cif.g08.bks.cpg/sg66_14_cif.got.tgz:26662.got - 2010.06.03 17:51:23.
