data_PCOD9495683
_publ_section_title
;
Structure prediction by ZEFSAII (Michael W. Deem and Ramdas Pophale) SiO2 
 PCOD9495683
Probable space group: C C C M
;
_chemical_formula_sum "Si O2"
_cell_formula_units_Z 68
_cell_length_a 17.575909
_cell_length_b 15.607171
_cell_length_c 14.385634
_cell_angle_alpha 90.000000
_cell_angle_beta 90.000000
_cell_angle_gamma 90.000000
_cell_volume 3946.126388
_symmetry_space_group_name_H-M "C C C M"
_symmetry_group_IT_number 66
_symmetry_cell_setting 'orthorhombic'
loop_
_space_group_symop_operation_xyz
x,y,z
-x,-y,z
x,-y,1/2-z
-x,y,1/2-z
-x,-y,-z
x,y,-z
-x,y,1/2+z
x,-y,1/2+z
1/2+x,1/2+y,z
1/2-x,1/2-y,z
1/2+x,1/2-y,1/2-z
1/2-x,1/2+y,1/2-z
1/2-x,1/2-y,-z
1/2+x,1/2+y,-z
1/2-x,1/2+y,1/2+z
1/2+x,1/2-y,1/2+z
loop_
_atom_site_type_symbol
_atom_site_label
_atom_site_fract_x
_atom_site_fract_y
_atom_site_fract_z
Si Si1 0.034059 0.862493 0.605486
Si Si2 0.108817 0.586982 0.500000
Si Si3 0.836771 0.274392 0.358231
Si Si4 0.069400 0.286018 0.682520
Si Si5 0.500000 0.500000 0.250000
Si Si6 0.425631 0.895091 0.000000
O O1 0.019504 0.891135 0.500000
O O2 0.106133 0.799041 0.604946
O O3 0.964395 0.803500 0.643147
O O4 0.045331 0.938332 0.679305
O O5 0.142009 0.638115 0.411723
O O6 0.118489 0.485090 0.500000
O O7 0.017497 0.596034 0.500000
O O8 0.750000 0.250000 0.374075
O O9 0.859055 0.279269 0.250146
O O10 0.088637 0.343832 0.594649
O O11 0.000000 0.319049 0.750000
#
# Coordination Sequence:
#
# PCOD9495683 Si02
#       6
#    16   8  16  16   4   8
#     4  11  20  37  61  89 109 149 197 248 296 333
#     4  11  21  34  60  94 115 159 193 252 285 355
#     4  11  21  38  62  85 121 162 194 230 303 359
#     4  10  18  37  60  84 118 155 192 244 289 349
#     4  12  22  36  60  90 110 140 208 252 284 334
#     4  11  20  36  61  92 122 141 213 241 292 343
#
# _framework density 17.232088999999998
#
# number of rings (size 3 to 8) (size 9 to 14) (size 15 to 20)
#    0.000    1.176   10.588    0.706    0.000    0.941 
#    0.000    2.941    0.000    0.000    0.000    0.000 
#    0.000    0.000    0.000    0.000    0.000    0.000 
#
# Total GULP energy -189454.973881 kJ/mol
# GULP energy per Si atom -5572.205114 kJ/mol
# Density = 1.719287 g / cm^3
# Si number density = 17.232089 Si / 1000 Ang^3
#
#
#
# Elastic Constant Matrix: (Units=GPa)
#
#
# Indices 1 2 3 4 5 6 
#
# 1 50.1739 30.0760 21.6790 0.0000 0.0000 0.0000
# 2 30.0760 115.6309 67.6915 0.0000 0.0000 0.0000
# 3 21.6790 67.6915 162.9323 0.0000 0.0000 0.0000
# 4 0.0000 0.0000 0.0000 32.1545 0.0000 0.0000
# 5 0.0000 0.0000 0.0000 0.0000 1.4095 0.0000
# 6 0.0000 0.0000 0.0000 0.0000 0.0000 15.6071
#
#
#
# Elastic Compliance Matrix: (Units=1/GPa)
#
#
# Indices 1 2 3 4 5 6 
#
# 1 0.023687 -0.005703 -0.000782 0.000000 0.000000 0.000000
# 2 -0.005703 0.012801 -0.004559 0.000000 0.000000 0.000000
# 3 -0.000782 -0.004559 0.008136 0.000000 0.000000 0.000000
# 4 0.000000 0.000000 0.000000 0.031100 0.000000 0.000000
# 5 0.000000 0.000000 0.000000 0.000000 0.709457 0.000000
# 6 0.000000 0.000000 0.000000 0.000000 0.000000 0.064073
#
#
# Mechanical properties :
#
#
# Convention : Reuss Voigt Hill
#
# Bulk Modulus (GPa) = 44.37686 63.07003 53.72345
# Shear Modulus (GPa) = 5.68922 23.78692 14.73807
#
# Velocity S-wave (km/s) = 1.81898 3.71938 2.92767
# Velocity P-wave (km/s) = 5.49727 7.42461 6.53241
#
# Compressibility (1/GPa) = 0.02253427
#
# Stress axis : x y z
#
# Youngs Moduli (GPa) = 42.21655 78.12074 122.91342
#
# Poissons Ratio (x) = 0.44554 0.09615
# Poissons Ratio (y) = 0.24077 0.56040
# Poissons Ratio (z) = 0.03303 0.35618
#
# Static dielectric constant tensor:
#      x y z
#    x 1.553250 0.000000 0.000000 
#    y 0.000000 1.607710 0.000000 
#    z 0.000000 0.000000 1.626070 
# 
# From -- ./inp_files/30929.got.cif
#   From: 2010.05.17/outbox.cif.g08.bks.cpg/sg66_16_cif.got.tgz:30929.got - 2010.06.03 17:51:23.
