data_PCOD9495029
_publ_section_title
;
Structure prediction by ZEFSAII (Michael W. Deem and Ramdas Pophale) SiO2 
 PCOD9495029
Probable space group: C C C M
;
_chemical_formula_sum "Si O2"
_cell_formula_units_Z 80
_cell_length_a 18.022116
_cell_length_b 18.826951
_cell_length_c 13.575094
_cell_angle_alpha 90.000000
_cell_angle_beta 90.000000
_cell_angle_gamma 90.000000
_cell_volume 4606.049687
_symmetry_space_group_name_H-M "C C C M"
_symmetry_group_IT_number 66
_symmetry_cell_setting 'orthorhombic'
loop_
_space_group_symop_operation_xyz
x,y,z
-x,-y,z
x,-y,1/2-z
-x,y,1/2-z
-x,-y,-z
x,y,-z
-x,y,1/2+z
x,-y,1/2+z
1/2+x,1/2+y,z
1/2-x,1/2-y,z
1/2+x,1/2-y,1/2-z
1/2-x,1/2+y,1/2-z
1/2-x,1/2-y,-z
1/2+x,1/2+y,-z
1/2-x,1/2+y,1/2+z
1/2+x,1/2-y,1/2+z
loop_
_atom_site_type_symbol
_atom_site_label
_atom_site_fract_x
_atom_site_fract_y
_atom_site_fract_z
Si Si1 0.358808 0.230457 0.883601
Si Si2 0.134020 0.042128 0.117433
Si Si3 0.980968 0.835791 0.881156
Si Si4 0.759515 0.144460 0.703895
Si Si5 0.642273 0.624457 0.382797
O O1 0.438841 0.262679 0.858226
O O2 0.324204 0.167203 0.818900
O O3 0.306980 0.298984 0.860800
O O4 0.355236 0.213640 0.000000
O O5 0.066892 0.094473 0.150231
O O6 0.210510 0.069846 0.164293
O O7 0.125058 0.958940 0.136258
O O8 0.139116 0.050353 0.000000
O O9 0.066420 0.836761 0.851143
O O10 0.982032 0.841154 0.000000
O O11 0.789346 0.149214 0.815347
O O12 0.655013 0.633298 0.500000
#
# Coordination Sequence:
#
# PCOD9495029 Si02
#       5
#    16  16  16  16  16
#     4   9  17  30  46  60  76 108 159 208 235 253
#     4   9  16  26  41  61  88 119 150 185 220 261
#     4   8  15  28  44  61  86 121 157 193 228 262
#     4  10  17  27  42  61  83 116 157 190 224 263
#     4  10  19  28  39  62  94 123 150 180 223 279
#
# _framework density 17.368462000000001
#
# number of rings (size 3 to 8) (size 9 to 14) (size 15 to 20)
#    0.000    2.800    0.000    4.800    0.000    5.600 
#    0.000    6.000    0.000    0.000    0.000    4.200 
#    0.000    0.000    0.000   88.200    0.000  837.000 
#
# Total GULP energy -222777.360423 kJ/mol
# GULP energy per Si atom -5569.434011 kJ/mol
# Density = 1.732893 g / cm^3
# Si number density = 17.368462 Si / 1000 Ang^3
#
#
#
# Elastic Constant Matrix: (Units=GPa)
#
#
# Indices 1 2 3 4 5 6 
#
# 1 61.3933 36.4993 55.1745 0.0000 0.0000 0.0000
# 2 36.4993 28.9467 35.6785 0.0000 0.0000 0.0000
# 3 55.1745 35.6785 106.8449 0.0000 0.0000 0.0000
# 4 0.0000 0.0000 0.0000 19.7302 0.0000 0.0000
# 5 0.0000 0.0000 0.0000 0.0000 14.4939 0.0000
# 6 0.0000 0.0000 0.0000 0.0000 0.0000 26.2062
#
#
#
# Elastic Compliance Matrix: (Units=1/GPa)
#
#
# Indices 1 2 3 4 5 6 
#
# 1 0.072885 -0.077345 -0.011810 0.000000 0.000000 0.000000
# 2 -0.077345 0.140789 -0.007072 0.000000 0.000000 0.000000
# 3 -0.011810 -0.007072 0.017820 0.000000 0.000000 0.000000
# 4 0.000000 0.000000 0.000000 0.050684 0.000000 0.000000
# 5 0.000000 0.000000 0.000000 0.000000 0.068994 0.000000
# 6 0.000000 0.000000 0.000000 0.000000 0.000000 0.038159
#
#
# Mechanical properties :
#
#
# Convention : Reuss Voigt Hill
#
# Bulk Modulus (GPa) = 25.61583 50.20996 37.91289
# Shear Modulus (GPa) = 8.40621 16.74156 12.57389
#
# Velocity S-wave (km/s) = 2.20237 3.10805 2.69355
# Velocity P-wave (km/s) = 4.60953 6.46927 5.61690
#
# Compressibility (1/GPa) = 0.03903836
#
# Stress axis : x y z
#
# Youngs Moduli (GPa) = 13.72024 7.10285 56.11761
#
# Poissons Ratio (x) = 0.54937 0.66275
# Poissons Ratio (y) = 1.06119 0.39689
# Poissons Ratio (z) = 0.16204 0.05023
#
# Static dielectric constant tensor:
#      x y z
#    x 1.644550 0.000000 0.000000 
#    y 0.000000 1.607370 0.000000 
#    z 0.000000 0.000000 1.661410 
# 
# From -- ./inp_files/29930.got.cif
#   From: 2010.05.17/outbox.cif.g08.bks.cpg/sg66_15_cif.got.tgz:29930.got - 2010.06.03 17:51:23.
