data_PCOD9495798
_publ_section_title
;
Structure prediction by ZEFSAII (Michael W. Deem and Ramdas Pophale) SiO2 
 PCOD9495798
Probable space group: C C C M
;
_chemical_formula_sum "Si O2"
_cell_formula_units_Z 80
_cell_length_a 4.996311
_cell_length_b 33.511285
_cell_length_c 26.382273
_cell_angle_alpha 90.000000
_cell_angle_beta 90.000000
_cell_angle_gamma 90.000000
_cell_volume 4417.257888
_symmetry_space_group_name_H-M "C C C M"
_symmetry_group_IT_number 66
_symmetry_cell_setting 'orthorhombic'
loop_
_space_group_symop_operation_xyz
x,y,z
-x,-y,z
x,-y,1/2-z
-x,y,1/2-z
-x,-y,-z
x,y,-z
-x,y,1/2+z
x,-y,1/2+z
1/2+x,1/2+y,z
1/2-x,1/2-y,z
1/2+x,1/2-y,1/2-z
1/2-x,1/2+y,1/2-z
1/2-x,1/2-y,-z
1/2+x,1/2+y,-z
1/2-x,1/2+y,1/2+z
1/2+x,1/2-y,1/2+z
loop_
_atom_site_type_symbol
_atom_site_label
_atom_site_fract_x
_atom_site_fract_y
_atom_site_fract_z
Si Si1 0.112916 0.543089 0.588049
Si Si2 0.100282 0.091401 0.442832
Si Si3 0.962712 0.871959 0.660840
Si Si4 0.247083 0.793688 0.787508
Si Si5 0.956769 0.421204 0.306969
O O1 0.398461 0.554194 0.564969
O O2 0.131272 0.548225 0.649184
O O3 0.000000 0.500000 0.574900
O O4 0.898828 0.575738 0.568459
O O5 0.080628 0.106249 0.500000
O O6 0.009915 0.122496 0.399504
O O7 0.831912 0.830132 0.676373
O O8 0.744864 0.904570 0.677288
O O9 0.238062 0.885065 0.688700
O O10 0.500000 0.800712 0.750000
O O11 0.250000 0.750000 0.813486
O O12 0.000000 0.790428 0.750000
O O13 0.000000 0.436142 0.250000
#
# Coordination Sequence:
#
# PCOD9495798 Si02
#       5
#    16  16  16  16  16
#     4  10  21  34  49  72  96 121 159 202 245 291
#     4  10  21  35  51  70  92 124 163 203 245 283
#     4  10  19  32  49  70  97 126 161 197 231 282
#     4  10  19  30  48  75 103 129 156 190 236 287
#     4  10  19  31  49  70  95 129 160 190 234 287
#
# _framework density 18.110783999999999
#
# number of rings (size 3 to 8) (size 9 to 14) (size 15 to 20)
#    0.000    2.000    0.000    4.800    0.000    2.800 
#    0.000    0.000    0.000    7.800    0.000    0.000 
#    0.000   14.400    0.000    0.000    0.000    4.000 
#
# Total GULP energy -222994.086995 kJ/mol
# GULP energy per Si atom -5574.852175 kJ/mol
# Density = 1.806956 g / cm^3
# Si number density = 18.110784 Si / 1000 Ang^3
#
#
#
# Elastic Constant Matrix: (Units=GPa)
#
#
# Indices 1 2 3 4 5 6 
#
# 1 91.9751 -13.1638 6.6113 0.0000 0.0000 0.0000
# 2 -13.1638 44.4785 0.2323 0.0000 0.0000 0.0000
# 3 6.6113 0.2323 92.7876 0.0000 0.0000 0.0000
# 4 0.0000 0.0000 0.0000 2.7152 0.0000 0.0000
# 5 0.0000 0.0000 0.0000 0.0000 16.8561 0.0000
# 6 0.0000 0.0000 0.0000 0.0000 0.0000 20.7611
#
#
#
# Elastic Compliance Matrix: (Units=1/GPa)
#
#
# Indices 1 2 3 4 5 6 
#
# 1 0.011416 0.003383 -0.000822 0.000000 0.000000 0.000000
# 2 0.003383 0.023486 -0.000300 0.000000 0.000000 0.000000
# 3 -0.000822 -0.000300 0.010837 0.000000 0.000000 0.000000
# 4 0.000000 0.000000 0.000000 0.368292 0.000000 0.000000
# 5 0.000000 0.000000 0.000000 0.000000 0.059326 0.000000
# 6 0.000000 0.000000 0.000000 0.000000 0.000000 0.048167
#
#
# Mechanical properties :
#
#
# Convention : Reuss Voigt Hill
#
# Bulk Modulus (GPa) = 19.89642 24.06675 21.98158
# Shear Modulus (GPa) = 9.36762 23.77058 16.56910
#
# Velocity S-wave (km/s) = 2.27676 3.62679 3.02797
# Velocity P-wave (km/s) = 4.23336 5.55478 4.93847
#
# Compressibility (1/GPa) = 0.05026029
#
# Stress axis : x y z
#
# Youngs Moduli (GPa) = 87.59822 42.57940 92.27976
#
# Poissons Ratio (x) = -0.14404 0.07584
# Poissons Ratio (y) = -0.29634 0.02767
# Poissons Ratio (z) = 0.07199 0.01277
#
# Static dielectric constant tensor:
#      x y z
#    x 1.615040 0.000000 0.000000 
#    y 0.000000 1.677170 0.000000 
#    z 0.000000 0.000000 1.657720 
# 
# From -- ./inp_files/61632.got.cif
#   From: 2010.05.17/outbox.cif.g08.bks.cpg/sg66_31_cif.got.tgz:61632.got - 2010.06.03 17:51:23.
