data_PCOD9495433
_publ_section_title
;
Structure prediction by ZEFSAII (Michael W. Deem and Ramdas Pophale) SiO2 
 PCOD9495433
Probable space group: C C C M
;
_chemical_formula_sum "Si O2"
_cell_formula_units_Z 96
_cell_length_a 27.063866
_cell_length_b 20.875629
_cell_length_c 8.805513
_cell_angle_alpha 90.000000
_cell_angle_beta 90.000000
_cell_angle_gamma 90.000000
_cell_volume 4974.896697
_symmetry_space_group_name_H-M "C C C M"
_symmetry_group_IT_number 66
_symmetry_cell_setting 'orthorhombic'
loop_
_space_group_symop_operation_xyz
x,y,z
-x,-y,z
x,-y,1/2-z
-x,y,1/2-z
-x,-y,-z
x,y,-z
-x,y,1/2+z
x,-y,1/2+z
1/2+x,1/2+y,z
1/2-x,1/2-y,z
1/2+x,1/2-y,1/2-z
1/2-x,1/2+y,1/2-z
1/2-x,1/2-y,-z
1/2+x,1/2+y,-z
1/2-x,1/2+y,1/2+z
1/2+x,1/2-y,1/2+z
loop_
_atom_site_type_symbol
_atom_site_label
_atom_site_fract_x
_atom_site_fract_y
_atom_site_fract_z
Si Si1 0.333921 0.931355 0.817669
Si Si2 0.200197 0.788494 0.664724
Si Si3 0.111204 0.311091 0.823612
Si Si4 0.719474 0.590599 0.325733
Si Si5 0.616573 0.564686 0.179537
Si Si6 0.553489 0.310163 0.315766
O O1 0.369857 0.874540 0.760986
O O2 0.275889 0.920379 0.771106
O O3 0.348746 0.000000 0.750000
O O4 0.334476 0.932711 0.000000
O O5 0.192399 0.822939 0.500000
O O6 0.250000 0.750000 0.652062
O O7 0.157098 0.737858 0.679423
O O8 0.208039 0.834453 0.805885
O O9 0.069035 0.262065 0.764938
O O10 0.100905 0.327850 0.000000
O O11 0.715890 0.569310 0.500000
O O12 0.674072 0.564412 0.228036
O O13 0.593728 0.500000 0.250000
O O14 0.591233 0.632173 0.228525
O O15 0.611846 0.560429 0.000000
O O16 0.500000 0.325563 0.250000
O O17 0.553282 0.308696 0.500000
#
# Coordination Sequence:
#
# PCOD9495433 Si02
#       6
#    16  16  16  16  16  16
#     4  11  24  38  55  85 121 159 197 237 284 342
#     4  10  18  31  54  81 112 153 192 233 284 336
#     4  10  20  38  61  84 113 152 193 238 292 349
#     4  11  22  34  53  84 120 159 200 239 277 329
#     4  11  23  40  59  84 118 158 201 241 288 342
#     4  10  23  42  64  88 114 146 190 242 298 354
#
# _framework density 19.296883000000001
#
# number of rings (size 3 to 8) (size 9 to 14) (size 15 to 20)
#    0.000    1.500    3.333    2.000    0.000    6.667 
#    0.000    1.667    0.000    0.500    0.000    3.500 
#    0.000    0.000    0.000    0.000    0.000    0.000 
#
# Total GULP energy -267482.121303 kJ/mol
# GULP energy per Si atom -5572.544194 kJ/mol
# Density = 1.925296 g / cm^3
# Si number density = 19.296883 Si / 1000 Ang^3
#
#
#
# Elastic Constant Matrix: (Units=GPa)
#
#
# Indices 1 2 3 4 5 6 
#
# 1 60.6801 42.5050 22.7010 0.0000 0.0000 0.0000
# 2 42.5050 141.2824 45.5321 0.0000 0.0000 0.0000
# 3 22.7010 45.5321 44.9319 0.0000 0.0000 0.0000
# 4 0.0000 0.0000 0.0000 29.6590 0.0000 0.0000
# 5 0.0000 0.0000 0.0000 0.0000 23.0119 0.0000
# 6 0.0000 0.0000 0.0000 0.0000 0.0000 9.2147
#
#
#
# Elastic Compliance Matrix: (Units=1/GPa)
#
#
# Indices 1 2 3 4 5 6 
#
# 1 0.022117 -0.004533 -0.006581 0.000000 0.000000 0.000000
# 2 -0.004533 0.011440 -0.009302 0.000000 0.000000 0.000000
# 3 -0.006581 -0.009302 0.035007 0.000000 0.000000 0.000000
# 4 0.000000 0.000000 0.000000 0.033717 0.000000 0.000000
# 5 0.000000 0.000000 0.000000 0.000000 0.043456 0.000000
# 6 0.000000 0.000000 0.000000 0.000000 0.000000 0.108522
#
#
# Mechanical properties :
#
#
# Convention : Reuss Voigt Hill
#
# Bulk Modulus (GPa) = 36.05937 52.04118 44.05027
# Shear Modulus (GPa) = 16.42928 21.45420 18.94174
#
# Velocity S-wave (km/s) = 2.92103 3.33798 3.13644
# Velocity P-wave (km/s) = 5.48669 6.47174 5.99946
#
# Compressibility (1/GPa) = 0.02773204
#
# Stress axis : x y z
#
# Youngs Moduli (GPa) = 45.21382 87.41457 28.56563
#
# Poissons Ratio (x) = 0.39627 0.18798
# Poissons Ratio (y) = 0.20496 0.26572
# Poissons Ratio (z) = 0.29753 0.81315
#
# Static dielectric constant tensor:
#      x y z
#    x 2.003630 0.000000 0.000000 
#    y 0.000000 1.733910 0.000000 
#    z 0.000000 0.000000 1.708840 
# 
# From -- ./inp_files/10265.got.cif
#   From: 2010.05.17/outbox.cif.g08.bks.cpg/sg66_6_cif.got.tgz:10265.got - 2010.06.03 17:51:23.
