data_PCOD9495130
_publ_section_title
;
Structure prediction by ZEFSAII (Michael W. Deem and Ramdas Pophale) SiO2 
 PCOD9495130
Probable space group: C C C M
;
_chemical_formula_sum "Si O2"
_cell_formula_units_Z 80
_cell_length_a 8.916329
_cell_length_b 18.574389
_cell_length_c 23.380618
_cell_angle_alpha 90.000000
_cell_angle_beta 90.000000
_cell_angle_gamma 90.000000
_cell_volume 3872.189544
_symmetry_space_group_name_H-M "C C C M"
_symmetry_group_IT_number 66
_symmetry_cell_setting 'orthorhombic'
loop_
_space_group_symop_operation_xyz
x,y,z
-x,-y,z
x,-y,1/2-z
-x,y,1/2-z
-x,-y,-z
x,y,-z
-x,y,1/2+z
x,-y,1/2+z
1/2+x,1/2+y,z
1/2-x,1/2-y,z
1/2+x,1/2-y,1/2-z
1/2-x,1/2+y,1/2-z
1/2-x,1/2-y,-z
1/2+x,1/2+y,-z
1/2-x,1/2+y,1/2+z
1/2+x,1/2-y,1/2+z
loop_
_atom_site_type_symbol
_atom_site_label
_atom_site_fract_x
_atom_site_fract_y
_atom_site_fract_z
Si Si1 0.281086 0.538795 0.163489
Si Si2 0.971626 0.649043 0.317468
Si Si3 0.298941 0.631139 0.653226
Si Si4 0.440939 0.377875 0.566318
Si Si5 0.250000 0.250000 0.385062
Si Si6 0.500000 0.623653 0.250000
O O1 0.117609 0.574135 0.170798
O O2 0.283634 0.453586 0.169468
O O3 0.354201 0.561011 0.102825
O O4 0.390079 0.576769 0.209796
O O5 0.860589 0.707425 0.343389
O O6 0.000000 0.654456 0.250000
O O7 0.130151 0.657352 0.349157
O O8 0.399252 0.635148 0.596817
O O9 0.394258 0.665459 0.705490
O O10 0.454100 0.394958 0.500000
O O11 0.341597 0.306681 0.577161
#
# Coordination Sequence:
#
# PCOD9495130 Si02
#       6
#    16  16  16  16   8   8
#     4  10  20  35  59  95 124 156 191 237 306 369
#     4  11  23  39  61  88 126 162 199 247 304 362
#     4  11  21  34  61  93 125 153 195 242 302 372
#     4  10  22  42  65  85 119 164 207 254 297 349
#     4  10  25  44  60  84 112 166 217 258 298 344
#     4  10  17  30  54  88 124 152 182 228 289 368
#
# _framework density 20.660145
#
# number of rings (size 3 to 8) (size 9 to 14) (size 15 to 20)
#    0.000    1.600    2.000    4.500    0.000    4.800 
#    3.600    6.000    0.000    6.000    0.000    0.000 
#    0.000    0.000    0.000    0.000    0.000    0.000 
#
# Total GULP energy -223772.560040 kJ/mol
# GULP energy per Si atom -5594.314001 kJ/mol
# Density = 2.061312 g / cm^3
# Si number density = 20.660145 Si / 1000 Ang^3
#
#
#
# Elastic Constant Matrix: (Units=GPa)
#
#
# Indices 1 2 3 4 5 6 
#
# 1 154.7190 19.3966 52.8500 0.0000 0.0000 0.0000
# 2 19.3966 36.5455 1.0576 0.0000 0.0000 0.0000
# 3 52.8500 1.0576 160.6838 0.0000 0.0000 0.0000
# 4 0.0000 0.0000 0.0000 11.6873 0.0000 0.0000
# 5 0.0000 0.0000 0.0000 0.0000 15.8658 0.0000
# 6 0.0000 0.0000 0.0000 0.0000 0.0000 25.8056
#
#
#
# Elastic Compliance Matrix: (Units=1/GPa)
#
#
# Indices 1 2 3 4 5 6 
#
# 1 0.007849 -0.004092 -0.002555 0.000000 0.000000 0.000000
# 2 -0.004092 0.029502 0.001152 0.000000 0.000000 0.000000
# 3 -0.002555 0.001152 0.007056 0.000000 0.000000 0.000000
# 4 0.000000 0.000000 0.000000 0.085563 0.000000 0.000000
# 5 0.000000 0.000000 0.000000 0.000000 0.063029 0.000000
# 6 0.000000 0.000000 0.000000 0.000000 0.000000 0.038751
#
#
# Mechanical properties :
#
#
# Convention : Reuss Voigt Hill
#
# Bulk Modulus (GPa) = 29.92501 55.39520 42.66010
# Shear Modulus (GPa) = 19.69445 29.24800 24.47123
#
# Velocity S-wave (km/s) = 3.09084 3.76662 3.44534
# Velocity P-wave (km/s) = 5.22049 6.76664 6.04322
#
# Compressibility (1/GPa) = 0.03341686
#
# Stress axis : x y z
#
# Youngs Moduli (GPa) = 127.40558 33.89648 141.72210
#
# Poissons Ratio (x) = 0.13870 0.36205
# Poissons Ratio (y) = 0.52133 -0.16322
# Poissons Ratio (z) = 0.32548 -0.03904
#
# Static dielectric constant tensor:
#      x y z
#    x 1.763070 0.000000 0.000000 
#    y 0.000000 1.803140 0.000000 
#    z 0.000000 0.000000 1.697260 
# 
# From -- ./inp_files/55411.got.cif
#   From: 2010.05.17/outbox.cif.g08.bks.cpg/sg66_28_cif.got.tgz:55411.got - 2010.06.03 17:51:23.
