data_PCOD9495450
_publ_section_title
;
Structure prediction by ZEFSAII (Michael W. Deem and Ramdas Pophale) SiO2 
 PCOD9495450
Probable space group: C C C M
;
_chemical_formula_sum "Si O2"
_cell_formula_units_Z 104
_cell_length_a 19.605833
_cell_length_b 16.100552
_cell_length_c 13.973526
_cell_angle_alpha 90.000000
_cell_angle_beta 90.000000
_cell_angle_gamma 90.000000
_cell_volume 4410.949364
_symmetry_space_group_name_H-M "C C C M"
_symmetry_group_IT_number 66
_symmetry_cell_setting 'orthorhombic'
loop_
_space_group_symop_operation_xyz
x,y,z
-x,-y,z
x,-y,1/2-z
-x,y,1/2-z
-x,-y,-z
x,y,-z
-x,y,1/2+z
x,-y,1/2+z
1/2+x,1/2+y,z
1/2-x,1/2-y,z
1/2+x,1/2-y,1/2-z
1/2-x,1/2+y,1/2-z
1/2-x,1/2-y,-z
1/2+x,1/2+y,-z
1/2-x,1/2+y,1/2+z
1/2+x,1/2-y,1/2+z
loop_
_atom_site_type_symbol
_atom_site_label
_atom_site_fract_x
_atom_site_fract_y
_atom_site_fract_z
Si Si1 0.214910 0.445897 0.113634
Si Si2 0.654634 0.650323 0.104740
Si Si3 0.097983 0.500000 0.250000
Si Si4 0.750787 0.371726 0.889034
Si Si5 0.915329 0.639968 0.389020
Si Si6 0.117721 0.807329 0.811342
Si Si7 0.423934 0.485676 0.363479
O O1 0.265390 0.368354 0.125686
O O2 0.148029 0.446858 0.179247
O O3 0.254877 0.531378 0.140742
O O4 0.198411 0.453313 0.000000
O O5 0.616778 0.689043 0.195853
O O6 0.623403 0.557650 0.096602
O O7 0.647922 0.691303 0.000000
O O8 0.061461 0.434558 0.320148
O O9 0.832122 0.360682 0.883838
O O10 0.698707 0.313149 0.834070
O O11 0.732220 0.362655 0.000000
O O12 0.935191 0.629643 0.500000
O O13 0.927430 0.731480 0.348539
O O14 0.094532 0.889454 0.869110
O O15 0.500000 0.500000 0.397668
O O16 0.422621 0.500000 0.250000
#
# Coordination Sequence:
#
# PCOD9495450 Si02
#       7
#    16  16   8  16  16  16  16
#     4   9  16  26  43  65  91 131 175 209 250 309
#     4  10  19  30  44  65  96 134 175 207 246 308
#     4  10  18  32  50  66  95 127 164 210 272 314
#     4   9  16  27  45  69  94 125 172 223 262 299
#     4  10  21  33  49  73  96 125 171 220 264 311
#     4  11  19  30  49  69  99 134 171 220 263 298
#     4   9  19  33  50  72 100 137 177 213 254 304
#
# _framework density 23.57769
#
# number of rings (size 3 to 8) (size 9 to 14) (size 15 to 20)
#    0.000    2.308    1.538    4.154    1.077    2.154 
#    0.000    1.538    0.000    3.692    0.000    0.000 
#    0.000    9.846    0.000   23.538    0.000    0.615 
#
# Total GULP energy -290191.053665 kJ/mol
# GULP energy per Si atom -5580.597186 kJ/mol
# Density = 2.352403 g / cm^3
# Si number density = 23.577690 Si / 1000 Ang^3
#
#
#
# Elastic Constant Matrix: (Units=GPa)
#
#
# Indices 1 2 3 4 5 6 
#
# 1 27.2180 -3.9816 -2.3721 0.0000 0.0000 0.0000
# 2 -3.9816 78.7344 45.7251 0.0000 0.0000 0.0000
# 3 -2.3721 45.7251 160.3957 0.0000 0.0000 0.0000
# 4 0.0000 0.0000 0.0000 17.5067 0.0000 0.0000
# 5 0.0000 0.0000 0.0000 0.0000 25.5715 0.0000
# 6 0.0000 0.0000 0.0000 0.0000 0.0000 10.5836
#
#
#
# Elastic Compliance Matrix: (Units=1/GPa)
#
#
# Indices 1 2 3 4 5 6 
#
# 1 0.037014 0.001862 0.000017 0.000000 0.000000 0.000000
# 2 0.001862 0.015315 -0.004338 0.000000 0.000000 0.000000
# 3 0.000017 -0.004338 0.007472 0.000000 0.000000 0.000000
# 4 0.000000 0.000000 0.000000 0.057121 0.000000 0.000000
# 5 0.000000 0.000000 0.000000 0.000000 0.039106 0.000000
# 6 0.000000 0.000000 0.000000 0.000000 0.000000 0.094486
#
#
# Mechanical properties :
#
#
# Convention : Reuss Voigt Hill
#
# Bulk Modulus (GPa) = 18.22113 38.34343 28.28228
# Shear Modulus (GPa) = 18.26642 25.86413 22.06527
#
# Velocity S-wave (km/s) = 2.78642 3.31565 3.06249
# Velocity P-wave (km/s) = 4.25407 5.56381 4.95243
#
# Compressibility (1/GPa) = 0.05488134
#
# Stress axis : x y z
#
# Youngs Moduli (GPa) = 27.01660 65.29728 133.84072
#
# Poissons Ratio (x) = -0.12160 -0.00221
# Poissons Ratio (y) = -0.05031 0.58064
# Poissons Ratio (z) = -0.00045 0.28328
#
# Static dielectric constant tensor:
#      x y z
#    x 1.933360 0.000000 0.000000 
#    y 0.000000 1.994250 0.000000 
#    z 0.000000 0.000000 1.925540 
# 
# From -- ./inp_files/32630.got.cif
#   From: 2010.05.17/outbox.cif.g08.bks.cpg/sg66_17_cif.got.tgz:32630.got - 2010.06.03 17:51:23.
