data_PCOD9495320
_publ_section_title
;
Structure prediction by ZEFSAII (Michael W. Deem and Ramdas Pophale) SiO2 
 PCOD9495320
Probable space group: C C C M
;
_chemical_formula_sum "Si O2"
_cell_formula_units_Z 88
_cell_length_a 9.277667
_cell_length_b 19.104696
_cell_length_c 24.630955
_cell_angle_alpha 90.000000
_cell_angle_beta 90.000000
_cell_angle_gamma 90.000000
_cell_volume 4365.763069
_symmetry_space_group_name_H-M "C C C M"
_symmetry_group_IT_number 66
_symmetry_cell_setting 'orthorhombic'
loop_
_space_group_symop_operation_xyz
x,y,z
-x,-y,z
x,-y,1/2-z
-x,y,1/2-z
-x,-y,-z
x,y,-z
-x,y,1/2+z
x,-y,1/2+z
1/2+x,1/2+y,z
1/2-x,1/2-y,z
1/2+x,1/2-y,1/2-z
1/2-x,1/2+y,1/2-z
1/2-x,1/2-y,-z
1/2+x,1/2+y,-z
1/2-x,1/2+y,1/2+z
1/2+x,1/2-y,1/2+z
loop_
_atom_site_type_symbol
_atom_site_label
_atom_site_fract_x
_atom_site_fract_y
_atom_site_fract_z
Si Si1 0.033727 0.309469 0.000000
Si Si2 0.223411 0.082266 0.000000
Si Si3 0.283428 0.075739 0.500000
Si Si4 0.084717 0.721556 0.111359
Si Si5 0.498331 0.659327 0.185657
Si Si6 0.140627 0.950523 0.381274
Si Si7 0.739752 0.911563 0.621006
O O1 0.186648 0.346729 0.000000
O O2 0.997403 0.268301 0.054715
O O3 0.922749 0.375344 0.000000
O O4 0.142180 0.077110 0.057203
O O5 0.310665 0.007666 0.000000
O O6 0.208094 0.093114 0.557464
O O7 0.250000 0.750000 0.105281
O O8 0.008928 0.764483 0.158706
O O9 0.101794 0.638865 0.123228
O O10 0.500000 0.660841 0.250000
O O11 0.626228 0.612791 0.160391
O O12 0.354234 0.621332 0.162483
O O13 0.270242 0.005253 0.370488
O O14 0.000000 0.000000 0.375051
#
# Coordination Sequence:
#
# PCOD9495320 Si02
#       7
#     8   8   8  16  16  16  16
#     4  10  18  30  51  77 104 132 168 207 250 316
#     4  10  18  30  47  79 112 134 152 199 274 322
#     4   8  15  30  52  76 102 130 169 208 249 306
#     4   9  18  34  53  73  96 131 173 212 252 305
#     4  10  20  33  50  73 101 134 175 220 257 294
#     4   9  18  32  52  75 102 134 169 206 250 311
#     4   8  16  31  54  77  94 124 169 213 248 297
#
# _framework density 20.156842000000001
#
# number of rings (size 3 to 8) (size 9 to 14) (size 15 to 20)
#    0.000    2.909    0.000    0.818    0.000    8.364 
#    0.000    7.273    0.000    0.000    0.000    0.000 
#    0.000    0.000    0.000    0.000    0.000    0.000 
#
# Total GULP energy -245007.914563 kJ/mol
# GULP energy per Si atom -5568.361695 kJ/mol
# Density = 2.011096 g / cm^3
# Si number density = 20.156842 Si / 1000 Ang^3
#
#
#
# Elastic Constant Matrix: (Units=GPa)
#
#
# Indices 1 2 3 4 5 6 
#
# 1 11.4170 22.7972 18.4032 0.0000 0.0000 0.0000
# 2 22.7972 105.7261 79.2516 0.0000 0.0000 0.0000
# 3 18.4032 79.2516 182.9809 0.0000 0.0000 0.0000
# 4 0.0000 0.0000 0.0000 -3.2349 0.0000 0.0000
# 5 0.0000 0.0000 0.0000 0.0000 1.1450 0.0000
# 6 0.0000 0.0000 0.0000 0.0000 0.0000 18.9286
#
#
#
# Elastic Compliance Matrix: (Units=1/GPa)
#
#
# Indices 1 2 3 4 5 6 
#
# 1 0.154147 -0.032009 -0.001640 0.000000 0.000000 0.000000
# 2 -0.032009 0.020652 -0.005725 0.000000 0.000000 0.000000
# 3 -0.001640 -0.005725 0.008110 0.000000 0.000000 0.000000
# 4 0.000000 0.000000 0.000000 -0.309128 0.000000 0.000000
# 5 0.000000 0.000000 0.000000 0.000000 0.873334 0.000000
# 6 0.000000 0.000000 0.000000 0.000000 0.000000 0.052830
#
#
# Mechanical properties :
#
#
# Convention : Reuss Voigt Hill
#
# Bulk Modulus (GPa) = 9.60056 60.11422 34.85739
# Shear Modulus (GPa) = 5.47398 15.34588 10.40993
#
# Velocity S-wave (km/s) = 1.64972 2.76220 2.27501
# Velocity P-wave (km/s) = 2.89863 6.32938 4.92255
#
# Compressibility (1/GPa) = 0.10416056
#
# Stress axis : x y z
#
# Youngs Moduli (GPa) = 6.48732 48.42134 123.30856
#
# Poissons Ratio (x) = 1.54991 0.20220
# Poissons Ratio (y) = 0.20765 0.70599
# Poissons Ratio (z) = 0.01064 0.27723
#
# Static dielectric constant tensor:
#      x y z
#    x 1.770910 0.000000 0.000000 
#    y 0.000000 1.794780 0.000000 
#    z 0.000000 0.000000 1.676900 
# 
# From -- ./inp_files/38713.got.cif
#   From: 2010.05.17/outbox.cif.g08.bks.cpg/sg66_20_cif.got.tgz:38713.got - 2010.06.03 17:51:23.
