data_PCOD9495235
_publ_section_title
;
Structure prediction by ZEFSAII (Michael W. Deem and Ramdas Pophale) SiO2 
 PCOD9495235
Probable space group: C C C M
;
_chemical_formula_sum "Si O2"
_cell_formula_units_Z 84
_cell_length_a 11.669789
_cell_length_b 12.521210
_cell_length_c 27.414698
_cell_angle_alpha 90.000000
_cell_angle_beta 90.000000
_cell_angle_gamma 90.000000
_cell_volume 4005.832347
_symmetry_space_group_name_H-M "C C C M"
_symmetry_group_IT_number 66
_symmetry_cell_setting 'orthorhombic'
loop_
_space_group_symop_operation_xyz
x,y,z
-x,-y,z
x,-y,1/2-z
-x,y,1/2-z
-x,-y,-z
x,y,-z
-x,y,1/2+z
x,-y,1/2+z
1/2+x,1/2+y,z
1/2-x,1/2-y,z
1/2+x,1/2-y,1/2-z
1/2-x,1/2+y,1/2-z
1/2-x,1/2-y,-z
1/2+x,1/2+y,-z
1/2-x,1/2+y,1/2+z
1/2+x,1/2-y,1/2+z
loop_
_atom_site_type_symbol
_atom_site_label
_atom_site_fract_x
_atom_site_fract_y
_atom_site_fract_z
Si Si1 0.500000 0.000000 0.750000
Si Si2 0.631535 0.812826 0.193980
Si Si3 0.595071 0.643592 0.500000
Si Si4 0.663715 0.391686 0.500000
Si Si5 0.694463 0.647950 0.397117
Si Si6 0.524742 0.610670 0.832489
Si Si7 0.242456 0.586086 0.604661
O O1 0.414524 0.081579 0.778825
O O2 0.750000 0.750000 0.209747
O O3 0.537243 0.720103 0.196123
O O4 0.651551 0.851229 0.137650
O O5 0.623377 0.516235 0.500000
O O6 0.459340 0.666294 0.500000
O O7 0.652841 0.682098 0.450698
O O8 0.734562 0.375079 0.549643
O O9 0.750000 0.750000 0.372283
O O10 0.578971 0.618563 0.369745
O O11 0.773424 0.542396 0.397981
O O12 0.500000 0.500000 0.805006
O O13 0.640957 0.601548 0.864103
#
# Coordination Sequence:
#
# PCOD9495235 Si02
#       7
#     4  16   8   8  16  16  16
#     4  12  28  52  78 100 132 172 220 282 360 408
#     4  10  24  48  68  98 133 167 216 278 338 409
#     4   9  15  26  45  79 129 166 230 258 298 371
#     4   9  14  28  56  85 121 177 218 259 311 379
#     4  10  18  27  50  89 122 176 214 265 313 370
#     4   9  18  37  61  89 122 167 214 260 318 385
#     4   9  18  35  60  86 128 169 215 263 319 387
#
# _framework density 20.969424
#
# number of rings (size 3 to 8) (size 9 to 14) (size 15 to 20)
#    0.000    2.476    1.905    0.286    2.667    0.000 
#   10.286    5.238    0.000    0.571    0.000    0.000 
#    0.000    0.000    0.000    0.000    0.000    0.000 
#
# Total GULP energy -233939.388597 kJ/mol
# GULP energy per Si atom -5569.985443 kJ/mol
# Density = 2.092170 g / cm^3
# Si number density = 20.969424 Si / 1000 Ang^3
#
#
#
# Elastic Constant Matrix: (Units=GPa)
#
#
# Indices 1 2 3 4 5 6 
#
# 1 31.8481 32.4877 26.9813 0.0000 0.0000 0.0000
# 2 32.4877 155.0835 45.7910 0.0000 0.0000 0.0000
# 3 26.9813 45.7910 105.8264 0.0000 0.0000 0.0000
# 4 0.0000 0.0000 0.0000 19.0122 0.0000 0.0000
# 5 0.0000 0.0000 0.0000 0.0000 7.5322 0.0000
# 6 0.0000 0.0000 0.0000 0.0000 0.0000 32.7555
#
#
#
# Elastic Compliance Matrix: (Units=1/GPa)
#
#
# Indices 1 2 3 4 5 6 
#
# 1 0.045942 -0.007069 -0.008655 0.000000 0.000000 0.000000
# 2 -0.007069 0.008480 -0.001867 0.000000 0.000000 0.000000
# 3 -0.008655 -0.001867 0.012464 0.000000 0.000000 0.000000
# 4 0.000000 0.000000 0.000000 0.052598 0.000000 0.000000
# 5 0.000000 0.000000 0.000000 0.000000 0.132763 0.000000
# 6 0.000000 0.000000 0.000000 0.000000 0.000000 0.030529
#
#
# Mechanical properties :
#
#
# Convention : Reuss Voigt Hill
#
# Bulk Modulus (GPa) = 31.54078 55.91978 43.73028
# Shear Modulus (GPa) = 15.21955 24.35986 19.78970
#
# Velocity S-wave (km/s) = 2.69698 3.41205 3.07537
# Velocity P-wave (km/s) = 4.97718 6.49984 5.78879
#
# Compressibility (1/GPa) = 0.03170498
#
# Stress axis : x y z
#
# Youngs Moduli (GPa) = 21.76667 117.92118 80.23153
#
# Poissons Ratio (x) = 0.83355 0.69437
# Poissons Ratio (y) = 0.15386 0.14981
# Poissons Ratio (z) = 0.18838 0.22018
#
# Static dielectric constant tensor:
#      x y z
#    x 1.752770 0.000000 0.000000 
#    y 0.000000 1.855830 0.000000 
#    z 0.000000 0.000000 1.754560 
# 
# From -- ./inp_files/68929.got.cif
#   From: 2010.05.17/outbox.cif.g08.bks.cpg/sg66_35_cif.got.tgz:68929.got - 2010.06.03 17:51:23.
