data_PCOD9495455
_publ_section_title
;
Structure prediction by ZEFSAII (Michael W. Deem and Ramdas Pophale) SiO2 
 PCOD9495455
Probable space group: C C C M
;
_chemical_formula_sum "Si O2"
_cell_formula_units_Z 96
_cell_length_a 20.177185
_cell_length_b 30.659003
_cell_length_c 9.169095
_cell_angle_alpha 90.000000
_cell_angle_beta 90.000000
_cell_angle_gamma 90.000000
_cell_volume 5672.115639
_symmetry_space_group_name_H-M "C C C M"
_symmetry_group_IT_number 66
_symmetry_cell_setting 'orthorhombic'
loop_
_space_group_symop_operation_xyz
x,y,z
-x,-y,z
x,-y,1/2-z
-x,y,1/2-z
-x,-y,-z
x,y,-z
-x,y,1/2+z
x,-y,1/2+z
1/2+x,1/2+y,z
1/2-x,1/2-y,z
1/2+x,1/2-y,1/2-z
1/2-x,1/2+y,1/2-z
1/2-x,1/2-y,-z
1/2+x,1/2+y,-z
1/2-x,1/2+y,1/2+z
1/2+x,1/2-y,1/2+z
loop_
_atom_site_type_symbol
_atom_site_label
_atom_site_fract_x
_atom_site_fract_y
_atom_site_fract_z
Si Si1 0.603845 0.365982 0.172184
Si Si2 0.902043 0.955595 0.831262
Si Si3 0.263710 0.869721 0.829477
Si Si4 0.759547 0.456889 0.334429
Si Si5 0.681110 0.223833 0.828888
Si Si6 0.933561 0.223664 0.325750
O O1 0.581125 0.411834 0.241990
O O2 0.684145 0.363253 0.184480
O O3 0.576819 0.324962 0.261195
O O4 0.587076 0.363543 0.000000
O O5 0.821257 0.956478 0.833050
O O6 0.923001 0.000000 0.750000
O O7 0.924361 0.954144 0.000000
O O8 0.281989 0.912267 0.739348
O O9 0.301876 0.825816 0.787450
O O10 0.276037 0.877773 0.000000
O O11 0.780747 0.500000 0.250000
O O12 0.781383 0.459037 0.500000
O O13 0.750000 0.250000 0.819928
O O14 0.627486 0.247058 0.728581
O O15 0.660277 0.225449 0.000000
O O16 0.938521 0.222467 0.500000
O O17 0.000000 0.241063 0.250000
#
# Coordination Sequence:
#
# PCOD9495455 Si02
#       6
#    16  16  16  16  16  16
#     4  10  18  32  51  72  98 132 170 213 262 311
#     4   9  16  26  41  66  95 128 167 211 258 306
#     4   9  17  29  49  73 101 134 168 206 255 308
#     4   9  16  25  39  62  97 133 168 206 250 300
#     4  10  19  36  57  79 106 138 172 213 264 316
#     4  12  25  39  55  76 103 137 176 219 263 314
#
# _framework density 16.924901999999999
#
# number of rings (size 3 to 8) (size 9 to 14) (size 15 to 20)
#    0.000    2.167    1.667    3.000    0.000    5.667 
#    0.000    0.000    0.000    0.500    0.000    3.500 
#    0.000    0.667    0.000    7.000    0.000    3.333 
#
# Total GULP energy -267983.523585 kJ/mol
# GULP energy per Si atom -5582.990075 kJ/mol
# Density = 1.688638 g / cm^3
# Si number density = 16.924902 Si / 1000 Ang^3
#
#
#
# Elastic Constant Matrix: (Units=GPa)
#
#
# Indices 1 2 3 4 5 6 
#
# 1 45.3450 37.6169 48.2264 0.0000 0.0000 0.0000
# 2 37.6169 144.2019 90.7249 0.0000 0.0000 0.0000
# 3 48.2264 90.7249 143.4272 0.0000 0.0000 0.0000
# 4 0.0000 0.0000 0.0000 33.4364 0.0000 0.0000
# 5 0.0000 0.0000 0.0000 0.0000 9.8818 0.0000
# 6 0.0000 0.0000 0.0000 0.0000 0.0000 -2.7921
#
#
#
# Elastic Compliance Matrix: (Units=1/GPa)
#
#
# Indices 1 2 3 4 5 6 
#
# 1 0.035030 -0.002869 -0.009964 0.000000 0.000000 0.000000
# 2 -0.002869 0.011754 -0.006470 0.000000 0.000000 0.000000
# 3 -0.009964 -0.006470 0.014415 0.000000 0.000000 0.000000
# 4 0.000000 0.000000 0.000000 0.029907 0.000000 0.000000
# 5 0.000000 0.000000 0.000000 0.000000 0.101196 0.000000
# 6 0.000000 0.000000 0.000000 0.000000 0.000000 -0.358150
#
#
# Mechanical properties :
#
#
# Convention : Reuss Voigt Hill
#
# Bulk Modulus (GPa) = 44.26172 76.23450 60.24811
# Shear Modulus (GPa) = -41.76748 18.53229 -11.61759
#
# Velocity S-wave (km/s) = -4.97310 3.31263 -2.62280
# Velocity P-wave (km/s) = 2.60134 7.73123 5.14805
#
# Compressibility (1/GPa) = 0.02259289
#
# Stress axis : x y z
#
# Youngs Moduli (GPa) = 28.54671 85.07774 69.37185
#
# Poissons Ratio (x) = 0.24413 0.69120
# Poissons Ratio (y) = 0.08191 0.44885
# Poissons Ratio (z) = 0.28443 0.55046
#
# Static dielectric constant tensor:
#      x y z
#    x 1.572490 0.000000 0.000000 
#    y 0.000000 1.567000 0.000000 
#    z 0.000000 0.000000 1.565150 
# 
# From -- ./inp_files/9280.got.cif
#   From: 2010.05.17/outbox.cif.g08.bks.cpg/sg66_5_cif.got.tgz:9280.got - 2010.06.03 17:51:23.
