data_PCOD9495205
_publ_section_title
;
Structure prediction by ZEFSAII (Michael W. Deem and Ramdas Pophale) SiO2 
 PCOD9495205
Probable space group: C C C M
;
_chemical_formula_sum "Si O2"
_cell_formula_units_Z 96
_cell_length_a 7.451870
_cell_length_b 23.216032
_cell_length_c 24.606370
_cell_angle_alpha 90.000000
_cell_angle_beta 90.000000
_cell_angle_gamma 90.000000
_cell_volume 4256.972197
_symmetry_space_group_name_H-M "C C C M"
_symmetry_group_IT_number 66
_symmetry_cell_setting 'orthorhombic'
loop_
_space_group_symop_operation_xyz
x,y,z
-x,-y,z
x,-y,1/2-z
-x,y,1/2-z
-x,-y,-z
x,y,-z
-x,y,1/2+z
x,-y,1/2+z
1/2+x,1/2+y,z
1/2-x,1/2-y,z
1/2+x,1/2-y,1/2-z
1/2-x,1/2+y,1/2-z
1/2-x,1/2-y,-z
1/2+x,1/2+y,-z
1/2-x,1/2+y,1/2+z
1/2+x,1/2-y,1/2+z
loop_
_atom_site_type_symbol
_atom_site_label
_atom_site_fract_x
_atom_site_fract_y
_atom_site_fract_z
Si Si1 0.262717 0.820025 0.000000
Si Si2 0.017018 0.858019 0.812823
Si Si3 0.459516 0.769935 0.310002
Si Si4 0.732495 0.035812 0.561721
Si Si5 0.633774 0.586531 0.584686
Si Si6 0.686252 0.184862 0.500000
Si Si7 0.162849 0.638816 0.383167
O O1 0.250000 0.750000 0.000000
O O2 0.179292 0.855910 0.949459
O O3 0.475283 0.827871 0.000000
O O4 0.066456 0.790059 0.816288
O O5 0.820756 0.863725 0.839371
O O6 0.000000 0.873646 0.750000
O O7 0.137126 0.896879 0.851910
O O8 0.500000 0.793948 0.250000
O O9 0.250000 0.750000 0.310940
O O10 0.478025 0.816287 0.357940
O O11 0.677206 0.047293 0.500000
O O12 0.613365 0.073717 0.602402
O O13 0.935335 0.061309 0.569821
O O14 0.743649 0.967942 0.570374
O O15 0.750000 0.250000 0.500000
O O16 0.740839 0.162687 0.440326
#
# Coordination Sequence:
#
# PCOD9495205 Si02
#       7
#     8  16  16  16  16   8  16
#     4  12  28  38  58 104 132 156 208 278 321 377
#     4   9  19  36  63  92 125 165 209 262 313 385
#     4   9  18  36  57  87 124 165 206 253 316 383
#     4  10  17  36  70  89 122 176 207 264 316 394
#     4  10  20  39  60  96 130 158 215 263 326 362
#     4  12  26  41  60  91 133 174 204 252 335 394
#     4  10  21  37  61  91 119 171 213 248 310 396
#
# _framework density 22.551241000000001
#
# number of rings (size 3 to 8) (size 9 to 14) (size 15 to 20)
#    0.000    2.000    2.500    2.000    7.000    0.000 
#    9.000    8.333    0.000    0.000    4.333    0.000 
#    0.000    0.000    0.000    0.000    0.000    0.000 
#
# Total GULP energy -267908.908372 kJ/mol
# GULP energy per Si atom -5581.435591 kJ/mol
# Density = 2.249991 g / cm^3
# Si number density = 22.551241 Si / 1000 Ang^3
#
#
#
# Elastic Constant Matrix: (Units=GPa)
#
#
# Indices 1 2 3 4 5 6 
#
# 1 64.1321 18.8466 15.2020 0.0000 0.0000 0.0000
# 2 18.8466 155.4514 73.9758 0.0000 0.0000 0.0000
# 3 15.2020 73.9758 192.5111 0.0000 0.0000 0.0000
# 4 0.0000 0.0000 0.0000 22.2849 0.0000 0.0000
# 5 0.0000 0.0000 0.0000 0.0000 19.8982 0.0000
# 6 0.0000 0.0000 0.0000 0.0000 0.0000 29.3276
#
#
#
# Elastic Compliance Matrix: (Units=1/GPa)
#
#
# Indices 1 2 3 4 5 6 
#
# 1 0.016234 -0.001662 -0.000643 0.000000 0.000000 0.000000
# 2 -0.001662 0.008043 -0.002959 0.000000 0.000000 0.000000
# 3 -0.000643 -0.002959 0.006382 0.000000 0.000000 0.000000
# 4 0.000000 0.000000 0.000000 0.044873 0.000000 0.000000
# 5 0.000000 0.000000 0.000000 0.000000 0.050256 0.000000
# 6 0.000000 0.000000 0.000000 0.000000 0.000000 0.034098
#
#
# Mechanical properties :
#
#
# Convention : Reuss Voigt Hill
#
# Bulk Modulus (GPa) = 49.67791 69.79371 59.73581
# Shear Modulus (GPa) = 28.22872 34.57349 31.40110
#
# Velocity S-wave (km/s) = 3.54186 3.91974 3.73558
# Velocity P-wave (km/s) = 6.22921 7.17649 6.71956
#
# Compressibility (1/GPa) = 0.02012967
#
# Stress axis : x y z
#
# Youngs Moduli (GPa) = 61.60014 124.33732 156.67939
#
# Poissons Ratio (x) = 0.20665 0.10079
# Poissons Ratio (y) = 0.10238 0.46366
# Poissons Ratio (z) = 0.03962 0.36795
#
# Static dielectric constant tensor:
#      x y z
#    x 1.926780 0.000000 0.000000 
#    y 0.000000 1.914870 0.000000 
#    z 0.000000 0.000000 1.816290 
# 
# From -- ./inp_files/55708.got.cif
#   From: 2010.05.17/outbox.cif.g08.bks.cpg/sg66_28_cif.got.tgz:55708.got - 2010.06.03 17:51:23.
