data_PCOD9495336
_publ_section_title
;
Structure prediction by ZEFSAII (Michael W. Deem and Ramdas Pophale) SiO2 
 PCOD9495336
Probable space group: C C C M
;
_chemical_formula_sum "Si O2"
_cell_formula_units_Z 64
_cell_length_a 25.285394
_cell_length_b 20.643852
_cell_length_c 5.581322
_cell_angle_alpha 90.000000
_cell_angle_beta 90.000000
_cell_angle_gamma 90.000000
_cell_volume 2913.382726
_symmetry_space_group_name_H-M "C C C M"
_symmetry_group_IT_number 66
_symmetry_cell_setting 'orthorhombic'
loop_
_space_group_symop_operation_xyz
x,y,z
-x,-y,z
x,-y,1/2-z
-x,y,1/2-z
-x,-y,-z
x,y,-z
-x,y,1/2+z
x,-y,1/2+z
1/2+x,1/2+y,z
1/2-x,1/2-y,z
1/2+x,1/2-y,1/2-z
1/2-x,1/2+y,1/2-z
1/2-x,1/2-y,-z
1/2+x,1/2+y,-z
1/2-x,1/2+y,1/2+z
1/2+x,1/2-y,1/2+z
loop_
_atom_site_type_symbol
_atom_site_label
_atom_site_fract_x
_atom_site_fract_y
_atom_site_fract_z
Si Si1 0.167225 0.230555 0.500000
Si Si2 0.634470 0.019142 0.000000
Si Si3 0.211156 0.370858 0.500000
Si Si4 0.861776 0.816456 0.000000
Si Si5 0.363449 0.533997 0.500000
Si Si6 0.442271 0.805136 0.500000
Si Si7 0.064634 0.314684 0.500000
Si Si8 0.758114 0.432098 0.500000
O O1 0.202850 0.294444 0.500000
O O2 0.170841 0.194000 0.753134
O O3 0.107109 0.257508 0.500000
O O4 0.607919 0.000000 0.250000
O O5 0.654287 0.093082 0.000000
O O6 0.691002 0.979551 0.000000
O O7 0.236715 0.393151 0.750530
O O8 0.880664 0.890612 0.000000
O O9 0.906548 0.759897 0.000000
O O10 0.380062 0.500000 0.750000
O O11 0.298969 0.534448 0.500000
O O12 0.504267 0.788621 0.500000
O O13 0.430450 0.845386 0.738824
#
# Coordination Sequence:
#
# PCOD9495336 Si02
#       8
#     8   8   8   8   8   8   8   8
#     4  10  19  33  49  74 106 133 158 195 253 318
#     4   8  14  25  42  62  83 115 159 200 235 269
#     4  10  18  30  49  71  99 131 162 207 249 291
#     4  10  21  35  50  73 103 130 162 208 262 307
#     4  12  23  38  57  74  91 125 179 229 257 294
#     4   8  14  27  46  69  92 122 157 193 237 295
#     4   8  14  25  46  70  92 126 161 185 225 299
#     4  10  19  33  50  69  91 128 175 213 247 287
#
# _framework density 21.967590999999999
#
# number of rings (size 3 to 8) (size 9 to 14) (size 15 to 20)
#    0.000    2.500    0.000    4.500    0.000    0.000 
#    0.000    3.750    0.000    0.000    0.000   42.000 
#    0.000    0.000    0.000  486.000    0.000    0.000 
#
# Total GULP energy -178338.996338 kJ/mol
# GULP energy per Si atom -5573.093636 kJ/mol
# Density = 2.191759 g / cm^3
# Si number density = 21.967591 Si / 1000 Ang^3
#
#
#
# Elastic Constant Matrix: (Units=GPa)
#
#
# Indices 1 2 3 4 5 6 
#
# 1 41.1749 20.0100 11.0737 0.0000 0.0000 0.0000
# 2 20.0100 83.5686 31.6055 0.0000 0.0000 0.0000
# 3 11.0737 31.6055 266.4312 0.0000 0.0000 0.0000
# 4 0.0000 0.0000 0.0000 127.8166 0.0000 0.0000
# 5 0.0000 0.0000 0.0000 0.0000 31.3002 0.0000
# 6 0.0000 0.0000 0.0000 0.0000 0.0000 9.4366
#
#
#
# Elastic Compliance Matrix: (Units=1/GPa)
#
#
# Indices 1 2 3 4 5 6 
#
# 1 0.027521 -0.006446 -0.000379 0.000000 0.000000 0.000000
# 2 -0.006446 0.014038 -0.001397 0.000000 0.000000 0.000000
# 3 -0.000379 -0.001397 0.003935 0.000000 0.000000 0.000000
# 4 0.000000 0.000000 0.000000 0.007824 0.000000 0.000000
# 5 0.000000 0.000000 0.000000 0.000000 0.031949 0.000000
# 6 0.000000 0.000000 0.000000 0.000000 0.000000 0.105971
#
#
# Mechanical properties :
#
#
# Convention : Reuss Voigt Hill
#
# Bulk Modulus (GPa) = 34.42509 57.39478 45.90993
# Shear Modulus (GPa) = 23.00261 55.60971 39.30616
#
# Velocity S-wave (km/s) = 3.23943 5.03680 4.23458
# Velocity P-wave (km/s) = 5.44947 7.74659 6.69725
#
# Compressibility (1/GPa) = 0.02904858
#
# Stress axis : x y z
#
# Youngs Moduli (GPa) = 36.33532 71.23383 254.14021
#
# Poissons Ratio (x) = 0.45921 0.09636
# Poissons Ratio (y) = 0.23423 0.35513
# Poissons Ratio (z) = 0.01378 0.09954
#
# Static dielectric constant tensor:
#      x y z
#    x 1.806900 0.000000 0.000000 
#    y 0.000000 1.790440 0.000000 
#    z 0.000000 0.000000 1.878010 
# 
# From -- ./inp_files/1739.got.cif
#   From: 2010.05.17/outbox.cif.g08.bks.cpg/sg66_1_cif.got.tgz:1739.got - 2010.06.03 17:51:23.
