data_PCOD9495681
_publ_section_title
;
Structure prediction by ZEFSAII (Michael W. Deem and Ramdas Pophale) SiO2 
 PCOD9495681
Probable space group: C C C M
;
_chemical_formula_sum "Si O2"
_cell_formula_units_Z 88
_cell_length_a 12.979551
_cell_length_b 16.167277
_cell_length_c 21.336772
_cell_angle_alpha 90.000000
_cell_angle_beta 90.000000
_cell_angle_gamma 90.000000
_cell_volume 4477.393506
_symmetry_space_group_name_H-M "C C C M"
_symmetry_group_IT_number 66
_symmetry_cell_setting 'orthorhombic'
loop_
_space_group_symop_operation_xyz
x,y,z
-x,-y,z
x,-y,1/2-z
-x,y,1/2-z
-x,-y,-z
x,y,-z
-x,y,1/2+z
x,-y,1/2+z
1/2+x,1/2+y,z
1/2-x,1/2-y,z
1/2+x,1/2-y,1/2-z
1/2-x,1/2+y,1/2-z
1/2-x,1/2-y,-z
1/2+x,1/2+y,-z
1/2-x,1/2+y,1/2+z
1/2+x,1/2-y,1/2+z
loop_
_atom_site_type_symbol
_atom_site_label
_atom_site_fract_x
_atom_site_fract_y
_atom_site_fract_z
Si Si1 0.698792 0.142964 0.639761
Si Si2 0.000000 0.833902 0.250000
Si Si3 0.597539 0.717132 0.073689
Si Si4 0.163273 0.697160 0.783416
Si Si5 0.263255 0.965802 0.179196
Si Si6 0.539679 0.586329 0.370963
O O1 0.606664 0.192982 0.606162
O O2 0.804754 0.169866 0.605484
O O3 0.696991 0.172857 0.712242
O O4 0.695986 0.044289 0.641046
O O5 0.920584 0.767659 0.276652
O O6 0.025317 0.893901 0.307273
O O7 0.494743 0.664175 0.087282
O O8 0.614087 0.724232 0.000000
O O9 0.250000 0.750000 0.817694
O O10 0.153798 0.608419 0.815451
O O11 0.157377 0.928833 0.150445
O O12 0.242043 0.000000 0.250000
O O13 0.500000 0.500000 0.398913
#
# Coordination Sequence:
#
# PCOD9495681 Si02
#       6
#    16   8  16  16  16  16
#     4  10  18  37  51  76 114 153 190 235 286 355
#     4  12  21  34  59  84 118 160 186 229 301 362
#     4  11  22  35  55  81 116 158 198 242 297 353
#     4  11  19  33  55  85 120 148 186 230 293 365
#     4  10  21  34  54  83 117 153 186 238 303 362
#     4  12  21  33  53  84 118 150 189 236 299 360
#
# _framework density 19.654292999999999
#
# number of rings (size 3 to 8) (size 9 to 14) (size 15 to 20)
#    0.000    1.091    7.273    2.455    0.000    0.364 
#    0.000    4.091    0.000    0.000    0.000    6.364 
#    0.000    0.000    0.000    0.000    0.000    0.000 
#
# Total GULP energy -245025.831588 kJ/mol
# GULP energy per Si atom -5568.768900 kJ/mol
# Density = 1.960956 g / cm^3
# Si number density = 19.654293 Si / 1000 Ang^3
#
#
#
# Elastic Constant Matrix: (Units=GPa)
#
#
# Indices 1 2 3 4 5 6 
#
# 1 31.9997 31.8328 -12.0174 0.0000 0.0000 0.0000
# 2 31.8328 162.9186 35.9286 0.0000 0.0000 0.0000
# 3 -12.0174 35.9286 60.2332 0.0000 0.0000 0.0000
# 4 0.0000 0.0000 0.0000 10.7056 0.0000 0.0000
# 5 0.0000 0.0000 0.0000 0.0000 -11.8767 0.0000
# 6 0.0000 0.0000 0.0000 0.0000 0.0000 31.5418
#
#
#
# Elastic Compliance Matrix: (Units=1/GPa)
#
#
# Indices 1 2 3 4 5 6 
#
# 1 0.053046 -0.014622 0.019306 0.000000 0.000000 0.000000
# 2 -0.014622 0.011098 -0.009537 0.000000 0.000000 0.000000
# 3 0.019306 -0.009537 0.026143 0.000000 0.000000 0.000000
# 4 0.000000 0.000000 0.000000 0.093409 0.000000 0.000000
# 5 0.000000 0.000000 0.000000 0.000000 -0.084198 0.000000
# 6 0.000000 0.000000 0.000000 0.000000 0.000000 0.031704
#
#
# Mechanical properties :
#
#
# Convention : Reuss Voigt Hill
#
# Bulk Modulus (GPa) = 12.41011 40.73773 26.57392
# Shear Modulus (GPa) = 29.80256 19.36796 24.58526
#
# Velocity S-wave (km/s) = 3.89824 3.14256 3.54062
# Velocity P-wave (km/s) = 5.15651 5.82578 5.50134
#
# Compressibility (1/GPa) = 0.08057948
#
# Stress axis : x y z
#
# Youngs Moduli (GPa) = 18.85139 90.10310 38.25131
#
# Poissons Ratio (x) = 1.31751 -0.73846
# Poissons Ratio (y) = 0.27565 0.36482
# Poissons Ratio (z) = -0.36394 0.85935
#
# Static dielectric constant tensor:
#      x y z
#    x 1.684440 0.000000 0.000000 
#    y 0.000000 1.639880 0.000000 
#    z 0.000000 0.000000 1.683930 
# 
# From -- ./inp_files/49850.got.cif
#   From: 2010.05.17/outbox.cif.g08.bks.cpg/sg66_25_cif.got.tgz:49850.got - 2010.06.03 17:51:23.
