data_PCOD9495672
_publ_section_title
;
Structure prediction by ZEFSAII (Michael W. Deem and Ramdas Pophale) SiO2 
 PCOD9495672
Probable space group: C C C M
;
_chemical_formula_sum "Si O2"
_cell_formula_units_Z 72
_cell_length_a 14.045049
_cell_length_b 9.053209
_cell_length_c 24.268799
_cell_angle_alpha 90.000000
_cell_angle_beta 90.000000
_cell_angle_gamma 90.000000
_cell_volume 3085.844872
_symmetry_space_group_name_H-M "C C C M"
_symmetry_group_IT_number 66
_symmetry_cell_setting 'orthorhombic'
loop_
_space_group_symop_operation_xyz
x,y,z
-x,-y,z
x,-y,1/2-z
-x,y,1/2-z
-x,-y,-z
x,y,-z
-x,y,1/2+z
x,-y,1/2+z
1/2+x,1/2+y,z
1/2-x,1/2-y,z
1/2+x,1/2-y,1/2-z
1/2-x,1/2+y,1/2-z
1/2-x,1/2-y,-z
1/2+x,1/2+y,-z
1/2-x,1/2+y,1/2+z
1/2+x,1/2-y,1/2+z
loop_
_atom_site_type_symbol
_atom_site_label
_atom_site_fract_x
_atom_site_fract_y
_atom_site_fract_z
Si Si1 0.567378 0.144368 0.879812
Si Si2 0.430899 0.371028 0.896654
Si Si3 0.147050 0.691313 0.500000
Si Si4 0.908379 0.387205 0.000000
Si Si5 0.756766 0.990105 0.328421
Si Si6 0.250000 0.750000 0.252773
O O1 0.499982 0.274004 0.856843
O O2 0.593382 0.193917 0.942519
O O3 0.500000 0.000000 0.880950
O O4 0.667571 0.094118 0.855119
O O5 0.500000 0.500000 0.917905
O O6 0.400730 0.258368 0.945177
O O7 0.337568 0.440374 0.867615
O O8 0.250000 0.750000 0.500000
O O9 0.167272 0.516594 0.500000
O O10 0.000000 0.500000 0.000000
O O11 0.709419 0.126595 0.294435
O O12 0.802757 0.865478 0.288057
#
# Coordination Sequence:
#
# PCOD9495672 Si02
#       6
#    16  16   8   8  16   8
#     4  11  21  40  70 100 137 183 226 277 338 417
#     4  12  25  41  68 107 145 176 225 286 341 415
#     4  12  23  40  68 103 140 190 225 265 339 414
#     4  10  18  36  59  97 135 169 219 273 310 406
#     4  11  24  45  68  97 133 185 232 288 364 408
#     4  10  24  46  68  92 136 174 232 310 346 408
#
# _framework density 23.332345
#
# number of rings (size 3 to 8) (size 9 to 14) (size 15 to 20)
#    0.000    0.889    4.444    4.333    1.556    0.000 
#    0.000   16.667    0.000    6.667    0.000    0.000 
#    0.000    0.000    0.000    0.000    0.000    0.000 
#
# Total GULP energy -200406.381902 kJ/mol
# GULP energy per Si atom -5566.843942 kJ/mol
# Density = 2.327924 g / cm^3
# Si number density = 23.332345 Si / 1000 Ang^3
#
#
#
# Elastic Constant Matrix: (Units=GPa)
#
#
# Indices 1 2 3 4 5 6 
#
# 1 134.7289 37.6210 43.7407 0.0000 0.0000 0.0000
# 2 37.6210 117.6787 28.6684 0.0000 0.0000 0.0000
# 3 43.7407 28.6684 80.7151 0.0000 0.0000 0.0000
# 4 0.0000 0.0000 0.0000 17.8883 0.0000 0.0000
# 5 0.0000 0.0000 0.0000 0.0000 0.3687 0.0000
# 6 0.0000 0.0000 0.0000 0.0000 0.0000 48.5599
#
#
#
# Elastic Compliance Matrix: (Units=1/GPa)
#
#
# Indices 1 2 3 4 5 6 
#
# 1 0.009391 -0.001929 -0.004404 0.000000 0.000000 0.000000
# 2 -0.001929 0.009699 -0.002399 0.000000 0.000000 0.000000
# 3 -0.004404 -0.002399 0.015628 0.000000 0.000000 0.000000
# 4 0.000000 0.000000 0.000000 0.055902 0.000000 0.000000
# 5 0.000000 0.000000 0.000000 0.000000 2.712558 0.000000
# 6 0.000000 0.000000 0.000000 0.000000 0.000000 0.020593
#
#
# Mechanical properties :
#
#
# Convention : Reuss Voigt Hill
#
# Bulk Modulus (GPa) = 57.96150 61.46476 59.71313
# Shear Modulus (GPa) = 1.75624 28.23622 14.99623
#
# Velocity S-wave (km/s) = 0.86853 3.48253 2.53795
# Velocity P-wave (km/s) = 5.08934 6.52465 5.85117
#
# Compressibility (1/GPa) = 0.01725283
#
# Stress axis : x y z
#
# Youngs Moduli (GPa) = 106.48778 103.10305 63.98813
#
# Poissons Ratio (x) = 0.19892 0.28179
# Poissons Ratio (y) = 0.20545 0.15353
# Poissons Ratio (z) = 0.46894 0.24738
#
# Static dielectric constant tensor:
#      x y z
#    x 1.889540 0.000000 0.000000 
#    y 0.000000 1.778100 0.000000 
#    z 0.000000 0.000000 1.930340 
# 
# From -- ./inp_files/64383.got.cif
#   From: 2010.05.17/outbox.cif.g08.bks.cpg/sg66_33_cif.got.tgz:64383.got - 2010.06.03 17:51:23.
