data_PCOD9495417
_publ_section_title
;
Structure prediction by ZEFSAII (Michael W. Deem and Ramdas Pophale) SiO2 
 PCOD9495417
Probable space group: C C C M
;
_chemical_formula_sum "Si O2"
_cell_formula_units_Z 96
_cell_length_a 11.970006
_cell_length_b 23.091551
_cell_length_c 13.846722
_cell_angle_alpha 90.000000
_cell_angle_beta 90.000000
_cell_angle_gamma 90.000000
_cell_volume 3827.317097
_symmetry_space_group_name_H-M "C C C M"
_symmetry_group_IT_number 66
_symmetry_cell_setting 'orthorhombic'
loop_
_space_group_symop_operation_xyz
x,y,z
-x,-y,z
x,-y,1/2-z
-x,y,1/2-z
-x,-y,-z
x,y,-z
-x,y,1/2+z
x,-y,1/2+z
1/2+x,1/2+y,z
1/2-x,1/2-y,z
1/2+x,1/2-y,1/2-z
1/2-x,1/2+y,1/2-z
1/2-x,1/2-y,-z
1/2+x,1/2+y,-z
1/2-x,1/2+y,1/2+z
1/2+x,1/2-y,1/2+z
loop_
_atom_site_type_symbol
_atom_site_label
_atom_site_fract_x
_atom_site_fract_y
_atom_site_fract_z
Si Si1 0.724773 0.612324 0.383307
Si Si2 0.093843 0.461011 0.847297
Si Si3 0.033554 0.344424 0.382465
Si Si4 0.836152 0.015382 0.389353
Si Si5 0.875074 0.761608 0.882085
Si Si6 0.977908 0.120866 0.383624
O O1 0.737901 0.608414 0.500000
O O2 0.699071 0.546934 0.346711
O O3 0.604779 0.639551 0.363505
O O4 0.838052 0.643322 0.349776
O O5 0.107853 0.500000 0.750000
O O6 0.039546 0.398141 0.845444
O O7 0.216326 0.453228 0.890312
O O8 0.000000 0.500000 0.900481
O O9 0.033938 0.346327 0.500000
O O10 0.969220 0.285562 0.355318
O O11 0.869669 0.002426 0.500000
O O12 0.929789 0.058937 0.348963
O O13 0.750000 0.750000 0.847726
O O14 0.903661 0.826247 0.850762
O O15 0.873547 0.760997 0.000000
O O16 0.969527 0.116853 0.500000
#
# Coordination Sequence:
#
# PCOD9495417 Si02
#       6
#    16  16  16  16  16  16
#     4   9  17  28  46  76 110 144 180 220 269 321
#     4  11  22  34  50  75 105 135 175 221 276 325
#     4  10  19  32  52  78 109 143 184 228 269 326
#     4  10  18  31  53  78 109 143 178 221 268 324
#     4   9  17  29  46  74 111 146 180 220 267 320
#     4   9  17  29  48  78 114 146 177 220 273 324
#
# _framework density 25.082843
#
# number of rings (size 3 to 8) (size 9 to 14) (size 15 to 20)
#    0.000    2.333    1.667    2.000    0.000    6.000 
#    0.000    3.333    0.000    3.000    0.000   14.000 
#    0.000    0.000    0.000    0.000    0.000    1.500 
#
# Total GULP energy -268010.522725 kJ/mol
# GULP energy per Si atom -5583.552557 kJ/mol
# Density = 2.502575 g / cm^3
# Si number density = 25.082843 Si / 1000 Ang^3
#
#
#
# Elastic Constant Matrix: (Units=GPa)
#
#
# Indices 1 2 3 4 5 6 
#
# 1 180.3011 53.3654 21.0548 0.0000 0.0000 0.0000
# 2 53.3654 125.2316 12.0018 0.0000 0.0000 0.0000
# 3 21.0548 12.0018 101.4745 0.0000 0.0000 0.0000
# 4 0.0000 0.0000 0.0000 17.9001 0.0000 0.0000
# 5 0.0000 0.0000 0.0000 0.0000 28.1197 0.0000
# 6 0.0000 0.0000 0.0000 0.0000 0.0000 50.7400
#
#
#
# Elastic Compliance Matrix: (Units=1/GPa)
#
#
# Indices 1 2 3 4 5 6 
#
# 1 0.006450 -0.002651 -0.001025 0.000000 0.000000 0.000000
# 2 -0.002651 0.009166 -0.000534 0.000000 0.000000 0.000000
# 3 -0.001025 -0.000534 0.010131 0.000000 0.000000 0.000000
# 4 0.000000 0.000000 0.000000 0.055866 0.000000 0.000000
# 5 0.000000 0.000000 0.000000 0.000000 0.035562 0.000000
# 6 0.000000 0.000000 0.000000 0.000000 0.000000 0.019708
#
#
# Mechanical properties :
#
#
# Convention : Reuss Voigt Hill
#
# Bulk Modulus (GPa) = 57.71101 64.42792 61.06947
# Shear Modulus (GPa) = 33.09548 40.72431 36.90989
#
# Velocity S-wave (km/s) = 3.63636 4.03375 3.84020
# Velocity P-wave (km/s) = 6.37879 6.88743 6.63798
#
# Compressibility (1/GPa) = 0.01732772
#
# Stress axis : x y z
#
# Youngs Moduli (GPa) = 155.02755 109.10025 98.71159
#
# Poissons Ratio (x) = 0.28917 0.10117
# Poissons Ratio (y) = 0.41091 0.05272
# Poissons Ratio (z) = 0.15889 0.05827
#
# Static dielectric constant tensor:
#      x y z
#    x 1.998300 0.000000 0.000000 
#    y 0.000000 1.959960 0.000000 
#    z 0.000000 0.000000 2.078250 
# 
# From -- ./inp_files/57074.got.cif
#   From: 2010.05.17/outbox.cif.g08.bks.cpg/sg66_29_cif.got.tgz:57074.got - 2010.06.03 17:51:23.
