data_PCOD9495469
_publ_section_title
;
Structure prediction by ZEFSAII (Michael W. Deem and Ramdas Pophale) SiO2 
 PCOD9495469
Probable space group: C C C M
;
_chemical_formula_sum "Si O2"
_cell_formula_units_Z 96
_cell_length_a 20.966371
_cell_length_b 26.974270
_cell_length_c 8.957352
_cell_angle_alpha 90.000000
_cell_angle_beta 90.000000
_cell_angle_gamma 90.000000
_cell_volume 5065.853285
_symmetry_space_group_name_H-M "C C C M"
_symmetry_group_IT_number 66
_symmetry_cell_setting 'orthorhombic'
loop_
_space_group_symop_operation_xyz
x,y,z
-x,-y,z
x,-y,1/2-z
-x,y,1/2-z
-x,-y,-z
x,y,-z
-x,y,1/2+z
x,-y,1/2+z
1/2+x,1/2+y,z
1/2-x,1/2-y,z
1/2+x,1/2-y,1/2-z
1/2-x,1/2+y,1/2-z
1/2-x,1/2-y,-z
1/2+x,1/2+y,-z
1/2-x,1/2+y,1/2+z
1/2+x,1/2-y,1/2+z
loop_
_atom_site_type_symbol
_atom_site_label
_atom_site_fract_x
_atom_site_fract_y
_atom_site_fract_z
Si Si1 0.194062 0.445971 0.180893
Si Si2 0.311478 0.620375 0.673660
Si Si3 0.915306 0.289274 0.830430
Si Si4 0.568243 0.672475 0.679091
Si Si5 0.564028 0.110846 0.324063
Si Si6 0.267114 0.193080 0.659847
O O1 0.186719 0.500000 0.250000
O O2 0.263279 0.423245 0.226718
O O3 0.131830 0.413151 0.225973
O O4 0.194435 0.447396 0.000000
O O5 0.326222 0.612845 0.500000
O O6 0.375689 0.637069 0.758426
O O7 0.264360 0.666679 0.701193
O O8 0.919941 0.231375 0.785135
O O9 0.938188 0.330673 0.715291
O O10 0.842187 0.305532 0.841182
O O11 0.942309 0.293640 0.000000
O O12 0.500000 0.659430 0.750000
O O13 0.566604 0.669052 0.500000
O O14 0.500000 0.088638 0.250000
O O15 0.560086 0.103934 0.500000
O O16 0.243404 0.171316 0.500000
O O17 0.250000 0.250000 0.661320
#
# Coordination Sequence:
#
# PCOD9495469 Si02
#       6
#    16  16  16  16  16  16
#     4  10  24  43  63  87 113 143 190 244 298 354
#     4  11  22  38  59  86 116 150 192 242 293 348
#     4  10  20  34  55  83 118 159 200 236 275 329
#     4  11  23  39  57  86 122 161 200 237 283 342
#     4  11  23  39  57  84 119 156 198 241 286 341
#     4  10  18  32  53  82 115 151 195 236 277 335
#
# _framework density 18.950410000000002
#
# number of rings (size 3 to 8) (size 9 to 14) (size 15 to 20)
#    0.000    1.500    3.333    2.000    0.000    6.000 
#    0.000    1.667    0.000    0.500    0.000    3.500 
#    0.000    0.000    0.000    0.000    0.000    0.000 
#
# Total GULP energy -267384.898987 kJ/mol
# GULP energy per Si atom -5570.518729 kJ/mol
# Density = 1.890728 g / cm^3
# Si number density = 18.950410 Si / 1000 Ang^3
#
#
#
# Elastic Constant Matrix: (Units=GPa)
#
#
# Indices 1 2 3 4 5 6 
#
# 1 147.1462 51.7342 47.6964 0.0000 0.0000 0.0000
# 2 51.7342 82.0043 33.1193 0.0000 0.0000 0.0000
# 3 47.6964 33.1193 42.8590 0.0000 0.0000 0.0000
# 4 0.0000 0.0000 0.0000 27.1758 0.0000 0.0000
# 5 0.0000 0.0000 0.0000 0.0000 59.0022 0.0000
# 6 0.0000 0.0000 0.0000 0.0000 0.0000 13.0713
#
#
#
# Elastic Compliance Matrix: (Units=1/GPa)
#
#
# Indices 1 2 3 4 5 6 
#
# 1 0.011093 -0.002926 -0.010085 0.000000 0.000000 0.000000
# 2 -0.002926 0.018498 -0.011039 0.000000 0.000000 0.000000
# 3 -0.010085 -0.011039 0.043086 0.000000 0.000000 0.000000
# 4 0.000000 0.000000 0.000000 0.036797 0.000000 0.000000
# 5 0.000000 0.000000 0.000000 0.000000 0.016949 0.000000
# 6 0.000000 0.000000 0.000000 0.000000 0.000000 0.076503
#
#
# Mechanical properties :
#
#
# Convention : Reuss Voigt Hill
#
# Bulk Modulus (GPa) = 40.68507 59.67879 50.18193
# Shear Modulus (GPa) = 19.28874 29.14717 24.21795
#
# Velocity S-wave (km/s) = 3.19384 3.92609 3.57874
# Velocity P-wave (km/s) = 5.92593 7.21891 6.60414
#
# Compressibility (1/GPa) = 0.02457904
#
# Stress axis : x y z
#
# Youngs Moduli (GPa) = 90.14310 54.05853 23.20956
#
# Poissons Ratio (x) = 0.15815 0.23406
# Poissons Ratio (y) = 0.26372 0.25621
# Poissons Ratio (z) = 0.90908 0.59675
#
# Static dielectric constant tensor:
#      x y z
#    x 1.715920 0.000000 0.000000 
#    y 0.000000 1.631540 0.000000 
#    z 0.000000 0.000000 1.695720 
# 
# From -- ./inp_files/8055.got.cif
#   From: 2010.05.17/outbox.cif.g08.bks.cpg/sg66_5_cif.got.tgz:8055.got - 2010.06.03 17:51:23.
