data_PCOD9495719
_publ_section_title
;
Structure prediction by ZEFSAII (Michael W. Deem and Ramdas Pophale) SiO2 
 PCOD9495719
Probable space group: C C C M
;
_chemical_formula_sum "Si O2"
_cell_formula_units_Z 96
_cell_length_a 31.651529
_cell_length_b 28.346843
_cell_length_c 9.115112
_cell_angle_alpha 90.000000
_cell_angle_beta 90.000000
_cell_angle_gamma 90.000000
_cell_volume 8178.269204
_symmetry_space_group_name_H-M "C C C M"
_symmetry_group_IT_number 66
_symmetry_cell_setting 'orthorhombic'
loop_
_space_group_symop_operation_xyz
x,y,z
-x,-y,z
x,-y,1/2-z
-x,y,1/2-z
-x,-y,-z
x,y,-z
-x,y,1/2+z
x,-y,1/2+z
1/2+x,1/2+y,z
1/2-x,1/2-y,z
1/2+x,1/2-y,1/2-z
1/2-x,1/2+y,1/2-z
1/2-x,1/2-y,-z
1/2+x,1/2+y,-z
1/2-x,1/2+y,1/2+z
1/2+x,1/2-y,1/2+z
loop_
_atom_site_type_symbol
_atom_site_label
_atom_site_fract_x
_atom_site_fract_y
_atom_site_fract_z
Si Si1 0.704428 0.276831 0.831697
Si Si2 0.543481 0.050508 0.175086
Si Si3 0.129147 0.606303 0.825742
Si Si4 0.744162 0.359394 0.331970
Si Si5 0.205957 0.449417 0.822800
Si Si6 0.335421 0.806569 0.331470
O O1 0.750000 0.250000 0.827291
O O2 0.713236 0.328475 0.766758
O O3 0.672924 0.244486 0.737922
O O4 0.691024 0.278752 0.000000
O O5 0.500000 0.067144 0.250000
O O6 0.582686 0.085302 0.198480
O O7 0.553145 0.000000 0.250000
O O8 0.537728 0.044320 0.000000
O O9 0.163157 0.573331 0.742761
O O10 0.135211 0.658815 0.762587
O O11 0.138163 0.605701 0.000000
O O12 0.729189 0.359245 0.500000
O O13 0.756490 0.412368 0.287147
O O14 0.789484 0.332403 0.330594
O O15 0.212537 0.500000 0.750000
O O16 0.202631 0.452220 0.000000
O O17 0.349247 0.803760 0.500000
#
# Coordination Sequence:
#
# PCOD9495719 Si02
#       6
#    16  16  16  16  16  16
#     4   9  15  22  34  50  66  84 105 129 156 188
#     4  10  20  31  43  55  67  84 106 134 166 203
#     4  10  19  29  40  54  69  84 105 134 167 203
#     4   8  15  25  34  46  64  85 108 131 158 192
#     4  10  19  28  38  51  67  88 111 137 168 201
#     4   9  16  25  37  51  67  86 104 126 158 195
#
# _framework density 11.738424
#
# number of rings (size 3 to 8) (size 9 to 14) (size 15 to 20)
#    0.000    2.667    0.000    4.500    0.000   10.667 
#    0.000    0.000    0.000    0.000    0.000    0.000 
#    0.000    0.000    0.000    0.000    0.000    0.000 
#
# Total GULP energy -267305.750150 kJ/mol
# GULP energy per Si atom -5568.869795 kJ/mol
# Density = 1.171171 g / cm^3
# Si number density = 11.738424 Si / 1000 Ang^3
#
#
#
# Elastic Constant Matrix: (Units=GPa)
#
#
# Indices 1 2 3 4 5 6 
#
# 1 30.8699 39.4569 32.4474 0.0000 0.0000 0.0000
# 2 39.4569 86.0168 54.4086 0.0000 0.0000 0.0000
# 3 32.4474 54.4086 83.0619 0.0000 0.0000 0.0000
# 4 0.0000 0.0000 0.0000 21.8650 0.0000 0.0000
# 5 0.0000 0.0000 0.0000 0.0000 9.6946 0.0000
# 6 0.0000 0.0000 0.0000 0.0000 0.0000 16.4082
#
#
#
# Elastic Compliance Matrix: (Units=1/GPa)
#
#
# Indices 1 2 3 4 5 6 
#
# 1 0.086077 -0.031102 -0.013252 0.000000 0.000000 0.000000
# 2 -0.031102 0.031088 -0.008214 0.000000 0.000000 0.000000
# 3 -0.013252 -0.008214 0.022597 0.000000 0.000000 0.000000
# 4 0.000000 0.000000 0.000000 0.045735 0.000000 0.000000
# 5 0.000000 0.000000 0.000000 0.000000 0.103150 0.000000
# 6 0.000000 0.000000 0.000000 0.000000 0.000000 0.060945
#
#
# Mechanical properties :
#
#
# Convention : Reuss Voigt Hill
#
# Bulk Modulus (GPa) = 28.88081 50.28604 39.58343
# Shear Modulus (GPa) = 10.72336 14.50261 12.61298
#
# Velocity S-wave (km/s) = 3.02574 3.51876 3.28152
# Velocity P-wave (km/s) = 6.07156 7.70978 6.93918
#
# Compressibility (1/GPa) = 0.03462506
#
# Stress axis : x y z
#
# Youngs Moduli (GPa) = 11.61745 32.16650 44.25413
#
# Poissons Ratio (x) = 1.00044 0.58648
# Poissons Ratio (y) = 0.36133 0.36351
# Poissons Ratio (z) = 0.15396 0.26422
#
# Static dielectric constant tensor:
#      x y z
#    x 1.350920 0.000000 0.000000 
#    y 0.000000 1.384700 0.000000 
#    z 0.000000 0.000000 1.395360 
# 
# From -- ./inp_files/10643.got.cif
#   From: 2010.05.17/outbox.cif.g08.bks.cpg/sg66_6_cif.got.tgz:10643.got - 2010.06.03 17:51:23.
