data_PCOD9495727
_publ_section_title
;
Structure prediction by ZEFSAII (Michael W. Deem and Ramdas Pophale) SiO2 
 PCOD9495727
Probable space group: C C C M
;
_chemical_formula_sum "Si O2"
_cell_formula_units_Z 96
_cell_length_a 23.669181
_cell_length_b 27.455361
_cell_length_c 8.645217
_cell_angle_alpha 90.000000
_cell_angle_beta 90.000000
_cell_angle_gamma 90.000000
_cell_volume 5618.058899
_symmetry_space_group_name_H-M "C C C M"
_symmetry_group_IT_number 66
_symmetry_cell_setting 'orthorhombic'
loop_
_space_group_symop_operation_xyz
x,y,z
-x,-y,z
x,-y,1/2-z
-x,y,1/2-z
-x,-y,-z
x,y,-z
-x,y,1/2+z
x,-y,1/2+z
1/2+x,1/2+y,z
1/2-x,1/2-y,z
1/2+x,1/2-y,1/2-z
1/2-x,1/2+y,1/2-z
1/2-x,1/2-y,-z
1/2+x,1/2+y,-z
1/2-x,1/2+y,1/2+z
1/2+x,1/2-y,1/2+z
loop_
_atom_site_type_symbol
_atom_site_label
_atom_site_fract_x
_atom_site_fract_y
_atom_site_fract_z
Si Si1 0.835526 0.383214 0.817821
Si Si2 0.436655 0.447646 0.315486
Si Si3 0.936673 0.446930 0.187334
Si Si4 0.251575 0.548544 0.326373
Si Si5 0.149383 0.127286 0.174560
Si Si6 0.242871 0.806175 0.812954
O O1 0.896187 0.402338 0.760211
O O2 0.795858 0.429392 0.784001
O O3 0.797168 0.338263 0.756270
O O4 0.841941 0.374443 0.000000
O O5 0.415194 0.500000 0.250000
O O6 0.500000 0.442350 0.250000
O O7 0.437552 0.451040 0.500000
O O8 0.400173 0.400875 0.263864
O O9 0.917084 0.500000 0.250000
O O10 0.000000 0.440179 0.250000
O O11 0.936789 0.448851 0.000000
O O12 0.273558 0.500000 0.250000
O O13 0.229437 0.540761 0.500000
O O14 0.301789 0.586712 0.334621
O O15 0.183735 0.171545 0.252674
O O16 0.131264 0.139933 0.000000
O O17 0.250000 0.750000 0.768826
O O18 0.242032 0.809704 0.000000
#
# Coordination Sequence:
#
# PCOD9495727 Si02
#       6
#    16  16  16  16  16  16
#     4   9  18  31  47  68  93 121 156 197 239 287
#     4  11  21  34  52  75 105 140 175 208 245 292
#     4  10  19  30  45  66  94 127 160 192 226 271
#     4  10  19  28  42  65  94 126 156 191 235 285
#     4  10  20  33  49  72 100 130 166 206 249 297
#     4   9  18  34  55  76  97 125 162 206 258 308
#
# _framework density 17.087751999999998
#
# number of rings (size 3 to 8) (size 9 to 14) (size 15 to 20)
#    0.000    2.167    0.000    5.000    0.000    6.333 
#    0.000    0.000    0.000    1.000    0.000    2.333 
#    0.000    0.000    0.000    0.000    0.000    0.000 
#
# Total GULP energy -267309.337491 kJ/mol
# GULP energy per Si atom -5568.944531 kJ/mol
# Density = 1.704886 g / cm^3
# Si number density = 17.087752 Si / 1000 Ang^3
#
#
#
# Elastic Constant Matrix: (Units=GPa)
#
#
# Indices 1 2 3 4 5 6 
#
# 1 86.1453 53.0176 21.2766 0.0000 0.0000 0.0000
# 2 53.0176 105.5561 41.1748 0.0000 0.0000 0.0000
# 3 21.2766 41.1748 50.4696 0.0000 0.0000 0.0000
# 4 0.0000 0.0000 0.0000 18.0421 0.0000 0.0000
# 5 0.0000 0.0000 0.0000 0.0000 14.1369 0.0000
# 6 0.0000 0.0000 0.0000 0.0000 0.0000 25.8778
#
#
#
# Elastic Compliance Matrix: (Units=1/GPa)
#
#
# Indices 1 2 3 4 5 6 
#
# 1 0.016805 -0.008327 -0.000291 0.000000 0.000000 0.000000
# 2 -0.008327 0.018022 -0.011192 0.000000 0.000000 0.000000
# 3 -0.000291 -0.011192 0.029068 0.000000 0.000000 0.000000
# 4 0.000000 0.000000 0.000000 0.055426 0.000000 0.000000
# 5 0.000000 0.000000 0.000000 0.000000 0.070737 0.000000
# 6 0.000000 0.000000 0.000000 0.000000 0.000000 0.038643
#
#
# Mechanical properties :
#
#
# Convention : Reuss Voigt Hill
#
# Bulk Modulus (GPa) = 41.19694 52.56767 46.88231
# Shear Modulus (GPa) = 18.08884 20.05814 19.07349
#
# Velocity S-wave (km/s) = 3.25712 3.42984 3.34459
# Velocity P-wave (km/s) = 6.18922 6.82021 6.51236
#
# Compressibility (1/GPa) = 0.02427365
#
# Stress axis : x y z
#
# Youngs Moduli (GPa) = 59.50584 55.48769 34.40235
#
# Poissons Ratio (x) = 0.46206 0.01001
# Poissons Ratio (y) = 0.49552 0.38505
# Poissons Ratio (z) = 0.01732 0.62104
#
# Static dielectric constant tensor:
#      x y z
#    x 1.595410 0.000000 0.000000 
#    y 0.000000 1.606930 0.000000 
#    z 0.000000 0.000000 1.622160 
# 
# From -- ./inp_files/9287.got.cif
#   From: 2010.05.17/outbox.cif.g08.bks.cpg/sg66_5_cif.got.tgz:9287.got - 2010.06.03 17:51:23.
