data_PCOD9495725
_publ_section_title
;
Structure prediction by ZEFSAII (Michael W. Deem and Ramdas Pophale) SiO2 
 PCOD9495725
Probable space group: C C C M
;
_chemical_formula_sum "Si O2"
_cell_formula_units_Z 80
_cell_length_a 27.439479
_cell_length_b 19.326365
_cell_length_c 9.556289
_cell_angle_alpha 90.000000
_cell_angle_beta 90.000000
_cell_angle_gamma 90.000000
_cell_volume 5067.751532
_symmetry_space_group_name_H-M "C C C M"
_symmetry_group_IT_number 66
_symmetry_cell_setting 'orthorhombic'
loop_
_space_group_symop_operation_xyz
x,y,z
-x,-y,z
x,-y,1/2-z
-x,y,1/2-z
-x,-y,-z
x,y,-z
-x,y,1/2+z
x,-y,1/2+z
1/2+x,1/2+y,z
1/2-x,1/2-y,z
1/2+x,1/2-y,1/2-z
1/2-x,1/2+y,1/2-z
1/2-x,1/2-y,-z
1/2+x,1/2+y,-z
1/2-x,1/2+y,1/2+z
1/2+x,1/2-y,1/2+z
loop_
_atom_site_type_symbol
_atom_site_label
_atom_site_fract_x
_atom_site_fract_y
_atom_site_fract_z
Si Si1 0.194774 0.564498 0.341471
Si Si2 0.643243 0.334720 0.841597
Si Si3 0.298369 0.796786 0.162104
Si Si4 0.950918 0.928128 0.668580
Si Si5 0.310520 0.560043 0.652728
O O1 0.175136 0.500000 0.250000
O O2 0.174762 0.567625 0.500000
O O3 0.192909 0.637323 0.259910
O O4 0.252772 0.551337 0.356556
O O5 0.654548 0.253651 0.832028
O O6 0.590547 0.369097 0.818432
O O7 0.677886 0.369197 0.728166
O O8 0.658346 0.355339 0.000000
O O9 0.250000 0.750000 0.195837
O O10 0.291425 0.819382 0.000000
O O11 0.957870 0.939650 0.500000
O O12 0.000000 0.905563 0.750000
O O13 0.938212 0.000000 0.750000
O O14 0.330297 0.500000 0.750000
O O15 0.332752 0.556330 0.500000
#
# Coordination Sequence:
#
# PCOD9495725 Si02
#       5
#    16  16  16  16  16
#     4  10  20  32  46  64  89 123 162 198 233 275
#     4  10  20  32  47  68  92 122 158 197 240 288
#     4  10  19  32  49  67  94 127 158 196 242 285
#     4  10  20  34  51  70  95 125 163 203 245 288
#     4  10  19  28  41  61  87 119 157 197 232 273
#
# _framework density 15.786092999999999
#
# number of rings (size 3 to 8) (size 9 to 14) (size 15 to 20)
#    0.000    2.000    2.000    3.000    0.000    6.000 
#    0.000    0.000    0.000    0.000    0.000    0.000 
#    0.000    0.800    0.000    9.200    0.000    2.800 
#
# Total GULP energy -222672.484068 kJ/mol
# GULP energy per Si atom -5566.812102 kJ/mol
# Density = 1.575016 g / cm^3
# Si number density = 15.786093 Si / 1000 Ang^3
#
#
#
# Elastic Constant Matrix: (Units=GPa)
#
#
# Indices 1 2 3 4 5 6 
#
# 1 46.2501 19.3778 18.5689 0.0000 0.0000 0.0000
# 2 19.3778 98.5207 76.0272 0.0000 0.0000 0.0000
# 3 18.5689 76.0272 140.3017 0.0000 0.0000 0.0000
# 4 0.0000 0.0000 0.0000 20.4554 0.0000 0.0000
# 5 0.0000 0.0000 0.0000 0.0000 35.0537 0.0000
# 6 0.0000 0.0000 0.0000 0.0000 0.0000 23.9639
#
#
#
# Elastic Compliance Matrix: (Units=1/GPa)
#
#
# Indices 1 2 3 4 5 6 
#
# 1 0.023653 -0.003844 -0.001047 0.000000 0.000000 0.000000
# 2 -0.003844 0.018070 -0.009283 0.000000 0.000000 0.000000
# 3 -0.001047 -0.009283 0.012296 0.000000 0.000000 0.000000
# 4 0.000000 0.000000 0.000000 0.048887 0.000000 0.000000
# 5 0.000000 0.000000 0.000000 0.000000 0.028528 0.000000
# 6 0.000000 0.000000 0.000000 0.000000 0.000000 0.041729
#
#
# Mechanical properties :
#
#
# Convention : Reuss Voigt Hill
#
# Bulk Modulus (GPa) = 38.95575 57.00226 47.97900
# Shear Modulus (GPa) = 23.80183 27.30119 25.55151
#
# Velocity S-wave (km/s) = 3.88722 4.16317 4.02756
# Velocity P-wave (km/s) = 6.69911 7.70045 7.21717
#
# Compressibility (1/GPa) = 0.02567015
#
# Stress axis : x y z
#
# Youngs Moduli (GPa) = 42.27864 55.34112 81.32447
#
# Poissons Ratio (x) = 0.21272 0.08519
# Poissons Ratio (y) = 0.16251 0.75493
# Poissons Ratio (z) = 0.04429 0.51373
#
# Static dielectric constant tensor:
#      x y z
#    x 1.542600 0.000000 0.000000 
#    y 0.000000 1.543780 0.000000 
#    z 0.000000 0.000000 1.494920 
# 
# From -- ./inp_files/6699.got.cif
#   From: 2010.05.17/outbox.cif.g08.bks.cpg/sg66_4_cif.got.tgz:6699.got - 2010.06.03 17:51:23.
