data_PCOD9495924
_publ_section_title
;
Structure prediction by ZEFSAII (Michael W. Deem and Ramdas Pophale) SiO2 
 PCOD9495924
Probable space group: C C C M
;
_chemical_formula_sum "Si O2"
_cell_formula_units_Z 80
_cell_length_a 22.039756
_cell_length_b 12.937925
_cell_length_c 14.855988
_cell_angle_alpha 90.000000
_cell_angle_beta 90.000000
_cell_angle_gamma 90.000000
_cell_volume 4236.165816
_symmetry_space_group_name_H-M "C C C M"
_symmetry_group_IT_number 66
_symmetry_cell_setting 'orthorhombic'
loop_
_space_group_symop_operation_xyz
x,y,z
-x,-y,z
x,-y,1/2-z
-x,y,1/2-z
-x,-y,-z
x,y,-z
-x,y,1/2+z
x,-y,1/2+z
1/2+x,1/2+y,z
1/2-x,1/2-y,z
1/2+x,1/2-y,1/2-z
1/2-x,1/2+y,1/2-z
1/2-x,1/2-y,-z
1/2+x,1/2+y,-z
1/2-x,1/2+y,1/2+z
1/2+x,1/2-y,1/2+z
loop_
_atom_site_type_symbol
_atom_site_label
_atom_site_fract_x
_atom_site_fract_y
_atom_site_fract_z
Si Si1 0.474019 0.605971 0.351390
Si Si2 0.502372 0.168421 0.860188
Si Si3 0.905608 0.502381 0.357643
Si Si4 0.660528 0.338603 0.390529
Si Si5 0.792642 0.615511 0.105955
O O1 0.500000 0.500000 0.392441
O O2 0.500000 0.607111 0.250000
O O3 0.495363 0.715106 0.392853
O O4 0.400991 0.613680 0.351946
O O5 0.500000 0.170861 0.750000
O O6 0.447554 0.093144 0.890245
O O7 0.563393 0.108585 0.887277
O O8 0.910207 0.500000 0.250000
O O9 0.836508 0.480737 0.380882
O O10 0.654158 0.341509 0.500000
O O11 0.723526 0.393363 0.361794
O O12 0.672890 0.219350 0.360394
O O13 0.786427 0.634395 0.000000
#
# Coordination Sequence:
#
# PCOD9495924 Si02
#       5
#    16  16  16  16  16
#     4  10  19  32  50  70 100 131 165 208 244 286
#     4   8  15  27  45  68 100 127 158 193 246 296
#     4   9  15  27  48  73  96 128 157 201 252 298
#     4   9  18  33  52  72  96 132 170 204 245 288
#     4   9  17  31  51  74 101 127 163 212 246 283
#
# _framework density 18.885002
#
# number of rings (size 3 to 8) (size 9 to 14) (size 15 to 20)
#    0.000    3.000    2.000    2.400    0.000    0.400 
#    3.600    3.000    0.000    1.200    0.000    2.800 
#    0.000    0.000    0.000    0.000    0.000    0.000 
#
# Total GULP energy -222697.654761 kJ/mol
# GULP energy per Si atom -5567.441369 kJ/mol
# Density = 1.884202 g / cm^3
# Si number density = 18.885002 Si / 1000 Ang^3
#
#
#
# Elastic Constant Matrix: (Units=GPa)
#
#
# Indices 1 2 3 4 5 6 
#
# 1 195.5947 80.2706 12.9488 0.0000 0.0000 0.0000
# 2 80.2706 136.4107 1.4072 0.0000 0.0000 0.0000
# 3 12.9488 1.4072 44.2089 0.0000 0.0000 0.0000
# 4 0.0000 0.0000 0.0000 -4.8211 0.0000 0.0000
# 5 0.0000 0.0000 0.0000 0.0000 23.4180 0.0000
# 6 0.0000 0.0000 0.0000 0.0000 0.0000 33.6746
#
#
#
# Elastic Compliance Matrix: (Units=1/GPa)
#
#
# Indices 1 2 3 4 5 6 
#
# 1 0.006895 -0.004038 -0.001891 0.000000 0.000000 0.000000
# 2 -0.004038 0.009698 0.000874 0.000000 0.000000 0.000000
# 3 -0.001891 0.000874 0.023146 0.000000 0.000000 0.000000
# 4 0.000000 0.000000 0.000000 -0.207424 0.000000 0.000000
# 5 0.000000 0.000000 0.000000 0.000000 0.042702 0.000000
# 6 0.000000 0.000000 0.000000 0.000000 0.000000 0.029696
#
#
# Mechanical properties :
#
#
# Convention : Reuss Voigt Hill
#
# Bulk Modulus (GPa) = 33.75067 62.82975 48.29021
# Shear Modulus (GPa) = -66.40028 29.22682 -18.58673
#
# Velocity S-wave (km/s) = -5.93605 3.93825 -3.14061
# Velocity P-wave (km/s) = 5.39182 7.34994 3.53199
#
# Compressibility (1/GPa) = 0.02962904
#
# Stress axis : x y z
#
# Youngs Moduli (GPa) = 145.03540 103.11613 43.20414
#
# Poissons Ratio (x) = 0.41636 0.08170
# Poissons Ratio (y) = 0.58562 -0.03776
# Poissons Ratio (z) = 0.27426 -0.09012
#
# Static dielectric constant tensor:
#      x y z
#    x 1.689100 0.000000 0.000000 
#    y 0.000000 1.699790 0.000000 
#    z 0.000000 0.000000 1.695890 
# 
# From -- ./inp_files/40410.got.cif
#   From: 2010.05.17/outbox.cif.g08.bks.cpg/sg66_21_cif.got.tgz:40410.got - 2010.06.03 17:51:23.
