data_PCOD9495241
_publ_section_title
;
Structure prediction by ZEFSAII (Michael W. Deem and Ramdas Pophale) SiO2 
 PCOD9495241
Probable space group: C C C M
;
_chemical_formula_sum "Si O2"
_cell_formula_units_Z 80
_cell_length_a 19.377224
_cell_length_b 27.792983
_cell_length_c 7.858781
_cell_angle_alpha 90.000000
_cell_angle_beta 90.000000
_cell_angle_gamma 90.000000
_cell_volume 4232.353244
_symmetry_space_group_name_H-M "C C C M"
_symmetry_group_IT_number 66
_symmetry_cell_setting 'orthorhombic'
loop_
_space_group_symop_operation_xyz
x,y,z
-x,-y,z
x,-y,1/2-z
-x,y,1/2-z
-x,-y,-z
x,y,-z
-x,y,1/2+z
x,-y,1/2+z
1/2+x,1/2+y,z
1/2-x,1/2-y,z
1/2+x,1/2-y,1/2-z
1/2-x,1/2+y,1/2-z
1/2-x,1/2-y,-z
1/2+x,1/2+y,-z
1/2-x,1/2+y,1/2+z
1/2+x,1/2-y,1/2+z
loop_
_atom_site_type_symbol
_atom_site_label
_atom_site_fract_x
_atom_site_fract_y
_atom_site_fract_z
Si Si1 0.422770 0.847097 0.795580
Si Si2 0.075669 0.943922 0.201703
Si Si3 0.217227 0.099654 0.708010
Si Si4 0.717084 0.200214 0.207884
Si Si5 0.641160 0.053656 0.795807
O O1 0.500000 0.832972 0.750000
O O2 0.361166 0.811979 0.736732
O O3 0.404949 0.901426 0.733516
O O4 0.418343 0.848270 0.000000
O O5 0.142886 0.917094 0.272260
O O6 0.000000 0.925102 0.250000
O O7 0.079138 0.000000 0.250000
O O8 0.079683 0.941201 0.000000
O O9 0.216481 0.098583 0.500000
O O10 0.237850 0.153715 0.757084
O O11 0.280299 0.065013 0.762378
O O12 0.750000 0.250000 0.268068
O O13 0.716532 0.201723 0.000000
O O14 0.619036 0.000000 0.750000
O O15 0.641444 0.056219 0.000000
#
# Coordination Sequence:
#
# PCOD9495241 Si02
#       5
#    16  16  16  16  16
#     4   9  18  31  47  68  93 118 145 180 218 258
#     4  10  18  28  42  61  88 118 147 179 217 260
#     4   8  15  27  43  63  86 112 145 185 220 255
#     4   8  14  28  50  70  86 111 149 185 217 257
#     4   9  17  29  44  64  89 117 150 182 213 252
#
# _framework density 18.902014000000001
#
# number of rings (size 3 to 8) (size 9 to 14) (size 15 to 20)
#    0.000    3.200    0.000    4.200    0.000    1.200 
#    0.000    4.000    0.000    3.000    0.000    0.000 
#    0.000    0.000    0.000    0.000    0.000    0.000 
#
# Total GULP energy -222880.049037 kJ/mol
# GULP energy per Si atom -5572.001226 kJ/mol
# Density = 1.885899 g / cm^3
# Si number density = 18.902014 Si / 1000 Ang^3
#
#
#
# Elastic Constant Matrix: (Units=GPa)
#
#
# Indices 1 2 3 4 5 6 
#
# 1 159.4880 62.8970 5.8225 0.0000 0.0000 0.0000
# 2 62.8970 105.4557 1.6787 0.0000 0.0000 0.0000
# 3 5.8225 1.6787 19.8168 0.0000 0.0000 0.0000
# 4 0.0000 0.0000 0.0000 10.2973 0.0000 0.0000
# 5 0.0000 0.0000 0.0000 0.0000 61.7488 0.0000
# 6 0.0000 0.0000 0.0000 0.0000 0.0000 15.2469
#
#
#
# Elastic Compliance Matrix: (Units=1/GPa)
#
#
# Indices 1 2 3 4 5 6 
#
# 1 0.008278 -0.004905 -0.002017 0.000000 0.000000 0.000000
# 2 -0.004905 0.012402 0.000391 0.000000 0.000000 0.000000
# 3 -0.002017 0.000391 0.051022 0.000000 0.000000 0.000000
# 4 0.000000 0.000000 0.000000 0.097113 0.000000 0.000000
# 5 0.000000 0.000000 0.000000 0.000000 0.016195 0.000000
# 6 0.000000 0.000000 0.000000 0.000000 0.000000 0.065587
#
#
# Mechanical properties :
#
#
# Convention : Reuss Voigt Hill
#
# Bulk Modulus (GPa) = 17.05339 47.28409 32.16874
# Shear Modulus (GPa) = 17.65499 31.74941 24.70220
#
# Velocity S-wave (km/s) = 3.05950 4.10284 3.61897
# Velocity P-wave (km/s) = 4.63921 6.89305 5.87522
#
# Compressibility (1/GPa) = 0.05863936
#
# Stress axis : x y z
#
# Youngs Moduli (GPa) = 120.79974 80.63165 19.59948
#
# Poissons Ratio (x) = 0.39552 0.03953
# Poissons Ratio (y) = 0.59255 -0.00766
# Poissons Ratio (z) = 0.24362 -0.03150
#
# Static dielectric constant tensor:
#      x y z
#    x 1.681400 0.000000 0.000000 
#    y 0.000000 1.652070 0.000000 
#    z 0.000000 0.000000 1.696360 
# 
# From -- ./inp_files/6705.got.cif
#   From: 2010.05.17/outbox.cif.g08.bks.cpg/sg66_4_cif.got.tgz:6705.got - 2010.06.03 17:51:23.
