data_PCOD9495026
_publ_section_title
;
Structure prediction by ZEFSAII (Michael W. Deem and Ramdas Pophale) SiO2 
 PCOD9495026
Probable space group: C C C M
;
_chemical_formula_sum "Si O2"
_cell_formula_units_Z 64
_cell_length_a 14.027933
_cell_length_b 35.535204
_cell_length_c 8.642999
_cell_angle_alpha 90.000000
_cell_angle_beta 90.000000
_cell_angle_gamma 90.000000
_cell_volume 4308.409340
_symmetry_space_group_name_H-M "C C C M"
_symmetry_group_IT_number 66
_symmetry_cell_setting 'orthorhombic'
loop_
_space_group_symop_operation_xyz
x,y,z
-x,-y,z
x,-y,1/2-z
-x,y,1/2-z
-x,-y,-z
x,y,-z
-x,y,1/2+z
x,-y,1/2+z
1/2+x,1/2+y,z
1/2-x,1/2-y,z
1/2+x,1/2-y,1/2-z
1/2-x,1/2+y,1/2-z
1/2-x,1/2-y,-z
1/2+x,1/2+y,-z
1/2-x,1/2+y,1/2+z
1/2+x,1/2-y,1/2+z
loop_
_atom_site_type_symbol
_atom_site_label
_atom_site_fract_x
_atom_site_fract_y
_atom_site_fract_z
Si Si1 0.607459 0.382921 0.684413
Si Si2 0.603550 0.231700 0.185854
Si Si3 0.891623 0.961329 0.684900
Si Si4 0.204440 0.809130 0.812665
O O1 0.500000 0.377927 0.750000
O O2 0.601948 0.386144 0.500000
O O3 0.648654 0.421799 0.754558
O O4 0.668464 0.347086 0.735486
O O5 0.500000 0.222744 0.250000
O O6 0.688539 0.203420 0.231571
O O7 0.637074 0.273799 0.231645
O O8 0.600381 0.231425 0.000000
O O9 0.893784 0.962250 0.500000
O O10 0.000000 0.960869 0.750000
O O11 0.847498 0.000000 0.750000
O O12 0.200540 0.812796 0.000000
#
# Coordination Sequence:
#
# PCOD9495026 Si02
#       4
#    16  16  16  16
#     4  11  20  29  42  62  86 115 147 180 214 254
#     4   9  18  31  47  63  85 113 144 179 219 259
#     4  10  17  27  41  58  82 112 143 175 209 251
#     4   9  18  32  45  62  86 114 144 179 217 256
#
# _framework density 14.854668999999999
#
# number of rings (size 3 to 8) (size 9 to 14) (size 15 to 20)
#    0.000    2.250    0.000    9.000    0.000    4.000 
#    0.000    2.500    0.000    0.000    0.000    0.000 
#    0.000    1.000    0.000   10.500    0.000    5.750 
#
# Total GULP energy -178397.810652 kJ/mol
# GULP energy per Si atom -5574.931583 kJ/mol
# Density = 1.482086 g / cm^3
# Si number density = 14.854669 Si / 1000 Ang^3
#
#
#
# Elastic Constant Matrix: (Units=GPa)
#
#
# Indices 1 2 3 4 5 6 
#
# 1 72.0228 49.5342 26.7682 0.0000 0.0000 0.0000
# 2 49.5342 151.3963 58.4314 0.0000 0.0000 0.0000
# 3 26.7682 58.4314 99.8605 0.0000 0.0000 0.0000
# 4 0.0000 0.0000 0.0000 28.8233 0.0000 0.0000
# 5 0.0000 0.0000 0.0000 0.0000 20.2840 0.0000
# 6 0.0000 0.0000 0.0000 0.0000 0.0000 17.2002
#
#
#
# Elastic Compliance Matrix: (Units=1/GPa)
#
#
# Indices 1 2 3 4 5 6 
#
# 1 0.018162 -0.005249 -0.001797 0.000000 0.000000 0.000000
# 2 -0.005249 0.010049 -0.004473 0.000000 0.000000 0.000000
# 3 -0.001797 -0.004473 0.013113 0.000000 0.000000 0.000000
# 4 0.000000 0.000000 0.000000 0.034694 0.000000 0.000000
# 5 0.000000 0.000000 0.000000 0.000000 0.049300 0.000000
# 6 0.000000 0.000000 0.000000 0.000000 0.000000 0.058139
#
#
# Mechanical properties :
#
#
# Convention : Reuss Voigt Hill
#
# Bulk Modulus (GPa) = 54.68604 65.86080 60.27342
# Shear Modulus (GPa) = 23.51939 25.83121 24.67530
#
# Velocity S-wave (km/s) = 3.98339 4.17457 4.08010
# Velocity P-wave (km/s) = 7.61908 8.22612 7.92841
#
# Compressibility (1/GPa) = 0.01828620
#
# Stress axis : x y z
#
# Youngs Moduli (GPa) = 55.05896 99.51462 76.26032
#
# Poissons Ratio (x) = 0.52232 0.13707
# Poissons Ratio (y) = 0.28899 0.34110
# Poissons Ratio (z) = 0.09896 0.44512
#
# Static dielectric constant tensor:
#      x y z
#    x 1.472890 0.000000 0.000000 
#    y 0.000000 1.526870 0.000000 
#    z 0.000000 0.000000 1.497750 
# 
# From -- ./inp_files/5471.got.cif
#   From: 2010.05.17/outbox.cif.g08.bks.cpg/sg66_3_cif.got.tgz:5471.got - 2010.06.03 17:51:23.
