data_PCOD9495095
_publ_section_title
;
Structure prediction by ZEFSAII (Michael W. Deem and Ramdas Pophale) SiO2 
 PCOD9495095
Probable space group: C C C M
;
_chemical_formula_sum "Si O2"
_cell_formula_units_Z 112
_cell_length_a 17.697036
_cell_length_b 20.934302
_cell_length_c 17.267838
_cell_angle_alpha 90.000000
_cell_angle_beta 90.000000
_cell_angle_gamma 90.000000
_cell_volume 6397.303943
_symmetry_space_group_name_H-M "C C C M"
_symmetry_group_IT_number 66
_symmetry_cell_setting 'orthorhombic'
loop_
_space_group_symop_operation_xyz
x,y,z
-x,-y,z
x,-y,1/2-z
-x,y,1/2-z
-x,-y,-z
x,y,-z
-x,y,1/2+z
x,-y,1/2+z
1/2+x,1/2+y,z
1/2-x,1/2-y,z
1/2+x,1/2-y,1/2-z
1/2-x,1/2+y,1/2-z
1/2-x,1/2-y,-z
1/2+x,1/2+y,-z
1/2-x,1/2+y,1/2+z
1/2+x,1/2-y,1/2+z
loop_
_atom_site_type_symbol
_atom_site_label
_atom_site_fract_x
_atom_site_fract_y
_atom_site_fract_z
Si Si1 0.613379 0.249793 0.911116
Si Si2 0.956604 0.771480 0.832177
Si Si3 0.025071 0.088002 0.838260
Si Si4 0.160731 0.028026 0.086119
Si Si5 0.242030 0.073694 0.228212
Si Si6 0.856807 0.107335 0.872725
Si Si7 0.177191 0.703344 0.750248
O O1 0.522718 0.253045 0.892678
O O2 0.652066 0.320164 0.900392
O O3 0.647384 0.210835 0.838716
O O4 0.625668 0.228967 0.000000
O O5 0.932370 0.844155 0.848194
O O6 0.886095 0.726821 0.811342
O O7 0.000000 0.776563 0.750000
O O8 0.080388 0.035031 0.870643
O O9 0.000000 0.076800 0.750000
O O10 0.946343 0.097804 0.881628
O O11 0.216768 0.067254 0.139853
O O12 0.181178 0.952876 0.085658
O O13 0.154553 0.052536 0.000000
O O14 0.173158 0.096718 0.284795
O O15 0.302114 0.129558 0.237933
O O16 0.261492 0.000000 0.250000
O O17 0.250000 0.750000 0.742078
#
# Coordination Sequence:
#
# PCOD9495095 Si02
#       7
#    16  16  16  16  16  16  16
#     4  10  20  35  57  86 112 135 177 238 292 326
#     4   8  18  33  53  73 104 143 182 223 276 329
#     4  10  17  29  49  71 102 146 188 222 261 321
#     4  11  22  32  47  73 109 148 189 227 259 313
#     4  10  21  37  54  76 107 149 187 217 274 339
#     4  10  19  33  50  74 107 149 180 216 267 335
#     4  11  19  35  58  83 108 149 187 225 273 342
#
# _framework density 17.507376000000001
#
# number of rings (size 3 to 8) (size 9 to 14) (size 15 to 20)
#    0.000    2.000    2.857    2.571    0.000    4.286 
#    0.000    1.429    0.000    5.571    0.000    1.000 
#    0.000    0.000    0.000    0.000    0.000    0.000 
#
# Total GULP energy -311849.302070 kJ/mol
# GULP energy per Si atom -5568.737537 kJ/mol
# Density = 1.746753 g / cm^3
# Si number density = 17.507376 Si / 1000 Ang^3
#
#
#
# Elastic Constant Matrix: (Units=GPa)
#
#
# Indices 1 2 3 4 5 6 
#
# 1 56.8013 45.6695 20.2859 0.0000 0.0000 0.0000
# 2 45.6695 106.0102 29.3630 0.0000 0.0000 0.0000
# 3 20.2859 29.3630 97.9360 0.0000 0.0000 0.0000
# 4 0.0000 0.0000 0.0000 3.2231 0.0000 0.0000
# 5 0.0000 0.0000 0.0000 0.0000 11.0685 0.0000
# 6 0.0000 0.0000 0.0000 0.0000 0.0000 30.6558
#
#
#
# Elastic Compliance Matrix: (Units=1/GPa)
#
#
# Indices 1 2 3 4 5 6 
#
# 1 0.027414 -0.011164 -0.002331 0.000000 0.000000 0.000000
# 2 -0.011164 0.014834 -0.002135 0.000000 0.000000 0.000000
# 3 -0.002331 -0.002135 0.011334 0.000000 0.000000 0.000000
# 4 0.000000 0.000000 0.000000 0.310258 0.000000 0.000000
# 5 0.000000 0.000000 0.000000 0.000000 0.090347 0.000000
# 6 0.000000 0.000000 0.000000 0.000000 0.000000 0.032620
#
#
# Mechanical properties :
#
#
# Convention : Reuss Voigt Hill
#
# Bulk Modulus (GPa) = 44.80106 50.15384 47.47745
# Shear Modulus (GPa) = 9.51460 20.01808 14.76634
#
# Velocity S-wave (km/s) = 2.33376 3.38510 2.90735
# Velocity P-wave (km/s) = 5.73649 6.63234 6.20062
#
# Compressibility (1/GPa) = 0.02232090
#
# Stress axis : x y z
#
# Youngs Moduli (GPa) = 36.47741 67.41226 88.23228
#
# Poissons Ratio (x) = 0.75262 0.20568
# Poissons Ratio (y) = 0.40725 0.18838
# Poissons Ratio (z) = 0.08503 0.14392
#
# Static dielectric constant tensor:
#      x y z
#    x 1.624400 0.000000 0.000000 
#    y 0.000000 1.634910 0.000000 
#    z 0.000000 0.000000 1.630180 
# 
# From -- ./inp_files/42001.got.cif
#   From: 2010.05.17/outbox.cif.g08.bks.cpg/sg66_22_cif.got.tgz:42001.got - 2010.06.03 17:51:23.
