data_PCOD9495980
_publ_section_title
;
Structure prediction by ZEFSAII (Michael W. Deem and Ramdas Pophale) SiO2 
 PCOD9495980
Probable space group: C C C M
;
_chemical_formula_sum "Si O2"
_cell_formula_units_Z 108
_cell_length_a 31.057170
_cell_length_b 6.566353
_cell_length_c 29.191218
_cell_angle_alpha 90.000000
_cell_angle_beta 90.000000
_cell_angle_gamma 90.000000
_cell_volume 5953.033435
_symmetry_space_group_name_H-M "C C C M"
_symmetry_group_IT_number 66
_symmetry_cell_setting 'orthorhombic'
loop_
_space_group_symop_operation_xyz
x,y,z
-x,-y,z
x,-y,1/2-z
-x,y,1/2-z
-x,-y,-z
x,y,-z
-x,y,1/2+z
x,-y,1/2+z
1/2+x,1/2+y,z
1/2-x,1/2-y,z
1/2+x,1/2-y,1/2-z
1/2-x,1/2+y,1/2-z
1/2-x,1/2-y,-z
1/2+x,1/2+y,-z
1/2-x,1/2+y,1/2+z
1/2+x,1/2-y,1/2+z
loop_
_atom_site_type_symbol
_atom_site_label
_atom_site_fract_x
_atom_site_fract_y
_atom_site_fract_z
Si Si1 0.354426 0.374425 0.391597
Si Si2 0.569672 0.000000 0.250000
Si Si3 0.879107 0.877979 0.708733
Si Si4 0.936730 0.844740 0.081688
Si Si5 0.128682 0.482183 0.051278
Si Si6 0.704871 0.650451 0.947707
Si Si7 0.538460 0.654947 0.184417
Si Si8 0.000000 0.000000 0.500000
O O1 0.351805 0.361744 0.337112
O O2 0.396825 0.505065 0.406129
O O3 0.313151 0.478658 0.414437
O O4 0.361670 0.154552 0.412616
O O5 0.600047 0.837404 0.276541
O O6 0.542352 0.860811 0.214399
O O7 0.856563 0.000000 0.750000
O O8 0.918819 0.027280 0.696238
O O9 0.914445 0.637789 0.064439
O O10 0.961583 0.806725 0.129678
O O11 0.965435 0.932898 0.040881
O O12 0.167953 0.322827 0.051440
O O13 0.124607 0.569034 0.000000
O O14 0.750000 0.750000 0.934131
O O15 0.709421 0.572104 0.000000
O O16 0.500000 0.500000 0.195965
#
# Coordination Sequence:
#
# PCOD9495980 Si02
#       8
#    16   8  16  16  16  16  16   4
#     4  10  20  35  56  81 111 144 181 231 274 327
#     4  10  20  35  54  72 100 136 178 238 292 332
#     4   9  20  35  53  77 101 134 183 228 278 331
#     4  10  21  36  52  75 111 151 193 228 274 325
#     4  10  19  32  53  79 110 147 185 219 266 327
#     4   9  19  35  56  85 117 146 175 216 268 326
#     4  10  20  34  51  74 103 137 183 238 283 330
#     4  12  20  36  58  72 112 166 188 240 274 318
#
# _framework density 18.142011
#
# number of rings (size 3 to 8) (size 9 to 14) (size 15 to 20)
#    0.000    2.222    1.481    1.333    2.074    5.630 
#    0.000    3.704    0.000    0.000    3.852    0.000 
#    0.000    0.000    0.000    0.000    0.000    0.000 
#
# Total GULP energy -300736.463312 kJ/mol
# GULP energy per Si atom -5569.193765 kJ/mol
# Density = 1.810072 g / cm^3
# Si number density = 18.142011 Si / 1000 Ang^3
#
#
#
# Elastic Constant Matrix: (Units=GPa)
#
#
# Indices 1 2 3 4 5 6 
#
# 1 67.4502 24.6633 44.1181 0.0000 0.0000 0.0000
# 2 24.6633 66.9539 44.2489 0.0000 0.0000 0.0000
# 3 44.1181 44.2489 152.3968 0.0000 0.0000 0.0000
# 4 0.0000 0.0000 0.0000 21.4686 0.0000 0.0000
# 5 0.0000 0.0000 0.0000 0.0000 9.0385 0.0000
# 6 0.0000 0.0000 0.0000 0.0000 0.0000 18.1792
#
#
#
# Elastic Compliance Matrix: (Units=1/GPa)
#
#
# Indices 1 2 3 4 5 6 
#
# 1 0.019201 -0.004206 -0.004337 0.000000 0.000000 0.000000
# 2 -0.004206 0.019404 -0.004416 0.000000 0.000000 0.000000
# 3 -0.004337 -0.004416 0.009100 0.000000 0.000000 0.000000
# 4 0.000000 0.000000 0.000000 0.046580 0.000000 0.000000
# 5 0.000000 0.000000 0.000000 0.000000 0.110638 0.000000
# 6 0.000000 0.000000 0.000000 0.000000 0.000000 0.055008
#
#
# Mechanical properties :
#
#
# Convention : Reuss Voigt Hill
#
# Bulk Modulus (GPa) = 45.90417 56.98461 51.44439
# Shear Modulus (GPa) = 17.05841 21.32197 19.19019
#
# Velocity S-wave (km/s) = 3.06971 3.43196 3.25588
# Velocity P-wave (km/s) = 6.15807 6.86898 6.52322
#
# Compressibility (1/GPa) = 0.02178451
#
# Stress axis : x y z
#
# Youngs Moduli (GPa) = 52.08139 51.53641 109.89427
#
# Poissons Ratio (x) = 0.21679 0.47663
# Poissons Ratio (y) = 0.21908 0.48531
# Poissons Ratio (z) = 0.22588 0.22759
#
# Static dielectric constant tensor:
#      x y z
#    x 1.598140 0.000000 0.000000 
#    y 0.000000 1.623650 0.000000 
#    z 0.000000 0.000000 1.661380 
# 
# From -- ./inp_files/70730.got.cif
#   From: 2010.05.17/outbox.cif.g08.bks.cpg/sg66_36_cif.got.tgz:70730.got - 2010.06.03 17:51:23.
