data_PCOD9495759
_publ_section_title
;
Structure prediction by ZEFSAII (Michael W. Deem and Ramdas Pophale) SiO2 
 PCOD9495759
Probable space group: C C C M
;
_chemical_formula_sum "Si O2"
_cell_formula_units_Z 96
_cell_length_a 26.057310
_cell_length_b 9.777799
_cell_length_c 22.806274
_cell_angle_alpha 90.000000
_cell_angle_beta 90.000000
_cell_angle_gamma 90.000000
_cell_volume 5810.654094
_symmetry_space_group_name_H-M "C C C M"
_symmetry_group_IT_number 66
_symmetry_cell_setting 'orthorhombic'
loop_
_space_group_symop_operation_xyz
x,y,z
-x,-y,z
x,-y,1/2-z
-x,y,1/2-z
-x,-y,-z
x,y,-z
-x,y,1/2+z
x,-y,1/2+z
1/2+x,1/2+y,z
1/2-x,1/2-y,z
1/2+x,1/2-y,1/2-z
1/2-x,1/2+y,1/2-z
1/2-x,1/2-y,-z
1/2+x,1/2+y,-z
1/2-x,1/2+y,1/2+z
1/2+x,1/2-y,1/2+z
loop_
_atom_site_type_symbol
_atom_site_label
_atom_site_fract_x
_atom_site_fract_y
_atom_site_fract_z
Si Si1 0.613085 0.487532 0.068402
Si Si2 0.308284 0.251220 0.571110
Si Si3 0.890895 0.526967 0.430573
Si Si4 0.419226 0.753282 0.635032
Si Si5 0.438409 0.657226 0.241613
Si Si6 0.459181 0.266306 0.612159
O O1 0.659055 0.385715 0.087256
O O2 0.608307 0.621957 0.107119
O O3 0.561666 0.396327 0.076365
O O4 0.619408 0.522373 0.000000
O O5 0.307187 0.252713 0.500000
O O6 0.250000 0.250000 0.592675
O O7 0.341018 0.116704 0.586550
O O8 0.888727 0.496314 0.500000
O O9 0.898033 0.391102 0.393158
O O10 0.938114 0.629801 0.417962
O O11 0.415812 0.745892 0.705483
O O12 0.479821 0.738613 0.619328
O O13 0.420732 0.500000 0.250000
O O14 0.500000 0.653891 0.250000
O O15 0.432899 0.714805 0.176311
#
# Coordination Sequence:
#
# PCOD9495759 Si02
#       6
#    16  16  16  16  16  16
#     4  10  19  29  47  75  97 126 170 199 240 305
#     4   8  16  34  54  68  91 129 167 204 247 302
#     4  10  21  33  47  74 104 130 164 200 250 309
#     4  11  20  30  47  72 106 134 160 207 245 275
#     4   9  17  31  48  67  94 134 180 208 224 263
#     4  10  19  32  48  67 100 143 172 194 231 287
#
# _framework density 16.521376
#
# number of rings (size 3 to 8) (size 9 to 14) (size 15 to 20)
#    0.000    2.333    1.667    3.000    0.000    4.667 
#    0.000    3.333    0.000    4.000    0.000   18.667 
#    0.000    0.000    0.000    0.000    0.000    0.000 
#
# Total GULP energy -267541.213824 kJ/mol
# GULP energy per Si atom -5573.775288 kJ/mol
# Density = 1.648377 g / cm^3
# Si number density = 16.521376 Si / 1000 Ang^3
#
#
#
# Elastic Constant Matrix: (Units=GPa)
#
#
# Indices 1 2 3 4 5 6 
#
# 1 78.7755 28.3440 18.2394 0.0000 0.0000 0.0000
# 2 28.3440 108.6442 35.1133 0.0000 0.0000 0.0000
# 3 18.2394 35.1133 79.6832 0.0000 0.0000 0.0000
# 4 0.0000 0.0000 0.0000 24.6553 0.0000 0.0000
# 5 0.0000 0.0000 0.0000 0.0000 7.6003 0.0000
# 6 0.0000 0.0000 0.0000 0.0000 0.0000 -1.4836
#
#
#
# Elastic Compliance Matrix: (Units=1/GPa)
#
#
# Indices 1 2 3 4 5 6 
#
# 1 0.014250 -0.003106 -0.001893 0.000000 0.000000 0.000000
# 2 -0.003106 0.011410 -0.004317 0.000000 0.000000 0.000000
# 3 -0.001893 -0.004317 0.014885 0.000000 0.000000 0.000000
# 4 0.000000 0.000000 0.000000 0.040559 0.000000 0.000000
# 5 0.000000 0.000000 0.000000 0.000000 0.131574 0.000000
# 6 0.000000 0.000000 0.000000 0.000000 0.000000 -0.674032
#
#
# Mechanical properties :
#
#
# Convention : Reuss Voigt Hill
#
# Bulk Modulus (GPa) = 45.63426 47.83291 46.73359
# Shear Modulus (GPa) = -11.48325 18.51481 3.51578
#
# Velocity S-wave (km/s) = -2.63925 3.35125 1.46036
# Velocity P-wave (km/s) = 4.28880 6.63246 5.58495
#
# Compressibility (1/GPa) = 0.02191336
#
# Stress axis : x y z
#
# Youngs Moduli (GPa) = 70.17471 87.64362 67.18001
#
# Poissons Ratio (x) = 0.27220 0.12719
# Poissons Ratio (y) = 0.21795 0.29001
# Poissons Ratio (z) = 0.13286 0.37835
#
# Static dielectric constant tensor:
#      x y z
#    x 1.551830 0.000000 0.000000 
#    y 0.000000 1.547470 0.000000 
#    z 0.000000 0.000000 1.566550 
# 
# From -- ./inp_files/52931.got.cif
#   From: 2010.05.17/outbox.cif.g08.bks.cpg/sg66_27_cif.got.tgz:52931.got - 2010.06.03 17:51:23.
