data_PCOD9495124
_publ_section_title
;
Structure prediction by ZEFSAII (Michael W. Deem and Ramdas Pophale) SiO2 
 PCOD9495124
Probable space group: C C C M
;
_chemical_formula_sum "Si O2"
_cell_formula_units_Z 120
_cell_length_a 14.318126
_cell_length_b 27.246480
_cell_length_c 17.956891
_cell_angle_alpha 90.000000
_cell_angle_beta 90.000000
_cell_angle_gamma 90.000000
_cell_volume 7005.315987
_symmetry_space_group_name_H-M "C C C M"
_symmetry_group_IT_number 66
_symmetry_cell_setting 'orthorhombic'
loop_
_space_group_symop_operation_xyz
x,y,z
-x,-y,z
x,-y,1/2-z
-x,y,1/2-z
-x,-y,-z
x,y,-z
-x,y,1/2+z
x,-y,1/2+z
1/2+x,1/2+y,z
1/2-x,1/2-y,z
1/2+x,1/2-y,1/2-z
1/2-x,1/2+y,1/2-z
1/2-x,1/2-y,-z
1/2+x,1/2+y,-z
1/2-x,1/2+y,1/2+z
1/2+x,1/2-y,1/2+z
loop_
_atom_site_type_symbol
_atom_site_label
_atom_site_fract_x
_atom_site_fract_y
_atom_site_fract_z
Si Si1 0.441218 0.642882 0.588709
Si Si2 0.250000 0.948635 0.793736
Si Si3 0.941218 0.642882 0.911291
Si Si4 0.460572 0.947423 0.835069
Si Si5 0.939474 0.250000 0.588565
Si Si6 0.250000 0.250000 0.817202
Si Si7 0.460572 0.447423 0.335069
Si Si8 0.750000 0.142854 0.318098
O O1 0.428662 0.639587 0.500000
O O2 0.483973 0.697087 0.606462
O O3 0.501896 0.598166 0.618438
O O4 0.341680 0.640073 0.630342
O O5 0.348497 0.947638 0.835965
O O6 0.151503 0.947638 0.835965
O O7 0.250000 0.902282 0.738238
O O8 0.250000 0.000000 0.750000
O O9 0.983973 0.697087 0.893538
O O10 0.841680 0.640073 0.869658
O O11 0.001896 0.598166 0.881562
O O12 0.928662 0.639587 0.000000
O O13 0.500000 0.941983 0.750000
O O14 0.500000 0.000000 0.861450
O O15 0.923061 0.250000 0.500000
O O16 0.840849 0.250000 0.630524
O O17 0.250000 0.196682 0.778587
O O18 0.500000 0.500000 0.361450
O O19 0.500000 0.441983 0.250000
#
# Coordination Sequence:
#
# PCOD9495124 Si02
#       8
#    16  16  16  16  16   8  16  16
#     4  10  19  33  53  80 108 137 175 217 261 306
#     4  12  20  35  56  75 103 139 177 207 254 317
#     4  10  19  33  53  80 108 137 175 217 261 306
#     4  11  21  36  55  78 103 139 175 210 259 309
#     4   8  15  28  48  72 105 141 169 206 259 312
#     4   8  15  24  42  76 106 132 165 214 264 302
#     4  11  21  36  55  78 103 139 175 210 259 309
#     4  10  17  30  52  78 107 136 172 216 263 306
#
# _framework density 17.129847999999999
#
# number of rings (size 3 to 8) (size 9 to 14) (size 15 to 20)
#    0.000    1.867    5.333    0.600    0.000    3.733 
#    0.000    2.667    0.000    0.000    0.000    2.800 
#    0.000    0.000    0.000    0.000    0.000    0.000 
#
# Total GULP energy -334202.619688 kJ/mol
# GULP energy per Si atom -5570.043661 kJ/mol
# Density = 1.709086 g / cm^3
# Si number density = 17.129848 Si / 1000 Ang^3
#
#
#
# Elastic Constant Matrix: (Units=GPa)
#
#
# Indices 1 2 3 4 5 6 
#
# 1 116.7042 64.8105 19.6116 0.0000 0.0000 0.0000
# 2 64.8105 219.4188 51.2440 0.0000 0.0000 0.0000
# 3 19.6116 51.2440 19.4974 0.0000 0.0000 0.0000
# 4 0.0000 0.0000 0.0000 31.5088 0.0000 0.0000
# 5 0.0000 0.0000 0.0000 0.0000 7.9653 0.0000
# 6 0.0000 0.0000 0.0000 0.0000 0.0000 28.3892
#
#
#
# Elastic Compliance Matrix: (Units=1/GPa)
#
#
# Indices 1 2 3 4 5 6 
#
# 1 0.010537 -0.001650 -0.006263 0.000000 0.000000 0.000000
# 2 -0.001650 0.012060 -0.030036 0.000000 0.000000 0.000000
# 3 -0.006263 -0.030036 0.136531 0.000000 0.000000 0.000000
# 4 0.000000 0.000000 0.000000 0.031737 0.000000 0.000000
# 5 0.000000 0.000000 0.000000 0.000000 0.125544 0.000000
# 6 0.000000 0.000000 0.000000 0.000000 0.000000 0.035225
#
#
# Mechanical properties :
#
#
# Convention : Reuss Voigt Hill
#
# Bulk Modulus (GPa) = 12.01494 69.66141 40.83817
# Shear Modulus (GPa) = 10.98239 28.23630 19.60934
#
# Velocity S-wave (km/s) = 2.53479 4.06441 3.38708
# Velocity P-wave (km/s) = 3.94920 7.92344 6.26008
#
# Compressibility (1/GPa) = 0.08322975
#
# Stress axis : x y z
#
# Youngs Moduli (GPa) = 94.90070 82.92217 7.32436
#
# Poissons Ratio (x) = 0.13680 0.04587
# Poissons Ratio (y) = 0.15656 0.21999
# Poissons Ratio (z) = 0.59439 2.49065
#
# Static dielectric constant tensor:
#      x y z
#    x 1.638980 0.000000 0.000000 
#    y 0.000000 1.631110 0.000000 
#    z 0.000000 0.000000 1.555110 
# 
# From -- ./inp_files/50298.got.cif
#   From: 2010.05.17/outbox.cif.g08.bks.cpg/sg66_26_cif.got.tgz:50298.got - 2010.06.03 17:51:23.
