data_PCOD9495844
_publ_section_title
;
Structure prediction by ZEFSAII (Michael W. Deem and Ramdas Pophale) SiO2 
 PCOD9495844
Probable space group: C C C M
;
_chemical_formula_sum "Si O2"
_cell_formula_units_Z 80
_cell_length_a 23.069813
_cell_length_b 11.722461
_cell_length_c 14.914868
_cell_angle_alpha 90.000000
_cell_angle_beta 90.000000
_cell_angle_gamma 90.000000
_cell_volume 4033.502077
_symmetry_space_group_name_H-M "C C C M"
_symmetry_group_IT_number 66
_symmetry_cell_setting 'orthorhombic'
loop_
_space_group_symop_operation_xyz
x,y,z
-x,-y,z
x,-y,1/2-z
-x,y,1/2-z
-x,-y,-z
x,y,-z
-x,y,1/2+z
x,-y,1/2+z
1/2+x,1/2+y,z
1/2-x,1/2-y,z
1/2+x,1/2-y,1/2-z
1/2-x,1/2+y,1/2-z
1/2-x,1/2-y,-z
1/2+x,1/2+y,-z
1/2-x,1/2+y,1/2+z
1/2+x,1/2-y,1/2+z
loop_
_atom_site_type_symbol
_atom_site_label
_atom_site_fract_x
_atom_site_fract_y
_atom_site_fract_z
Si Si1 0.661230 0.227498 0.391733
Si Si2 0.421942 0.396335 0.390182
Si Si3 0.743192 0.560188 0.154971
Si Si4 0.451389 0.344943 0.109209
Si Si5 0.201066 0.172436 0.399474
O O1 0.663949 0.226335 0.500000
O O2 0.698695 0.336654 0.360569
O O3 0.693691 0.114709 0.358695
O O4 0.595140 0.250596 0.363397
O O5 0.419178 0.395981 0.500000
O O6 0.428096 0.529311 0.364026
O O7 0.481777 0.336519 0.362017
O O8 0.362522 0.340063 0.356974
O O9 0.737692 0.500000 0.250000
O O10 0.726066 0.454664 0.092772
O O11 0.452478 0.345833 0.000000
O O12 0.192432 0.221061 0.500000
O O13 0.250000 0.250000 0.352908
#
# Coordination Sequence:
#
# PCOD9495844 Si02
#       5
#    16  16  16  16  16
#     4  10  19  35  58  78 101 139 184 224 257 313
#     4   8  13  24  44  76 105 126 160 214 268 299
#     4  11  22  32  48  74 107 138 171 216 267 312
#     4   8  13  24  49  77 100 123 163 223 264 291
#     4  10  19  31  49  72 104 139 170 206 254 318
#
# _framework density 19.833881000000002
#
# number of rings (size 3 to 8) (size 9 to 14) (size 15 to 20)
#    0.000    2.600    2.000    3.600    2.800    0.000 
#    0.000    0.000    0.000    3.600    0.000    8.400 
#    0.000    0.000    0.000    0.000    0.000    0.000 
#
# Total GULP energy -223054.024147 kJ/mol
# GULP energy per Si atom -5576.350604 kJ/mol
# Density = 1.978874 g / cm^3
# Si number density = 19.833881 Si / 1000 Ang^3
#
#
#
# Elastic Constant Matrix: (Units=GPa)
#
#
# Indices 1 2 3 4 5 6 
#
# 1 151.0386 29.4158 -14.2979 0.0000 0.0000 0.0000
# 2 29.4158 36.7226 -1.2769 0.0000 0.0000 0.0000
# 3 -14.2979 -1.2769 53.1128 0.0000 0.0000 0.0000
# 4 0.0000 0.0000 0.0000 22.7073 0.0000 0.0000
# 5 0.0000 0.0000 0.0000 0.0000 -0.4586 0.0000
# 6 0.0000 0.0000 0.0000 0.0000 0.0000 40.6584
#
#
#
# Elastic Compliance Matrix: (Units=1/GPa)
#
#
# Indices 1 2 3 4 5 6 
#
# 1 0.008054 -0.006382 0.002015 0.000000 0.000000 0.000000
# 2 -0.006382 0.032310 -0.000941 0.000000 0.000000 0.000000
# 3 0.002015 -0.000941 0.019348 0.000000 0.000000 0.000000
# 4 0.000000 0.000000 0.000000 0.044039 0.000000 0.000000
# 5 0.000000 0.000000 0.000000 0.000000 -2.180456 0.000000
# 6 0.000000 0.000000 0.000000 0.000000 0.000000 0.024595
#
#
# Mechanical properties :
#
#
# Convention : Reuss Voigt Hill
#
# Bulk Modulus (GPa) = 20.36814 29.83955 25.10385
# Shear Modulus (GPa) = -2.46898 27.71696 12.62399
#
# Velocity S-wave (km/s) = -1.11693 3.74231 2.52560
# Velocity P-wave (km/s) = 2.93739 5.80953 4.60320
#
# Compressibility (1/GPa) = 0.04909629
#
# Stress axis : x y z
#
# Youngs Moduli (GPa) = 124.15497 30.94974 51.68593
#
# Poissons Ratio (x) = 0.19751 -0.10414
# Poissons Ratio (y) = 0.79233 0.04864
# Poissons Ratio (z) = -0.25015 0.02913
#
# Static dielectric constant tensor:
#      x y z
#    x 1.760140 0.000000 0.000000 
#    y 0.000000 1.671320 0.000000 
#    z 0.000000 0.000000 1.806110 
# 
# From -- ./inp_files/32128.got.cif
#   From: 2010.05.17/outbox.cif.g08.bks.cpg/sg66_17_cif.got.tgz:32128.got - 2010.06.03 17:51:23.
