data_PCOD9495323
_publ_section_title
;
Structure prediction by ZEFSAII (Michael W. Deem and Ramdas Pophale) SiO2 
 PCOD9495323
Probable space group: C C C M
;
_chemical_formula_sum "Si O2"
_cell_formula_units_Z 80
_cell_length_a 21.452743
_cell_length_b 13.042866
_cell_length_c 15.533843
_cell_angle_alpha 90.000000
_cell_angle_beta 90.000000
_cell_angle_gamma 90.000000
_cell_volume 4346.450860
_symmetry_space_group_name_H-M "C C C M"
_symmetry_group_IT_number 66
_symmetry_cell_setting 'orthorhombic'
loop_
_space_group_symop_operation_xyz
x,y,z
-x,-y,z
x,-y,1/2-z
-x,y,1/2-z
-x,-y,-z
x,y,-z
-x,y,1/2+z
x,-y,1/2+z
1/2+x,1/2+y,z
1/2-x,1/2-y,z
1/2+x,1/2-y,1/2-z
1/2-x,1/2+y,1/2-z
1/2-x,1/2-y,-z
1/2+x,1/2+y,-z
1/2-x,1/2+y,1/2+z
1/2+x,1/2-y,1/2+z
loop_
_atom_site_type_symbol
_atom_site_label
_atom_site_fract_x
_atom_site_fract_y
_atom_site_fract_z
Si Si1 0.964385 0.361155 0.340011
Si Si2 0.178217 0.253671 0.394639
Si Si3 0.552528 0.643777 0.895948
Si Si4 0.412372 0.575091 0.104784
Si Si5 0.590521 0.064155 0.097877
O O1 0.931627 0.253594 0.357204
O O2 0.920443 0.459326 0.350885
O O3 0.000000 0.361310 0.250000
O O4 0.023195 0.378941 0.403762
O O5 0.176250 0.254755 0.500000
O O6 0.250000 0.250000 0.368421
O O7 0.140395 0.153157 0.365847
O O8 0.140710 0.355290 0.366953
O O9 0.590628 0.543378 0.867140
O O10 0.480473 0.619330 0.872345
O O11 0.555894 0.650472 0.000000
O O12 0.411091 0.573106 0.000000
O O13 0.607492 0.037091 0.000000
#
# Coordination Sequence:
#
# PCOD9495323 Si02
#       5
#    16  16  16  16  16
#     4  11  20  29  44  72 100 127 151 195 249 290
#     4   9  16  27  47  75  99 120 157 205 241 276
#     4   9  15  27  47  68  93 124 155 190 238 290
#     4   8  14  25  44  69  93 119 154 195 235 276
#     4  10  18  30  48  69  96 124 158 196 240 294
#
# _framework density 18.405822000000001
#
# number of rings (size 3 to 8) (size 9 to 14) (size 15 to 20)
#    0.000    2.600    2.000    4.800    0.000    0.000 
#    0.000    2.000    0.000    1.200   10.400    7.000 
#    0.000    0.000    0.000    0.000    0.000    1.200 
#
# Total GULP energy -223016.799759 kJ/mol
# GULP energy per Si atom -5575.419994 kJ/mol
# Density = 1.836393 g / cm^3
# Si number density = 18.405822 Si / 1000 Ang^3
#
#
#
# Elastic Constant Matrix: (Units=GPa)
#
#
# Indices 1 2 3 4 5 6 
#
# 1 94.2101 77.2195 7.0532 0.0000 0.0000 0.0000
# 2 77.2195 210.8064 32.5728 0.0000 0.0000 0.0000
# 3 7.0532 32.5728 39.0800 0.0000 0.0000 0.0000
# 4 0.0000 0.0000 0.0000 5.6388 0.0000 0.0000
# 5 0.0000 0.0000 0.0000 0.0000 5.2370 0.0000
# 6 0.0000 0.0000 0.0000 0.0000 0.0000 21.9205
#
#
#
# Elastic Compliance Matrix: (Units=1/GPa)
#
#
# Indices 1 2 3 4 5 6 
#
# 1 0.015332 -0.005955 0.002197 0.000000 0.000000 0.000000
# 2 -0.005955 0.007758 -0.005392 0.000000 0.000000 0.000000
# 3 0.002197 -0.005392 0.029686 0.000000 0.000000 0.000000
# 4 0.000000 0.000000 0.000000 0.177343 0.000000 0.000000
# 5 0.000000 0.000000 0.000000 0.000000 0.190948 0.000000
# 6 0.000000 0.000000 0.000000 0.000000 0.000000 0.045619
#
#
# Mechanical properties :
#
#
# Convention : Reuss Voigt Hill
#
# Bulk Modulus (GPa) = 29.00642 64.19862 46.60252
# Shear Modulus (GPa) = 10.07093 21.70932 15.89013
#
# Velocity S-wave (km/s) = 2.34168 3.43808 2.94142
# Velocity P-wave (km/s) = 4.80675 7.12150 6.07539
#
# Compressibility (1/GPa) = 0.03447513
#
# Stress axis : x y z
#
# Youngs Moduli (GPa) = 65.22516 128.89444 33.68597
#
# Poissons Ratio (x) = 0.76762 -0.07400
# Poissons Ratio (y) = 0.38844 0.18162
# Poissons Ratio (z) = -0.14328 0.69495
#
# Static dielectric constant tensor:
#      x y z
#    x 1.601710 0.000000 0.000000 
#    y 0.000000 1.669200 0.000000 
#    z 0.000000 0.000000 1.707330 
# 
# From -- ./inp_files/31003.got.cif
#   From: 2010.05.17/outbox.cif.g08.bks.cpg/sg66_16_cif.got.tgz:31003.got - 2010.06.03 17:51:23.
