data_PCOD9495910
_publ_section_title
;
Structure prediction by ZEFSAII (Michael W. Deem and Ramdas Pophale) SiO2 
 PCOD9495910
Probable space group: C C C M
;
_chemical_formula_sum "Si O2"
_cell_formula_units_Z 88
_cell_length_a 17.135008
_cell_length_b 20.482102
_cell_length_c 15.540176
_cell_angle_alpha 90.000000
_cell_angle_beta 90.000000
_cell_angle_gamma 90.000000
_cell_volume 5453.995424
_symmetry_space_group_name_H-M "C C C M"
_symmetry_group_IT_number 66
_symmetry_cell_setting 'orthorhombic'
loop_
_space_group_symop_operation_xyz
x,y,z
-x,-y,z
x,-y,1/2-z
-x,y,1/2-z
-x,-y,-z
x,y,-z
-x,y,1/2+z
x,-y,1/2+z
1/2+x,1/2+y,z
1/2-x,1/2-y,z
1/2+x,1/2-y,1/2-z
1/2-x,1/2+y,1/2-z
1/2-x,1/2-y,-z
1/2+x,1/2+y,-z
1/2-x,1/2+y,1/2+z
1/2+x,1/2-y,1/2+z
loop_
_atom_site_type_symbol
_atom_site_label
_atom_site_fract_x
_atom_site_fract_y
_atom_site_fract_z
Si Si1 0.128691 0.282282 0.399585
Si Si2 0.678573 0.404370 0.500000
Si Si3 0.808866 0.811139 0.159756
Si Si4 0.006516 0.889209 0.000000
Si Si5 0.012200 0.208148 0.154811
Si Si6 0.779529 0.849326 0.648653
Si Si7 0.828649 0.053149 0.000000
O O1 0.119415 0.297008 0.500000
O O2 0.175013 0.213635 0.389834
O O3 0.187216 0.333931 0.357210
O O4 0.044669 0.270050 0.356834
O O5 0.704002 0.362522 0.416952
O O6 0.583793 0.409380 0.500000
O O7 0.702871 0.479645 0.500000
O O8 0.750000 0.750000 0.161223
O O9 0.895652 0.781913 0.145421
O O10 0.804011 0.848511 0.251382
O O11 0.014623 0.843232 0.083316
O O12 0.076606 0.940647 0.000000
O O13 0.000000 0.180949 0.250000
O O14 0.800508 0.908693 0.585834
#
# Coordination Sequence:
#
# PCOD9495910 Si02
#       7
#    16   8  16   8  16  16   8
#     4  11  17  30  50  86 102 128 170 221 285 302
#     4  10  26  34  47  69 106 152 188 198 245 324
#     4  11  21  37  52  74 105 144 180 217 257 311
#     4  10  19  32  47  68 100 148 183 204 241 300
#     4  11  17  29  50  78 107 133 169 219 266 313
#     4  11  18  30  56  77 104 132 167 224 271 307
#     4  12  19  35  51  76 107 137 173 223 260 310
#
# _framework density 16.134961000000001
#
# number of rings (size 3 to 8) (size 9 to 14) (size 15 to 20)
#    0.000    1.091    8.182    1.091    0.000    0.727 
#    0.000    0.000    0.000    3.273    0.000    2.545 
#    0.000    4.364    0.000    0.000    0.000    0.000 
#
# Total GULP energy -245203.620910 kJ/mol
# GULP energy per Si atom -5572.809566 kJ/mol
# Density = 1.609824 g / cm^3
# Si number density = 16.134961 Si / 1000 Ang^3
#
#
#
# Elastic Constant Matrix: (Units=GPa)
#
#
# Indices 1 2 3 4 5 6 
#
# 1 73.2463 24.5324 27.3188 0.0000 0.0000 0.0000
# 2 24.5324 64.5678 34.4800 0.0000 0.0000 0.0000
# 3 27.3188 34.4800 128.8480 0.0000 0.0000 0.0000
# 4 0.0000 0.0000 0.0000 9.7243 0.0000 0.0000
# 5 0.0000 0.0000 0.0000 0.0000 13.6807 0.0000
# 6 0.0000 0.0000 0.0000 0.0000 0.0000 15.8195
#
#
#
# Elastic Compliance Matrix: (Units=1/GPa)
#
#
# Indices 1 2 3 4 5 6 
#
# 1 0.016104 -0.005012 -0.002073 0.000000 0.000000 0.000000
# 2 -0.005012 0.019629 -0.004190 0.000000 0.000000 0.000000
# 3 -0.002073 -0.004190 0.009322 0.000000 0.000000 0.000000
# 4 0.000000 0.000000 0.000000 0.102835 0.000000 0.000000
# 5 0.000000 0.000000 0.000000 0.000000 0.073096 0.000000
# 6 0.000000 0.000000 0.000000 0.000000 0.000000 0.063213
#
#
# Mechanical properties :
#
#
# Convention : Reuss Voigt Hill
#
# Bulk Modulus (GPa) = 44.43409 48.81384 46.62397
# Shear Modulus (GPa) = 15.91080 19.86696 17.88888
#
# Velocity S-wave (km/s) = 3.14364 3.51279 3.33333
# Velocity P-wave (km/s) = 6.38556 6.83901 6.61617
#
# Compressibility (1/GPa) = 0.02250524
#
# Stress axis : x y z
#
# Youngs Moduli (GPa) = 62.09474 50.94395 107.27281
#
# Poissons Ratio (x) = 0.25531 0.22242
# Poissons Ratio (y) = 0.31119 0.44950
# Poissons Ratio (z) = 0.12875 0.21347
#
# Static dielectric constant tensor:
#      x y z
#    x 1.585610 0.000000 0.000000 
#    y 0.000000 1.518230 0.000000 
#    z 0.000000 0.000000 1.591620 
# 
# From -- ./inp_files/30173.got.cif
#   From: 2010.05.17/outbox.cif.g08.bks.cpg/sg66_16_cif.got.tgz:30173.got - 2010.06.03 17:51:23.
