data_PCOD9495492
_publ_section_title
;
Structure prediction by ZEFSAII (Michael W. Deem and Ramdas Pophale) SiO2 
 PCOD9495492
Probable space group: C C C M
;
_chemical_formula_sum "Si O2"
_cell_formula_units_Z 96
_cell_length_a 23.730093
_cell_length_b 10.989991
_cell_length_c 15.745517
_cell_angle_alpha 90.000000
_cell_angle_beta 90.000000
_cell_angle_gamma 90.000000
_cell_volume 4106.328622
_symmetry_space_group_name_H-M "C C C M"
_symmetry_group_IT_number 66
_symmetry_cell_setting 'orthorhombic'
loop_
_space_group_symop_operation_xyz
x,y,z
-x,-y,z
x,-y,1/2-z
-x,y,1/2-z
-x,-y,-z
x,y,-z
-x,y,1/2+z
x,-y,1/2+z
1/2+x,1/2+y,z
1/2-x,1/2-y,z
1/2+x,1/2-y,1/2-z
1/2-x,1/2+y,1/2-z
1/2-x,1/2-y,-z
1/2+x,1/2+y,-z
1/2-x,1/2+y,1/2+z
1/2+x,1/2-y,1/2+z
loop_
_atom_site_type_symbol
_atom_site_label
_atom_site_fract_x
_atom_site_fract_y
_atom_site_fract_z
Si Si1 0.532097 0.609806 0.842374
Si Si2 0.690325 0.218625 0.649674
Si Si3 0.130576 0.629715 0.202113
Si Si4 0.649640 0.463096 0.595609
Si Si5 0.988856 0.635983 0.351605
Si Si6 0.731531 0.954356 0.598524
O O1 0.500000 0.500000 0.889037
O O2 0.500000 0.619945 0.750000
O O3 0.595311 0.557060 0.846369
O O4 0.523661 0.745414 0.881206
O O5 0.750000 0.250000 0.692156
O O6 0.640866 0.215389 0.718299
O O7 0.676113 0.327854 0.588276
O O8 0.701834 0.087755 0.608284
O O9 0.120605 0.500000 0.250000
O O10 0.077933 0.660515 0.143787
O O11 0.188827 0.626299 0.151714
O O12 0.634826 0.504915 0.500000
O O13 0.703586 0.538896 0.629329
O O14 0.000000 0.500000 0.387298
O O15 0.000000 0.626733 0.250000
O O16 0.733020 0.921415 0.500000
#
# Coordination Sequence:
#
# PCOD9495492 Si02
#       6
#    16  16  16  16  16  16
#     4  10  22  39  57  89 121 161 211 267 317 374
#     4   9  17  31  52  87 113 144 195 253 305 360
#     4  10  18  32  55  86 115 157 197 254 316 382
#     4  10  20  37  61  84 117 164 212 263 317 382
#     4  10  18  33  58  84 116 155 200 249 310 377
#     4   9  19  34  54  84 120 156 198 253 318 381
#
# _framework density 23.378549
#
# number of rings (size 3 to 8) (size 9 to 14) (size 15 to 20)
#    0.000    2.333    1.667    2.500    2.333    2.333 
#   18.000    0.833    0.000    1.500    0.000    0.000 
#    0.000    0.000    0.000    0.000    0.000    0.000 
#
# Total GULP energy -267390.491421 kJ/mol
# GULP energy per Si atom -5570.635238 kJ/mol
# Density = 2.332534 g / cm^3
# Si number density = 23.378549 Si / 1000 Ang^3
#
#
#
# Elastic Constant Matrix: (Units=GPa)
#
#
# Indices 1 2 3 4 5 6 
#
# 1 180.0698 12.5296 42.2899 0.0000 0.0000 0.0000
# 2 12.5296 74.1197 6.4508 0.0000 0.0000 0.0000
# 3 42.2899 6.4508 41.4715 0.0000 0.0000 0.0000
# 4 0.0000 0.0000 0.0000 2.9924 0.0000 0.0000
# 5 0.0000 0.0000 0.0000 0.0000 11.3809 0.0000
# 6 0.0000 0.0000 0.0000 0.0000 0.0000 19.4881
#
#
#
# Elastic Compliance Matrix: (Units=1/GPa)
#
#
# Indices 1 2 3 4 5 6 
#
# 1 0.007328 -0.000596 -0.007380 0.000000 0.000000 0.000000
# 2 -0.000596 0.013725 -0.001527 0.000000 0.000000 0.000000
# 3 -0.007380 -0.001527 0.031876 0.000000 0.000000 0.000000
# 4 0.000000 0.000000 0.000000 0.334176 0.000000 0.000000
# 5 0.000000 0.000000 0.000000 0.000000 0.087867 0.000000
# 6 0.000000 0.000000 0.000000 0.000000 0.000000 0.051313
#
#
# Mechanical properties :
#
#
# Convention : Reuss Voigt Hill
#
# Bulk Modulus (GPa) = 29.47834 46.46684 37.97259
# Shear Modulus (GPa) = 8.98312 22.39833 15.69072
#
# Velocity S-wave (km/s) = 1.96235 3.09863 2.59348
# Velocity P-wave (km/s) = 4.21556 5.72023 5.02454
#
# Compressibility (1/GPa) = 0.03392322
#
# Stress axis : x y z
#
# Youngs Moduli (GPa) = 136.46091 72.85769 31.37159
#
# Poissons Ratio (x) = 0.04346 0.23152
# Poissons Ratio (y) = 0.08140 0.04790
# Poissons Ratio (z) = 1.00707 0.11123
#
# Static dielectric constant tensor:
#      x y z
#    x 1.948060 0.000000 0.000000 
#    y 0.000000 1.964660 0.000000 
#    z 0.000000 0.000000 1.869650 
# 
# From -- ./inp_files/43553.got.cif
#   From: 2010.05.17/outbox.cif.g08.bks.cpg/sg66_22_cif.got.tgz:43553.got - 2010.06.03 17:51:23.
