data_PCOD9495477
_publ_section_title
;
Structure prediction by ZEFSAII (Michael W. Deem and Ramdas Pophale) SiO2 
 PCOD9495477
Probable space group: C C C M
;
_chemical_formula_sum "Si O2"
_cell_formula_units_Z 104
_cell_length_a 28.142439
_cell_length_b 21.638670
_cell_length_c 9.535857
_cell_angle_alpha 90.000000
_cell_angle_beta 90.000000
_cell_angle_gamma 90.000000
_cell_volume 5807.002686
_symmetry_space_group_name_H-M "C C C M"
_symmetry_group_IT_number 66
_symmetry_cell_setting 'orthorhombic'
loop_
_space_group_symop_operation_xyz
x,y,z
-x,-y,z
x,-y,1/2-z
-x,y,1/2-z
-x,-y,-z
x,y,-z
-x,y,1/2+z
x,-y,1/2+z
1/2+x,1/2+y,z
1/2-x,1/2-y,z
1/2+x,1/2-y,1/2-z
1/2-x,1/2+y,1/2-z
1/2-x,1/2-y,-z
1/2+x,1/2+y,-z
1/2-x,1/2+y,1/2+z
1/2+x,1/2-y,1/2+z
loop_
_atom_site_type_symbol
_atom_site_label
_atom_site_fract_x
_atom_site_fract_y
_atom_site_fract_z
Si Si1 0.544630 0.381198 0.839050
Si Si2 0.954553 0.732751 0.661048
Si Si3 0.733828 0.389248 0.651547
Si Si4 0.750000 0.250000 0.726867
Si Si5 0.685271 0.938910 0.332416
Si Si6 0.371679 0.562705 0.663069
Si Si7 0.650080 0.803398 0.667159
O O1 0.500000 0.405374 0.750000
O O2 0.541660 0.307020 0.845072
O O3 0.590323 0.398354 0.749187
O O4 0.545906 0.404004 0.000000
O O5 0.957658 0.709697 0.500000
O O6 0.901696 0.718248 0.720692
O O7 0.000000 0.710244 0.750000
O O8 0.751358 0.413394 0.500000
O O9 0.741557 0.315755 0.654180
O O10 0.761992 0.422410 0.776150
O O11 0.678644 0.403298 0.662857
O O12 0.698291 0.235149 0.798260
O O13 0.684031 0.946878 0.500000
O O14 0.657769 0.875428 0.294550
O O15 0.669071 0.000000 0.250000
O O16 0.366383 0.500000 0.750000
O O17 0.385540 0.552613 0.500000
O O18 0.646768 0.799841 0.500000
#
# Coordination Sequence:
#
# PCOD9495477 Si02
#       7
#    16  16  16   8  16  16  16
#     4  10  20  35  55  77 101 130 165 210 260 309
#     4   9  18  34  55  80 108 137 172 213 259 312
#     4  10  21  35  52  76 107 139 171 210 256 307
#     4  10  18  32  54  82 111 140 173 214 265 316
#     4  10  20  34  53  75 102 137 175 213 254 306
#     4  11  23  37  52  72  99 134 175 215 255 301
#     4   9  18  32  52  79 109 140 174 215 263 316
#
# _framework density 17.909410000000001
#
# number of rings (size 3 to 8) (size 9 to 14) (size 15 to 20)
#    0.000    2.154    0.000    3.231    0.000    4.000 
#    0.000    6.154    0.000    0.462    0.000    3.231 
#    0.000    0.000    0.000    0.000    0.000    0.000 
#
# Total GULP energy -289539.891526 kJ/mol
# GULP energy per Si atom -5568.074837 kJ/mol
# Density = 1.786865 g / cm^3
# Si number density = 17.909410 Si / 1000 Ang^3
#
#
#
# Elastic Constant Matrix: (Units=GPa)
#
#
# Indices 1 2 3 4 5 6 
#
# 1 107.0679 7.8199 47.4926 0.0000 0.0000 0.0000
# 2 7.8199 39.5553 26.6780 0.0000 0.0000 0.0000
# 3 47.4926 26.6780 104.0637 0.0000 0.0000 0.0000
# 4 0.0000 0.0000 0.0000 23.5381 0.0000 0.0000
# 5 0.0000 0.0000 0.0000 0.0000 24.4688 0.0000
# 6 0.0000 0.0000 0.0000 0.0000 0.0000 8.7983
#
#
#
# Elastic Compliance Matrix: (Units=1/GPa)
#
#
# Indices 1 2 3 4 5 6 
#
# 1 0.011791 0.001570 -0.005783 0.000000 0.000000 0.000000
# 2 0.001570 0.030775 -0.008606 0.000000 0.000000 0.000000
# 3 -0.005783 -0.008606 0.014455 0.000000 0.000000 0.000000
# 4 0.000000 0.000000 0.000000 0.042484 0.000000 0.000000
# 5 0.000000 0.000000 0.000000 0.000000 0.040868 0.000000
# 6 0.000000 0.000000 0.000000 0.000000 0.000000 0.113658
#
#
# Mechanical properties :
#
#
# Convention : Reuss Voigt Hill
#
# Bulk Modulus (GPa) = 31.86596 46.07421 38.97009
# Shear Modulus (GPa) = 17.23356 22.60746 19.92051
#
# Velocity S-wave (km/s) = 3.10540 3.55677 3.33872
# Velocity P-wave (km/s) = 5.53981 6.53067 6.05554
#
# Compressibility (1/GPa) = 0.03138145
#
# Stress axis : x y z
#
# Youngs Moduli (GPa) = 84.81337 32.49392 69.17947
#
# Poissons Ratio (x) = -0.05100 0.40009
# Poissons Ratio (y) = -0.13313 0.59535
# Poissons Ratio (z) = 0.49051 0.27964
#
# Static dielectric constant tensor:
#      x y z
#    x 1.630060 0.000000 0.000000 
#    y 0.000000 1.617000 0.000000 
#    z 0.000000 0.000000 1.626940 
# 
# From -- ./inp_files/8352.got.cif
#   From: 2010.05.17/outbox.cif.g08.bks.cpg/sg66_5_cif.got.tgz:8352.got - 2010.06.03 17:51:23.
