data_PCOD9495017
_publ_section_title
;
Structure prediction by ZEFSAII (Michael W. Deem and Ramdas Pophale) SiO2 
 PCOD9495017
Probable space group: C C C M
;
_chemical_formula_sum "Si O2"
_cell_formula_units_Z 112
_cell_length_a 12.856151
_cell_length_b 29.743737
_cell_length_c 14.270371
_cell_angle_alpha 90.000000
_cell_angle_beta 90.000000
_cell_angle_gamma 90.000000
_cell_volume 5456.846798
_symmetry_space_group_name_H-M "C C C M"
_symmetry_group_IT_number 66
_symmetry_cell_setting 'orthorhombic'
loop_
_space_group_symop_operation_xyz
x,y,z
-x,-y,z
x,-y,1/2-z
-x,y,1/2-z
-x,-y,-z
x,y,-z
-x,y,1/2+z
x,-y,1/2+z
1/2+x,1/2+y,z
1/2-x,1/2-y,z
1/2+x,1/2-y,1/2-z
1/2-x,1/2+y,1/2-z
1/2-x,1/2-y,-z
1/2+x,1/2+y,-z
1/2-x,1/2+y,1/2+z
1/2+x,1/2-y,1/2+z
loop_
_atom_site_type_symbol
_atom_site_label
_atom_site_fract_x
_atom_site_fract_y
_atom_site_fract_z
Si Si1 0.428749 0.804049 0.385145
Si Si2 0.563394 0.702675 0.114746
Si Si3 0.637591 0.045657 0.358043
Si Si4 0.101088 0.551909 0.864433
Si Si5 0.645155 0.153387 0.107894
Si Si6 0.759680 0.134454 0.387931
Si Si7 0.325999 0.291135 0.613808
O O1 0.430419 0.805416 0.500000
O O2 0.399316 0.753072 0.359282
O O3 0.542294 0.821872 0.353016
O O4 0.341027 0.838363 0.352046
O O5 0.636694 0.661094 0.144980
O O6 0.443492 0.703721 0.147799
O O7 0.562601 0.701391 0.000000
O O8 0.615118 0.048365 0.247302
O O9 0.520150 0.054584 0.394536
O O10 0.727621 0.082122 0.375008
O O11 0.655841 0.994744 0.393293
O O12 0.141813 0.600122 0.891887
O O13 0.756284 0.167422 0.146232
O O14 0.646030 0.169138 0.000000
O O15 0.761808 0.140078 0.500000
O O16 0.337069 0.288333 0.500000
O O17 0.250000 0.250000 0.640397
#
# Coordination Sequence:
#
# PCOD9495017 Si02
#       7
#    16  16  16  16  16  16  16
#     4   9  15  24  39  67  99 122 146 180 225 275
#     4   9  16  26  41  65  99 132 157 184 224 278
#     4   9  18  32  48  66  91 122 156 190 239 297
#     4   9  18  32  48  67  90 121 156 193 239 292
#     4  10  17  26  46  73  96 118 152 195 235 270
#     4  10  18  27  44  71  98 124 154 191 236 282
#     4   9  15  25  42  65  94 127 159 191 224 265
#
# _framework density 20.524673
#
# number of rings (size 3 to 8) (size 9 to 14) (size 15 to 20)
#    0.000    2.714    2.857    1.286    0.000    2.286 
#    0.000    1.429    0.000    3.429    3.714    6.000 
#    0.000    0.000    0.000    0.000    0.000    0.000 
#
# Total GULP energy -311870.183142 kJ/mol
# GULP energy per Si atom -5569.110413 kJ/mol
# Density = 2.047796 g / cm^3
# Si number density = 20.524673 Si / 1000 Ang^3
#
#
#
# Elastic Constant Matrix: (Units=GPa)
#
#
# Indices 1 2 3 4 5 6 
#
# 1 115.8307 73.9064 6.7968 0.0000 0.0000 0.0000
# 2 73.9064 158.7873 -9.6859 0.0000 0.0000 0.0000
# 3 6.7968 -9.6859 62.0347 0.0000 0.0000 0.0000
# 4 0.0000 0.0000 0.0000 20.1702 0.0000 0.0000
# 5 0.0000 0.0000 0.0000 0.0000 14.1701 0.0000
# 6 0.0000 0.0000 0.0000 0.0000 0.0000 33.9938
#
#
#
# Elastic Compliance Matrix: (Units=1/GPa)
#
#
# Indices 1 2 3 4 5 6 
#
# 1 0.012602 -0.006007 -0.002319 0.000000 0.000000 0.000000
# 2 -0.006007 0.009222 0.002098 0.000000 0.000000 0.000000
# 3 -0.002319 0.002098 0.016702 0.000000 0.000000 0.000000
# 4 0.000000 0.000000 0.000000 0.049578 0.000000 0.000000
# 5 0.000000 0.000000 0.000000 0.000000 0.070571 0.000000
# 6 0.000000 0.000000 0.000000 0.000000 0.000000 0.029417
#
#
# Mechanical properties :
#
#
# Convention : Reuss Voigt Hill
#
# Bulk Modulus (GPa) = 38.35823 53.18748 45.77286
# Shear Modulus (GPa) = 23.89633 31.37585 27.63609
#
# Velocity S-wave (km/s) = 3.41585 3.91409 3.67342
# Velocity P-wave (km/s) = 5.85549 6.81153 6.35152
#
# Compressibility (1/GPa) = 0.02607002
#
# Stress axis : x y z
#
# Youngs Moduli (GPa) = 79.35153 108.44067 59.87445
#
# Poissons Ratio (x) = 0.65141 0.13883
# Poissons Ratio (y) = 0.47667 -0.12562
# Poissons Ratio (z) = 0.18399 -0.22751
#
# Static dielectric constant tensor:
#      x y z
#    x 1.730940 0.000000 0.000000 
#    y 0.000000 1.771370 0.000000 
#    z 0.000000 0.000000 1.861660 
# 
# From -- ./inp_files/49144.got.cif
#   From: 2010.05.17/outbox.cif.g08.bks.cpg/sg66_25_cif.got.tgz:49144.got - 2010.06.03 17:51:23.
