data_PCOD9495837
_publ_section_title
;
Structure prediction by ZEFSAII (Michael W. Deem and Ramdas Pophale) SiO2 
 PCOD9495837
Probable space group: C C C M
;
_chemical_formula_sum "Si O2"
_cell_formula_units_Z 80
_cell_length_a 27.393134
_cell_length_b 19.030785
_cell_length_c 8.813903
_cell_angle_alpha 90.000000
_cell_angle_beta 90.000000
_cell_angle_gamma 90.000000
_cell_volume 4594.800836
_symmetry_space_group_name_H-M "C C C M"
_symmetry_group_IT_number 66
_symmetry_cell_setting 'orthorhombic'
loop_
_space_group_symop_operation_xyz
x,y,z
-x,-y,z
x,-y,1/2-z
-x,y,1/2-z
-x,-y,-z
x,y,-z
-x,y,1/2+z
x,-y,1/2+z
1/2+x,1/2+y,z
1/2-x,1/2-y,z
1/2+x,1/2-y,1/2-z
1/2-x,1/2+y,1/2-z
1/2-x,1/2-y,-z
1/2+x,1/2+y,-z
1/2-x,1/2+y,1/2+z
1/2+x,1/2-y,1/2+z
loop_
_atom_site_type_symbol
_atom_site_label
_atom_site_fract_x
_atom_site_fract_y
_atom_site_fract_z
Si Si1 0.445833 0.572434 0.681893
Si Si2 0.604135 0.718505 0.817492
Si Si3 0.448303 0.860450 0.681493
Si Si4 0.199094 0.713779 0.818451
Si Si5 0.655320 0.924748 0.817779
O O1 0.425349 0.500000 0.750000
O O2 0.500000 0.580492 0.750000
O O3 0.449046 0.566923 0.500000
O O4 0.415301 0.641631 0.720905
O O5 0.565348 0.779790 0.777218
O O6 0.654289 0.738039 0.736397
O O7 0.611136 0.722881 0.000000
O O8 0.500000 0.881757 0.750000
O O9 0.451908 0.864539 0.500000
O O10 0.400650 0.905141 0.728146
O O11 0.250000 0.750000 0.774516
O O12 0.189171 0.638032 0.743393
O O13 0.197986 0.706180 0.000000
O O14 0.668419 0.000000 0.750000
O O15 0.657188 0.925756 0.000000
#
# Coordination Sequence:
#
# PCOD9495837 Si02
#       5
#    16  16  16  16  16
#     4  10  19  31  48  72 103 138 175 212 256 308
#     4   9  19  34  51  73 101 135 174 214 258 308
#     4   9  18  31  48  73 103 136 173 209 248 297
#     4  10  21  37  58  82 104 130 169 214 261 312
#     4  10  21  37  56  79 108 140 174 211 254 303
#
# _framework density 17.410983000000002
#
# number of rings (size 3 to 8) (size 9 to 14) (size 15 to 20)
#    0.000    2.400    0.000    4.200    0.000    7.600 
#    0.000    3.000    0.000    2.400    0.000    0.000 
#    0.000    0.000    0.000    0.000    0.000    0.000 
#
# Total GULP energy -223179.073051 kJ/mol
# GULP energy per Si atom -5579.476826 kJ/mol
# Density = 1.737135 g / cm^3
# Si number density = 17.410983 Si / 1000 Ang^3
#
#
#
# Elastic Constant Matrix: (Units=GPa)
#
#
# Indices 1 2 3 4 5 6 
#
# 1 95.7245 56.3487 35.6802 0.0000 0.0000 0.0000
# 2 56.3487 151.3552 50.3511 0.0000 0.0000 0.0000
# 3 35.6802 50.3511 42.8576 0.0000 0.0000 0.0000
# 4 0.0000 0.0000 0.0000 49.2504 0.0000 0.0000
# 5 0.0000 0.0000 0.0000 0.0000 25.7962 0.0000
# 6 0.0000 0.0000 0.0000 0.0000 0.0000 10.1854
#
#
#
# Elastic Compliance Matrix: (Units=1/GPa)
#
#
# Indices 1 2 3 4 5 6 
#
# 1 0.015683 -0.002455 -0.010173 0.000000 0.000000 0.000000
# 2 -0.002455 0.011230 -0.011150 0.000000 0.000000 0.000000
# 3 -0.010173 -0.011150 0.044902 0.000000 0.000000 0.000000
# 4 0.000000 0.000000 0.000000 0.020304 0.000000 0.000000
# 5 0.000000 0.000000 0.000000 0.000000 0.038765 0.000000
# 6 0.000000 0.000000 0.000000 0.000000 0.000000 0.098179
#
#
# Mechanical properties :
#
#
# Convention : Reuss Voigt Hill
#
# Bulk Modulus (GPa) = 41.22012 63.85527 52.53769
# Shear Modulus (GPa) = 17.56189 26.88357 22.22273
#
# Velocity S-wave (km/s) = 3.17940 3.93371 3.57650
# Velocity P-wave (km/s) = 6.09953 7.57542 6.87718
#
# Compressibility (1/GPa) = 0.02426000
#
# Stress axis : x y z
#
# Youngs Moduli (GPa) = 63.76130 89.04655 22.27062
#
# Poissons Ratio (x) = 0.21857 0.22656
# Poissons Ratio (y) = 0.15651 0.24832
# Poissons Ratio (z) = 0.64866 0.99288
#
# Static dielectric constant tensor:
#      x y z
#    x 1.568590 0.000000 0.000000 
#    y 0.000000 1.594790 0.000000 
#    z 0.000000 0.000000 1.585510 
# 
# From -- ./inp_files/6683.got.cif
#   From: 2010.05.17/outbox.cif.g08.bks.cpg/sg66_4_cif.got.tgz:6683.got - 2010.06.03 17:51:23.
