data_PCOD9495483
_publ_section_title
;
Structure prediction by ZEFSAII (Michael W. Deem and Ramdas Pophale) SiO2 
 PCOD9495483
Probable space group: C C C M
;
_chemical_formula_sum "Si O2"
_cell_formula_units_Z 88
_cell_length_a 25.379156
_cell_length_b 20.514507
_cell_length_c 9.025453
_cell_angle_alpha 90.000000
_cell_angle_beta 90.000000
_cell_angle_gamma 90.000000
_cell_volume 4699.019733
_symmetry_space_group_name_H-M "C C C M"
_symmetry_group_IT_number 66
_symmetry_cell_setting 'orthorhombic'
loop_
_space_group_symop_operation_xyz
x,y,z
-x,-y,z
x,-y,1/2-z
-x,y,1/2-z
-x,-y,-z
x,y,-z
-x,y,1/2+z
x,-y,1/2+z
1/2+x,1/2+y,z
1/2-x,1/2-y,z
1/2+x,1/2-y,1/2-z
1/2-x,1/2+y,1/2-z
1/2-x,1/2-y,-z
1/2+x,1/2+y,-z
1/2-x,1/2+y,1/2+z
1/2+x,1/2-y,1/2+z
loop_
_atom_site_type_symbol
_atom_site_label
_atom_site_fract_x
_atom_site_fract_y
_atom_site_fract_z
Si Si1 0.335351 0.066721 0.320603
Si Si2 0.750000 0.750000 0.754790
Si Si3 0.944377 0.204595 0.822207
Si Si4 0.393971 0.567786 0.821231
Si Si5 0.721259 0.393146 0.829955
Si Si6 0.137000 0.698746 0.331351
O O1 0.336938 0.065851 0.500000
O O2 0.274384 0.075645 0.266707
O O3 0.363427 0.130939 0.257849
O O4 0.355807 0.000000 0.250000
O O5 0.729825 0.684962 0.671969
O O6 0.802616 0.724747 0.834851
O O7 0.930188 0.129589 0.785789
O O8 0.898825 0.249430 0.753850
O O9 0.000000 0.221996 0.750000
O O10 0.945375 0.211456 0.000000
O O11 0.410849 0.500000 0.750000
O O12 0.334653 0.585573 0.764751
O O13 0.392935 0.561924 0.000000
O O14 0.719473 0.414219 0.000000
O O15 0.119028 0.689988 0.500000
#
# Coordination Sequence:
#
# PCOD9495483 Si02
#       6
#    16   8  16  16  16  16
#     4  10  20  34  55  84 121 161 197 237 289 350
#     4  10  18  32  54  86 121 152 195 242 295 348
#     4  11  24  43  64  86 115 152 201 251 301 354
#     4  10  21  37  56  82 113 152 198 245 297 351
#     4   9  17  30  51  80 116 157 196 240 291 350
#     4  11  22  37  59  89 121 155 196 243 297 353
#
# _framework density 18.727311
#
# number of rings (size 3 to 8) (size 9 to 14) (size 15 to 20)
#    0.000    1.818    1.818    2.727    0.000    3.273 
#    0.000    2.727    0.000    0.545    0.000    3.818 
#    0.000    0.000    0.000    0.000    0.000    0.000 
#
# Total GULP energy -245365.154520 kJ/mol
# GULP energy per Si atom -5576.480785 kJ/mol
# Density = 1.868469 g / cm^3
# Si number density = 18.727311 Si / 1000 Ang^3
#
#
#
# Elastic Constant Matrix: (Units=GPa)
#
#
# Indices 1 2 3 4 5 6 
#
# 1 74.4829 35.3213 35.3187 0.0000 0.0000 0.0000
# 2 35.3213 140.7172 46.1813 0.0000 0.0000 0.0000
# 3 35.3187 46.1813 77.3771 0.0000 0.0000 0.0000
# 4 0.0000 0.0000 0.0000 24.1184 0.0000 0.0000
# 5 0.0000 0.0000 0.0000 0.0000 82.8982 0.0000
# 6 0.0000 0.0000 0.0000 0.0000 0.0000 13.1586
#
#
#
# Elastic Compliance Matrix: (Units=1/GPa)
#
#
# Indices 1 2 3 4 5 6 
#
# 1 0.017677 -0.002225 -0.006741 0.000000 0.000000 0.000000
# 2 -0.002225 0.009118 -0.004426 0.000000 0.000000 0.000000
# 3 -0.006741 -0.004426 0.018642 0.000000 0.000000 0.000000
# 4 0.000000 0.000000 0.000000 0.041462 0.000000 0.000000
# 5 0.000000 0.000000 0.000000 0.000000 0.012063 0.000000
# 6 0.000000 0.000000 0.000000 0.000000 0.000000 0.075996
#
#
# Mechanical properties :
#
#
# Convention : Reuss Voigt Hill
#
# Bulk Modulus (GPa) = 53.60975 58.46887 56.03931
# Shear Modulus (GPa) = 24.04309 35.75210 29.89759
#
# Velocity S-wave (km/s) = 3.58697 4.37405 3.99992
# Velocity P-wave (km/s) = 6.77081 7.53649 7.16389
#
# Compressibility (1/GPa) = 0.01865332
#
# Stress axis : x y z
#
# Youngs Moduli (GPa) = 56.56923 109.67915 53.64163
#
# Poissons Ratio (x) = 0.24403 0.36159
# Poissons Ratio (y) = 0.12586 0.23742
# Poissons Ratio (z) = 0.38133 0.48545
#
# Static dielectric constant tensor:
#      x y z
#    x 1.655850 0.000000 0.000000 
#    y 0.000000 1.640060 0.000000 
#    z 0.000000 0.000000 1.643750 
# 
# From -- ./inp_files/8988.got.cif
#   From: 2010.05.17/outbox.cif.g08.bks.cpg/sg66_5_cif.got.tgz:8988.got - 2010.06.03 17:51:23.
