data_PCOD9496170
_publ_section_title
;
Structure prediction by ZEFSAII (Michael W. Deem and Ramdas Pophale) SiO2 
 PCOD9496170
Probable space group: C C C M
;
_chemical_formula_sum "Si O2"
_cell_formula_units_Z 64
_cell_length_a 15.505268
_cell_length_b 9.919059
_cell_length_c 20.032306
_cell_angle_alpha 90.000000
_cell_angle_beta 90.000000
_cell_angle_gamma 90.000000
_cell_volume 3080.921950
_symmetry_space_group_name_H-M "C C C M"
_symmetry_group_IT_number 66
_symmetry_cell_setting 'orthorhombic'
loop_
_space_group_symop_operation_xyz
x,y,z
-x,-y,z
x,-y,1/2-z
-x,y,1/2-z
-x,-y,-z
x,y,-z
-x,y,1/2+z
x,-y,1/2+z
1/2+x,1/2+y,z
1/2-x,1/2-y,z
1/2+x,1/2-y,1/2-z
1/2-x,1/2+y,1/2-z
1/2-x,1/2-y,-z
1/2+x,1/2+y,-z
1/2-x,1/2+y,1/2+z
1/2+x,1/2-y,1/2+z
loop_
_atom_site_type_symbol
_atom_site_label
_atom_site_fract_x
_atom_site_fract_y
_atom_site_fract_z
Si Si1 0.366014 0.550861 0.842519
Si Si2 0.352125 0.790010 0.923806
Si Si3 0.327080 0.971386 0.670839
Si Si4 0.088421 0.211965 0.783835
O O1 0.394851 0.650150 0.900841
O O2 0.272254 0.482365 0.851791
O O3 0.425257 0.424829 0.824738
O O4 0.356197 0.653567 0.778893
O O5 0.250000 0.750000 0.918274
O O6 0.371793 0.912932 0.873656
O O7 0.370353 0.826087 0.000000
O O8 0.368214 0.823625 0.670034
O O9 0.331509 0.000000 0.750000
O O10 0.000000 0.261229 0.750000
#
# Coordination Sequence:
#
# PCOD9496170 Si02
#       4
#    16  16  16  16
#     4  10  19  33  59  82 112 150 194 233 284 343
#     4   9  19  35  56  85 118 152 190 237 290 343
#     4  11  19  33  59  87 112 147 193 241 284 337
#     4  11  22  34  53  88 121 142 185 247 294 328
#
# _framework density 20.773002000000002
#
# number of rings (size 3 to 8) (size 9 to 14) (size 15 to 20)
#    0.000    1.750    5.000    2.250    0.000    0.500 
#    0.000    1.250    0.000   12.000    0.000    0.000 
#    0.000    0.000    0.000    0.000    0.000    0.750 
#
# Total GULP energy -178382.032571 kJ/mol
# GULP energy per Si atom -5574.438518 kJ/mol
# Density = 2.072572 g / cm^3
# Si number density = 20.773002 Si / 1000 Ang^3
#
#
#
# Elastic Constant Matrix: (Units=GPa)
#
#
# Indices 1 2 3 4 5 6 
#
# 1 54.5997 38.8923 7.0184 0.0000 0.0000 0.0000
# 2 38.8923 160.0089 60.9909 0.0000 0.0000 0.0000
# 3 7.0184 60.9909 93.0667 0.0000 0.0000 0.0000
# 4 0.0000 0.0000 0.0000 31.8962 0.0000 0.0000
# 5 0.0000 0.0000 0.0000 0.0000 9.3321 0.0000
# 6 0.0000 0.0000 0.0000 0.0000 0.0000 26.5175
#
#
#
# Elastic Compliance Matrix: (Units=1/GPa)
#
#
# Indices 1 2 3 4 5 6 
#
# 1 0.022587 -0.006453 0.002525 0.000000 0.000000 0.000000
# 2 -0.006453 0.010174 -0.006181 0.000000 0.000000 0.000000
# 3 0.002525 -0.006181 0.014605 0.000000 0.000000 0.000000
# 4 0.000000 0.000000 0.000000 0.031352 0.000000 0.000000
# 5 0.000000 0.000000 0.000000 0.000000 0.107157 0.000000
# 6 0.000000 0.000000 0.000000 0.000000 0.000000 0.037711
#
#
# Mechanical properties :
#
#
# Convention : Reuss Voigt Hill
#
# Bulk Modulus (GPa) = 36.83282 57.94205 47.38744
# Shear Modulus (GPa) = 19.77443 26.93408 23.35426
#
# Velocity S-wave (km/s) = 3.08868 3.60473 3.35664
# Velocity P-wave (km/s) = 5.52173 6.72896 6.15502
#
# Compressibility (1/GPa) = 0.02714970
#
# Stress axis : x y z
#
# Youngs Moduli (GPa) = 44.27365 98.28936 68.46886
#
# Poissons Ratio (x) = 0.63422 -0.17291
# Poissons Ratio (y) = 0.28568 0.42320
# Poissons Ratio (z) = -0.11181 0.60752
#
# Static dielectric constant tensor:
#      x y z
#    x 1.830650 0.000000 0.000000 
#    y 0.000000 1.793680 0.000000 
#    z 0.000000 0.000000 1.760380 
# 
# From -- ./inp_files/50520.got.cif
#   From: 2010.05.17/outbox.cif.g08.bks.cpg/sg66_26_cif.got.tgz:50520.got - 2010.06.03 17:51:23.
