data_PCOD9496266
_publ_section_title
;
Structure prediction by ZEFSAII (Michael W. Deem and Ramdas Pophale) SiO2 
 PCOD9496266
Probable space group: C C C M
;
_chemical_formula_sum "Si O2"
_cell_formula_units_Z 64
_cell_length_a 36.006855
_cell_length_b 5.075092
_cell_length_c 15.241966
_cell_angle_alpha 90.000000
_cell_angle_beta 90.000000
_cell_angle_gamma 90.000000
_cell_volume 2785.287934
_symmetry_space_group_name_H-M "C C C M"
_symmetry_group_IT_number 66
_symmetry_cell_setting 'orthorhombic'
loop_
_space_group_symop_operation_xyz
x,y,z
-x,-y,z
x,-y,1/2-z
-x,y,1/2-z
-x,-y,-z
x,y,-z
-x,y,1/2+z
x,-y,1/2+z
1/2+x,1/2+y,z
1/2-x,1/2-y,z
1/2+x,1/2-y,1/2-z
1/2-x,1/2+y,1/2-z
1/2-x,1/2-y,-z
1/2+x,1/2+y,-z
1/2-x,1/2+y,1/2+z
1/2+x,1/2-y,1/2+z
loop_
_atom_site_type_symbol
_atom_site_label
_atom_site_fract_x
_atom_site_fract_y
_atom_site_fract_z
Si Si1 0.172807 0.929134 0.901540
Si Si2 0.714756 0.900426 0.154791
Si Si3 0.088912 0.994433 0.356160
Si Si4 0.042457 0.512432 0.143005
O O1 0.195057 0.656142 0.887094
O O2 0.185253 0.165412 0.838074
O O3 0.128667 0.915218 0.891916
O O4 0.181400 0.021741 0.000000
O O5 0.750000 0.750000 0.112213
O O6 0.727256 0.000000 0.250000
O O7 0.071665 0.714387 0.383426
O O8 0.092162 0.000000 0.250000
O O9 0.058981 0.209491 0.382859
O O10 0.041334 0.500000 0.250000
O O11 0.000000 0.500000 0.112524
#
# Coordination Sequence:
#
# PCOD9496266 Si02
#       4
#    16  16  16  16
#     4  12  26  42  64  95 132 169 207 257 315 378
#     4  12  25  45  70  95 124 162 210 260 314 378
#     4  10  19  34  57  84 118 160 206 254 305 367
#     4   9  17  30  53  85 116 151 203 263 311 354
#
# _framework density 22.977876999999999
#
# number of rings (size 3 to 8) (size 9 to 14) (size 15 to 20)
#    0.000    1.250    0.000    7.500    0.000    8.000 
#    0.000    0.000    0.000    4.500    0.000    0.000 
#    0.000    0.000    0.000    0.000    0.000    0.000 
#
# Total GULP energy -178813.869300 kJ/mol
# GULP energy per Si atom -5587.933416 kJ/mol
# Density = 2.292558 g / cm^3
# Si number density = 22.977877 Si / 1000 Ang^3
#
#
#
# Elastic Constant Matrix: (Units=GPa)
#
#
# Indices 1 2 3 4 5 6 
#
# 1 132.3358 27.1107 13.2009 0.0000 0.0000 0.0000
# 2 27.1107 128.1123 21.1482 0.0000 0.0000 0.0000
# 3 13.2009 21.1482 55.2438 0.0000 0.0000 0.0000
# 4 0.0000 0.0000 0.0000 3.9980 0.0000 0.0000
# 5 0.0000 0.0000 0.0000 0.0000 -12.9717 0.0000
# 6 0.0000 0.0000 0.0000 0.0000 0.0000 45.1498
#
#
#
# Elastic Compliance Matrix: (Units=1/GPa)
#
#
# Indices 1 2 3 4 5 6 
#
# 1 0.007992 -0.001469 -0.001347 0.000000 0.000000 0.000000
# 2 -0.001469 0.008602 -0.002942 0.000000 0.000000 0.000000
# 3 -0.001347 -0.002942 0.019550 0.000000 0.000000 0.000000
# 4 0.000000 0.000000 0.000000 0.250124 0.000000 0.000000
# 5 0.000000 0.000000 0.000000 0.000000 -0.077091 0.000000
# 6 0.000000 0.000000 0.000000 0.000000 0.000000 0.022149
#
#
# Mechanical properties :
#
#
# Convention : Reuss Voigt Hill
#
# Bulk Modulus (GPa) = 40.60541 48.73462 44.67001
# Shear Modulus (GPa) = 19.91625 24.18401 22.05013
#
# Velocity S-wave (km/s) = 2.94727 3.24773 3.10114
# Velocity P-wave (km/s) = 5.41218 5.94299 5.68379
#
# Compressibility (1/GPa) = 0.02462726
#
# Stress axis : x y z
#
# Youngs Moduli (GPa) = 125.12756 116.25024 51.15132
#
# Poissons Ratio (x) = 0.17075 0.06892
# Poissons Ratio (y) = 0.18378 0.15049
# Poissons Ratio (z) = 0.16860 0.34202
#
# Static dielectric constant tensor:
#      x y z
#    x 1.864530 0.000000 0.000000 
#    y 0.000000 1.809040 0.000000 
#    z 0.000000 0.000000 2.176210 
# 
# From -- ./inp_files/44483.got.cif
#   From: 2010.05.17/outbox.cif.g08.bks.cpg/sg66_23_cif.got.tgz:44483.got - 2010.06.03 17:51:23.
