data_PCOD9496243
_publ_section_title
;
Structure prediction by ZEFSAII (Michael W. Deem and Ramdas Pophale) SiO2 
 PCOD9496243
Probable space group: C C C M
;
_chemical_formula_sum "Si O2"
_cell_formula_units_Z 68
_cell_length_a 9.435460
_cell_length_b 23.245638
_cell_length_c 17.347635
_cell_angle_alpha 90.000000
_cell_angle_beta 90.000000
_cell_angle_gamma 90.000000
_cell_volume 3804.913815
_symmetry_space_group_name_H-M "C C C M"
_symmetry_group_IT_number 66
_symmetry_cell_setting 'orthorhombic'
loop_
_space_group_symop_operation_xyz
x,y,z
-x,-y,z
x,-y,1/2-z
-x,y,1/2-z
-x,-y,-z
x,y,-z
-x,y,1/2+z
x,-y,1/2+z
1/2+x,1/2+y,z
1/2-x,1/2-y,z
1/2+x,1/2-y,1/2-z
1/2-x,1/2+y,1/2-z
1/2-x,1/2-y,-z
1/2+x,1/2+y,-z
1/2-x,1/2+y,1/2+z
1/2+x,1/2-y,1/2+z
loop_
_atom_site_type_symbol
_atom_site_label
_atom_site_fract_x
_atom_site_fract_y
_atom_site_fract_z
Si Si1 0.330990 0.690497 0.240150
Si Si2 0.000000 0.000000 0.250000
Si Si3 0.340062 0.616451 0.910326
Si Si4 0.348031 0.409018 0.857371
Si Si5 0.655344 0.005106 0.910341
O O1 0.500000 0.698752 0.250000
O O2 0.250000 0.750000 0.249070
O O3 0.304582 0.663044 0.155521
O O4 0.293440 0.644389 0.306959
O O5 0.903793 0.957320 0.201385
O O6 0.510112 0.607128 0.904295
O O7 0.258339 0.557588 0.885750
O O8 0.306164 0.630416 0.000000
O O9 0.230869 0.443432 0.904246
O O10 0.500000 0.000000 0.872552
O O11 0.634448 0.018712 0.000000
#
# Coordination Sequence:
#
# PCOD9496243 Si02
#       5
#    16   4  16  16  16
#     4  10  22  38  55  76 105 143 187 230 265 322
#     4  12  16  32  60  84 104 132 188 238 260 320
#     4  10  19  34  56  79 104 142 183 222 271 327
#     4  11  18  34  57  78 108 143 185 228 268 329
#     4  10  20  32  51  85 119 140 169 223 289 337
#
# _framework density 17.871625999999999
#
# number of rings (size 3 to 8) (size 9 to 14) (size 15 to 20)
#    0.000    1.647    5.882    0.706    0.000    4.235 
#    0.000    4.118    0.000   17.647    0.000    0.000 
#    0.000    0.000    0.000    0.000    0.000    0.000 
#
# Total GULP energy -189377.512306 kJ/mol
# GULP energy per Si atom -5569.926833 kJ/mol
# Density = 1.783095 g / cm^3
# Si number density = 17.871626 Si / 1000 Ang^3
#
#
#
# Elastic Constant Matrix: (Units=GPa)
#
#
# Indices 1 2 3 4 5 6 
#
# 1 54.9308 35.0964 13.2156 0.0000 0.0000 0.0000
# 2 35.0964 129.6889 41.1911 0.0000 0.0000 0.0000
# 3 13.2156 41.1911 69.6653 0.0000 0.0000 0.0000
# 4 0.0000 0.0000 0.0000 -21.3249 0.0000 0.0000
# 5 0.0000 0.0000 0.0000 0.0000 16.4709 0.0000
# 6 0.0000 0.0000 0.0000 0.0000 0.0000 38.3275
#
#
#
# Elastic Compliance Matrix: (Units=1/GPa)
#
#
# Indices 1 2 3 4 5 6 
#
# 1 0.022047 -0.005710 -0.000806 0.000000 0.000000 0.000000
# 2 -0.005710 0.010973 -0.005405 0.000000 0.000000 0.000000
# 3 -0.000806 -0.005405 0.017703 0.000000 0.000000 0.000000
# 4 0.000000 0.000000 0.000000 -0.046894 0.000000 0.000000
# 5 0.000000 0.000000 0.000000 0.000000 0.060713 0.000000
# 6 0.000000 0.000000 0.000000 0.000000 0.000000 0.026091
#
#
# Mechanical properties :
#
#
# Convention : Reuss Voigt Hill
#
# Bulk Modulus (GPa) = 37.20136 48.14346 42.67241
# Shear Modulus (GPa) = 40.50708 17.68016 29.09362
#
# Velocity S-wave (km/s) = 4.76600 3.14870 4.03913
# Velocity P-wave (km/s) = 7.15174 6.34162 6.75883
#
# Compressibility (1/GPa) = 0.02688074
#
# Stress axis : x y z
#
# Youngs Moduli (GPa) = 45.35739 91.13554 56.48826
#
# Poissons Ratio (x) = 0.52042 0.04553
# Poissons Ratio (y) = 0.25901 0.30529
# Poissons Ratio (z) = 0.03656 0.49255
#
# Static dielectric constant tensor:
#      x y z
#    x 1.692900 0.000000 0.000000 
#    y 0.000000 1.595670 0.000000 
#    z 0.000000 0.000000 1.642910 
# 
# From -- ./inp_files/36479.got.cif
#   From: 2010.05.17/outbox.cif.g08.bks.cpg/sg66_19_cif.got.tgz:36479.got - 2010.06.03 17:51:23.
