data_PCOD9496487
_publ_section_title
;
Structure prediction by ZEFSAII (Michael W. Deem and Ramdas Pophale) SiO2 
 PCOD9496487
Probable space group: C C C M
;
_chemical_formula_sum "Si O2"
_cell_formula_units_Z 80
_cell_length_a 24.936901
_cell_length_b 7.504798
_cell_length_c 17.768691
_cell_angle_alpha 90.000000
_cell_angle_beta 90.000000
_cell_angle_gamma 90.000000
_cell_volume 3325.346638
_symmetry_space_group_name_H-M "C C C M"
_symmetry_group_IT_number 66
_symmetry_cell_setting 'orthorhombic'
loop_
_space_group_symop_operation_xyz
x,y,z
-x,-y,z
x,-y,1/2-z
-x,y,1/2-z
-x,-y,-z
x,y,-z
-x,y,1/2+z
x,-y,1/2+z
1/2+x,1/2+y,z
1/2-x,1/2-y,z
1/2+x,1/2-y,1/2-z
1/2-x,1/2+y,1/2-z
1/2-x,1/2-y,-z
1/2+x,1/2+y,-z
1/2-x,1/2+y,1/2+z
1/2+x,1/2-y,1/2+z
loop_
_atom_site_type_symbol
_atom_site_label
_atom_site_fract_x
_atom_site_fract_y
_atom_site_fract_z
Si Si1 0.216139 0.929880 0.585047
Si Si2 0.113522 0.682028 0.088631
Si Si3 0.205274 0.357309 0.306351
Si Si4 0.002238 0.283039 0.336738
Si Si5 0.391813 0.750513 0.588651
O O1 0.209198 0.003643 0.500000
O O2 0.250000 0.750000 0.576776
O O3 0.254838 0.052760 0.633646
O O4 0.158822 0.862779 0.616933
O O5 0.160019 0.741906 0.145800
O O6 0.056966 0.754873 0.118762
O O7 0.116238 0.464906 0.096328
O O8 0.119995 0.720605 0.000000
O O9 0.179542 0.500000 0.250000
O O10 0.250000 0.250000 0.258711
O O11 0.000000 0.500000 0.338480
O O12 0.000000 0.228408 0.250000
O O13 0.948795 0.209791 0.375000
O O14 0.394689 0.715894 0.500000
#
# Coordination Sequence:
#
# PCOD9496487 Si02
#       5
#    16  16  16  16  16
#     4  10  19  36  61  86 116 157 198 245 304 365
#     4  10  20  35  57  84 121 160 200 251 299 355
#     4  12  27  40  59  86 119 161 204 259 314 378
#     4   9  18  28  49  85 122 160 194 247 298 349
#     4   9  17  31  56  84 117 155 197 244 294 361
#
# _framework density 24.057642999999999
#
# number of rings (size 3 to 8) (size 9 to 14) (size 15 to 20)
#    0.000    2.000    2.000    1.800    5.600    4.000 
#    0.000    0.000    0.000    1.200    0.000    7.000 
#    0.000    0.000    0.000    0.000    0.000    0.000 
#
# Total GULP energy -223648.802930 kJ/mol
# GULP energy per Si atom -5591.220073 kJ/mol
# Density = 2.400289 g / cm^3
# Si number density = 24.057643 Si / 1000 Ang^3
#
#
#
# Elastic Constant Matrix: (Units=GPa)
#
#
# Indices 1 2 3 4 5 6 
#
# 1 206.5819 28.0222 60.7310 0.0000 0.0000 0.0000
# 2 28.0222 62.6263 16.7698 0.0000 0.0000 0.0000
# 3 60.7310 16.7698 93.2205 0.0000 0.0000 0.0000
# 4 0.0000 0.0000 0.0000 6.7128 0.0000 0.0000
# 5 0.0000 0.0000 0.0000 0.0000 41.6429 0.0000
# 6 0.0000 0.0000 0.0000 0.0000 0.0000 28.5255
#
#
#
# Elastic Compliance Matrix: (Units=1/GPa)
#
#
# Indices 1 2 3 4 5 6 
#
# 1 0.006169 -0.001769 -0.003700 0.000000 0.000000 0.000000
# 2 -0.001769 0.017283 -0.001957 0.000000 0.000000 0.000000
# 3 -0.003700 -0.001957 0.013490 0.000000 0.000000 0.000000
# 4 0.000000 0.000000 0.000000 0.148969 0.000000 0.000000
# 5 0.000000 0.000000 0.000000 0.000000 0.024014 0.000000
# 6 0.000000 0.000000 0.000000 0.000000 0.000000 0.035056
#
#
# Mechanical properties :
#
#
# Convention : Reuss Voigt Hill
#
# Bulk Modulus (GPa) = 45.27051 63.71942 54.49497
# Shear Modulus (GPa) = 18.71283 32.50327 25.60805
#
# Velocity S-wave (km/s) = 2.79199 3.67966 3.26612
# Velocity P-wave (km/s) = 5.40851 6.67809 6.07655
#
# Compressibility (1/GPa) = 0.02208943
#
# Stress axis : x y z
#
# Youngs Moduli (GPa) = 162.11329 57.85936 74.12938
#
# Poissons Ratio (x) = 0.10237 0.27431
# Poissons Ratio (y) = 0.28682 0.14504
# Poissons Ratio (z) = 0.59988 0.11320
#
# Static dielectric constant tensor:
#      x y z
#    x 1.922320 0.000000 0.000000 
#    y 0.000000 2.091220 0.000000 
#    z 0.000000 0.000000 1.876050 
# 
# From -- ./inp_files/32091.got.cif
#   From: 2010.05.17/outbox.cif.g08.bks.cpg/sg66_17_cif.got.tgz:32091.got - 2010.06.03 17:51:23.
