data_PCOD9496022
_publ_section_title
;
Structure prediction by ZEFSAII (Michael W. Deem and Ramdas Pophale) SiO2 
 PCOD9496022
Probable space group: C C C M
;
_chemical_formula_sum "Si O2"
_cell_formula_units_Z 116
_cell_length_a 11.889408
_cell_length_b 31.025050
_cell_length_c 14.947596
_cell_angle_alpha 90.000000
_cell_angle_beta 90.000000
_cell_angle_gamma 90.000000
_cell_volume 5513.711929
_symmetry_space_group_name_H-M "C C C M"
_symmetry_group_IT_number 66
_symmetry_cell_setting 'orthorhombic'
loop_
_space_group_symop_operation_xyz
x,y,z
-x,-y,z
x,-y,1/2-z
-x,y,1/2-z
-x,-y,-z
x,y,-z
-x,y,1/2+z
x,-y,1/2+z
1/2+x,1/2+y,z
1/2-x,1/2-y,z
1/2+x,1/2-y,1/2-z
1/2-x,1/2+y,1/2-z
1/2-x,1/2-y,-z
1/2+x,1/2+y,-z
1/2-x,1/2+y,1/2+z
1/2+x,1/2-y,1/2+z
loop_
_atom_site_type_symbol
_atom_site_label
_atom_site_fract_x
_atom_site_fract_y
_atom_site_fract_z
Si Si1 0.869880 0.509416 0.392031
Si Si2 0.891705 0.626950 0.861858
Si Si3 0.815844 0.179811 0.147112
Si Si4 0.259129 0.299032 0.851241
Si Si5 0.798178 0.937921 0.099928
Si Si6 0.861770 0.392339 0.150606
Si Si7 0.250000 0.750000 0.000000
Si Si8 0.955336 0.863927 0.895831
O O1 0.871969 0.504083 0.500000
O O2 0.771518 0.477434 0.357118
O O3 0.837487 0.558075 0.368599
O O4 0.000000 0.500000 0.361478
O O5 0.855958 0.676089 0.873092
O O6 0.801442 0.596948 0.908443
O O7 0.876244 0.615122 0.757010
O O8 0.016875 0.617481 0.890808
O O9 0.781171 0.196885 0.244896
O O10 0.728825 0.142160 0.119309
O O11 0.936128 0.156069 0.151213
O O12 0.807078 0.218689 0.077809
O O13 0.250000 0.250000 0.879212
O O14 0.359374 0.327195 0.892559
O O15 0.899109 0.908654 0.140575
O O16 0.835379 0.951425 0.000000
O O17 0.984211 0.871674 0.000000
#
# Coordination Sequence:
#
# PCOD9496022 Si02
#       8
#    16  16  16  16  16  16   4  16
#     4  10  19  32  55  85 116 151 195 236 297 355
#     4   9  19  36  53  85 114 148 198 233 305 356
#     4  11  23  41  59  88 120 157 199 246 306 362
#     4  10  21  39  63  85 113 154 198 253 301 357
#     4   9  18  35  56  80 113 151 190 238 288 354
#     4  10  21  35  56  84 120 152 188 249 294 357
#     4  12  24  40  60  84 116 156 206 248 296 372
#     4  10  21  39  62  83 118 159 198 244 302 363
#
# _framework density 21.038457999999999
#
# number of rings (size 3 to 8) (size 9 to 14) (size 15 to 20)
#    0.000    2.069    2.759    0.414    0.966    1.931 
#    4.966    0.690    0.000    2.483    0.000    5.793 
#    0.000    0.000    0.000    0.000    0.000    0.000 
#
# Total GULP energy -322999.904554 kJ/mol
# GULP energy per Si atom -5568.963872 kJ/mol
# Density = 2.099057 g / cm^3
# Si number density = 21.038458 Si / 1000 Ang^3
#
#
#
# Elastic Constant Matrix: (Units=GPa)
#
#
# Indices 1 2 3 4 5 6 
#
# 1 91.4363 50.0746 -2.9306 0.0000 0.0000 0.0000
# 2 50.0746 138.0119 -5.3610 0.0000 0.0000 0.0000
# 3 -2.9306 -5.3610 47.4926 0.0000 0.0000 0.0000
# 4 0.0000 0.0000 0.0000 657.1168 0.0000 0.0000
# 5 0.0000 0.0000 0.0000 0.0000 -5.1913 0.0000
# 6 0.0000 0.0000 0.0000 0.0000 0.0000 28.9842
#
#
#
# Elastic Compliance Matrix: (Units=1/GPa)
#
#
# Indices 1 2 3 4 5 6 
#
# 1 0.013652 -0.004942 0.000285 0.000000 0.000000 0.000000
# 2 -0.004942 0.009067 0.000718 0.000000 0.000000 0.000000
# 3 0.000285 0.000718 0.021155 0.000000 0.000000 0.000000
# 4 0.000000 0.000000 0.000000 0.001522 0.000000 0.000000
# 5 0.000000 0.000000 0.000000 0.000000 -0.192630 0.000000
# 6 0.000000 0.000000 0.000000 0.000000 0.000000 0.034502
#
#
# Mechanical properties :
#
#
# Convention : Reuss Voigt Hill
#
# Bulk Modulus (GPa) = 27.78153 40.05632 33.91893
# Shear Modulus (GPa) = -53.84682 151.85913 49.00615
#
# Velocity S-wave (km/s) = -5.06459 8.50520 4.83158
# Velocity P-wave (km/s) = 4.57889 10.74858 6.87626
#
# Compressibility (1/GPa) = 0.03599513
#
# Stress axis : x y z
#
# Youngs Moduli (GPa) = 73.24729 110.29119 47.27105
#
# Poissons Ratio (x) = 0.54510 -0.01345
# Poissons Ratio (y) = 0.36202 -0.03396
# Poissons Ratio (z) = -0.02084 -0.07924
#
# Static dielectric constant tensor:
#      x y z
#    x 1.759680 0.000000 0.000000 
#    y 0.000000 1.753520 0.000000 
#    z 0.000000 0.000000 1.810900 
# 
# From -- ./inp_files/39207.got.cif
#   From: 2010.05.17/outbox.cif.g08.bks.cpg/sg66_20_cif.got.tgz:39207.got - 2010.06.03 17:51:23.
