data_PCOD9496317
_publ_section_title
;
Structure prediction by ZEFSAII (Michael W. Deem and Ramdas Pophale) SiO2 
 PCOD9496317
Probable space group: C C C M
;
_chemical_formula_sum "Si O2"
_cell_formula_units_Z 68
_cell_length_a 7.735808
_cell_length_b 20.765941
_cell_length_c 17.583899
_cell_angle_alpha 90.000000
_cell_angle_beta 90.000000
_cell_angle_gamma 90.000000
_cell_volume 2824.700966
_symmetry_space_group_name_H-M "C C C M"
_symmetry_group_IT_number 66
_symmetry_cell_setting 'orthorhombic'
loop_
_space_group_symop_operation_xyz
x,y,z
-x,-y,z
x,-y,1/2-z
-x,y,1/2-z
-x,-y,-z
x,y,-z
-x,y,1/2+z
x,-y,1/2+z
1/2+x,1/2+y,z
1/2-x,1/2-y,z
1/2+x,1/2-y,1/2-z
1/2-x,1/2+y,1/2-z
1/2-x,1/2-y,-z
1/2+x,1/2+y,-z
1/2-x,1/2+y,1/2+z
1/2+x,1/2-y,1/2+z
loop_
_atom_site_type_symbol
_atom_site_label
_atom_site_fract_x
_atom_site_fract_y
_atom_site_fract_z
Si Si1 0.500000 0.000000 0.250000
Si Si2 0.512564 0.424015 0.588285
Si Si3 0.543996 0.233930 0.088658
Si Si4 0.341597 0.333467 0.806300
Si Si5 0.337980 0.880467 0.167370
O O1 0.606749 0.049836 0.197797
O O2 0.500000 0.500000 0.598471
O O3 0.535135 0.408969 0.500000
O O4 0.665939 0.394094 0.637738
O O5 0.335041 0.391970 0.617813
O O6 0.750000 0.250000 0.099434
O O7 0.416573 0.275407 0.142023
O O8 0.533231 0.159816 0.114237
O O9 0.503658 0.243616 0.000000
O O10 0.500000 0.347913 0.750000
O O11 0.192905 0.335460 0.742720
#
# Coordination Sequence:
#
# PCOD9496317 Si02
#       5
#     4  16  16  16  16
#     4  12  28  44  64  92 132 180 232 282 352 384
#     4  10  19  34  60  91 126 171 219 271 330 397
#     4  11  21  38  67 102 137 176 218 273 344 409
#     4  10  20  35  62  97 127 165 217 272 328 397
#     4  11  24  41  63  95 128 177 224 284 331 407
#
# _framework density 24.073343999999999
#
# number of rings (size 3 to 8) (size 9 to 14) (size 15 to 20)
#    0.000    1.412    4.706    2.824    1.647    3.294 
#    0.000    2.353    0.000    7.059    0.000    0.000 
#    0.000    0.000    0.000    0.000    0.000    0.000 
#
# Total GULP energy -189998.754332 kJ/mol
# GULP energy per Si atom -5588.198657 kJ/mol
# Density = 2.401855 g / cm^3
# Si number density = 24.073344 Si / 1000 Ang^3
#
#
#
# Elastic Constant Matrix: (Units=GPa)
#
#
# Indices 1 2 3 4 5 6 
#
# 1 62.6422 11.8168 33.5900 0.0000 0.0000 0.0000
# 2 11.8168 119.0756 72.3665 0.0000 0.0000 0.0000
# 3 33.5900 72.3665 139.2830 0.0000 0.0000 0.0000
# 4 0.0000 0.0000 0.0000 44.6773 0.0000 0.0000
# 5 0.0000 0.0000 0.0000 0.0000 30.2607 0.0000
# 6 0.0000 0.0000 0.0000 0.0000 0.0000 28.0487
#
#
#
# Elastic Compliance Matrix: (Units=1/GPa)
#
#
# Indices 1 2 3 4 5 6 
#
# 1 0.018467 0.001277 -0.005117 0.000000 0.000000 0.000000
# 2 0.001277 0.012362 -0.006731 0.000000 0.000000 0.000000
# 3 -0.005117 -0.006731 0.011911 0.000000 0.000000 0.000000
# 4 0.000000 0.000000 0.000000 0.022383 0.000000 0.000000
# 5 0.000000 0.000000 0.000000 0.000000 0.033046 0.000000
# 6 0.000000 0.000000 0.000000 0.000000 0.000000 0.035652
#
#
# Mechanical properties :
#
#
# Convention : Reuss Voigt Hill
#
# Bulk Modulus (GPa) = 46.30068 61.83860 54.06964
# Shear Modulus (GPa) = 30.83355 34.14583 32.48969
#
# Velocity S-wave (km/s) = 3.58273 3.77026 3.67769
# Velocity P-wave (km/s) = 6.03238 6.68555 6.36734
#
# Compressibility (1/GPa) = 0.02159795
#
# Stress axis : x y z
#
# Youngs Moduli (GPa) = 54.15172 80.89423 83.95762
#
# Poissons Ratio (x) = -0.10332 0.42962
# Poissons Ratio (y) = -0.06917 0.56510
# Poissons Ratio (z) = 0.27710 0.54448
#
# Static dielectric constant tensor:
#      x y z
#    x 2.022980 0.000000 0.000000 
#    y 0.000000 1.979830 0.000000 
#    z 0.000000 0.000000 1.865140 
# 
# From -- ./inp_files/36470.got.cif
#   From: 2010.05.17/outbox.cif.g08.bks.cpg/sg66_19_cif.got.tgz:36470.got - 2010.06.03 17:51:23.
