data_PCOD9496479
_publ_section_title
;
Structure prediction by ZEFSAII (Michael W. Deem and Ramdas Pophale) SiO2 
 PCOD9496479
Probable space group: C C C M
;
_chemical_formula_sum "Si O2"
_cell_formula_units_Z 88
_cell_length_a 11.737753
_cell_length_b 17.193863
_cell_length_c 21.275768
_cell_angle_alpha 90.000000
_cell_angle_beta 90.000000
_cell_angle_gamma 90.000000
_cell_volume 4293.818415
_symmetry_space_group_name_H-M "C C C M"
_symmetry_group_IT_number 66
_symmetry_cell_setting 'orthorhombic'
loop_
_space_group_symop_operation_xyz
x,y,z
-x,-y,z
x,-y,1/2-z
-x,y,1/2-z
-x,-y,-z
x,y,-z
-x,y,1/2+z
x,-y,1/2+z
1/2+x,1/2+y,z
1/2-x,1/2-y,z
1/2+x,1/2-y,1/2-z
1/2-x,1/2+y,1/2-z
1/2-x,1/2-y,-z
1/2+x,1/2+y,-z
1/2-x,1/2+y,1/2+z
1/2+x,1/2-y,1/2+z
loop_
_atom_site_type_symbol
_atom_site_label
_atom_site_fract_x
_atom_site_fract_y
_atom_site_fract_z
Si Si1 0.662939 0.870993 0.000000
Si Si2 0.239239 0.091251 0.763074
Si Si3 0.594238 0.691025 0.000000
Si Si4 0.878913 0.536266 0.122806
Si Si5 0.201306 0.631265 0.872571
Si Si6 0.000000 0.821201 0.250000
Si Si7 0.565588 0.723574 0.613469
O O1 0.613419 0.913635 0.060490
O O2 0.634763 0.780363 0.000000
O O3 0.801293 0.869130 0.000000
O O4 0.316287 0.089384 0.825271
O O5 0.304148 0.128881 0.703721
O O6 0.114796 0.129683 0.764482
O O7 0.222356 0.000000 0.750000
O O8 0.520535 0.687380 0.936478
O O9 0.807257 0.458092 0.107802
O O10 0.000000 0.500000 0.144604
O O11 0.321785 0.670149 0.887946
O O12 0.106263 0.688492 0.900652
O O13 0.021348 0.776397 0.185012
#
# Coordination Sequence:
#
# PCOD9496479 Si02
#       7
#     8  16   8  16  16   8  16
#     4  11  25  41  59  86 116 152 200 241 298 365
#     4   9  19  35  57  86 116 150 194 245 297 350
#     4  11  24  42  61  85 116 152 194 249 305 356
#     4  11  22  38  60  86 121 158 195 244 298 356
#     4   9  21  37  57  87 114 149 199 241 293 355
#     4  10  19  36  60  84 117 156 198 244 296 356
#     4  10  21  38  59  84 116 155 197 245 296 352
#
# _framework density 20.494578000000001
#
# number of rings (size 3 to 8) (size 9 to 14) (size 15 to 20)
#    0.000    2.000    0.000    2.727    0.000    9.091 
#    0.000    7.273    0.000    0.000    0.000    0.000 
#    0.000    0.000    0.000    0.000    0.000    0.000 
#
# Total GULP energy -245558.239781 kJ/mol
# GULP energy per Si atom -5580.869086 kJ/mol
# Density = 2.044793 g / cm^3
# Si number density = 20.494578 Si / 1000 Ang^3
#
#
#
# Elastic Constant Matrix: (Units=GPa)
#
#
# Indices 1 2 3 4 5 6 
#
# 1 88.3021 11.7005 39.5612 0.0000 0.0000 0.0000
# 2 11.7005 40.0291 7.5805 0.0000 0.0000 0.0000
# 3 39.5612 7.5805 69.0782 0.0000 0.0000 0.0000
# 4 0.0000 0.0000 0.0000 24.5475 0.0000 0.0000
# 5 0.0000 0.0000 0.0000 0.0000 -347.8118 0.0000
# 6 0.0000 0.0000 0.0000 0.0000 0.0000 8.2154
#
#
#
# Elastic Compliance Matrix: (Units=1/GPa)
#
#
# Indices 1 2 3 4 5 6 
#
# 1 0.015561 -0.002922 -0.008591 0.000000 0.000000 0.000000
# 2 -0.002922 0.026060 -0.001187 0.000000 0.000000 0.000000
# 3 -0.008591 -0.001187 0.019527 0.000000 0.000000 0.000000
# 4 0.000000 0.000000 0.000000 0.040737 0.000000 0.000000
# 5 0.000000 0.000000 0.000000 0.000000 -0.002875 0.000000
# 6 0.000000 0.000000 0.000000 0.000000 0.000000 0.121722
#
#
# Mechanical properties :
#
#
# Convention : Reuss Voigt Hill
#
# Bulk Modulus (GPa) = 27.97244 35.01042 31.49143
# Shear Modulus (GPa) = 19.37627 -53.77197 -17.19785
#
# Velocity S-wave (km/s) = 3.07813 -5.12778 -2.89994
# Velocity P-wave (km/s) = 5.12947 4.23544 2.04603
#
# Compressibility (1/GPa) = 0.03574948
#
# Stress axis : x y z
#
# Youngs Moduli (GPa) = 64.26361 38.37228 51.21178
#
# Poissons Ratio (x) = 0.11210 0.43997
# Poissons Ratio (y) = 0.18775 0.06077
# Poissons Ratio (z) = 0.55210 0.04553
#
# Static dielectric constant tensor:
#      x y z
#    x 1.774090 0.000000 0.000000 
#    y 0.000000 1.701980 0.000000 
#    z 0.000000 0.000000 1.725130 
# 
# From -- ./inp_files/48601.got.cif
#   From: 2010.05.17/outbox.cif.g08.bks.cpg/sg66_25_cif.got.tgz:48601.got - 2010.06.03 17:51:23.
