data_PCOD9496483
_publ_section_title
;
Structure prediction by ZEFSAII (Michael W. Deem and Ramdas Pophale) SiO2 
 PCOD9496483
Probable space group: C C C M
;
_chemical_formula_sum "Si O2"
_cell_formula_units_Z 64
_cell_length_a 5.076695
_cell_length_b 18.983866
_cell_length_c 32.062019
_cell_angle_alpha 90.000000
_cell_angle_beta 90.000000
_cell_angle_gamma 90.000000
_cell_volume 3089.986623
_symmetry_space_group_name_H-M "C C C M"
_symmetry_group_IT_number 66
_symmetry_cell_setting 'orthorhombic'
loop_
_space_group_symop_operation_xyz
x,y,z
-x,-y,z
x,-y,1/2-z
-x,y,1/2-z
-x,-y,-z
x,y,-z
-x,y,1/2+z
x,-y,1/2+z
1/2+x,1/2+y,z
1/2-x,1/2-y,z
1/2+x,1/2-y,1/2-z
1/2-x,1/2+y,1/2-z
1/2-x,1/2-y,-z
1/2+x,1/2+y,-z
1/2-x,1/2+y,1/2+z
1/2+x,1/2-y,1/2+z
loop_
_atom_site_type_symbol
_atom_site_label
_atom_site_fract_x
_atom_site_fract_y
_atom_site_fract_z
Si Si1 0.135113 0.424738 0.377236
Si Si2 0.250000 0.250000 0.102169
Si Si3 0.385310 0.172526 0.548299
Si Si4 0.114451 0.860363 0.338193
Si Si5 0.500000 0.297753 0.250000
O O1 0.213212 0.388659 0.421358
O O2 0.401587 0.418867 0.350733
O O3 0.000000 0.500000 0.383763
O O4 0.909576 0.381088 0.352143
O O5 0.336884 0.189702 0.069929
O O6 0.054928 0.210233 0.134194
O O7 0.393887 0.153382 0.500000
O O8 0.250000 0.250000 0.551565
O O9 0.089347 0.842269 0.289950
O O10 0.250000 0.250000 0.262262
#
# Coordination Sequence:
#
# PCOD9496483 Si02
#       5
#    16   8  16  16   8
#     4  11  24  43  63  88 128 174 212 253 311 384
#     4  10  19  36  60  88 126 160 196 264 311 382
#     4  10  20  35  60  91 122 160 209 264 317 369
#     4  11  23  40  64  93 124 166 205 259 317 377
#     4  12  24  38  65 102 133 152 206 270 320 368
#
# _framework density 20.712064000000002
#
# number of rings (size 3 to 8) (size 9 to 14) (size 15 to 20)
#    0.000    1.250    3.750    2.625    3.500    0.500 
#    0.000    3.750    0.000    4.500    0.000    0.000 
#    0.000    0.000    0.000    0.000    0.000    0.000 
#
# Total GULP energy -178328.911821 kJ/mol
# GULP energy per Si atom -5572.778494 kJ/mol
# Density = 2.066492 g / cm^3
# Si number density = 20.712064 Si / 1000 Ang^3
#
#
#
# Elastic Constant Matrix: (Units=GPa)
#
#
# Indices 1 2 3 4 5 6 
#
# 1 73.8128 9.5762 22.1618 0.0000 0.0000 0.0000
# 2 9.5762 82.9786 45.6678 0.0000 0.0000 0.0000
# 3 22.1618 45.6678 187.5361 0.0000 0.0000 0.0000
# 4 0.0000 0.0000 0.0000 9.9972 0.0000 0.0000
# 5 0.0000 0.0000 0.0000 0.0000 21.8541 0.0000
# 6 0.0000 0.0000 0.0000 0.0000 0.0000 36.1328
#
#
#
# Elastic Compliance Matrix: (Units=1/GPa)
#
#
# Indices 1 2 3 4 5 6 
#
# 1 0.014094 -0.000820 -0.001466 0.000000 0.000000 0.000000
# 2 -0.000820 0.013964 -0.003304 0.000000 0.000000 0.000000
# 3 -0.001466 -0.003304 0.006310 0.000000 0.000000 0.000000
# 4 0.000000 0.000000 0.000000 0.100028 0.000000 0.000000
# 5 0.000000 0.000000 0.000000 0.000000 0.045758 0.000000
# 6 0.000000 0.000000 0.000000 0.000000 0.000000 0.027676
#
#
# Mechanical properties :
#
#
# Convention : Reuss Voigt Hill
#
# Bulk Modulus (GPa) = 43.12248 55.45990 49.29119
# Shear Modulus (GPa) = 22.05179 31.39159 26.72169
#
# Velocity S-wave (km/s) = 3.26649 3.89732 3.59576
# Velocity P-wave (km/s) = 5.92383 6.86199 6.41010
#
# Compressibility (1/GPa) = 0.02318976
#
# Stress axis : x y z
#
# Youngs Moduli (GPa) = 70.95073 71.61248 158.47823
#
# Poissons Ratio (x) = 0.05871 0.23232
# Poissons Ratio (y) = 0.05816 0.52355
# Poissons Ratio (z) = 0.10401 0.23658
#
# Static dielectric constant tensor:
#      x y z
#    x 1.838010 0.000000 0.000000 
#    y 0.000000 1.825000 0.000000 
#    z 0.000000 0.000000 1.697550 
# 
# From -- ./inp_files/61279.got.cif
#   From: 2010.05.17/outbox.cif.g08.bks.cpg/sg66_31_cif.got.tgz:61279.got - 2010.06.03 17:51:23.
