data_PCOD9496560
_publ_section_title
;
Structure prediction by ZEFSAII (Michael W. Deem and Ramdas Pophale) SiO2 
 PCOD9496560
Probable space group: C C C M
;
_chemical_formula_sum "Si O2"
_cell_formula_units_Z 112
_cell_length_a 11.927904
_cell_length_b 20.021943
_cell_length_c 23.221617
_cell_angle_alpha 90.000000
_cell_angle_beta 90.000000
_cell_angle_gamma 90.000000
_cell_volume 5545.782253
_symmetry_space_group_name_H-M "C C C M"
_symmetry_group_IT_number 66
_symmetry_cell_setting 'orthorhombic'
loop_
_space_group_symop_operation_xyz
x,y,z
-x,-y,z
x,-y,1/2-z
-x,y,1/2-z
-x,-y,-z
x,y,-z
-x,y,1/2+z
x,-y,1/2+z
1/2+x,1/2+y,z
1/2-x,1/2-y,z
1/2+x,1/2-y,1/2-z
1/2-x,1/2+y,1/2-z
1/2-x,1/2-y,-z
1/2+x,1/2+y,-z
1/2-x,1/2+y,1/2+z
1/2+x,1/2-y,1/2+z
loop_
_atom_site_type_symbol
_atom_site_label
_atom_site_fract_x
_atom_site_fract_y
_atom_site_fract_z
Si Si1 0.129420 0.094265 0.752499
Si Si2 0.164875 0.470368 0.810735
Si Si3 0.377830 0.837130 0.625325
Si Si4 0.757555 0.404506 0.131731
Si Si5 0.408153 0.808238 0.064135
Si Si6 0.562865 0.350730 0.065227
Si Si7 0.873729 0.187024 0.648455
O O1 0.206538 0.048669 0.793927
O O2 0.191437 0.102806 0.691974
O O3 0.133231 0.163366 0.786492
O O4 0.000000 0.073616 0.750000
O O5 0.120463 0.500000 0.750000
O O6 0.108878 0.402956 0.835125
O O7 0.172095 0.527770 0.858820
O O8 0.463930 0.834564 0.572254
O O9 0.244086 0.828578 0.616481
O O10 0.404109 0.764751 0.652176
O O11 0.839293 0.344379 0.114272
O O12 0.662053 0.400270 0.083160
O O13 0.400154 0.727784 0.067807
O O14 0.367415 0.826858 0.000000
O O15 0.466282 0.353279 0.112900
O O16 0.524415 0.362569 0.000000
#
# Coordination Sequence:
#
# PCOD9496560 Si02
#       7
#    16  16  16  16  16  16  16
#     4  10  19  38  60  88 118 155 192 237 302 363
#     4   9  21  38  55  84 117 165 194 235 295 364
#     4   9  19  39  58  82 120 152 199 242 289 349
#     4  11  21  36  57  87 119 152 199 235 295 363
#     4  10  22  40  61  84 115 159 201 245 302 352
#     4  10  20  37  61  89 118 149 194 255 309 348
#     4   9  18  37  61  91 116 148 197 255 295 353
#
# _framework density 20.195527999999999
#
# number of rings (size 3 to 8) (size 9 to 14) (size 15 to 20)
#    0.000    2.286    1.429    0.857    0.000    4.857 
#   15.429   13.571    0.000    5.143    0.000    0.000 
#    0.000    0.000    0.000    0.000    0.000    0.000 
#
# Total GULP energy -311815.520408 kJ/mol
# GULP energy per Si atom -5568.134293 kJ/mol
# Density = 2.014956 g / cm^3
# Si number density = 20.195528 Si / 1000 Ang^3
#
#
#
# Elastic Constant Matrix: (Units=GPa)
#
#
# Indices 1 2 3 4 5 6 
#
# 1 59.2041 4.4924 10.1117 0.0000 0.0000 0.0000
# 2 4.4924 58.2983 39.6008 0.0000 0.0000 0.0000
# 3 10.1117 39.6008 74.9403 0.0000 0.0000 0.0000
# 4 0.0000 0.0000 0.0000 23.7682 0.0000 0.0000
# 5 0.0000 0.0000 0.0000 0.0000 28.2090 0.0000
# 6 0.0000 0.0000 0.0000 0.0000 0.0000 7.9732
#
#
#
# Elastic Compliance Matrix: (Units=1/GPa)
#
#
# Indices 1 2 3 4 5 6 
#
# 1 0.017295 0.000394 -0.002542 0.000000 0.000000 0.000000
# 2 0.000394 0.026767 -0.014198 0.000000 0.000000 0.000000
# 3 -0.002542 -0.014198 0.021189 0.000000 0.000000 0.000000
# 4 0.000000 0.000000 0.000000 0.042073 0.000000 0.000000
# 5 0.000000 0.000000 0.000000 0.000000 0.035450 0.000000
# 6 0.000000 0.000000 0.000000 0.000000 0.000000 0.125421
#
#
# Mechanical properties :
#
#
# Convention : Reuss Voigt Hill
#
# Bulk Modulus (GPa) = 30.71233 33.42806 32.07019
# Shear Modulus (GPa) = 16.03905 21.20593 18.62249
#
# Velocity S-wave (km/s) = 2.82119 3.24393 3.03992
# Velocity P-wave (km/s) = 5.08455 5.53344 5.31374
#
# Compressibility (1/GPa) = 0.03256021
#
# Stress axis : x y z
#
# Youngs Moduli (GPa) = 57.82032 37.35948 47.19346
#
# Poissons Ratio (x) = -0.01471 0.11995
# Poissons Ratio (y) = -0.02277 0.67004
# Poissons Ratio (z) = 0.14696 0.53042
#
# Static dielectric constant tensor:
#      x y z
#    x 1.776210 0.000000 0.000000 
#    y 0.000000 1.759910 0.000000 
#    z 0.000000 0.000000 1.686000 
# 
# From -- ./inp_files/57156.got.cif
#   From: 2010.05.17/outbox.cif.g08.bks.cpg/sg66_29_cif.got.tgz:57156.got - 2010.06.03 17:51:23.
