data_PCOD9496761
_publ_section_title
;
Structure prediction by ZEFSAII (Michael W. Deem and Ramdas Pophale) SiO2 
 PCOD9496761
Probable space group: C C C M
;
_chemical_formula_sum "Si O2"
_cell_formula_units_Z 120
_cell_length_a 19.538220
_cell_length_b 12.058319
_cell_length_c 25.456284
_cell_angle_alpha 90.000000
_cell_angle_beta 90.000000
_cell_angle_gamma 90.000000
_cell_volume 5997.451875
_symmetry_space_group_name_H-M "C C C M"
_symmetry_group_IT_number 66
_symmetry_cell_setting 'orthorhombic'
loop_
_space_group_symop_operation_xyz
x,y,z
-x,-y,z
x,-y,1/2-z
-x,y,1/2-z
-x,-y,-z
x,y,-z
-x,y,1/2+z
x,-y,1/2+z
1/2+x,1/2+y,z
1/2-x,1/2-y,z
1/2+x,1/2-y,1/2-z
1/2-x,1/2+y,1/2-z
1/2-x,1/2-y,-z
1/2+x,1/2+y,-z
1/2-x,1/2+y,1/2+z
1/2+x,1/2-y,1/2+z
loop_
_atom_site_type_symbol
_atom_site_label
_atom_site_fract_x
_atom_site_fract_y
_atom_site_fract_z
Si Si1 0.251646 0.382930 0.909138
Si Si2 0.221081 0.523182 0.190801
Si Si3 0.399189 0.274189 0.394107
Si Si4 0.750000 0.750000 0.633411
Si Si5 0.464592 0.272462 0.059207
Si Si6 0.432823 0.070186 0.661316
Si Si7 0.394439 0.510754 0.438012
Si Si8 0.104319 0.553886 0.440117
O O1 0.250000 0.250000 0.912443
O O2 0.244119 0.427497 0.849524
O O3 0.320433 0.431637 0.933813
O O4 0.185655 0.433864 0.937934
O O5 0.242618 0.500000 0.250000
O O6 0.250806 0.639270 0.168702
O O7 0.137880 0.533233 0.188625
O O8 0.320043 0.239978 0.399400
O O9 0.455365 0.250855 0.438442
O O10 0.429880 0.205197 0.343938
O O11 0.395964 0.407290 0.398653
O O12 0.447033 0.393712 0.079918
O O13 0.425217 0.169194 0.083498
O O14 0.438292 0.275856 0.000000
O O15 0.500000 0.000000 0.679013
O O16 0.421189 0.036837 0.600306
O O17 0.407453 0.480042 0.500000
O O18 0.081430 0.537219 0.500000
#
# Coordination Sequence:
#
# PCOD9496761 Si02
#       8
#    16  16  16   8  16  16  16  16
#     4  11  21  37  59  86 116 152 202 247 296 347
#     4  10  23  41  64  89 112 144 191 248 308 364
#     4  11  21  38  56  80 118 159 192 241 285 350
#     4  10  22  42  63  84 120 146 187 248 308 346
#     4  10  20  34  54  80 116 161 204 237 275 333
#     4  10  21  38  60  84 117 153 194 241 293 355
#     4  11  22  36  56  85 123 165 202 240 285 340
#     4  10  20  33  52  83 119 154 195 241 280 327
#
# _framework density 20.008496999999998
#
# number of rings (size 3 to 8) (size 9 to 14) (size 15 to 20)
#    0.000    1.600    4.000    1.200    0.933    3.200 
#    0.000    1.333    0.000    0.000    0.000    0.933 
#    0.000    0.000    0.000    0.000    0.000    0.000 
#
# Total GULP energy -334299.370090 kJ/mol
# GULP energy per Si atom -5571.656168 kJ/mol
# Density = 1.996296 g / cm^3
# Si number density = 20.008497 Si / 1000 Ang^3
#
#
#
# Elastic Constant Matrix: (Units=GPa)
#
#
# Indices 1 2 3 4 5 6 
#
# 1 111.1204 16.7669 1.5027 0.0000 0.0000 0.0000
# 2 16.7669 114.8793 8.1436 0.0000 0.0000 0.0000
# 3 1.5027 8.1436 52.8851 0.0000 0.0000 0.0000
# 4 0.0000 0.0000 0.0000 9.1150 0.0000 0.0000
# 5 0.0000 0.0000 0.0000 0.0000 3.8408 0.0000
# 6 0.0000 0.0000 0.0000 0.0000 0.0000 27.5833
#
#
#
# Elastic Compliance Matrix: (Units=1/GPa)
#
#
# Indices 1 2 3 4 5 6 
#
# 1 0.009202 -0.001339 -0.000055 0.000000 0.000000 0.000000
# 2 -0.001339 0.008996 -0.001347 0.000000 0.000000 0.000000
# 3 -0.000055 -0.001347 0.019118 0.000000 0.000000 0.000000
# 4 0.000000 0.000000 0.000000 0.109710 0.000000 0.000000
# 5 0.000000 0.000000 0.000000 0.000000 0.260364 0.000000
# 6 0.000000 0.000000 0.000000 0.000000 0.000000 0.036254
#
#
# Mechanical properties :
#
#
# Convention : Reuss Voigt Hill
#
# Bulk Modulus (GPa) = 31.41436 36.85679 34.13557
# Shear Modulus (GPa) = 10.87577 24.93926 17.90752
#
# Velocity S-wave (km/s) = 2.33396 3.53432 2.99489
# Velocity P-wave (km/s) = 4.79560 5.92585 5.39043
#
# Compressibility (1/GPa) = 0.03183258
#
# Stress axis : x y z
#
# Youngs Moduli (GPa) = 108.67137 111.16378 52.30693
#
# Poissons Ratio (x) = 0.14886 0.00289
# Poissons Ratio (y) = 0.14553 0.07047
# Poissons Ratio (z) = 0.00600 0.14976
#
# Static dielectric constant tensor:
#      x y z
#    x 1.739640 0.000000 0.000000 
#    y 0.000000 1.808990 0.000000 
#    z 0.000000 0.000000 1.665400 
# 
# From -- ./inp_files/59604.got.cif
#   From: 2010.05.17/outbox.cif.g08.bks.cpg/sg66_30_cif.got.tgz:59604.got - 2010.06.03 17:51:23.
