data_PCOD9496956
_publ_section_title
;
Structure prediction by ZEFSAII (Michael W. Deem and Ramdas Pophale) SiO2 
 PCOD9496956
Probable space group: C C C M
;
_chemical_formula_sum "Si O2"
_cell_formula_units_Z 48
_cell_length_a 14.769569
_cell_length_b 4.891166
_cell_length_c 28.857652
_cell_angle_alpha 90.000000
_cell_angle_beta 90.000000
_cell_angle_gamma 90.000000
_cell_volume 2084.688720
_symmetry_space_group_name_H-M "C C C M"
_symmetry_group_IT_number 66
_symmetry_cell_setting 'orthorhombic'
loop_
_space_group_symop_operation_xyz
x,y,z
-x,-y,z
x,-y,1/2-z
-x,y,1/2-z
-x,-y,-z
x,y,-z
-x,y,1/2+z
x,-y,1/2+z
1/2+x,1/2+y,z
1/2-x,1/2-y,z
1/2+x,1/2-y,1/2-z
1/2-x,1/2+y,1/2-z
1/2-x,1/2-y,-z
1/2+x,1/2+y,-z
1/2-x,1/2+y,1/2+z
1/2+x,1/2-y,1/2+z
loop_
_atom_site_type_symbol
_atom_site_label
_atom_site_fract_x
_atom_site_fract_y
_atom_site_fract_z
Si Si1 0.181039 0.998996 0.000000
Si Si2 0.143264 0.828871 0.098199
Si Si3 0.750000 0.250000 0.280470
Si Si4 0.412272 0.148681 0.153208
O O1 0.250000 0.750000 0.000000
O O2 0.128639 0.963540 0.951911
O O3 0.250000 0.250000 0.000000
O O4 0.250000 0.750000 0.103829
O O5 0.099669 0.536863 0.107389
O O6 0.101434 0.039351 0.135728
O O7 0.712439 0.500000 0.250000
O O8 0.671715 0.119614 0.311998
O O9 0.500000 0.000000 0.175228
#
# Coordination Sequence:
#
# PCOD9496956 Si02
#       4
#     8  16   8  16
#     4  10  20  34  63 104 133 185 242 279 327 402
#     4  11  20  41  67  98 142 186 233 280 339 413
#     4  12  26  48  76  99 134 181 232 294 368 438
#     4  12  25  44  70 104 138 180 229 288 356 426
#
# _framework density 23.025017999999999
#
# number of rings (size 3 to 8) (size 9 to 14) (size 15 to 20)
#    0.000    0.667    3.333    7.000    0.000    0.667 
#    0.000    6.667    0.000    0.000    0.000    0.000 
#    0.000    0.000    0.000    0.000    0.000    0.000 
#
# Total GULP energy -133794.363593 kJ/mol
# GULP energy per Si atom -5574.765150 kJ/mol
# Density = 2.297261 g / cm^3
# Si number density = 23.025018 Si / 1000 Ang^3
#
#
#
# Elastic Constant Matrix: (Units=GPa)
#
#
# Indices 1 2 3 4 5 6 
#
# 1 149.2692 19.3762 34.0284 0.0000 0.0000 0.0000
# 2 19.3762 142.0752 22.1234 0.0000 0.0000 0.0000
# 3 34.0284 22.1234 88.5893 0.0000 0.0000 0.0000
# 4 0.0000 0.0000 0.0000 19.0765 0.0000 0.0000
# 5 0.0000 0.0000 0.0000 0.0000 -15.5385 0.0000
# 6 0.0000 0.0000 0.0000 0.0000 0.0000 35.3775
#
#
#
# Elastic Compliance Matrix: (Units=1/GPa)
#
#
# Indices 1 2 3 4 5 6 
#
# 1 0.007389 -0.000589 -0.002691 0.000000 0.000000 0.000000
# 2 -0.000589 0.007370 -0.001614 0.000000 0.000000 0.000000
# 3 -0.002691 -0.001614 0.012725 0.000000 0.000000 0.000000
# 4 0.000000 0.000000 0.000000 0.052420 0.000000 0.000000
# 5 0.000000 0.000000 0.000000 0.000000 -0.064356 0.000000
# 6 0.000000 0.000000 0.000000 0.000000 0.000000 0.028267
#
#
# Mechanical properties :
#
#
# Convention : Reuss Voigt Hill
#
# Bulk Modulus (GPa) = 56.51122 58.99887 57.75505
# Shear Modulus (GPa) = 84.03022 28.07683 56.05353
#
# Velocity S-wave (km/s) = 6.04768 3.49579 4.93938
# Velocity P-wave (km/s) = 8.56519 6.47869 7.59395
#
# Compressibility (1/GPa) = 0.01769560
#
# Stress axis : x y z
#
# Youngs Moduli (GPa) = 135.33180 135.68147 78.58553
#
# Poissons Ratio (x) = 0.07987 0.21150
# Poissons Ratio (y) = 0.07967 0.12687
# Poissons Ratio (z) = 0.36422 0.21905
#
# Static dielectric constant tensor:
#      x y z
#    x 2.020220 0.000000 0.000000 
#    y 0.000000 1.883800 0.000000 
#    z 0.000000 0.000000 2.025640 
# 
# From -- ./inp_files/64130.got.cif
#   From: 2010.05.17/outbox.cif.g08.bks.cpg/sg66_33_cif.got.tgz:64130.got - 2010.06.03 17:51:23.
