data_PCOD9496622
_publ_section_title
;
Structure prediction by ZEFSAII (Michael W. Deem and Ramdas Pophale) SiO2 
 PCOD9496622
Probable space group: C C C M
;
_chemical_formula_sum "Si O2"
_cell_formula_units_Z 88
_cell_length_a 16.301051
_cell_length_b 17.076673
_cell_length_c 17.350733
_cell_angle_alpha 90.000000
_cell_angle_beta 90.000000
_cell_angle_gamma 90.000000
_cell_volume 4829.883942
_symmetry_space_group_name_H-M "C C C M"
_symmetry_group_IT_number 66
_symmetry_cell_setting 'orthorhombic'
loop_
_space_group_symop_operation_xyz
x,y,z
-x,-y,z
x,-y,1/2-z
-x,y,1/2-z
-x,-y,-z
x,y,-z
-x,y,1/2+z
x,-y,1/2+z
1/2+x,1/2+y,z
1/2-x,1/2-y,z
1/2+x,1/2-y,1/2-z
1/2-x,1/2+y,1/2-z
1/2-x,1/2-y,-z
1/2+x,1/2+y,-z
1/2-x,1/2+y,1/2+z
1/2+x,1/2-y,1/2+z
loop_
_atom_site_type_symbol
_atom_site_label
_atom_site_fract_x
_atom_site_fract_y
_atom_site_fract_z
Si Si1 0.752153 0.863123 0.826649
Si Si2 0.983192 0.678278 0.664943
Si Si3 0.000000 0.500000 0.375292
Si Si4 0.810029 0.494788 0.084109
Si Si5 0.790206 0.670546 0.351464
Si Si6 0.630187 0.259066 0.590823
O O1 0.740943 0.845874 0.736237
O O2 0.687030 0.809747 0.873795
O O3 0.839492 0.834551 0.860579
O O4 0.726408 0.950338 0.849450
O O5 0.039023 0.727460 0.606731
O O6 0.000000 0.709403 0.750000
O O7 0.005852 0.585445 0.664375
O O8 0.887456 0.683745 0.650303
O O9 0.090102 0.494569 0.414190
O O10 0.778537 0.407278 0.098707
O O11 0.784642 0.524737 0.000000
O O12 0.750000 0.750000 0.380439
O O13 0.644314 0.269582 0.500000
#
# Coordination Sequence:
#
# PCOD9496622 Si02
#       6
#    16  16   8  16  16  16
#     4  11  19  37  57  82 114 143 190 238 291 336
#     4  11  19  33  53  79 114 150 184 228 280 344
#     4  10  20  30  50  76 114 144 188 218 278 338
#     4  11  22  34  54  81 116 151 188 236 282 342
#     4  11  22  38  56  82 115 160 193 224 281 354
#     4  11  21  33  57  85 113 143 184 243 296 331
#
# _framework density 18.219899999999999
#
# number of rings (size 3 to 8) (size 9 to 14) (size 15 to 20)
#    0.000    1.091    5.455    3.273    0.000    6.182 
#    0.000    0.000    0.000    1.091    0.000    6.364 
#    0.000    0.000    0.000    0.000    0.000    0.000 
#
# Total GULP energy -245297.288727 kJ/mol
# GULP energy per Si atom -5574.938380 kJ/mol
# Density = 1.817843 g / cm^3
# Si number density = 18.219900 Si / 1000 Ang^3
#
#
#
# Elastic Constant Matrix: (Units=GPa)
#
#
# Indices 1 2 3 4 5 6 
#
# 1 43.7961 28.5759 8.5452 0.0000 0.0000 0.0000
# 2 28.5759 87.9746 -3.2239 0.0000 0.0000 0.0000
# 3 8.5452 -3.2239 50.7070 0.0000 0.0000 0.0000
# 4 0.0000 0.0000 0.0000 17.6990 0.0000 0.0000
# 5 0.0000 0.0000 0.0000 0.0000 6.0339 0.0000
# 6 0.0000 0.0000 0.0000 0.0000 0.0000 29.9833
#
#
#
# Elastic Compliance Matrix: (Units=1/GPa)
#
#
# Indices 1 2 3 4 5 6 
#
# 1 0.030586 -0.010147 -0.005799 0.000000 0.000000 0.000000
# 2 -0.010147 0.014760 0.002648 0.000000 0.000000 0.000000
# 3 -0.005799 0.002648 0.020867 0.000000 0.000000 0.000000
# 4 0.000000 0.000000 0.000000 0.056501 0.000000 0.000000
# 5 0.000000 0.000000 0.000000 0.000000 0.165730 0.000000
# 6 0.000000 0.000000 0.000000 0.000000 0.000000 0.033352
#
#
# Mechanical properties :
#
#
# Convention : Reuss Voigt Hill
#
# Bulk Modulus (GPa) = 25.24249 27.80803 26.52526
# Shear Modulus (GPa) = 13.82755 20.64859 17.23807
#
# Velocity S-wave (km/s) = 2.75785 3.37010 3.07923
# Velocity P-wave (km/s) = 4.90157 5.51716 5.21845
#
# Compressibility (1/GPa) = 0.03961574
#
# Stress axis : x y z
#
# Youngs Moduli (GPa) = 32.69519 67.75052 47.92287
#
# Poissons Ratio (x) = 0.68749 0.27793
# Poissons Ratio (y) = 0.33177 -0.12692
# Poissons Ratio (z) = 0.18962 -0.17943
#
# Static dielectric constant tensor:
#      x y z
#    x 1.626380 0.000000 0.000000 
#    y 0.000000 1.643050 0.000000 
#    z 0.000000 0.000000 1.632540 
# 
# From -- ./inp_files/41559.got.cif
#   From: 2010.05.17/outbox.cif.g08.bks.cpg/sg66_21_cif.got.tgz:41559.got - 2010.06.03 17:51:23.
