data_PCOD9496960
_publ_section_title
;
Structure prediction by ZEFSAII (Michael W. Deem and Ramdas Pophale) SiO2 
 PCOD9496960
Probable space group: C C C M
;
_chemical_formula_sum "Si O2"
_cell_formula_units_Z 112
_cell_length_a 29.927387
_cell_length_b 16.090805
_cell_length_c 13.605937
_cell_angle_alpha 90.000000
_cell_angle_beta 90.000000
_cell_angle_gamma 90.000000
_cell_volume 6552.017174
_symmetry_space_group_name_H-M "C C C M"
_symmetry_group_IT_number 66
_symmetry_cell_setting 'orthorhombic'
loop_
_space_group_symop_operation_xyz
x,y,z
-x,-y,z
x,-y,1/2-z
-x,y,1/2-z
-x,-y,-z
x,y,-z
-x,y,1/2+z
x,-y,1/2+z
1/2+x,1/2+y,z
1/2-x,1/2-y,z
1/2+x,1/2-y,1/2-z
1/2-x,1/2+y,1/2-z
1/2-x,1/2-y,-z
1/2+x,1/2+y,-z
1/2-x,1/2+y,1/2+z
1/2+x,1/2-y,1/2+z
loop_
_atom_site_type_symbol
_atom_site_label
_atom_site_fract_x
_atom_site_fract_y
_atom_site_fract_z
Si Si1 0.344943 0.642830 0.120025
Si Si2 0.020443 0.316064 0.882998
Si Si3 0.252668 0.149189 0.613170
Si Si4 0.436513 0.904669 0.222816
Si Si5 0.850830 0.662574 0.619338
Si Si6 0.478916 0.623572 0.381007
Si Si7 0.571366 0.534757 0.619727
O O1 0.294851 0.621560 0.156730
O O2 0.355794 0.739087 0.144761
O O3 0.383473 0.579785 0.152315
O O4 0.343143 0.641204 0.000000
O O5 0.061449 0.358324 0.827259
O O6 0.022391 0.219423 0.853754
O O7 0.976029 0.362424 0.842232
O O8 0.021625 0.323160 0.000000
O O9 0.253463 0.120072 0.500000
O O10 0.250000 0.250000 0.610382
O O11 0.301849 0.131776 0.654320
O O12 0.390618 0.888869 0.166731
O O13 0.444986 0.000000 0.250000
O O14 0.852187 0.657757 0.500000
O O15 0.478106 0.621982 0.500000
O O16 0.439862 0.559818 0.350046
O O17 0.527041 0.586466 0.352567
O O18 0.572921 0.535678 0.500000
#
# Coordination Sequence:
#
# PCOD9496960 Si02
#       7
#    16  16  16  16  16  16  16
#     4   8  12  20  40  72 103 128 154 189 236 287
#     4  10  20  35  51  65  90 123 156 193 234 281
#     4   7  11  20  37  67  99 122 150 187 233 285
#     4  11  23  34  48  71  89 116 157 198 246 294
#     4   9  16  28  47  70  98 127 154 192 241 293
#     4   8  14  24  40  63  91 127 158 181 219 269
#     4   8  12  19  36  66  98 123 154 186 216 268
#
# _framework density 17.093972999999998
#
# number of rings (size 3 to 8) (size 9 to 14) (size 15 to 20)
#    0.000    3.286    0.000    4.714    0.000    4.000 
#    0.000    0.000    0.000   14.571   11.143    0.000 
#    0.000    5.143    0.000    0.714    0.000    0.000 
#
# Total GULP energy -311740.750797 kJ/mol
# GULP energy per Si atom -5566.799121 kJ/mol
# Density = 1.705507 g / cm^3
# Si number density = 17.093973 Si / 1000 Ang^3
#
#
#
# Elastic Constant Matrix: (Units=GPa)
#
#
# Indices 1 2 3 4 5 6 
#
# 1 130.8570 58.9398 16.2231 0.0000 0.0000 0.0000
# 2 58.9398 117.8803 27.1134 0.0000 0.0000 0.0000
# 3 16.2231 27.1134 49.7568 0.0000 0.0000 0.0000
# 4 0.0000 0.0000 0.0000 25.7732 0.0000 0.0000
# 5 0.0000 0.0000 0.0000 0.0000 16.6529 0.0000
# 6 0.0000 0.0000 0.0000 0.0000 0.0000 24.7438
#
#
#
# Elastic Compliance Matrix: (Units=1/GPa)
#
#
# Indices 1 2 3 4 5 6 
#
# 1 0.009879 -0.004800 -0.000605 0.000000 0.000000 0.000000
# 2 -0.004800 0.012031 -0.004991 0.000000 0.000000 0.000000
# 3 -0.000605 -0.004991 0.023015 0.000000 0.000000 0.000000
# 4 0.000000 0.000000 0.000000 0.038800 0.000000 0.000000
# 5 0.000000 0.000000 0.000000 0.000000 0.060050 0.000000
# 6 0.000000 0.000000 0.000000 0.000000 0.000000 0.040414
#
#
# Mechanical properties :
#
#
# Convention : Reuss Voigt Hill
#
# Bulk Modulus (GPa) = 41.43860 55.89410 48.66635
# Shear Modulus (GPa) = 23.47131 26.51516 24.99324
#
# Velocity S-wave (km/s) = 3.70952 3.94273 3.82790
# Velocity P-wave (km/s) = 6.53006 7.31409 6.93317
#
# Compressibility (1/GPa) = 0.02413209
#
# Stress axis : x y z
#
# Youngs Moduli (GPa) = 101.22389 83.11676 43.45033
#
# Poissons Ratio (x) = 0.39898 0.02630
# Poissons Ratio (y) = 0.48590 0.21686
# Poissons Ratio (z) = 0.06127 0.41483
#
# Static dielectric constant tensor:
#      x y z
#    x 1.605770 0.000000 0.000000 
#    y 0.000000 1.590760 0.000000 
#    z 0.000000 0.000000 1.617720 
# 
# From -- ./inp_files/33964.got.cif
#   From: 2010.05.17/outbox.cif.g08.bks.cpg/sg66_17_cif.got.tgz:33964.got - 2010.06.03 17:51:23.
