data_PCOD9496383
_publ_section_title
;
Structure prediction by ZEFSAII (Michael W. Deem and Ramdas Pophale) SiO2 
 PCOD9496383
Probable space group: C C C M
;
_chemical_formula_sum "Si O2"
_cell_formula_units_Z 72
_cell_length_a 21.565943
_cell_length_b 8.547858
_cell_length_c 16.870384
_cell_angle_alpha 90.000000
_cell_angle_beta 90.000000
_cell_angle_gamma 90.000000
_cell_volume 3109.930760
_symmetry_space_group_name_H-M "C C C M"
_symmetry_group_IT_number 66
_symmetry_cell_setting 'orthorhombic'
loop_
_space_group_symop_operation_xyz
x,y,z
-x,-y,z
x,-y,1/2-z
-x,y,1/2-z
-x,-y,-z
x,y,-z
-x,y,1/2+z
x,-y,1/2+z
1/2+x,1/2+y,z
1/2-x,1/2-y,z
1/2+x,1/2-y,1/2-z
1/2-x,1/2+y,1/2-z
1/2-x,1/2-y,-z
1/2+x,1/2+y,-z
1/2-x,1/2+y,1/2+z
1/2+x,1/2-y,1/2+z
loop_
_atom_site_type_symbol
_atom_site_label
_atom_site_fract_x
_atom_site_fract_y
_atom_site_fract_z
Si Si1 0.929345 0.061564 0.833222
Si Si2 0.093830 0.566497 0.500000
Si Si3 0.237083 0.566904 0.168351
Si Si4 0.427734 0.561263 0.500000
Si Si5 0.088368 0.429644 0.333288
Si Si6 0.763463 0.439939 0.000000
O O1 0.927259 0.247516 0.833796
O O2 0.901860 0.000000 0.750000
O O3 0.901730 0.004136 0.916866
O O4 0.000000 0.000000 0.833256
O O5 0.083650 0.753028 0.500000
O O6 0.067406 0.505776 0.416064
O O7 0.164071 0.493286 0.500000
O O8 0.261847 0.500000 0.250000
O O9 0.250000 0.750000 0.168755
O O10 0.162866 0.548208 0.167852
O O11 0.260801 0.500083 0.084558
O O12 0.500000 0.500000 0.500000
O O13 0.066089 0.500000 0.250000
O O14 0.750000 0.250000 0.000000
#
# Coordination Sequence:
#
# PCOD9496383 Si02
#       6
#    16   8  16   8  16   8
#     4  10  21  38  54  77 113 149 184 235 291 338
#     4  10  19  35  59  83 109 150 196 238 287 350
#     4   9  18  33  54  80 108 139 177 222 276 332
#     4  10  21  38  55  81 117 149 187 239 295 351
#     4  10  20  36  59  83 108 148 195 235 279 343
#     4   8  16  33  55  78 109 143 182 233 280 331
#
# _framework density 23.151641000000001
#
# number of rings (size 3 to 8) (size 9 to 14) (size 15 to 20)
#    0.000    2.444    0.000    2.000    0.000    0.889 
#    0.000   20.556    0.000    0.000    0.000    0.000 
#    0.000    0.000    0.000    0.000    0.000    0.000 
#
# Total GULP energy -200841.305205 kJ/mol
# GULP energy per Si atom -5578.925145 kJ/mol
# Density = 2.309895 g / cm^3
# Si number density = 23.151641 Si / 1000 Ang^3
#
#
#
# Elastic Constant Matrix: (Units=GPa)
#
#
# Indices 1 2 3 4 5 6 
#
# 1 130.4397 6.3415 22.6917 0.0000 0.0000 0.0000
# 2 6.3415 168.5480 116.7327 0.0000 0.0000 0.0000
# 3 22.6917 116.7327 352.0122 0.0000 0.0000 0.0000
# 4 0.0000 0.0000 0.0000 54.6439 0.0000 0.0000
# 5 0.0000 0.0000 0.0000 0.0000 -84.7947 0.0000
# 6 0.0000 0.0000 0.0000 0.0000 0.0000 33.5067
#
#
#
# Elastic Compliance Matrix: (Units=1/GPa)
#
#
# Indices 1 2 3 4 5 6 
#
# 1 0.007754 0.000071 -0.000523 0.000000 0.000000 0.000000
# 2 0.000071 0.007703 -0.002559 0.000000 0.000000 0.000000
# 3 -0.000523 -0.002559 0.003723 0.000000 0.000000 0.000000
# 4 0.000000 0.000000 0.000000 0.018300 0.000000 0.000000
# 5 0.000000 0.000000 0.000000 0.000000 -0.011793 0.000000
# 6 0.000000 0.000000 0.000000 0.000000 0.000000 0.029845
#
#
# Mechanical properties :
#
#
# Convention : Reuss Voigt Hill
#
# Bulk Modulus (GPa) = 76.00668 104.72573 90.36621
# Shear Modulus (GPa) = 75.82646 34.35343 55.08995
#
# Velocity S-wave (km/s) = 5.72915 3.85625 4.88333
# Velocity P-wave (km/s) = 8.75588 8.07220 8.42098
#
# Compressibility (1/GPa) = 0.01315674
#
# Stress axis : x y z
#
# Youngs Moduli (GPa) = 128.96610 129.82678 268.59366
#
# Poissons Ratio (x) = -0.00918 0.14055
# Poissons Ratio (y) = -0.00911 0.68729
# Poissons Ratio (z) = 0.06749 0.33221
#
# Static dielectric constant tensor:
#      x y z
#    x 1.894610 0.000000 0.000000 
#    y 0.000000 1.779830 0.000000 
#    z 0.000000 0.000000 1.937430 
# 
# From -- ./inp_files/43475.got.cif
#   From: 2010.05.17/outbox.cif.g08.bks.cpg/sg66_22_cif.got.tgz:43475.got - 2010.06.03 17:51:23.
