data_PCOD9496402
_publ_section_title
;
Structure prediction by ZEFSAII (Michael W. Deem and Ramdas Pophale) SiO2 
 PCOD9496402
Probable space group: C C C M
;
_chemical_formula_sum "Si O2"
_cell_formula_units_Z 64
_cell_length_a 33.125573
_cell_length_b 9.605473
_cell_length_c 10.302175
_cell_angle_alpha 90.000000
_cell_angle_beta 90.000000
_cell_angle_gamma 90.000000
_cell_volume 3278.016066
_symmetry_space_group_name_H-M "C C C M"
_symmetry_group_IT_number 66
_symmetry_cell_setting 'orthorhombic'
loop_
_space_group_symop_operation_xyz
x,y,z
-x,-y,z
x,-y,1/2-z
-x,y,1/2-z
-x,-y,-z
x,y,-z
-x,y,1/2+z
x,-y,1/2+z
1/2+x,1/2+y,z
1/2-x,1/2-y,z
1/2+x,1/2-y,1/2-z
1/2-x,1/2+y,1/2-z
1/2-x,1/2-y,-z
1/2+x,1/2+y,-z
1/2-x,1/2+y,1/2+z
1/2+x,1/2-y,1/2+z
loop_
_atom_site_type_symbol
_atom_site_label
_atom_site_fract_x
_atom_site_fract_y
_atom_site_fract_z
Si Si1 0.847432 0.062757 0.000000
Si Si2 0.913147 0.500000 0.750000
Si Si3 0.539949 0.098783 0.500000
Si Si4 0.763915 0.087203 0.500000
Si Si5 0.148313 0.274592 0.735209
Si Si6 0.782575 0.500000 0.250000
Si Si7 0.602872 0.319834 0.500000
O O1 0.844657 0.154549 0.130433
O O2 0.890442 0.984797 0.000000
O O3 0.811343 0.948934 0.000000
O O4 0.939843 0.443554 0.634861
O O5 0.884131 0.613829 0.683931
O O6 0.556784 0.262233 0.500000
O O7 0.500000 0.000000 0.500000
O O8 0.750000 0.250000 0.500000
O O9 0.744919 0.012579 0.375518
O O10 0.189021 0.363410 0.752516
O O11 0.127652 0.230286 0.871485
#
# Coordination Sequence:
#
# PCOD9496402 Si02
#       7
#     8   8   8   8  16   8   8
#     4  12  24  38  60  85 118 165 211 256 320 384
#     4   9  19  36  61  92 118 152 198 248 294 365
#     4  10  19  35  60  92 125 152 189 245 305 359
#     4  12  29  40  57  83 121 160 216 279 332 369
#     4  10  21  39  62  84 116 159 212 258 307 372
#     4  11  24  42  59  84 117 160 218 277 324 377
#     4  10  22  37  59  88 119 158 205 251 306 376
#
# _framework density 19.524004999999999
#
# number of rings (size 3 to 8) (size 9 to 14) (size 15 to 20)
#    0.000    1.500    0.000    4.875    7.000    5.000 
#    0.000    0.000    0.000    3.000    0.000   14.000 
#    0.000    0.000    0.000    0.000    0.000    0.000 
#
# Total GULP energy -178205.764889 kJ/mol
# GULP energy per Si atom -5568.930153 kJ/mol
# Density = 1.947957 g / cm^3
# Si number density = 19.524005 Si / 1000 Ang^3
#
#
#
# Elastic Constant Matrix: (Units=GPa)
#
#
# Indices 1 2 3 4 5 6 
#
# 1 96.2909 33.7101 17.6829 0.0000 0.0000 0.0000
# 2 33.7101 76.1956 14.8146 0.0000 0.0000 0.0000
# 3 17.6829 14.8146 99.8137 0.0000 0.0000 0.0000
# 4 0.0000 0.0000 0.0000 22.8554 0.0000 0.0000
# 5 0.0000 0.0000 0.0000 0.0000 13.2283 0.0000
# 6 0.0000 0.0000 0.0000 0.0000 0.0000 11.8975
#
#
#
# Elastic Compliance Matrix: (Units=1/GPa)
#
#
# Indices 1 2 3 4 5 6 
#
# 1 0.012484 -0.005245 -0.001433 0.000000 0.000000 0.000000
# 2 -0.005245 0.015717 -0.001404 0.000000 0.000000 0.000000
# 3 -0.001433 -0.001404 0.010481 0.000000 0.000000 0.000000
# 4 0.000000 0.000000 0.000000 0.043753 0.000000 0.000000
# 5 0.000000 0.000000 0.000000 0.000000 0.075595 0.000000
# 6 0.000000 0.000000 0.000000 0.000000 0.000000 0.084051
#
#
# Mechanical properties :
#
#
# Convention : Reuss Voigt Hill
#
# Bulk Modulus (GPa) = 44.40596 44.96836 44.68716
# Shear Modulus (GPa) = 18.81448 23.33575 21.07512
#
# Velocity S-wave (km/s) = 3.10765 3.46097 3.28906
# Velocity P-wave (km/s) = 5.97247 6.24927 6.11244
#
# Compressibility (1/GPa) = 0.02251950
#
# Stress axis : x y z
#
# Youngs Moduli (GPa) = 80.09942 63.62395 95.41148
#
# Poissons Ratio (x) = 0.33369 0.13675
# Poissons Ratio (y) = 0.42009 0.13393
# Poissons Ratio (z) = 0.11481 0.08931
#
# Static dielectric constant tensor:
#      x y z
#    x 1.699120 0.000000 0.000000 
#    y 0.000000 1.785050 0.000000 
#    z 0.000000 0.000000 1.661540 
# 
# From -- ./inp_files/13650.got.cif
#   From: 2010.05.17/outbox.cif.g08.bks.cpg/sg66_7_cif.got.tgz:13650.got - 2010.06.03 17:51:23.
