data_PCOD9496129
_publ_section_title
;
Structure prediction by ZEFSAII (Michael W. Deem and Ramdas Pophale) SiO2 
 PCOD9496129
Probable space group: C C C M
;
_chemical_formula_sum "Si O2"
_cell_formula_units_Z 112
_cell_length_a 28.441679
_cell_length_b 11.768137
_cell_length_c 14.804868
_cell_angle_alpha 90.000000
_cell_angle_beta 90.000000
_cell_angle_gamma 90.000000
_cell_volume 4955.271856
_symmetry_space_group_name_H-M "C C C M"
_symmetry_group_IT_number 66
_symmetry_cell_setting 'orthorhombic'
loop_
_space_group_symop_operation_xyz
x,y,z
-x,-y,z
x,-y,1/2-z
-x,y,1/2-z
-x,-y,-z
x,y,-z
-x,y,1/2+z
x,-y,1/2+z
1/2+x,1/2+y,z
1/2-x,1/2-y,z
1/2+x,1/2-y,1/2-z
1/2-x,1/2+y,1/2-z
1/2-x,1/2-y,-z
1/2+x,1/2+y,-z
1/2-x,1/2+y,1/2+z
1/2+x,1/2-y,1/2+z
loop_
_atom_site_type_symbol
_atom_site_label
_atom_site_fract_x
_atom_site_fract_y
_atom_site_fract_z
Si Si1 0.569302 0.966933 0.605175
Si Si2 0.236327 0.124204 0.389466
Si Si3 0.045515 0.937084 0.394046
Si Si4 0.670969 0.994504 0.890106
Si Si5 0.351895 0.485987 0.889465
Si Si6 0.515138 0.189183 0.651325
Si Si7 0.695742 0.748772 0.889984
O O1 0.571157 0.002428 0.500000
O O2 0.622536 0.943860 0.636053
O O3 0.532967 0.862422 0.609314
O O4 0.548396 0.077860 0.654622
O O5 0.235528 0.121364 0.500000
O O6 0.250000 0.250000 0.361657
O O7 0.279537 0.045344 0.359341
O O8 0.185202 0.081426 0.359663
O O9 0.047025 0.966557 0.500000
O O10 0.094648 0.984482 0.356952
O O11 0.039162 0.800375 0.390007
O O12 0.000000 0.000000 0.355332
O O13 0.669594 0.863285 0.861766
O O14 0.672962 0.999129 0.000000
O O15 0.329505 0.365764 0.862510
O O16 0.352499 0.489427 0.000000
O O17 0.500000 0.225340 0.750000
O O18 0.750000 0.750000 0.861362
O O19 0.696164 0.749165 0.000000
#
# Coordination Sequence:
#
# PCOD9496129 Si02
#       7
#    16  16  16  16  16  16  16
#     4  10  19  33  56  82 112 144 179 228 289 338
#     4   9  16  25  38  63 105 145 171 204 260 328
#     4  10  21  36  55  79 110 146 186 230 280 331
#     4   9  16  25  41  70 103 137 171 210 263 322
#     4   9  16  27  44  68 102 140 171 212 266 318
#     4  11  22  37  55  77 110 141 189 233 278 332
#     4   9  13  20  37  60  93 130 165 200 244 304
#
# _framework density 22.60219
#
# number of rings (size 3 to 8) (size 9 to 14) (size 15 to 20)
#    0.000    2.429    1.429    3.429    0.000    3.714 
#    0.000    4.286    0.000    0.000    0.000    0.000 
#   21.429    0.000    0.000    0.000    0.000    0.000 
#
# Total GULP energy -312650.489515 kJ/mol
# GULP energy per Si atom -5583.044456 kJ/mol
# Density = 2.255075 g / cm^3
# Si number density = 22.602190 Si / 1000 Ang^3
#
#
#
# Elastic Constant Matrix: (Units=GPa)
#
#
# Indices 1 2 3 4 5 6 
#
# 1 217.3345 76.1171 8.9732 0.0000 0.0000 0.0000
# 2 76.1171 112.1968 -3.5583 0.0000 0.0000 0.0000
# 3 8.9732 -3.5583 47.8491 0.0000 0.0000 0.0000
# 4 0.0000 0.0000 0.0000 -7.4193 0.0000 0.0000
# 5 0.0000 0.0000 0.0000 0.0000 -18.1649 0.0000
# 6 0.0000 0.0000 0.0000 0.0000 0.0000 28.1573
#
#
#
# Elastic Compliance Matrix: (Units=1/GPa)
#
#
# Indices 1 2 3 4 5 6 
#
# 1 0.006136 -0.004209 -0.001464 0.000000 0.000000 0.000000
# 2 -0.004209 0.011821 0.001668 0.000000 0.000000 0.000000
# 3 -0.001464 0.001668 0.021298 0.000000 0.000000 0.000000
# 4 0.000000 0.000000 0.000000 -0.134784 0.000000 0.000000
# 5 0.000000 0.000000 0.000000 0.000000 -0.055051 0.000000
# 6 0.000000 0.000000 0.000000 0.000000 0.000000 0.035515
#
#
# Mechanical properties :
#
#
# Convention : Reuss Voigt Hill
#
# Bulk Modulus (GPa) = 32.00398 60.04937 46.02668
# Shear Modulus (GPa) = -51.73775 20.23784 -15.74996
#
# Velocity S-wave (km/s) = -4.78960 2.99556 -2.64262
# Velocity P-wave (km/s) = 4.04927 6.21209 3.33118
#
# Compressibility (1/GPa) = 0.03124611
#
# Stress axis : x y z
#
# Youngs Moduli (GPa) = 162.97843 84.59253 46.95367
#
# Poissons Ratio (x) = 0.35606 0.06872
# Poissons Ratio (y) = 0.68599 -0.07834
# Poissons Ratio (z) = 0.23854 -0.14114
#
# Static dielectric constant tensor:
#      x y z
#    x 1.842160 0.000000 0.000000 
#    y 0.000000 1.799600 0.000000 
#    z 0.000000 0.000000 1.863490 
# 
# From -- ./inp_files/33842.got.cif
#   From: 2010.05.17/outbox.cif.g08.bks.cpg/sg66_17_cif.got.tgz:33842.got - 2010.06.03 17:51:23.
