data_PCOD9496650
_publ_section_title
;
Structure prediction by ZEFSAII (Michael W. Deem and Ramdas Pophale) SiO2 
 PCOD9496650
Probable space group: C C C M
;
_chemical_formula_sum "Si O2"
_cell_formula_units_Z 120
_cell_length_a 21.085830
_cell_length_b 12.393582
_cell_length_c 19.266895
_cell_angle_alpha 90.000000
_cell_angle_beta 90.000000
_cell_angle_gamma 90.000000
_cell_volume 5034.997693
_symmetry_space_group_name_H-M "C C C M"
_symmetry_group_IT_number 66
_symmetry_cell_setting 'orthorhombic'
loop_
_space_group_symop_operation_xyz
x,y,z
-x,-y,z
x,-y,1/2-z
-x,y,1/2-z
-x,-y,-z
x,y,-z
-x,y,1/2+z
x,-y,1/2+z
1/2+x,1/2+y,z
1/2-x,1/2-y,z
1/2+x,1/2-y,1/2-z
1/2-x,1/2+y,1/2-z
1/2-x,1/2-y,-z
1/2+x,1/2+y,-z
1/2-x,1/2+y,1/2+z
1/2+x,1/2-y,1/2+z
loop_
_atom_site_type_symbol
_atom_site_label
_atom_site_fract_x
_atom_site_fract_y
_atom_site_fract_z
Si Si1 0.630857 0.895051 0.781417
Si Si2 0.270147 0.642513 0.743240
Si Si3 0.021292 0.849141 0.862866
Si Si4 0.402980 0.645099 0.276655
Si Si5 0.335418 0.002766 0.078052
Si Si6 0.035858 0.387268 0.581613
Si Si7 0.093683 0.893972 0.000000
Si Si8 0.285105 0.641664 0.098348
O O1 0.699623 0.899432 0.743664
O O2 0.603915 0.776218 0.772504
O O3 0.595057 0.000000 0.750000
O O4 0.645647 0.914949 0.862093
O O5 0.250000 0.750000 0.702768
O O6 0.332785 0.596855 0.707656
O O7 0.296322 0.661859 0.820242
O O8 0.065249 0.882455 0.797227
O O9 0.021565 0.717568 0.873127
O O10 0.041397 0.892670 0.937171
O O11 0.951138 0.880114 0.838098
O O12 0.388640 0.909119 0.084693
O O13 0.265743 0.954400 0.088843
O O14 0.341415 0.046267 0.000000
O O15 0.020813 0.364917 0.500000
O O16 0.000000 0.500000 0.599528
O O17 0.150454 0.880203 0.940729
O O18 0.250000 0.750000 0.073464
#
# Coordination Sequence:
#
# PCOD9496650 Si02
#       8
#    16  16  16  16  16  16   8  16
#     4  11  20  35  58  81 113 149 188 223 278 339
#     4   9  19  35  56  78 108 144 185 231 281 321
#     4  11  21  34  53  77 108 149 190 224 270 332
#     4  10  22  37  53  77 111 149 188 231 265 326
#     4  11  22  33  51  83 117 149 185 230 283 330
#     4  10  20  32  46  71 114 156 185 215 257 322
#     4  12  21  32  55  82 111 138 183 238 293 334
#     4  11  20  31  53  85 114 142 175 238 293 336
#
# _framework density 23.833176999999999
#
# number of rings (size 3 to 8) (size 9 to 14) (size 15 to 20)
#    0.000    1.467    4.000    2.600    3.733    0.000 
#    1.200    1.333    1.467    1.200    0.000    7.467 
#    0.000    0.000    0.000    0.000    0.000    0.000 
#
# Total GULP energy -334070.554088 kJ/mol
# GULP energy per Si atom -5567.842568 kJ/mol
# Density = 2.377893 g / cm^3
# Si number density = 23.833177 Si / 1000 Ang^3
#
#
#
# Elastic Constant Matrix: (Units=GPa)
#
#
# Indices 1 2 3 4 5 6 
#
# 1 144.6093 10.6054 53.5125 0.0000 0.0000 0.0000
# 2 10.6054 90.4534 5.5488 0.0000 0.0000 0.0000
# 3 53.5125 5.5488 158.1032 0.0000 0.0000 0.0000
# 4 0.0000 0.0000 0.0000 11.1212 0.0000 0.0000
# 5 0.0000 0.0000 0.0000 0.0000 28.6790 0.0000
# 6 0.0000 0.0000 0.0000 0.0000 0.0000 0.3509
#
#
#
# Elastic Compliance Matrix: (Units=1/GPa)
#
#
# Indices 1 2 3 4 5 6 
#
# 1 0.007958 -0.000770 -0.002667 0.000000 0.000000 0.000000
# 2 -0.000770 0.011154 -0.000131 0.000000 0.000000 0.000000
# 3 -0.002667 -0.000131 0.007232 0.000000 0.000000 0.000000
# 4 0.000000 0.000000 0.000000 0.089918 0.000000 0.000000
# 5 0.000000 0.000000 0.000000 0.000000 0.034869 0.000000
# 6 0.000000 0.000000 0.000000 0.000000 0.000000 2.849458
#
#
# Mechanical properties :
#
#
# Convention : Reuss Voigt Hill
#
# Bulk Modulus (GPa) = 52.05640 59.16657 55.61148
# Shear Modulus (GPa) = 1.65886 29.59685 15.62785
#
# Velocity S-wave (km/s) = 0.83519 3.52779 2.56348
# Velocity P-wave (km/s) = 4.77697 6.43995 5.66976
#
# Compressibility (1/GPa) = 0.01920993
#
# Stress axis : x y z
#
# Youngs Moduli (GPa) = 125.65332 89.65651 138.27154
#
# Poissons Ratio (x) = 0.06899 0.36872
# Poissons Ratio (y) = 0.09669 0.01811
# Poissons Ratio (z) = 0.33507 0.01174
#
# Static dielectric constant tensor:
#      x y z
#    x 1.947690 0.000000 0.000000 
#    y 0.000000 2.120350 0.000000 
#    z 0.000000 0.000000 1.892900 
# 
# From -- ./inp_files/43098.got.cif
#   From: 2010.05.17/outbox.cif.g08.bks.cpg/sg66_22_cif.got.tgz:43098.got - 2010.06.03 17:51:23.
