data_PCOD9496547
_publ_section_title
;
Structure prediction by ZEFSAII (Michael W. Deem and Ramdas Pophale) SiO2 
 PCOD9496547
Probable space group: C C C M
;
_chemical_formula_sum "Si O2"
_cell_formula_units_Z 104
_cell_length_a 8.501554
_cell_length_b 18.267672
_cell_length_c 29.773241
_cell_angle_alpha 90.000000
_cell_angle_beta 90.000000
_cell_angle_gamma 90.000000
_cell_volume 4623.891510
_symmetry_space_group_name_H-M "C C C M"
_symmetry_group_IT_number 66
_symmetry_cell_setting 'orthorhombic'
loop_
_space_group_symop_operation_xyz
x,y,z
-x,-y,z
x,-y,1/2-z
-x,y,1/2-z
-x,-y,-z
x,y,-z
-x,y,1/2+z
x,-y,1/2+z
1/2+x,1/2+y,z
1/2-x,1/2-y,z
1/2+x,1/2-y,1/2-z
1/2-x,1/2+y,1/2-z
1/2-x,1/2-y,-z
1/2+x,1/2+y,-z
1/2-x,1/2+y,1/2+z
1/2+x,1/2-y,1/2+z
loop_
_atom_site_type_symbol
_atom_site_label
_atom_site_fract_x
_atom_site_fract_y
_atom_site_fract_z
Si Si1 0.983324 0.087450 0.000000
Si Si2 0.393963 0.073211 0.500000
Si Si3 0.329200 0.465582 0.155416
Si Si4 0.327185 0.096150 0.399137
Si Si5 0.467613 0.791137 0.350922
Si Si6 0.331211 0.875463 0.726936
Si Si7 0.750000 0.250000 0.791725
Si Si8 0.525055 0.343307 0.406534
O O1 0.794723 0.088121 0.000000
O O2 0.053578 0.127145 0.956636
O O3 0.000000 0.000000 0.000000
O O4 0.413680 0.097185 0.447596
O O5 0.500000 0.000000 0.500000
O O6 0.500000 0.500000 0.164981
O O7 0.227515 0.519083 0.122870
O O8 0.246189 0.444395 0.202150
O O9 0.374924 0.394696 0.126175
O O10 0.446972 0.135220 0.366330
O O11 0.163061 0.141800 0.401071
O O12 0.345587 0.818346 0.314485
O O13 0.596143 0.747785 0.321982
O O14 0.433877 0.739495 0.393215
O O15 0.500000 0.891986 0.750000
O O16 0.245562 0.825473 0.763788
#
# Coordination Sequence:
#
# PCOD9496547 Si02
#       8
#     8   8  16  16  16  16   8  16
#     4  10  20  39  63  96 135 180 224 273 336 405
#     4  10  22  35  59  95 130 174 226 269 332 395
#     4  10  22  41  68  94 130 173 227 273 341 409
#     4  10  21  38  61  94 127 174 215 277 335 404
#     4  11  21  38  66  90 129 170 220 276 347 406
#     4  10  23  40  67  94 126 175 221 287 343 401
#     4  10  20  42  62  89 126 165 222 266 346 400
#     4  10  19  37  66  91 127 171 222 265 329 409
#
# _framework density 22.491876999999999
#
# number of rings (size 3 to 8) (size 9 to 14) (size 15 to 20)
#    0.000    1.846    1.538    3.231    2.154    0.615 
#    0.000    7.692    6.769    0.923    0.000    0.000 
#    0.000    0.000    0.000    0.000    0.000    0.000 
#
# Total GULP energy -289884.451024 kJ/mol
# GULP energy per Si atom -5574.700981 kJ/mol
# Density = 2.244068 g / cm^3
# Si number density = 22.491877 Si / 1000 Ang^3
#
#
#
# Elastic Constant Matrix: (Units=GPa)
#
#
# Indices 1 2 3 4 5 6 
#
# 1 41.3946 19.8329 34.1644 0.0000 0.0000 0.0000
# 2 19.8329 54.0978 21.1168 0.0000 0.0000 0.0000
# 3 34.1644 21.1168 127.7190 0.0000 0.0000 0.0000
# 4 0.0000 0.0000 0.0000 36.3684 0.0000 0.0000
# 5 0.0000 0.0000 0.0000 0.0000 16.2525 0.0000
# 6 0.0000 0.0000 0.0000 0.0000 0.0000 23.2886
#
#
#
# Elastic Compliance Matrix: (Units=1/GPa)
#
#
# Indices 1 2 3 4 5 6 
#
# 1 0.035361 -0.009911 -0.007820 0.000000 0.000000 0.000000
# 2 -0.009911 0.022538 -0.001075 0.000000 0.000000 0.000000
# 3 -0.007820 -0.001075 0.010099 0.000000 0.000000 0.000000
# 4 0.000000 0.000000 0.000000 0.027496 0.000000 0.000000
# 5 0.000000 0.000000 0.000000 0.000000 0.061529 0.000000
# 6 0.000000 0.000000 0.000000 0.000000 0.000000 0.042940
#
#
# Mechanical properties :
#
#
# Convention : Reuss Voigt Hill
#
# Bulk Modulus (GPa) = 32.91071 41.49328 37.20200
# Shear Modulus (GPa) = 20.18536 25.05505 22.62021
#
# Velocity S-wave (km/s) = 2.99900 3.34122 3.17473
# Velocity P-wave (km/s) = 5.16295 5.77696 5.47856
#
# Compressibility (1/GPa) = 0.03038525
#
# Stress axis : x y z
#
# Youngs Moduli (GPa) = 28.28012 44.36898 99.01639
#
# Poissons Ratio (x) = 0.43974 0.77432
# Poissons Ratio (y) = 0.28028 0.10647
# Poissons Ratio (z) = 0.22115 0.04771
#
# Static dielectric constant tensor:
#      x y z
#    x 1.873950 0.000000 0.000000 
#    y 0.000000 1.870280 0.000000 
#    z 0.000000 0.000000 1.973890 
# 
# From -- ./inp_files/62734.got.cif
#   From: 2010.05.17/outbox.cif.g08.bks.cpg/sg66_32_cif.got.tgz:62734.got - 2010.06.03 17:51:23.
