data_PCOD9496974
_publ_section_title
;
Structure prediction by ZEFSAII (Michael W. Deem and Ramdas Pophale) SiO2 
 PCOD9496974
Probable space group: C C C M
;
_chemical_formula_sum "Si O2"
_cell_formula_units_Z 100
_cell_length_a 20.838059
_cell_length_b 31.238262
_cell_length_c 9.261646
_cell_angle_alpha 90.000000
_cell_angle_beta 90.000000
_cell_angle_gamma 90.000000
_cell_volume 6028.819809
_symmetry_space_group_name_H-M "C C C M"
_symmetry_group_IT_number 66
_symmetry_cell_setting 'orthorhombic'
loop_
_space_group_symop_operation_xyz
x,y,z
-x,-y,z
x,-y,1/2-z
-x,y,1/2-z
-x,-y,-z
x,y,-z
-x,y,1/2+z
x,-y,1/2+z
1/2+x,1/2+y,z
1/2-x,1/2-y,z
1/2+x,1/2-y,1/2-z
1/2-x,1/2+y,1/2-z
1/2-x,1/2-y,-z
1/2+x,1/2+y,-z
1/2-x,1/2+y,1/2+z
1/2+x,1/2-y,1/2+z
loop_
_atom_site_type_symbol
_atom_site_label
_atom_site_fract_x
_atom_site_fract_y
_atom_site_fract_z
Si Si1 0.602338 0.434645 0.660745
Si Si2 0.769637 0.042307 0.172028
Si Si3 0.934391 0.244359 0.828563
Si Si4 0.500000 0.500000 0.750000
Si Si5 0.898976 0.145906 0.835056
Si Si6 0.744658 0.138209 0.167708
Si Si7 0.309755 0.781908 0.327791
O O1 0.629040 0.429475 0.500000
O O2 0.658552 0.450509 0.766705
O O3 0.546083 0.468960 0.661267
O O4 0.578338 0.389435 0.722235
O O5 0.735232 0.087833 0.200713
O O6 0.743299 0.000000 0.250000
O O7 0.772201 0.036150 0.000000
O O8 0.925583 0.193106 0.810753
O O9 0.872800 0.265865 0.754762
O O10 0.000000 0.257455 0.750000
O O11 0.936224 0.253200 0.000000
O O12 0.821313 0.146871 0.821869
O O13 0.913703 0.132487 0.000000
O O14 0.709340 0.171208 0.271022
O O15 0.726757 0.145788 0.000000
O O16 0.319701 0.781412 0.500000
O O17 0.250000 0.750000 0.295200
#
# Coordination Sequence:
#
# PCOD9496974 Si02
#       7
#    16  16  16   4  16  16  16
#     4  11  23  35  49  64  88 125 169 220 269 317
#     4  10  20  35  53  74 100 129 166 211 267 321
#     4  11  23  39  57  78 109 146 180 223 276 328
#     4  12  26  36  44  66  90 128 178 224 276 320
#     4   9  20  37  54  73  99 131 173 222 273 324
#     4   9  18  34  55  78 103 137 177 219 271 326
#     4  11  22  35  55  84 111 140 184 231 270 326
#
# _framework density 16.586995000000002
#
# number of rings (size 3 to 8) (size 9 to 14) (size 15 to 20)
#    0.000    1.760    2.400    3.120    1.120    7.040 
#    0.000    0.000    0.000    0.000    0.000    0.000 
#    0.000    0.640    0.000    6.720    0.000    3.680 
#
# Total GULP energy -279131.530110 kJ/mol
# GULP energy per Si atom -5582.630602 kJ/mol
# Density = 1.654924 g / cm^3
# Si number density = 16.586995 Si / 1000 Ang^3
#
#
#
# Elastic Constant Matrix: (Units=GPa)
#
#
# Indices 1 2 3 4 5 6 
#
# 1 72.9303 42.1780 54.6787 0.0000 0.0000 0.0000
# 2 42.1780 104.0208 74.7980 0.0000 0.0000 0.0000
# 3 54.6787 74.7980 109.0224 0.0000 0.0000 0.0000
# 4 0.0000 0.0000 0.0000 23.2885 0.0000 0.0000
# 5 0.0000 0.0000 0.0000 0.0000 64.7922 0.0000
# 6 0.0000 0.0000 0.0000 0.0000 0.0000 20.5166
#
#
#
# Elastic Compliance Matrix: (Units=1/GPa)
#
#
# Indices 1 2 3 4 5 6 
#
# 1 0.022176 -0.001962 -0.009776 0.000000 0.000000 0.000000
# 2 -0.001962 0.019148 -0.012153 0.000000 0.000000 0.000000
# 3 -0.009776 -0.012153 0.022413 0.000000 0.000000 0.000000
# 4 0.000000 0.000000 0.000000 0.042940 0.000000 0.000000
# 5 0.000000 0.000000 0.000000 0.000000 0.015434 0.000000
# 6 0.000000 0.000000 0.000000 0.000000 0.000000 0.048741
#
#
# Mechanical properties :
#
#
# Convention : Reuss Voigt Hill
#
# Bulk Modulus (GPa) = 62.67576 69.92033 66.29804
# Shear Modulus (GPa) = 22.32631 29.34071 25.83351
#
# Velocity S-wave (km/s) = 3.67279 4.21039 3.95074
# Velocity P-wave (km/s) = 7.47355 8.11676 7.80178
#
# Compressibility (1/GPa) = 0.01595513
#
# Stress axis : x y z
#
# Youngs Moduli (GPa) = 45.09417 52.22538 44.61706
#
# Poissons Ratio (x) = 0.10249 0.43616
# Poissons Ratio (y) = 0.08849 0.54222
# Poissons Ratio (z) = 0.44082 0.63468
#
# Static dielectric constant tensor:
#      x y z
#    x 1.537600 0.000000 0.000000 
#    y 0.000000 1.579060 0.000000 
#    z 0.000000 0.000000 1.563880 
# 
# From -- ./inp_files/8364.got.cif
#   From: 2010.05.17/outbox.cif.g08.bks.cpg/sg66_5_cif.got.tgz:8364.got - 2010.06.03 17:51:23.
