data_PCOD9496931
_publ_section_title
;
Structure prediction by ZEFSAII (Michael W. Deem and Ramdas Pophale) SiO2 
 PCOD9496931
Probable space group: C C C M
;
_chemical_formula_sum "Si O2"
_cell_formula_units_Z 80
_cell_length_a 11.117982
_cell_length_b 12.785836
_cell_length_c 26.838793
_cell_angle_alpha 90.000000
_cell_angle_beta 90.000000
_cell_angle_gamma 90.000000
_cell_volume 3815.206742
_symmetry_space_group_name_H-M "C C C M"
_symmetry_group_IT_number 66
_symmetry_cell_setting 'orthorhombic'
loop_
_space_group_symop_operation_xyz
x,y,z
-x,-y,z
x,-y,1/2-z
-x,y,1/2-z
-x,-y,-z
x,y,-z
-x,y,1/2+z
x,-y,1/2+z
1/2+x,1/2+y,z
1/2-x,1/2-y,z
1/2+x,1/2-y,1/2-z
1/2-x,1/2+y,1/2-z
1/2-x,1/2-y,-z
1/2+x,1/2+y,-z
1/2-x,1/2+y,1/2+z
1/2+x,1/2-y,1/2+z
loop_
_atom_site_type_symbol
_atom_site_label
_atom_site_fract_x
_atom_site_fract_y
_atom_site_fract_z
Si Si1 0.621301 0.307048 0.444216
Si Si2 0.796286 0.956952 0.443537
Si Si3 0.372705 0.538642 0.806410
Si Si4 0.915611 0.215904 0.870413
Si Si5 0.130340 0.542008 0.136456
O O1 0.569835 0.282987 0.500000
O O2 0.750000 0.250000 0.442406
O O3 0.633270 0.433173 0.441887
O O4 0.545440 0.273360 0.396240
O O5 0.788733 0.921394 0.500000
O O6 0.852981 0.864794 0.409846
O O7 0.666824 0.985334 0.420070
O O8 0.500000 0.500000 0.829593
O O9 0.369720 0.500000 0.750000
O O10 0.392880 0.660849 0.817311
O O11 0.246816 0.505158 0.831687
O O12 0.871008 0.332710 0.863432
O O13 0.000000 0.500000 0.151397
#
# Coordination Sequence:
#
# PCOD9496931 Si02
#       5
#    16  16  16  16  16
#     4  10  20  34  57  93 134 175 215 255 306 372
#     4  10  20  35  57  87 127 173 215 253 296 363
#     4  10  22  43  67  89 114 152 206 261 312 378
#     4  11  21  37  62  89 124 166 210 257 315 374
#     4  11  24  41  62  93 131 164 200 255 322 379
#
# _framework density 20.968717999999999
#
# number of rings (size 3 to 8) (size 9 to 14) (size 15 to 20)
#    0.000    1.600    0.000    7.200    0.000    4.800 
#    0.000    8.000    0.000    2.400    0.000    0.000 
#    0.000    0.000    0.000    0.000    0.000    0.000 
#
# Total GULP energy -222789.760628 kJ/mol
# GULP energy per Si atom -5569.744016 kJ/mol
# Density = 2.092099 g / cm^3
# Si number density = 20.968718 Si / 1000 Ang^3
#
#
#
# Elastic Constant Matrix: (Units=GPa)
#
#
# Indices 1 2 3 4 5 6 
#
# 1 144.7935 25.9838 43.2225 0.0000 0.0000 0.0000
# 2 25.9838 74.6881 32.5907 0.0000 0.0000 0.0000
# 3 43.2225 32.5907 116.6606 0.0000 0.0000 0.0000
# 4 0.0000 0.0000 0.0000 12.0965 0.0000 0.0000
# 5 0.0000 0.0000 0.0000 0.0000 7.7923 0.0000
# 6 0.0000 0.0000 0.0000 0.0000 0.0000 19.4615
#
#
#
# Elastic Compliance Matrix: (Units=1/GPa)
#
#
# Indices 1 2 3 4 5 6 
#
# 1 0.007947 -0.001685 -0.002474 0.000000 0.000000 0.000000
# 2 -0.001685 0.015605 -0.003735 0.000000 0.000000 0.000000
# 3 -0.002474 -0.003735 0.010532 0.000000 0.000000 0.000000
# 4 0.000000 0.000000 0.000000 0.082668 0.000000 0.000000
# 5 0.000000 0.000000 0.000000 0.000000 0.128332 0.000000
# 6 0.000000 0.000000 0.000000 0.000000 0.000000 0.051383
#
#
# Mechanical properties :
#
#
# Convention : Reuss Voigt Hill
#
# Bulk Modulus (GPa) = 54.65671 59.97068 57.31370
# Shear Modulus (GPa) = 15.70576 23.49308 19.59942
#
# Velocity S-wave (km/s) = 2.73977 3.35085 3.06060
# Velocity P-wave (km/s) = 6.01090 6.60553 6.31522
#
# Compressibility (1/GPa) = 0.01829601
#
# Stress axis : x y z
#
# Youngs Moduli (GPa) = 125.82981 64.08116 94.95081
#
# Poissons Ratio (x) = 0.10801 0.23487
# Poissons Ratio (y) = 0.21208 0.35465
# Poissons Ratio (z) = 0.31125 0.23935
#
# Static dielectric constant tensor:
#      x y z
#    x 1.887810 0.000000 0.000000 
#    y 0.000000 1.774830 0.000000 
#    z 0.000000 0.000000 1.784470 
# 
# From -- ./inp_files/68774.got.cif
#   From: 2010.05.17/outbox.cif.g08.bks.cpg/sg66_35_cif.got.tgz:68774.got - 2010.06.03 17:51:23.
