data_PCOD9496035
_publ_section_title
;
Structure prediction by ZEFSAII (Michael W. Deem and Ramdas Pophale) SiO2 
 PCOD9496035
Probable space group: C C C M
;
_chemical_formula_sum "Si O2"
_cell_formula_units_Z 112
_cell_length_a 12.105266
_cell_length_b 21.029087
_cell_length_c 22.437911
_cell_angle_alpha 90.000000
_cell_angle_beta 90.000000
_cell_angle_gamma 90.000000
_cell_volume 5711.855024
_symmetry_space_group_name_H-M "C C C M"
_symmetry_group_IT_number 66
_symmetry_cell_setting 'orthorhombic'
loop_
_space_group_symop_operation_xyz
x,y,z
-x,-y,z
x,-y,1/2-z
-x,y,1/2-z
-x,-y,-z
x,y,-z
-x,y,1/2+z
x,-y,1/2+z
1/2+x,1/2+y,z
1/2-x,1/2-y,z
1/2+x,1/2-y,1/2-z
1/2-x,1/2+y,1/2-z
1/2-x,1/2-y,-z
1/2+x,1/2+y,-z
1/2-x,1/2+y,1/2+z
1/2+x,1/2-y,1/2+z
loop_
_atom_site_type_symbol
_atom_site_label
_atom_site_fract_x
_atom_site_fract_y
_atom_site_fract_z
Si Si1 0.935935 0.906587 0.905932
Si Si2 0.115799 0.476365 0.349667
Si Si3 0.086943 0.723974 0.304592
Si Si4 0.337550 0.091085 0.760087
Si Si5 0.382007 0.262092 0.933430
Si Si6 0.879969 0.864370 0.777619
Si Si7 0.326830 0.460904 0.432276
O O1 0.907721 0.837510 0.932395
O O2 0.891954 0.901856 0.838911
O O3 0.067152 0.920920 0.908818
O O4 0.872180 0.966440 0.933410
O O5 0.092978 0.421508 0.299885
O O6 0.153978 0.533557 0.306193
O O7 0.214714 0.458839 0.393779
O O8 0.000000 0.500000 0.377459
O O9 0.139184 0.655206 0.295769
O O10 0.058244 0.732295 0.375012
O O11 0.148667 0.790802 0.291539
O O12 0.000000 0.724263 0.250000
O O13 0.211583 0.100990 0.738591
O O14 0.250000 0.250000 0.925321
O O15 0.411311 0.237712 0.000000
O O16 0.000000 0.864763 0.750000
O O17 0.304646 0.440522 0.500000
#
# Coordination Sequence:
#
# PCOD9496035 Si02
#       7
#    16  16  16  16  16  16  16
#     4  10  19  37  56  89 126 158 198 244 315 387
#     4  11  24  39  57  81 110 157 208 253 301 363
#     4  10  20  34  56  84 116 158 197 250 307 372
#     4  11  20  39  57  80 115 153 195 247 314 370
#     4  10  20  34  57  90 129 163 199 255 321 386
#     4  10  19  32  56  89 120 145 191 244 302 377
#     4  11  22  37  59  83 118 163 203 250 309 374
#
# _framework density 19.608339000000001
#
# number of rings (size 3 to 8) (size 9 to 14) (size 15 to 20)
#    0.000    1.571    1.429    6.429    0.000    0.286 
#    0.000    0.000    0.000    2.571    0.000    0.000 
#    0.000   22.286    0.000    0.000    0.000    0.000 
#
# Total GULP energy -311931.759132 kJ/mol
# GULP energy per Si atom -5570.209984 kJ/mol
# Density = 1.956371 g / cm^3
# Si number density = 19.608339 Si / 1000 Ang^3
#
#
#
# Elastic Constant Matrix: (Units=GPa)
#
#
# Indices 1 2 3 4 5 6 
#
# 1 92.0043 28.9094 29.4912 0.0000 0.0000 0.0000
# 2 28.9094 77.5487 17.5112 0.0000 0.0000 0.0000
# 3 29.4912 17.5112 108.2927 0.0000 0.0000 0.0000
# 4 0.0000 0.0000 0.0000 5.1413 0.0000 0.0000
# 5 0.0000 0.0000 0.0000 0.0000 6.3466 0.0000
# 6 0.0000 0.0000 0.0000 0.0000 0.0000 27.0499
#
#
#
# Elastic Compliance Matrix: (Units=1/GPa)
#
#
# Indices 1 2 3 4 5 6 
#
# 1 0.013128 -0.004242 -0.002889 0.000000 0.000000 0.000000
# 2 -0.004242 0.014754 -0.001231 0.000000 0.000000 0.000000
# 3 -0.002889 -0.001231 0.010220 0.000000 0.000000 0.000000
# 4 0.000000 0.000000 0.000000 0.194502 0.000000 0.000000
# 5 0.000000 0.000000 0.000000 0.000000 0.157566 0.000000
# 6 0.000000 0.000000 0.000000 0.000000 0.000000 0.036969
#
#
# Mechanical properties :
#
#
# Convention : Reuss Voigt Hill
#
# Bulk Modulus (GPa) = 46.77433 47.74103 47.25768
# Shear Modulus (GPa) = 11.08678 21.16982 16.12830
#
# Velocity S-wave (km/s) = 2.38042 3.28934 2.87108
# Velocity P-wave (km/s) = 5.60903 6.23109 5.92823
#
# Compressibility (1/GPa) = 0.02137925
#
# Stress axis : x y z
#
# Youngs Moduli (GPa) = 76.17331 67.77717 97.84673
#
# Poissons Ratio (x) = 0.28748 0.28270
# Poissons Ratio (y) = 0.32309 0.12042
# Poissons Ratio (z) = 0.22008 0.08341
#
# Static dielectric constant tensor:
#      x y z
#    x 1.767490 0.000000 0.000000 
#    y 0.000000 1.711530 0.000000 
#    z 0.000000 0.000000 1.709480 
# 
# From -- ./inp_files/57160.got.cif
#   From: 2010.05.17/outbox.cif.g08.bks.cpg/sg66_29_cif.got.tgz:57160.got - 2010.06.03 17:51:23.
