data_PCOD9496394
_publ_section_title
;
Structure prediction by ZEFSAII (Michael W. Deem and Ramdas Pophale) SiO2 
 PCOD9496394
Probable space group: C C C M
;
_chemical_formula_sum "Si O2"
_cell_formula_units_Z 92
_cell_length_a 9.324173
_cell_length_b 21.651932
_cell_length_c 20.875856
_cell_angle_alpha 90.000000
_cell_angle_beta 90.000000
_cell_angle_gamma 90.000000
_cell_volume 4214.550575
_symmetry_space_group_name_H-M "C C C M"
_symmetry_group_IT_number 66
_symmetry_cell_setting 'orthorhombic'
loop_
_space_group_symop_operation_xyz
x,y,z
-x,-y,z
x,-y,1/2-z
-x,y,1/2-z
-x,-y,-z
x,y,-z
-x,y,1/2+z
x,-y,1/2+z
1/2+x,1/2+y,z
1/2-x,1/2-y,z
1/2+x,1/2-y,1/2-z
1/2-x,1/2+y,1/2-z
1/2-x,1/2-y,-z
1/2+x,1/2+y,-z
1/2-x,1/2+y,1/2+z
1/2+x,1/2-y,1/2+z
loop_
_atom_site_type_symbol
_atom_site_label
_atom_site_fract_x
_atom_site_fract_y
_atom_site_fract_z
Si Si1 0.213522 0.609304 0.000000
Si Si2 0.557426 0.648312 0.861130
Si Si3 0.500000 0.000000 0.750000
Si Si4 0.490274 0.213937 0.000000
Si Si5 0.717518 0.129750 0.862529
Si Si6 0.534617 0.640702 0.000000
Si Si7 0.052326 0.708523 0.359324
Si Si8 0.796885 0.400639 0.282877
O O1 0.172857 0.591268 0.926609
O O2 0.384899 0.604280 0.000000
O O3 0.141221 0.677824 0.000000
O O4 0.386017 0.644090 0.866554
O O5 0.611795 0.631253 0.932538
O O6 0.583816 0.720316 0.844000
O O7 0.637515 0.604012 0.811432
O O8 0.398019 0.958620 0.704409
O O9 0.408723 0.198757 0.065764
O O10 0.510671 0.287135 0.000000
O O11 0.615979 0.190283 0.858403
O O12 0.702031 0.099401 0.793646
O O13 0.128527 0.660265 0.312761
#
# Coordination Sequence:
#
# PCOD9496394 Si02
#       8
#     8  16   4   8  16   8  16  16
#     4   8  15  28  54  81 126 162 197 226 294 386
#     4  10  21  34  62  99 130 157 200 248 320 383
#     4  12  28  52  62  74 124 180 226 264 340 368
#     4   8  15  27  52  86 128 170 200 224 294 391
#     4  10  19  36  58  94 125 162 193 248 308 375
#     4   8  15  31  50  88 138 165 177 238 313 388
#     4  10  19  35  59  94 132 166 195 247 313 379
#     4  12  24  41  62  81 116 167 216 268 312 368
#
# _framework density 21.829136999999999
#
# number of rings (size 3 to 8) (size 9 to 14) (size 15 to 20)
#    0.000    2.087    1.739    1.826    0.000    9.043 
#    0.000    4.348    0.000    4.696    0.000    3.652 
#    0.000    0.000    0.000    0.000    0.000    0.000 
#
# Total GULP energy -256175.902287 kJ/mol
# GULP energy per Si atom -5569.041354 kJ/mol
# Density = 2.177945 g / cm^3
# Si number density = 21.829137 Si / 1000 Ang^3
#
#
#
# Elastic Constant Matrix: (Units=GPa)
#
#
# Indices 1 2 3 4 5 6 
#
# 1 88.4391 16.6834 20.5649 0.0000 0.0000 0.0000
# 2 16.6834 41.0552 31.2006 0.0000 0.0000 0.0000
# 3 20.5649 31.2006 152.8569 0.0000 0.0000 0.0000
# 4 0.0000 0.0000 0.0000 39.3607 0.0000 0.0000
# 5 0.0000 0.0000 0.0000 0.0000 259.1143 0.0000
# 6 0.0000 0.0000 0.0000 0.0000 0.0000 24.7820
#
#
#
# Elastic Compliance Matrix: (Units=1/GPa)
#
#
# Indices 1 2 3 4 5 6 
#
# 1 0.012319 -0.004434 -0.000752 0.000000 0.000000 0.000000
# 2 -0.004434 0.030426 -0.005614 0.000000 0.000000 0.000000
# 3 -0.000752 -0.005614 0.007789 0.000000 0.000000 0.000000
# 4 0.000000 0.000000 0.000000 0.025406 0.000000 0.000000
# 5 0.000000 0.000000 0.000000 0.000000 0.003859 0.000000
# 6 0.000000 0.000000 0.000000 0.000000 0.000000 0.040352
#
#
# Mechanical properties :
#
#
# Convention : Reuss Voigt Hill
#
# Bulk Modulus (GPa) = 34.56265 46.58323 40.57294
# Shear Modulus (GPa) = 33.02608 78.91154 55.96881
#
# Velocity S-wave (km/s) = 3.89387 6.01898 5.06904
# Velocity P-wave (km/s) = 6.00699 8.34808 7.27236
#
# Compressibility (1/GPa) = 0.02893297
#
# Stress axis : x y z
#
# Youngs Moduli (GPa) = 81.17803 32.86698 128.38387
#
# Poissons Ratio (x) = 0.14574 0.09657
# Poissons Ratio (y) = 0.35996 0.72072
# Poissons Ratio (z) = 0.06106 0.18451
#
# Static dielectric constant tensor:
#      x y z
#    x 1.882810 0.000000 0.000000 
#    y 0.000000 1.765600 0.000000 
#    z 0.000000 0.000000 1.883200 
# 
# From -- ./inp_files/47225.got.cif
#   From: 2010.05.17/outbox.cif.g08.bks.cpg/sg66_24_cif.got.tgz:47225.got - 2010.06.03 17:51:23.
