data_PCOD9496669
_publ_section_title
;
Structure prediction by ZEFSAII (Michael W. Deem and Ramdas Pophale) SiO2 
 PCOD9496669
Probable space group: C C C M
;
_chemical_formula_sum "Si O2"
_cell_formula_units_Z 80
_cell_length_a 25.997361
_cell_length_b 17.174066
_cell_length_c 10.102085
_cell_angle_alpha 90.000000
_cell_angle_beta 90.000000
_cell_angle_gamma 90.000000
_cell_volume 4510.382887
_symmetry_space_group_name_H-M "C C C M"
_symmetry_group_IT_number 66
_symmetry_cell_setting 'orthorhombic'
loop_
_space_group_symop_operation_xyz
x,y,z
-x,-y,z
x,-y,1/2-z
-x,y,1/2-z
-x,-y,-z
x,y,-z
-x,y,1/2+z
x,-y,1/2+z
1/2+x,1/2+y,z
1/2-x,1/2-y,z
1/2+x,1/2-y,1/2-z
1/2-x,1/2+y,1/2-z
1/2-x,1/2-y,-z
1/2+x,1/2+y,-z
1/2-x,1/2+y,1/2+z
1/2+x,1/2-y,1/2+z
loop_
_atom_site_type_symbol
_atom_site_label
_atom_site_fract_x
_atom_site_fract_y
_atom_site_fract_z
Si Si1 0.134114 0.432683 0.144316
Si Si2 0.375888 0.713619 0.149927
Si Si3 0.050012 0.300527 0.842179
Si Si4 0.197547 0.929205 0.850603
Si Si5 0.785461 0.681515 0.249994
O O1 0.139217 0.500000 0.250000
O O2 0.083599 0.379750 0.164263
O O3 0.181752 0.373032 0.154005
O O4 0.132264 0.469165 0.000000
O O5 0.415037 0.736192 0.266479
O O6 0.350892 0.628648 0.167868
O O7 0.328109 0.774000 0.162495
O O8 0.397309 0.719776 0.000000
O O9 0.000000 0.308540 0.750000
O O10 0.041070 0.284766 0.000000
O O11 0.247404 0.874800 0.829305
O O12 0.197901 0.000000 0.750000
O O13 0.197228 0.959067 0.000000
O O14 0.750000 0.750000 0.189052
#
# Coordination Sequence:
#
# PCOD9496669 Si02
#       5
#    16  16  16  16  16
#     4  10  22  36  51  75 106 139 173 212 258 305
#     4   9  18  34  54  75 102 136 173 213 255 301
#     4  10  21  37  57  80 102 129 168 211 258 309
#     4  10  20  32  49  75 106 140 175 210 252 301
#     4   9  18  32  51  75 103 138 180 219 253 295
#
# _framework density 17.736853
#
# number of rings (size 3 to 8) (size 9 to 14) (size 15 to 20)
#    0.000    2.400    0.000    1.800    0.000   11.200 
#    0.000    6.000    0.000    0.600    0.000    4.200 
#    0.000    0.000    0.000    0.000    0.000    0.000 
#
# Total GULP energy -222933.616526 kJ/mol
# GULP energy per Si atom -5573.340413 kJ/mol
# Density = 1.769648 g / cm^3
# Si number density = 17.736853 Si / 1000 Ang^3
#
#
#
# Elastic Constant Matrix: (Units=GPa)
#
#
# Indices 1 2 3 4 5 6 
#
# 1 90.6539 29.7117 65.7983 0.0000 0.0000 0.0000
# 2 29.7117 88.3061 76.7640 0.0000 0.0000 0.0000
# 3 65.7983 76.7640 159.0266 0.0000 0.0000 0.0000
# 4 0.0000 0.0000 0.0000 16.0435 0.0000 0.0000
# 5 0.0000 0.0000 0.0000 0.0000 6.0189 0.0000
# 6 0.0000 0.0000 0.0000 0.0000 0.0000 4.2854
#
#
#
# Elastic Compliance Matrix: (Units=1/GPa)
#
#
# Indices 1 2 3 4 5 6 
#
# 1 0.015786 0.000631 -0.006836 0.000000 0.000000 0.000000
# 2 0.000631 0.019537 -0.009692 0.000000 0.000000 0.000000
# 3 -0.006836 -0.009692 0.013795 0.000000 0.000000 0.000000
# 4 0.000000 0.000000 0.000000 0.062331 0.000000 0.000000
# 5 0.000000 0.000000 0.000000 0.000000 0.166143 0.000000
# 6 0.000000 0.000000 0.000000 0.000000 0.000000 0.233353
#
#
# Mechanical properties :
#
#
# Convention : Reuss Voigt Hill
#
# Bulk Modulus (GPa) = 57.72205 75.83717 66.77961
# Shear Modulus (GPa) = 9.11554 16.31705 12.71630
#
# Velocity S-wave (km/s) = 2.26947 3.03636 2.68048
# Velocity P-wave (km/s) = 6.28343 7.42579 6.87837
#
# Compressibility (1/GPa) = 0.01732440
#
# Stress axis : x y z
#
# Youngs Moduli (GPa) = 63.34743 51.18491 72.48859
#
# Poissons Ratio (x) = -0.03232 0.49556
# Poissons Ratio (y) = -0.04000 0.70256
# Poissons Ratio (z) = 0.43306 0.49608
#
# Static dielectric constant tensor:
#      x y z
#    x 1.624800 0.000000 0.000000 
#    y 0.000000 1.583750 0.000000 
#    z 0.000000 0.000000 1.606810 
# 
# From -- ./inp_files/19669.got.cif
#   From: 2010.05.17/outbox.cif.g08.bks.cpg/sg66_10_cif.got.tgz:19669.got - 2010.06.03 17:51:23.
