data_PCOD9496958
_publ_section_title
;
Structure prediction by ZEFSAII (Michael W. Deem and Ramdas Pophale) SiO2 
 PCOD9496958
Probable space group: C C C M
;
_chemical_formula_sum "Si O2"
_cell_formula_units_Z 104
_cell_length_a 9.515012
_cell_length_b 31.156633
_cell_length_c 19.176092
_cell_angle_alpha 90.000000
_cell_angle_beta 90.000000
_cell_angle_gamma 90.000000
_cell_volume 5684.862484
_symmetry_space_group_name_H-M "C C C M"
_symmetry_group_IT_number 66
_symmetry_cell_setting 'orthorhombic'
loop_
_space_group_symop_operation_xyz
x,y,z
-x,-y,z
x,-y,1/2-z
-x,y,1/2-z
-x,-y,-z
x,y,-z
-x,y,1/2+z
x,-y,1/2+z
1/2+x,1/2+y,z
1/2-x,1/2-y,z
1/2+x,1/2-y,1/2-z
1/2-x,1/2+y,1/2-z
1/2-x,1/2-y,-z
1/2+x,1/2+y,-z
1/2-x,1/2+y,1/2+z
1/2+x,1/2-y,1/2+z
loop_
_atom_site_type_symbol
_atom_site_label
_atom_site_fract_x
_atom_site_fract_y
_atom_site_fract_z
Si Si1 0.208795 0.404495 0.868119
Si Si2 0.089384 0.757425 0.679851
Si Si3 0.000000 0.596149 0.250000
Si Si4 0.795564 0.375760 0.124537
Si Si5 0.467013 0.178718 0.920766
Si Si6 0.683540 0.039334 0.500000
Si Si7 0.982510 0.852347 0.832422
Si Si8 0.650533 0.058123 0.000000
O O1 0.123380 0.362713 0.896241
O O2 0.357983 0.385914 0.844985
O O3 0.108396 0.423893 0.806908
O O4 0.234017 0.437650 0.930039
O O5 0.250000 0.750000 0.700294
O O6 0.055138 0.719315 0.627399
O O7 0.000000 0.753656 0.750000
O O8 0.063628 0.804196 0.645851
O O9 0.114590 0.618740 0.197277
O O10 0.632498 0.366619 0.137499
O O11 0.872360 0.336363 0.086706
O O12 0.814258 0.415273 0.070280
O O13 0.429926 0.188090 0.000000
O O14 0.516163 0.049030 0.500000
O O15 0.716740 0.989101 0.500000
O O16 0.000000 0.849146 0.750000
#
# Coordination Sequence:
#
# PCOD9496958 Si02
#       8
#    16  16   8  16  16   8  16   8
#     4  11  20  40  63  94 118 171 201 256 312 374
#     4  11  26  39  60  92 125 167 212 264 306 356
#     4  10  20  34  67  88 122 156 210 250 300 368
#     4  11  22  41  63  93 123 166 204 258 317 367
#     4  11  22  41  60  86 129 165 209 256 306 362
#     4  11  22  41  71  96 124 157 210 253 318 376
#     4  11  24  40  62  92 129 163 213 257 311 371
#     4  11  22  43  67  98 127 154 204 267 305 383
#
# _framework density 18.294198000000002
#
# number of rings (size 3 to 8) (size 9 to 14) (size 15 to 20)
#    0.000    1.077    7.692    0.000    8.615    0.923 
#    2.769    3.846    0.000    0.923    0.000    0.000 
#    0.000    0.000    0.000    0.000    0.000    0.000 
#
# Total GULP energy -289809.548983 kJ/mol
# GULP energy per Si atom -5573.260557 kJ/mol
# Density = 1.825256 g / cm^3
# Si number density = 18.294198 Si / 1000 Ang^3
#
#
#
# Elastic Constant Matrix: (Units=GPa)
#
#
# Indices 1 2 3 4 5 6 
#
# 1 128.3116 37.0722 26.6649 0.0000 0.0000 0.0000
# 2 37.0722 102.0899 49.9602 0.0000 0.0000 0.0000
# 3 26.6649 49.9602 103.0407 0.0000 0.0000 0.0000
# 4 0.0000 0.0000 0.0000 25.8933 0.0000 0.0000
# 5 0.0000 0.0000 0.0000 0.0000 23.2654 0.0000
# 6 0.0000 0.0000 0.0000 0.0000 0.0000 -30.9405
#
#
#
# Elastic Compliance Matrix: (Units=1/GPa)
#
#
# Indices 1 2 3 4 5 6 
#
# 1 0.008778 -0.002722 -0.000952 0.000000 0.000000 0.000000
# 2 -0.002722 0.013686 -0.005932 0.000000 0.000000 0.000000
# 3 -0.000952 -0.005932 0.012827 0.000000 0.000000 0.000000
# 4 0.000000 0.000000 0.000000 0.038620 0.000000 0.000000
# 5 0.000000 0.000000 0.000000 0.000000 0.042982 0.000000
# 6 0.000000 0.000000 0.000000 0.000000 0.000000 -0.032320
#
#
# Mechanical properties :
#
#
# Convention : Reuss Voigt Hill
#
# Bulk Modulus (GPa) = 62.18531 62.31520 62.25025
# Shear Modulus (GPa) = 45.81095 18.29331 32.05213
#
# Velocity S-wave (km/s) = 5.00955 3.16563 4.19028
# Velocity P-wave (km/s) = 8.21745 6.89191 7.58369
#
# Compressibility (1/GPa) = 0.01608097
#
# Stress axis : x y z
#
# Youngs Moduli (GPa) = 113.92529 73.06522 77.95902
#
# Poissons Ratio (x) = 0.19886 0.07421
# Poissons Ratio (y) = 0.31006 0.46243
# Poissons Ratio (z) = 0.10844 0.43340
#
# Static dielectric constant tensor:
#      x y z
#    x 1.667980 0.000000 0.000000 
#    y 0.000000 1.634030 0.000000 
#    z 0.000000 0.000000 1.671540 
# 
# From -- ./inp_files/47580.got.cif
#   From: 2010.05.17/outbox.cif.g08.bks.cpg/sg66_24_cif.got.tgz:47580.got - 2010.06.03 17:51:23.
