data_PCOD9496524
_publ_section_title
;
Structure prediction by ZEFSAII (Michael W. Deem and Ramdas Pophale) SiO2 
 PCOD9496524
Probable space group: C C C M
;
_chemical_formula_sum "Si O2"
_cell_formula_units_Z 116
_cell_length_a 15.746532
_cell_length_b 23.734107
_cell_length_c 14.991969
_cell_angle_alpha 90.000000
_cell_angle_beta 90.000000
_cell_angle_gamma 90.000000
_cell_volume 5602.946706
_symmetry_space_group_name_H-M "C C C M"
_symmetry_group_IT_number 66
_symmetry_cell_setting 'orthorhombic'
loop_
_space_group_symop_operation_xyz
x,y,z
-x,-y,z
x,-y,1/2-z
-x,y,1/2-z
-x,-y,-z
x,y,-z
-x,y,1/2+z
x,-y,1/2+z
1/2+x,1/2+y,z
1/2-x,1/2-y,z
1/2+x,1/2-y,1/2-z
1/2-x,1/2+y,1/2-z
1/2-x,1/2-y,-z
1/2+x,1/2+y,-z
1/2-x,1/2+y,1/2+z
1/2+x,1/2-y,1/2+z
loop_
_atom_site_type_symbol
_atom_site_label
_atom_site_fract_x
_atom_site_fract_y
_atom_site_fract_z
Si Si1 0.351456 0.593768 0.604434
Si Si2 0.538563 0.401552 0.101942
Si Si3 0.611249 0.964481 0.339391
Si Si4 0.239389 0.188486 0.783025
Si Si5 0.427958 0.284099 0.328940
Si Si6 0.418120 0.162190 0.312514
Si Si7 0.202365 0.965572 0.104515
Si Si8 0.000000 0.500000 0.500000
O O1 0.359259 0.609965 0.500000
O O2 0.446619 0.588806 0.643654
O O3 0.296161 0.640069 0.653885
O O4 0.312833 0.531959 0.608325
O O5 0.551498 0.334675 0.105087
O O6 0.620507 0.432593 0.141260
O O7 0.533835 0.423208 0.000000
O O8 0.576440 0.900634 0.351045
O O9 0.711846 0.954524 0.343785
O O10 0.592679 0.000000 0.250000
O O11 0.573821 0.998898 0.421715
O O12 0.250000 0.250000 0.828624
O O13 0.164649 0.201196 0.711570
O O14 0.328924 0.169458 0.740397
O O15 0.500000 0.286087 0.250000
O O16 0.424723 0.220685 0.367657
O O17 0.500000 0.165133 0.250000
O O18 0.213894 0.948940 0.000000
#
# Coordination Sequence:
#
# PCOD9496524 Si02
#       8
#    16  16  16  16  16  16  16   4
#     4  10  20  35  59  92 130 167 206 254 323 392
#     4  10  20  36  61  91 129 167 204 254 320 391
#     4  12  24  44  69  92 129 168 222 271 332 386
#     4  10  20  36  61  87 122 165 210 264 316 379
#     4  10  19  37  61  87 124 160 205 257 315 377
#     4  10  22  39  62  88 117 164 213 261 317 378
#     4  10  21  39  61  91 128 170 212 263 323 388
#     4  12  26  44  68  94 124 166 214 284 332 378
#
# _framework density 20.703389999999999
#
# number of rings (size 3 to 8) (size 9 to 14) (size 15 to 20)
#    0.000    1.655    2.069    3.103    0.000    1.931 
#    1.241    0.000    0.000    2.897    0.000    0.000 
#    0.000    0.000    0.000    0.000    0.000    0.000 
#
# Total GULP energy -323031.101221 kJ/mol
# GULP energy per Si atom -5569.501745 kJ/mol
# Density = 2.065627 g / cm^3
# Si number density = 20.703390 Si / 1000 Ang^3
#
#
#
# Elastic Constant Matrix: (Units=GPa)
#
#
# Indices 1 2 3 4 5 6 
#
# 1 106.4429 -8.7337 4.3208 0.0000 0.0000 0.0000
# 2 -8.7337 72.5954 10.9817 0.0000 0.0000 0.0000
# 3 4.3208 10.9817 54.8897 0.0000 0.0000 0.0000
# 4 0.0000 0.0000 0.0000 28.9899 0.0000 0.0000
# 5 0.0000 0.0000 0.0000 0.0000 21.6034 0.0000
# 6 0.0000 0.0000 0.0000 0.0000 0.0000 34.6829
#
#
#
# Elastic Compliance Matrix: (Units=1/GPa)
#
#
# Indices 1 2 3 4 5 6 
#
# 1 0.009543 0.001301 -0.001011 0.000000 0.000000 0.000000
# 2 0.001301 0.014382 -0.002980 0.000000 0.000000 0.000000
# 3 -0.001011 -0.002980 0.018894 0.000000 0.000000 0.000000
# 4 0.000000 0.000000 0.000000 0.034495 0.000000 0.000000
# 5 0.000000 0.000000 0.000000 0.000000 0.046289 0.000000
# 6 0.000000 0.000000 0.000000 0.000000 0.000000 0.028833
#
#
# Mechanical properties :
#
#
# Convention : Reuss Voigt Hill
#
# Bulk Modulus (GPa) = 26.71053 27.45170 27.08112
# Shear Modulus (GPa) = 29.36075 32.21253 30.78664
#
# Velocity S-wave (km/s) = 3.76993 3.94878 3.86039
# Velocity P-wave (km/s) = 5.64618 5.83770 5.74274
#
# Compressibility (1/GPa) = 0.03743842
#
# Stress axis : x y z
#
# Youngs Moduli (GPa) = 104.79415 69.53003 52.92645
#
# Poissons Ratio (x) = -0.09046 0.05353
# Poissons Ratio (y) = -0.13634 0.15771
# Poissons Ratio (z) = 0.10599 0.20719
#
# Static dielectric constant tensor:
#      x y z
#    x 1.768150 0.000000 0.000000 
#    y 0.000000 1.783050 0.000000 
#    z 0.000000 0.000000 1.728450 
# 
# From -- ./inp_files/40725.got.cif
#   From: 2010.05.17/outbox.cif.g08.bks.cpg/sg66_21_cif.got.tgz:40725.got - 2010.06.03 17:51:23.
