data_PCOD9496875
_publ_section_title
;
Structure prediction by ZEFSAII (Michael W. Deem and Ramdas Pophale) SiO2 
 PCOD9496875
Probable space group: C C C M
;
_chemical_formula_sum "Si O2"
_cell_formula_units_Z 104
_cell_length_a 21.102761
_cell_length_b 27.075721
_cell_length_c 9.512076
_cell_angle_alpha 90.000000
_cell_angle_beta 90.000000
_cell_angle_gamma 90.000000
_cell_volume 5434.938351
_symmetry_space_group_name_H-M "C C C M"
_symmetry_group_IT_number 66
_symmetry_cell_setting 'orthorhombic'
loop_
_space_group_symop_operation_xyz
x,y,z
-x,-y,z
x,-y,1/2-z
-x,y,1/2-z
-x,-y,-z
x,y,-z
-x,y,1/2+z
x,-y,1/2+z
1/2+x,1/2+y,z
1/2-x,1/2-y,z
1/2+x,1/2-y,1/2-z
1/2-x,1/2+y,1/2-z
1/2-x,1/2-y,-z
1/2+x,1/2+y,-z
1/2-x,1/2+y,1/2+z
1/2+x,1/2-y,1/2+z
loop_
_atom_site_type_symbol
_atom_site_label
_atom_site_fract_x
_atom_site_fract_y
_atom_site_fract_z
Si Si1 0.161241 0.648253 0.328675
Si Si2 0.108083 0.869870 0.353602
Si Si3 0.110311 0.267168 0.653501
Si Si4 0.335007 0.450955 0.336232
Si Si5 0.214581 0.204320 0.782797
Si Si6 0.682509 0.949016 0.668380
Si Si7 0.000000 0.196109 0.750000
O O1 0.165114 0.645459 0.500000
O O2 0.114313 0.691590 0.275420
O O3 0.228131 0.666624 0.261254
O O4 0.149979 0.595895 0.253573
O O5 0.111431 0.898680 0.500000
O O6 0.126027 0.905207 0.226134
O O7 0.161078 0.827315 0.356489
O O8 0.042743 0.840841 0.340644
O O9 0.109159 0.291002 0.500000
O O10 0.173493 0.232841 0.664869
O O11 0.050229 0.231515 0.672724
O O12 0.351047 0.500000 0.250000
O O13 0.347788 0.457345 0.500000
O O14 0.259166 0.442666 0.319253
O O15 0.250000 0.250000 0.856218
O O16 0.668142 0.950200 0.500000
O O17 0.667439 0.000000 0.750000
#
# Coordination Sequence:
#
# PCOD9496875 Si02
#       7
#    16  16  16  16  16  16   8
#     4  11  21  34  54  83 116 148 185 227 279 338
#     4  11  21  36  58  79 107 147 188 233 283 334
#     4  10  22  38  56  78 109 147 190 236 281 334
#     4  10  21  36  56  82 111 144 184 230 281 335
#     4   9  20  32  50  78 109 143 180 225 276 333
#     4  10  20  34  54  82 117 152 185 224 276 336
#     4  10  24  40  57  82 109 148 192 242 282 332
#
# _framework density 19.135452000000001
#
# number of rings (size 3 to 8) (size 9 to 14) (size 15 to 20)
#    0.000    1.846    1.538    2.308    0.000   16.923 
#    0.000    0.385    0.000    1.846    0.000    0.538 
#    0.000    3.692    0.000    0.000    0.000    0.000 
#
# Total GULP energy -289517.037019 kJ/mol
# GULP energy per Si atom -5567.635327 kJ/mol
# Density = 1.909190 g / cm^3
# Si number density = 19.135452 Si / 1000 Ang^3
#
#
#
# Elastic Constant Matrix: (Units=GPa)
#
#
# Indices 1 2 3 4 5 6 
#
# 1 44.0370 12.3263 22.5176 0.0000 0.0000 0.0000
# 2 12.3263 119.0609 66.2758 0.0000 0.0000 0.0000
# 3 22.5176 66.2758 128.2705 0.0000 0.0000 0.0000
# 4 0.0000 0.0000 0.0000 21.2147 0.0000 0.0000
# 5 0.0000 0.0000 0.0000 0.0000 -17.4632 0.0000
# 6 0.0000 0.0000 0.0000 0.0000 0.0000 24.9563
#
#
#
# Elastic Compliance Matrix: (Units=1/GPa)
#
#
# Indices 1 2 3 4 5 6 
#
# 1 0.024951 -0.000203 -0.004275 0.000000 0.000000 0.000000
# 2 -0.000203 0.011792 -0.006057 0.000000 0.000000 0.000000
# 3 -0.004275 -0.006057 0.011676 0.000000 0.000000 0.000000
# 4 0.000000 0.000000 0.000000 0.047137 0.000000 0.000000
# 5 0.000000 0.000000 0.000000 0.000000 -0.057263 0.000000
# 6 0.000000 0.000000 0.000000 0.000000 0.000000 0.040070
#
#
# Mechanical properties :
#
#
# Convention : Reuss Voigt Hill
#
# Bulk Modulus (GPa) = 36.56563 54.84529 45.70546
# Shear Modulus (GPa) = 46.06191 18.42481 32.24336
#
# Velocity S-wave (km/s) = 4.91159 3.10637 4.10934
# Velocity P-wave (km/s) = 7.16347 6.44902 6.81561
#
# Compressibility (1/GPa) = 0.02734809
#
# Stress axis : x y z
#
# Youngs Moduli (GPa) = 40.07844 84.80512 85.64565
#
# Poissons Ratio (x) = 0.01726 0.36613
# Poissons Ratio (y) = 0.00816 0.51875
# Poissons Ratio (z) = 0.17133 0.51366
#
# Static dielectric constant tensor:
#      x y z
#    x 1.666780 0.000000 0.000000 
#    y 0.000000 1.680120 0.000000 
#    z 0.000000 0.000000 1.590450 
# 
# From -- ./inp_files/8124.got.cif
#   From: 2010.05.17/outbox.cif.g08.bks.cpg/sg66_5_cif.got.tgz:8124.got - 2010.06.03 17:51:23.
