data_PCOD9496636
_publ_section_title
;
Structure prediction by ZEFSAII (Michael W. Deem and Ramdas Pophale) SiO2 
 PCOD9496636
Probable space group: C C C M
;
_chemical_formula_sum "Si O2"
_cell_formula_units_Z 104
_cell_length_a 7.183788
_cell_length_b 29.759820
_cell_length_c 19.918526
_cell_angle_alpha 90.000000
_cell_angle_beta 90.000000
_cell_angle_gamma 90.000000
_cell_volume 4258.346573
_symmetry_space_group_name_H-M "C C C M"
_symmetry_group_IT_number 66
_symmetry_cell_setting 'orthorhombic'
loop_
_space_group_symop_operation_xyz
x,y,z
-x,-y,z
x,-y,1/2-z
-x,y,1/2-z
-x,-y,-z
x,y,-z
-x,y,1/2+z
x,-y,1/2+z
1/2+x,1/2+y,z
1/2-x,1/2-y,z
1/2+x,1/2-y,1/2-z
1/2-x,1/2+y,1/2-z
1/2-x,1/2-y,-z
1/2+x,1/2+y,-z
1/2-x,1/2+y,1/2+z
1/2+x,1/2-y,1/2+z
loop_
_atom_site_type_symbol
_atom_site_label
_atom_site_fract_x
_atom_site_fract_y
_atom_site_fract_z
Si Si1 0.319821 0.198852 0.000000
Si Si2 0.804858 0.171308 0.855049
Si Si3 0.726444 0.004372 0.576424
Si Si4 0.856902 0.322502 0.650639
Si Si5 0.243887 0.071144 0.319566
Si Si6 0.803662 0.421435 0.324920
Si Si7 0.250000 0.250000 0.260634
Si Si8 0.742043 0.696357 0.500000
O O1 0.250000 0.250000 0.000000
O O2 0.272327 0.184403 0.076524
O O3 0.539155 0.185231 0.000000
O O4 0.579391 0.173638 0.854580
O O5 0.843780 0.120346 0.832360
O O6 0.860290 0.215008 0.810511
O O7 0.853806 0.179107 0.932680
O O8 0.787483 0.000247 0.500000
O O9 0.764306 0.052498 0.609890
O O10 0.500000 0.000000 0.576395
O O11 0.804656 0.965613 0.624834
O O12 0.771031 0.368622 0.677010
O O13 0.832379 0.285164 0.707155
O O14 0.470640 0.074894 0.324343
O O15 0.218729 0.057475 0.242263
O O16 0.750000 0.750000 0.500000
#
# Coordination Sequence:
#
# PCOD9496636 Si02
#       8
#     8  16  16  16  16  16   8   8
#     4  10  20  34  48  67  95 131 167 204 250 295
#     4  10  20  31  46  66  91 124 161 199 242 291
#     4   9  17  25  37  57  81 113 154 191 228 275
#     4  10  20  31  46  66  91 124 161 199 242 291
#     4   9  16  27  40  57  82 115 152 189 231 282
#     4   9  16  27  40  57  82 115 152 189 231 282
#     4  12  18  30  48  64  90 114 164 200 242 280
#     4  10  20  34  48  67  95 131 167 204 250 295
#
# _framework density 24.422623999999999
#
# number of rings (size 3 to 8) (size 9 to 14) (size 15 to 20)
#    0.000    2.308    3.077    0.923    2.154    1.846 
#    0.000    0.000    0.000    0.000    0.000    0.000 
#    0.000    0.000    0.000   19.385    0.000    7.077 
#
# Total GULP energy -290386.788454 kJ/mol
# GULP energy per Si atom -5584.361316 kJ/mol
# Density = 2.436704 g / cm^3
# Si number density = 24.422624 Si / 1000 Ang^3
#
#
#
# Elastic Constant Matrix: (Units=GPa)
#
#
# Indices 1 2 3 4 5 6 
#
# 1 99.9421 -2.0939 3.5485 0.0000 0.0000 0.0000
# 2 -2.0939 150.2300 75.6125 0.0000 0.0000 0.0000
# 3 3.5485 75.6125 215.5163 0.0000 0.0000 0.0000
# 4 0.0000 0.0000 0.0000 44.3477 0.0000 0.0000
# 5 0.0000 0.0000 0.0000 0.0000 -0.7688 0.0000
# 6 0.0000 0.0000 0.0000 0.0000 0.0000 9.7283
#
#
#
# Elastic Compliance Matrix: (Units=1/GPa)
#
#
# Indices 1 2 3 4 5 6 
#
# 1 0.010021 0.000270 -0.000260 0.000000 0.000000 0.000000
# 2 0.000270 0.008091 -0.002843 0.000000 0.000000 0.000000
# 3 -0.000260 -0.002843 0.005642 0.000000 0.000000 0.000000
# 4 0.000000 0.000000 0.000000 0.022549 0.000000 0.000000
# 5 0.000000 0.000000 0.000000 0.000000 -1.300654 0.000000
# 6 0.000000 0.000000 0.000000 0.000000 0.000000 0.102793
#
#
# Mechanical properties :
#
#
# Convention : Reuss Voigt Hill
#
# Bulk Modulus (GPa) = 55.28374 68.86918 62.07646
# Shear Modulus (GPa) = -4.38649 36.56952 16.09151
#
# Velocity S-wave (km/s) = -1.34163 3.87377 2.56965
# Velocity P-wave (km/s) = 4.50394 6.94754 5.85465
#
# Compressibility (1/GPa) = 0.01808850
#
# Stress axis : x y z
#
# Youngs Moduli (GPa) = 99.79354 123.59027 177.24764
#
# Poissons Ratio (x) = -0.03343 0.04606
# Poissons Ratio (y) = -0.02699 0.50395
# Poissons Ratio (z) = 0.02593 0.35139
#
# Static dielectric constant tensor:
#      x y z
#    x 2.087930 0.000000 0.000000 
#    y 0.000000 1.884000 0.000000 
#    z 0.000000 0.000000 1.922460 
# 
# From -- ./inp_files/39198.got.cif
#   From: 2010.05.17/outbox.cif.g08.bks.cpg/sg66_20_cif.got.tgz:39198.got - 2010.06.03 17:51:23.
