data_PCOD9496936
_publ_section_title
;
Structure prediction by ZEFSAII (Michael W. Deem and Ramdas Pophale) SiO2 
 PCOD9496936
Probable space group: C C C M
;
_chemical_formula_sum "Si O2"
_cell_formula_units_Z 80
_cell_length_a 9.913671
_cell_length_b 11.405399
_cell_length_c 33.636319
_cell_angle_alpha 90.000000
_cell_angle_beta 90.000000
_cell_angle_gamma 90.000000
_cell_volume 3803.237510
_symmetry_space_group_name_H-M "C C C M"
_symmetry_group_IT_number 66
_symmetry_cell_setting 'orthorhombic'
loop_
_space_group_symop_operation_xyz
x,y,z
-x,-y,z
x,-y,1/2-z
-x,y,1/2-z
-x,-y,-z
x,y,-z
-x,y,1/2+z
x,-y,1/2+z
1/2+x,1/2+y,z
1/2-x,1/2-y,z
1/2+x,1/2-y,1/2-z
1/2-x,1/2+y,1/2-z
1/2-x,1/2-y,-z
1/2+x,1/2+y,-z
1/2-x,1/2+y,1/2+z
1/2+x,1/2-y,1/2+z
loop_
_atom_site_type_symbol
_atom_site_label
_atom_site_fract_x
_atom_site_fract_y
_atom_site_fract_z
Si Si1 0.755781 0.990894 0.500000
Si Si2 0.457385 0.720704 0.913788
Si Si3 0.188931 0.436254 0.586920
Si Si4 0.180678 0.125367 0.859644
Si Si5 0.019345 0.181450 0.000000
Si Si6 0.346602 0.630954 0.266293
O O1 0.674671 0.979703 0.541273
O O2 0.880320 0.896047 0.500000
O O3 0.843376 0.108348 0.500000
O O4 0.320809 0.646495 0.916437
O O5 0.427474 0.850050 0.897999
O O6 0.551225 0.640163 0.887361
O O7 0.513584 0.743419 0.957875
O O8 0.224230 0.531566 0.619460
O O9 0.250000 0.250000 0.862501
O O10 0.146861 0.108709 0.813664
O O11 0.302263 0.500000 0.250000
O O12 0.500000 0.652978 0.250000
O O13 0.250000 0.750000 0.259450
#
# Coordination Sequence:
#
# PCOD9496936 Si02
#       6
#     8  16  16  16   8  16
#     4   9  15  29  53  81 119 160 205 262 307 346
#     4  10  20  34  58  88 119 160 209 256 305 363
#     4  10  20  34  58  88 119 160 209 256 305 363
#     4  11  24  41  59  87 126 158 194 253 316 376
#     4   9  15  29  53  81 119 160 205 262 307 346
#     4  10  25  47  73 102 135 173 217 273 340 415
#
# _framework density 21.034711000000001
#
# number of rings (size 3 to 8) (size 9 to 14) (size 15 to 20)
#    0.000    2.000    2.000    1.200    5.600    5.200 
#    0.000    6.000    0.000    2.400    0.000    0.000 
#    0.000    0.000    0.000    0.000    0.000    0.000 
#
# Total GULP energy -222947.546088 kJ/mol
# GULP energy per Si atom -5573.688652 kJ/mol
# Density = 2.098683 g / cm^3
# Si number density = 21.034711 Si / 1000 Ang^3
#
#
#
# Elastic Constant Matrix: (Units=GPa)
#
#
# Indices 1 2 3 4 5 6 
#
# 1 59.8490 40.0498 27.1481 0.0000 0.0000 0.0000
# 2 40.0498 138.7938 74.3345 0.0000 0.0000 0.0000
# 3 27.1481 74.3345 115.3499 0.0000 0.0000 0.0000
# 4 0.0000 0.0000 0.0000 34.7295 0.0000 0.0000
# 5 0.0000 0.0000 0.0000 0.0000 -22.6886 0.0000
# 6 0.0000 0.0000 0.0000 0.0000 0.0000 27.5742
#
#
#
# Elastic Compliance Matrix: (Units=1/GPa)
#
#
# Indices 1 2 3 4 5 6 
#
# 1 0.020893 -0.005185 -0.001576 0.000000 0.000000 0.000000
# 2 -0.005185 0.012289 -0.006699 0.000000 0.000000 0.000000
# 3 -0.001576 -0.006699 0.013357 0.000000 0.000000 0.000000
# 4 0.000000 0.000000 0.000000 0.028794 0.000000 0.000000
# 5 0.000000 0.000000 0.000000 0.000000 -0.044075 0.000000
# 6 0.000000 0.000000 0.000000 0.000000 0.000000 0.036266
#
#
# Mechanical properties :
#
#
# Convention : Reuss Voigt Hill
#
# Bulk Modulus (GPa) = 50.96959 66.33972 58.65466
# Shear Modulus (GPa) = 49.51304 19.42038 34.46671
#
# Velocity S-wave (km/s) = 4.85694 3.04181 4.05231
# Velocity P-wave (km/s) = 7.46571 6.62899 7.05976
#
# Compressibility (1/GPa) = 0.01961954
#
# Stress axis : x y z
#
# Youngs Moduli (GPa) = 47.86254 81.37467 74.86574
#
# Poissons Ratio (x) = 0.42190 0.11800
# Poissons Ratio (y) = 0.24815 0.50153
# Poissons Ratio (z) = 0.07544 0.54513
#
# Static dielectric constant tensor:
#      x y z
#    x 1.225650 0.000000 0.000000 
#    y 0.000000 1.803320 0.000000 
#    z 0.000000 0.000000 1.778160 
# 
# From -- ./inp_files/68807.got.cif
#   From: 2010.05.17/outbox.cif.g08.bks.cpg/sg66_35_cif.got.tgz:68807.got - 2010.06.03 17:51:23.
