data_PCOD9496865
_publ_section_title
;
Structure prediction by ZEFSAII (Michael W. Deem and Ramdas Pophale) SiO2 
 PCOD9496865
Probable space group: C C C M
;
_chemical_formula_sum "Si O2"
_cell_formula_units_Z 96
_cell_length_a 24.592506
_cell_length_b 11.344839
_cell_length_c 19.762217
_cell_angle_alpha 90.000000
_cell_angle_beta 90.000000
_cell_angle_gamma 90.000000
_cell_volume 5513.619437
_symmetry_space_group_name_H-M "C C C M"
_symmetry_group_IT_number 66
_symmetry_cell_setting 'orthorhombic'
loop_
_space_group_symop_operation_xyz
x,y,z
-x,-y,z
x,-y,1/2-z
-x,y,1/2-z
-x,-y,-z
x,y,-z
-x,y,1/2+z
x,-y,1/2+z
1/2+x,1/2+y,z
1/2-x,1/2-y,z
1/2+x,1/2-y,1/2-z
1/2-x,1/2+y,1/2-z
1/2-x,1/2-y,-z
1/2+x,1/2+y,-z
1/2-x,1/2+y,1/2+z
1/2+x,1/2-y,1/2+z
loop_
_atom_site_type_symbol
_atom_site_label
_atom_site_fract_x
_atom_site_fract_y
_atom_site_fract_z
Si Si1 0.307339 0.998028 0.174908
Si Si2 0.500000 0.500000 0.358430
Si Si3 0.211514 0.964496 0.578197
Si Si4 0.601712 0.613494 0.424217
Si Si5 0.000000 0.791886 0.250000
Si Si6 0.188583 0.237509 0.185976
Si Si7 0.611774 0.783838 0.699982
O O1 0.262526 0.976573 0.117349
O O2 0.328342 0.131088 0.162424
O O3 0.280363 0.000000 0.250000
O O4 0.355222 0.903277 0.184021
O O5 0.553428 0.525931 0.402134
O O6 0.509214 0.384200 0.311809
O O7 0.224904 0.934332 0.500000
O O8 0.194332 0.852250 0.624044
O O9 0.159520 0.048583 0.577601
O O10 0.591461 0.656393 0.500000
O O11 0.604073 0.716202 0.369760
O O12 0.947391 0.712877 0.265673
O O13 0.250000 0.250000 0.213398
O O14 0.148635 0.207963 0.247378
#
# Coordination Sequence:
#
# PCOD9496865 Si02
#       7
#    16   8  16  16   8  16  16
#     4   9  20  35  51  74 105 140 181 215 273 326
#     4   9  17  34  52  74 107 137 186 236 273 325
#     4  10  21  34  52  80 108 141 186 229 271 328
#     4  10  21  32  50  78 109 143 176 222 283 333
#     4   9  18  32  53  82  98 138 185 231 282 322
#     4   9  19  34  54  75  99 141 183 222 268 316
#     4  10  20  34  54  77 111 141 179 228 276 337
#
# _framework density 17.411429999999999
#
# number of rings (size 3 to 8) (size 9 to 14) (size 15 to 20)
#    0.000    2.500    0.000    1.250    7.000    5.000 
#    0.000    5.417    0.000    0.000    0.000    0.000 
#    0.000   44.000    0.000    0.000    0.000    0.000 
#
# Total GULP energy -267330.970636 kJ/mol
# GULP energy per Si atom -5569.395222 kJ/mol
# Density = 1.737180 g / cm^3
# Si number density = 17.411430 Si / 1000 Ang^3
#
#
#
# Elastic Constant Matrix: (Units=GPa)
#
#
# Indices 1 2 3 4 5 6 
#
# 1 114.1478 40.5415 66.0048 0.0000 0.0000 0.0000
# 2 40.5415 61.3288 25.1202 0.0000 0.0000 0.0000
# 3 66.0048 25.1202 126.4168 0.0000 0.0000 0.0000
# 4 0.0000 0.0000 0.0000 17.2229 0.0000 0.0000
# 5 0.0000 0.0000 0.0000 0.0000 15.8661 0.0000
# 6 0.0000 0.0000 0.0000 0.0000 0.0000 28.4446
#
#
#
# Elastic Compliance Matrix: (Units=1/GPa)
#
#
# Indices 1 2 3 4 5 6 
#
# 1 0.015075 -0.007339 -0.006413 0.000000 0.000000 0.000000
# 2 -0.007339 0.021323 -0.000405 0.000000 0.000000 0.000000
# 3 -0.006413 -0.000405 0.011339 0.000000 0.000000 0.000000
# 4 0.000000 0.000000 0.000000 0.058062 0.000000 0.000000
# 5 0.000000 0.000000 0.000000 0.000000 0.063028 0.000000
# 6 0.000000 0.000000 0.000000 0.000000 0.000000 0.035156
#
#
# Mechanical properties :
#
#
# Convention : Reuss Voigt Hill
#
# Bulk Modulus (GPa) = 51.48426 62.80293 57.14359
# Shear Modulus (GPa) = 20.94053 23.65517 22.29785
#
# Velocity S-wave (km/s) = 3.47174 3.68992 3.58249
# Velocity P-wave (km/s) = 6.76048 7.36901 7.07129
#
# Compressibility (1/GPa) = 0.01942341
#
# Stress axis : x y z
#
# Youngs Moduli (GPa) = 66.33418 46.89791 88.19019
#
# Poissons Ratio (x) = 0.34417 0.56554
# Poissons Ratio (y) = 0.48681 0.03575
# Poissons Ratio (z) = 0.42539 0.01901
#
# Static dielectric constant tensor:
#      x y z
#    x 1.599110 0.000000 0.000000 
#    y 0.000000 1.619130 0.000000 
#    z 0.000000 0.000000 1.608560 
# 
# From -- ./inp_files/43616.got.cif
#   From: 2010.05.17/outbox.cif.g08.bks.cpg/sg66_22_cif.got.tgz:43616.got - 2010.06.03 17:51:23.
