data_PCOD9496092
_publ_section_title
;
Structure prediction by ZEFSAII (Michael W. Deem and Ramdas Pophale) SiO2 
 PCOD9496092
Probable space group: C C C M
;
_chemical_formula_sum "Si O2"
_cell_formula_units_Z 80
_cell_length_a 27.070387
_cell_length_b 19.546364
_cell_length_c 8.523671
_cell_angle_alpha 90.000000
_cell_angle_beta 90.000000
_cell_angle_gamma 90.000000
_cell_volume 4510.109903
_symmetry_space_group_name_H-M "C C C M"
_symmetry_group_IT_number 66
_symmetry_cell_setting 'orthorhombic'
loop_
_space_group_symop_operation_xyz
x,y,z
-x,-y,z
x,-y,1/2-z
-x,y,1/2-z
-x,-y,-z
x,y,-z
-x,y,1/2+z
x,-y,1/2+z
1/2+x,1/2+y,z
1/2-x,1/2-y,z
1/2+x,1/2-y,1/2-z
1/2-x,1/2+y,1/2-z
1/2-x,1/2-y,-z
1/2+x,1/2+y,-z
1/2-x,1/2+y,1/2+z
1/2+x,1/2-y,1/2+z
loop_
_atom_site_type_symbol
_atom_site_label
_atom_site_fract_x
_atom_site_fract_y
_atom_site_fract_z
Si Si1 0.249116 0.077741 0.688996
Si Si2 0.053457 0.172178 0.813137
Si Si3 0.143013 0.577647 0.189848
Si Si4 0.446470 0.826024 0.188621
Si Si5 0.359082 0.422088 0.311046
O O1 0.249032 0.077451 0.500000
O O2 0.302673 0.105910 0.738991
O O3 0.195523 0.106015 0.737334
O O4 0.249243 0.000000 0.750000
O O5 0.061259 0.248889 0.748654
O O6 0.097085 0.123390 0.755944
O O7 0.000000 0.148667 0.750000
O O8 0.051722 0.174269 0.000000
O O9 0.138038 0.500000 0.250000
O O10 0.097842 0.624904 0.242211
O O11 0.142169 0.575790 0.000000
O O12 0.500000 0.849288 0.250000
O O13 0.447485 0.824895 0.000000
O O14 0.362985 0.500000 0.250000
O O15 0.361682 0.422577 0.500000
#
# Coordination Sequence:
#
# PCOD9496092 Si02
#       5
#    16  16  16  16  16
#     4   8  15  29  49  73 101 132 164 200 245 294
#     4  11  22  37  55  74  99 132 169 207 252 301
#     4   9  18  32  52  77 103 133 169 208 249 295
#     4  10  20  35  53  73 100 134 171 209 253 301
#     4  10  19  33  54  79 105 132 165 205 248 295
#
# _framework density 17.737928
#
# number of rings (size 3 to 8) (size 9 to 14) (size 15 to 20)
#    0.000    2.400    0.000    4.200    0.000    3.200 
#    0.000    5.000    0.000    6.000    0.000    0.000 
#    0.000    0.000    0.000    0.000    0.000    0.000 
#
# Total GULP energy -222916.055255 kJ/mol
# GULP energy per Si atom -5572.901381 kJ/mol
# Density = 1.769756 g / cm^3
# Si number density = 17.737928 Si / 1000 Ang^3
#
#
#
# Elastic Constant Matrix: (Units=GPa)
#
#
# Indices 1 2 3 4 5 6 
#
# 1 230.6679 89.1220 46.4251 0.0000 0.0000 0.0000
# 2 89.1220 52.7795 20.4481 0.0000 0.0000 0.0000
# 3 46.4251 20.4481 60.0651 0.0000 0.0000 0.0000
# 4 0.0000 0.0000 0.0000 22.7587 0.0000 0.0000
# 5 0.0000 0.0000 0.0000 0.0000 24.2387 0.0000
# 6 0.0000 0.0000 0.0000 0.0000 0.0000 94.6324
#
#
#
# Elastic Compliance Matrix: (Units=1/GPa)
#
#
# Indices 1 2 3 4 5 6 
#
# 1 0.012909 -0.020657 -0.002945 0.000000 0.000000 0.000000
# 2 -0.020657 0.054880 -0.002717 0.000000 0.000000 0.000000
# 3 -0.002945 -0.002717 0.019850 0.000000 0.000000 0.000000
# 4 0.000000 0.000000 0.000000 0.043939 0.000000 0.000000
# 5 0.000000 0.000000 0.000000 0.000000 0.041256 0.000000
# 6 0.000000 0.000000 0.000000 0.000000 0.000000 0.010567
#
#
# Mechanical properties :
#
#
# Convention : Reuss Voigt Hill
#
# Bulk Modulus (GPa) = 28.57077 72.83366 50.70221
# Shear Modulus (GPa) = 20.18508 40.82711 30.50610
#
# Velocity S-wave (km/s) = 3.37703 4.80279 4.15157
# Velocity P-wave (km/s) = 5.59892 8.47973 7.18518
#
# Compressibility (1/GPa) = 0.03500081
#
# Stress axis : x y z
#
# Youngs Moduli (GPa) = 77.46437 18.22150 50.37767
#
# Poissons Ratio (x) = 0.37640 0.14838
# Poissons Ratio (y) = 1.60018 0.13688
# Poissons Ratio (z) = 0.22816 0.04951
#
# Static dielectric constant tensor:
#      x y z
#    x 1.656210 0.000000 0.000000 
#    y 0.000000 1.556390 0.000000 
#    z 0.000000 0.000000 1.614160 
# 
# From -- ./inp_files/6658.got.cif
#   From: 2010.05.17/outbox.cif.g08.bks.cpg/sg66_4_cif.got.tgz:6658.got - 2010.06.03 17:51:23.
