data_PCOD9496921
_publ_section_title
;
Structure prediction by ZEFSAII (Michael W. Deem and Ramdas Pophale) SiO2 
 PCOD9496921
Probable space group: C C C M
;
_chemical_formula_sum "Si O2"
_cell_formula_units_Z 48
_cell_length_a 22.074440
_cell_length_b 9.199958
_cell_length_c 9.230635
_cell_angle_alpha 90.000000
_cell_angle_beta 90.000000
_cell_angle_gamma 90.000000
_cell_volume 1874.593548
_symmetry_space_group_name_H-M "C C C M"
_symmetry_group_IT_number 66
_symmetry_cell_setting 'orthorhombic'
loop_
_space_group_symop_operation_xyz
x,y,z
-x,-y,z
x,-y,1/2-z
-x,y,1/2-z
-x,-y,-z
x,y,-z
-x,y,1/2+z
x,-y,1/2+z
1/2+x,1/2+y,z
1/2-x,1/2-y,z
1/2+x,1/2-y,1/2-z
1/2-x,1/2+y,1/2-z
1/2-x,1/2-y,-z
1/2+x,1/2+y,-z
1/2-x,1/2+y,1/2+z
1/2+x,1/2-y,1/2+z
loop_
_atom_site_type_symbol
_atom_site_label
_atom_site_fract_x
_atom_site_fract_y
_atom_site_fract_z
Si Si1 0.710289 0.550914 0.500000
Si Si2 0.500000 0.500000 0.250000
Si Si3 0.033909 0.677236 0.500000
Si Si4 0.000000 0.500000 0.750000
Si Si5 0.160970 0.277131 0.000000
Si Si6 0.705106 0.000000 0.250000
Si Si7 0.575202 0.346550 0.000000
O O1 0.698222 0.373983 0.500000
O O2 0.750396 0.582995 0.360236
O O3 0.646184 0.633392 0.500000
O O4 0.543717 0.587002 0.357014
O O5 0.041649 0.595525 0.648756
O O6 0.090875 0.784275 0.500000
O O7 0.960554 0.695154 0.500000
O O8 0.172843 0.381667 0.858708
#
# Coordination Sequence:
#
# PCOD9496921 Si02
#       7
#     8   4   8   4   8   8   8
#     4  11  24  43  67 102 138 173 233 293 342 409
#     4  10  20  34  56  98 132 166 212 254 352 414
#     4  11  23  42  67  97 135 182 232 284 346 409
#     4  10  24  42  60  98 140 182 232 268 336 420
#     4  11  23  45  69  96 142 180 233 294 334 412
#     4  10  22  42  68  98 134 190 230 270 342 398
#     4  11  22  39  67  99 136 176 218 285 354 403
#
# _framework density 25.605550000000001
#
# number of rings (size 3 to 8) (size 9 to 14) (size 15 to 20)
#    0.000    1.333    0.000    7.000    0.000    2.667 
#    0.000   20.000    0.000   12.000    0.000    0.000 
#    0.000    0.000    0.000    0.000    0.000    0.000 
#
# Total GULP energy -133873.029034 kJ/mol
# GULP energy per Si atom -5578.042876 kJ/mol
# Density = 2.554727 g / cm^3
# Si number density = 25.605550 Si / 1000 Ang^3
#
#
#
# Elastic Constant Matrix: (Units=GPa)
#
#
# Indices 1 2 3 4 5 6 
#
# 1 170.5101 30.0022 42.2192 0.0000 0.0000 0.0000
# 2 30.0022 92.0490 29.8905 0.0000 0.0000 0.0000
# 3 42.2192 29.8905 185.9134 0.0000 0.0000 0.0000
# 4 0.0000 0.0000 0.0000 14.5808 0.0000 0.0000
# 5 0.0000 0.0000 0.0000 0.0000 17.7159 0.0000
# 6 0.0000 0.0000 0.0000 0.0000 0.0000 37.5361
#
#
#
# Elastic Compliance Matrix: (Units=1/GPa)
#
#
# Indices 1 2 3 4 5 6 
#
# 1 0.006462 -0.001720 -0.001191 0.000000 0.000000 0.000000
# 2 -0.001720 0.011920 -0.001526 0.000000 0.000000 0.000000
# 3 -0.001191 -0.001526 0.005895 0.000000 0.000000 0.000000
# 4 0.000000 0.000000 0.000000 0.068584 0.000000 0.000000
# 5 0.000000 0.000000 0.000000 0.000000 0.056446 0.000000
# 6 0.000000 0.000000 0.000000 0.000000 0.000000 0.026641
#
#
# Mechanical properties :
#
#
# Convention : Reuss Voigt Hill
#
# Bulk Modulus (GPa) = 64.91977 72.52180 68.72078
# Shear Modulus (GPa) = 26.32201 37.05728 31.68964
#
# Velocity S-wave (km/s) = 3.20969 3.80838 3.52178
# Velocity P-wave (km/s) = 6.25660 6.90815 6.59043
#
# Compressibility (1/GPa) = 0.01540363
#
# Stress axis : x y z
#
# Youngs Moduli (GPa) = 154.74553 83.89450 169.64516
#
# Poissons Ratio (x) = 0.14426 0.20206
# Poissons Ratio (y) = 0.26609 0.25887
# Poissons Ratio (z) = 0.18431 0.12802
#
# Static dielectric constant tensor:
#      x y z
#    x 1.985190 0.000000 0.000000 
#    y 0.000000 2.198550 0.000000 
#    z 0.000000 0.000000 2.239300 
# 
# From -- ./inp_files/8607.got.cif
#   From: 2010.05.17/outbox.cif.g08.bks.cpg/sg66_5_cif.got.tgz:8607.got - 2010.06.03 17:51:23.
