data_PCOD9496579
_publ_section_title
;
Structure prediction by ZEFSAII (Michael W. Deem and Ramdas Pophale) SiO2 
 PCOD9496579
Probable space group: C C C M
;
_chemical_formula_sum "Si O2"
_cell_formula_units_Z 84
_cell_length_a 10.208584
_cell_length_b 21.296275
_cell_length_c 20.391865
_cell_angle_alpha 90.000000
_cell_angle_beta 90.000000
_cell_angle_gamma 90.000000
_cell_volume 4433.289581
_symmetry_space_group_name_H-M "C C C M"
_symmetry_group_IT_number 66
_symmetry_cell_setting 'orthorhombic'
loop_
_space_group_symop_operation_xyz
x,y,z
-x,-y,z
x,-y,1/2-z
-x,y,1/2-z
-x,-y,-z
x,y,-z
-x,y,1/2+z
x,-y,1/2+z
1/2+x,1/2+y,z
1/2-x,1/2-y,z
1/2+x,1/2-y,1/2-z
1/2-x,1/2+y,1/2-z
1/2-x,1/2-y,-z
1/2+x,1/2+y,-z
1/2-x,1/2+y,1/2+z
1/2+x,1/2-y,1/2+z
loop_
_atom_site_type_symbol
_atom_site_label
_atom_site_fract_x
_atom_site_fract_y
_atom_site_fract_z
Si Si1 0.254764 0.593793 0.078561
Si Si2 0.229451 0.048783 0.077470
Si Si3 0.597747 0.755818 0.190866
Si Si4 0.479718 0.891864 0.640386
Si Si5 0.471547 0.657152 0.579353
Si Si6 0.000000 0.500000 0.250000
O O1 0.276965 0.522267 0.104365
O O2 0.378774 0.637508 0.092700
O O3 0.118583 0.618902 0.105868
O O4 0.244479 0.589963 0.000000
O O5 0.368525 0.080525 0.092396
O O6 0.117174 0.097006 0.099052
O O7 0.211289 0.042919 0.000000
O O8 0.500000 0.737254 0.250000
O O9 0.750000 0.750000 0.210296
O O10 0.570010 0.827725 0.172094
O O11 0.571421 0.714051 0.125831
O O12 0.499465 0.945290 0.693767
O O13 0.456064 0.668404 0.500000
#
# Coordination Sequence:
#
# PCOD9496579 Si02
#       6
#    16  16  16  16  16   4
#     4  10  21  38  65  99 130 164 210 267 323 374
#     4  10  19  38  66  95 127 164 210 265 321 376
#     4  12  28  46  67  92 128 174 216 263 324 391
#     4  12  23  40  65  93 123 166 215 263 319 378
#     4  10  23  42  66  97 133 170 213 266 321 381
#     4  12  24  40  62  90 128 160 210 268 316 368
#
# _framework density 18.947555000000001
#
# number of rings (size 3 to 8) (size 9 to 14) (size 15 to 20)
#    0.000    1.143    4.762    1.143    2.667    5.714 
#    0.000    1.905    0.000    2.286    0.000    0.000 
#    0.000    0.000    0.000    0.000    0.000    0.000 
#
# Total GULP energy -233937.068052 kJ/mol
# GULP energy per Si atom -5569.930192 kJ/mol
# Density = 1.890443 g / cm^3
# Si number density = 18.947555 Si / 1000 Ang^3
#
#
#
# Elastic Constant Matrix: (Units=GPa)
#
#
# Indices 1 2 3 4 5 6 
#
# 1 134.6497 41.2760 25.4444 0.0000 0.0000 0.0000
# 2 41.2760 93.9366 27.0672 0.0000 0.0000 0.0000
# 3 25.4444 27.0672 35.6275 0.0000 0.0000 0.0000
# 4 0.0000 0.0000 0.0000 -219.1267 0.0000 0.0000
# 5 0.0000 0.0000 0.0000 0.0000 46.0512 0.0000
# 6 0.0000 0.0000 0.0000 0.0000 0.0000 -10.2263
#
#
#
# Elastic Compliance Matrix: (Units=1/GPa)
#
#
# Indices 1 2 3 4 5 6 
#
# 1 0.009098 -0.002721 -0.004430 0.000000 0.000000 0.000000
# 2 -0.002721 0.014443 -0.009029 0.000000 0.000000 0.000000
# 3 -0.004430 -0.009029 0.038092 0.000000 0.000000 0.000000
# 4 0.000000 0.000000 0.000000 -0.004564 0.000000 0.000000
# 5 0.000000 0.000000 0.000000 0.000000 0.021715 0.000000
# 6 0.000000 0.000000 0.000000 0.000000 0.000000 -0.097787
#
#
# Mechanical properties :
#
#
# Convention : Reuss Voigt Hill
#
# Bulk Modulus (GPa) = 34.16291 50.19876 42.18083
# Shear Modulus (GPa) = 216.30353 -25.29860 95.50246
#
# Velocity S-wave (km/s) = 10.69612 -3.65799 7.10725
# Velocity P-wave (km/s) = 13.06185 2.95125 9.46894
#
# Compressibility (1/GPa) = 0.02927151
#
# Stress axis : x y z
#
# Youngs Moduli (GPa) = 109.91426 69.23828 26.25224
#
# Poissons Ratio (x) = 0.18841 0.11630
# Poissons Ratio (y) = 0.29909 0.23704
# Poissons Ratio (z) = 0.48695 0.62517
#
# Static dielectric constant tensor:
#      x y z
#    x 1.658310 0.000000 0.000000 
#    y 0.000000 1.661020 0.000000 
#    z 0.000000 0.000000 1.654520 
# 
# From -- ./inp_files/55402.got.cif
#   From: 2010.05.17/outbox.cif.g08.bks.cpg/sg66_28_cif.got.tgz:55402.got - 2010.06.03 17:51:23.
