data_PCOD9496381
_publ_section_title
;
Structure prediction by ZEFSAII (Michael W. Deem and Ramdas Pophale) SiO2 
 PCOD9496381
Probable space group: C C C M
;
_chemical_formula_sum "Si O2"
_cell_formula_units_Z 96
_cell_length_a 29.278773
_cell_length_b 10.602365
_cell_length_c 16.619957
_cell_angle_alpha 90.000000
_cell_angle_beta 90.000000
_cell_angle_gamma 90.000000
_cell_volume 5159.237489
_symmetry_space_group_name_H-M "C C C M"
_symmetry_group_IT_number 66
_symmetry_cell_setting 'orthorhombic'
loop_
_space_group_symop_operation_xyz
x,y,z
-x,-y,z
x,-y,1/2-z
-x,y,1/2-z
-x,-y,-z
x,y,-z
-x,y,1/2+z
x,-y,1/2+z
1/2+x,1/2+y,z
1/2-x,1/2-y,z
1/2+x,1/2-y,1/2-z
1/2-x,1/2+y,1/2-z
1/2-x,1/2-y,-z
1/2+x,1/2+y,-z
1/2-x,1/2+y,1/2+z
1/2+x,1/2-y,1/2+z
loop_
_atom_site_type_symbol
_atom_site_label
_atom_site_fract_x
_atom_site_fract_y
_atom_site_fract_z
Si Si1 0.055013 0.255969 0.596857
Si Si2 0.395457 0.497151 0.598464
Si Si3 0.800553 0.103918 0.402182
Si Si4 0.395910 0.992529 0.344946
Si Si5 0.801535 0.600949 0.097186
Si Si6 0.549657 0.746933 0.097352
O O1 0.053084 0.247221 0.500000
O O2 0.082491 0.133333 0.626442
O O3 0.080525 0.384113 0.618656
O O4 0.002638 0.254998 0.625915
O O5 0.395194 0.495379 0.500000
O O6 0.343462 0.521764 0.625231
O O7 0.426041 0.617157 0.622690
O O8 0.800259 0.101068 0.500000
O O9 0.807788 0.251154 0.380772
O O10 0.749714 0.063959 0.376581
O O11 0.342915 0.979639 0.368812
O O12 0.421660 0.867611 0.375583
O O13 0.400127 0.000000 0.250000
O O14 0.803490 0.594472 0.000000
O O15 0.549442 0.747136 0.000000
#
# Coordination Sequence:
#
# PCOD9496381 Si02
#       6
#    16  16  16  16  16  16
#     4  10  21  35  55  83 111 135 172 227 279 318
#     4   9  16  31  57  87 110 130 169 226 277 319
#     4   8  14  27  57  89 104 127 173 224 266 312
#     4  12  24  36  52  75 111 149 182 218 267 318
#     4   9  16  31  57  83 104 135 183 228 262 312
#     4  10  19  35  59  81 103 141 184 220 262 321
#
# _framework density 18.607402
#
# number of rings (size 3 to 8) (size 9 to 14) (size 15 to 20)
#    0.000    2.333    1.667    3.500    0.000    4.667 
#    0.000    1.667    7.333    6.000    0.000    0.000 
#    0.000    0.000    0.000    0.000    0.000    0.000 
#
# Total GULP energy -267813.594884 kJ/mol
# GULP energy per Si atom -5579.449893 kJ/mol
# Density = 1.856505 g / cm^3
# Si number density = 18.607402 Si / 1000 Ang^3
#
#
#
# Elastic Constant Matrix: (Units=GPa)
#
#
# Indices 1 2 3 4 5 6 
#
# 1 159.8038 56.1386 5.3825 0.0000 0.0000 0.0000
# 2 56.1386 100.6196 0.3793 0.0000 0.0000 0.0000
# 3 5.3825 0.3793 6.8506 0.0000 0.0000 0.0000
# 4 0.0000 0.0000 0.0000 -41.4223 0.0000 0.0000
# 5 0.0000 0.0000 0.0000 0.0000 -6.4167 0.0000
# 6 0.0000 0.0000 0.0000 0.0000 0.0000 11.6491
#
#
#
# Elastic Compliance Matrix: (Units=1/GPa)
#
#
# Indices 1 2 3 4 5 6 
#
# 1 0.008027 -0.004456 -0.006060 0.000000 0.000000 0.000000
# 2 -0.004456 0.012414 0.002813 0.000000 0.000000 0.000000
# 3 -0.006060 0.002813 0.150578 0.000000 0.000000 0.000000
# 4 0.000000 0.000000 0.000000 -0.024142 0.000000 0.000000
# 5 0.000000 0.000000 0.000000 0.000000 -0.155844 0.000000
# 6 0.000000 0.000000 0.000000 0.000000 0.000000 0.085844
#
#
# Mechanical properties :
#
#
# Convention : Reuss Voigt Hill
#
# Bulk Modulus (GPa) = 6.42614 43.45277 24.93946
# Shear Modulus (GPa) = 34.68535 6.45360 20.56947
#
# Velocity S-wave (km/s) = 4.32216 1.86436 3.32843
# Velocity P-wave (km/s) = 5.32627 5.29505 5.31068
#
# Compressibility (1/GPa) = 0.15561430
#
# Stress axis : x y z
#
# Youngs Moduli (GPa) = 124.57866 80.55570 6.64107
#
# Poissons Ratio (x) = 0.35893 0.04025
# Poissons Ratio (y) = 0.55508 -0.01868
# Poissons Ratio (z) = 0.75496 -0.22664
#
# Static dielectric constant tensor:
#      x y z
#    x 1.657140 0.000000 0.000000 
#    y 0.000000 1.615780 0.000000 
#    z 0.000000 0.000000 1.627910 
# 
# From -- ./inp_files/52960.got.cif
#   From: 2010.05.17/outbox.cif.g08.bks.cpg/sg66_27_cif.got.tgz:52960.got - 2010.06.03 17:51:23.
