data_PCOD9496806
_publ_section_title
;
Structure prediction by ZEFSAII (Michael W. Deem and Ramdas Pophale) SiO2 
 PCOD9496806
Probable space group: C C C M
;
_chemical_formula_sum "Si O2"
_cell_formula_units_Z 120
_cell_length_a 21.395588
_cell_length_b 12.366500
_cell_length_c 26.626974
_cell_angle_alpha 90.000000
_cell_angle_beta 90.000000
_cell_angle_gamma 90.000000
_cell_volume 7045.192149
_symmetry_space_group_name_H-M "C C C M"
_symmetry_group_IT_number 66
_symmetry_cell_setting 'orthorhombic'
loop_
_space_group_symop_operation_xyz
x,y,z
-x,-y,z
x,-y,1/2-z
-x,y,1/2-z
-x,-y,-z
x,y,-z
-x,y,1/2+z
x,-y,1/2+z
1/2+x,1/2+y,z
1/2-x,1/2-y,z
1/2+x,1/2-y,1/2-z
1/2-x,1/2+y,1/2-z
1/2-x,1/2-y,-z
1/2+x,1/2+y,-z
1/2-x,1/2+y,1/2+z
1/2+x,1/2-y,1/2+z
loop_
_atom_site_type_symbol
_atom_site_label
_atom_site_fract_x
_atom_site_fract_y
_atom_site_fract_z
Si Si1 0.760057 0.015519 0.385641
Si Si2 0.033813 0.841947 0.302940
Si Si3 0.859438 0.333042 0.714649
Si Si4 0.085798 0.225018 0.358199
Si Si5 0.750000 0.250000 0.358070
Si Si6 0.811094 0.822100 0.558642
Si Si7 0.145739 0.570056 0.821823
Si Si8 0.133172 0.978585 0.193030
O O1 0.750794 0.142954 0.392680
O O2 0.810793 0.013650 0.341560
O O3 0.788610 0.944383 0.430091
O O4 0.700741 0.953854 0.361509
O O5 0.081180 0.745337 0.288400
O O6 0.073267 0.947096 0.318612
O O7 0.000000 0.867369 0.250000
O O8 0.985886 0.807213 0.346944
O O9 0.807342 0.275917 0.679961
O O10 0.834994 0.366313 0.770426
O O11 0.877121 0.450775 0.692618
O O12 0.126563 0.201554 0.408457
O O13 0.095338 0.350124 0.345703
O O14 0.120206 0.146222 0.318187
O O15 0.823010 0.803798 0.500000
O O16 0.750000 0.750000 0.573475
O O17 0.149686 0.000000 0.250000
#
# Coordination Sequence:
#
# PCOD9496806 Si02
#       8
#    16  16  16  16   8  16  16  16
#     4  10  21  34  56  80 114 141 188 236 288 331
#     4  12  21  35  50  78 115 161 195 221 265 336
#     4  10  21  33  50  75 119 158 191 222 266 328
#     4  11  22  34  55  78 114 143 187 233 271 337
#     4  10  20  34  51  78 110 148 185 226 272 340
#     4  10  21  40  63  86 106 134 185 250 305 339
#     4  10  20  34  48  81 112 151 192 228 274 322
#     4  11  21  31  49  78 110 156 187 223 260 326
#
# _framework density 17.032892
#
# number of rings (size 3 to 8) (size 9 to 14) (size 15 to 20)
#    0.000    1.467    5.333    0.400    3.733    1.600 
#    0.000    0.333    0.000    6.400    0.000    2.800 
#    0.000    0.000    0.000    0.000    0.000    0.000 
#
# Total GULP energy -334172.939109 kJ/mol
# GULP energy per Si atom -5569.548985 kJ/mol
# Density = 1.699412 g / cm^3
# Si number density = 17.032892 Si / 1000 Ang^3
#
#
#
# Elastic Constant Matrix: (Units=GPa)
#
#
# Indices 1 2 3 4 5 6 
#
# 1 53.5406 18.5661 9.6968 0.0000 0.0000 0.0000
# 2 18.5661 102.7574 12.5639 0.0000 0.0000 0.0000
# 3 9.6968 12.5639 44.5066 0.0000 0.0000 0.0000
# 4 0.0000 0.0000 0.0000 6.2893 0.0000 0.0000
# 5 0.0000 0.0000 0.0000 0.0000 11.1927 0.0000
# 6 0.0000 0.0000 0.0000 0.0000 0.0000 18.8544
#
#
#
# Elastic Compliance Matrix: (Units=1/GPa)
#
#
# Indices 1 2 3 4 5 6 
#
# 1 0.020449 -0.003263 -0.003534 0.000000 0.000000 0.000000
# 2 -0.003263 0.010600 -0.002282 0.000000 0.000000 0.000000
# 3 -0.003534 -0.002282 0.023883 0.000000 0.000000 0.000000
# 4 0.000000 0.000000 0.000000 0.159000 0.000000 0.000000
# 5 0.000000 0.000000 0.000000 0.000000 0.089344 0.000000
# 6 0.000000 0.000000 0.000000 0.000000 0.000000 0.053038
#
#
# Mechanical properties :
#
#
# Convention : Reuss Voigt Hill
#
# Bulk Modulus (GPa) = 27.19241 31.38423 29.28832
# Shear Modulus (GPa) = 12.92899 17.93248 15.43073
#
# Velocity S-wave (km/s) = 2.75809 3.24823 3.01314
# Velocity P-wave (km/s) = 5.11293 5.70383 5.41644
#
# Compressibility (1/GPa) = 0.03677497
#
# Stress axis : x y z
#
# Youngs Moduli (GPa) = 48.90251 94.33881 41.87137
#
# Poissons Ratio (x) = 0.30779 0.14798
# Poissons Ratio (y) = 0.15955 0.09553
# Poissons Ratio (z) = 0.17283 0.21524
#
# Static dielectric constant tensor:
#      x y z
#    x 1.615510 0.000000 0.000000 
#    y 0.000000 1.619320 0.000000 
#    z 0.000000 0.000000 1.568930 
# 
# From -- ./inp_files/65870.got.cif
#   From: 2010.05.17/outbox.cif.g08.bks.cpg/sg66_33_cif.got.tgz:65870.got - 2010.06.03 17:51:23.
