data_PCOD9496672
_publ_section_title
;
Structure prediction by ZEFSAII (Michael W. Deem and Ramdas Pophale) SiO2 
 PCOD9496672
Probable space group: C C C M
;
_chemical_formula_sum "Si O2"
_cell_formula_units_Z 112
_cell_length_a 28.933154
_cell_length_b 15.308255
_cell_length_c 14.475619
_cell_angle_alpha 90.000000
_cell_angle_beta 90.000000
_cell_angle_gamma 90.000000
_cell_volume 6411.484704
_symmetry_space_group_name_H-M "C C C M"
_symmetry_group_IT_number 66
_symmetry_cell_setting 'orthorhombic'
loop_
_space_group_symop_operation_xyz
x,y,z
-x,-y,z
x,-y,1/2-z
-x,y,1/2-z
-x,-y,-z
x,y,-z
-x,y,1/2+z
x,-y,1/2+z
1/2+x,1/2+y,z
1/2-x,1/2-y,z
1/2+x,1/2-y,1/2-z
1/2-x,1/2+y,1/2-z
1/2-x,1/2-y,-z
1/2+x,1/2+y,-z
1/2-x,1/2+y,1/2+z
1/2+x,1/2-y,1/2+z
loop_
_atom_site_type_symbol
_atom_site_label
_atom_site_fract_x
_atom_site_fract_y
_atom_site_fract_z
Si Si1 0.199519 0.487026 0.648464
Si Si2 0.694492 0.478390 0.389650
Si Si3 0.817332 0.670489 0.899271
Si Si4 0.623520 0.667293 0.105732
Si Si5 0.946359 0.894938 0.743441
Si Si6 0.701674 0.206693 0.186524
Si Si7 0.133022 0.149096 0.388991
O O1 0.179975 0.500000 0.750000
O O2 0.254307 0.508893 0.648060
O O3 0.176445 0.566610 0.595077
O O4 0.195220 0.384308 0.631159
O O5 0.700281 0.475645 0.500000
O O6 0.668119 0.389857 0.362126
O O7 0.661905 0.560490 0.367307
O O8 0.862097 0.731896 0.893919
O O9 0.794835 0.687631 0.797762
O O10 0.795110 0.695180 0.000000
O O11 0.581596 0.644606 0.170898
O O12 0.614221 0.640138 0.000000
O O13 0.917878 0.863716 0.653522
O O14 0.000000 0.870404 0.750000
O O15 0.943392 0.000000 0.750000
O O16 0.750000 0.250000 0.158089
O O17 0.660323 0.272169 0.160730
O O18 0.132685 0.160175 0.500000
#
# Coordination Sequence:
#
# PCOD9496672 Si02
#       7
#    16  16  16  16  16  16  16
#     4  10  22  33  50  80 113 152 195 237 274 323
#     4  10  20  32  49  75 112 153 191 231 274 327
#     4  10  22  36  54  79 110 148 193 242 285 327
#     4  10  21  36  57  81 109 147 188 236 290 343
#     4  11  23  38  61  85 112 149 187 236 293 350
#     4  11  22  37  56  81 115 158 199 234 279 337
#     4  11  23  38  56  81 116 156 192 232 283 341
#
# _framework density 17.468651999999999
#
# number of rings (size 3 to 8) (size 9 to 14) (size 15 to 20)
#    0.000    1.571    4.286    0.429    6.000    2.286 
#    0.000    1.429    0.000    0.000    0.000    2.000 
#    0.000    3.429    0.000    0.000    0.000    0.000 
#
# Total GULP energy -312109.934405 kJ/mol
# GULP energy per Si atom -5573.391686 kJ/mol
# Density = 1.742889 g / cm^3
# Si number density = 17.468652 Si / 1000 Ang^3
#
#
#
# Elastic Constant Matrix: (Units=GPa)
#
#
# Indices 1 2 3 4 5 6 
#
# 1 76.1823 53.8821 25.5932 0.0000 0.0000 0.0000
# 2 53.8821 125.1547 37.5548 0.0000 0.0000 0.0000
# 3 25.5932 37.5548 90.8852 0.0000 0.0000 0.0000
# 4 0.0000 0.0000 0.0000 21.2786 0.0000 0.0000
# 5 0.0000 0.0000 0.0000 0.0000 -88.4397 0.0000
# 6 0.0000 0.0000 0.0000 0.0000 0.0000 6.6607
#
#
#
# Elastic Compliance Matrix: (Units=1/GPa)
#
#
# Indices 1 2 3 4 5 6 
#
# 1 0.019279 -0.007615 -0.002282 0.000000 0.000000 0.000000
# 2 -0.007615 0.012129 -0.002867 0.000000 0.000000 0.000000
# 3 -0.002282 -0.002867 0.012830 0.000000 0.000000 0.000000
# 4 0.000000 0.000000 0.000000 0.046996 0.000000 0.000000
# 5 0.000000 0.000000 0.000000 0.000000 -0.011307 0.000000
# 6 0.000000 0.000000 0.000000 0.000000 0.000000 0.150134
#
#
# Mechanical properties :
#
#
# Convention : Reuss Voigt Hill
#
# Bulk Modulus (GPa) = 53.45095 58.47584 55.96339
# Shear Modulus (GPa) = 19.09650 -0.42061 9.33794
#
# Velocity S-wave (km/s) = 3.30992 -0.49123 2.31455
# Velocity P-wave (km/s) = 6.72845 5.76417 6.26489
#
# Compressibility (1/GPa) = 0.01870874
#
# Stress axis : x y z
#
# Youngs Moduli (GPa) = 51.86905 82.44620 77.93969
#
# Poissons Ratio (x) = 0.62786 0.17788
# Poissons Ratio (y) = 0.39500 0.22348
# Poissons Ratio (z) = 0.11838 0.23641
#
# Static dielectric constant tensor:
#      x y z
#    x 1.547140 0.000000 0.000000 
#    y 0.000000 1.627430 0.000000 
#    z 0.000000 0.000000 1.636990 
# 
# From -- ./inp_files/33297.got.cif
#   From: 2010.05.17/outbox.cif.g08.bks.cpg/sg66_17_cif.got.tgz:33297.got - 2010.06.03 17:51:23.
