data_PCOD9496432
_publ_section_title
;
Structure prediction by ZEFSAII (Michael W. Deem and Ramdas Pophale) SiO2 
 PCOD9496432
Probable space group: C C C M
;
_chemical_formula_sum "Si O2"
_cell_formula_units_Z 64
_cell_length_a 12.310227
_cell_length_b 17.966343
_cell_length_c 14.984373
_cell_angle_alpha 90.000000
_cell_angle_beta 90.000000
_cell_angle_gamma 90.000000
_cell_volume 3314.090190
_symmetry_space_group_name_H-M "C C C M"
_symmetry_group_IT_number 66
_symmetry_cell_setting 'orthorhombic'
loop_
_space_group_symop_operation_xyz
x,y,z
-x,-y,z
x,-y,1/2-z
-x,y,1/2-z
-x,-y,-z
x,y,-z
-x,y,1/2+z
x,-y,1/2+z
1/2+x,1/2+y,z
1/2-x,1/2-y,z
1/2+x,1/2-y,1/2-z
1/2-x,1/2+y,1/2-z
1/2-x,1/2-y,-z
1/2+x,1/2+y,-z
1/2-x,1/2+y,1/2+z
1/2+x,1/2-y,1/2+z
loop_
_atom_site_type_symbol
_atom_site_label
_atom_site_fract_x
_atom_site_fract_y
_atom_site_fract_z
Si Si1 0.877358 0.837997 0.000000
Si Si2 0.519573 0.912833 0.354605
Si Si3 0.954173 0.924934 0.397536
Si Si4 0.629583 0.160688 0.500000
Si Si5 0.250213 0.164327 0.392574
O O1 0.754176 0.865375 0.000000
O O2 0.875198 0.749642 0.000000
O O3 0.946505 0.868782 0.083650
O O4 0.500000 0.902942 0.250000
O O5 0.433858 0.868459 0.414007
O O6 0.638888 0.880367 0.375723
O O7 0.500000 0.000000 0.375784
O O8 0.918287 0.947090 0.500000
O O9 0.852474 0.882372 0.356193
O O10 0.000000 0.000000 0.355329
O O11 0.235658 0.169699 0.500000
O O12 0.250000 0.250000 0.359326
#
# Coordination Sequence:
#
# PCOD9496432 Si02
#       5
#     8  16  16   8  16
#     4   9  19  33  57  91 119 149 201 249 301 371
#     4  11  25  40  60  91 125 159 208 251 295 365
#     4   8  16  28  52  86 115 143 193 247 289 355
#     4  11  21  37  63  83 123 163 191 247 319 353
#     4  10  19  35  64  89 114 154 206 250 295 357
#
# _framework density 19.311484
#
# number of rings (size 3 to 8) (size 9 to 14) (size 15 to 20)
#    0.750    1.500    1.250    1.875    3.500    0.000 
#    4.500    0.000    0.000    0.000    0.000    0.000 
#    0.000    0.000    0.000    0.000    0.000    0.000 
#
# Total GULP energy -178319.678327 kJ/mol
# GULP energy per Si atom -5572.489948 kJ/mol
# Density = 1.926753 g / cm^3
# Si number density = 19.311484 Si / 1000 Ang^3
#
#
#
# Elastic Constant Matrix: (Units=GPa)
#
#
# Indices 1 2 3 4 5 6 
#
# 1 193.9095 89.7333 13.0109 0.0000 0.0000 0.0000
# 2 89.7333 140.4614 20.1954 0.0000 0.0000 0.0000
# 3 13.0109 20.1954 31.7587 0.0000 0.0000 0.0000
# 4 0.0000 0.0000 0.0000 -33.6757 0.0000 0.0000
# 5 0.0000 0.0000 0.0000 0.0000 -2.6396 0.0000
# 6 0.0000 0.0000 0.0000 0.0000 0.0000 25.1831
#
#
#
# Elastic Compliance Matrix: (Units=1/GPa)
#
#
# Indices 1 2 3 4 5 6 
#
# 1 0.007322 -0.004673 -0.000028 0.000000 0.000000 0.000000
# 2 -0.004673 0.010819 -0.004965 0.000000 0.000000 0.000000
# 3 -0.000028 -0.004965 0.034656 0.000000 0.000000 0.000000
# 4 0.000000 0.000000 0.000000 -0.029695 0.000000 0.000000
# 5 0.000000 0.000000 0.000000 0.000000 -0.378851 0.000000
# 6 0.000000 0.000000 0.000000 0.000000 0.000000 0.039709
#
#
# Mechanical properties :
#
#
# Convention : Reuss Voigt Hill
#
# Bulk Modulus (GPa) = 29.88275 68.00099 48.94187
# Shear Modulus (GPa) = -17.50988 13.98625 -1.76182
#
# Velocity S-wave (km/s) = -3.01443 2.69410 -0.95619
# Velocity P-wave (km/s) = 1.84174 6.70572 4.91725
#
# Compressibility (1/GPa) = 0.03346412
#
# Stress axis : x y z
#
# Youngs Moduli (GPa) = 136.58332 92.43136 28.85492
#
# Poissons Ratio (x) = 0.43196 0.00080
# Poissons Ratio (y) = 0.63830 0.14327
# Poissons Ratio (z) = 0.00378 0.45893
#
# Static dielectric constant tensor:
#      x y z
#    x 1.685490 0.000000 0.000000 
#    y 0.000000 1.689100 0.000000 
#    z 0.000000 0.000000 1.684960 
# 
# From -- ./inp_files/25869.got.cif
#   From: 2010.05.17/outbox.cif.g08.bks.cpg/sg66_13_cif.got.tgz:25869.got - 2010.06.03 17:51:23.
