data_PCOD9496102
_publ_section_title
;
Structure prediction by ZEFSAII (Michael W. Deem and Ramdas Pophale) SiO2 
 PCOD9496102
Probable space group: C C C M
;
_chemical_formula_sum "Si O2"
_cell_formula_units_Z 112
_cell_length_a 15.723034
_cell_length_b 19.658338
_cell_length_c 16.382997
_cell_angle_alpha 90.000000
_cell_angle_beta 90.000000
_cell_angle_gamma 90.000000
_cell_volume 5063.799519
_symmetry_space_group_name_H-M "C C C M"
_symmetry_group_IT_number 66
_symmetry_cell_setting 'orthorhombic'
loop_
_space_group_symop_operation_xyz
x,y,z
-x,-y,z
x,-y,1/2-z
-x,y,1/2-z
-x,-y,-z
x,y,-z
-x,y,1/2+z
x,-y,1/2+z
1/2+x,1/2+y,z
1/2-x,1/2-y,z
1/2+x,1/2-y,1/2-z
1/2-x,1/2+y,1/2-z
1/2-x,1/2-y,-z
1/2+x,1/2+y,-z
1/2-x,1/2+y,1/2+z
1/2+x,1/2-y,1/2+z
loop_
_atom_site_type_symbol
_atom_site_label
_atom_site_fract_x
_atom_site_fract_y
_atom_site_fract_z
Si Si1 0.682093 0.311489 0.903327
Si Si2 0.913491 0.275752 0.199116
Si Si3 0.892470 0.617582 0.093131
Si Si4 0.199559 0.100135 0.099135
Si Si5 0.575219 0.912017 0.599512
Si Si6 0.245921 0.042369 0.599122
Si Si7 0.344815 0.257242 0.864584
O O1 0.750000 0.250000 0.890783
O O2 0.596437 0.288308 0.859456
O O3 0.713729 0.384358 0.872342
O O4 0.670207 0.316435 0.000000
O O5 0.901376 0.341844 0.144052
O O6 0.845288 0.265044 0.270629
O O7 0.000000 0.279537 0.250000
O O8 0.797977 0.610779 0.128521
O O9 0.904858 0.700137 0.094434
O O10 0.976462 0.580016 0.125852
O O11 0.885230 0.594155 0.000000
O O12 0.140774 0.161908 0.129284
O O13 0.188442 0.021583 0.124193
O O14 0.197622 0.104199 0.000000
O O15 0.574253 0.905027 0.500000
O O16 0.653058 0.962218 0.620121
O O17 0.244318 0.043338 0.500000
O O18 0.250000 0.250000 0.901421
#
# Coordination Sequence:
#
# PCOD9496102 Si02
#       7
#    16  16  16  16  16  16  16
#     4  10  19  35  59  84 108 141 189 242 283 326
#     4  12  22  34  53  82 111 144 180 233 287 338
#     4   9  17  31  52  80 114 148 182 221 266 329
#     4   9  18  34  55  82 114 147 185 224 271 337
#     4  10  19  33  54  84 115 145 185 231 283 338
#     4   9  18  33  58  86 109 141 184 234 285 328
#     4  10  20  33  52  78 109 148 188 220 269 324
#
# _framework density 22.11778
#
# number of rings (size 3 to 8) (size 9 to 14) (size 15 to 20)
#    0.000    2.143    2.857    1.286    0.000    2.286 
#    0.000    3.571    0.000    1.714    0.000    3.000 
#    0.000    0.000    0.000    0.000    0.000    0.000 
#
# Total GULP energy -311876.519618 kJ/mol
# GULP energy per Si atom -5569.223565 kJ/mol
# Density = 2.206744 g / cm^3
# Si number density = 22.117780 Si / 1000 Ang^3
#
#
#
# Elastic Constant Matrix: (Units=GPa)
#
#
# Indices 1 2 3 4 5 6 
#
# 1 22.1190 5.4110 4.4080 0.0000 0.0000 0.0000
# 2 5.4110 116.3583 5.5402 0.0000 0.0000 0.0000
# 3 4.4080 5.5402 34.7871 0.0000 0.0000 0.0000
# 4 0.0000 0.0000 0.0000 -0.1906 0.0000 0.0000
# 5 0.0000 0.0000 0.0000 0.0000 24.5792 0.0000
# 6 0.0000 0.0000 0.0000 0.0000 0.0000 34.8410
#
#
#
# Elastic Compliance Matrix: (Units=1/GPa)
#
#
# Indices 1 2 3 4 5 6 
#
# 1 0.046798 -0.001908 -0.005626 0.000000 0.000000 0.000000
# 2 -0.001908 0.008738 -0.001150 0.000000 0.000000 0.000000
# 3 -0.005626 -0.001150 0.029642 0.000000 0.000000 0.000000
# 4 0.000000 0.000000 0.000000 -5.245408 0.000000 0.000000
# 5 0.000000 0.000000 0.000000 0.000000 0.040685 0.000000
# 6 0.000000 0.000000 0.000000 0.000000 0.000000 0.028702
#
#
# Mechanical properties :
#
#
# Convention : Reuss Voigt Hill
#
# Bulk Modulus (GPa) = 14.74718 22.66476 18.70597
# Shear Modulus (GPa) = -0.98993 22.37292 10.69150
#
# Velocity S-wave (km/s) = -0.66973 3.18391 2.20100
# Velocity P-wave (km/s) = 2.46657 4.87709 3.86458
#
# Compressibility (1/GPa) = 0.06780958
#
# Stress axis : x y z
#
# Youngs Moduli (GPa) = 21.36845 114.44748 33.73557
#
# Poissons Ratio (x) = 0.21841 0.18980
# Poissons Ratio (y) = 0.04078 0.03879
# Poissons Ratio (z) = 0.12022 0.13159
#
# Static dielectric constant tensor:
#      x y z
#    x 1.904790 0.000000 0.000000 
#    y 0.000000 1.929140 0.000000 
#    z 0.000000 0.000000 1.845540 
# 
# From -- ./inp_files/41975.got.cif
#   From: 2010.05.17/outbox.cif.g08.bks.cpg/sg66_21_cif.got.tgz:41975.got - 2010.06.03 17:51:23.
