data_PCOD9496755
_publ_section_title
;
Structure prediction by ZEFSAII (Michael W. Deem and Ramdas Pophale) SiO2 
 PCOD9496755
Probable space group: C C C M
;
_chemical_formula_sum "Si O2"
_cell_formula_units_Z 96
_cell_length_a 11.179273
_cell_length_b 25.320540
_cell_length_c 18.756347
_cell_angle_alpha 90.000000
_cell_angle_beta 90.000000
_cell_angle_gamma 90.000000
_cell_volume 5309.269662
_symmetry_space_group_name_H-M "C C C M"
_symmetry_group_IT_number 66
_symmetry_cell_setting 'orthorhombic'
loop_
_space_group_symop_operation_xyz
x,y,z
-x,-y,z
x,-y,1/2-z
-x,y,1/2-z
-x,-y,-z
x,y,-z
-x,y,1/2+z
x,-y,1/2+z
1/2+x,1/2+y,z
1/2-x,1/2-y,z
1/2+x,1/2-y,1/2-z
1/2-x,1/2+y,1/2-z
1/2-x,1/2-y,-z
1/2+x,1/2+y,-z
1/2-x,1/2+y,1/2+z
1/2+x,1/2-y,1/2+z
loop_
_atom_site_type_symbol
_atom_site_label
_atom_site_fract_x
_atom_site_fract_y
_atom_site_fract_z
Si Si1 0.238723 0.609462 0.417895
Si Si2 0.868062 0.644911 0.584351
Si Si3 0.184167 0.807695 0.189283
Si Si4 0.089128 0.717787 0.420506
Si Si5 0.098594 0.822017 0.339960
Si Si6 0.027367 0.438089 0.167369
O O1 0.239082 0.589793 0.500000
O O2 0.168932 0.665583 0.418394
O O3 0.367960 0.628453 0.389907
O O4 0.160468 0.574130 0.363472
O O5 0.845363 0.638774 0.500000
O O6 0.754307 0.657117 0.632390
O O7 0.939783 0.595425 0.616371
O O8 0.956498 0.695367 0.593139
O O9 0.250000 0.750000 0.188582
O O10 0.181603 0.828576 0.270256
O O11 0.043003 0.813649 0.172296
O O12 0.093069 0.740239 0.500000
O O13 0.127256 0.764428 0.370435
O O14 0.000000 0.500000 0.162301
O O15 0.000000 0.421979 0.250000
#
# Coordination Sequence:
#
# PCOD9496755 Si02
#       6
#    16  16  16  16  16  16
#     4  10  20  33  52  80 110 142 182 231 280 331
#     4  10  21  36  55  80 111 149 188 231 280 334
#     4  11  22  35  50  76 112 154 195 230 273 328
#     4   9  17  31  50  73 105 145 185 225 270 321
#     4  11  21  32  51  76 110 154 193 229 274 328
#     4  10  21  38  62  87 110 139 179 234 294 344
#
# _framework density 18.081582999999998
#
# number of rings (size 3 to 8) (size 9 to 14) (size 15 to 20)
#    0.000    1.833    1.667    4.500    0.000    5.667 
#    0.000    0.000    0.000    1.000    0.000    7.000 
#    0.000    0.000    0.000    0.000    0.000    0.000 
#
# Total GULP energy -267296.600562 kJ/mol
# GULP energy per Si atom -5568.679178 kJ/mol
# Density = 1.804043 g / cm^3
# Si number density = 18.081583 Si / 1000 Ang^3
#
#
#
# Elastic Constant Matrix: (Units=GPa)
#
#
# Indices 1 2 3 4 5 6 
#
# 1 82.9549 16.3147 41.9848 0.0000 0.0000 0.0000
# 2 16.3147 50.1947 40.3387 0.0000 0.0000 0.0000
# 3 41.9848 40.3387 123.8537 0.0000 0.0000 0.0000
# 4 0.0000 0.0000 0.0000 42.4670 0.0000 0.0000
# 5 0.0000 0.0000 0.0000 0.0000 27.0826 0.0000
# 6 0.0000 0.0000 0.0000 0.0000 0.0000 18.2766
#
#
#
# Elastic Compliance Matrix: (Units=1/GPa)
#
#
# Indices 1 2 3 4 5 6 
#
# 1 0.014591 -0.001040 -0.004608 0.000000 0.000000 0.000000
# 2 -0.001040 0.027060 -0.008461 0.000000 0.000000 0.000000
# 3 -0.004608 -0.008461 0.012392 0.000000 0.000000 0.000000
# 4 0.000000 0.000000 0.000000 0.023548 0.000000 0.000000
# 5 0.000000 0.000000 0.000000 0.000000 0.036924 0.000000
# 6 0.000000 0.000000 0.000000 0.000000 0.000000 0.054715
#
#
# Mechanical properties :
#
#
# Convention : Reuss Voigt Hill
#
# Bulk Modulus (GPa) = 38.72007 50.47552 44.59780
# Shear Modulus (GPa) = 24.26545 28.12293 26.19419
#
# Velocity S-wave (km/s) = 3.66730 3.94805 3.81026
# Velocity P-wave (km/s) = 6.27636 6.98275 6.63896
#
# Compressibility (1/GPa) = 0.02582640
#
# Stress axis : x y z
#
# Youngs Moduli (GPa) = 68.53449 36.95512 80.69962
#
# Poissons Ratio (x) = 0.03842 0.37183
# Poissons Ratio (y) = 0.07125 0.68279
# Poissons Ratio (z) = 0.31578 0.31267
#
# Static dielectric constant tensor:
#      x y z
#    x 1.703180 0.000000 0.000000 
#    y 0.000000 1.576300 0.000000 
#    z 0.000000 0.000000 1.683210 
# 
# From -- ./inp_files/39029.got.cif
#   From: 2010.05.17/outbox.cif.g08.bks.cpg/sg66_20_cif.got.tgz:39029.got - 2010.06.03 17:51:23.
