data_PCOD9496357
_publ_section_title
;
Structure prediction by ZEFSAII (Michael W. Deem and Ramdas Pophale) SiO2 
 PCOD9496357
Probable space group: C C C M
;
_chemical_formula_sum "Si O2"
_cell_formula_units_Z 120
_cell_length_a 12.774729
_cell_length_b 23.368812
_cell_length_c 21.944222
_cell_angle_alpha 90.000000
_cell_angle_beta 90.000000
_cell_angle_gamma 90.000000
_cell_volume 6551.013868
_symmetry_space_group_name_H-M "C C C M"
_symmetry_group_IT_number 66
_symmetry_cell_setting 'orthorhombic'
loop_
_space_group_symop_operation_xyz
x,y,z
-x,-y,z
x,-y,1/2-z
-x,y,1/2-z
-x,-y,-z
x,y,-z
-x,y,1/2+z
x,-y,1/2+z
1/2+x,1/2+y,z
1/2-x,1/2-y,z
1/2+x,1/2-y,1/2-z
1/2-x,1/2+y,1/2-z
1/2-x,1/2-y,-z
1/2+x,1/2+y,-z
1/2-x,1/2+y,1/2+z
1/2+x,1/2-y,1/2+z
loop_
_atom_site_type_symbol
_atom_site_label
_atom_site_fract_x
_atom_site_fract_y
_atom_site_fract_z
Si Si1 0.748395 0.908447 0.216140
Si Si2 0.500000 0.281593 0.750000
Si Si3 0.379483 0.985003 0.364989
Si Si4 0.943106 0.369917 0.429382
Si Si5 0.028599 0.936128 0.677392
Si Si6 0.346988 0.791872 0.331946
Si Si7 0.349925 0.636576 0.832692
Si Si8 0.185911 0.602734 0.073283
O O1 0.676303 0.960350 0.194959
O O2 0.692146 0.848011 0.204641
O O3 0.788233 0.904711 0.285169
O O4 0.852330 0.916400 0.174885
O O5 0.565096 0.242670 0.704134
O O6 0.590142 0.316525 0.788984
O O7 0.389387 0.929329 0.408449
O O8 0.500000 0.000000 0.351276
O O9 0.321841 0.038166 0.398042
O O10 0.926696 0.362629 0.500000
O O11 0.894687 0.317920 0.392658
O O12 0.067539 0.374495 0.417751
O O13 0.951046 0.895525 0.641310
O O14 0.000000 0.931940 0.750000
O O15 0.000000 0.000000 0.659522
O O16 0.250000 0.750000 0.341782
O O17 0.267136 0.641937 0.887817
O O18 0.206780 0.600931 0.000000
#
# Coordination Sequence:
#
# PCOD9496357 Si02
#       8
#    16   8  16  16  16  16  16  16
#     4  10  19  35  56  88 115 147 195 243 291 352
#     4  12  24  40  59  84 111 156 194 250 322 354
#     4   9  18  35  59  87 123 156 183 232 292 360
#     4   9  20  38  59  86 118 155 196 234 286 357
#     4   9  16  29  52  80 111 146 179 221 276 348
#     4  11  22  37  60  84 114 145 200 255 302 349
#     4  11  20  37  57  83 115 152 198 241 291 359
#     4  10  21  37  59  87 121 161 192 226 288 361
#
# _framework density 18.317775000000001
#
# number of rings (size 3 to 8) (size 9 to 14) (size 15 to 20)
#    0.000    2.000    3.333    1.200    1.867    3.467 
#    0.000    2.667    0.000   11.600    0.000    0.000 
#    0.000    0.000    0.000    0.000    0.000    0.000 
#
# Total GULP energy -334076.861665 kJ/mol
# GULP energy per Si atom -5567.947694 kJ/mol
# Density = 1.827608 g / cm^3
# Si number density = 18.317775 Si / 1000 Ang^3
#
#
#
# Elastic Constant Matrix: (Units=GPa)
#
#
# Indices 1 2 3 4 5 6 
#
# 1 81.1682 36.7942 60.9003 0.0000 0.0000 0.0000
# 2 36.7942 69.3002 40.2036 0.0000 0.0000 0.0000
# 3 60.9003 40.2036 79.8647 0.0000 0.0000 0.0000
# 4 0.0000 0.0000 0.0000 7.4447 0.0000 0.0000
# 5 0.0000 0.0000 0.0000 0.0000 27.7809 0.0000
# 6 0.0000 0.0000 0.0000 0.0000 0.0000 11.0256
#
#
#
# Elastic Compliance Matrix: (Units=1/GPa)
#
#
# Indices 1 2 3 4 5 6 
#
# 1 0.029445 -0.003683 -0.020599 0.000000 0.000000 0.000000
# 2 -0.003683 0.020843 -0.007684 0.000000 0.000000 0.000000
# 3 -0.020599 -0.007684 0.032097 0.000000 0.000000 0.000000
# 4 0.000000 0.000000 0.000000 0.134324 0.000000 0.000000
# 5 0.000000 0.000000 0.000000 0.000000 0.035996 0.000000
# 6 0.000000 0.000000 0.000000 0.000000 0.000000 0.090698
#
#
# Mechanical properties :
#
#
# Convention : Reuss Voigt Hill
#
# Bulk Modulus (GPa) = 54.19169 56.23661 55.21415
# Shear Modulus (GPa) = 12.09229 15.41256 13.75243
#
# Velocity S-wave (km/s) = 2.57211 2.90384 2.74299
# Velocity P-wave (km/s) = 6.20237 6.48153 6.34349
#
# Compressibility (1/GPa) = 0.01845301
#
# Stress axis : x y z
#
# Youngs Moduli (GPa) = 33.96132 47.97729 31.15570
#
# Poissons Ratio (x) = 0.17672 0.64178
# Poissons Ratio (y) = 0.12509 0.23939
# Poissons Ratio (z) = 0.69957 0.36864
#
# Static dielectric constant tensor:
#      x y z
#    x 1.667800 0.000000 0.000000 
#    y 0.000000 1.680050 0.000000 
#    z 0.000000 0.000000 1.621220 
# 
# From -- ./inp_files/57227.got.cif
#   From: 2010.05.17/outbox.cif.g08.bks.cpg/sg66_29_cif.got.tgz:57227.got - 2010.06.03 17:51:23.
