data_PCOD9496961
_publ_section_title
;
Structure prediction by ZEFSAII (Michael W. Deem and Ramdas Pophale) SiO2 
 PCOD9496961
Probable space group: C C C M
;
_chemical_formula_sum "Si O2"
_cell_formula_units_Z 112
_cell_length_a 24.355585
_cell_length_b 13.930768
_cell_length_c 16.297047
_cell_angle_alpha 90.000000
_cell_angle_beta 90.000000
_cell_angle_gamma 90.000000
_cell_volume 5529.457738
_symmetry_space_group_name_H-M "C C C M"
_symmetry_group_IT_number 66
_symmetry_cell_setting 'orthorhombic'
loop_
_space_group_symop_operation_xyz
x,y,z
-x,-y,z
x,-y,1/2-z
-x,y,1/2-z
-x,-y,-z
x,y,-z
-x,y,1/2+z
x,-y,1/2+z
1/2+x,1/2+y,z
1/2-x,1/2-y,z
1/2+x,1/2-y,1/2-z
1/2-x,1/2+y,1/2-z
1/2-x,1/2-y,-z
1/2+x,1/2+y,-z
1/2-x,1/2+y,1/2+z
1/2+x,1/2-y,1/2+z
loop_
_atom_site_type_symbol
_atom_site_label
_atom_site_fract_x
_atom_site_fract_y
_atom_site_fract_z
Si Si1 0.880962 0.715925 0.095223
Si Si2 0.973465 0.148991 0.600174
Si Si3 0.713077 0.655169 0.848631
Si Si4 0.316146 0.962515 0.343517
Si Si5 0.308688 0.158499 0.594394
Si Si6 0.185789 0.144796 0.334974
Si Si7 0.919015 0.050488 0.901337
O O1 0.938636 0.758779 0.125950
O O2 0.837267 0.804787 0.098721
O O3 0.856618 0.627714 0.146792
O O4 0.884968 0.686085 0.000000
O O5 0.972634 0.150654 0.500000
O O6 0.036213 0.130499 0.625700
O O7 0.941057 0.052828 0.626529
O O8 0.750000 0.750000 0.833221
O O9 0.757256 0.576627 0.877370
O O10 0.691302 0.624193 0.760481
O O11 0.309604 0.000000 0.250000
O O12 0.335832 0.055330 0.392983
O O13 0.310712 0.188716 0.500000
O O14 0.245665 0.141909 0.623157
O O15 0.331963 0.244579 0.649392
O O16 0.141460 0.074940 0.373057
O O17 0.919836 0.049270 0.000000
#
# Coordination Sequence:
#
# PCOD9496961 Si02
#       7
#    16  16  16  16  16  16  16
#     4  10  21  36  57  82 109 143 191 238 273 321
#     4   8  17  34  54  82 111 141 182 229 277 320
#     4  10  20  35  52  73 108 149 177 214 272 330
#     4  11  21  36  52  75 112 150 181 218 281 331
#     4  11  21  32  51  79 109 138 184 223 258 323
#     4  11  19  35  51  78 110 145 178 218 273 326
#     4   9  17  32  56  81 111 147 183 222 271 326
#
# _framework density 20.255151000000001
#
# number of rings (size 3 to 8) (size 9 to 14) (size 15 to 20)
#    0.000    2.000    2.857    3.857    2.000    3.143 
#    0.000    0.714    0.000    2.571    0.000    7.000 
#    0.000    0.000    0.000    0.000    0.000    0.000 
#
# Total GULP energy -312527.476180 kJ/mol
# GULP energy per Si atom -5580.847789 kJ/mol
# Density = 2.020905 g / cm^3
# Si number density = 20.255151 Si / 1000 Ang^3
#
#
#
# Elastic Constant Matrix: (Units=GPa)
#
#
# Indices 1 2 3 4 5 6 
#
# 1 41.6185 -1.2966 1.8537 0.0000 0.0000 0.0000
# 2 -1.2966 68.3219 2.6853 0.0000 0.0000 0.0000
# 3 1.8537 2.6853 25.6503 0.0000 0.0000 0.0000
# 4 0.0000 0.0000 0.0000 26.4116 0.0000 0.0000
# 5 0.0000 0.0000 0.0000 0.0000 -42.0523 0.0000
# 6 0.0000 0.0000 0.0000 0.0000 0.0000 32.2148
#
#
#
# Elastic Compliance Matrix: (Units=1/GPa)
#
#
# Indices 1 2 3 4 5 6 
#
# 1 0.024124 0.000529 -0.001799 0.000000 0.000000 0.000000
# 2 0.000529 0.014709 -0.001578 0.000000 0.000000 0.000000
# 3 -0.001799 -0.001578 0.039281 0.000000 0.000000 0.000000
# 4 0.000000 0.000000 0.000000 0.037862 0.000000 0.000000
# 5 0.000000 0.000000 0.000000 0.000000 -0.023780 0.000000
# 6 0.000000 0.000000 0.000000 0.000000 0.000000 0.031042
#
#
# Mechanical properties :
#
#
# Convention : Reuss Voigt Hill
#
# Bulk Modulus (GPa) = 13.80879 15.78615 14.79747
# Shear Modulus (GPa) = 32.66395 12.13801 22.40098
#
# Velocity S-wave (km/s) = 4.02011 2.45063 3.32918
# Velocity P-wave (km/s) = 5.32734 3.97718 4.70099
#
# Compressibility (1/GPa) = 0.07241765
#
# Stress axis : x y z
#
# Youngs Moduli (GPa) = 41.45183 67.98718 25.45749
#
# Poissons Ratio (x) = -0.03593 0.04579
# Poissons Ratio (y) = -0.02191 0.04017
# Poissons Ratio (z) = 0.07456 0.10729
#
# Static dielectric constant tensor:
#      x y z
#    x 1.727700 0.000000 0.000000 
#    y 0.000000 1.778320 0.000000 
#    z 0.000000 0.000000 1.724570 
# 
# From -- ./inp_files/32506.got.cif
#   From: 2010.05.17/outbox.cif.g08.bks.cpg/sg66_17_cif.got.tgz:32506.got - 2010.06.03 17:51:23.
