data_PCOD9496872
_publ_section_title
;
Structure prediction by ZEFSAII (Michael W. Deem and Ramdas Pophale) SiO2 
 PCOD9496872
Probable space group: C C C M
;
_chemical_formula_sum "Si O2"
_cell_formula_units_Z 116
_cell_length_a 23.811620
_cell_length_b 29.119286
_cell_length_c 8.576952
_cell_angle_alpha 90.000000
_cell_angle_beta 90.000000
_cell_angle_gamma 90.000000
_cell_volume 5947.064445
_symmetry_space_group_name_H-M "C C C M"
_symmetry_group_IT_number 66
_symmetry_cell_setting 'orthorhombic'
loop_
_space_group_symop_operation_xyz
x,y,z
-x,-y,z
x,-y,1/2-z
-x,y,1/2-z
-x,-y,-z
x,y,-z
-x,y,1/2+z
x,-y,1/2+z
1/2+x,1/2+y,z
1/2-x,1/2-y,z
1/2+x,1/2-y,1/2-z
1/2-x,1/2+y,1/2-z
1/2-x,1/2-y,-z
1/2+x,1/2+y,-z
1/2-x,1/2+y,1/2+z
1/2+x,1/2-y,1/2+z
loop_
_atom_site_type_symbol
_atom_site_label
_atom_site_fract_x
_atom_site_fract_y
_atom_site_fract_z
Si Si1 0.180277 0.881624 0.187674
Si Si2 0.096459 0.422561 0.313730
Si Si3 0.939935 0.237906 0.687208
Si Si4 0.500000 0.000000 0.750000
Si Si5 0.439930 0.365017 0.313739
Si Si6 0.126665 0.672157 0.312431
Si Si7 0.250414 0.803228 0.311663
Si Si8 0.221970 0.550174 0.188710
O O1 0.116437 0.891330 0.238227
O O2 0.198886 0.831470 0.244262
O O3 0.228987 0.915765 0.243996
O O4 0.181005 0.882424 0.000000
O O5 0.091058 0.370532 0.251706
O O6 0.158743 0.437566 0.256992
O O7 0.048939 0.459746 0.271957
O O8 0.902644 0.420711 0.000000
O O9 0.940456 0.233286 0.500000
O O10 0.931634 0.187723 0.759438
O O11 0.896561 0.277696 0.730419
O O12 0.000000 0.254144 0.750000
O O13 0.500000 0.381028 0.250000
O O14 0.442898 0.365664 0.500000
O O15 0.125757 0.669079 0.500000
O O16 0.191637 0.672263 0.259949
O O17 0.248216 0.804499 0.500000
O O18 0.250000 0.750000 0.264947
O O19 0.235232 0.500000 0.250000
O O20 0.221131 0.550942 0.000000
#
# Coordination Sequence:
#
# PCOD9496872 Si02
#       8
#    16  16  16   4  16  16  16  16
#     4  10  21  37  57  84 114 146 188 235 286 341
#     4  11  24  41  62  82 109 147 189 242 298 349
#     4  10  20  35  53  77 111 152 194 236 278 332
#     4  12  26  44  60  90 110 144 202 254 306 360
#     4  10  20  35  57  84 115 150 187 230 275 332
#     4  10  22  37  54  79 113 149 189 238 288 342
#     4  10  20  34  54  82 116 153 191 234 285 342
#     4  10  21  40  62  86 113 145 186 237 292 347
#
# _framework density 19.505421999999999
#
# number of rings (size 3 to 8) (size 9 to 14) (size 15 to 20)
#    0.000    1.793    2.069    2.690    0.966    5.793 
#    0.000    0.000    0.000    0.414    0.000    2.897 
#    0.000    0.000    0.000    0.000    0.000    0.000 
#
# Total GULP energy -323169.787759 kJ/mol
# GULP energy per Si atom -5571.892892 kJ/mol
# Density = 1.946103 g / cm^3
# Si number density = 19.505422 Si / 1000 Ang^3
#
#
#
# Elastic Constant Matrix: (Units=GPa)
#
#
# Indices 1 2 3 4 5 6 
#
# 1 172.6333 44.8812 14.7805 0.0000 0.0000 0.0000
# 2 44.8812 69.5619 1.8175 0.0000 0.0000 0.0000
# 3 14.7805 1.8175 17.8122 0.0000 0.0000 0.0000
# 4 0.0000 0.0000 0.0000 11.6030 0.0000 0.0000
# 5 0.0000 0.0000 0.0000 0.0000 19.9247 0.0000
# 6 0.0000 0.0000 0.0000 0.0000 0.0000 41.0524
#
#
#
# Elastic Compliance Matrix: (Units=1/GPa)
#
#
# Indices 1 2 3 4 5 6 
#
# 1 0.007505 -0.004692 -0.005748 0.000000 0.000000 0.000000
# 2 -0.004692 0.017347 0.002123 0.000000 0.000000 0.000000
# 3 -0.005748 0.002123 0.060695 0.000000 0.000000 0.000000
# 4 0.000000 0.000000 0.000000 0.086185 0.000000 0.000000
# 5 0.000000 0.000000 0.000000 0.000000 0.050189 0.000000
# 6 0.000000 0.000000 0.000000 0.000000 0.000000 0.024359
#
#
# Mechanical properties :
#
#
# Convention : Reuss Voigt Hill
#
# Bulk Modulus (GPa) = 14.51123 42.55177 28.53150
# Shear Modulus (GPa) = 17.48960 27.75124 22.62042
#
# Velocity S-wave (km/s) = 2.99767 3.77602 3.40913
# Velocity P-wave (km/s) = 4.40875 6.39326 5.49140
#
# Compressibility (1/GPa) = 0.06891216
#
# Stress axis : x y z
#
# Youngs Moduli (GPa) = 133.25249 57.64583 16.47593
#
# Poissons Ratio (x) = 0.27046 0.09471
# Poissons Ratio (y) = 0.62518 -0.03498
# Poissons Ratio (z) = 0.76600 -0.12239
#
# Static dielectric constant tensor:
#      x y z
#    x 1.728790 0.000000 0.000000 
#    y 0.000000 1.666300 0.000000 
#    z 0.000000 0.000000 1.670740 
# 
# From -- ./inp_files/9613.got.cif
#   From: 2010.05.17/outbox.cif.g08.bks.cpg/sg66_5_cif.got.tgz:9613.got - 2010.06.03 17:51:23.
