data_PCOD9496810
_publ_section_title
;
Structure prediction by ZEFSAII (Michael W. Deem and Ramdas Pophale) SiO2 
 PCOD9496810
Probable space group: C C C M
;
_chemical_formula_sum "Si O2"
_cell_formula_units_Z 116
_cell_length_a 19.568643
_cell_length_b 24.946551
_cell_length_c 14.026568
_cell_angle_alpha 90.000000
_cell_angle_beta 90.000000
_cell_angle_gamma 90.000000
_cell_volume 6847.351813
_symmetry_space_group_name_H-M "C C C M"
_symmetry_group_IT_number 66
_symmetry_cell_setting 'orthorhombic'
loop_
_space_group_symop_operation_xyz
x,y,z
-x,-y,z
x,-y,1/2-z
-x,y,1/2-z
-x,-y,-z
x,y,-z
-x,y,1/2+z
x,-y,1/2+z
1/2+x,1/2+y,z
1/2-x,1/2-y,z
1/2+x,1/2-y,1/2-z
1/2-x,1/2+y,1/2-z
1/2-x,1/2-y,-z
1/2+x,1/2+y,-z
1/2-x,1/2+y,1/2+z
1/2+x,1/2-y,1/2+z
loop_
_atom_site_type_symbol
_atom_site_label
_atom_site_fract_x
_atom_site_fract_y
_atom_site_fract_z
Si Si1 0.612005 0.969751 0.108390
Si Si2 0.054176 0.686904 0.113622
Si Si3 0.402983 0.787154 0.386302
Si Si4 0.850898 0.405259 0.109935
Si Si5 0.198574 0.377194 0.190717
Si Si6 0.327384 0.272326 0.393525
Si Si7 0.500000 0.000000 0.750000
Si Si8 0.692387 0.702143 0.192130
O O1 0.672800 0.930983 0.140593
O O2 0.635866 0.031530 0.112647
O O3 0.549229 0.965735 0.181371
O O4 0.590890 0.957245 0.000000
O O5 0.079398 0.626906 0.134096
O O6 0.118419 0.725721 0.133107
O O7 0.980596 0.705805 0.148405
O O8 0.046650 0.689046 0.000000
O O9 0.398059 0.795633 0.500000
O O10 0.358718 0.832916 0.334919
O O11 0.370179 0.729427 0.362483
O O12 0.801107 0.387700 0.195319
O O13 0.831140 0.390550 0.000000
O O14 0.268762 0.350308 0.155293
O O15 0.344137 0.292594 0.500000
O O16 0.250000 0.250000 0.398620
O O17 0.328508 0.309438 0.301231
O O18 0.750000 0.750000 0.192749
#
# Coordination Sequence:
#
# PCOD9496810 Si02
#       8
#    16  16  16  16  16  16   4  16
#     4  11  24  37  51  71  97 132 170 214 264 305
#     4   9  18  30  47  69  95 127 161 200 246 296
#     4  10  21  33  46  67  94 128 172 214 250 299
#     4  10  20  34  50  70  96 126 164 209 257 308
#     4  11  21  35  49  68  93 128 172 217 256 298
#     4   9  16  29  46  68  95 123 155 194 244 302
#     4  12  22  40  52  70 100 128 170 226 252 310
#     4   9  19  31  47  66  88 123 167 210 255 298
#
# _framework density 16.940854999999999
#
# number of rings (size 3 to 8) (size 9 to 14) (size 15 to 20)
#    0.000    2.069    1.379    3.103    1.931    6.897 
#    0.000    0.000    0.000    0.000    0.000    0.000 
#    0.000    0.000    0.000   21.103    0.000  159.172 
#
# Total GULP energy -323265.604974 kJ/mol
# GULP energy per Si atom -5573.544913 kJ/mol
# Density = 1.690230 g / cm^3
# Si number density = 16.940855 Si / 1000 Ang^3
#
#
#
# Elastic Constant Matrix: (Units=GPa)
#
#
# Indices 1 2 3 4 5 6 
#
# 1 72.1601 57.2669 10.2472 0.0000 0.0000 0.0000
# 2 57.2669 78.2648 25.2378 0.0000 0.0000 0.0000
# 3 10.2472 25.2378 94.5425 0.0000 0.0000 0.0000
# 4 0.0000 0.0000 0.0000 18.1327 0.0000 0.0000
# 5 0.0000 0.0000 0.0000 0.0000 38.8655 0.0000
# 6 0.0000 0.0000 0.0000 0.0000 0.0000 25.5171
#
#
#
# Elastic Compliance Matrix: (Units=1/GPa)
#
#
# Indices 1 2 3 4 5 6 
#
# 1 0.033926 -0.025865 0.003227 0.000000 0.000000 0.000000
# 2 -0.025865 0.033700 -0.006193 0.000000 0.000000 0.000000
# 3 0.003227 -0.006193 0.011881 0.000000 0.000000 0.000000
# 4 0.000000 0.000000 0.000000 0.055149 0.000000 0.000000
# 5 0.000000 0.000000 0.000000 0.000000 0.025730 0.000000
# 6 0.000000 0.000000 0.000000 0.000000 0.000000 0.039189
#
#
# Mechanical properties :
#
#
# Convention : Reuss Voigt Hill
#
# Bulk Modulus (GPa) = 45.77438 47.83015 46.80227
# Shear Modulus (GPa) = 18.90237 26.65075 22.77656
#
# Velocity S-wave (km/s) = 3.34396 3.97062 3.67069
# Velocity P-wave (km/s) = 6.47983 7.02253 6.75663
#
# Compressibility (1/GPa) = 0.02184628
#
# Stress axis : x y z
#
# Youngs Moduli (GPa) = 29.47557 29.67397 84.17131
#
# Poissons Ratio (x) = 0.76751 -0.27165
# Poissons Ratio (y) = 0.76238 0.52124
# Poissons Ratio (z) = -0.09513 0.18376
#
# Static dielectric constant tensor:
#      x y z
#    x 1.599850 0.000000 0.000000 
#    y 0.000000 1.578200 0.000000 
#    z 0.000000 0.000000 1.656040 
# 
# From -- ./inp_files/30359.got.cif
#   From: 2010.05.17/outbox.cif.g08.bks.cpg/sg66_16_cif.got.tgz:30359.got - 2010.06.03 17:51:23.
