data_PCOD9496870
_publ_section_title
;
Structure prediction by ZEFSAII (Michael W. Deem and Ramdas Pophale) SiO2 
 PCOD9496870
Probable space group: C C C M
;
_chemical_formula_sum "Si O2"
_cell_formula_units_Z 52
_cell_length_a 28.007860
_cell_length_b 9.433595
_cell_length_c 9.832244
_cell_angle_alpha 90.000000
_cell_angle_beta 90.000000
_cell_angle_gamma 90.000000
_cell_volume 2597.824461
_symmetry_space_group_name_H-M "C C C M"
_symmetry_group_IT_number 66
_symmetry_cell_setting 'orthorhombic'
loop_
_space_group_symop_operation_xyz
x,y,z
-x,-y,z
x,-y,1/2-z
-x,y,1/2-z
-x,-y,-z
x,y,-z
-x,y,1/2+z
x,-y,1/2+z
1/2+x,1/2+y,z
1/2-x,1/2-y,z
1/2+x,1/2-y,1/2-z
1/2-x,1/2+y,1/2-z
1/2-x,1/2-y,-z
1/2+x,1/2+y,-z
1/2-x,1/2+y,1/2+z
1/2+x,1/2-y,1/2+z
loop_
_atom_site_type_symbol
_atom_site_label
_atom_site_fract_x
_atom_site_fract_y
_atom_site_fract_z
Si Si1 0.888541 0.116179 0.000000
Si Si2 0.427639 0.788774 0.753479
Si Si3 0.655673 0.000000 0.750000
Si Si4 0.542752 0.382327 0.500000
Si Si5 0.698598 0.175381 0.000000
Si Si6 0.500000 0.000000 0.250000
O O1 0.912146 0.176210 0.136287
O O2 0.837061 0.189035 0.000000
O O3 0.904272 0.954259 0.000000
O O4 0.381156 0.875876 0.702077
O O5 0.456367 0.714220 0.633209
O O6 0.462607 0.901043 0.826818
O O7 0.686226 0.924477 0.630758
O O8 0.500000 0.500000 0.500000
O O9 0.750000 0.250000 0.000000
#
# Coordination Sequence:
#
# PCOD9496870 Si02
#       6
#     8  16   8   8   8   4
#     4  10  22  39  57  81 118 155 190 247 302 356
#     4  10  21  36  58  81 116 158 198 244 292 345
#     4   9  20  41  64  86 120 154 203 250 309 366
#     4  12  23  36  54  87 126 160 198 241 293 361
#     4  10  21  43  64  92 119 152 198 261 306 374
#     4  10  20  34  54  82 104 154 204 236 274 334
#
# _framework density 20.016746999999999
#
# number of rings (size 3 to 8) (size 9 to 14) (size 15 to 20)
#    0.000    1.846    0.000    3.692    0.000    6.154 
#   11.077    0.769    0.000    0.000    0.000    0.000 
#    0.000    0.000    0.000    0.000    0.000    0.000 
#
# Total GULP energy -144782.930356 kJ/mol
# GULP energy per Si atom -5568.574244 kJ/mol
# Density = 1.997119 g / cm^3
# Si number density = 20.016747 Si / 1000 Ang^3
#
#
#
# Elastic Constant Matrix: (Units=GPa)
#
#
# Indices 1 2 3 4 5 6 
#
# 1 120.7637 49.5962 64.6408 0.0000 0.0000 0.0000
# 2 49.5962 83.0867 42.2945 0.0000 0.0000 0.0000
# 3 64.6408 42.2945 106.4972 0.0000 0.0000 0.0000
# 4 0.0000 0.0000 0.0000 53.6250 0.0000 0.0000
# 5 0.0000 0.0000 0.0000 0.0000 34.6273 0.0000
# 6 0.0000 0.0000 0.0000 0.0000 0.0000 44.3467
#
#
#
# Elastic Compliance Matrix: (Units=1/GPa)
#
#
# Indices 1 2 3 4 5 6 
#
# 1 0.013719 -0.004951 -0.006360 0.000000 0.000000 0.000000
# 2 -0.004951 0.016872 -0.003695 0.000000 0.000000 0.000000
# 3 -0.006360 -0.003695 0.014718 0.000000 0.000000 0.000000
# 4 0.000000 0.000000 0.000000 0.018648 0.000000 0.000000
# 5 0.000000 0.000000 0.000000 0.000000 0.028879 0.000000
# 6 0.000000 0.000000 0.000000 0.000000 0.000000 0.022550
#
#
# Mechanical properties :
#
#
# Convention : Reuss Voigt Hill
#
# Bulk Modulus (GPa) = 65.38181 69.26786 67.32483
# Shear Modulus (GPa) = 33.22305 36.77420 34.99863
#
# Velocity S-wave (km/s) = 4.07844 4.29087 4.18600
# Velocity P-wave (km/s) = 7.41031 7.69603 7.55452
#
# Compressibility (1/GPa) = 0.01529477
#
# Stress axis : x y z
#
# Youngs Moduli (GPa) = 72.89397 59.26907 67.94328
#
# Poissons Ratio (x) = 0.29345 0.43215
# Poissons Ratio (y) = 0.36091 0.25108
# Poissons Ratio (z) = 0.46364 0.21903
#
# Static dielectric constant tensor:
#      x y z
#    x 1.734430 0.000000 0.000000 
#    y 0.000000 1.757710 0.000000 
#    z 0.000000 0.000000 1.708100 
# 
# From -- ./inp_files/20317.got.cif
#   From: 2010.05.17/outbox.cif.g08.bks.cpg/sg66_11_cif.got.tgz:20317.got - 2010.06.03 17:51:23.
