data_PCOD9496016
_publ_section_title
;
Structure prediction by ZEFSAII (Michael W. Deem and Ramdas Pophale) SiO2 
 PCOD9496016
Probable space group: C C C M
;
_chemical_formula_sum "Si O2"
_cell_formula_units_Z 96
_cell_length_a 16.505891
_cell_length_b 15.582475
_cell_length_c 21.254145
_cell_angle_alpha 90.000000
_cell_angle_beta 90.000000
_cell_angle_gamma 90.000000
_cell_volume 5466.622074
_symmetry_space_group_name_H-M "C C C M"
_symmetry_group_IT_number 66
_symmetry_cell_setting 'orthorhombic'
loop_
_space_group_symop_operation_xyz
x,y,z
-x,-y,z
x,-y,1/2-z
-x,y,1/2-z
-x,-y,-z
x,y,-z
-x,y,1/2+z
x,-y,1/2+z
1/2+x,1/2+y,z
1/2-x,1/2-y,z
1/2+x,1/2-y,1/2-z
1/2-x,1/2+y,1/2-z
1/2-x,1/2-y,-z
1/2+x,1/2+y,-z
1/2-x,1/2+y,1/2+z
1/2+x,1/2-y,1/2+z
loop_
_atom_site_type_symbol
_atom_site_label
_atom_site_fract_x
_atom_site_fract_y
_atom_site_fract_z
Si Si1 0.376645 0.264694 0.637127
Si Si2 0.831354 0.691740 0.000000
Si Si3 0.257099 0.995855 0.500000
Si Si4 0.073571 0.065511 0.000000
Si Si5 0.237525 0.399367 0.626154
Si Si6 0.212696 0.000000 0.250000
Si Si7 0.588628 0.348443 0.267710
Si Si8 0.943616 0.782449 0.903189
O O1 0.322105 0.346715 0.617190
O O2 0.327721 0.176666 0.631954
O O3 0.392113 0.284928 0.710402
O O4 0.461140 0.260584 0.600004
O O5 0.750000 0.750000 0.000000
O O6 0.802305 0.594817 0.000000
O O7 0.887183 0.716140 0.940327
O O8 0.160587 0.978877 0.500000
O O9 0.277648 0.046316 0.563676
O O10 0.066669 0.128024 0.940081
O O11 0.000000 0.000000 0.000000
O O12 0.241935 0.458579 0.689221
O O13 0.154651 0.922887 0.272842
O O14 0.500000 0.385681 0.250000
O O15 0.584013 0.297067 0.332191
#
# Coordination Sequence:
#
# PCOD9496016 Si02
#       8
#    16   8   8   8  16   8  16  16
#     4   9  20  39  57  85 113 155 199 232 296 350
#     4  11  24  41  55  86 114 149 198 234 294 366
#     4  12  23  38  56  85 117 142 189 245 289 345
#     4  11  21  33  55  88 115 145 185 231 306 368
#     4  10  22  37  58  85 120 151 196 243 287 353
#     4  10  19  32  54  86 117 152 182 238 296 345
#     4   9  18  33  56  84 113 146 190 240 292 351
#     4  10  20  37  59  78 116 155 189 242 290 351
#
# _framework density 17.561119000000001
#
# number of rings (size 3 to 8) (size 9 to 14) (size 15 to 20)
#    0.000    2.000    1.667    2.250    0.000    7.333 
#    3.000    1.667    0.000    0.000    0.000    0.000 
#    0.000    0.000    0.000    0.000    0.000    0.000 
#
# Total GULP energy -267774.019966 kJ/mol
# GULP energy per Si atom -5578.625416 kJ/mol
# Density = 1.752115 g / cm^3
# Si number density = 17.561119 Si / 1000 Ang^3
#
#
#
# Elastic Constant Matrix: (Units=GPa)
#
#
# Indices 1 2 3 4 5 6 
#
# 1 66.6998 39.5313 25.9279 0.0000 0.0000 0.0000
# 2 39.5313 114.4563 59.0649 0.0000 0.0000 0.0000
# 3 25.9279 59.0649 93.9220 0.0000 0.0000 0.0000
# 4 0.0000 0.0000 0.0000 17.3734 0.0000 0.0000
# 5 0.0000 0.0000 0.0000 0.0000 -2.1144 0.0000
# 6 0.0000 0.0000 0.0000 0.0000 0.0000 27.3424
#
#
#
# Elastic Compliance Matrix: (Units=1/GPa)
#
#
# Indices 1 2 3 4 5 6 
#
# 1 0.019024 -0.005715 -0.001658 0.000000 0.000000 0.000000
# 2 -0.005715 0.014652 -0.007636 0.000000 0.000000 0.000000
# 3 -0.001658 -0.007636 0.015907 0.000000 0.000000 0.000000
# 4 0.000000 0.000000 0.000000 0.057559 0.000000 0.000000
# 5 0.000000 0.000000 0.000000 0.000000 -0.472949 0.000000
# 6 0.000000 0.000000 0.000000 0.000000 0.000000 0.036573
#
#
# Mechanical properties :
#
#
# Convention : Reuss Voigt Hill
#
# Bulk Modulus (GPa) = 51.11293 58.23628 54.67460
# Shear Modulus (GPa) = -17.08264 18.55723 0.73729
#
# Velocity S-wave (km/s) = -3.12228 3.25425 0.64866
# Velocity P-wave (km/s) = 4.02128 6.88144 5.63582
#
# Compressibility (1/GPa) = 0.01956452
#
# Stress axis : x y z
#
# Youngs Moduli (GPa) = 52.56469 68.25217 62.86569
#
# Poissons Ratio (x) = 0.39008 0.10421
# Poissons Ratio (y) = 0.30042 0.48006
# Poissons Ratio (z) = 0.08713 0.52119
#
# Static dielectric constant tensor:
#      x y z
#    x 1.609960 0.000000 0.000000 
#    y 0.000000 1.567140 0.000000 
#    z 0.000000 0.000000 1.596200 
# 
# From -- ./inp_files/49961.got.cif
#   From: 2010.05.17/outbox.cif.g08.bks.cpg/sg66_25_cif.got.tgz:49961.got - 2010.06.03 17:51:23.
