data_PCOD9496461
_publ_section_title
;
Structure prediction by ZEFSAII (Michael W. Deem and Ramdas Pophale) SiO2 
 PCOD9496461
Probable space group: C C C M
;
_chemical_formula_sum "Si O2"
_cell_formula_units_Z 116
_cell_length_a 22.275427
_cell_length_b 31.202399
_cell_length_c 7.713018
_cell_angle_alpha 90.000000
_cell_angle_beta 90.000000
_cell_angle_gamma 90.000000
_cell_volume 5360.908180
_symmetry_space_group_name_H-M "C C C M"
_symmetry_group_IT_number 66
_symmetry_cell_setting 'orthorhombic'
loop_
_space_group_symop_operation_xyz
x,y,z
-x,-y,z
x,-y,1/2-z
-x,y,1/2-z
-x,-y,-z
x,y,-z
-x,y,1/2+z
x,-y,1/2+z
1/2+x,1/2+y,z
1/2-x,1/2-y,z
1/2+x,1/2-y,1/2-z
1/2-x,1/2+y,1/2-z
1/2-x,1/2-y,-z
1/2+x,1/2+y,-z
1/2-x,1/2+y,1/2+z
1/2+x,1/2-y,1/2+z
loop_
_atom_site_type_symbol
_atom_site_label
_atom_site_fract_x
_atom_site_fract_y
_atom_site_fract_z
Si Si1 0.088071 0.236745 0.304018
Si Si2 0.068698 0.666957 0.697160
Si Si3 0.194847 0.635165 0.294255
Si Si4 0.063033 0.147565 0.706088
Si Si5 0.744643 0.453648 0.794074
Si Si6 0.786609 0.206217 0.301819
Si Si7 0.500000 0.500000 0.250000
Si Si8 0.390749 0.560803 0.786373
O O1 0.065441 0.243900 0.500000
O O2 0.079847 0.281848 0.211769
O O3 0.061015 0.194701 0.213425
O O4 0.156156 0.220039 0.307292
O O5 0.070307 0.653039 0.500000
O O6 0.128181 0.645053 0.779992
O O7 0.000000 0.658453 0.750000
O O8 0.192593 0.645179 0.500000
O O9 0.217997 0.586941 0.272303
O O10 0.244996 0.668625 0.226797
O O11 0.069398 0.153628 0.500000
O O12 0.109572 0.111415 0.758458
O O13 0.000000 0.126624 0.750000
O O14 0.771529 0.500000 0.750000
O O15 0.675295 0.454066 0.730793
O O16 0.741199 0.448795 0.000000
O O17 0.805634 0.194859 0.500000
O O18 0.750000 0.250000 0.314018
O O19 0.553104 0.464791 0.297567
O O20 0.398386 0.556706 0.000000
#
# Coordination Sequence:
#
# PCOD9496461 Si02
#       8
#    16  16  16  16  16  16   4  16
#     4  11  22  35  55  83 118 159 204 250 302 357
#     4  11  23  41  63  89 124 160 202 250 305 373
#     4  10  22  41  64  90 123 163 204 253 313 374
#     4  10  21  36  50  72 107 148 193 243 293 343
#     4  11  23  41  64  91 122 155 199 253 307 368
#     4  10  19  36  58  83 117 158 200 245 299 353
#     4  12  18  36  60  78 112 156 208 252 302 348
#     4  10  21  36  55  80 113 151 197 251 301 350
#
# _framework density 21.638124000000001
#
# number of rings (size 3 to 8) (size 9 to 14) (size 15 to 20)
#    0.000    1.517    2.759    2.690    0.000    5.241 
#    0.000    1.379    0.000    0.414    0.000    2.897 
#    0.000    0.000    0.000    0.000    0.000    0.000 
#
# Total GULP energy -323095.373230 kJ/mol
# GULP energy per Si atom -5570.609883 kJ/mol
# Density = 2.158887 g / cm^3
# Si number density = 21.638124 Si / 1000 Ang^3
#
#
#
# Elastic Constant Matrix: (Units=GPa)
#
#
# Indices 1 2 3 4 5 6 
#
# 1 129.8263 47.5905 5.5100 0.0000 0.0000 0.0000
# 2 47.5905 113.6414 -18.4702 0.0000 0.0000 0.0000
# 3 5.5100 -18.4702 40.9528 0.0000 0.0000 0.0000
# 4 0.0000 0.0000 0.0000 19.8635 0.0000 0.0000
# 5 0.0000 0.0000 0.0000 0.0000 157.6234 0.0000
# 6 0.0000 0.0000 0.0000 0.0000 0.0000 14.6105
#
#
#
# Elastic Compliance Matrix: (Units=1/GPa)
#
#
# Indices 1 2 3 4 5 6 
#
# 1 0.009499 -0.004517 -0.003315 0.000000 0.000000 0.000000
# 2 -0.004517 0.011643 0.005859 0.000000 0.000000 0.000000
# 3 -0.003315 0.005859 0.027507 0.000000 0.000000 0.000000
# 4 0.000000 0.000000 0.000000 0.050344 0.000000 0.000000
# 5 0.000000 0.000000 0.000000 0.000000 0.006344 0.000000
# 6 0.000000 0.000000 0.000000 0.000000 0.000000 0.068444
#
#
# Mechanical properties :
#
#
# Convention : Reuss Voigt Hill
#
# Bulk Modulus (GPa) = 22.36963 39.29792 30.83377
# Shear Modulus (GPa) = 25.95672 55.07215 40.51443
#
# Velocity S-wave (km/s) = 3.46726 5.05042 4.33178
# Velocity P-wave (km/s) = 5.13709 7.22563 6.26895
#
# Compressibility (1/GPa) = 0.04470346
#
# Stress axis : x y z
#
# Youngs Moduli (GPa) = 105.27393 85.88546 36.35448
#
# Poissons Ratio (x) = 0.38793 0.12052
# Poissons Ratio (y) = 0.47550 -0.21300
# Poissons Ratio (z) = 0.34900 -0.50321
#
# Static dielectric constant tensor:
#      x y z
#    x 1.813380 0.000000 0.000000 
#    y 0.000000 1.794350 0.000000 
#    z 0.000000 0.000000 1.543300 
# 
# From -- ./inp_files/9648.got.cif
#   From: 2010.05.17/outbox.cif.g08.bks.cpg/sg66_5_cif.got.tgz:9648.got - 2010.06.03 17:51:23.
