data_PCOD9496291
_publ_section_title
;
Structure prediction by ZEFSAII (Michael W. Deem and Ramdas Pophale) SiO2 
 PCOD9496291
Probable space group: C C C M
;
_chemical_formula_sum "Si O2"
_cell_formula_units_Z 56
_cell_length_a 17.816020
_cell_length_b 11.287334
_cell_length_c 13.505917
_cell_angle_alpha 90.000000
_cell_angle_beta 90.000000
_cell_angle_gamma 90.000000
_cell_volume 2715.977353
_symmetry_space_group_name_H-M "C C C M"
_symmetry_group_IT_number 66
_symmetry_cell_setting 'orthorhombic'
loop_
_space_group_symop_operation_xyz
x,y,z
-x,-y,z
x,-y,1/2-z
-x,y,1/2-z
-x,-y,-z
x,y,-z
-x,y,1/2+z
x,-y,1/2+z
1/2+x,1/2+y,z
1/2-x,1/2-y,z
1/2+x,1/2-y,1/2-z
1/2-x,1/2+y,1/2-z
1/2-x,1/2-y,-z
1/2+x,1/2+y,-z
1/2-x,1/2+y,1/2+z
1/2+x,1/2-y,1/2+z
loop_
_atom_site_type_symbol
_atom_site_label
_atom_site_fract_x
_atom_site_fract_y
_atom_site_fract_z
Si Si1 0.084216 0.528240 0.618824
Si Si2 0.660285 0.718429 0.118242
Si Si3 0.661659 0.500000 0.750000
Si Si4 0.277969 0.877996 0.118258
O O1 0.084839 0.518317 0.500000
O O2 0.115544 0.659583 0.637235
O O3 0.142677 0.427920 0.654176
O O4 0.000000 0.500000 0.649593
O O5 0.750000 0.750000 0.129683
O O6 0.629458 0.619257 0.196958
O O7 0.650551 0.686298 0.000000
O O8 0.714782 0.462667 0.840245
O O9 0.250000 0.750000 0.151055
O O10 0.278717 0.878808 0.000000
#
# Coordination Sequence:
#
# PCOD9496291 Si02
#       4
#    16  16   8  16
#     4   9  18  36  62  89 114 147 197 255 307 354
#     4  10  19  34  58  89 121 158 204 251 300 363
#     4  12  20  32  57  85 118 156 202 248 296 354
#     4  10  21  35  55  84 116 152 197 244 293 357
#
# _framework density 20.618728000000001
#
# number of rings (size 3 to 8) (size 9 to 14) (size 15 to 20)
#    0.000    2.000    2.857    1.714    0.000    0.000 
#    0.000    0.714    0.000    3.429    0.000   10.000 
#    0.000    3.429    0.000    0.000    0.000    0.000 
#
# Total GULP energy -155949.230854 kJ/mol
# GULP energy per Si atom -5569.615388 kJ/mol
# Density = 2.057180 g / cm^3
# Si number density = 20.618728 Si / 1000 Ang^3
#
#
#
# Elastic Constant Matrix: (Units=GPa)
#
#
# Indices 1 2 3 4 5 6 
#
# 1 102.8209 84.2888 15.4212 0.0000 0.0000 0.0000
# 2 84.2888 137.8379 37.4408 0.0000 0.0000 0.0000
# 3 15.4212 37.4408 128.8055 0.0000 0.0000 0.0000
# 4 0.0000 0.0000 0.0000 40.3501 0.0000 0.0000
# 5 0.0000 0.0000 0.0000 0.0000 1.7309 0.0000
# 6 0.0000 0.0000 0.0000 0.0000 0.0000 -31.8108
#
#
#
# Elastic Compliance Matrix: (Units=1/GPa)
#
#
# Indices 1 2 3 4 5 6 
#
# 1 0.019682 -0.012373 0.001240 0.000000 0.000000 0.000000
# 2 -0.012373 0.015655 -0.003069 0.000000 0.000000 0.000000
# 3 0.001240 -0.003069 0.008507 0.000000 0.000000 0.000000
# 4 0.000000 0.000000 0.000000 0.024783 0.000000 0.000000
# 5 0.000000 0.000000 0.000000 0.000000 0.577725 0.000000
# 6 0.000000 0.000000 0.000000 0.000000 0.000000 -0.031436
#
#
# Mechanical properties :
#
#
# Convention : Reuss Voigt Hill
#
# Bulk Modulus (GPa) = 64.76435 71.52955 68.14695
# Shear Modulus (GPa) = 7.71049 17.54160 12.62604
#
# Velocity S-wave (km/s) = 1.93589 2.91994 2.47727
# Velocity P-wave (km/s) = 6.03950 6.79227 6.42692
#
# Compressibility (1/GPa) = 0.01544059
#
# Stress axis : x y z
#
# Youngs Moduli (GPa) = 50.80680 63.87910 117.54608
#
# Poissons Ratio (x) = 0.79036 -0.14576
# Poissons Ratio (y) = 0.62862 0.36076
# Poissons Ratio (z) = -0.06300 0.19605
#
# Static dielectric constant tensor:
#      x y z
#    x 1.722940 0.000000 0.000000 
#    y 0.000000 1.249460 0.000000 
#    z 0.000000 0.000000 1.802470 
# 
# From -- ./inp_files/25642.got.cif
#   From: 2010.05.17/outbox.cif.g08.bks.cpg/sg66_13_cif.got.tgz:25642.got - 2010.06.03 17:51:23.
