data_PCOD9496265
_publ_section_title
;
Structure prediction by ZEFSAII (Michael W. Deem and Ramdas Pophale) SiO2 
 PCOD9496265
Probable space group: C C C M
;
_chemical_formula_sum "Si O2"
_cell_formula_units_Z 96
_cell_length_a 23.233236
_cell_length_b 9.665743
_cell_length_c 23.071104
_cell_angle_alpha 90.000000
_cell_angle_beta 90.000000
_cell_angle_gamma 90.000000
_cell_volume 5180.996805
_symmetry_space_group_name_H-M "C C C M"
_symmetry_group_IT_number 66
_symmetry_cell_setting 'orthorhombic'
loop_
_space_group_symop_operation_xyz
x,y,z
-x,-y,z
x,-y,1/2-z
-x,y,1/2-z
-x,-y,-z
x,y,-z
-x,y,1/2+z
x,-y,1/2+z
1/2+x,1/2+y,z
1/2-x,1/2-y,z
1/2+x,1/2-y,1/2-z
1/2-x,1/2+y,1/2-z
1/2-x,1/2-y,-z
1/2+x,1/2+y,-z
1/2-x,1/2+y,1/2+z
1/2+x,1/2-y,1/2+z
loop_
_atom_site_type_symbol
_atom_site_label
_atom_site_fract_x
_atom_site_fract_y
_atom_site_fract_z
Si Si1 0.054860 0.413499 0.368611
Si Si2 0.834780 0.338737 0.798838
Si Si3 0.682028 0.255276 0.331360
Si Si4 0.501335 0.338895 0.432291
Si Si5 0.791857 0.955366 0.684260
Si Si6 0.612033 0.149703 0.564791
O O1 0.106595 0.398984 0.323428
O O2 0.078071 0.508224 0.421431
O O3 0.000000 0.500000 0.345316
O O4 0.035622 0.264105 0.392252
O O5 0.841282 0.698021 0.769741
O O6 0.820307 0.191303 0.828256
O O7 0.777620 0.429953 0.813781
O O8 0.750000 0.250000 0.321760
O O9 0.677767 0.418130 0.348354
O O10 0.658292 0.170617 0.385028
O O11 0.500000 0.500000 0.415008
O O12 0.482730 0.330691 0.500000
O O13 0.565283 0.272903 0.430056
O O14 0.804936 0.000000 0.750000
O O15 0.635837 0.148284 0.500000
#
# Coordination Sequence:
#
# PCOD9496265 Si02
#       6
#    16  16  16  16  16  16
#     4  10  21  36  58  84 114 151 185 239 289 344
#     4  10  19  34  57  84 115 148 187 231 288 349
#     4  11  20  34  58  84 116 149 189 233 282 345
#     4   9  19  38  59  79 105 146 197 238 280 335
#     4   9  17  33  55  84 110 147 189 227 278 339
#     4  10  22  37  56  82 112 149 191 235 281 335
#
# _framework density 18.529253000000001
#
# number of rings (size 3 to 8) (size 9 to 14) (size 15 to 20)
#    0.000    2.167    3.333    1.500    2.333    2.333 
#    0.000    5.833    0.000    1.000    0.000    4.667 
#    0.000    0.000    0.000    0.000    0.000    0.000 
#
# Total GULP energy -267300.636284 kJ/mol
# GULP energy per Si atom -5568.763256 kJ/mol
# Density = 1.848708 g / cm^3
# Si number density = 18.529253 Si / 1000 Ang^3
#
#
#
# Elastic Constant Matrix: (Units=GPa)
#
#
# Indices 1 2 3 4 5 6 
#
# 1 77.1118 37.5115 50.2744 0.0000 0.0000 0.0000
# 2 37.5115 133.6511 35.5936 0.0000 0.0000 0.0000
# 3 50.2744 35.5936 86.8857 0.0000 0.0000 0.0000
# 4 0.0000 0.0000 0.0000 18.9514 0.0000 0.0000
# 5 0.0000 0.0000 0.0000 0.0000 20.7109 0.0000
# 6 0.0000 0.0000 0.0000 0.0000 0.0000 24.1088
#
#
#
# Elastic Compliance Matrix: (Units=1/GPa)
#
#
# Indices 1 2 3 4 5 6 
#
# 1 0.021921 -0.003114 -0.011408 0.000000 0.000000 0.000000
# 2 -0.003114 0.008841 -0.001820 0.000000 0.000000 0.000000
# 3 -0.011408 -0.001820 0.018856 0.000000 0.000000 0.000000
# 4 0.000000 0.000000 0.000000 0.052766 0.000000 0.000000
# 5 0.000000 0.000000 0.000000 0.000000 0.048284 0.000000
# 6 0.000000 0.000000 0.000000 0.000000 0.000000 0.041479
#
#
# Mechanical properties :
#
#
# Convention : Reuss Voigt Hill
#
# Bulk Modulus (GPa) = 59.05546 60.48974 59.77260
# Shear Modulus (GPa) = 21.69425 24.37215 23.03320
#
# Velocity S-wave (km/s) = 3.42542 3.63069 3.52955
# Velocity P-wave (km/s) = 6.89821 7.09170 6.99563
#
# Compressibility (1/GPa) = 0.01693324
#
# Stress axis : x y z
#
# Youngs Moduli (GPa) = 45.61844 113.11096 53.03358
#
# Poissons Ratio (x) = 0.35226 0.60502
# Poissons Ratio (y) = 0.14207 0.09651
# Poissons Ratio (z) = 0.52043 0.20583
#
# Static dielectric constant tensor:
#      x y z
#    x 1.636520 0.000000 0.000000 
#    y 0.000000 1.824590 0.000000 
#    z 0.000000 0.000000 1.629020 
# 
# From -- ./inp_files/65999.got.cif
#   From: 2010.05.17/outbox.cif.g08.bks.cpg/sg66_33_cif.got.tgz:65999.got - 2010.06.03 17:51:23.
