data_PCOD9496138
_publ_section_title
;
Structure prediction by ZEFSAII (Michael W. Deem and Ramdas Pophale) SiO2 
 PCOD9496138
Probable space group: C C C M
;
_chemical_formula_sum "Si O2"
_cell_formula_units_Z 116
_cell_length_a 21.715758
_cell_length_b 29.893932
_cell_length_c 9.705292
_cell_angle_alpha 90.000000
_cell_angle_beta 90.000000
_cell_angle_gamma 90.000000
_cell_volume 6300.378516
_symmetry_space_group_name_H-M "C C C M"
_symmetry_group_IT_number 66
_symmetry_cell_setting 'orthorhombic'
loop_
_space_group_symop_operation_xyz
x,y,z
-x,-y,z
x,-y,1/2-z
-x,y,1/2-z
-x,-y,-z
x,y,-z
-x,y,1/2+z
x,-y,1/2+z
1/2+x,1/2+y,z
1/2-x,1/2-y,z
1/2+x,1/2-y,1/2-z
1/2-x,1/2+y,1/2-z
1/2-x,1/2-y,-z
1/2+x,1/2+y,-z
1/2-x,1/2+y,1/2+z
1/2+x,1/2-y,1/2+z
loop_
_atom_site_type_symbol
_atom_site_label
_atom_site_fract_x
_atom_site_fract_y
_atom_site_fract_z
Si Si1 0.940786 0.179898 0.334321
Si Si2 0.055767 0.366440 0.343747
Si Si3 0.000000 0.500000 0.750000
Si Si4 0.276538 0.799597 0.155253
Si Si5 0.407627 0.232322 0.660649
Si Si6 0.891404 0.567256 0.844745
Si Si7 0.250894 0.458578 0.159359
Si Si8 0.192156 0.862934 0.336933
O O1 0.952003 0.184782 0.500000
O O2 0.927600 0.228043 0.261043
O O3 0.879658 0.149664 0.315475
O O4 0.000000 0.162168 0.250000
O O5 0.052871 0.382193 0.500000
O O6 0.052909 0.312786 0.345904
O O7 0.109815 0.392523 0.266170
O O8 0.000000 0.381436 0.250000
O O9 0.949066 0.532665 0.824260
O O10 0.250000 0.750000 0.143354
O O11 0.343968 0.789463 0.211589
O O12 0.233181 0.829073 0.248812
O O13 0.282786 0.818744 0.000000
O O14 0.400605 0.248404 0.500000
O O15 0.823653 0.545608 0.832317
O O16 0.896686 0.585655 0.000000
O O17 0.271139 0.500000 0.250000
O O18 0.285165 0.412649 0.199673
O O19 0.265769 0.466617 0.000000
O O20 0.204420 0.856707 0.500000
#
# Coordination Sequence:
#
# PCOD9496138 Si02
#       8
#    16  16   4  16  16  16  16  16
#     4  11  23  38  59  86 115 153 193 239 292 353
#     4  11  23  36  52  74 106 145 191 236 281 331
#     4  12  22  36  60  86 110 148 200 236 290 328
#     4  10  19  33  56  84 116 152 193 237 281 332
#     4  10  21  37  55  81 116 154 193 238 284 339
#     4  11  23  38  58  82 112 148 190 240 288 336
#     4  10  22  41  62  88 117 148 188 238 292 349
#     4  10  22  39  60  87 120 154 196 245 296 352
#
# _framework density 18.411593
#
# number of rings (size 3 to 8) (size 9 to 14) (size 15 to 20)
#    0.000    1.517    2.759    2.276    0.000    5.241 
#    0.000    0.000    0.000    0.414    0.000    2.897 
#    0.000    0.000    0.000    0.000    0.000    0.000 
#
# Total GULP energy -323113.599427 kJ/mol
# GULP energy per Si atom -5570.924128 kJ/mol
# Density = 1.836969 g / cm^3
# Si number density = 18.411593 Si / 1000 Ang^3
#
#
#
# Elastic Constant Matrix: (Units=GPa)
#
#
# Indices 1 2 3 4 5 6 
#
# 1 91.4867 35.1911 44.7564 0.0000 0.0000 0.0000
# 2 35.1911 105.3867 59.9816 0.0000 0.0000 0.0000
# 3 44.7564 59.9816 101.2471 0.0000 0.0000 0.0000
# 4 0.0000 0.0000 0.0000 35.2297 0.0000 0.0000
# 5 0.0000 0.0000 0.0000 0.0000 20.6246 0.0000
# 6 0.0000 0.0000 0.0000 0.0000 0.0000 14.5777
#
#
#
# Elastic Compliance Matrix: (Units=1/GPa)
#
#
# Indices 1 2 3 4 5 6 
#
# 1 0.014159 -0.001759 -0.005217 0.000000 0.000000 0.000000
# 2 -0.001759 0.014534 -0.007833 0.000000 0.000000 0.000000
# 3 -0.005217 -0.007833 0.016824 0.000000 0.000000 0.000000
# 4 0.000000 0.000000 0.000000 0.028385 0.000000 0.000000
# 5 0.000000 0.000000 0.000000 0.000000 0.048486 0.000000
# 6 0.000000 0.000000 0.000000 0.000000 0.000000 0.068598
#
#
# Mechanical properties :
#
#
# Convention : Reuss Voigt Hill
#
# Bulk Modulus (GPa) = 62.89603 64.21987 63.55795
# Shear Modulus (GPa) = 22.13327 24.63251 23.38289
#
# Velocity S-wave (km/s) = 3.47095 3.66167 3.56758
# Velocity P-wave (km/s) = 7.09215 7.26863 7.18093
#
# Compressibility (1/GPa) = 0.01589926
#
# Stress axis : x y z
#
# Youngs Moduli (GPa) = 70.62448 68.80208 59.43990
#
# Poissons Ratio (x) = 0.12100 0.31011
# Poissons Ratio (y) = 0.12421 0.46560
# Poissons Ratio (z) = 0.36847 0.53894
#
# Static dielectric constant tensor:
#      x y z
#    x 1.862450 0.000000 0.000000 
#    y 0.000000 1.799840 0.000000 
#    z 0.000000 0.000000 1.653940 
# 
# From -- ./inp_files/9593.got.cif
#   From: 2010.05.17/outbox.cif.g08.bks.cpg/sg66_5_cif.got.tgz:9593.got - 2010.06.03 17:51:23.
