data_PCOD9496856
_publ_section_title
;
Structure prediction by ZEFSAII (Michael W. Deem and Ramdas Pophale) SiO2 
 PCOD9496856
Probable space group: C C C M
;
_chemical_formula_sum "Si O2"
_cell_formula_units_Z 96
_cell_length_a 21.184162
_cell_length_b 10.010803
_cell_length_c 25.624760
_cell_angle_alpha 90.000000
_cell_angle_beta 90.000000
_cell_angle_gamma 90.000000
_cell_volume 5434.254961
_symmetry_space_group_name_H-M "C C C M"
_symmetry_group_IT_number 66
_symmetry_cell_setting 'orthorhombic'
loop_
_space_group_symop_operation_xyz
x,y,z
-x,-y,z
x,-y,1/2-z
-x,y,1/2-z
-x,-y,-z
x,y,-z
-x,y,1/2+z
x,-y,1/2+z
1/2+x,1/2+y,z
1/2-x,1/2-y,z
1/2+x,1/2-y,1/2-z
1/2-x,1/2+y,1/2-z
1/2-x,1/2-y,-z
1/2+x,1/2+y,-z
1/2-x,1/2+y,1/2+z
1/2+x,1/2-y,1/2+z
loop_
_atom_site_type_symbol
_atom_site_label
_atom_site_fract_x
_atom_site_fract_y
_atom_site_fract_z
Si Si1 0.941347 0.399645 0.060960
Si Si2 0.850892 0.469129 0.153335
Si Si3 0.877016 0.223556 0.675343
Si Si4 0.000480 0.150985 0.382108
Si Si5 0.900252 0.210125 0.205387
Si Si6 0.215244 0.013100 0.311006
O O1 0.883584 0.443923 0.097631
O O2 0.966188 0.255168 0.079421
O O3 0.000000 0.500000 0.070295
O O4 0.925629 0.401503 0.000000
O O5 0.860327 0.621259 0.171225
O O6 0.885666 0.363701 0.191245
O O7 0.776086 0.445939 0.156290
O O8 0.905704 0.194395 0.732729
O O9 0.929504 0.192086 0.632301
O O10 0.816690 0.126107 0.671478
O O11 0.041071 0.160191 0.328517
O O12 0.000000 0.000000 0.401594
O O13 0.839812 0.123082 0.187950
O O14 0.235018 0.000000 0.250000
#
# Coordination Sequence:
#
# PCOD9496856 Si02
#       6
#    16  16  16  16  16  16
#     4  10  22  42  63  81 103 136 185 245 303 336
#     4  11  21  35  56  81 109 146 189 231 268 328
#     4  11  20  33  52  85 116 154 186 217 263 322
#     4  11  21  36  57  84 112 145 186 231 277 328
#     4  10  21  32  53  81 120 156 184 215 262 323
#     4  10  20  34  53  80 119 161 185 208 259 328
#
# _framework density 17.665716
#
# number of rings (size 3 to 8) (size 9 to 14) (size 15 to 20)
#    0.000    1.500    3.333    3.000    0.000    3.667 
#    0.000    1.667    0.000   11.000    0.000    0.000 
#    0.000    0.000    0.000    0.000    0.000    0.000 
#
# Total GULP energy -268074.574359 kJ/mol
# GULP energy per Si atom -5584.886966 kJ/mol
# Density = 1.762551 g / cm^3
# Si number density = 17.665716 Si / 1000 Ang^3
#
#
#
# Elastic Constant Matrix: (Units=GPa)
#
#
# Indices 1 2 3 4 5 6 
#
# 1 89.3279 20.8621 38.7037 0.0000 0.0000 0.0000
# 2 20.8621 110.2698 9.9776 0.0000 0.0000 0.0000
# 3 38.7037 9.9776 55.7236 0.0000 0.0000 0.0000
# 4 0.0000 0.0000 0.0000 13.3627 0.0000 0.0000
# 5 0.0000 0.0000 0.0000 0.0000 22.2522 0.0000
# 6 0.0000 0.0000 0.0000 0.0000 0.0000 23.9625
#
#
#
# Elastic Compliance Matrix: (Units=1/GPa)
#
#
# Indices 1 2 3 4 5 6 
#
# 1 0.016486 -0.002117 -0.011072 0.000000 0.000000 0.000000
# 2 -0.002117 0.009490 -0.000229 0.000000 0.000000 0.000000
# 3 -0.011072 -0.000229 0.025677 0.000000 0.000000 0.000000
# 4 0.000000 0.000000 0.000000 0.074835 0.000000 0.000000
# 5 0.000000 0.000000 0.000000 0.000000 0.044939 0.000000
# 6 0.000000 0.000000 0.000000 0.000000 0.000000 0.041732
#
#
# Mechanical properties :
#
#
# Convention : Reuss Voigt Hill
#
# Bulk Modulus (GPa) = 40.29387 43.82313 42.05850
# Shear Modulus (GPa) = 20.13958 24.30067 22.22012
#
# Velocity S-wave (km/s) = 3.38011 3.71291 3.55041
# Velocity P-wave (km/s) = 6.17188 6.57584 6.37706
#
# Compressibility (1/GPa) = 0.02481767
#
# Stress axis : x y z
#
# Youngs Moduli (GPa) = 60.65637 105.37498 38.94582
#
# Poissons Ratio (x) = 0.22311 0.43120
# Poissons Ratio (y) = 0.12842 0.00891
# Poissons Ratio (z) = 0.67157 0.02409
#
# Static dielectric constant tensor:
#      x y z
#    x 1.593430 0.000000 0.000000 
#    y 0.000000 1.620650 0.000000 
#    z 0.000000 0.000000 1.569040 
# 
# From -- ./inp_files/55625.got.cif
#   From: 2010.05.17/outbox.cif.g08.bks.cpg/sg66_28_cif.got.tgz:55625.got - 2010.06.03 17:51:23.
