data_PCOD9496308
_publ_section_title
;
Structure prediction by ZEFSAII (Michael W. Deem and Ramdas Pophale) SiO2 
 PCOD9496308
Probable space group: C C C M
;
_chemical_formula_sum "Si O2"
_cell_formula_units_Z 88
_cell_length_a 30.109743
_cell_length_b 8.644311
_cell_length_c 16.083287
_cell_angle_alpha 90.000000
_cell_angle_beta 90.000000
_cell_angle_gamma 90.000000
_cell_volume 4186.125494
_symmetry_space_group_name_H-M "C C C M"
_symmetry_group_IT_number 66
_symmetry_cell_setting 'orthorhombic'
loop_
_space_group_symop_operation_xyz
x,y,z
-x,-y,z
x,-y,1/2-z
-x,y,1/2-z
-x,-y,-z
x,y,-z
-x,y,1/2+z
x,-y,1/2+z
1/2+x,1/2+y,z
1/2-x,1/2-y,z
1/2+x,1/2-y,1/2-z
1/2-x,1/2+y,1/2-z
1/2-x,1/2-y,-z
1/2+x,1/2+y,-z
1/2-x,1/2+y,1/2+z
1/2+x,1/2-y,1/2+z
loop_
_atom_site_type_symbol
_atom_site_label
_atom_site_fract_x
_atom_site_fract_y
_atom_site_fract_z
Si Si1 0.497574 0.678565 0.098410
Si Si2 0.594262 0.297661 0.839884
Si Si3 0.173180 0.422262 0.667019
Si Si4 0.406354 0.345638 0.142492
Si Si5 0.250000 0.250000 0.234585
Si Si6 0.311611 0.756278 0.408482
O O1 0.500000 0.500000 0.131071
O O2 0.455437 0.761372 0.139622
O O3 0.547550 0.732803 0.115379
O O4 0.489851 0.674880 0.000000
O O5 0.635755 0.192884 0.867751
O O6 0.594676 0.470795 0.877552
O O7 0.598266 0.321834 0.741123
O O8 0.151730 0.500000 0.750000
O O9 0.216659 0.340908 0.705651
O O10 0.189888 0.559351 0.608133
O O11 0.363253 0.278703 0.099944
O O12 0.284286 0.324389 0.166793
O O13 0.296317 0.711729 0.500000
#
# Coordination Sequence:
#
# PCOD9496308 Si02
#       6
#    16  16  16  16   8  16
#     4   9  18  32  52  83 124 159 193 245 296 339
#     4  10  19  34  60  88 116 159 208 243 287 355
#     4  10  21  40  62  88 118 157 195 245 301 361
#     4  10  19  34  59  91 119 156 204 246 292 350
#     4  10  21  40  63  80 114 154 200 236 293 358
#     4  11  23  40  64  92 124 154 193 247 307 359
#
# _framework density 21.021826000000001
#
# number of rings (size 3 to 8) (size 9 to 14) (size 15 to 20)
#    0.000    2.000    3.636    1.364    0.000    8.000 
#    0.000    1.364    0.000    2.182    0.000    0.000 
#    0.000    0.000    0.000    0.000    0.000    0.000 
#
# Total GULP energy -245181.617093 kJ/mol
# GULP energy per Si atom -5572.309479 kJ/mol
# Density = 2.097398 g / cm^3
# Si number density = 21.021826 Si / 1000 Ang^3
#
#
#
# Elastic Constant Matrix: (Units=GPa)
#
#
# Indices 1 2 3 4 5 6 
#
# 1 188.1231 45.3099 24.0830 0.0000 0.0000 0.0000
# 2 45.3099 42.1616 1.3537 0.0000 0.0000 0.0000
# 3 24.0830 1.3537 41.3062 0.0000 0.0000 0.0000
# 4 0.0000 0.0000 0.0000 24.2991 0.0000 0.0000
# 5 0.0000 0.0000 0.0000 0.0000 87.7683 0.0000
# 6 0.0000 0.0000 0.0000 0.0000 0.0000 29.2269
#
#
#
# Elastic Compliance Matrix: (Units=1/GPa)
#
#
# Indices 1 2 3 4 5 6 
#
# 1 0.007873 -0.008322 -0.004317 0.000000 0.000000 0.000000
# 2 -0.008322 0.032540 0.003786 0.000000 0.000000 0.000000
# 3 -0.004317 0.003786 0.026603 0.000000 0.000000 0.000000
# 4 0.000000 0.000000 0.000000 0.041154 0.000000 0.000000
# 5 0.000000 0.000000 0.000000 0.000000 0.011394 0.000000
# 6 0.000000 0.000000 0.000000 0.000000 0.000000 0.034215
#
#
# Mechanical properties :
#
#
# Convention : Reuss Voigt Hill
#
# Bulk Modulus (GPa) = 20.28070 45.89823 33.08946
# Shear Modulus (GPa) = 26.60689 41.64850 34.12769
#
# Velocity S-wave (km/s) = 3.56150 4.45590 4.03357
# Velocity P-wave (km/s) = 5.15565 6.95373 6.12108
#
# Compressibility (1/GPa) = 0.04930797
#
# Stress axis : x y z
#
# Youngs Moduli (GPa) = 127.02062 30.73124 37.59042
#
# Poissons Ratio (x) = 0.25575 0.16229
# Poissons Ratio (y) = 1.05707 -0.14230
# Poissons Ratio (z) = 0.54839 -0.11634
#
# Static dielectric constant tensor:
#      x y z
#    x 1.809770 0.000000 0.000000 
#    y 0.000000 1.821610 0.000000 
#    z 0.000000 0.000000 1.741340 
# 
# From -- ./inp_files/44651.got.cif
#   From: 2010.05.17/outbox.cif.g08.bks.cpg/sg66_23_cif.got.tgz:44651.got - 2010.06.03 17:51:23.
