data_PCOD9496905
_publ_section_title
;
Structure prediction by ZEFSAII (Michael W. Deem and Ramdas Pophale) SiO2 
 PCOD9496905
Probable space group: C C C M
;
_chemical_formula_sum "Si O2"
_cell_formula_units_Z 64
_cell_length_a 9.378817
_cell_length_b 21.877910
_cell_length_c 13.897471
_cell_angle_alpha 90.000000
_cell_angle_beta 90.000000
_cell_angle_gamma 90.000000
_cell_volume 2851.606985
_symmetry_space_group_name_H-M "C C C M"
_symmetry_group_IT_number 66
_symmetry_cell_setting 'orthorhombic'
loop_
_space_group_symop_operation_xyz
x,y,z
-x,-y,z
x,-y,1/2-z
-x,y,1/2-z
-x,-y,-z
x,y,-z
-x,y,1/2+z
x,-y,1/2+z
1/2+x,1/2+y,z
1/2-x,1/2-y,z
1/2+x,1/2-y,1/2-z
1/2-x,1/2+y,1/2-z
1/2-x,1/2-y,-z
1/2+x,1/2+y,-z
1/2-x,1/2+y,1/2+z
1/2+x,1/2-y,1/2+z
loop_
_atom_site_type_symbol
_atom_site_label
_atom_site_fract_x
_atom_site_fract_y
_atom_site_fract_z
Si Si1 0.705157 0.352293 0.316288
Si Si2 0.917551 0.559759 0.890216
Si Si3 0.102438 0.180518 0.393335
Si Si4 0.510769 0.188845 0.363589
O O1 0.784767 0.582493 0.173678
O O2 0.552037 0.348076 0.365835
O O3 0.691225 0.332619 0.204356
O O4 0.817628 0.310839 0.376446
O O5 0.022118 0.619203 0.891602
O O6 0.000000 0.500000 0.858287
O O7 0.868527 0.549889 0.000000
O O8 0.150054 0.159906 0.500000
O O9 0.073660 0.253443 0.400605
O O10 0.500000 0.193305 0.250000
#
# Coordination Sequence:
#
# PCOD9496905 Si02
#       4
#    16  16  16  16
#     4   9  21  35  56  88 134 172 215 281 330 385
#     4   9  19  36  60  88 120 167 224 277 329 386
#     4  11  20  34  59  89 131 183 220 264 331 400
#     4  10  20  34  55  87 133 173 213 275 331 384
#
# _framework density 22.443486
#
# number of rings (size 3 to 8) (size 9 to 14) (size 15 to 20)
#    1.500    0.750    2.500    2.250    0.000    1.500 
#    0.000    3.750    0.000    0.750    0.000   14.000 
#    0.000   24.000    0.000    0.000    0.000    0.000 
#
# Total GULP energy -178208.584565 kJ/mol
# GULP energy per Si atom -5569.018268 kJ/mol
# Density = 2.239240 g / cm^3
# Si number density = 22.443486 Si / 1000 Ang^3
#
#
#
# Elastic Constant Matrix: (Units=GPa)
#
#
# Indices 1 2 3 4 5 6 
#
# 1 92.9969 50.2170 23.1908 0.0000 0.0000 0.0000
# 2 50.2170 150.0293 45.5482 0.0000 0.0000 0.0000
# 3 23.1908 45.5482 170.2927 0.0000 0.0000 0.0000
# 4 0.0000 0.0000 0.0000 23.7653 0.0000 0.0000
# 5 0.0000 0.0000 0.0000 0.0000 6.4265 0.0000
# 6 0.0000 0.0000 0.0000 0.0000 0.0000 7.6566
#
#
#
# Elastic Compliance Matrix: (Units=1/GPa)
#
#
# Indices 1 2 3 4 5 6 
#
# 1 0.013195 -0.004213 -0.000670 0.000000 0.000000 0.000000
# 2 -0.004213 0.008600 -0.001726 0.000000 0.000000 0.000000
# 3 -0.000670 -0.001726 0.006425 0.000000 0.000000 0.000000
# 4 0.000000 0.000000 0.000000 0.042078 0.000000 0.000000
# 5 0.000000 0.000000 0.000000 0.000000 0.155605 0.000000
# 6 0.000000 0.000000 0.000000 0.000000 0.000000 0.130607
#
#
# Mechanical properties :
#
#
# Convention : Reuss Voigt Hill
#
# Bulk Modulus (GPa) = 66.66282 72.35899 69.51091
# Shear Modulus (GPa) = 13.34293 27.19386 20.26840
#
# Velocity S-wave (km/s) = 2.44091 3.48467 3.00840
# Velocity P-wave (km/s) = 6.14093 6.96427 6.56552
#
# Compressibility (1/GPa) = 0.01500087
#
# Stress axis : x y z
#
# Youngs Moduli (GPa) = 75.78510 116.28293 155.63592
#
# Poissons Ratio (x) = 0.48992 0.10428
# Poissons Ratio (y) = 0.31930 0.26869
# Poissons Ratio (z) = 0.05078 0.20075
#
# Static dielectric constant tensor:
#      x y z
#    x 1.932050 0.000000 0.000000 
#    y 0.000000 1.858540 0.000000 
#    z 0.000000 0.000000 1.840650 
# 
# From -- ./inp_files/25808.got.cif
#   From: 2010.05.17/outbox.cif.g08.bks.cpg/sg66_13_cif.got.tgz:25808.got - 2010.06.03 17:51:23.
