data_PCOD9496859
_publ_section_title
;
Structure prediction by ZEFSAII (Michael W. Deem and Ramdas Pophale) SiO2 
 PCOD9496859
Probable space group: C C C M
;
_chemical_formula_sum "Si O2"
_cell_formula_units_Z 112
_cell_length_a 16.026444
_cell_length_b 12.168269
_cell_length_c 31.475775
_cell_angle_alpha 90.000000
_cell_angle_beta 90.000000
_cell_angle_gamma 90.000000
_cell_volume 6138.219358
_symmetry_space_group_name_H-M "C C C M"
_symmetry_group_IT_number 66
_symmetry_cell_setting 'orthorhombic'
loop_
_space_group_symop_operation_xyz
x,y,z
-x,-y,z
x,-y,1/2-z
-x,y,1/2-z
-x,-y,-z
x,y,-z
-x,y,1/2+z
x,-y,1/2+z
1/2+x,1/2+y,z
1/2-x,1/2-y,z
1/2+x,1/2-y,1/2-z
1/2-x,1/2+y,1/2-z
1/2-x,1/2-y,-z
1/2+x,1/2+y,-z
1/2-x,1/2+y,1/2+z
1/2+x,1/2-y,1/2+z
loop_
_atom_site_type_symbol
_atom_site_label
_atom_site_fract_x
_atom_site_fract_y
_atom_site_fract_z
Si Si1 0.885005 0.778218 0.952427
Si Si2 0.819162 0.401889 0.221393
Si Si3 0.368458 0.660615 0.754188
Si Si4 0.984174 0.680058 0.121278
Si Si5 0.138241 0.521689 0.127053
Si Si6 0.762822 0.565465 0.951060
Si Si7 0.986908 0.884254 0.181608
O O1 0.824003 0.671702 0.952671
O O2 0.827710 0.882722 0.941020
O O3 0.956051 0.746443 0.920052
O O4 0.916347 0.794279 0.000000
O O5 0.854094 0.500000 0.250000
O O6 0.722860 0.383124 0.234595
O O7 0.865542 0.289980 0.234613
O O8 0.825719 0.434739 0.171844
O O9 0.438806 0.609865 0.784148
O O10 0.399550 0.633570 0.706688
O O11 0.065521 0.606523 0.114289
O O12 0.909310 0.595505 0.133592
O O13 0.999519 0.773426 0.155689
O O14 0.202517 0.507159 0.087848
O O15 0.762554 0.520871 0.000000
O O16 0.000000 0.000000 0.157489
#
# Coordination Sequence:
#
# PCOD9496859 Si02
#       7
#    16  16  16  16  16  16  16
#     4   8  15  29  50  77 111 146 183 222 271 334
#     4  11  21  36  54  79 106 142 177 229 277 330
#     4  10  22  37  54  75 103 136 186 224 271 321
#     4  10  20  34  53  83 111 146 179 225 284 339
#     4  10  20  34  53  83 118 139 181 228 287 351
#     4   8  15  29  50  78 112 148 179 224 283 338
#     4  11  21  38  55  75 103 142 184 228 266 327
#
# _framework density 18.246333
#
# number of rings (size 3 to 8) (size 9 to 14) (size 15 to 20)
#    0.000    2.286    1.429    3.429    0.000    2.857 
#    0.000    5.714    0.000    0.429    0.000    3.000 
#    0.000    0.000    0.000    0.000    0.000    0.000 
#
# Total GULP energy -311938.681695 kJ/mol
# GULP energy per Si atom -5570.333602 kJ/mol
# Density = 1.820480 g / cm^3
# Si number density = 18.246333 Si / 1000 Ang^3
#
#
#
# Elastic Constant Matrix: (Units=GPa)
#
#
# Indices 1 2 3 4 5 6 
#
# 1 46.4542 21.6521 25.8956 0.0000 0.0000 0.0000
# 2 21.6521 108.8804 48.7629 0.0000 0.0000 0.0000
# 3 25.8956 48.7629 89.3064 0.0000 0.0000 0.0000
# 4 0.0000 0.0000 0.0000 -10.6678 0.0000 0.0000
# 5 0.0000 0.0000 0.0000 0.0000 4.4385 0.0000
# 6 0.0000 0.0000 0.0000 0.0000 0.0000 4.1863
#
#
#
# Elastic Compliance Matrix: (Units=1/GPa)
#
#
# Indices 1 2 3 4 5 6 
#
# 1 0.026137 -0.002387 -0.006275 0.000000 0.000000 0.000000
# 2 -0.002387 0.012375 -0.006065 0.000000 0.000000 0.000000
# 3 -0.006275 -0.006065 0.016329 0.000000 0.000000 0.000000
# 4 0.000000 0.000000 0.000000 -0.093740 0.000000 0.000000
# 5 0.000000 0.000000 0.000000 0.000000 0.225303 0.000000
# 6 0.000000 0.000000 0.000000 0.000000 0.000000 0.238872
#
#
# Mechanical properties :
#
#
# Convention : Reuss Voigt Hill
#
# Bulk Modulus (GPa) = 39.39148 48.58469 43.98808
# Shear Modulus (GPa) = 10.79464 9.48010 10.13737
#
# Velocity S-wave (km/s) = 2.43493 2.28186 2.35964
# Velocity P-wave (km/s) = 5.43514 5.79892 5.61997
#
# Compressibility (1/GPa) = 0.02538620
#
# Stress axis : x y z
#
# Youngs Moduli (GPa) = 38.25926 80.80571 61.24209
#
# Poissons Ratio (x) = 0.19290 0.38432
# Poissons Ratio (y) = 0.09133 0.37143
# Poissons Ratio (z) = 0.24009 0.49008
#
# Static dielectric constant tensor:
#      x y z
#    x 1.627050 0.000000 0.000000 
#    y 0.000000 1.652990 0.000000 
#    z 0.000000 0.000000 1.638530 
# 
# From -- ./inp_files/69531.got.cif
#   From: 2010.05.17/outbox.cif.g08.bks.cpg/sg66_35_cif.got.tgz:69531.got - 2010.06.03 17:51:23.
