data_PCOD9496222
_publ_section_title
;
Structure prediction by ZEFSAII (Michael W. Deem and Ramdas Pophale) SiO2 
 PCOD9496222
Probable space group: C C C M
;
_chemical_formula_sum "Si O2"
_cell_formula_units_Z 116
_cell_length_a 24.865013
_cell_length_b 30.743332
_cell_length_c 7.826987
_cell_angle_alpha 90.000000
_cell_angle_beta 90.000000
_cell_angle_gamma 90.000000
_cell_volume 5983.209892
_symmetry_space_group_name_H-M "C C C M"
_symmetry_group_IT_number 66
_symmetry_cell_setting 'orthorhombic'
loop_
_space_group_symop_operation_xyz
x,y,z
-x,-y,z
x,-y,1/2-z
-x,y,1/2-z
-x,-y,-z
x,y,-z
-x,y,1/2+z
x,-y,1/2+z
1/2+x,1/2+y,z
1/2-x,1/2-y,z
1/2+x,1/2-y,1/2-z
1/2-x,1/2+y,1/2-z
1/2-x,1/2-y,-z
1/2+x,1/2+y,-z
1/2-x,1/2+y,1/2+z
1/2+x,1/2-y,1/2+z
loop_
_atom_site_type_symbol
_atom_site_label
_atom_site_fract_x
_atom_site_fract_y
_atom_site_fract_z
Si Si1 0.250000 0.750000 0.500000
Si Si2 0.861039 0.139369 0.297576
Si Si3 0.937780 0.783702 0.794642
Si Si4 0.763955 0.190243 0.801058
Si Si5 0.656843 0.547551 0.702694
Si Si6 0.938021 0.686706 0.203280
Si Si7 0.335301 0.864331 0.203519
Si Si8 0.219838 0.451924 0.705783
O O1 0.217555 0.775985 0.655917
O O2 0.854689 0.144250 0.500000
O O3 0.901807 0.176324 0.232357
O O4 0.804381 0.149716 0.208208
O O5 0.875551 0.089475 0.264166
O O6 0.923230 0.735191 0.729006
O O7 0.000000 0.790589 0.750000
O O8 0.933220 0.782796 0.000000
O O9 0.706069 0.173011 0.735404
O O10 0.761859 0.204176 0.000000
O O11 0.635633 0.500000 0.750000
O O12 0.659969 0.549915 0.500000
O O13 0.718542 0.550560 0.772002
O O14 0.895545 0.650770 0.261191
O O15 0.000000 0.677988 0.250000
O O16 0.934673 0.688587 0.000000
O O17 0.315736 0.911300 0.269149
O O18 0.327833 0.865064 0.000000
O O19 0.198848 0.500000 0.750000
O O20 0.221739 0.449310 0.500000
#
# Coordination Sequence:
#
# PCOD9496222 Si02
#       8
#     4  16  16  16  16  16  16  16
#     4  12  26  40  52  78 124 156 202 236 288 348
#     4  11  21  36  57  84 118 152 191 242 288 347
#     4   9  21  38  57  80 109 145 193 241 286 338
#     4  11  24  39  56  82 117 160 196 235 291 348
#     4  10  19  34  54  81 114 151 191 234 288 349
#     4  10  21  37  58  81 109 147 193 238 285 335
#     4  10  21  37  56  81 115 147 189 236 281 343
#     4   9  18  33  52  78 111 144 182 227 277 340
#
# _framework density 19.387588000000001
#
# number of rings (size 3 to 8) (size 9 to 14) (size 15 to 20)
#    0.000    1.931    2.069    1.448    2.897    2.759 
#    0.000    0.000    0.000    0.828    0.000    5.793 
#    0.000    0.000    0.000    0.000    0.000    0.000 
#
# Total GULP energy -323070.429847 kJ/mol
# GULP energy per Si atom -5570.179825 kJ/mol
# Density = 1.934346 g / cm^3
# Si number density = 19.387588 Si / 1000 Ang^3
#
#
#
# Elastic Constant Matrix: (Units=GPa)
#
#
# Indices 1 2 3 4 5 6 
#
# 1 41.2765 21.4470 -2.6473 0.0000 0.0000 0.0000
# 2 21.4470 100.8857 13.4042 0.0000 0.0000 0.0000
# 3 -2.6473 13.4042 64.2104 0.0000 0.0000 0.0000
# 4 0.0000 0.0000 0.0000 20.6468 0.0000 0.0000
# 5 0.0000 0.0000 0.0000 0.0000 -13.5743 0.0000
# 6 0.0000 0.0000 0.0000 0.0000 0.0000 18.2985
#
#
#
# Elastic Compliance Matrix: (Units=1/GPa)
#
#
# Indices 1 2 3 4 5 6 
#
# 1 0.027599 -0.006190 0.002430 0.000000 0.000000 0.000000
# 2 -0.006190 0.011583 -0.002673 0.000000 0.000000 0.000000
# 3 0.002430 -0.002673 0.016232 0.000000 0.000000 0.000000
# 4 0.000000 0.000000 0.000000 0.048434 0.000000 0.000000
# 5 0.000000 0.000000 0.000000 0.000000 -0.073669 0.000000
# 6 0.000000 0.000000 0.000000 0.000000 0.000000 0.054649
#
#
# Mechanical properties :
#
#
# Convention : Reuss Voigt Hill
#
# Bulk Modulus (GPa) = 23.50297 30.08673 26.79485
# Shear Modulus (GPa) = 44.69155 16.68544 30.68849
#
# Velocity S-wave (km/s) = 4.80642 2.93682 3.98288
# Velocity P-wave (km/s) = 6.55372 5.20117 5.91622
#
# Compressibility (1/GPa) = 0.04254781
#
# Stress axis : x y z
#
# Youngs Moduli (GPa) = 36.23318 86.33100 61.60652
#
# Poissons Ratio (x) = 0.53439 -0.14971
# Poissons Ratio (y) = 0.22429 0.16469
# Poissons Ratio (z) = -0.08805 0.23079
#
# Static dielectric constant tensor:
#      x y z
#    x 1.648880 0.000000 0.000000 
#    y 0.000000 1.764770 0.000000 
#    z 0.000000 0.000000 1.698920 
# 
# From -- ./inp_files/9659.got.cif
#   From: 2010.05.17/outbox.cif.g08.bks.cpg/sg66_5_cif.got.tgz:9659.got - 2010.06.03 17:51:23.
