data_PCOD9496319
_publ_section_title
;
Structure prediction by ZEFSAII (Michael W. Deem and Ramdas Pophale) SiO2 
 PCOD9496319
Probable space group: C C C M
;
_chemical_formula_sum "Si O2"
_cell_formula_units_Z 112
_cell_length_a 30.804217
_cell_length_b 11.447935
_cell_length_c 15.451447
_cell_angle_alpha 90.000000
_cell_angle_beta 90.000000
_cell_angle_gamma 90.000000
_cell_volume 5448.870489
_symmetry_space_group_name_H-M "C C C M"
_symmetry_group_IT_number 66
_symmetry_cell_setting 'orthorhombic'
loop_
_space_group_symop_operation_xyz
x,y,z
-x,-y,z
x,-y,1/2-z
-x,y,1/2-z
-x,-y,-z
x,y,-z
-x,y,1/2+z
x,-y,1/2+z
1/2+x,1/2+y,z
1/2-x,1/2-y,z
1/2+x,1/2-y,1/2-z
1/2-x,1/2+y,1/2-z
1/2-x,1/2-y,-z
1/2+x,1/2+y,-z
1/2-x,1/2+y,1/2+z
1/2+x,1/2-y,1/2+z
loop_
_atom_site_type_symbol
_atom_site_label
_atom_site_fract_x
_atom_site_fract_y
_atom_site_fract_z
Si Si1 0.587188 0.620110 0.767417
Si Si2 0.657722 0.895474 0.097652
Si Si3 0.250469 0.610255 0.685745
Si Si4 0.969590 0.744460 0.095888
Si Si5 0.340817 0.382308 0.904703
Si Si6 0.070455 0.244527 0.403224
Si Si7 0.932717 0.490142 0.348933
O O1 0.562407 0.500000 0.750000
O O2 0.558614 0.702298 0.827912
O O3 0.628608 0.581780 0.825183
O O4 0.595397 0.685680 0.676858
O O5 0.703961 0.913123 0.142048
O O6 0.651973 0.756670 0.091400
O O7 0.616589 0.942736 0.149041
O O8 0.657001 0.944093 0.000000
O O9 0.257212 0.500000 0.750000
O O10 0.250000 0.750000 0.716030
O O11 0.290401 0.602332 0.618820
O O12 0.962847 0.605052 0.104198
O O13 0.019208 0.784126 0.104661
O O14 0.953894 0.779598 0.000000
O O15 0.350910 0.431968 0.000000
O O16 0.085384 0.212429 0.500000
O O17 0.070127 0.383994 0.392282
O O18 0.947375 0.500000 0.250000
#
# Coordination Sequence:
#
# PCOD9496319 Si02
#       7
#    16  16  16  16  16  16  16
#     4  12  25  41  62  86 118 164 218 268 319 370
#     4  10  19  34  60  92 124 161 207 261 315 379
#     4  10  21  37  60  92 128 167 213 265 326 385
#     4  11  23  41  63  87 120 163 209 256 315 386
#     4  10  20  39  64  91 122 162 218 269 314 379
#     4  11  25  41  60  91 127 161 201 258 324 388
#     4  12  21  36  63  94 126 160 202 255 323 383
#
# _framework density 20.554718000000001
#
# number of rings (size 3 to 8) (size 9 to 14) (size 15 to 20)
#    0.000    1.143    2.857    3.857    0.000    6.857 
#    0.000    1.429    0.000    1.714    0.000    0.000 
#    0.000    0.000    0.000    0.000    0.000    0.000 
#
# Total GULP energy -312615.848986 kJ/mol
# GULP energy per Si atom -5582.425875 kJ/mol
# Density = 2.050793 g / cm^3
# Si number density = 20.554718 Si / 1000 Ang^3
#
#
#
# Elastic Constant Matrix: (Units=GPa)
#
#
# Indices 1 2 3 4 5 6 
#
# 1 77.6652 1.5809 29.3206 0.0000 0.0000 0.0000
# 2 1.5809 73.4795 34.8385 0.0000 0.0000 0.0000
# 3 29.3206 34.8385 150.7534 0.0000 0.0000 0.0000
# 4 0.0000 0.0000 0.0000 -8.4127 0.0000 0.0000
# 5 0.0000 0.0000 0.0000 0.0000 20.1507 0.0000
# 6 0.0000 0.0000 0.0000 0.0000 0.0000 10.3723
#
#
#
# Elastic Compliance Matrix: (Units=1/GPa)
#
#
# Indices 1 2 3 4 5 6 
#
# 1 0.013976 0.001110 -0.002975 0.000000 0.000000 0.000000
# 2 0.001110 0.015372 -0.003768 0.000000 0.000000 0.000000
# 3 -0.002975 -0.003768 0.008083 0.000000 0.000000 0.000000
# 4 0.000000 0.000000 0.000000 -0.118867 0.000000 0.000000
# 5 0.000000 0.000000 0.000000 0.000000 0.049626 0.000000
# 6 0.000000 0.000000 0.000000 0.000000 0.000000 0.096411
#
#
# Mechanical properties :
#
#
# Convention : Reuss Voigt Hill
#
# Bulk Modulus (GPa) = 38.21989 48.15316 43.18652
# Shear Modulus (GPa) = 59.10964 20.16592 39.63778
#
# Velocity S-wave (km/s) = 5.36839 3.13562 4.39612
# Velocity P-wave (km/s) = 7.55386 6.04874 6.84281
#
# Compressibility (1/GPa) = 0.02616439
#
# Stress axis : x y z
#
# Youngs Moduli (GPa) = 71.55008 65.05349 123.72043
#
# Poissons Ratio (x) = -0.07219 0.36804
# Poissons Ratio (y) = -0.07940 0.46621
# Poissons Ratio (z) = 0.21284 0.24514
#
# Static dielectric constant tensor:
#      x y z
#    x 1.740760 0.000000 0.000000 
#    y 0.000000 1.756530 0.000000 
#    z 0.000000 0.000000 1.790280 
# 
# From -- ./inp_files/27029.got.cif
#   From: 2010.05.17/outbox.cif.g08.bks.cpg/sg66_14_cif.got.tgz:27029.got - 2010.06.03 17:51:23.
