data_PCOD9496224
_publ_section_title
;
Structure prediction by ZEFSAII (Michael W. Deem and Ramdas Pophale) SiO2 
 PCOD9496224
Probable space group: C C C M
;
_chemical_formula_sum "Si O2"
_cell_formula_units_Z 96
_cell_length_a 14.187282
_cell_length_b 20.532669
_cell_length_c 16.695974
_cell_angle_alpha 90.000000
_cell_angle_beta 90.000000
_cell_angle_gamma 90.000000
_cell_volume 4863.583396
_symmetry_space_group_name_H-M "C C C M"
_symmetry_group_IT_number 66
_symmetry_cell_setting 'orthorhombic'
loop_
_space_group_symop_operation_xyz
x,y,z
-x,-y,z
x,-y,1/2-z
-x,y,1/2-z
-x,-y,-z
x,y,-z
-x,y,1/2+z
x,-y,1/2+z
1/2+x,1/2+y,z
1/2-x,1/2-y,z
1/2+x,1/2-y,1/2-z
1/2-x,1/2+y,1/2-z
1/2-x,1/2-y,-z
1/2+x,1/2+y,-z
1/2-x,1/2+y,1/2+z
1/2+x,1/2-y,1/2+z
loop_
_atom_site_type_symbol
_atom_site_label
_atom_site_fract_x
_atom_site_fract_y
_atom_site_fract_z
Si Si1 0.496278 0.283203 0.408821
Si Si2 0.897165 0.483279 0.343516
Si Si3 0.901609 0.882299 0.705202
Si Si4 0.299936 0.484772 0.408613
Si Si5 0.385817 0.841029 0.593746
Si Si6 0.819401 0.862532 0.127730
O O1 0.460867 0.277579 0.500000
O O2 0.424664 0.319668 0.349920
O O3 0.539729 0.214044 0.381531
O O4 0.588747 0.328810 0.407827
O O5 0.891042 0.500000 0.250000
O O6 0.811093 0.518897 0.387565
O O7 0.890878 0.406163 0.354921
O O8 0.000000 0.500000 0.375672
O O9 0.830409 0.864142 0.776248
O O10 0.000000 0.900463 0.750000
O O11 0.860676 0.940949 0.651947
O O12 0.318487 0.465150 0.500000
O O13 0.319355 0.561941 0.399090
O O14 0.403382 0.855401 0.500000
O O15 0.274834 0.825354 0.601478
#
# Coordination Sequence:
#
# PCOD9496224 Si02
#       6
#    16  16  16  16  16  16
#     4  10  20  35  56  83 116 152 197 242 290 355
#     4  10  21  39  60  92 116 151 193 249 308 355
#     4  10  22  37  54  82 124 166 196 242 301 368
#     4  11  21  35  60  87 120 159 201 250 298 362
#     4  10  20  36  61  86 114 149 194 252 297 346
#     4  10  19  34  54  84 115 152 196 243 298 346
#
# _framework density 19.738533
#
# number of rings (size 3 to 8) (size 9 to 14) (size 15 to 20)
#    0.000    1.833    0.000    6.500    0.000    7.333 
#    9.000    4.167    0.000    0.000    0.000    3.500 
#    0.000    0.000    0.000    0.000    0.000    0.000 
#
# Total GULP energy -267913.153327 kJ/mol
# GULP energy per Si atom -5581.524028 kJ/mol
# Density = 1.969361 g / cm^3
# Si number density = 19.738533 Si / 1000 Ang^3
#
#
#
# Elastic Constant Matrix: (Units=GPa)
#
#
# Indices 1 2 3 4 5 6 
#
# 1 49.4200 24.5626 27.2796 0.0000 0.0000 0.0000
# 2 24.5626 87.8081 49.1646 0.0000 0.0000 0.0000
# 3 27.2796 49.1646 106.6176 0.0000 0.0000 0.0000
# 4 0.0000 0.0000 0.0000 26.2796 0.0000 0.0000
# 5 0.0000 0.0000 0.0000 0.0000 29.0968 0.0000
# 6 0.0000 0.0000 0.0000 0.0000 0.0000 7.4375
#
#
#
# Elastic Compliance Matrix: (Units=1/GPa)
#
#
# Indices 1 2 3 4 5 6 
#
# 1 0.024854 -0.004572 -0.004251 0.000000 0.000000 0.000000
# 2 -0.004572 0.016193 -0.006297 0.000000 0.000000 0.000000
# 3 -0.004251 -0.006297 0.013371 0.000000 0.000000 0.000000
# 4 0.000000 0.000000 0.000000 0.038052 0.000000 0.000000
# 5 0.000000 0.000000 0.000000 0.000000 0.034368 0.000000
# 6 0.000000 0.000000 0.000000 0.000000 0.000000 0.134453
#
#
# Mechanical properties :
#
#
# Convention : Reuss Voigt Hill
#
# Bulk Modulus (GPa) = 41.36151 49.53992 45.45071
# Shear Modulus (GPa) = 16.68942 22.08538 19.38740
#
# Velocity S-wave (km/s) = 2.91095 3.34862 3.13742
# Velocity P-wave (km/s) = 5.68316 6.33274 6.01672
#
# Compressibility (1/GPa) = 0.02417707
#
# Stress axis : x y z
#
# Youngs Moduli (GPa) = 40.23567 61.75333 74.78959
#
# Poissons Ratio (x) = 0.28235 0.31791
# Poissons Ratio (y) = 0.18397 0.47098
# Poissons Ratio (z) = 0.17103 0.38889
#
# Static dielectric constant tensor:
#      x y z
#    x 1.755070 0.000000 0.000000 
#    y 0.000000 1.693870 0.000000 
#    z 0.000000 0.000000 1.703260 
# 
# From -- ./inp_files/28364.got.cif
#   From: 2010.05.17/outbox.cif.g08.bks.cpg/sg66_15_cif.got.tgz:28364.got - 2010.06.03 17:51:23.
