data_PCOD9496220
_publ_section_title
;
Structure prediction by ZEFSAII (Michael W. Deem and Ramdas Pophale) SiO2 
 PCOD9496220
Probable space group: C C C M
;
_chemical_formula_sum "Si O2"
_cell_formula_units_Z 92
_cell_length_a 9.694850
_cell_length_b 24.327458
_cell_length_c 15.106810
_cell_angle_alpha 90.000000
_cell_angle_beta 90.000000
_cell_angle_gamma 90.000000
_cell_volume 3562.957094
_symmetry_space_group_name_H-M "C C C M"
_symmetry_group_IT_number 66
_symmetry_cell_setting 'orthorhombic'
loop_
_space_group_symop_operation_xyz
x,y,z
-x,-y,z
x,-y,1/2-z
-x,y,1/2-z
-x,-y,-z
x,y,-z
-x,y,1/2+z
x,-y,1/2+z
1/2+x,1/2+y,z
1/2-x,1/2-y,z
1/2+x,1/2-y,1/2-z
1/2-x,1/2+y,1/2-z
1/2-x,1/2-y,-z
1/2+x,1/2+y,-z
1/2-x,1/2+y,1/2+z
1/2+x,1/2-y,1/2+z
loop_
_atom_site_type_symbol
_atom_site_label
_atom_site_fract_x
_atom_site_fract_y
_atom_site_fract_z
Si Si1 0.487238 0.820267 0.606874
Si Si2 0.670746 0.927312 0.156422
Si Si3 0.250000 0.750000 0.364225
Si Si4 0.421118 0.355447 0.099825
Si Si5 0.238999 0.545101 0.150269
Si Si6 0.000000 0.000000 0.250000
Si Si7 0.713971 0.663212 0.402275
O O1 0.474488 0.808003 0.500000
O O2 0.436004 0.883199 0.618888
O O3 0.383695 0.784425 0.666488
O O4 0.646037 0.810453 0.632870
O O5 0.822182 0.899567 0.145095
O O6 0.343143 0.937978 0.239179
O O7 0.677163 0.988132 0.114651
O O8 0.330074 0.699195 0.408106
O O9 0.565928 0.338224 0.144397
O O10 0.451475 0.375997 0.000000
O O11 0.393707 0.531872 0.185891
O O12 0.246646 0.598886 0.092337
O O13 0.690574 0.686933 0.500000
#
# Coordination Sequence:
#
# PCOD9496220 Si02
#       7
#    16  16   8  16  16   4  16
#     4  10  20  36  56  82 110 142 181 227 274 324
#     4   9  19  34  58  80 105 146 192 222 256 322
#     4  10  19  36  62  82 104 140 185 226 273 328
#     4  10  19  34  57  86 111 141 181 225 271 324
#     4  10  19  34  54  79 111 148 183 223 269 315
#     4   8  16  32  54  78 104 144 188 216 256 316
#     4  10  22  34  50  80 116 143 175 224 278 325
#
# _framework density 25.821249000000002
#
# number of rings (size 3 to 8) (size 9 to 14) (size 15 to 20)
#    0.000    2.435    0.000    5.217    0.000    3.478 
#    0.000   10.000    0.000   16.696    0.000    0.000 
#    0.000    0.000    0.000    0.000    0.000    0.000 
#
# Total GULP energy -256620.833145 kJ/mol
# GULP energy per Si atom -5578.713764 kJ/mol
# Density = 2.576248 g / cm^3
# Si number density = 25.821249 Si / 1000 Ang^3
#
#
#
# Elastic Constant Matrix: (Units=GPa)
#
#
# Indices 1 2 3 4 5 6 
#
# 1 227.3885 19.7320 16.0179 0.0000 0.0000 0.0000
# 2 19.7320 100.0549 16.2299 0.0000 0.0000 0.0000
# 3 16.0179 16.2299 70.7005 0.0000 0.0000 0.0000
# 4 0.0000 0.0000 0.0000 5.3141 0.0000 0.0000
# 5 0.0000 0.0000 0.0000 0.0000 10.4015 0.0000
# 6 0.0000 0.0000 0.0000 0.0000 0.0000 29.2806
#
#
#
# Elastic Compliance Matrix: (Units=1/GPa)
#
#
# Indices 1 2 3 4 5 6 
#
# 1 0.004523 -0.000754 -0.000852 0.000000 0.000000 0.000000
# 2 -0.000754 0.010507 -0.002241 0.000000 0.000000 0.000000
# 3 -0.000852 -0.002241 0.014852 0.000000 0.000000 0.000000
# 4 0.000000 0.000000 0.000000 0.188180 0.000000 0.000000
# 5 0.000000 0.000000 0.000000 0.000000 0.096140 0.000000
# 6 0.000000 0.000000 0.000000 0.000000 0.000000 0.034152
#
#
# Mechanical properties :
#
#
# Convention : Reuss Voigt Hill
#
# Bulk Modulus (GPa) = 45.06920 55.78929 50.42924
# Shear Modulus (GPa) = 13.75731 32.07683 22.91707
#
# Velocity S-wave (km/s) = 2.31073 3.52840 2.98237
# Velocity P-wave (km/s) = 4.96100 6.18485 5.60642
#
# Compressibility (1/GPa) = 0.02218810
#
# Stress axis : x y z
#
# Youngs Moduli (GPa) = 221.08361 95.17724 67.33282
#
# Poissons Ratio (x) = 0.07175 0.05735
# Poissons Ratio (y) = 0.16667 0.15090
# Poissons Ratio (z) = 0.18830 0.21330
#
# Static dielectric constant tensor:
#      x y z
#    x 2.088650 0.000000 0.000000 
#    y 0.000000 2.029720 0.000000 
#    z 0.000000 0.000000 2.011340 
# 
# From -- ./inp_files/55705.got.cif
#   From: 2010.05.17/outbox.cif.g08.bks.cpg/sg66_28_cif.got.tgz:55705.got - 2010.06.03 17:51:23.
