data_PCOD9496840
_publ_section_title
;
Structure prediction by ZEFSAII (Michael W. Deem and Ramdas Pophale) SiO2 
 PCOD9496840
Probable space group: C C C M
;
_chemical_formula_sum "Si O2"
_cell_formula_units_Z 104
_cell_length_a 22.353213
_cell_length_b 26.851284
_cell_length_c 9.687822
_cell_angle_alpha 90.000000
_cell_angle_beta 90.000000
_cell_angle_gamma 90.000000
_cell_volume 5814.751577
_symmetry_space_group_name_H-M "C C C M"
_symmetry_group_IT_number 66
_symmetry_cell_setting 'orthorhombic'
loop_
_space_group_symop_operation_xyz
x,y,z
-x,-y,z
x,-y,1/2-z
-x,y,1/2-z
-x,-y,-z
x,y,-z
-x,y,1/2+z
x,-y,1/2+z
1/2+x,1/2+y,z
1/2-x,1/2-y,z
1/2+x,1/2-y,1/2-z
1/2-x,1/2+y,1/2-z
1/2-x,1/2-y,-z
1/2+x,1/2+y,-z
1/2-x,1/2+y,1/2+z
1/2+x,1/2-y,1/2+z
loop_
_atom_site_type_symbol
_atom_site_label
_atom_site_fract_x
_atom_site_fract_y
_atom_site_fract_z
Si Si1 0.688570 0.228317 0.840973
Si Si2 0.690270 0.050279 0.663981
Si Si3 0.620597 0.852113 0.838401
Si Si4 0.556791 0.383921 0.665423
Si Si5 0.173069 0.050631 0.164250
Si Si6 0.927649 0.790354 0.649584
Si Si7 0.500000 0.801297 0.750000
O O1 0.750000 0.250000 0.785423
O O2 0.661270 0.184641 0.750757
O O3 0.640277 0.272378 0.842575
O O4 0.697461 0.211827 0.000000
O O5 0.686544 0.039835 0.500000
O O6 0.641045 0.092035 0.698042
O O7 0.758708 0.068991 0.690875
O O8 0.681980 0.000000 0.750000
O O9 0.551946 0.835765 0.812840
O O10 0.633406 0.845331 0.000000
O O11 0.500000 0.405778 0.750000
O O12 0.548694 0.385545 0.500000
O O13 0.619174 0.411744 0.698136
O O14 0.561392 0.327614 0.724302
O O15 0.165460 0.000000 0.250000
O O16 0.169295 0.040368 0.000000
O O17 0.938676 0.814777 0.500000
O O18 0.965404 0.739028 0.655020
#
# Coordination Sequence:
#
# PCOD9496840 Si02
#       7
#    16  16  16  16  16  16   8
#     4   9  20  36  52  79 116 148 182 228 280 336
#     4   9  19  38  61  86 114 142 184 231 282 340
#     4  10  21  36  59  86 112 149 193 237 282 336
#     4  11  23  36  54  79 109 145 187 232 279 328
#     4   9  20  38  58  81 108 142 180 229 283 336
#     4  10  20  34  53  75 107 148 188 225 267 326
#     4  10  20  36  57  80 113 148 190 228 280 328
#
# _framework density 17.885543999999999
#
# number of rings (size 3 to 8) (size 9 to 14) (size 15 to 20)
#    0.000    2.308    0.769    0.923    2.154    5.538 
#    0.000    1.923    0.000    1.846    0.000    0.000 
#    0.000    0.000    0.000    0.000    0.000    0.000 
#
# Total GULP energy -289681.001947 kJ/mol
# GULP energy per Si atom -5570.788499 kJ/mol
# Density = 1.784484 g / cm^3
# Si number density = 17.885544 Si / 1000 Ang^3
#
#
#
# Elastic Constant Matrix: (Units=GPa)
#
#
# Indices 1 2 3 4 5 6 
#
# 1 123.1378 57.6871 29.7775 0.0000 0.0000 0.0000
# 2 57.6871 78.1616 32.0156 0.0000 0.0000 0.0000
# 3 29.7775 32.0156 63.4848 0.0000 0.0000 0.0000
# 4 0.0000 0.0000 0.0000 25.6954 0.0000 0.0000
# 5 0.0000 0.0000 0.0000 0.0000 24.1122 0.0000
# 6 0.0000 0.0000 0.0000 0.0000 0.0000 28.0410
#
#
#
# Elastic Compliance Matrix: (Units=1/GPa)
#
#
# Indices 1 2 3 4 5 6 
#
# 1 0.012530 -0.008621 -0.001529 0.000000 0.000000 0.000000
# 2 -0.008621 0.022056 -0.007080 0.000000 0.000000 0.000000
# 3 -0.001529 -0.007080 0.020039 0.000000 0.000000 0.000000
# 4 0.000000 0.000000 0.000000 0.038918 0.000000 0.000000
# 5 0.000000 0.000000 0.000000 0.000000 0.041473 0.000000
# 6 0.000000 0.000000 0.000000 0.000000 0.000000 0.035662
#
#
# Mechanical properties :
#
#
# Convention : Reuss Voigt Hill
#
# Bulk Modulus (GPa) = 49.58913 55.97160 52.78036
# Shear Modulus (GPa) = 23.60056 25.25666 24.42861
#
# Velocity S-wave (km/s) = 3.63648 3.76190 3.69972
# Velocity P-wave (km/s) = 6.73929 7.08742 6.91554
#
# Compressibility (1/GPa) = 0.02016571
#
# Stress axis : x y z
#
# Youngs Moduli (GPa) = 79.81141 45.33811 49.90172
#
# Poissons Ratio (x) = 0.39086 0.07632
# Poissons Ratio (y) = 0.68805 0.35328
# Poissons Ratio (z) = 0.12206 0.32097
#
# Static dielectric constant tensor:
#      x y z
#    x 1.645180 0.000000 0.000000 
#    y 0.000000 1.586250 0.000000 
#    z 0.000000 0.000000 1.614700 
# 
# From -- ./inp_files/9353.got.cif
#   From: 2010.05.17/outbox.cif.g08.bks.cpg/sg66_5_cif.got.tgz:9353.got - 2010.06.03 17:51:23.
