data_PCOD9496628
_publ_section_title
;
Structure prediction by ZEFSAII (Michael W. Deem and Ramdas Pophale) SiO2 
 PCOD9496628
Probable space group: C C C M
;
_chemical_formula_sum "Si O2"
_cell_formula_units_Z 96
_cell_length_a 6.874153
_cell_length_b 25.972662
_cell_length_c 24.507112
_cell_angle_alpha 90.000000
_cell_angle_beta 90.000000
_cell_angle_gamma 90.000000
_cell_volume 4375.501061
_symmetry_space_group_name_H-M "C C C M"
_symmetry_group_IT_number 66
_symmetry_cell_setting 'orthorhombic'
loop_
_space_group_symop_operation_xyz
x,y,z
-x,-y,z
x,-y,1/2-z
-x,y,1/2-z
-x,-y,-z
x,y,-z
-x,y,1/2+z
x,-y,1/2+z
1/2+x,1/2+y,z
1/2-x,1/2-y,z
1/2+x,1/2-y,1/2-z
1/2-x,1/2+y,1/2-z
1/2-x,1/2-y,-z
1/2+x,1/2+y,-z
1/2-x,1/2+y,1/2+z
1/2+x,1/2-y,1/2+z
loop_
_atom_site_type_symbol
_atom_site_label
_atom_site_fract_x
_atom_site_fract_y
_atom_site_fract_z
Si Si1 0.575342 0.329425 0.116655
Si Si2 0.616167 0.138970 0.383127
Si Si3 0.026740 0.793107 0.000000
Si Si4 0.169214 0.927562 0.937248
Si Si5 0.525617 0.234826 0.314486
Si Si6 0.287560 0.958798 0.563190
Si Si7 0.597943 0.824422 0.000000
O O1 0.345295 0.344707 0.119924
O O2 0.620397 0.303750 0.057983
O O3 0.684045 0.384305 0.109872
O O4 0.592977 0.284020 0.161203
O O5 0.507440 0.178222 0.342209
O O6 0.623506 0.077052 0.389053
O O7 0.538468 0.152906 0.443021
O O8 0.832597 0.827694 0.000000
O O9 0.960001 0.734692 0.000000
O O10 0.942317 0.944255 0.936901
O O11 0.291671 0.979720 0.928985
O O12 0.203916 0.909008 0.000000
O O13 0.500000 0.231158 0.250000
O O14 0.750000 0.250000 0.325653
O O15 0.351525 0.947817 0.500000
#
# Coordination Sequence:
#
# PCOD9496628 Si02
#       7
#    16  16   8  16  16  16   8
#     4   9  14  21  35  56  84 116 148 186 235 294
#     4   9  14  21  35  56  84 117 151 191 236 283
#     4   9  12  16  29  53  81 107 140 180 231 287
#     4   8  12  17  28  52  88 121 139 165 225 296
#     4  10  20  31  43  61  86 121 166 209 243 279
#     4   8  12  17  28  52  88 121 141 167 221 290
#     4   9  12  16  29  53  81 107 142 186 231 278
#
# _framework density 21.940344
#
# number of rings (size 3 to 8) (size 9 to 14) (size 15 to 20)
#    0.000    3.167    3.333    1.000    0.000    0.000 
#    0.000    0.000    0.000    0.000    0.000   23.333 
#    0.000    2.667    0.000    3.667    0.000    3.333 
#
# Total GULP energy -267652.425378 kJ/mol
# GULP energy per Si atom -5576.092195 kJ/mol
# Density = 2.189041 g / cm^3
# Si number density = 21.940344 Si / 1000 Ang^3
#
#
#
# Elastic Constant Matrix: (Units=GPa)
#
#
# Indices 1 2 3 4 5 6 
#
# 1 77.9083 37.3373 4.0689 0.0000 0.0000 0.0000
# 2 37.3373 186.1068 90.6183 0.0000 0.0000 0.0000
# 3 4.0689 90.6183 119.1997 0.0000 0.0000 0.0000
# 4 0.0000 0.0000 0.0000 15.0993 0.0000 0.0000
# 5 0.0000 0.0000 0.0000 0.0000 14.8161 0.0000
# 6 0.0000 0.0000 0.0000 0.0000 0.0000 47.0147
#
#
#
# Elastic Compliance Matrix: (Units=1/GPa)
#
#
# Indices 1 2 3 4 5 6 
#
# 1 0.014757 -0.004311 0.002774 0.000000 0.000000 0.000000
# 2 -0.004311 0.009791 -0.007296 0.000000 0.000000 0.000000
# 3 0.002774 -0.007296 0.013841 0.000000 0.000000 0.000000
# 4 0.000000 0.000000 0.000000 0.066228 0.000000 0.000000
# 5 0.000000 0.000000 0.000000 0.000000 0.067494 0.000000
# 6 0.000000 0.000000 0.000000 0.000000 0.000000 0.021270
#
#
# Mechanical properties :
#
#
# Convention : Reuss Voigt Hill
#
# Bulk Modulus (GPa) = 48.25814 71.91819 60.08816
# Shear Modulus (GPa) = 22.94055 32.13206 27.53631
#
# Velocity S-wave (km/s) = 3.23706 3.83106 3.54652
# Velocity P-wave (km/s) = 6.00120 7.24013 6.64958
#
# Compressibility (1/GPa) = 0.02072189
#
# Stress axis : x y z
#
# Youngs Moduli (GPa) = 67.76532 102.13818 72.24846
#
# Poissons Ratio (x) = 0.44033 -0.20039
# Poissons Ratio (y) = 0.29214 0.52712
# Poissons Ratio (z) = -0.18796 0.74519
#
# Static dielectric constant tensor:
#      x y z
#    x 2.006180 0.000000 0.000000 
#    y 0.000000 1.880760 0.000000 
#    z 0.000000 0.000000 1.723240 
# 
# From -- ./inp_files/48974.got.cif
#   From: 2010.05.17/outbox.cif.g08.bks.cpg/sg66_25_cif.got.tgz:48974.got - 2010.06.03 17:51:23.
