data_PCOD9496326
_publ_section_title
;
Structure prediction by ZEFSAII (Michael W. Deem and Ramdas Pophale) SiO2 
 PCOD9496326
Probable space group: C C C M
;
_chemical_formula_sum "Si O2"
_cell_formula_units_Z 96
_cell_length_a 16.244666
_cell_length_b 14.035493
_cell_length_c 20.904640
_cell_angle_alpha 90.000000
_cell_angle_beta 90.000000
_cell_angle_gamma 90.000000
_cell_volume 4766.297554
_symmetry_space_group_name_H-M "C C C M"
_symmetry_group_IT_number 66
_symmetry_cell_setting 'orthorhombic'
loop_
_space_group_symop_operation_xyz
x,y,z
-x,-y,z
x,-y,1/2-z
-x,y,1/2-z
-x,-y,-z
x,y,-z
-x,y,1/2+z
x,-y,1/2+z
1/2+x,1/2+y,z
1/2-x,1/2-y,z
1/2+x,1/2-y,1/2-z
1/2-x,1/2+y,1/2-z
1/2-x,1/2-y,-z
1/2+x,1/2+y,-z
1/2-x,1/2+y,1/2+z
1/2+x,1/2-y,1/2+z
loop_
_atom_site_type_symbol
_atom_site_label
_atom_site_fract_x
_atom_site_fract_y
_atom_site_fract_z
Si Si1 0.612386 0.695941 0.371302
Si Si2 0.577325 0.645691 0.136786
Si Si3 0.840654 0.296717 0.000000
Si Si4 0.920381 0.932143 0.000000
Si Si5 0.710667 0.492543 0.133482
Si Si6 0.668937 0.000000 0.250000
Si Si7 0.745450 0.003673 0.000000
Si Si8 0.402549 0.795163 0.741023
O O1 0.521990 0.650251 0.356973
O O2 0.613712 0.761811 0.435000
O O3 0.676518 0.611590 0.383824
O O4 0.635482 0.751625 0.306211
O O5 0.631688 0.553955 0.156559
O O6 0.614730 0.732172 0.177917
O O7 0.586190 0.636129 0.060687
O O8 0.750000 0.250000 0.000000
O O9 0.817374 0.408298 0.000000
O O10 0.000000 0.000000 0.000000
O O11 0.846123 0.008437 0.000000
O O12 0.773640 0.480686 0.189941
O O13 0.758489 0.538234 0.072153
O O14 0.619300 0.904898 0.234881
O O15 0.500000 0.788206 0.750000
#
# Coordination Sequence:
#
# PCOD9496326 Si02
#       8
#    16  16   8   8  16   8   8  16
#     4  11  21  36  59  87 124 157 193 257 320 379
#     4  10  21  38  59  89 123 162 204 247 320 400
#     4  12  21  32  56  91 127 162 209 254 304 374
#     4  10  19  34  62  90 126 166 202 256 333 400
#     4  11  21  35  58  89 119 153 193 251 317 382
#     4  12  25  40  61  80 112 160 210 262 309 362
#     4  10  20  34  49  82 123 152 192 245 298 360
#     4  10  24  42  60  82 115 160 209 257 310 379
#
# _framework density 20.141421000000001
#
# number of rings (size 3 to 8) (size 9 to 14) (size 15 to 20)
#    0.000    1.333    1.667    5.250    0.000    2.000 
#    0.000    5.833    0.000    3.000    0.000    8.167 
#    0.000    0.000    0.000    0.000    0.000    0.000 
#
# Total GULP energy -267263.570574 kJ/mol
# GULP energy per Si atom -5567.991054 kJ/mol
# Density = 2.009558 g / cm^3
# Si number density = 20.141421 Si / 1000 Ang^3
#
#
#
# Elastic Constant Matrix: (Units=GPa)
#
#
# Indices 1 2 3 4 5 6 
#
# 1 33.1747 19.8402 23.0436 0.0000 0.0000 0.0000
# 2 19.8402 105.9547 61.9488 0.0000 0.0000 0.0000
# 3 23.0436 61.9488 142.7415 0.0000 0.0000 0.0000
# 4 0.0000 0.0000 0.0000 3.6262 0.0000 0.0000
# 5 0.0000 0.0000 0.0000 0.0000 7.9238 0.0000
# 6 0.0000 0.0000 0.0000 0.0000 0.0000 22.4115
#
#
#
# Elastic Compliance Matrix: (Units=1/GPa)
#
#
# Indices 1 2 3 4 5 6 
#
# 1 0.035423 -0.004408 -0.003805 0.000000 0.000000 0.000000
# 2 -0.004408 0.013196 -0.005015 0.000000 0.000000 0.000000
# 3 -0.003805 -0.005015 0.009797 0.000000 0.000000 0.000000
# 4 0.000000 0.000000 0.000000 0.275773 0.000000 0.000000
# 5 0.000000 0.000000 0.000000 0.000000 0.126201 0.000000
# 6 0.000000 0.000000 0.000000 0.000000 0.000000 0.044620
#
#
# Mechanical properties :
#
#
# Convention : Reuss Voigt Hill
#
# Bulk Modulus (GPa) = 31.29127 54.61512 42.95320
# Shear Modulus (GPa) = 9.22305 18.59485 13.90895
#
# Velocity S-wave (km/s) = 2.14222 3.04174 2.63071
# Velocity P-wave (km/s) = 4.65707 6.28577 5.53169
#
# Compressibility (1/GPa) = 0.03195779
#
# Stress axis : x y z
#
# Youngs Moduli (GPa) = 28.23022 75.78244 102.07647
#
# Poissons Ratio (x) = 0.33405 0.38845
# Poissons Ratio (y) = 0.12444 0.51193
# Poissons Ratio (z) = 0.10743 0.38006
#
# Static dielectric constant tensor:
#      x y z
#    x 1.713100 0.000000 0.000000 
#    y 0.000000 1.730200 0.000000 
#    z 0.000000 0.000000 1.839030 
# 
# From -- ./inp_files/49945.got.cif
#   From: 2010.05.17/outbox.cif.g08.bks.cpg/sg66_25_cif.got.tgz:49945.got - 2010.06.03 17:51:23.
