data_PCOD9496377
_publ_section_title
;
Structure prediction by ZEFSAII (Michael W. Deem and Ramdas Pophale) SiO2 
 PCOD9496377
Probable space group: C C C M
;
_chemical_formula_sum "Si O2"
_cell_formula_units_Z 112
_cell_length_a 24.708852
_cell_length_b 14.672459
_cell_length_c 15.018886
_cell_angle_alpha 90.000000
_cell_angle_beta 90.000000
_cell_angle_gamma 90.000000
_cell_volume 5444.941192
_symmetry_space_group_name_H-M "C C C M"
_symmetry_group_IT_number 66
_symmetry_cell_setting 'orthorhombic'
loop_
_space_group_symop_operation_xyz
x,y,z
-x,-y,z
x,-y,1/2-z
-x,y,1/2-z
-x,-y,-z
x,y,-z
-x,y,1/2+z
x,-y,1/2+z
1/2+x,1/2+y,z
1/2-x,1/2-y,z
1/2+x,1/2-y,1/2-z
1/2-x,1/2+y,1/2-z
1/2-x,1/2-y,-z
1/2+x,1/2+y,-z
1/2-x,1/2+y,1/2+z
1/2+x,1/2-y,1/2+z
loop_
_atom_site_type_symbol
_atom_site_label
_atom_site_fract_x
_atom_site_fract_y
_atom_site_fract_z
Si Si1 0.649309 0.599167 0.238030
Si Si2 0.471016 0.589078 0.655299
Si Si3 0.186205 0.752809 0.600074
Si Si4 0.686143 0.270203 0.107955
Si Si5 0.110994 0.408393 0.106230
Si Si6 0.392630 0.887197 0.104511
Si Si7 0.505345 0.210265 0.355994
O O1 0.674720 0.500000 0.250000
O O2 0.591069 0.581355 0.188661
O O3 0.675048 0.667466 0.168281
O O4 0.657522 0.650089 0.333441
O O5 0.500000 0.500000 0.612140
O O6 0.500000 0.595668 0.750000
O O7 0.482361 0.687029 0.609889
O O8 0.163643 0.770549 0.500000
O O9 0.250000 0.750000 0.592524
O O10 0.159339 0.658908 0.634147
O O11 0.750000 0.250000 0.124690
O O12 0.653506 0.180271 0.137909
O O13 0.680096 0.285145 0.000000
O O14 0.108419 0.510951 0.143317
O O15 0.055580 0.354873 0.123822
O O16 0.116464 0.416853 0.000000
O O17 0.450122 0.836544 0.112682
O O18 0.381714 0.896254 0.000000
O O19 0.500000 0.216054 0.250000
#
# Coordination Sequence:
#
# PCOD9496377 Si02
#       7
#    16  16  16  16  16  16  16
#     4  12  23  40  68  94 128 170 219 264 318 386
#     4  10  19  35  58  87 123 175 208 256 327 372
#     4  10  23  44  67  94 129 168 214 267 325 383
#     4  10  23  44  66  93 130 169 214 266 323 383
#     4  10  21  39  61  87 121 161 204 258 320 384
#     4  10  22  38  60  87 121 164 204 255 320 384
#     4  11  21  35  59  87 123 157 201 257 314 385
#
# _framework density 20.569552000000002
#
# number of rings (size 3 to 8) (size 9 to 14) (size 15 to 20)
#    0.000    1.571    2.857    3.000    0.000    4.000 
#    0.000    2.857    0.000    2.571    0.000    0.000 
#    0.000    0.000    0.000    0.000    0.000    0.000 
#
# Total GULP energy -312012.436507 kJ/mol
# GULP energy per Si atom -5571.650652 kJ/mol
# Density = 2.052273 g / cm^3
# Si number density = 20.569552 Si / 1000 Ang^3
#
#
#
# Elastic Constant Matrix: (Units=GPa)
#
#
# Indices 1 2 3 4 5 6 
#
# 1 116.5499 67.3662 2.3900 0.0000 0.0000 0.0000
# 2 67.3662 227.6101 40.2119 0.0000 0.0000 0.0000
# 3 2.3900 40.2119 72.1631 0.0000 0.0000 0.0000
# 4 0.0000 0.0000 0.0000 20.6899 0.0000 0.0000
# 5 0.0000 0.0000 0.0000 0.0000 25.7107 0.0000
# 6 0.0000 0.0000 0.0000 0.0000 0.0000 62.5795
#
#
#
# Elastic Compliance Matrix: (Units=1/GPa)
#
#
# Indices 1 2 3 4 5 6 
#
# 1 0.010502 -0.003380 0.001535 0.000000 0.000000 0.000000
# 2 -0.003380 0.005961 -0.003210 0.000000 0.000000 0.000000
# 3 0.001535 -0.003210 0.015595 0.000000 0.000000 0.000000
# 4 0.000000 0.000000 0.000000 0.048333 0.000000 0.000000
# 5 0.000000 0.000000 0.000000 0.000000 0.038894 0.000000
# 6 0.000000 0.000000 0.000000 0.000000 0.000000 0.015980
#
#
# Mechanical properties :
#
#
# Convention : Reuss Voigt Hill
#
# Bulk Modulus (GPa) = 45.55749 70.69548 58.12648
# Shear Modulus (GPa) = 32.74631 42.21968 37.48300
#
# Velocity S-wave (km/s) = 3.99429 4.53540 4.27342
# Velocity P-wave (km/s) = 6.59307 7.86576 7.25737
#
# Compressibility (1/GPa) = 0.02195029
#
# Stress axis : x y z
#
# Youngs Moduli (GPa) = 95.22081 167.76363 64.12242
#
# Poissons Ratio (x) = 0.56696 -0.09845
# Poissons Ratio (y) = 0.32180 0.20581
# Poissons Ratio (z) = -0.14620 0.53846
#
# Static dielectric constant tensor:
#      x y z
#    x 1.156060 0.000000 0.000000 
#    y 0.000000 1.888440 0.000000 
#    z 0.000000 0.000000 1.770050 
# 
# From -- ./inp_files/32432.got.cif
#   From: 2010.05.17/outbox.cif.g08.bks.cpg/sg66_17_cif.got.tgz:32432.got - 2010.06.03 17:51:23.
