data_PCOD9496976
_publ_section_title
;
Structure prediction by ZEFSAII (Michael W. Deem and Ramdas Pophale) SiO2 
 PCOD9496976
Probable space group: C C C M
;
_chemical_formula_sum "Si O2"
_cell_formula_units_Z 96
_cell_length_a 29.715817
_cell_length_b 20.921816
_cell_length_c 8.278771
_cell_angle_alpha 90.000000
_cell_angle_beta 90.000000
_cell_angle_gamma 90.000000
_cell_volume 5146.985244
_symmetry_space_group_name_H-M "C C C M"
_symmetry_group_IT_number 66
_symmetry_cell_setting 'orthorhombic'
loop_
_space_group_symop_operation_xyz
x,y,z
-x,-y,z
x,-y,1/2-z
-x,y,1/2-z
-x,-y,-z
x,y,-z
-x,y,1/2+z
x,-y,1/2+z
1/2+x,1/2+y,z
1/2-x,1/2-y,z
1/2+x,1/2-y,1/2-z
1/2-x,1/2+y,1/2-z
1/2-x,1/2-y,-z
1/2+x,1/2+y,-z
1/2-x,1/2+y,1/2+z
1/2+x,1/2-y,1/2+z
loop_
_atom_site_type_symbol
_atom_site_label
_atom_site_fract_x
_atom_site_fract_y
_atom_site_fract_z
Si Si1 0.409880 0.697550 0.691570
Si Si2 0.131004 0.573210 0.805833
Si Si3 0.216958 0.653196 0.193455
Si Si4 0.448828 0.565998 0.693098
Si Si5 0.690147 0.301232 0.806470
Si Si6 0.051365 0.666661 0.305833
O O1 0.418739 0.698662 0.500000
O O2 0.430182 0.632407 0.760255
O O3 0.357069 0.691464 0.721003
O O4 0.430851 0.763855 0.755632
O O5 0.128544 0.500000 0.750000
O O6 0.177435 0.607016 0.744452
O O7 0.087639 0.613965 0.750241
O O8 0.131840 0.575113 0.000000
O O9 0.268749 0.653796 0.252408
O O10 0.202439 0.726683 0.217441
O O11 0.219327 0.642813 0.000000
O O12 0.426288 0.500000 0.750000
O O13 0.500000 0.564066 0.750000
O O14 0.446872 0.566684 0.500000
O O15 0.685161 0.310360 0.000000
O O16 0.051666 0.666950 0.500000
O O17 0.000000 0.655551 0.250000
#
# Coordination Sequence:
#
# PCOD9496976 Si02
#       6
#    16  16  16  16  16  16
#     4  10  21  35  53  83 117 144 178 229 281 327
#     4  11  22  39  60  83 113 150 189 234 285 338
#     4   8  16  32  55  82 108 138 180 222 263 320
#     4  10  20  35  53  75 105 142 182 223 267 324
#     4   9  16  31  57  83 107 140 180 220 265 322
#     4  11  23  39  58  83 113 146 188 237 287 338
#
# _framework density 18.651695
#
# number of rings (size 3 to 8) (size 9 to 14) (size 15 to 20)
#    0.000    2.167    1.667    3.500    0.000    2.333 
#    0.000    5.833    0.000    4.000    0.000    0.000 
#    0.000    0.000    0.000    0.000    0.000    0.000 
#
# Total GULP energy -267480.353952 kJ/mol
# GULP energy per Si atom -5572.507374 kJ/mol
# Density = 1.860924 g / cm^3
# Si number density = 18.651695 Si / 1000 Ang^3
#
#
#
# Elastic Constant Matrix: (Units=GPa)
#
#
# Indices 1 2 3 4 5 6 
#
# 1 96.9803 61.4225 2.4505 0.0000 0.0000 0.0000
# 2 61.4225 136.2319 21.2723 0.0000 0.0000 0.0000
# 3 2.4505 21.2723 27.6012 0.0000 0.0000 0.0000
# 4 0.0000 0.0000 0.0000 17.2402 0.0000 0.0000
# 5 0.0000 0.0000 0.0000 0.0000 26.7151 0.0000
# 6 0.0000 0.0000 0.0000 0.0000 0.0000 14.2125
#
#
#
# Elastic Compliance Matrix: (Units=1/GPa)
#
#
# Indices 1 2 3 4 5 6 
#
# 1 0.014884 -0.007394 0.004377 0.000000 0.000000 0.000000
# 2 -0.007394 0.012018 -0.008606 0.000000 0.000000 0.000000
# 3 0.004377 -0.008606 0.042474 0.000000 0.000000 0.000000
# 4 0.000000 0.000000 0.000000 0.058004 0.000000 0.000000
# 5 0.000000 0.000000 0.000000 0.000000 0.037432 0.000000
# 6 0.000000 0.000000 0.000000 0.000000 0.000000 0.070361
#
#
# Mechanical properties :
#
#
# Convention : Reuss Voigt Hill
#
# Bulk Modulus (GPa) = 21.67761 47.90047 34.78904
# Shear Modulus (GPa) = 18.26185 23.34477 20.80331
#
# Velocity S-wave (km/s) = 3.13245 3.54166 3.34332
# Velocity P-wave (km/s) = 4.97298 6.51627 5.79622
#
# Compressibility (1/GPa) = 0.04613056
#
# Stress axis : x y z
#
# Youngs Moduli (GPa) = 67.18694 83.20864 23.54374
#
# Poissons Ratio (x) = 0.61526 -0.10306
# Poissons Ratio (y) = 0.49679 0.20261
# Poissons Ratio (z) = -0.29409 0.71608
#
# Static dielectric constant tensor:
#      x y z
#    x 1.660500 0.000000 0.000000 
#    y 0.000000 1.599230 0.000000 
#    z 0.000000 0.000000 1.653780 
# 
# From -- ./inp_files/10241.got.cif
#   From: 2010.05.17/outbox.cif.g08.bks.cpg/sg66_6_cif.got.tgz:10241.got - 2010.06.03 17:51:23.
