data_PCOD9496954
_publ_section_title
;
Structure prediction by ZEFSAII (Michael W. Deem and Ramdas Pophale) SiO2 
 PCOD9496954
Probable space group: C C C M
;
_chemical_formula_sum "Si O2"
_cell_formula_units_Z 88
_cell_length_a 15.452563
_cell_length_b 12.611629
_cell_length_c 23.579322
_cell_angle_alpha 90.000000
_cell_angle_beta 90.000000
_cell_angle_gamma 90.000000
_cell_volume 4595.185233
_symmetry_space_group_name_H-M "C C C M"
_symmetry_group_IT_number 66
_symmetry_cell_setting 'orthorhombic'
loop_
_space_group_symop_operation_xyz
x,y,z
-x,-y,z
x,-y,1/2-z
-x,y,1/2-z
-x,-y,-z
x,y,-z
-x,y,1/2+z
x,-y,1/2+z
1/2+x,1/2+y,z
1/2-x,1/2-y,z
1/2+x,1/2-y,1/2-z
1/2-x,1/2+y,1/2-z
1/2-x,1/2-y,-z
1/2+x,1/2+y,-z
1/2-x,1/2+y,1/2+z
1/2+x,1/2-y,1/2+z
loop_
_atom_site_type_symbol
_atom_site_label
_atom_site_fract_x
_atom_site_fract_y
_atom_site_fract_z
Si Si1 0.250000 0.250000 0.201476
Si Si2 0.332678 0.828724 0.000000
Si Si3 0.098555 0.375715 0.733191
Si Si4 0.685040 0.651715 0.000000
Si Si5 0.500000 0.500000 0.901833
Si Si6 0.800295 0.637521 0.375687
Si Si7 0.983811 0.163946 0.000000
Si Si8 0.317436 0.559458 0.374921
O O1 0.172068 0.303081 0.237308
O O2 0.286848 0.341815 0.161435
O O3 0.250000 0.750000 0.000000
O O4 0.327323 0.887082 0.940251
O O5 0.419688 0.760729 0.000000
O O6 0.110324 0.500000 0.750000
O O7 0.118563 0.362864 0.666479
O O8 0.000000 0.347013 0.750000
O O9 0.750000 0.750000 0.000000
O O10 0.585252 0.690730 0.000000
O O11 0.695020 0.584950 0.057896
O O12 0.580941 0.540022 0.866966
O O13 0.467323 0.591899 0.944616
O O14 0.750000 0.750000 0.373877
O O15 0.735245 0.544628 0.357785
#
# Coordination Sequence:
#
# PCOD9496954 Si02
#       8
#     8   8  16   8   8  16   8  16
#     4  12  24  43  68  95 126 170 222 274 310 394
#     4  10  20  34  60  99 126 166 211 265 328 388
#     4  11  25  46  68  91 131 182 221 258 329 393
#     4  10  20  37  59  92 130 176 200 266 338 386
#     4   9  18  34  58  93 126 170 203 271 328 380
#     4  11  22  40  68  93 134 172 215 274 323 391
#     4   9  18  33  56  89 132 164 211 252 325 394
#     4  11  22  38  64  96 130 167 220 267 328 384
#
# _framework density 19.150479000000001
#
# number of rings (size 3 to 8) (size 9 to 14) (size 15 to 20)
#    0.000    1.455    3.636    3.273    0.000    4.364 
#    0.000    0.000    0.000    3.273    0.000    0.000 
#    0.000    0.000    0.000    0.000    0.000    0.000 
#
# Total GULP energy -245703.928581 kJ/mol
# GULP energy per Si atom -5584.180195 kJ/mol
# Density = 1.910689 g / cm^3
# Si number density = 19.150479 Si / 1000 Ang^3
#
#
#
# Elastic Constant Matrix: (Units=GPa)
#
#
# Indices 1 2 3 4 5 6 
#
# 1 131.6339 58.4113 52.5511 0.0000 0.0000 0.0000
# 2 58.4113 99.2597 18.5384 0.0000 0.0000 0.0000
# 3 52.5511 18.5384 108.5400 0.0000 0.0000 0.0000
# 4 0.0000 0.0000 0.0000 -12.7949 0.0000 0.0000
# 5 0.0000 0.0000 0.0000 0.0000 -91.8892 0.0000
# 6 0.0000 0.0000 0.0000 0.0000 0.0000 37.0022
#
#
#
# Elastic Compliance Matrix: (Units=1/GPa)
#
#
# Indices 1 2 3 4 5 6 
#
# 1 0.012383 -0.006370 -0.004907 0.000000 0.000000 0.000000
# 2 -0.006370 0.013684 0.000747 0.000000 0.000000 0.000000
# 3 -0.004907 0.000747 0.011461 0.000000 0.000000 0.000000
# 4 0.000000 0.000000 0.000000 -0.078156 0.000000 0.000000
# 5 0.000000 0.000000 0.000000 0.000000 -0.010883 0.000000
# 6 0.000000 0.000000 0.000000 0.000000 0.000000 0.027025
#
#
# Mechanical properties :
#
#
# Convention : Reuss Voigt Hill
#
# Bulk Modulus (GPa) = 60.72706 66.49280 63.60993
# Shear Modulus (GPa) = 2422.33887 0.45914 1211.39900
#
# Velocity S-wave (km/s) = 35.60398 0.49018 25.17820
# Velocity P-wave (km/s) = 41.49663 5.92596 29.64024
#
# Compressibility (1/GPa) = 0.01646712
#
# Stress axis : x y z
#
# Youngs Moduli (GPa) = 80.75811 73.07918 87.24880
#
# Poissons Ratio (x) = 0.46554 0.42815
# Poissons Ratio (y) = 0.51446 -0.06519
# Poissons Ratio (z) = 0.39630 -0.05460
#
# Static dielectric constant tensor:
#      x y z
#    x 1.651110 0.000000 0.000000 
#    y 0.000000 1.645860 0.000000 
#    z 0.000000 0.000000 1.689180 
# 
# From -- ./inp_files/64574.got.cif
#   From: 2010.05.17/outbox.cif.g08.bks.cpg/sg66_33_cif.got.tgz:64574.got - 2010.06.03 17:51:23.
