data_PCOD9496857
_publ_section_title
;
Structure prediction by ZEFSAII (Michael W. Deem and Ramdas Pophale) SiO2 
 PCOD9496857
Probable space group: C C C M
;
_chemical_formula_sum "Si O2"
_cell_formula_units_Z 96
_cell_length_a 9.325132
_cell_length_b 16.626573
_cell_length_c 27.051863
_cell_angle_alpha 90.000000
_cell_angle_beta 90.000000
_cell_angle_gamma 90.000000
_cell_volume 4194.255772
_symmetry_space_group_name_H-M "C C C M"
_symmetry_group_IT_number 66
_symmetry_cell_setting 'orthorhombic'
loop_
_space_group_symop_operation_xyz
x,y,z
-x,-y,z
x,-y,1/2-z
-x,y,1/2-z
-x,-y,-z
x,y,-z
-x,y,1/2+z
x,-y,1/2+z
1/2+x,1/2+y,z
1/2-x,1/2-y,z
1/2+x,1/2-y,1/2-z
1/2-x,1/2+y,1/2-z
1/2-x,1/2-y,-z
1/2+x,1/2+y,-z
1/2-x,1/2+y,1/2+z
1/2+x,1/2-y,1/2+z
loop_
_atom_site_type_symbol
_atom_site_label
_atom_site_fract_x
_atom_site_fract_y
_atom_site_fract_z
Si Si1 0.181819 0.872512 0.367790
Si Si2 0.055884 0.908881 0.804818
Si Si3 0.493106 0.620292 0.054255
Si Si4 0.588464 0.806411 0.944401
Si Si5 0.660585 0.010110 0.833140
Si Si6 0.670560 0.067795 0.943806
O O1 0.302372 0.826443 0.399836
O O2 0.033599 0.846787 0.339633
O O3 0.101033 0.924700 0.409762
O O4 0.265490 0.923381 0.327137
O O5 0.227583 0.921936 0.813203
O O6 0.000000 0.891345 0.750000
O O7 0.000000 0.000000 0.815722
O O8 0.533518 0.714751 0.058716
O O9 0.325802 0.608529 0.061380
O O10 0.528611 0.592633 0.000000
O O11 0.453597 0.865309 0.942058
O O12 0.651983 0.817679 0.000000
O O13 0.650303 0.019303 0.892994
O O14 0.500000 0.000000 0.813271
O O15 0.663236 0.031047 0.000000
#
# Coordination Sequence:
#
# PCOD9496857 Si02
#       6
#    16  16  16  16  16  16
#     4  11  20  33  56  81 110 146 181 233 286 333
#     4   9  20  39  59  82 109 140 180 237 295 341
#     4  10  20  34  53  81 113 155 199 227 264 323
#     4  10  20  34  53  81 118 154 193 230 264 323
#     4  11  21  37  58  83 114 145 184 226 283 348
#     4  10  20  34  53  81 118 156 188 223 272 331
#
# _framework density 22.888446999999999
#
# number of rings (size 3 to 8) (size 9 to 14) (size 15 to 20)
#    0.000    1.833    3.333    1.500    0.000    5.000 
#    0.000    8.333    0.000    0.000    8.667    0.000 
#    0.000    0.000    0.000    0.000    0.000    0.000 
#
# Total GULP energy -267226.841234 kJ/mol
# GULP energy per Si atom -5567.225859 kJ/mol
# Density = 2.283635 g / cm^3
# Si number density = 22.888447 Si / 1000 Ang^3
#
#
#
# Elastic Constant Matrix: (Units=GPa)
#
#
# Indices 1 2 3 4 5 6 
#
# 1 203.7536 30.5386 48.6947 0.0000 0.0000 0.0000
# 2 30.5386 48.5602 13.0778 0.0000 0.0000 0.0000
# 3 48.6947 13.0778 110.1312 0.0000 0.0000 0.0000
# 4 0.0000 0.0000 0.0000 10.5579 0.0000 0.0000
# 5 0.0000 0.0000 0.0000 0.0000 11.0054 0.0000
# 6 0.0000 0.0000 0.0000 0.0000 0.0000 38.6433
#
#
#
# Elastic Compliance Matrix: (Units=1/GPa)
#
#
# Indices 1 2 3 4 5 6 
#
# 1 0.005911 -0.003113 -0.002244 0.000000 0.000000 0.000000
# 2 -0.003113 0.022913 -0.001344 0.000000 0.000000 0.000000
# 3 -0.002244 -0.001344 0.010232 0.000000 0.000000 0.000000
# 4 0.000000 0.000000 0.000000 0.094716 0.000000 0.000000
# 5 0.000000 0.000000 0.000000 0.000000 0.090864 0.000000
# 6 0.000000 0.000000 0.000000 0.000000 0.000000 0.025878
#
#
# Mechanical properties :
#
#
# Convention : Reuss Voigt Hill
#
# Bulk Modulus (GPa) = 38.98180 60.78526 49.88353
# Shear Modulus (GPa) = 18.35089 30.05024 24.20056
#
# Velocity S-wave (km/s) = 2.83460 3.62733 3.25518
# Velocity P-wave (km/s) = 5.27081 6.64516 5.99748
#
# Compressibility (1/GPa) = 0.02565300
#
# Stress axis : x y z
#
# Youngs Moduli (GPa) = 169.18537 43.64394 97.73431
#
# Poissons Ratio (x) = 0.13586 0.21929
# Poissons Ratio (y) = 0.52665 0.13140
# Poissons Ratio (z) = 0.37961 0.05868
#
# Static dielectric constant tensor:
#      x y z
#    x 1.933660 0.000000 0.000000 
#    y 0.000000 1.942350 0.000000 
#    z 0.000000 0.000000 1.989880 
# 
# From -- ./inp_files/62618.got.cif
#   From: 2010.05.17/outbox.cif.g08.bks.cpg/sg66_32_cif.got.tgz:62618.got - 2010.06.03 17:51:23.
