data_PCOD9496701
_publ_section_title
;
Structure prediction by ZEFSAII (Michael W. Deem and Ramdas Pophale) SiO2 
 PCOD9496701
Probable space group: C C C M
;
_chemical_formula_sum "Si O2"
_cell_formula_units_Z 84
_cell_length_a 14.222309
_cell_length_b 14.617261
_cell_length_c 21.991652
_cell_angle_alpha 90.000000
_cell_angle_beta 90.000000
_cell_angle_gamma 90.000000
_cell_volume 4571.870983
_symmetry_space_group_name_H-M "C C C M"
_symmetry_group_IT_number 66
_symmetry_cell_setting 'orthorhombic'
loop_
_space_group_symop_operation_xyz
x,y,z
-x,-y,z
x,-y,1/2-z
-x,y,1/2-z
-x,-y,-z
x,y,-z
-x,y,1/2+z
x,-y,1/2+z
1/2+x,1/2+y,z
1/2-x,1/2-y,z
1/2+x,1/2-y,1/2-z
1/2-x,1/2+y,1/2-z
1/2-x,1/2-y,-z
1/2+x,1/2+y,-z
1/2-x,1/2+y,1/2+z
1/2+x,1/2-y,1/2+z
loop_
_atom_site_type_symbol
_atom_site_label
_atom_site_fract_x
_atom_site_fract_y
_atom_site_fract_z
Si Si1 0.694837 0.160669 0.244839
Si Si2 0.590322 0.204711 0.635976
Si Si3 0.075921 0.422498 0.639669
Si Si4 0.210341 0.548106 0.429048
Si Si5 0.353441 0.595551 0.662676
Si Si6 0.000000 0.000000 0.250000
O O1 0.750000 0.250000 0.220378
O O2 0.613752 0.188516 0.292629
O O3 0.648236 0.100789 0.193050
O O4 0.771057 0.113061 0.288034
O O5 0.486102 0.166612 0.623974
O O6 0.660705 0.141024 0.596688
O O7 0.613421 0.311156 0.629496
O O8 0.135702 0.468154 0.585903
O O9 0.000000 0.500000 0.658963
O O10 0.228642 0.555398 0.500000
O O11 0.304255 0.534547 0.389038
O O12 0.436414 0.557901 0.703915
#
# Coordination Sequence:
#
# PCOD9496701 Si02
#       6
#    16  16  16  16  16   4
#     4   9  18  32  53  80 117 148 178 228 296 357
#     4   9  20  33  54  87 114 141 190 234 292 340
#     4  10  20  32  55  86 113 147 186 242 293 335
#     4  10  21  39  58  80 115 153 195 238 280 338
#     4  10  22  37  54  86 112 154 191 229 293 344
#     4  12  24  36  62  84 120 144 188 242 276 356
#
# _framework density 18.373221999999998
#
# number of rings (size 3 to 8) (size 9 to 14) (size 15 to 20)
#    0.000    2.286    0.000    3.429    5.333   14.857 
#    0.000    0.476    0.000    0.571    0.000    0.000 
#    0.000    0.000    0.000    0.000    0.000    0.000 
#
# Total GULP energy -234161.826770 kJ/mol
# GULP energy per Si atom -5575.281590 kJ/mol
# Density = 1.833140 g / cm^3
# Si number density = 18.373222 Si / 1000 Ang^3
#
#
#
# Elastic Constant Matrix: (Units=GPa)
#
#
# Indices 1 2 3 4 5 6 
#
# 1 95.3326 35.5576 43.4891 0.0000 0.0000 0.0000
# 2 35.5576 27.5955 19.0161 0.0000 0.0000 0.0000
# 3 43.4891 19.0161 93.2582 0.0000 0.0000 0.0000
# 4 0.0000 0.0000 0.0000 6.3978 0.0000 0.0000
# 5 0.0000 0.0000 0.0000 0.0000 15.1585 0.0000
# 6 0.0000 0.0000 0.0000 0.0000 0.0000 27.3081
#
#
#
# Elastic Compliance Matrix: (Units=1/GPa)
#
#
# Indices 1 2 3 4 5 6 
#
# 1 0.022213 -0.024997 -0.005262 0.000000 0.000000 0.000000
# 2 -0.024997 0.070291 -0.002676 0.000000 0.000000 0.000000
# 3 -0.005262 -0.002676 0.013722 0.000000 0.000000 0.000000
# 4 0.000000 0.000000 0.000000 0.156303 0.000000 0.000000
# 5 0.000000 0.000000 0.000000 0.000000 0.065970 0.000000
# 6 0.000000 0.000000 0.000000 0.000000 0.000000 0.036619
#
#
# Mechanical properties :
#
#
# Convention : Reuss Voigt Hill
#
# Bulk Modulus (GPa) = 24.77860 45.81243 35.29552
# Shear Modulus (GPa) = 11.25013 17.64777 14.44895
#
# Velocity S-wave (km/s) = 2.47718 3.10258 2.80735
# Velocity P-wave (km/s) = 4.65805 6.15005 5.45530
#
# Compressibility (1/GPa) = 0.04035741
#
# Stress axis : x y z
#
# Youngs Moduli (GPa) = 45.01825 14.22662 72.87403
#
# Poissons Ratio (x) = 0.35562 0.38344
# Poissons Ratio (y) = 1.12530 0.19503
# Poissons Ratio (z) = 0.23687 0.03807
#
# Static dielectric constant tensor:
#      x y z
#    x 1.675200 0.000000 0.000000 
#    y 0.000000 1.694290 0.000000 
#    z 0.000000 0.000000 1.585540 
# 
# From -- ./inp_files/49859.got.cif
#   From: 2010.05.17/outbox.cif.g08.bks.cpg/sg66_25_cif.got.tgz:49859.got - 2010.06.03 17:51:23.
