data_PCOD9496173
_publ_section_title
;
Structure prediction by ZEFSAII (Michael W. Deem and Ramdas Pophale) SiO2 
 PCOD9496173
Probable space group: C C C M
;
_chemical_formula_sum "Si O2"
_cell_formula_units_Z 112
_cell_length_a 11.744493
_cell_length_b 27.276025
_cell_length_c 15.797704
_cell_angle_alpha 90.000000
_cell_angle_beta 90.000000
_cell_angle_gamma 90.000000
_cell_volume 5060.685230
_symmetry_space_group_name_H-M "C C C M"
_symmetry_group_IT_number 66
_symmetry_cell_setting 'orthorhombic'
loop_
_space_group_symop_operation_xyz
x,y,z
-x,-y,z
x,-y,1/2-z
-x,y,1/2-z
-x,-y,-z
x,y,-z
-x,y,1/2+z
x,-y,1/2+z
1/2+x,1/2+y,z
1/2-x,1/2-y,z
1/2+x,1/2-y,1/2-z
1/2-x,1/2+y,1/2-z
1/2-x,1/2-y,-z
1/2+x,1/2+y,-z
1/2-x,1/2+y,1/2+z
1/2+x,1/2-y,1/2+z
loop_
_atom_site_type_symbol
_atom_site_label
_atom_site_fract_x
_atom_site_fract_y
_atom_site_fract_z
Si Si1 0.953421 0.426839 0.844086
Si Si2 0.828985 0.102030 0.599823
Si Si3 0.474233 0.233965 0.349709
Si Si4 0.829194 0.479709 0.597911
Si Si5 0.793599 0.301560 0.400832
Si Si6 0.960080 0.155383 0.153282
Si Si7 0.206350 0.660886 0.899943
O O1 0.869607 0.473762 0.848541
O O2 0.884118 0.381310 0.878851
O O3 0.000000 0.417966 0.750000
O O4 0.063738 0.442268 0.898486
O O5 0.802322 0.099692 0.500000
O O6 0.777945 0.051055 0.632623
O O7 0.762156 0.149536 0.636530
O O8 0.961152 0.114544 0.610217
O O9 0.500000 0.233711 0.250000
O O10 0.571276 0.200778 0.392228
O O11 0.484870 0.289787 0.381887
O O12 0.352175 0.210733 0.367636
O O13 0.812064 0.495497 0.500000
O O14 0.761755 0.301060 0.500000
O O15 0.750000 0.250000 0.362246
O O16 0.826149 0.148686 0.143312
O O17 0.000000 0.155467 0.250000
O O18 0.225249 0.664283 0.000000
#
# Coordination Sequence:
#
# PCOD9496173 Si02
#       7
#    16  16  16  16  16  16  16
#     4  11  23  41  67 100 133 165 212 275 340 401
#     4  10  21  38  63  92 125 170 218 264 328 399
#     4  11  24  39  62  93 131 176 225 277 338 399
#     4  10  20  38  67  99 132 166 205 266 336 408
#     4  10  19  33  59  88 123 166 215 269 318 388
#     4  11  26  42  61  89 133 179 223 280 332 399
#     4  12  26  43  66  95 133 182 233 281 336 405
#
# _framework density 22.13139
#
# number of rings (size 3 to 8) (size 9 to 14) (size 15 to 20)
#    0.000    1.286    1.429    5.143    4.000    3.429 
#    0.000    1.429    0.000    3.429    0.000    0.000 
#    0.000    0.000    0.000    0.000    0.000    0.000 
#
# Total GULP energy -313185.354545 kJ/mol
# GULP energy per Si atom -5592.595617 kJ/mol
# Density = 2.208102 g / cm^3
# Si number density = 22.131390 Si / 1000 Ang^3
#
#
#
# Elastic Constant Matrix: (Units=GPa)
#
#
# Indices 1 2 3 4 5 6 
#
# 1 111.8369 37.8729 5.4746 0.0000 0.0000 0.0000
# 2 37.8729 48.3171 9.4567 0.0000 0.0000 0.0000
# 3 5.4746 9.4567 65.1221 0.0000 0.0000 0.0000
# 4 0.0000 0.0000 0.0000 -48.3975 0.0000 0.0000
# 5 0.0000 0.0000 0.0000 0.0000 26.7829 0.0000
# 6 0.0000 0.0000 0.0000 0.0000 0.0000 39.4119
#
#
#
# Elastic Compliance Matrix: (Units=1/GPa)
#
#
# Indices 1 2 3 4 5 6 
#
# 1 0.012182 -0.009621 0.000373 0.000000 0.000000 0.000000
# 2 -0.009621 0.028901 -0.003388 0.000000 0.000000 0.000000
# 3 0.000373 -0.003388 0.015816 0.000000 0.000000 0.000000
# 4 0.000000 0.000000 0.000000 -0.020662 0.000000 0.000000
# 5 0.000000 0.000000 0.000000 0.000000 0.037337 0.000000
# 6 0.000000 0.000000 0.000000 0.000000 0.000000 0.025373
#
#
# Mechanical properties :
#
#
# Convention : Reuss Voigt Hill
#
# Bulk Modulus (GPa) = 31.61898 36.76495 34.19197
# Shear Modulus (GPa) = 37.10232 15.05759 26.07995
#
# Velocity S-wave (km/s) = 4.09890 2.61123 3.43653
# Velocity P-wave (km/s) = 6.05964 5.07341 5.58833
#
# Compressibility (1/GPa) = 0.03162658
#
# Stress axis : x y z
#
# Youngs Moduli (GPa) = 82.09119 34.60038 63.22547
#
# Poissons Ratio (x) = 0.33291 -0.02359
# Poissons Ratio (y) = 0.78984 0.21421
# Poissons Ratio (z) = -0.03063 0.11723
#
# Static dielectric constant tensor:
#      x y z
#    x 1.824280 0.000000 0.000000 
#    y 0.000000 1.850700 0.000000 
#    z 0.000000 0.000000 1.816520 
# 
# From -- ./inp_files/26997.got.cif
#   From: 2010.05.17/outbox.cif.g08.bks.cpg/sg66_14_cif.got.tgz:26997.got - 2010.06.03 17:51:23.
