data_PCOD9496512
_publ_section_title
;
Structure prediction by ZEFSAII (Michael W. Deem and Ramdas Pophale) SiO2 
 PCOD9496512
Probable space group: C C C M
;
_chemical_formula_sum "Si O2"
_cell_formula_units_Z 80
_cell_length_a 23.906673
_cell_length_b 9.065036
_cell_length_c 21.163003
_cell_angle_alpha 90.000000
_cell_angle_beta 90.000000
_cell_angle_gamma 90.000000
_cell_volume 4586.337050
_symmetry_space_group_name_H-M "C C C M"
_symmetry_group_IT_number 66
_symmetry_cell_setting 'orthorhombic'
loop_
_space_group_symop_operation_xyz
x,y,z
-x,-y,z
x,-y,1/2-z
-x,y,1/2-z
-x,-y,-z
x,y,-z
-x,y,1/2+z
x,-y,1/2+z
1/2+x,1/2+y,z
1/2-x,1/2-y,z
1/2+x,1/2-y,1/2-z
1/2-x,1/2+y,1/2-z
1/2-x,1/2-y,-z
1/2+x,1/2+y,-z
1/2-x,1/2+y,1/2+z
1/2+x,1/2-y,1/2+z
loop_
_atom_site_type_symbol
_atom_site_label
_atom_site_fract_x
_atom_site_fract_y
_atom_site_fract_z
Si Si1 0.889402 0.785361 0.500000
Si Si2 0.000000 0.500000 0.393631
Si Si3 0.633196 0.612102 0.000000
Si Si4 0.984701 0.256264 0.500000
Si Si5 0.316386 0.780126 0.619854
Si Si6 0.121957 0.590378 0.124668
Si Si7 0.691111 0.823964 0.260459
O O1 0.878891 0.687386 0.438332
O O2 0.955474 0.820486 0.500000
O O3 0.856631 0.937878 0.500000
O O4 0.016339 0.635596 0.439502
O O5 0.058096 0.458857 0.359690
O O6 0.657177 0.684044 0.064059
O O7 0.567854 0.651511 0.000000
O O8 0.250000 0.750000 0.615440
O O9 0.329639 0.753365 0.694301
O O10 0.339208 0.947200 0.611295
O O11 0.147658 0.681493 0.182545
O O12 0.750000 0.750000 0.277230
O O13 0.700260 0.000000 0.250000
#
# Coordination Sequence:
#
# PCOD9496512 Si02
#       7
#     8   8   8   8  16  16  16
#     4  10  23  32  54  87 112 145 183 231 278 332
#     4   9  16  32  61  84 106 144 182 230 274 329
#     4  12  20  35  56  82 112 147 187 230 276 334
#     4   9  17  33  55  79 112 145 179 221 282 331
#     4  10  21  37  56  80 109 148 188 226 275 337
#     4  10  19  37  58  83 114 145 186 231 280 331
#     4   9  20  37  57  79 111 148 186 224 278 338
#
# _framework density 17.443114000000001
#
# number of rings (size 3 to 8) (size 9 to 14) (size 15 to 20)
#    0.000    2.200    2.000    1.800    0.000    4.800 
#    0.000    6.000    0.000    0.000    0.000    2.800 
#    0.000    0.000    0.000    0.000    0.000    0.000 
#
# Total GULP energy -222826.077754 kJ/mol
# GULP energy per Si atom -5570.651944 kJ/mol
# Density = 1.740341 g / cm^3
# Si number density = 17.443114 Si / 1000 Ang^3
#
#
#
# Elastic Constant Matrix: (Units=GPa)
#
#
# Indices 1 2 3 4 5 6 
#
# 1 97.4804 38.3819 88.6373 0.0000 0.0000 0.0000
# 2 38.3819 57.2060 48.2021 0.0000 0.0000 0.0000
# 3 88.6373 48.2021 139.0558 0.0000 0.0000 0.0000
# 4 0.0000 0.0000 0.0000 12.7539 0.0000 0.0000
# 5 0.0000 0.0000 0.0000 0.0000 42.0450 0.0000
# 6 0.0000 0.0000 0.0000 0.0000 0.0000 31.7613
#
#
#
# Elastic Compliance Matrix: (Units=1/GPa)
#
#
# Indices 1 2 3 4 5 6 
#
# 1 0.025295 -0.004783 -0.014466 0.000000 0.000000 0.000000
# 2 -0.004783 0.025597 -0.005825 0.000000 0.000000 0.000000
# 3 -0.014466 -0.005825 0.018431 0.000000 0.000000 0.000000
# 4 0.000000 0.000000 0.000000 0.078408 0.000000 0.000000
# 5 0.000000 0.000000 0.000000 0.000000 0.023784 0.000000
# 6 0.000000 0.000000 0.000000 0.000000 0.000000 0.031485
#
#
# Mechanical properties :
#
#
# Convention : Reuss Voigt Hill
#
# Bulk Modulus (GPa) = 52.14363 71.57606 61.85984
# Shear Modulus (GPa) = 19.26497 25.21343 22.23920
#
# Velocity S-wave (km/s) = 3.32693 3.80605 3.57453
# Velocity P-wave (km/s) = 6.68703 7.77417 7.25100
#
# Compressibility (1/GPa) = 0.01917780
#
# Stress axis : x y z
#
# Youngs Moduli (GPa) = 39.53335 39.06668 54.25580
#
# Poissons Ratio (x) = 0.18684 0.78486
# Poissons Ratio (y) = 0.18907 0.31601
# Poissons Ratio (z) = 0.57188 0.22754
#
# Static dielectric constant tensor:
#      x y z
#    x 1.598340 0.000000 0.000000 
#    y 0.000000 1.583920 0.000000 
#    z 0.000000 0.000000 1.598040 
# 
# From -- ./inp_files/44166.got.cif
#   From: 2010.05.17/outbox.cif.g08.bks.cpg/sg66_23_cif.got.tgz:44166.got - 2010.06.03 17:51:23.
