data_PCOD9496750
_publ_section_title
;
Structure prediction by ZEFSAII (Michael W. Deem and Ramdas Pophale) SiO2 
 PCOD9496750
Probable space group: C C C M
;
_chemical_formula_sum "Si O2"
_cell_formula_units_Z 72
_cell_length_a 27.323690
_cell_length_b 5.343989
_cell_length_c 24.852721
_cell_angle_alpha 90.000000
_cell_angle_beta 90.000000
_cell_angle_gamma 90.000000
_cell_volume 3628.932159
_symmetry_space_group_name_H-M "C C C M"
_symmetry_group_IT_number 66
_symmetry_cell_setting 'orthorhombic'
loop_
_space_group_symop_operation_xyz
x,y,z
-x,-y,z
x,-y,1/2-z
-x,y,1/2-z
-x,-y,-z
x,y,-z
-x,y,1/2+z
x,-y,1/2+z
1/2+x,1/2+y,z
1/2-x,1/2-y,z
1/2+x,1/2-y,1/2-z
1/2-x,1/2+y,1/2-z
1/2-x,1/2-y,-z
1/2+x,1/2+y,-z
1/2-x,1/2+y,1/2+z
1/2+x,1/2-y,1/2+z
loop_
_atom_site_type_symbol
_atom_site_label
_atom_site_fract_x
_atom_site_fract_y
_atom_site_fract_z
Si Si1 0.865160 0.739540 0.564723
Si Si2 0.943223 0.250996 0.726865
Si Si3 0.194600 0.251886 0.935655
Si Si4 0.032794 0.745466 0.500000
Si Si5 0.056370 0.921967 0.608623
O O1 0.877266 0.724465 0.500000
O O2 0.838092 0.487057 0.583162
O O3 0.829607 0.980592 0.571732
O O4 0.912010 0.828491 0.599033
O O5 0.920494 0.500000 0.750000
O O6 0.937586 0.230565 0.663156
O O7 0.000000 0.250580 0.750000
O O8 0.920495 0.000000 0.750000
O O9 0.250000 0.250000 0.914207
O O10 0.197821 0.293183 0.000000
O O11 0.063726 0.760776 0.554397
O O12 0.000000 0.500000 0.500000
O O13 0.000000 0.000000 0.500000
O O14 0.000000 0.000000 0.610937
#
# Coordination Sequence:
#
# PCOD9496750 Si02
#       5
#    16  16  16   8  16
#     4  10  20  33  51  82 111 148 196 236 290 359
#     4  10  21  37  55  73  97 150 205 244 280 332
#     4   9  18  34  54  75 108 149 191 239 288 346
#     4  10  24  34  50  74 103 154 191 230 300 356
#     4  11  22  39  55  80 119 157 197 247 298 355
#
# _framework density 19.840546
#
# number of rings (size 3 to 8) (size 9 to 14) (size 15 to 20)
#    0.000    2.000    3.333    0.667    3.111    8.000 
#    0.000    0.000    0.000    0.000    0.000    0.000 
#    0.000    5.333    0.000    0.444    0.000    0.222 
#
# Total GULP energy -200930.563368 kJ/mol
# GULP energy per Si atom -5581.404538 kJ/mol
# Density = 1.979539 g / cm^3
# Si number density = 19.840546 Si / 1000 Ang^3
#
#
#
# Elastic Constant Matrix: (Units=GPa)
#
#
# Indices 1 2 3 4 5 6 
#
# 1 102.3330 39.0180 10.3025 0.0000 0.0000 0.0000
# 2 39.0180 153.3528 49.0520 0.0000 0.0000 0.0000
# 3 10.3025 49.0520 135.9814 0.0000 0.0000 0.0000
# 4 0.0000 0.0000 0.0000 10.9539 0.0000 0.0000
# 5 0.0000 0.0000 0.0000 0.0000 -3.7608 0.0000
# 6 0.0000 0.0000 0.0000 0.0000 0.0000 19.5293
#
#
#
# Elastic Compliance Matrix: (Units=1/GPa)
#
#
# Indices 1 2 3 4 5 6 
#
# 1 0.010826 -0.002817 0.000196 0.000000 0.000000 0.000000
# 2 -0.002817 0.008105 -0.002710 0.000000 0.000000 0.000000
# 3 0.000196 -0.002710 0.008317 0.000000 0.000000 0.000000
# 4 0.000000 0.000000 0.000000 0.091292 0.000000 0.000000
# 5 0.000000 0.000000 0.000000 0.000000 -0.265903 0.000000
# 6 0.000000 0.000000 0.000000 0.000000 0.000000 0.051205
#
#
# Mechanical properties :
#
#
# Convention : Reuss Voigt Hill
#
# Bulk Modulus (GPa) = 60.29541 65.37913 62.83727
# Shear Modulus (GPa) = -62.52578 24.89748 -18.81415
#
# Velocity S-wave (km/s) = -5.61984 3.54627 -3.08274
# Velocity P-wave (km/s) = 3.41381 7.05633 4.36679
#
# Compressibility (1/GPa) = 0.01658501
#
# Stress axis : x y z
#
# Youngs Moduli (GPa) = 92.36613 123.38701 120.24013
#
# Poissons Ratio (x) = 0.34762 -0.02357
# Poissons Ratio (y) = 0.26022 0.32586
# Poissons Ratio (z) = -0.01811 0.33439
#
# Static dielectric constant tensor:
#      x y z
#    x 1.749850 0.000000 0.000000 
#    y 0.000000 1.684760 0.000000 
#    z 0.000000 0.000000 1.759340 
# 
# From -- ./inp_files/60037.got.cif
#   From: 2010.05.17/outbox.cif.g08.bks.cpg/sg66_31_cif.got.tgz:60037.got - 2010.06.03 17:51:23.
