data_PCOD9496923
_publ_section_title
;
Structure prediction by ZEFSAII (Michael W. Deem and Ramdas Pophale) SiO2 
 PCOD9496923
Probable space group: C C C M
;
_chemical_formula_sum "Si O2"
_cell_formula_units_Z 88
_cell_length_a 16.449236
_cell_length_b 10.730380
_cell_length_c 25.421992
_cell_angle_alpha 90.000000
_cell_angle_beta 90.000000
_cell_angle_gamma 90.000000
_cell_volume 4487.148178
_symmetry_space_group_name_H-M "C C C M"
_symmetry_group_IT_number 66
_symmetry_cell_setting 'orthorhombic'
loop_
_space_group_symop_operation_xyz
x,y,z
-x,-y,z
x,-y,1/2-z
-x,y,1/2-z
-x,-y,-z
x,y,-z
-x,y,1/2+z
x,-y,1/2+z
1/2+x,1/2+y,z
1/2-x,1/2-y,z
1/2+x,1/2-y,1/2-z
1/2-x,1/2+y,1/2-z
1/2-x,1/2-y,-z
1/2+x,1/2+y,-z
1/2-x,1/2+y,1/2+z
1/2+x,1/2-y,1/2+z
loop_
_atom_site_type_symbol
_atom_site_label
_atom_site_fract_x
_atom_site_fract_y
_atom_site_fract_z
Si Si1 0.486884 0.138042 0.938393
Si Si2 0.398334 0.632660 0.937355
Si Si3 0.162456 0.702990 0.621366
Si Si4 0.267763 0.021260 0.310800
Si Si5 0.088214 0.045156 0.844133
Si Si6 0.250000 0.750000 0.121495
O O1 0.540622 0.255710 0.920095
O O2 0.393783 0.166765 0.926882
O O3 0.500000 0.000000 0.914690
O O4 0.505632 0.130058 0.000000
O O5 0.412370 0.507841 0.903985
O O6 0.311503 0.680105 0.917120
O O7 0.403173 0.614042 0.000000
O O8 0.250000 0.750000 0.603025
O O9 0.186588 0.587653 0.657920
O O10 0.111817 0.809148 0.652943
O O11 0.291115 0.149933 0.339385
O O12 0.286552 0.000000 0.250000
O O13 0.168892 0.013502 0.317345
O O14 0.000000 0.000000 0.822469
#
# Coordination Sequence:
#
# PCOD9496923 Si02
#       6
#    16  16  16  16  16   8
#     4  10  20  34  57  86 123 164 201 246 303 361
#     4  10  20  35  58  89 124 165 204 245 302 378
#     4  10  21  38  60  86 124 156 201 255 299 362
#     4  10  23  39  64  86 116 160 206 260 321 369
#     4  10  20  37  60  90 120 156 199 255 305 367
#     4  10  21  38  60  88 118 162 209 250 314 376
#
# _framework density 19.611566
#
# number of rings (size 3 to 8) (size 9 to 14) (size 15 to 20)
#    0.000    2.000    1.818    1.364    3.818    1.818 
#    0.000    9.091    0.000    4.909    0.000    0.000 
#    0.000    0.000    0.000    0.000    0.000    0.000 
#
# Total GULP energy -245077.344434 kJ/mol
# GULP energy per Si atom -5569.939646 kJ/mol
# Density = 1.956693 g / cm^3
# Si number density = 19.611566 Si / 1000 Ang^3
#
#
#
# Elastic Constant Matrix: (Units=GPa)
#
#
# Indices 1 2 3 4 5 6 
#
# 1 45.4136 5.9827 -13.0859 0.0000 0.0000 0.0000
# 2 5.9827 102.7558 8.9599 0.0000 0.0000 0.0000
# 3 -13.0859 8.9599 43.5769 0.0000 0.0000 0.0000
# 4 0.0000 0.0000 0.0000 9.4411 0.0000 0.0000
# 5 0.0000 0.0000 0.0000 0.0000 16.7633 0.0000
# 6 0.0000 0.0000 0.0000 0.0000 0.0000 259.6400
#
#
#
# Elastic Compliance Matrix: (Units=1/GPa)
#
#
# Indices 1 2 3 4 5 6 
#
# 1 0.024547 -0.002110 0.007805 0.000000 0.000000 0.000000
# 2 -0.002110 0.010091 -0.002708 0.000000 0.000000 0.000000
# 3 0.007805 -0.002708 0.025849 0.000000 0.000000 0.000000
# 4 0.000000 0.000000 0.000000 0.105919 0.000000 0.000000
# 5 0.000000 0.000000 0.000000 0.000000 0.059654 0.000000
# 6 0.000000 0.000000 0.000000 0.000000 0.000000 0.003851
#
#
# Mechanical properties :
#
#
# Convention : Reuss Voigt Hill
#
# Bulk Modulus (GPa) = 15.04660 21.71776 18.38218
# Shear Modulus (GPa) = 20.31771 69.82818 45.07294
#
# Velocity S-wave (km/s) = 3.22220 5.97352 4.79924
# Velocity P-wave (km/s) = 4.64030 7.65997 6.33276
#
# Compressibility (1/GPa) = 0.06646020
#
# Stress axis : x y z
#
# Youngs Moduli (GPa) = 40.73851 99.10013 38.68673
#
# Poissons Ratio (x) = 0.20908 -0.30195
# Poissons Ratio (y) = 0.08595 0.10478
# Poissons Ratio (z) = -0.31797 0.26840
#
# Static dielectric constant tensor:
#      x y z
#    x 1.704800 0.000000 0.000000 
#    y 0.000000 1.757670 0.000000 
#    z 0.000000 0.000000 1.657010 
# 
# From -- ./inp_files/58018.got.cif
#   From: 2010.05.17/outbox.cif.g08.bks.cpg/sg66_30_cif.got.tgz:58018.got - 2010.06.03 17:51:23.
