data_PCOD9496689
_publ_section_title
;
Structure prediction by ZEFSAII (Michael W. Deem and Ramdas Pophale) SiO2 
 PCOD9496689
Probable space group: C C C M
;
_chemical_formula_sum "Si O2"
_cell_formula_units_Z 52
_cell_length_a 5.034647
_cell_length_b 21.527249
_cell_length_c 26.489666
_cell_angle_alpha 90.000000
_cell_angle_beta 90.000000
_cell_angle_gamma 90.000000
_cell_volume 2871.005619
_symmetry_space_group_name_H-M "C C C M"
_symmetry_group_IT_number 66
_symmetry_cell_setting 'orthorhombic'
loop_
_space_group_symop_operation_xyz
x,y,z
-x,-y,z
x,-y,1/2-z
-x,y,1/2-z
-x,-y,-z
x,y,-z
-x,y,1/2+z
x,-y,1/2+z
1/2+x,1/2+y,z
1/2-x,1/2-y,z
1/2+x,1/2-y,1/2-z
1/2-x,1/2+y,1/2-z
1/2-x,1/2-y,-z
1/2+x,1/2+y,-z
1/2-x,1/2+y,1/2+z
1/2+x,1/2-y,1/2+z
loop_
_atom_site_type_symbol
_atom_site_label
_atom_site_fract_x
_atom_site_fract_y
_atom_site_fract_z
Si Si1 0.000000 0.792681 0.250000
Si Si2 0.125616 0.569498 0.109723
Si Si3 0.746293 0.953858 0.500000
Si Si4 0.500000 0.500000 0.250000
Si Si5 0.644029 0.599879 0.826209
O O1 0.250000 0.750000 0.236829
O O2 0.079290 0.837756 0.295997
O O3 0.389296 0.576794 0.142521
O O4 0.000000 0.500000 0.110089
O O5 0.893073 0.607928 0.136781
O O6 0.213997 0.583310 0.052211
O O7 0.500000 0.000000 0.500000
O O8 0.000000 0.000000 0.500000
O O9 0.320835 0.454403 0.215688
#
# Coordination Sequence:
#
# PCOD9496689 Si02
#       5
#     8  16   8   4  16
#     4  11  24  43  56  79 110 149 200 238 276 333
#     4  11  19  34  52  86 117 148 183 220 277 346
#     4  10  20  32  52  78 122 162 176 218 274 347
#     4  10  20  34  48  84 112 140 176 228 276 342
#     4  11  22  34  58  81 112 150 186 228 284 330
#
# _framework density 18.112119
#
# number of rings (size 3 to 8) (size 9 to 14) (size 15 to 20)
#    0.000    1.231    3.077    5.538    0.000    4.923 
#    0.000    0.000    0.000    0.000    0.000   21.538 
#    0.000    0.000    0.000    0.000    0.000    0.000 
#
# Total GULP energy -145099.034010 kJ/mol
# GULP energy per Si atom -5580.732077 kJ/mol
# Density = 1.807090 g / cm^3
# Si number density = 18.112119 Si / 1000 Ang^3
#
#
#
# Elastic Constant Matrix: (Units=GPa)
#
#
# Indices 1 2 3 4 5 6 
#
# 1 136.4828 25.5822 67.3853 0.0000 0.0000 0.0000
# 2 25.5822 75.0195 53.0167 0.0000 0.0000 0.0000
# 3 67.3853 53.0167 159.3993 0.0000 0.0000 0.0000
# 4 0.0000 0.0000 0.0000 -7.0273 0.0000 0.0000
# 5 0.0000 0.0000 0.0000 0.0000 23.3814 0.0000
# 6 0.0000 0.0000 0.0000 0.0000 0.0000 24.2730
#
#
#
# Elastic Compliance Matrix: (Units=1/GPa)
#
#
# Indices 1 2 3 4 5 6 
#
# 1 0.009275 -0.000512 -0.003750 0.000000 0.000000 0.000000
# 2 -0.000512 0.017454 -0.005589 0.000000 0.000000 0.000000
# 3 -0.003750 -0.005589 0.009718 0.000000 0.000000 0.000000
# 4 0.000000 0.000000 0.000000 -0.142302 0.000000 0.000000
# 5 0.000000 0.000000 0.000000 0.000000 0.042769 0.000000
# 6 0.000000 0.000000 0.000000 0.000000 0.000000 0.041198
#
#
# Mechanical properties :
#
#
# Convention : Reuss Voigt Hill
#
# Bulk Modulus (GPa) = 59.72374 73.65224 66.68799
# Shear Modulus (GPa) = 1472.21375 23.11990 747.66683
#
# Velocity S-wave (km/s) = 28.54116 3.57667 20.33950
# Velocity P-wave (km/s) = 33.45410 7.60327 24.25888
#
# Compressibility (1/GPa) = 0.01674376
#
# Stress axis : x y z
#
# Youngs Moduli (GPa) = 107.82094 57.29296 102.90330
#
# Poissons Ratio (x) = 0.02935 0.38593
# Poissons Ratio (y) = 0.05523 0.57510
# Poissons Ratio (z) = 0.40437 0.32020
#
# Static dielectric constant tensor:
#      x y z
#    x 1.619230 0.000000 0.000000 
#    y 0.000000 1.602270 0.000000 
#    z 0.000000 0.000000 1.705590 
# 
# From -- ./inp_files/45368.got.cif
#   From: 2010.05.17/outbox.cif.g08.bks.cpg/sg66_23_cif.got.tgz:45368.got - 2010.06.03 17:51:23.
