data_PCOD9496262
_publ_section_title
;
Structure prediction by ZEFSAII (Michael W. Deem and Ramdas Pophale) SiO2 
 PCOD9496262
Probable space group: C C C M
;
_chemical_formula_sum "Si O2"
_cell_formula_units_Z 56
_cell_length_a 5.177550
_cell_length_b 25.060281
_cell_length_c 22.563731
_cell_angle_alpha 90.000000
_cell_angle_beta 90.000000
_cell_angle_gamma 90.000000
_cell_volume 2927.663454
_symmetry_space_group_name_H-M "C C C M"
_symmetry_group_IT_number 66
_symmetry_cell_setting 'orthorhombic'
loop_
_space_group_symop_operation_xyz
x,y,z
-x,-y,z
x,-y,1/2-z
-x,y,1/2-z
-x,-y,-z
x,y,-z
-x,y,1/2+z
x,-y,1/2+z
1/2+x,1/2+y,z
1/2-x,1/2-y,z
1/2+x,1/2-y,1/2-z
1/2-x,1/2+y,1/2-z
1/2-x,1/2-y,-z
1/2+x,1/2+y,-z
1/2-x,1/2+y,1/2+z
1/2+x,1/2-y,1/2+z
loop_
_atom_site_type_symbol
_atom_site_label
_atom_site_fract_x
_atom_site_fract_y
_atom_site_fract_z
Si Si1 0.127191 0.648374 0.686881
Si Si2 0.751474 0.475714 0.316844
Si Si3 0.499390 0.712151 0.000000
Si Si4 0.867551 0.190305 0.128113
O O1 0.227000 0.587467 0.688235
O O2 0.381683 0.682063 0.669728
O O3 0.000000 0.662757 0.750000
O O4 0.881700 0.654332 0.643127
O O5 0.500000 0.500000 0.346239
O O6 0.750751 0.500000 0.250000
O O7 0.000000 0.500000 0.347563
O O8 0.250000 0.750000 0.000000
O O9 0.476572 0.681160 0.938199
O O10 0.750000 0.750000 0.000000
O O11 0.750000 0.250000 0.133006
#
# Coordination Sequence:
#
# PCOD9496262 Si02
#       4
#    16  16   8  16
#     4  12  23  37  60  92 127 155 196 237 306 370
#     4  10  19  34  57  81 113 151 203 239 273 343
#     4  10  20  42  66  80 108 160 224 254 268 336
#     4  11  24  40  60  88 121 164 201 242 293 345
#
# _framework density 19.127883000000001
#
# number of rings (size 3 to 8) (size 9 to 14) (size 15 to 20)
#    0.000    1.143    2.857    6.857    4.000    2.286 
#    0.000    1.429    0.000    0.000    0.000   20.000 
#    0.000    0.000    0.000    0.000    0.000    0.000 
#
# Total GULP energy -156121.120123 kJ/mol
# GULP energy per Si atom -5575.754290 kJ/mol
# Density = 1.908435 g / cm^3
# Si number density = 19.127883 Si / 1000 Ang^3
#
#
#
# Elastic Constant Matrix: (Units=GPa)
#
#
# Indices 1 2 3 4 5 6 
#
# 1 203.5124 45.3783 51.8304 0.0000 0.0000 0.0000
# 2 45.3783 76.3888 47.8473 0.0000 0.0000 0.0000
# 3 51.8304 47.8473 80.4197 0.0000 0.0000 0.0000
# 4 0.0000 0.0000 0.0000 -10.1551 0.0000 0.0000
# 5 0.0000 0.0000 0.0000 0.0000 22.0520 0.0000
# 6 0.0000 0.0000 0.0000 0.0000 0.0000 46.7587
#
#
#
# Elastic Compliance Matrix: (Units=1/GPa)
#
#
# Indices 1 2 3 4 5 6 
#
# 1 0.006035 -0.001831 -0.002800 0.000000 0.000000 0.000000
# 2 -0.001831 0.021423 -0.011566 0.000000 0.000000 0.000000
# 3 -0.002800 -0.011566 0.021121 0.000000 0.000000 0.000000
# 4 0.000000 0.000000 0.000000 -0.098473 0.000000 0.000000
# 5 0.000000 0.000000 0.000000 0.000000 0.045347 0.000000
# 6 0.000000 0.000000 0.000000 0.000000 0.000000 0.021386
#
#
# Mechanical properties :
#
#
# Convention : Reuss Voigt Hill
#
# Bulk Modulus (GPa) = 61.78712 72.27035 67.02873
# Shear Modulus (GPa) = 91.52517 26.08211 58.80364
#
# Velocity S-wave (km/s) = 6.92481 3.69665 5.55060
# Velocity P-wave (km/s) = 9.81374 7.48900 8.72911
#
# Compressibility (1/GPa) = 0.01618460
#
# Stress axis : x y z
#
# Youngs Moduli (GPa) = 165.69565 46.67815 47.34659
#
# Poissons Ratio (x) = 0.08548 0.13258
# Poissons Ratio (y) = 0.30343 0.54761
# Poissons Ratio (z) = 0.46397 0.53988
#
# Static dielectric constant tensor:
#      x y z
#    x 1.679370 0.000000 0.000000 
#    y 0.000000 1.678280 0.000000 
#    z 0.000000 0.000000 1.692490 
# 
# From -- ./inp_files/45470.got.cif
#   From: 2010.05.17/outbox.cif.g08.bks.cpg/sg66_23_cif.got.tgz:45470.got - 2010.06.03 17:51:23.
