data_PCOD9496979
_publ_section_title
;
Structure prediction by ZEFSAII (Michael W. Deem and Ramdas Pophale) SiO2 
 PCOD9496979
Probable space group: C C C M
;
_chemical_formula_sum "Si O2"
_cell_formula_units_Z 96
_cell_length_a 19.195956
_cell_length_b 32.209667
_cell_length_c 8.696411
_cell_angle_alpha 90.000000
_cell_angle_beta 90.000000
_cell_angle_gamma 90.000000
_cell_volume 5376.950487
_symmetry_space_group_name_H-M "C C C M"
_symmetry_group_IT_number 66
_symmetry_cell_setting 'orthorhombic'
loop_
_space_group_symop_operation_xyz
x,y,z
-x,-y,z
x,-y,1/2-z
-x,y,1/2-z
-x,-y,-z
x,y,-z
-x,y,1/2+z
x,-y,1/2+z
1/2+x,1/2+y,z
1/2-x,1/2-y,z
1/2+x,1/2-y,1/2-z
1/2-x,1/2+y,1/2-z
1/2-x,1/2-y,-z
1/2+x,1/2+y,-z
1/2-x,1/2+y,1/2+z
1/2+x,1/2-y,1/2+z
loop_
_atom_site_type_symbol
_atom_site_label
_atom_site_fract_x
_atom_site_fract_y
_atom_site_fract_z
Si Si1 0.324521 0.130948 0.183475
Si Si2 0.342674 0.542871 0.823191
Si Si3 0.673045 0.043409 0.178315
Si Si4 0.421930 0.291079 0.184621
Si Si5 0.922017 0.297388 0.184477
Si Si6 0.668239 0.366398 0.186609
O O1 0.348380 0.084528 0.230418
O O2 0.374321 0.165342 0.256589
O O3 0.247242 0.136520 0.253213
O O4 0.322375 0.134878 0.000000
O O5 0.367729 0.500000 0.750000
O O6 0.257913 0.542390 0.816328
O O7 0.361349 0.588462 0.760366
O O8 0.363684 0.541979 0.000000
O O9 0.648532 0.000000 0.250000
O O10 0.653105 0.046817 0.000000
O O11 0.500000 0.296074 0.250000
O O12 0.396038 0.246759 0.249151
O O13 0.375699 0.328660 0.246806
O O14 0.423174 0.290234 0.000000
O O15 0.000000 0.302876 0.250000
O O16 0.923854 0.295822 0.000000
O O17 0.668618 0.365927 0.000000
#
# Coordination Sequence:
#
# PCOD9496979 Si02
#       6
#    16  16  16  16  16  16
#     4  11  21  34  53  81 111 141 177 220 265 313
#     4   8  15  26  44  69 101 135 170 208 253 303
#     4   9  16  28  46  72 104 140 176 215 260 309
#     4  11  22  38  58  80 104 137 176 216 262 319
#     4  11  22  39  59  79 104 138 176 217 262 316
#     4  10  20  35  53  79 110 141 176 220 266 310
#
# _framework density 17.853987
#
# number of rings (size 3 to 8) (size 9 to 14) (size 15 to 20)
#    0.000    2.000    0.000    7.500    0.000    5.333 
#    0.000    3.333    0.000    1.000    0.000    7.000 
#    0.000    0.000    0.000    0.000    0.000    0.000 
#
# Total GULP energy -267792.713577 kJ/mol
# GULP energy per Si atom -5579.014866 kJ/mol
# Density = 1.781335 g / cm^3
# Si number density = 17.853987 Si / 1000 Ang^3
#
#
#
# Elastic Constant Matrix: (Units=GPa)
#
#
# Indices 1 2 3 4 5 6 
#
# 1 32.1212 62.2496 29.4290 0.0000 0.0000 0.0000
# 2 62.2496 203.4531 80.2282 0.0000 0.0000 0.0000
# 3 29.4290 80.2282 155.3901 0.0000 0.0000 0.0000
# 4 0.0000 0.0000 0.0000 36.2477 0.0000 0.0000
# 5 0.0000 0.0000 0.0000 0.0000 21.9221 0.0000
# 6 0.0000 0.0000 0.0000 0.0000 0.0000 -30.3283
#
#
#
# Elastic Compliance Matrix: (Units=1/GPa)
#
#
# Indices 1 2 3 4 5 6 
#
# 1 0.077625 -0.022543 -0.003062 0.000000 0.000000 0.000000
# 2 -0.022543 0.012718 -0.002297 0.000000 0.000000 0.000000
# 3 -0.003062 -0.002297 0.008201 0.000000 0.000000 0.000000
# 4 0.000000 0.000000 0.000000 0.027588 0.000000 0.000000
# 5 0.000000 0.000000 0.000000 0.000000 0.045616 0.000000
# 6 0.000000 0.000000 0.000000 0.000000 0.000000 -0.032973
#
#
# Mechanical properties :
#
#
# Convention : Reuss Voigt Hill
#
# Bulk Modulus (GPa) = 23.39726 81.64201 52.51963
# Shear Modulus (GPa) = 23.94314 20.17215 22.05765
#
# Velocity S-wave (km/s) = 3.66601 3.36496 3.51871
# Velocity P-wave (km/s) = 5.57250 7.80539 6.78148
#
# Compressibility (1/GPa) = 0.04274005
#
# Stress axis : x y z
#
# Youngs Moduli (GPa) = 12.88241 78.62630 121.93069
#
# Poissons Ratio (x) = 1.77248 0.37338
# Poissons Ratio (y) = 0.29041 0.28009
# Poissons Ratio (z) = 0.03945 0.18062
#
# Static dielectric constant tensor:
#      x y z
#    x 1.591060 0.000000 0.000000 
#    y 0.000000 1.632130 0.000000 
#    z 0.000000 0.000000 1.599190 
# 
# From -- ./inp_files/8049.got.cif
#   From: 2010.05.17/outbox.cif.g08.bks.cpg/sg66_5_cif.got.tgz:8049.got - 2010.06.03 17:51:23.
