data_PCOD9496813
_publ_section_title
;
Structure prediction by ZEFSAII (Michael W. Deem and Ramdas Pophale) SiO2 
 PCOD9496813
Probable space group: C C C M
;
_chemical_formula_sum "Si O2"
_cell_formula_units_Z 96
_cell_length_a 20.533854
_cell_length_b 30.758152
_cell_length_c 9.528943
_cell_angle_alpha 90.000000
_cell_angle_beta 90.000000
_cell_angle_gamma 90.000000
_cell_volume 6018.322242
_symmetry_space_group_name_H-M "C C C M"
_symmetry_group_IT_number 66
_symmetry_cell_setting 'orthorhombic'
loop_
_space_group_symop_operation_xyz
x,y,z
-x,-y,z
x,-y,1/2-z
-x,y,1/2-z
-x,-y,-z
x,y,-z
-x,y,1/2+z
x,-y,1/2+z
1/2+x,1/2+y,z
1/2-x,1/2-y,z
1/2+x,1/2-y,1/2-z
1/2-x,1/2+y,1/2-z
1/2-x,1/2-y,-z
1/2+x,1/2+y,-z
1/2-x,1/2+y,1/2+z
1/2+x,1/2-y,1/2+z
loop_
_atom_site_type_symbol
_atom_site_label
_atom_site_fract_x
_atom_site_fract_y
_atom_site_fract_z
Si Si1 0.309670 0.781439 0.666087
Si Si2 0.736499 0.137367 0.167002
Si Si3 0.100497 0.958451 0.161464
Si Si4 0.259186 0.959095 0.161739
Si Si5 0.392922 0.360519 0.332044
Si Si6 0.062036 0.776167 0.667098
O O1 0.303347 0.790517 0.500000
O O2 0.250000 0.750000 0.707096
O O3 0.301746 0.825554 0.751828
O O4 0.376030 0.755060 0.688605
O O5 0.719574 0.088357 0.213526
O O6 0.814564 0.142309 0.187711
O O7 0.725423 0.140426 0.000000
O O8 0.179883 0.958954 0.163940
O O9 0.083948 0.909295 0.208239
O O10 0.078224 0.000000 0.250000
O O11 0.080047 0.963329 0.000000
O O12 0.282052 0.000000 0.250000
O O13 0.278424 0.963660 0.000000
O O14 0.405317 0.354847 0.500000
O O15 0.423267 0.322813 0.238181
O O16 0.050931 0.780585 0.500000
O O17 0.000000 0.758117 0.750000
#
# Coordination Sequence:
#
# PCOD9496813 Si02
#       6
#    16  16  16  16  16  16
#     4  10  20  34  50  72  99 124 158 203 245 285
#     4   9  17  28  46  71  97 126 162 199 235 282
#     4   8  14  24  39  61  89 119 153 193 235 280
#     4   8  14  24  37  60  93 126 157 189 229 276
#     4   9  17  30  47  68  94 124 159 198 240 285
#     4  11  23  37  52  70  95 126 160 200 243 291
#
# _framework density 15.951288999999999
#
# number of rings (size 3 to 8) (size 9 to 14) (size 15 to 20)
#    0.000    2.833    1.667    2.500    0.000    3.000 
#    0.000    3.333    0.000    0.500    0.000    3.500 
#    0.000    0.667    0.000    7.333    0.000    5.667 
#
# Total GULP energy -267487.388225 kJ/mol
# GULP energy per Si atom -5572.653921 kJ/mol
# Density = 1.591498 g / cm^3
# Si number density = 15.951289 Si / 1000 Ang^3
#
#
#
# Elastic Constant Matrix: (Units=GPa)
#
#
# Indices 1 2 3 4 5 6 
#
# 1 50.9804 40.2343 36.3968 0.0000 0.0000 0.0000
# 2 40.2343 137.1850 67.2673 0.0000 0.0000 0.0000
# 3 36.3968 67.2673 59.5531 0.0000 0.0000 0.0000
# 4 0.0000 0.0000 0.0000 32.9587 0.0000 0.0000
# 5 0.0000 0.0000 0.0000 0.0000 17.7573 0.0000
# 6 0.0000 0.0000 0.0000 0.0000 0.0000 5.4799
#
#
#
# Elastic Compliance Matrix: (Units=1/GPa)
#
#
# Indices 1 2 3 4 5 6 
#
# 1 0.034815 0.000499 -0.021841 0.000000 0.000000 0.000000
# 2 0.000499 0.016346 -0.018768 0.000000 0.000000 0.000000
# 3 -0.021841 -0.018768 0.051339 0.000000 0.000000 0.000000
# 4 0.000000 0.000000 0.000000 0.030341 0.000000 0.000000
# 5 0.000000 0.000000 0.000000 0.000000 0.056315 0.000000
# 6 0.000000 0.000000 0.000000 0.000000 0.000000 0.182486
#
#
# Mechanical properties :
#
#
# Convention : Reuss Voigt Hill
#
# Bulk Modulus (GPa) = 44.88432 59.50168 52.19300
# Shear Modulus (GPa) = 10.88638 18.16052 14.52345
#
# Velocity S-wave (km/s) = 2.61526 3.37783 3.02070
# Velocity P-wave (km/s) = 6.10892 7.25231 6.70503
#
# Compressibility (1/GPa) = 0.02227950
#
# Stress axis : x y z
#
# Youngs Moduli (GPa) = 28.72343 61.17754 19.47819
#
# Poissons Ratio (x) = -0.03052 0.42542
# Poissons Ratio (y) = -0.01433 0.36557
# Poissons Ratio (z) = 0.62735 1.14819
#
# Static dielectric constant tensor:
#      x y z
#    x 1.533370 0.000000 0.000000 
#    y 0.000000 1.540520 0.000000 
#    z 0.000000 0.000000 1.529070 
# 
# From -- ./inp_files/9274.got.cif
#   From: 2010.05.17/outbox.cif.g08.bks.cpg/sg66_5_cif.got.tgz:9274.got - 2010.06.03 17:51:23.
