data_PCOD9496422
_publ_section_title
;
Structure prediction by ZEFSAII (Michael W. Deem and Ramdas Pophale) SiO2 
 PCOD9496422
Probable space group: C C C M
;
_chemical_formula_sum "Si O2"
_cell_formula_units_Z 64
_cell_length_a 7.758307
_cell_length_b 16.083255
_cell_length_c 23.409756
_cell_angle_alpha 90.000000
_cell_angle_beta 90.000000
_cell_angle_gamma 90.000000
_cell_volume 2921.041961
_symmetry_space_group_name_H-M "C C C M"
_symmetry_group_IT_number 66
_symmetry_cell_setting 'orthorhombic'
loop_
_space_group_symop_operation_xyz
x,y,z
-x,-y,z
x,-y,1/2-z
-x,y,1/2-z
-x,-y,-z
x,y,-z
-x,y,1/2+z
x,-y,1/2+z
1/2+x,1/2+y,z
1/2-x,1/2-y,z
1/2+x,1/2-y,1/2-z
1/2-x,1/2+y,1/2-z
1/2-x,1/2-y,-z
1/2+x,1/2+y,-z
1/2-x,1/2+y,1/2+z
1/2+x,1/2-y,1/2+z
loop_
_atom_site_type_symbol
_atom_site_label
_atom_site_fract_x
_atom_site_fract_y
_atom_site_fract_z
Si Si1 0.239229 0.971029 0.000000
Si Si2 0.944640 0.590338 0.315478
Si Si3 0.590821 0.418521 0.123874
Si Si4 0.917111 0.360136 0.500000
Si Si5 0.963543 0.259069 0.892860
O O1 0.153247 0.941074 0.940744
O O2 0.418549 0.921679 0.000000
O O3 0.263823 0.071569 0.000000
O O4 0.744899 0.596253 0.331836
O O5 0.009992 0.674840 0.344129
O O6 0.000000 0.500000 0.341034
O O7 0.000000 0.589378 0.250000
O O8 0.500000 0.500000 0.145658
O O9 0.481661 0.334649 0.119773
O O10 0.944187 0.299510 0.553134
O O11 0.750000 0.250000 0.901595
#
# Coordination Sequence:
#
# PCOD9496422 Si02
#       5
#     8  16  16   8  16
#     4  11  20  33  62  95 136 164 204 238 307 380
#     4  10  21  41  64  86 114 159 213 258 299 369
#     4  11  23  40  61  95 132 162 196 260 322 365
#     4  11  18  32  62  98 122 171 210 238 285 380
#     4  10  19  35  62  90 123 160 206 248 302 369
#
# _framework density 21.909988999999999
#
# number of rings (size 3 to 8) (size 9 to 14) (size 15 to 20)
#    0.000    1.500    5.000    3.000    0.000    0.000 
#    0.000   23.750    0.000    0.000    0.000    0.000 
#    0.000    0.000    0.000    0.000    0.000    0.000 
#
# Total GULP energy -178506.940028 kJ/mol
# GULP energy per Si atom -5578.341876 kJ/mol
# Density = 2.186012 g / cm^3
# Si number density = 21.909989 Si / 1000 Ang^3
#
#
#
# Elastic Constant Matrix: (Units=GPa)
#
#
# Indices 1 2 3 4 5 6 
#
# 1 29.0884 27.8017 31.5002 0.0000 0.0000 0.0000
# 2 27.8017 253.8272 66.4752 0.0000 0.0000 0.0000
# 3 31.5002 66.4752 122.5126 0.0000 0.0000 0.0000
# 4 0.0000 0.0000 0.0000 18.1796 0.0000 0.0000
# 5 0.0000 0.0000 0.0000 0.0000 -40.8125 0.0000
# 6 0.0000 0.0000 0.0000 0.0000 0.0000 32.1153
#
#
#
# Elastic Compliance Matrix: (Units=1/GPa)
#
#
# Indices 1 2 3 4 5 6 
#
# 1 0.048870 -0.002404 -0.011261 0.000000 0.000000 0.000000
# 2 -0.002404 0.004710 -0.001938 0.000000 0.000000 0.000000
# 3 -0.011261 -0.001938 0.012109 0.000000 0.000000 0.000000
# 4 0.000000 0.000000 0.000000 0.055007 0.000000 0.000000
# 5 0.000000 0.000000 0.000000 0.000000 -0.024502 0.000000
# 6 0.000000 0.000000 0.000000 0.000000 0.000000 0.031138
#
#
# Mechanical properties :
#
#
# Convention : Reuss Voigt Hill
#
# Bulk Modulus (GPa) = 28.99837 72.99803 50.99820
# Shear Modulus (GPa) = 29.40612 20.53989 24.97300
#
# Velocity S-wave (km/s) = 3.66749 3.06513 3.37975
# Velocity P-wave (km/s) = 5.58551 6.77615 6.20944
#
# Compressibility (1/GPa) = 0.03448470
#
# Stress axis : x y z
#
# Youngs Moduli (GPa) = 20.46236 212.29319 82.58037
#
# Poissons Ratio (x) = 0.51025 0.92996
# Poissons Ratio (y) = 0.04918 0.16003
# Poissons Ratio (z) = 0.23043 0.41140
#
# Static dielectric constant tensor:
#      x y z
#    x 1.924960 0.000000 0.000000 
#    y 0.000000 1.892760 0.000000 
#    z 0.000000 0.000000 1.768080 
# 
# From -- ./inp_files/55019.got.cif
#   From: 2010.05.17/outbox.cif.g08.bks.cpg/sg66_28_cif.got.tgz:55019.got - 2010.06.03 17:51:23.
