data_PCOD9496347
_publ_section_title
;
Structure prediction by ZEFSAII (Michael W. Deem and Ramdas Pophale) SiO2 
 PCOD9496347
Probable space group: C C C M
;
_chemical_formula_sum "Si O2"
_cell_formula_units_Z 116
_cell_length_a 8.711282
_cell_length_b 28.236558
_cell_length_c 23.902305
_cell_angle_alpha 90.000000
_cell_angle_beta 90.000000
_cell_angle_gamma 90.000000
_cell_volume 5879.408181
_symmetry_space_group_name_H-M "C C C M"
_symmetry_group_IT_number 66
_symmetry_cell_setting 'orthorhombic'
loop_
_space_group_symop_operation_xyz
x,y,z
-x,-y,z
x,-y,1/2-z
-x,y,1/2-z
-x,-y,-z
x,y,-z
-x,y,1/2+z
x,-y,1/2+z
1/2+x,1/2+y,z
1/2-x,1/2-y,z
1/2+x,1/2-y,1/2-z
1/2-x,1/2+y,1/2-z
1/2-x,1/2-y,-z
1/2+x,1/2+y,-z
1/2-x,1/2+y,1/2+z
1/2+x,1/2-y,1/2+z
loop_
_atom_site_type_symbol
_atom_site_label
_atom_site_fract_x
_atom_site_fract_y
_atom_site_fract_z
Si Si1 0.447723 0.427258 0.437780
Si Si2 0.557167 0.123928 0.159333
Si Si3 0.641901 0.973042 0.602649
Si Si4 0.866975 0.964404 0.832282
Si Si5 0.675035 0.674953 0.401896
Si Si6 0.761029 0.373796 0.273746
Si Si7 0.750000 0.250000 0.000000
Si Si8 0.883691 0.786153 0.711469
O O1 0.510949 0.431708 0.500000
O O2 0.291884 0.458186 0.432158
O O3 0.565070 0.443832 0.390409
O O4 0.396125 0.373724 0.424730
O O5 0.568957 0.075313 0.125721
O O6 0.657568 0.161962 0.124905
O O7 0.647135 0.114603 0.217100
O O8 0.385143 0.137115 0.177541
O O9 0.500000 0.000000 0.574681
O O10 0.714651 0.005477 0.652448
O O11 0.833090 0.919784 0.792941
O O12 0.000000 0.000000 0.812015
O O13 0.693581 0.712603 0.450627
O O14 0.574875 0.692382 0.348706
O O15 0.665335 0.328258 0.253979
O O16 0.750000 0.750000 0.698243
O O17 0.000000 0.757095 0.750000
#
# Coordination Sequence:
#
# PCOD9496347 Si02
#       8
#    16  16  16  16  16  16   4  16
#     4  10  21  38  58  81 119 159 200 254 308 355
#     4   9  20  36  60  87 124 154 196 253 299 370
#     4  10  19  35  55  84 118 152 204 246 289 360
#     4  10  21  36  58  86 122 164 203 249 299 368
#     4  10  21  38  61  93 119 153 208 251 310 365
#     4  10  20  38  60  85 122 165 195 244 318 357
#     4  12  20  36  68  92 114 164 200 266 298 372
#     4  11  24  38  62  94 126 157 205 251 310 376
#
# _framework density 19.729876000000001
#
# number of rings (size 3 to 8) (size 9 to 14) (size 15 to 20)
#    0.000    1.931    2.759    0.828    3.862    4.414 
#    0.000    4.828    1.517    0.000    0.000    2.414 
#    0.000    0.000    0.000    0.000    0.000    0.000 
#
# Total GULP energy -323057.254550 kJ/mol
# GULP energy per Si atom -5569.952665 kJ/mol
# Density = 1.968497 g / cm^3
# Si number density = 19.729876 Si / 1000 Ang^3
#
#
#
# Elastic Constant Matrix: (Units=GPa)
#
#
# Indices 1 2 3 4 5 6 
#
# 1 37.6445 0.3336 15.3320 0.0000 0.0000 0.0000
# 2 0.3336 68.3834 26.1439 0.0000 0.0000 0.0000
# 3 15.3320 26.1439 105.7435 0.0000 0.0000 0.0000
# 4 0.0000 0.0000 0.0000 18.7990 0.0000 0.0000
# 5 0.0000 0.0000 0.0000 0.0000 10.0556 0.0000
# 6 0.0000 0.0000 0.0000 0.0000 0.0000 15.1414
#
#
#
# Elastic Compliance Matrix: (Units=1/GPa)
#
#
# Indices 1 2 3 4 5 6 
#
# 1 0.028386 0.001585 -0.004508 0.000000 0.000000 0.000000
# 2 0.001585 0.016238 -0.004245 0.000000 0.000000 0.000000
# 3 -0.004508 -0.004245 0.011160 0.000000 0.000000 0.000000
# 4 0.000000 0.000000 0.000000 0.053194 0.000000 0.000000
# 5 0.000000 0.000000 0.000000 0.000000 0.099447 0.000000
# 6 0.000000 0.000000 0.000000 0.000000 0.000000 0.066044
#
#
# Mechanical properties :
#
#
# Convention : Reuss Voigt Hill
#
# Bulk Modulus (GPa) = 24.12561 32.82116 28.47338
# Shear Modulus (GPa) = 16.52233 20.13001 18.32617
#
# Velocity S-wave (km/s) = 2.89697 3.19765 3.05102
# Velocity P-wave (km/s) = 4.84195 5.50497 5.18407
#
# Compressibility (1/GPa) = 0.04144974
#
# Stress axis : x y z
#
# Youngs Moduli (GPa) = 35.22849 61.58227 89.60710
#
# Poissons Ratio (x) = -0.09760 0.40391
# Poissons Ratio (y) = -0.05583 0.38034
# Poissons Ratio (z) = 0.15880 0.26139
#
# Static dielectric constant tensor:
#      x y z
#    x 1.789670 0.000000 0.000000 
#    y 0.000000 1.702290 0.000000 
#    z 0.000000 0.000000 1.679540 
# 
# From -- ./inp_files/55911.got.cif
#   From: 2010.05.17/outbox.cif.g08.bks.cpg/sg66_28_cif.got.tgz:55911.got - 2010.06.03 17:51:23.
