data_PCOD9496161
_publ_section_title
;
Structure prediction by ZEFSAII (Michael W. Deem and Ramdas Pophale) SiO2 
 PCOD9496161
Probable space group: C C C M
;
_chemical_formula_sum "Si O2"
_cell_formula_units_Z 116
_cell_length_a 14.183441
_cell_length_b 15.420117
_cell_length_c 25.850226
_cell_angle_alpha 90.000000
_cell_angle_beta 90.000000
_cell_angle_gamma 90.000000
_cell_volume 5653.711192
_symmetry_space_group_name_H-M "C C C M"
_symmetry_group_IT_number 66
_symmetry_cell_setting 'orthorhombic'
loop_
_space_group_symop_operation_xyz
x,y,z
-x,-y,z
x,-y,1/2-z
-x,y,1/2-z
-x,-y,-z
x,y,-z
-x,y,1/2+z
x,-y,1/2+z
1/2+x,1/2+y,z
1/2-x,1/2-y,z
1/2+x,1/2-y,1/2-z
1/2-x,1/2+y,1/2-z
1/2-x,1/2-y,-z
1/2+x,1/2+y,-z
1/2-x,1/2+y,1/2+z
1/2+x,1/2-y,1/2+z
loop_
_atom_site_type_symbol
_atom_site_label
_atom_site_fract_x
_atom_site_fract_y
_atom_site_fract_z
Si Si1 0.500000 0.000000 0.750000
Si Si2 0.053089 0.380289 0.561815
Si Si3 0.213309 0.838333 0.345415
Si Si4 0.760236 0.058233 0.938329
Si Si5 0.374723 0.385091 0.058965
Si Si6 0.925452 0.822366 0.410614
Si Si7 0.417217 0.888012 0.342113
Si Si8 0.526587 0.692641 0.191036
O O1 0.557609 0.057507 0.708929
O O2 0.032910 0.396670 0.500000
O O3 0.151891 0.426361 0.577894
O O4 0.065376 0.276152 0.569122
O O5 0.973448 0.405509 0.604218
O O6 0.250000 0.750000 0.319518
O O7 0.171406 0.816562 0.402110
O O8 0.305456 0.895795 0.349967
O O9 0.118684 0.867935 0.317044
O O10 0.824392 0.139944 0.923929
O O11 0.824840 0.974859 0.923946
O O12 0.753949 0.053272 0.000000
O O13 0.487484 0.377739 0.065039
O O14 0.350576 0.368275 0.000000
O O15 0.944866 0.829986 0.349344
O O16 0.444245 0.789418 0.326864
O O17 0.500000 0.692406 0.250000
#
# Coordination Sequence:
#
# PCOD9496161 Si02
#       8
#     4  16  16  16  16  16  16  16
#     4  12  24  40  62  80 114 160 194 242 280 344
#     4  10  21  37  58  86 119 151 194 245 295 357
#     4   9  20  37  58  81 110 144 187 241 288 339
#     4  10  20  34  52  82 120 152 185 237 299 360
#     4  10  20  33  54  83 115 150 189 234 292 364
#     4  10  19  33  58  83 112 154 194 237 295 360
#     4  10  22  39  59  84 112 152 194 237 290 345
#     4   9  18  39  58  83 111 142 193 245 290 339
#
# _framework density 20.517496999999999
#
# number of rings (size 3 to 8) (size 9 to 14) (size 15 to 20)
#    0.000    2.207    0.690    2.897    1.931    3.034 
#    2.483    1.724    0.000    5.793    0.000    0.000 
#    0.000    0.000    0.000    0.000    0.000    0.000 
#
# Total GULP energy -323100.268367 kJ/mol
# GULP energy per Si atom -5570.694282 kJ/mol
# Density = 2.047080 g / cm^3
# Si number density = 20.517497 Si / 1000 Ang^3
#
#
#
# Elastic Constant Matrix: (Units=GPa)
#
#
# Indices 1 2 3 4 5 6 
#
# 1 134.0861 32.6051 51.0298 0.0000 0.0000 0.0000
# 2 32.6051 57.3782 17.2256 0.0000 0.0000 0.0000
# 3 51.0298 17.2256 117.6496 0.0000 0.0000 0.0000
# 4 0.0000 0.0000 0.0000 23.5501 0.0000 0.0000
# 5 0.0000 0.0000 0.0000 0.0000 -14.9335 0.0000
# 6 0.0000 0.0000 0.0000 0.0000 0.0000 20.3464
#
#
#
# Elastic Compliance Matrix: (Units=1/GPa)
#
#
# Indices 1 2 3 4 5 6 
#
# 1 0.009957 -0.004562 -0.003651 0.000000 0.000000 0.000000
# 2 -0.004562 0.020320 -0.000996 0.000000 0.000000 0.000000
# 3 -0.003651 -0.000996 0.010229 0.000000 0.000000 0.000000
# 4 0.000000 0.000000 0.000000 0.042463 0.000000 0.000000
# 5 0.000000 0.000000 0.000000 0.000000 -0.066963 0.000000
# 6 0.000000 0.000000 0.000000 0.000000 0.000000 0.049149
#
#
# Mechanical properties :
#
#
# Convention : Reuss Voigt Hill
#
# Bulk Modulus (GPa) = 45.27449 56.75941 51.01695
# Shear Modulus (GPa) = 54.98521 19.67616 37.33068
#
# Velocity S-wave (km/s) = 5.18241 3.10012 4.27014
# Velocity P-wave (km/s) = 7.61078 6.36697 7.01649
#
# Compressibility (1/GPa) = 0.02208750
#
# Stress axis : x y z
#
# Youngs Moduli (GPa) = 100.43674 49.21356 97.75972
#
# Poissons Ratio (x) = 0.22450 0.35689
# Poissons Ratio (y) = 0.45817 0.09741
# Poissons Ratio (z) = 0.36666 0.04904
#
# Static dielectric constant tensor:
#      x y z
#    x 2.000100 0.000000 0.000000 
#    y 0.000000 1.826590 0.000000 
#    z 0.000000 0.000000 1.702960 
# 
# From -- ./inp_files/63867.got.cif
#   From: 2010.05.17/outbox.cif.g08.bks.cpg/sg66_32_cif.got.tgz:63867.got - 2010.06.03 17:51:23.
