data_PCOD9496635
_publ_section_title
;
Structure prediction by ZEFSAII (Michael W. Deem and Ramdas Pophale) SiO2 
 PCOD9496635
Probable space group: C C C M
;
_chemical_formula_sum "Si O2"
_cell_formula_units_Z 80
_cell_length_a 7.139636
_cell_length_b 18.584213
_cell_length_c 27.297954
_cell_angle_alpha 90.000000
_cell_angle_beta 90.000000
_cell_angle_gamma 90.000000
_cell_volume 3622.015819
_symmetry_space_group_name_H-M "C C C M"
_symmetry_group_IT_number 66
_symmetry_cell_setting 'orthorhombic'
loop_
_space_group_symop_operation_xyz
x,y,z
-x,-y,z
x,-y,1/2-z
-x,y,1/2-z
-x,-y,-z
x,y,-z
-x,y,1/2+z
x,-y,1/2+z
1/2+x,1/2+y,z
1/2-x,1/2-y,z
1/2+x,1/2-y,1/2-z
1/2-x,1/2+y,1/2-z
1/2-x,1/2-y,-z
1/2+x,1/2+y,-z
1/2-x,1/2+y,1/2+z
1/2+x,1/2-y,1/2+z
loop_
_atom_site_type_symbol
_atom_site_label
_atom_site_fract_x
_atom_site_fract_y
_atom_site_fract_z
Si Si1 0.267456 0.335653 0.945175
Si Si2 0.370648 0.572494 0.946475
Si Si3 0.229638 0.091029 0.155655
Si Si4 0.274283 0.426487 0.655449
Si Si5 0.778530 0.165992 0.753719
O O1 0.250000 0.250000 0.937980
O O2 0.484075 0.361399 0.947726
O O3 0.201570 0.377600 0.896321
O O4 0.189425 0.353051 0.000000
O O5 0.500000 0.500000 0.938782
O O6 0.230071 0.583872 0.901824
O O7 0.283182 0.564159 0.000000
O O8 0.292160 0.139451 0.201114
O O9 0.000994 0.086600 0.154238
O O10 0.278836 0.008531 0.165910
O O11 0.205379 0.376450 0.698987
O O12 0.750000 0.250000 0.760257
O O13 0.000000 0.151526 0.750000
#
# Coordination Sequence:
#
# PCOD9496635 Si02
#       5
#    16  16  16  16  16
#     4   9  15  21  33  58  92 119 140 177 232 285
#     4   9  14  23  39  61  89 116 145 187 239 278
#     4   9  15  26  42  63  86 114 150 188 231 273
#     4   9  15  26  43  64  85 113 153 191 227 273
#     4  10  20  31  46  66  91 121 153 191 235 279
#
# _framework density 22.087150000000001
#
# number of rings (size 3 to 8) (size 9 to 14) (size 15 to 20)
#    0.000    2.800    4.000    1.200    0.000    2.400 
#    0.000    0.000    0.000    3.000    0.000    0.000 
#    0.000    0.000    0.000   50.200    0.000    1.400 
#
# Total GULP energy -222894.463845 kJ/mol
# GULP energy per Si atom -5572.361596 kJ/mol
# Density = 2.203688 g / cm^3
# Si number density = 22.087150 Si / 1000 Ang^3
#
#
#
# Elastic Constant Matrix: (Units=GPa)
#
#
# Indices 1 2 3 4 5 6 
#
# 1 60.7445 -1.6181 -0.4683 0.0000 0.0000 0.0000
# 2 -1.6181 162.1753 106.4172 0.0000 0.0000 0.0000
# 3 -0.4683 106.4172 261.9254 0.0000 0.0000 0.0000
# 4 0.0000 0.0000 0.0000 62.4994 0.0000 0.0000
# 5 0.0000 0.0000 0.0000 0.0000 -19.4213 0.0000
# 6 0.0000 0.0000 0.0000 0.0000 0.0000 10.5541
#
#
#
# Elastic Compliance Matrix: (Units=1/GPa)
#
#
# Indices 1 2 3 4 5 6 
#
# 1 0.016467 0.000198 -0.000051 0.000000 0.000000 0.000000
# 2 0.000198 0.008410 -0.003417 0.000000 0.000000 0.000000
# 3 -0.000051 -0.003417 0.005206 0.000000 0.000000 0.000000
# 4 0.000000 0.000000 0.000000 0.016000 0.000000 0.000000
# 5 0.000000 0.000000 0.000000 0.000000 -0.051490 0.000000
# 6 0.000000 0.000000 0.000000 0.000000 0.000000 0.094750
#
#
# Mechanical properties :
#
#
# Convention : Reuss Voigt Hill
#
# Bulk Modulus (GPa) = 42.47418 77.05633 59.76525
# Shear Modulus (GPa) = 48.20186 36.09407 42.14796
#
# Velocity S-wave (km/s) = 4.67663 4.04687 4.37310
# Velocity P-wave (km/s) = 6.95939 7.53653 7.25371
#
# Compressibility (1/GPa) = 0.02354372
#
# Stress axis : x y z
#
# Youngs Moduli (GPa) = 60.72653 118.90568 192.09004
#
# Poissons Ratio (x) = -0.02351 0.00977
# Poissons Ratio (y) = -0.01200 0.65628
# Poissons Ratio (z) = 0.00309 0.40625
#
# Static dielectric constant tensor:
#      x y z
#    x 1.503290 0.000000 0.000000 
#    y 0.000000 1.815900 0.000000 
#    z 0.000000 0.000000 1.889380 
# 
# From -- ./inp_files/68123.got.cif
#   From: 2010.05.17/outbox.cif.g08.bks.cpg/sg66_35_cif.got.tgz:68123.got - 2010.06.03 17:51:23.
