data_PCOD9496342
_publ_section_title
;
Structure prediction by ZEFSAII (Michael W. Deem and Ramdas Pophale) SiO2 
 PCOD9496342
Probable space group: C C C M
;
_chemical_formula_sum "Si O2"
_cell_formula_units_Z 88
_cell_length_a 8.777448
_cell_length_b 20.947386
_cell_length_c 24.967134
_cell_angle_alpha 90.000000
_cell_angle_beta 90.000000
_cell_angle_gamma 90.000000
_cell_volume 4590.571890
_symmetry_space_group_name_H-M "C C C M"
_symmetry_group_IT_number 66
_symmetry_cell_setting 'orthorhombic'
loop_
_space_group_symop_operation_xyz
x,y,z
-x,-y,z
x,-y,1/2-z
-x,y,1/2-z
-x,-y,-z
x,y,-z
-x,y,1/2+z
x,-y,1/2+z
1/2+x,1/2+y,z
1/2-x,1/2-y,z
1/2+x,1/2-y,1/2-z
1/2-x,1/2+y,1/2-z
1/2-x,1/2-y,-z
1/2+x,1/2+y,-z
1/2-x,1/2+y,1/2+z
1/2+x,1/2-y,1/2+z
loop_
_atom_site_type_symbol
_atom_site_label
_atom_site_fract_x
_atom_site_fract_y
_atom_site_fract_z
Si Si1 0.214060 0.057980 0.785516
Si Si2 0.942099 0.569248 0.881565
Si Si3 0.250000 0.750000 0.734526
Si Si4 0.525030 0.660481 0.163089
Si Si5 0.279299 0.673122 0.562476
Si Si6 0.678430 0.146247 0.808356
O O1 0.326787 0.046196 0.834894
O O2 0.071474 0.094076 0.809957
O O3 0.304153 0.100016 0.742316
O O4 0.167949 0.000000 0.750000
O O5 0.850447 0.621907 0.917726
O O6 0.000000 0.500000 0.904974
O O7 0.070355 0.612661 0.851557
O O8 0.361173 0.708245 0.696253
O O9 0.356165 0.789288 0.775886
O O10 0.580168 0.661582 0.102211
O O11 0.344492 0.662907 0.167620
O O12 0.308263 0.661436 0.500000
O O13 0.250000 0.750000 0.568167
#
# Coordination Sequence:
#
# PCOD9496342 Si02
#       6
#    16  16   8  16  16  16
#     4  10  19  35  54  84 129 170 203 231 298 376
#     4  11  23  40  62  94 128 166 209 256 311 382
#     4  10  20  34  55  90 131 168 194 238 310 378
#     4  10  22  37  58  91 120 164 211 257 303 377
#     4  10  23  45  70  87 115 165 218 272 329 378
#     4  11  23  33  58  91 131 163 202 248 307 372
#
# _framework density 19.169726000000001
#
# number of rings (size 3 to 8) (size 9 to 14) (size 15 to 20)
#    0.000    1.636    2.727    2.727    2.545    6.182 
#    0.000    0.909    0.000    3.273    0.000    0.000 
#    0.000    0.000    0.000    0.000    0.000    0.000 
#
# Total GULP energy -244940.299057 kJ/mol
# GULP energy per Si atom -5566.824979 kJ/mol
# Density = 1.912609 g / cm^3
# Si number density = 19.169726 Si / 1000 Ang^3
#
#
#
# Elastic Constant Matrix: (Units=GPa)
#
#
# Indices 1 2 3 4 5 6 
#
# 1 110.5705 34.8342 41.2234 0.0000 0.0000 0.0000
# 2 34.8342 114.6386 52.7768 0.0000 0.0000 0.0000
# 3 41.2234 52.7768 98.8064 0.0000 0.0000 0.0000
# 4 0.0000 0.0000 0.0000 25.9126 0.0000 0.0000
# 5 0.0000 0.0000 0.0000 0.0000 16.8770 0.0000
# 6 0.0000 0.0000 0.0000 0.0000 0.0000 15.8824
#
#
#
# Elastic Compliance Matrix: (Units=1/GPa)
#
#
# Indices 1 2 3 4 5 6 
#
# 1 0.010932 -0.001621 -0.003695 0.000000 0.000000 0.000000
# 2 -0.001621 0.011808 -0.005631 0.000000 0.000000 0.000000
# 3 -0.003695 -0.005631 0.014670 0.000000 0.000000 0.000000
# 4 0.000000 0.000000 0.000000 0.038591 0.000000 0.000000
# 5 0.000000 0.000000 0.000000 0.000000 0.059252 0.000000
# 6 0.000000 0.000000 0.000000 0.000000 0.000000 0.062963
#
#
# Mechanical properties :
#
#
# Convention : Reuss Voigt Hill
#
# Bulk Modulus (GPa) = 64.44772 64.63159 64.53965
# Shear Modulus (GPa) = 22.19431 24.74647 23.47039
#
# Velocity S-wave (km/s) = 3.40631 3.59683 3.50286
# Velocity P-wave (km/s) = 7.01164 7.14410 7.07818
#
# Compressibility (1/GPa) = 0.01551645
#
# Stress axis : x y z
#
# Youngs Moduli (GPa) = 91.47183 84.68936 68.16465
#
# Poissons Ratio (x) = 0.13725 0.25190
# Poissons Ratio (y) = 0.14824 0.38383
# Poissons Ratio (z) = 0.33803 0.47688
#
# Static dielectric constant tensor:
#      x y z
#    x 1.706860 0.000000 0.000000 
#    y 0.000000 1.246780 0.000000 
#    z 0.000000 0.000000 1.627330 
# 
# From -- ./inp_files/55493.got.cif
#   From: 2010.05.17/outbox.cif.g08.bks.cpg/sg66_28_cif.got.tgz:55493.got - 2010.06.03 17:51:23.
