data_PCOD9496656
_publ_section_title
;
Structure prediction by ZEFSAII (Michael W. Deem and Ramdas Pophale) SiO2 
 PCOD9496656
Probable space group: C C C M
;
_chemical_formula_sum "Si O2"
_cell_formula_units_Z 80
_cell_length_a 18.281408
_cell_length_b 27.942780
_cell_length_c 8.993210
_cell_angle_alpha 90.000000
_cell_angle_beta 90.000000
_cell_angle_gamma 90.000000
_cell_volume 4594.031698
_symmetry_space_group_name_H-M "C C C M"
_symmetry_group_IT_number 66
_symmetry_cell_setting 'orthorhombic'
loop_
_space_group_symop_operation_xyz
x,y,z
-x,-y,z
x,-y,1/2-z
-x,y,1/2-z
-x,-y,-z
x,y,-z
-x,y,1/2+z
x,-y,1/2+z
1/2+x,1/2+y,z
1/2-x,1/2-y,z
1/2+x,1/2-y,1/2-z
1/2-x,1/2+y,1/2-z
1/2-x,1/2-y,-z
1/2+x,1/2+y,-z
1/2-x,1/2+y,1/2+z
1/2+x,1/2-y,1/2+z
loop_
_atom_site_type_symbol
_atom_site_label
_atom_site_fract_x
_atom_site_fract_y
_atom_site_fract_z
Si Si1 0.073596 0.585149 0.822975
Si Si2 0.624815 0.818048 0.177426
Si Si3 0.765802 0.450553 0.822328
Si Si4 0.713670 0.354310 0.677622
Si Si5 0.422751 0.711141 0.320657
O O1 0.085521 0.639243 0.764279
O O2 0.148556 0.558110 0.781846
O O3 0.000000 0.565375 0.750000
O O4 0.066457 0.585051 0.000000
O O5 0.711715 0.824344 0.203689
O O6 0.597622 0.765668 0.221708
O O7 0.612378 0.824276 0.000000
O O8 0.740950 0.500000 0.750000
O O9 0.723140 0.404573 0.760322
O O10 0.760582 0.452473 0.000000
O O11 0.709763 0.362823 0.500000
O O12 0.643006 0.324107 0.723644
O O13 0.500000 0.697916 0.250000
O O14 0.427580 0.709987 0.500000
#
# Coordination Sequence:
#
# PCOD9496656 Si02
#       5
#    16  16  16  16  16
#     4  10  20  32  47  71 103 136 169 204 243 288
#     4   9  17  31  51  73 100 136 174 206 238 283
#     4  10  21  36  54  75  97 125 164 208 254 301
#     4   9  18  34  54  74  99 132 169 207 246 291
#     4  10  20  32  49  75 105 136 168 203 245 292
#
# _framework density 17.413898
#
# number of rings (size 3 to 8) (size 9 to 14) (size 15 to 20)
#    0.000    2.400    0.000    2.400    0.000    8.400 
#    0.000    2.000    0.000    6.600    0.000    4.200 
#    0.000    0.000    0.000    0.000    0.000    0.000 
#
# Total GULP energy -223292.391299 kJ/mol
# GULP energy per Si atom -5582.309782 kJ/mol
# Density = 1.737426 g / cm^3
# Si number density = 17.413898 Si / 1000 Ang^3
#
#
#
# Elastic Constant Matrix: (Units=GPa)
#
#
# Indices 1 2 3 4 5 6 
#
# 1 66.1117 21.6657 16.0850 0.0000 0.0000 0.0000
# 2 21.6657 70.4843 18.7255 0.0000 0.0000 0.0000
# 3 16.0850 18.7255 15.6978 0.0000 0.0000 0.0000
# 4 0.0000 0.0000 0.0000 20.2093 0.0000 0.0000
# 5 0.0000 0.0000 0.0000 0.0000 27.1028 0.0000
# 6 0.0000 0.0000 0.0000 0.0000 0.0000 2.2724
#
#
#
# Elastic Compliance Matrix: (Units=1/GPa)
#
#
# Indices 1 2 3 4 5 6 
#
# 1 0.020201 -0.001040 -0.019459 0.000000 0.000000 0.000000
# 2 -0.001040 0.020823 -0.023774 0.000000 0.000000 0.000000
# 3 -0.019459 -0.023774 0.112001 0.000000 0.000000 0.000000
# 4 0.000000 0.000000 0.000000 0.049482 0.000000 0.000000
# 5 0.000000 0.000000 0.000000 0.000000 0.036897 0.000000
# 6 0.000000 0.000000 0.000000 0.000000 0.000000 0.440063
#
#
# Mechanical properties :
#
#
# Convention : Reuss Voigt Hill
#
# Bulk Modulus (GPa) = 15.50868 29.47181 22.49024
# Shear Modulus (GPa) = 6.33308 16.30475 11.31891
#
# Velocity S-wave (km/s) = 1.90911 3.06323 2.55226
# Velocity P-wave (km/s) = 3.71279 5.42883 4.65065
#
# Compressibility (1/GPa) = 0.06448002
#
# Stress axis : x y z
#
# Youngs Moduli (GPa) = 49.50236 48.02348 8.92849
#
# Poissons Ratio (x) = 0.04994 0.17374
# Poissons Ratio (y) = 0.05147 0.21226
# Poissons Ratio (z) = 0.96326 1.14170
#
# Static dielectric constant tensor:
#      x y z
#    x 1.589320 0.000000 0.000000 
#    y 0.000000 1.569980 0.000000 
#    z 0.000000 0.000000 1.580220 
# 
# From -- ./inp_files/6639.got.cif
#   From: 2010.05.17/outbox.cif.g08.bks.cpg/sg66_4_cif.got.tgz:6639.got - 2010.06.03 17:51:23.
