data_PCOD9496341
_publ_section_title
;
Structure prediction by ZEFSAII (Michael W. Deem and Ramdas Pophale) SiO2 
 PCOD9496341
Probable space group: C C C M
;
_chemical_formula_sum "Si O2"
_cell_formula_units_Z 104
_cell_length_a 8.978840
_cell_length_b 21.913910
_cell_length_c 32.491305
_cell_angle_alpha 90.000000
_cell_angle_beta 90.000000
_cell_angle_gamma 90.000000
_cell_volume 6393.037638
_symmetry_space_group_name_H-M "C C C M"
_symmetry_group_IT_number 66
_symmetry_cell_setting 'orthorhombic'
loop_
_space_group_symop_operation_xyz
x,y,z
-x,-y,z
x,-y,1/2-z
-x,y,1/2-z
-x,-y,-z
x,y,-z
-x,y,1/2+z
x,-y,1/2+z
1/2+x,1/2+y,z
1/2-x,1/2-y,z
1/2+x,1/2-y,1/2-z
1/2-x,1/2+y,1/2-z
1/2-x,1/2-y,-z
1/2+x,1/2+y,-z
1/2-x,1/2+y,1/2+z
1/2+x,1/2-y,1/2+z
loop_
_atom_site_type_symbol
_atom_site_label
_atom_site_fract_x
_atom_site_fract_y
_atom_site_fract_z
Si Si1 0.631369 0.135548 0.837423
Si Si2 0.250000 0.750000 0.112834
Si Si3 0.205518 0.650526 0.547499
Si Si4 0.000000 0.603749 0.250000
Si Si5 0.501649 0.731253 0.951946
Si Si6 0.260985 0.000000 0.250000
Si Si7 0.898716 0.554447 0.111529
Si Si8 0.659880 0.476940 0.838434
O O1 0.671962 0.199503 0.858310
O O2 0.567520 0.138155 0.790234
O O3 0.503499 0.099684 0.862401
O O4 0.777625 0.092079 0.842818
O O5 0.373311 0.722692 0.081502
O O6 0.197637 0.631666 0.500000
O O7 0.363920 0.683514 0.553921
O O8 0.078407 0.702259 0.553736
O O9 0.180820 0.594471 0.577324
O O10 0.132789 0.557038 0.261659
O O11 0.452091 0.727099 0.000000
O O12 0.166483 0.014616 0.289626
O O13 0.782456 0.520506 0.140929
O O14 0.000000 0.500000 0.093504
O O15 0.500000 0.500000 0.853910
#
# Coordination Sequence:
#
# PCOD9496341 Si02
#       8
#    16   8  16   8  16   8  16  16
#     4  10  21  35  55  79 104 152 177 219 268 326
#     4  12  21  34  58  82 112 140 184 226 275 324
#     4   9  18  35  56  78 106 143 181 218 272 326
#     4   9  16  34  56  72 106 140 181 208 264 328
#     4   9  19  34  56  81 106 138 182 233 267 314
#     4   9  15  30  58  80  98 134 174 224 262 306
#     4  10  19  35  54  80 109 142 178 214 269 331
#     4  10  20  32  54  84 108 129 178 228 272 313
#
# _framework density 16.267696999999998
#
# number of rings (size 3 to 8) (size 9 to 14) (size 15 to 20)
#    0.000    2.308    3.077    1.385    2.154    0.308 
#    0.000    0.000   10.154    0.462    0.000    0.000 
#    0.000    0.000    0.000    0.000    0.000    0.000 
#
# Total GULP energy -289480.919190 kJ/mol
# GULP energy per Si atom -5566.940754 kJ/mol
# Density = 1.623067 g / cm^3
# Si number density = 16.267697 Si / 1000 Ang^3
#
#
#
# Elastic Constant Matrix: (Units=GPa)
#
#
# Indices 1 2 3 4 5 6 
#
# 1 66.5230 22.3207 26.1963 0.0000 0.0000 0.0000
# 2 22.3207 79.5383 51.1848 0.0000 0.0000 0.0000
# 3 26.1963 51.1848 89.9306 0.0000 0.0000 0.0000
# 4 0.0000 0.0000 0.0000 29.4334 0.0000 0.0000
# 5 0.0000 0.0000 0.0000 0.0000 8.2195 0.0000
# 6 0.0000 0.0000 0.0000 0.0000 0.0000 16.8328
#
#
#
# Elastic Compliance Matrix: (Units=1/GPa)
#
#
# Indices 1 2 3 4 5 6 
#
# 1 0.017300 -0.002544 -0.003592 0.000000 0.000000 0.000000
# 2 -0.002544 0.020213 -0.010763 0.000000 0.000000 0.000000
# 3 -0.003592 -0.010763 0.018292 0.000000 0.000000 0.000000
# 4 0.000000 0.000000 0.000000 0.033975 0.000000 0.000000
# 5 0.000000 0.000000 0.000000 0.000000 0.121661 0.000000
# 6 0.000000 0.000000 0.000000 0.000000 0.000000 0.059408
#
#
# Mechanical properties :
#
#
# Convention : Reuss Voigt Hill
#
# Bulk Modulus (GPa) = 45.43868 48.37727 46.90797
# Shear Modulus (GPa) = 16.02654 19.98317 18.00486
#
# Velocity S-wave (km/s) = 3.14216 3.50865 3.33045
# Velocity P-wave (km/s) = 6.41535 6.79831 6.60960
#
# Compressibility (1/GPa) = 0.02200768
#
# Stress axis : x y z
#
# Youngs Moduli (GPa) = 57.80261 49.47345 54.66857
#
# Poissons Ratio (x) = 0.12584 0.19636
# Poissons Ratio (y) = 0.14702 0.58842
# Poissons Ratio (z) = 0.20762 0.53250
#
# Static dielectric constant tensor:
#      x y z
#    x 1.562550 0.000000 0.000000 
#    y 0.000000 1.528910 0.000000 
#    z 0.000000 0.000000 1.537870 
# 
# From -- ./inp_files/68335.got.cif
#   From: 2010.05.17/outbox.cif.g08.bks.cpg/sg66_35_cif.got.tgz:68335.got - 2010.06.03 17:51:23.
