data_PCOD9496032
_publ_section_title
;
Structure prediction by ZEFSAII (Michael W. Deem and Ramdas Pophale) SiO2 
 PCOD9496032
Probable space group: C C C M
;
_chemical_formula_sum "Si O2"
_cell_formula_units_Z 88
_cell_length_a 22.814698
_cell_length_b 10.034678
_cell_length_c 20.458748
_cell_angle_alpha 90.000000
_cell_angle_beta 90.000000
_cell_angle_gamma 90.000000
_cell_volume 4683.787880
_symmetry_space_group_name_H-M "C C C M"
_symmetry_group_IT_number 66
_symmetry_cell_setting 'orthorhombic'
loop_
_space_group_symop_operation_xyz
x,y,z
-x,-y,z
x,-y,1/2-z
-x,y,1/2-z
-x,-y,-z
x,y,-z
-x,y,1/2+z
x,-y,1/2+z
1/2+x,1/2+y,z
1/2-x,1/2-y,z
1/2+x,1/2-y,1/2-z
1/2-x,1/2+y,1/2-z
1/2-x,1/2-y,-z
1/2+x,1/2+y,-z
1/2-x,1/2+y,1/2+z
1/2+x,1/2-y,1/2+z
loop_
_atom_site_type_symbol
_atom_site_label
_atom_site_fract_x
_atom_site_fract_y
_atom_site_fract_z
Si Si1 0.872545 0.185909 0.191929
Si Si2 0.745900 0.454998 0.572693
Si Si3 0.863705 0.107385 0.657093
Si Si4 0.250000 0.250000 0.622360
Si Si5 0.932787 0.545577 0.320392
Si Si6 0.377185 0.854475 0.575014
O O1 0.866392 0.163716 0.269607
O O2 0.809293 0.233089 0.164681
O O3 0.920418 0.297736 0.176388
O O4 0.887871 0.042976 0.160333
O O5 0.720221 0.431031 0.500000
O O6 0.702170 0.411153 0.629701
O O7 0.756074 0.613525 0.581532
O O8 0.807060 0.377829 0.576475
O O9 0.892423 0.214061 0.608730
O O10 0.907165 0.500000 0.250000
O O11 0.902779 0.470762 0.380177
O O12 0.000000 0.500000 0.320790
O O13 0.396373 0.861231 0.500000
#
# Coordination Sequence:
#
# PCOD9496032 Si02
#       6
#    16  16  16   8  16  16
#     4  10  21  37  58  89 120 156 205 254 313 360
#     4  10  20  33  53  85 125 165 200 237 305 381
#     4  10  21  35  56  87 125 156 196 250 307 382
#     4  10  19  32  56  86 119 160 196 256 306 364
#     4  11  23  42  67  87 114 156 212 267 307 357
#     4  11  22  38  60  88 125 165 203 250 306 371
#
# _framework density 18.788211
#
# number of rings (size 3 to 8) (size 9 to 14) (size 15 to 20)
#    0.000    1.636    3.636    1.364    2.545    1.818 
#    0.000    1.818    0.000    1.091    0.000    0.000 
#    0.000    0.000    0.000    0.000    0.000    0.000 
#
# Total GULP energy -245554.757835 kJ/mol
# GULP energy per Si atom -5580.789951 kJ/mol
# Density = 1.874545 g / cm^3
# Si number density = 18.788211 Si / 1000 Ang^3
#
#
#
# Elastic Constant Matrix: (Units=GPa)
#
#
# Indices 1 2 3 4 5 6 
#
# 1 40.6155 36.4447 25.8108 0.0000 0.0000 0.0000
# 2 36.4447 158.2965 71.8980 0.0000 0.0000 0.0000
# 3 25.8108 71.8980 132.1198 0.0000 0.0000 0.0000
# 4 0.0000 0.0000 0.0000 20.0939 0.0000 0.0000
# 5 0.0000 0.0000 0.0000 0.0000 14.7058 0.0000
# 6 0.0000 0.0000 0.0000 0.0000 0.0000 25.6917
#
#
#
# Elastic Compliance Matrix: (Units=1/GPa)
#
#
# Indices 1 2 3 4 5 6 
#
# 1 0.031885 -0.005993 -0.002968 0.000000 0.000000 0.000000
# 2 -0.005993 0.009518 -0.004009 0.000000 0.000000 0.000000
# 3 -0.002968 -0.004009 0.010330 0.000000 0.000000 0.000000
# 4 0.000000 0.000000 0.000000 0.049766 0.000000 0.000000
# 5 0.000000 0.000000 0.000000 0.000000 0.068000 0.000000
# 6 0.000000 0.000000 0.000000 0.000000 0.000000 0.038923
#
#
# Mechanical properties :
#
#
# Convention : Reuss Voigt Hill
#
# Bulk Modulus (GPa) = 38.76879 66.59319 52.68099
# Shear Modulus (GPa) = 20.57963 25.22350 22.90157
#
# Velocity S-wave (km/s) = 3.31320 3.66801 3.49511
# Velocity P-wave (km/s) = 5.94271 7.31165 6.66243
#
# Compressibility (1/GPa) = 0.02579394
#
# Stress axis : x y z
#
# Youngs Moduli (GPa) = 31.36316 105.06701 96.80427
#
# Poissons Ratio (x) = 0.62965 0.28728
# Poissons Ratio (y) = 0.18796 0.38806
# Poissons Ratio (z) = 0.09308 0.42118
#
# Static dielectric constant tensor:
#      x y z
#    x 1.637590 0.000000 0.000000 
#    y 0.000000 1.683540 0.000000 
#    z 0.000000 0.000000 1.641400 
# 
# From -- ./inp_files/52421.got.cif
#   From: 2010.05.17/outbox.cif.g08.bks.cpg/sg66_27_cif.got.tgz:52421.got - 2010.06.03 17:51:23.
