data_PCOD9496925
_publ_section_title
;
Structure prediction by ZEFSAII (Michael W. Deem and Ramdas Pophale) SiO2 
 PCOD9496925
Probable space group: C C C M
;
_chemical_formula_sum "Si O2"
_cell_formula_units_Z 96
_cell_length_a 9.832771
_cell_length_b 17.389733
_cell_length_c 28.097725
_cell_angle_alpha 90.000000
_cell_angle_beta 90.000000
_cell_angle_gamma 90.000000
_cell_volume 4804.409271
_symmetry_space_group_name_H-M "C C C M"
_symmetry_group_IT_number 66
_symmetry_cell_setting 'orthorhombic'
loop_
_space_group_symop_operation_xyz
x,y,z
-x,-y,z
x,-y,1/2-z
-x,y,1/2-z
-x,-y,-z
x,y,-z
-x,y,1/2+z
x,-y,1/2+z
1/2+x,1/2+y,z
1/2-x,1/2-y,z
1/2+x,1/2-y,1/2-z
1/2-x,1/2+y,1/2-z
1/2-x,1/2-y,-z
1/2+x,1/2+y,-z
1/2-x,1/2+y,1/2+z
1/2+x,1/2-y,1/2+z
loop_
_atom_site_type_symbol
_atom_site_label
_atom_site_fract_x
_atom_site_fract_y
_atom_site_fract_z
Si Si1 0.968974 0.851397 0.649090
Si Si2 0.244175 0.927007 0.678602
Si Si3 0.994728 0.324524 0.653778
Si Si4 0.638628 0.954882 0.608095
Si Si5 0.108953 0.068526 0.552871
Si Si6 0.728948 0.837681 0.727114
O O1 0.024106 0.764956 0.646487
O O2 0.919303 0.875816 0.597093
O O3 0.847799 0.847761 0.687789
O O4 0.089797 0.908291 0.664548
O O5 0.351758 0.867637 0.655309
O O6 0.258066 0.904734 0.733995
O O7 0.292498 0.007835 0.655911
O O8 0.092805 0.367157 0.616179
O O9 0.081852 0.337161 0.702100
O O10 0.743328 0.964818 0.565579
O O11 0.500000 0.000000 0.600251
O O12 0.104856 0.102645 0.500000
O O13 0.000000 0.000000 0.554721
O O14 0.750000 0.750000 0.747524
#
# Coordination Sequence:
#
# PCOD9496925 Si02
#       6
#    16  16  16  16  16  16
#     4  11  21  38  62  89 119 159 206 254 297 357
#     4  11  21  35  59  89 124 168 201 234 297 365
#     4  10  21  37  58  86 130 158 199 244 298 351
#     4  10  22  40  60  89 119 157 198 247 303 361
#     4  11  23  43  67  88 116 155 201 259 322 366
#     4  10  20  34  57  88 125 162 202 242 289 349
#
# _framework density 19.981646000000001
#
# number of rings (size 3 to 8) (size 9 to 14) (size 15 to 20)
#    0.000    1.500    3.333    2.500    0.000    3.667 
#    0.000    4.167    0.000    3.000    0.000    0.000 
#    0.000    0.000    0.000    0.000    0.000    0.000 
#
# Total GULP energy -267985.813341 kJ/mol
# GULP energy per Si atom -5583.037778 kJ/mol
# Density = 1.993617 g / cm^3
# Si number density = 19.981646 Si / 1000 Ang^3
#
#
#
# Elastic Constant Matrix: (Units=GPa)
#
#
# Indices 1 2 3 4 5 6 
#
# 1 84.0073 2.2612 15.2963 0.0000 0.0000 0.0000
# 2 2.2612 49.0449 5.0644 0.0000 0.0000 0.0000
# 3 15.2963 5.0644 99.1492 0.0000 0.0000 0.0000
# 4 0.0000 0.0000 0.0000 145.7938 0.0000 0.0000
# 5 0.0000 0.0000 0.0000 0.0000 12.4828 0.0000
# 6 0.0000 0.0000 0.0000 0.0000 0.0000 21.1924
#
#
#
# Elastic Compliance Matrix: (Units=1/GPa)
#
#
# Indices 1 2 3 4 5 6 
#
# 1 0.012255 -0.000372 -0.001872 0.000000 0.000000 0.000000
# 2 -0.000372 0.020509 -0.000990 0.000000 0.000000 0.000000
# 3 -0.001872 -0.000990 0.010425 0.000000 0.000000 0.000000
# 4 0.000000 0.000000 0.000000 0.006859 0.000000 0.000000
# 5 0.000000 0.000000 0.000000 0.000000 0.080110 0.000000
# 6 0.000000 0.000000 0.000000 0.000000 0.000000 0.047187
#
#
# Mechanical properties :
#
#
# Convention : Reuss Voigt Hill
#
# Bulk Modulus (GPa) = 27.23205 30.82725 29.02965
# Shear Modulus (GPa) = 25.50340 49.86576 37.68458
#
# Velocity S-wave (km/s) = 3.57647 5.00100 4.34747
# Velocity P-wave (km/s) = 5.54193 6.98626 6.30559
#
# Compressibility (1/GPa) = 0.03672144
#
# Stress axis : x y z
#
# Youngs Moduli (GPa) = 81.60258 48.75940 95.92207
#
# Poissons Ratio (x) = 0.01813 0.17953
# Poissons Ratio (y) = 0.03033 0.09498
# Poissons Ratio (z) = 0.15273 0.04828
#
# Static dielectric constant tensor:
#      x y z
#    x 1.716500 0.000000 0.000000 
#    y 0.000000 1.716900 0.000000 
#    z 0.000000 0.000000 1.714790 
# 
# From -- ./inp_files/62563.got.cif
#   From: 2010.05.17/outbox.cif.g08.bks.cpg/sg66_32_cif.got.tgz:62563.got - 2010.06.03 17:51:23.
