data_PCOD9496639
_publ_section_title
;
Structure prediction by ZEFSAII (Michael W. Deem and Ramdas Pophale) SiO2 
 PCOD9496639
Probable space group: C C C M
;
_chemical_formula_sum "Si O2"
_cell_formula_units_Z 80
_cell_length_a 18.789072
_cell_length_b 6.976525
_cell_length_c 26.534559
_cell_angle_alpha 90.000000
_cell_angle_beta 90.000000
_cell_angle_gamma 90.000000
_cell_volume 3478.214487
_symmetry_space_group_name_H-M "C C C M"
_symmetry_group_IT_number 66
_symmetry_cell_setting 'orthorhombic'
loop_
_space_group_symop_operation_xyz
x,y,z
-x,-y,z
x,-y,1/2-z
-x,y,1/2-z
-x,-y,-z
x,y,-z
-x,y,1/2+z
x,-y,1/2+z
1/2+x,1/2+y,z
1/2-x,1/2-y,z
1/2+x,1/2-y,1/2-z
1/2-x,1/2+y,1/2-z
1/2-x,1/2-y,-z
1/2+x,1/2+y,-z
1/2-x,1/2+y,1/2+z
1/2+x,1/2-y,1/2+z
loop_
_atom_site_type_symbol
_atom_site_label
_atom_site_fract_x
_atom_site_fract_y
_atom_site_fract_z
Si Si1 0.075578 0.934483 0.443337
Si Si2 0.165487 0.194775 0.141731
Si Si3 0.331873 0.819457 0.946019
Si Si4 0.668974 0.758811 0.662785
Si Si5 0.917863 0.231014 0.742509
O O1 0.061387 0.859684 0.500000
O O2 0.121547 0.786673 0.410477
O O3 0.119396 0.131170 0.448919
O O4 0.000000 0.000000 0.419851
O O5 0.250000 0.250000 0.140297
O O6 0.122571 0.272291 0.190143
O O7 0.157602 0.963553 0.148482
O O8 0.250000 0.750000 0.945801
O O9 0.341314 0.885598 0.887853
O O10 0.342070 0.926055 0.000000
O O11 0.750000 0.750000 0.679930
O O12 0.622299 0.816257 0.709636
O O13 0.000000 0.282555 0.750000
O O14 0.913963 0.000000 0.750000
#
# Coordination Sequence:
#
# PCOD9496639 Si02
#       5
#    16  16  16  16  16
#     4   9  18  30  48  74 101 129 164 206 248 296
#     4  10  20  31  49  74 101 128 161 208 253 297
#     4   8  14  25  43  69  93 117 153 196 234 277
#     4   9  17  30  49  69  94 127 163 201 240 295
#     4   9  18  29  47  71  95 127 165 208 245 290
#
# _framework density 23.000308
#
# number of rings (size 3 to 8) (size 9 to 14) (size 15 to 20)
#    0.000    3.000    0.000    0.600    8.400    0.400 
#    0.000    0.000    0.000    2.400    0.000    0.000 
#    0.000   32.400    0.000    0.000    0.000    0.000 
#
# Total GULP energy -222839.215940 kJ/mol
# GULP energy per Si atom -5570.980399 kJ/mol
# Density = 2.294796 g / cm^3
# Si number density = 23.000308 Si / 1000 Ang^3
#
#
#
# Elastic Constant Matrix: (Units=GPa)
#
#
# Indices 1 2 3 4 5 6 
#
# 1 165.1748 23.5971 113.4174 0.0000 0.0000 0.0000
# 2 23.5971 59.7188 -11.6406 0.0000 0.0000 0.0000
# 3 113.4174 -11.6406 208.1880 0.0000 0.0000 0.0000
# 4 0.0000 0.0000 0.0000 22.7181 0.0000 0.0000
# 5 0.0000 0.0000 0.0000 0.0000 36.2004 0.0000
# 6 0.0000 0.0000 0.0000 0.0000 0.0000 25.1360
#
#
#
# Elastic Compliance Matrix: (Units=1/GPa)
#
#
# Indices 1 2 3 4 5 6 
#
# 1 0.011336 -0.005746 -0.006497 0.000000 0.000000 0.000000
# 2 -0.005746 0.019842 0.004240 0.000000 0.000000 0.000000
# 3 -0.006497 0.004240 0.008580 0.000000 0.000000 0.000000
# 4 0.000000 0.000000 0.000000 0.044018 0.000000 0.000000
# 5 0.000000 0.000000 0.000000 0.000000 0.027624 0.000000
# 6 0.000000 0.000000 0.000000 0.000000 0.000000 0.039784
#
#
# Mechanical properties :
#
#
# Convention : Reuss Voigt Hill
#
# Bulk Modulus (GPa) = 42.10234 75.98104 59.04169
# Shear Modulus (GPa) = 28.55394 37.32475 32.93935
#
# Velocity S-wave (km/s) = 3.52726 4.03276 3.78845
# Velocity P-wave (km/s) = 5.91046 7.40208 6.69792
#
# Compressibility (1/GPa) = 0.02375165
#
# Stress axis : x y z
#
# Youngs Moduli (GPa) = 88.21231 50.39832 116.55121
#
# Poissons Ratio (x) = 0.28958 0.75724
# Poissons Ratio (y) = 0.50685 -0.49414
# Poissons Ratio (z) = 0.57312 -0.21367
#
# Static dielectric constant tensor:
#      x y z
#    x 1.836340 0.000000 0.000000 
#    y 0.000000 1.984940 0.000000 
#    z 0.000000 0.000000 1.955700 
# 
# From -- ./inp_files/62368.got.cif
#   From: 2010.05.17/outbox.cif.g08.bks.cpg/sg66_32_cif.got.tgz:62368.got - 2010.06.03 17:51:23.
