data_PCOD9496182
_publ_section_title
;
Structure prediction by ZEFSAII (Michael W. Deem and Ramdas Pophale) SiO2 
 PCOD9496182
Probable space group: C C C M
;
_chemical_formula_sum "Si O2"
_cell_formula_units_Z 80
_cell_length_a 7.973797
_cell_length_b 17.451948
_cell_length_c 24.593071
_cell_angle_alpha 90.000000
_cell_angle_beta 90.000000
_cell_angle_gamma 90.000000
_cell_volume 3422.329721
_symmetry_space_group_name_H-M "C C C M"
_symmetry_group_IT_number 66
_symmetry_cell_setting 'orthorhombic'
loop_
_space_group_symop_operation_xyz
x,y,z
-x,-y,z
x,-y,1/2-z
-x,y,1/2-z
-x,-y,-z
x,y,-z
-x,y,1/2+z
x,-y,1/2+z
1/2+x,1/2+y,z
1/2-x,1/2-y,z
1/2+x,1/2-y,1/2-z
1/2-x,1/2+y,1/2-z
1/2-x,1/2-y,-z
1/2+x,1/2+y,-z
1/2-x,1/2+y,1/2+z
1/2+x,1/2-y,1/2+z
loop_
_atom_site_type_symbol
_atom_site_label
_atom_site_fract_x
_atom_site_fract_y
_atom_site_fract_z
Si Si1 0.760194 0.413797 0.734936
Si Si2 0.458440 0.410477 0.059616
Si Si3 0.434404 0.644316 0.172439
Si Si4 0.055488 0.413478 0.936563
Si Si5 0.922577 0.700244 0.846116
O O1 0.803080 0.500000 0.750000
O O2 0.725964 0.376810 0.793277
O O3 0.586515 0.405298 0.699742
O O4 0.881668 0.365403 0.697238
O O5 0.500000 0.500000 0.059773
O O6 0.557243 0.372867 0.108892
O O7 0.257994 0.406800 0.067271
O O8 0.499801 0.378396 0.000000
O O9 0.467397 0.733514 0.179584
O O10 0.000892 0.343776 0.897923
O O11 0.000000 0.500000 0.919831
O O12 0.006337 0.404860 0.000000
O O13 0.750000 0.750000 0.859691
#
# Coordination Sequence:
#
# PCOD9496182 Si02
#       5
#    16  16  16  16  16
#     4  10  19  34  59  81 110 160 202 245 295 357
#     4  10  19  33  61  94 120 154 205 253 294 362
#     4  10  19  34  59  82 120 147 197 256 297 346
#     4  10  21  38  60  88 126 163 195 247 310 363
#     4  10  20  37  58  87 119 151 207 253 295 368
#
# _framework density 23.375888
#
# number of rings (size 3 to 8) (size 9 to 14) (size 15 to 20)
#    0.000    2.000    4.000    2.400    0.000    1.200 
#    0.000   10.000    0.000    0.000    0.000    5.600 
#    0.000    0.000    0.000    0.000    0.000    0.000 
#
# Total GULP energy -223666.969900 kJ/mol
# GULP energy per Si atom -5591.674248 kJ/mol
# Density = 2.332268 g / cm^3
# Si number density = 23.375888 Si / 1000 Ang^3
#
#
#
# Elastic Constant Matrix: (Units=GPa)
#
#
# Indices 1 2 3 4 5 6 
#
# 1 47.9602 23.0321 27.2855 0.0000 0.0000 0.0000
# 2 23.0321 185.9485 71.1303 0.0000 0.0000 0.0000
# 3 27.2855 71.1303 160.9855 0.0000 0.0000 0.0000
# 4 0.0000 0.0000 0.0000 72.9699 0.0000 0.0000
# 5 0.0000 0.0000 0.0000 0.0000 9.0603 0.0000
# 6 0.0000 0.0000 0.0000 0.0000 0.0000 13.7391
#
#
#
# Elastic Compliance Matrix: (Units=1/GPa)
#
#
# Indices 1 2 3 4 5 6 
#
# 1 0.023499 -0.001669 -0.003245 0.000000 0.000000 0.000000
# 2 -0.001669 0.006590 -0.002629 0.000000 0.000000 0.000000
# 3 -0.003245 -0.002629 0.007923 0.000000 0.000000 0.000000
# 4 0.000000 0.000000 0.000000 0.013704 0.000000 0.000000
# 5 0.000000 0.000000 0.000000 0.000000 0.110372 0.000000
# 6 0.000000 0.000000 0.000000 0.000000 0.000000 0.072785
#
#
# Mechanical properties :
#
#
# Convention : Reuss Voigt Hill
#
# Bulk Modulus (GPa) = 43.61988 70.86555 57.24272
# Shear Modulus (GPa) = 19.40983 37.38361 28.39672
#
# Velocity S-wave (km/s) = 2.88468 4.00339 3.48916
# Velocity P-wave (km/s) = 5.45856 7.19381 6.38541
#
# Compressibility (1/GPa) = 0.02292533
#
# Stress axis : x y z
#
# Youngs Moduli (GPa) = 42.55590 151.73996 126.20917
#
# Poissons Ratio (x) = 0.25328 0.40958
# Poissons Ratio (y) = 0.07103 0.33180
# Poissons Ratio (z) = 0.13810 0.39891
#
# Static dielectric constant tensor:
#      x y z
#    x 1.958680 0.000000 0.000000 
#    y 0.000000 1.826510 0.000000 
#    z 0.000000 0.000000 1.896820 
# 
# From -- ./inp_files/56619.got.cif
#   From: 2010.05.17/outbox.cif.g08.bks.cpg/sg66_29_cif.got.tgz:56619.got - 2010.06.03 17:51:23.
