data_PCOD9496626
_publ_section_title
;
Structure prediction by ZEFSAII (Michael W. Deem and Ramdas Pophale) SiO2 
 PCOD9496626
Probable space group: C C C M
;
_chemical_formula_sum "Si O2"
_cell_formula_units_Z 96
_cell_length_a 32.501904
_cell_length_b 29.392350
_cell_length_c 7.659501
_cell_angle_alpha 90.000000
_cell_angle_beta 90.000000
_cell_angle_gamma 90.000000
_cell_volume 7317.177511
_symmetry_space_group_name_H-M "C C C M"
_symmetry_group_IT_number 66
_symmetry_cell_setting 'orthorhombic'
loop_
_space_group_symop_operation_xyz
x,y,z
-x,-y,z
x,-y,1/2-z
-x,y,1/2-z
-x,-y,-z
x,y,-z
-x,y,1/2+z
x,-y,1/2+z
1/2+x,1/2+y,z
1/2-x,1/2-y,z
1/2+x,1/2-y,1/2-z
1/2-x,1/2+y,1/2-z
1/2-x,1/2-y,-z
1/2+x,1/2+y,-z
1/2-x,1/2+y,1/2+z
1/2+x,1/2-y,1/2+z
loop_
_atom_site_type_symbol
_atom_site_label
_atom_site_fract_x
_atom_site_fract_y
_atom_site_fract_z
Si Si1 0.045290 0.416100 0.790416
Si Si2 0.454584 0.188367 0.208976
Si Si3 0.869422 0.727318 0.795589
Si Si4 0.685831 0.863877 0.795381
Si Si5 0.761074 0.675232 0.500000
Si Si6 0.683187 0.733062 0.500000
Si Si7 0.132244 0.449422 0.208983
O O1 0.047341 0.363786 0.724045
O O2 0.085526 0.442149 0.723914
O O3 0.000000 0.434869 0.750000
O O4 0.047861 0.414506 0.000000
O O5 0.500000 0.206269 0.250000
O O6 0.415826 0.217762 0.268357
O O7 0.450243 0.185574 0.000000
O O8 0.846085 0.678472 0.785328
O O9 0.845071 0.761557 0.670998
O O10 0.869219 0.740774 0.000000
O O11 0.723790 0.851678 0.671052
O O12 0.661931 0.908849 0.731821
O O13 0.697106 0.868737 0.000000
O O14 0.713787 0.690410 0.500000
O O15 0.787690 0.722013 0.500000
O O16 0.146663 0.500000 0.250000
O O17 0.130656 0.444601 0.000000
#
# Coordination Sequence:
#
# PCOD9496626 Si02
#       7
#    16  16  16  16   8   8  16
#     4   9  17  30  40  52  70  91 127 166 204 248
#     4   9  16  25  38  55  73  99 133 163 196 239
#     4   9  16  28  43  57  80 105 124 155 199 237
#     4   9  17  31  45  56  77 102 123 156 201 245
#     4   9  18  30  44  64  80  94 125 152 194 254
#     4   9  18  28  42  66  82  93 124 159 187 246
#     4  10  20  31  42  55  73  96 129 166 205 251
#
# _framework density 13.119813000000001
#
# number of rings (size 3 to 8) (size 9 to 14) (size 15 to 20)
#    0.000    2.833    1.667    0.000    2.333    1.667 
#    0.000    5.000    0.000    0.000    0.000    0.000 
#    0.000    0.000    0.000    0.000    0.000    0.000 
#
# Total GULP energy -267392.148262 kJ/mol
# GULP energy per Si atom -5570.669755 kJ/mol
# Density = 1.308995 g / cm^3
# Si number density = 13.119813 Si / 1000 Ang^3
#
#
#
# Elastic Constant Matrix: (Units=GPa)
#
#
# Indices 1 2 3 4 5 6 
#
# 1 74.9676 41.6137 31.4554 0.0000 0.0000 0.0000
# 2 41.6137 42.9120 21.9028 0.0000 0.0000 0.0000
# 3 31.4554 21.9028 50.7165 0.0000 0.0000 0.0000
# 4 0.0000 0.0000 0.0000 15.7931 0.0000 0.0000
# 5 0.0000 0.0000 0.0000 0.0000 17.0550 0.0000
# 6 0.0000 0.0000 0.0000 0.0000 0.0000 13.5330
#
#
#
# Elastic Compliance Matrix: (Units=1/GPa)
#
#
# Indices 1 2 3 4 5 6 
#
# 1 0.031276 -0.026205 -0.008081 0.000000 0.000000 0.000000
# 2 -0.026205 0.051849 -0.006139 0.000000 0.000000 0.000000
# 3 -0.008081 -0.006139 0.027381 0.000000 0.000000 0.000000
# 4 0.000000 0.000000 0.000000 0.063319 0.000000 0.000000
# 5 0.000000 0.000000 0.000000 0.000000 0.058634 0.000000
# 6 0.000000 0.000000 0.000000 0.000000 0.000000 0.073893
#
#
# Mechanical properties :
#
#
# Convention : Reuss Voigt Hill
#
# Bulk Modulus (GPa) = 33.72027 39.83778 36.77902
# Shear Modulus (GPa) = 12.59170 14.18449 13.38809
#
# Velocity S-wave (km/s) = 3.10134 3.29165 3.19791
# Velocity P-wave (km/s) = 6.21144 6.69904 6.45984
#
# Compressibility (1/GPa) = 0.02965576
#
# Stress axis : x y z
#
# Youngs Moduli (GPa) = 31.97355 19.28668 36.52224
#
# Poissons Ratio (x) = 0.50541 0.29513
# Poissons Ratio (y) = 0.83787 0.22421
# Poissons Ratio (z) = 0.25837 0.11840
#
# Static dielectric constant tensor:
#      x y z
#    x 1.436260 0.000000 0.000000 
#    y 0.000000 1.405730 0.000000 
#    z 0.000000 0.000000 1.477790 
# 
# From -- ./inp_files/9316.got.cif
#   From: 2010.05.17/outbox.cif.g08.bks.cpg/sg66_5_cif.got.tgz:9316.got - 2010.06.03 17:51:23.
