data_PCOD9496591
_publ_section_title
;
Structure prediction by ZEFSAII (Michael W. Deem and Ramdas Pophale) SiO2 
 PCOD9496591
Probable space group: C C C M
;
_chemical_formula_sum "Si O2"
_cell_formula_units_Z 104
_cell_length_a 8.573161
_cell_length_b 25.585527
_cell_length_c 24.422619
_cell_angle_alpha 90.000000
_cell_angle_beta 90.000000
_cell_angle_gamma 90.000000
_cell_volume 5357.073202
_symmetry_space_group_name_H-M "C C C M"
_symmetry_group_IT_number 66
_symmetry_cell_setting 'orthorhombic'
loop_
_space_group_symop_operation_xyz
x,y,z
-x,-y,z
x,-y,1/2-z
-x,y,1/2-z
-x,-y,-z
x,y,-z
-x,y,1/2+z
x,-y,1/2+z
1/2+x,1/2+y,z
1/2-x,1/2-y,z
1/2+x,1/2-y,1/2-z
1/2-x,1/2+y,1/2-z
1/2-x,1/2-y,-z
1/2+x,1/2+y,-z
1/2-x,1/2+y,1/2+z
1/2+x,1/2-y,1/2+z
loop_
_atom_site_type_symbol
_atom_site_label
_atom_site_fract_x
_atom_site_fract_y
_atom_site_fract_z
Si Si1 0.564425 0.750971 0.616660
Si Si2 0.406257 0.902089 0.500000
Si Si3 0.444799 0.440945 0.120209
Si Si4 0.067240 0.557109 0.383572
Si Si5 0.563344 0.845848 0.189005
Si Si6 0.062198 0.843122 0.689202
Si Si7 0.419450 0.776052 0.500000
Si Si8 0.453977 0.561284 0.500000
O O1 0.750000 0.750000 0.618169
O O2 0.502200 0.800022 0.651217
O O3 0.497579 0.699739 0.646356
O O4 0.505695 0.757483 0.554772
O O5 0.481771 0.923163 0.444114
O O6 0.404288 0.839214 0.500000
O O7 0.229880 0.924981 0.500000
O O8 0.500000 0.500000 0.129544
O O9 0.256176 0.443165 0.117325
O O10 0.489160 0.399912 0.166852
O O11 0.506852 0.420894 0.060568
O O12 0.016985 0.599214 0.338559
O O13 0.000000 0.500000 0.373572
O O14 0.500000 0.841135 0.250000
O O15 0.750495 0.841888 0.189738
O O16 0.000000 0.832735 0.750000
O O17 0.250000 0.750000 0.500000
O O18 0.500000 0.500000 0.500000
#
# Coordination Sequence:
#
# PCOD9496591 Si02
#       8
#    16   8  16  16  16  16   8   8
#     4  12  26  44  66  96 130 163 211 267 323 385
#     4  10  19  39  63  92 128 163 211 253 317 384
#     4   9  20  37  60  90 126 162 211 260 316 381
#     4  10  21  37  63  90 124 166 210 257 317 382
#     4  11  23  42  65  91 127 169 216 266 318 383
#     4  11  24  42  65  93 124 172 218 263 325 383
#     4  12  25  42  72  99 130 171 209 261 324 385
#     4   8  16  33  59  89 121 157 203 249 300 371
#
# _framework density 19.413585999999999
#
# number of rings (size 3 to 8) (size 9 to 14) (size 15 to 20)
#    0.000    1.538    1.538    3.231    4.308    3.077 
#    0.000    3.077    0.000    0.000    0.000    0.000 
#    0.000    0.000    0.000    0.000    0.000    0.000 
#
# Total GULP energy -290447.758123 kJ/mol
# GULP energy per Si atom -5585.533810 kJ/mol
# Density = 1.936940 g / cm^3
# Si number density = 19.413586 Si / 1000 Ang^3
#
#
#
# Elastic Constant Matrix: (Units=GPa)
#
#
# Indices 1 2 3 4 5 6 
#
# 1 66.4813 39.4442 49.4316 0.0000 0.0000 0.0000
# 2 39.4442 135.3845 75.8011 0.0000 0.0000 0.0000
# 3 49.4316 75.8011 176.3244 0.0000 0.0000 0.0000
# 4 0.0000 0.0000 0.0000 7.7397 0.0000 0.0000
# 5 0.0000 0.0000 0.0000 0.0000 21.7242 0.0000
# 6 0.0000 0.0000 0.0000 0.0000 0.0000 30.7502
#
#
#
# Elastic Compliance Matrix: (Units=1/GPa)
#
#
# Indices 1 2 3 4 5 6 
#
# 1 0.020242 -0.003582 -0.004135 0.000000 0.000000 0.000000
# 2 -0.003582 0.010362 -0.003450 0.000000 0.000000 0.000000
# 3 -0.004135 -0.003450 0.008314 0.000000 0.000000 0.000000
# 4 0.000000 0.000000 0.000000 0.129203 0.000000 0.000000
# 5 0.000000 0.000000 0.000000 0.000000 0.046032 0.000000
# 6 0.000000 0.000000 0.000000 0.000000 0.000000 0.032520
#
#
# Mechanical properties :
#
#
# Convention : Reuss Voigt Hill
#
# Bulk Modulus (GPa) = 60.30374 78.61598 69.45986
# Shear Modulus (GPa) = 18.21268 26.27706 22.24487
#
# Velocity S-wave (km/s) = 3.06623 3.68304 3.38870
# Velocity P-wave (km/s) = 6.60801 7.65961 7.15316
#
# Compressibility (1/GPa) = 0.01658272
#
# Stress axis : x y z
#
# Youngs Moduli (GPa) = 49.40340 96.50767 120.28372
#
# Poissons Ratio (x) = 0.34574 0.49731
# Poissons Ratio (y) = 0.17699 0.41500
# Poissons Ratio (z) = 0.20426 0.33297
#
# Static dielectric constant tensor:
#      x y z
#    x 1.641790 0.000000 0.000000 
#    y 0.000000 1.664580 0.000000 
#    z 0.000000 0.000000 1.668920 
# 
# From -- ./inp_files/47461.got.cif
#   From: 2010.05.17/outbox.cif.g08.bks.cpg/sg66_24_cif.got.tgz:47461.got - 2010.06.03 17:51:23.
