data_PCOD9496199
_publ_section_title
;
Structure prediction by ZEFSAII (Michael W. Deem and Ramdas Pophale) SiO2 
 PCOD9496199
Probable space group: C C C M
;
_chemical_formula_sum "Si O2"
_cell_formula_units_Z 96
_cell_length_a 18.088551
_cell_length_b 29.619846
_cell_length_c 9.155190
_cell_angle_alpha 90.000000
_cell_angle_beta 90.000000
_cell_angle_gamma 90.000000
_cell_volume 4905.168568
_symmetry_space_group_name_H-M "C C C M"
_symmetry_group_IT_number 66
_symmetry_cell_setting 'orthorhombic'
loop_
_space_group_symop_operation_xyz
x,y,z
-x,-y,z
x,-y,1/2-z
-x,y,1/2-z
-x,-y,-z
x,y,-z
-x,y,1/2+z
x,-y,1/2+z
1/2+x,1/2+y,z
1/2-x,1/2-y,z
1/2+x,1/2-y,1/2-z
1/2-x,1/2+y,1/2-z
1/2-x,1/2-y,-z
1/2+x,1/2+y,-z
1/2-x,1/2+y,1/2+z
1/2+x,1/2-y,1/2+z
loop_
_atom_site_type_symbol
_atom_site_label
_atom_site_fract_x
_atom_site_fract_y
_atom_site_fract_z
Si Si1 0.802165 0.303316 0.834345
Si Si2 0.120999 0.545240 0.671556
Si Si3 0.578390 0.274299 0.176120
Si Si4 0.333593 0.649859 0.675989
Si Si5 0.202156 0.047012 0.826646
Si Si6 0.562424 0.130243 0.163080
O O1 0.851588 0.259503 0.792196
O O2 0.740472 0.323320 0.727019
O O3 0.863717 0.341610 0.843952
O O4 0.771339 0.297536 0.000000
O O5 0.096650 0.500000 0.750000
O O6 0.108707 0.542805 0.500000
O O7 0.209253 0.550450 0.696971
O O8 0.080065 0.586552 0.743854
O O9 0.500000 0.261594 0.250000
O O10 0.602066 0.322714 0.242101
O O11 0.570500 0.274557 0.000000
O O12 0.340472 0.652389 0.500000
O O13 0.329146 0.596463 0.717570
O O14 0.177538 0.000000 0.750000
O O15 0.189518 0.042110 0.000000
O O16 0.500000 0.156941 0.250000
O O17 0.537805 0.119624 0.000000
#
# Coordination Sequence:
#
# PCOD9496199 Si02
#       6
#    16  16  16  16  16  16
#     4  10  22  39  59  85 117 154 199 244 289 343
#     4  10  19  34  52  74 104 142 187 238 290 347
#     4  11  24  42  62  88 121 159 199 244 297 352
#     4  11  22  38  62  93 123 156 197 242 292 349
#     4   9  19  34  56  86 118 151 190 237 290 347
#     4  11  22  35  52  75 106 148 192 241 293 344
#
# _framework density 19.571192
#
# number of rings (size 3 to 8) (size 9 to 14) (size 15 to 20)
#    0.000    1.667    1.667    3.000    0.000    6.333 
#    0.000    1.667    0.000    0.500    0.000    3.500 
#    0.000    0.000    0.000    0.000    0.000    0.000 
#
# Total GULP energy -267803.675040 kJ/mol
# GULP energy per Si atom -5579.243230 kJ/mol
# Density = 1.952665 g / cm^3
# Si number density = 19.571192 Si / 1000 Ang^3
#
#
#
# Elastic Constant Matrix: (Units=GPa)
#
#
# Indices 1 2 3 4 5 6 
#
# 1 28.2711 32.2296 15.7751 0.0000 0.0000 0.0000
# 2 32.2296 156.3216 44.1859 0.0000 0.0000 0.0000
# 3 15.7751 44.1859 60.2814 0.0000 0.0000 0.0000
# 4 0.0000 0.0000 0.0000 22.1092 0.0000 0.0000
# 5 0.0000 0.0000 0.0000 0.0000 28.6600 0.0000
# 6 0.0000 0.0000 0.0000 0.0000 0.0000 77.5841
#
#
#
# Elastic Compliance Matrix: (Units=1/GPa)
#
#
# Indices 1 2 3 4 5 6 
#
# 1 0.048317 -0.008057 -0.006738 0.000000 0.000000 0.000000
# 2 -0.008057 0.009412 -0.004791 0.000000 0.000000 0.000000
# 3 -0.006738 -0.004791 0.021864 0.000000 0.000000 0.000000
# 4 0.000000 0.000000 0.000000 0.045230 0.000000 0.000000
# 5 0.000000 0.000000 0.000000 0.000000 0.034892 0.000000
# 6 0.000000 0.000000 0.000000 0.000000 0.000000 0.012889
#
#
# Mechanical properties :
#
#
# Convention : Reuss Voigt Hill
#
# Bulk Modulus (GPa) = 24.73970 47.69504 36.21737
# Shear Modulus (GPa) = 22.19749 35.84954 29.02352
#
# Velocity S-wave (km/s) = 3.37143 4.28454 3.85511
# Velocity P-wave (km/s) = 5.27482 6.99280 6.19367
#
# Compressibility (1/GPa) = 0.04042087
#
# Stress axis : x y z
#
# Youngs Moduli (GPa) = 20.69660 106.24286 45.73761
#
# Poissons Ratio (x) = 0.85601 0.30820
# Poissons Ratio (y) = 0.16675 0.21912
# Poissons Ratio (z) = 0.13946 0.50898
#
# Static dielectric constant tensor:
#      x y z
#    x 1.756580 0.000000 0.000000 
#    y 0.000000 1.760130 0.000000 
#    z 0.000000 0.000000 1.659270 
# 
# From -- ./inp_files/7956.got.cif
#   From: 2010.05.17/outbox.cif.g08.bks.cpg/sg66_4_cif.got.tgz:7956.got - 2010.06.03 17:51:23.
