data_PCOD9496303
_publ_section_title
;
Structure prediction by ZEFSAII (Michael W. Deem and Ramdas Pophale) SiO2 
 PCOD9496303
Probable space group: C C C M
;
_chemical_formula_sum "Si O2"
_cell_formula_units_Z 116
_cell_length_a 27.022455
_cell_length_b 22.723464
_cell_length_c 10.112329
_cell_angle_alpha 90.000000
_cell_angle_beta 90.000000
_cell_angle_gamma 90.000000
_cell_volume 6209.412758
_symmetry_space_group_name_H-M "C C C M"
_symmetry_group_IT_number 66
_symmetry_cell_setting 'orthorhombic'
loop_
_space_group_symop_operation_xyz
x,y,z
-x,-y,z
x,-y,1/2-z
-x,y,1/2-z
-x,-y,-z
x,y,-z
-x,y,1/2+z
x,-y,1/2+z
1/2+x,1/2+y,z
1/2-x,1/2-y,z
1/2+x,1/2-y,1/2-z
1/2-x,1/2+y,1/2-z
1/2-x,1/2-y,-z
1/2+x,1/2+y,-z
1/2-x,1/2+y,1/2+z
1/2+x,1/2-y,1/2+z
loop_
_atom_site_type_symbol
_atom_site_label
_atom_site_fract_x
_atom_site_fract_y
_atom_site_fract_z
Si Si1 0.303574 0.270747 0.840884
Si Si2 0.959467 0.805168 0.356864
Si Si3 0.000000 0.000000 0.750000
Si Si4 0.215417 0.550839 0.651500
Si Si5 0.451674 0.832527 0.842608
Si Si6 0.091082 0.926473 0.145772
Si Si7 0.864161 0.653871 0.154571
Si Si8 0.826252 0.096500 0.343276
O O1 0.250000 0.250000 0.788545
O O2 0.342563 0.218878 0.818246
O O3 0.320053 0.335428 0.797701
O O4 0.298146 0.276028 0.000000
O O5 0.984514 0.807681 0.500000
O O6 0.942486 0.738198 0.339450
O O7 0.919622 0.856441 0.353296
O O8 0.000000 0.818979 0.250000
O O9 0.038632 0.958971 0.829921
O O10 0.199506 0.500000 0.750000
O O11 0.211383 0.530567 0.500000
O O12 0.181155 0.608316 0.664538
O O13 0.272498 0.567729 0.675976
O O14 0.500000 0.842865 0.750000
O O15 0.406062 0.860366 0.762044
O O16 0.456615 0.848331 0.000000
O O17 0.130866 0.934742 0.260685
O O18 0.109781 0.943338 0.000000
O O19 0.881800 0.652661 0.000000
O O20 0.837781 0.095775 0.500000
#
# Coordination Sequence:
#
# PCOD9496303 Si02
#       8
#    16  16   4  16  16  16  16  16
#     4   9  15  30  58  89 118 148 187 234 286 349
#     4   9  18  34  53  75 106 142 180 227 280 340
#     4  12  26  44  60  74 102 152 212 262 306 348
#     4  10  22  39  58  83 115 153 194 233 276 337
#     4  10  20  34  56  86 119 150 184 224 279 343
#     4  11  24  40  57  77 104 142 192 249 301 345
#     4  10  19  34  59  87 117 152 191 234 284 338
#     4  10  21  37  60  87 113 147 190 238 293 351
#
# _framework density 18.681315000000001
#
# number of rings (size 3 to 8) (size 9 to 14) (size 15 to 20)
#    0.000    2.069    2.069    1.448    0.966    3.310 
#    0.000    0.000    0.000    1.241    0.000    2.897 
#    0.000    0.000    0.000    0.000    0.000    0.000 
#
# Total GULP energy -323344.329283 kJ/mol
# GULP energy per Si atom -5574.902229 kJ/mol
# Density = 1.863880 g / cm^3
# Si number density = 18.681315 Si / 1000 Ang^3
#
#
#
# Elastic Constant Matrix: (Units=GPa)
#
#
# Indices 1 2 3 4 5 6 
#
# 1 96.1451 16.9656 69.5822 0.0000 0.0000 0.0000
# 2 16.9656 54.4315 26.9897 0.0000 0.0000 0.0000
# 3 69.5822 26.9897 108.6425 0.0000 0.0000 0.0000
# 4 0.0000 0.0000 0.0000 8.0940 0.0000 0.0000
# 5 0.0000 0.0000 0.0000 0.0000 29.2161 0.0000
# 6 0.0000 0.0000 0.0000 0.0000 0.0000 10.0645
#
#
#
# Elastic Compliance Matrix: (Units=1/GPa)
#
#
# Indices 1 2 3 4 5 6 
#
# 1 0.019388 0.000130 -0.012450 0.000000 0.000000 0.000000
# 2 0.000130 0.020954 -0.005289 0.000000 0.000000 0.000000
# 3 -0.012450 -0.005289 0.018492 0.000000 0.000000 0.000000
# 4 0.000000 0.000000 0.000000 0.123548 0.000000 0.000000
# 5 0.000000 0.000000 0.000000 0.000000 0.034228 0.000000
# 6 0.000000 0.000000 0.000000 0.000000 0.000000 0.099359
#
#
# Mechanical properties :
#
#
# Convention : Reuss Voigt Hill
#
# Bulk Modulus (GPa) = 42.34253 54.03268 48.18761
# Shear Modulus (GPa) = 13.92533 19.18703 16.55618
#
# Velocity S-wave (km/s) = 2.73319 3.20827 2.98021
# Velocity P-wave (km/s) = 5.71624 6.53530 6.13944
#
# Compressibility (1/GPa) = 0.02361692
#
# Stress axis : x y z
#
# Youngs Moduli (GPa) = 51.57756 47.72454 54.07681
#
# Poissons Ratio (x) = -0.00621 0.67325
# Poissons Ratio (y) = -0.00672 0.28600
# Poissons Ratio (z) = 0.64214 0.25241
#
# Static dielectric constant tensor:
#      x y z
#    x 1.635360 0.000000 0.000000 
#    y 0.000000 1.663260 0.000000 
#    z 0.000000 0.000000 1.641250 
# 
# From -- ./inp_files/10602.got.cif
#   From: 2010.05.17/outbox.cif.g08.bks.cpg/sg66_6_cif.got.tgz:10602.got - 2010.06.03 17:51:23.
