data_PCOD9496133
_publ_section_title
;
Structure prediction by ZEFSAII (Michael W. Deem and Ramdas Pophale) SiO2 
 PCOD9496133
Probable space group: C C C M
;
_chemical_formula_sum "Si O2"
_cell_formula_units_Z 64
_cell_length_a 4.984459
_cell_length_b 35.296950
_cell_length_c 16.044769
_cell_angle_alpha 90.000000
_cell_angle_beta 90.000000
_cell_angle_gamma 90.000000
_cell_volume 2822.855689
_symmetry_space_group_name_H-M "C C C M"
_symmetry_group_IT_number 66
_symmetry_cell_setting 'orthorhombic'
loop_
_space_group_symop_operation_xyz
x,y,z
-x,-y,z
x,-y,1/2-z
-x,y,1/2-z
-x,-y,-z
x,y,-z
-x,y,1/2+z
x,-y,1/2+z
1/2+x,1/2+y,z
1/2-x,1/2-y,z
1/2+x,1/2-y,1/2-z
1/2-x,1/2+y,1/2-z
1/2-x,1/2-y,-z
1/2+x,1/2+y,-z
1/2-x,1/2+y,1/2+z
1/2+x,1/2-y,1/2+z
loop_
_atom_site_type_symbol
_atom_site_label
_atom_site_fract_x
_atom_site_fract_y
_atom_site_fract_z
Si Si1 0.653953 0.084672 0.402177
Si Si2 0.394035 0.831262 0.341894
Si Si3 0.832342 0.035157 0.902696
Si Si4 0.875353 0.788791 0.404854
O O1 0.583885 0.091155 0.500000
O O2 0.645907 0.124113 0.354678
O O3 0.954040 0.068937 0.400148
O O4 0.446416 0.052383 0.370058
O O5 0.500000 0.823618 0.250000
O O6 0.630116 0.817980 0.402836
O O7 0.126469 0.807347 0.358945
O O8 0.778125 0.024396 0.000000
O O9 0.000000 0.000000 0.865209
O O10 0.960290 0.780929 0.500000
O O11 0.750000 0.750000 0.369121
#
# Coordination Sequence:
#
# PCOD9496133 Si02
#       4
#    16  16  16  16
#     4  10  19  33  56  83 116 159 204 251 304 366
#     4  12  25  41  63  94 131 166 205 256 314 376
#     4   9  17  30  52  83 114 149 202 262 308 351
#     4  11  24  44  69  94 123 162 209 258 310 374
#
# _framework density 22.672076000000001
#
# number of rings (size 3 to 8) (size 9 to 14) (size 15 to 20)
#    0.000    1.500    0.000    6.000    0.000    9.000 
#    0.000    0.000    0.000    4.500    0.000    0.000 
#    0.000    0.000    0.000    0.000    0.000    0.000 
#
# Total GULP energy -178892.000957 kJ/mol
# GULP energy per Si atom -5590.375030 kJ/mol
# Density = 2.262047 g / cm^3
# Si number density = 22.672076 Si / 1000 Ang^3
#
#
#
# Elastic Constant Matrix: (Units=GPa)
#
#
# Indices 1 2 3 4 5 6 
#
# 1 136.7462 25.2031 18.4983 0.0000 0.0000 0.0000
# 2 25.2031 79.2492 23.0643 0.0000 0.0000 0.0000
# 3 18.4983 23.0643 43.1663 0.0000 0.0000 0.0000
# 4 0.0000 0.0000 0.0000 -22.0978 0.0000 0.0000
# 5 0.0000 0.0000 0.0000 0.0000 66.9830 0.0000
# 6 0.0000 0.0000 0.0000 0.0000 0.0000 44.1827
#
#
#
# Elastic Compliance Matrix: (Units=1/GPa)
#
#
# Indices 1 2 3 4 5 6 
#
# 1 0.007980 -0.001827 -0.002444 0.000000 0.000000 0.000000
# 2 -0.001827 0.015360 -0.007424 0.000000 0.000000 0.000000
# 3 -0.002444 -0.007424 0.028180 0.000000 0.000000 0.000000
# 4 0.000000 0.000000 0.000000 -0.045253 0.000000 0.000000
# 5 0.000000 0.000000 0.000000 0.000000 0.014929 0.000000
# 6 0.000000 0.000000 0.000000 0.000000 0.000000 0.022633
#
#
# Mechanical properties :
#
#
# Convention : Reuss Voigt Hill
#
# Bulk Modulus (GPa) = 35.54782 43.63257 39.59020
# Shear Modulus (GPa) = 65.27760 30.63999 47.95879
#
# Velocity S-wave (km/s) = 5.37165 3.68018 4.60426
# Velocity P-wave (km/s) = 7.36111 6.11107 6.76502
#
# Compressibility (1/GPa) = 0.02813112
#
# Stress axis : x y z
#
# Youngs Moduli (GPa) = 125.31243 65.10388 35.48567
#
# Poissons Ratio (x) = 0.11892 0.08672
# Poissons Ratio (y) = 0.22890 0.26346
# Poissons Ratio (z) = 0.30623 0.48335
#
# Static dielectric constant tensor:
#      x y z
#    x 1.805520 0.000000 0.000000 
#    y 0.000000 1.854640 0.000000 
#    z 0.000000 0.000000 1.859220 
# 
# From -- ./inp_files/35038.got.cif
#   From: 2010.05.17/outbox.cif.g08.bks.cpg/sg66_18_cif.got.tgz:35038.got - 2010.06.03 17:51:23.
