data_PCOD9496513
_publ_section_title
;
Structure prediction by ZEFSAII (Michael W. Deem and Ramdas Pophale) SiO2 
 PCOD9496513
Probable space group: C C C M
;
_chemical_formula_sum "Si O2"
_cell_formula_units_Z 96
_cell_length_a 11.199149
_cell_length_b 16.824323
_cell_length_c 27.222657
_cell_angle_alpha 90.000000
_cell_angle_beta 90.000000
_cell_angle_gamma 90.000000
_cell_volume 5129.241312
_symmetry_space_group_name_H-M "C C C M"
_symmetry_group_IT_number 66
_symmetry_cell_setting 'orthorhombic'
loop_
_space_group_symop_operation_xyz
x,y,z
-x,-y,z
x,-y,1/2-z
-x,y,1/2-z
-x,-y,-z
x,y,-z
-x,y,1/2+z
x,-y,1/2+z
1/2+x,1/2+y,z
1/2-x,1/2-y,z
1/2+x,1/2-y,1/2-z
1/2-x,1/2+y,1/2-z
1/2-x,1/2-y,-z
1/2+x,1/2+y,-z
1/2-x,1/2+y,1/2+z
1/2+x,1/2-y,1/2+z
loop_
_atom_site_type_symbol
_atom_site_label
_atom_site_fract_x
_atom_site_fract_y
_atom_site_fract_z
Si Si1 0.049418 0.733786 0.651177
Si Si2 0.112403 0.833333 0.784231
Si Si3 0.513933 0.863840 0.056752
Si Si4 0.360528 0.518768 0.851312
Si Si5 0.763591 0.859505 0.188051
Si Si6 0.696309 0.992944 0.443549
O O1 0.014562 0.705910 0.596815
O O2 0.141069 0.808971 0.654813
O O3 0.130314 0.662951 0.672818
O O4 0.939152 0.757699 0.686239
O O5 0.213974 0.830593 0.743383
O O6 0.000000 0.861205 0.750000
O O7 0.148280 0.897356 0.824446
O O8 0.400171 0.922091 0.062782
O O9 0.626665 0.923399 0.063878
O O10 0.515991 0.836140 0.000000
O O11 0.500000 0.500000 0.854892
O O12 0.295948 0.450807 0.819243
O O13 0.298865 0.517152 0.904063
O O14 0.737291 0.990889 0.500000
#
# Coordination Sequence:
#
# PCOD9496513 Si02
#       6
#    16  16  16  16  16  16
#     4  10  19  37  58  85 115 153 200 235 290 357
#     4  10  21  37  56  82 116 164 192 235 299 348
#     4   9  18  39  64  84 114 153 198 251 298 349
#     4  12  20  36  62  86 113 157 202 237 290 365
#     4  10  21  36  57  82 121 154 200 242 283 352
#     4   9  20  38  61  87 113 151 196 249 305 347
#
# _framework density 18.716218999999999
#
# number of rings (size 3 to 8) (size 9 to 14) (size 15 to 20)
#    0.000    2.000    5.000    1.500    0.000    0.333 
#   15.000    3.333    0.000    2.000    0.000    0.000 
#    0.000    0.000    0.000    0.000    0.000    0.000 
#
# Total GULP energy -267671.017150 kJ/mol
# GULP energy per Si atom -5576.479524 kJ/mol
# Density = 1.867362 g / cm^3
# Si number density = 18.716219 Si / 1000 Ang^3
#
#
#
# Elastic Constant Matrix: (Units=GPa)
#
#
# Indices 1 2 3 4 5 6 
#
# 1 43.1302 29.9973 46.5187 0.0000 0.0000 0.0000
# 2 29.9973 61.5167 56.6625 0.0000 0.0000 0.0000
# 3 46.5187 56.6625 150.8447 0.0000 0.0000 0.0000
# 4 0.0000 0.0000 0.0000 33.9315 0.0000 0.0000
# 5 0.0000 0.0000 0.0000 0.0000 15.5507 0.0000
# 6 0.0000 0.0000 0.0000 0.0000 0.0000 20.8643
#
#
#
# Elastic Compliance Matrix: (Units=1/GPa)
#
#
# Indices 1 2 3 4 5 6 
#
# 1 0.040183 -0.012508 -0.007694 0.000000 0.000000 0.000000
# 2 -0.012508 0.028749 -0.006942 0.000000 0.000000 0.000000
# 3 -0.007694 -0.006942 0.011610 0.000000 0.000000 0.000000
# 4 0.000000 0.000000 0.000000 0.029471 0.000000 0.000000
# 5 0.000000 0.000000 0.000000 0.000000 0.064306 0.000000
# 6 0.000000 0.000000 0.000000 0.000000 0.000000 0.047929
#
#
# Mechanical properties :
#
#
# Convention : Reuss Voigt Hill
#
# Bulk Modulus (GPa) = 38.08810 57.98321 48.03565
# Shear Modulus (GPa) = 17.52630 22.22349 19.87490
#
# Velocity S-wave (km/s) = 3.06342 3.44959 3.26223
# Velocity P-wave (km/s) = 5.73648 6.84936 6.31747
#
# Compressibility (1/GPa) = 0.02625492
#
# Stress axis : x y z
#
# Youngs Moduli (GPa) = 24.88614 34.78375 86.13610
#
# Poissons Ratio (x) = 0.43507 0.66269
# Poissons Ratio (y) = 0.31127 0.59794
# Poissons Ratio (z) = 0.19146 0.24146
#
# Static dielectric constant tensor:
#      x y z
#    x 1.692540 0.000000 0.000000 
#    y 0.000000 1.659790 0.000000 
#    z 0.000000 0.000000 1.637700 
# 
# From -- ./inp_files/56918.got.cif
#   From: 2010.05.17/outbox.cif.g08.bks.cpg/sg66_29_cif.got.tgz:56918.got - 2010.06.03 17:51:23.
