data_PCOD9496058
_publ_section_title
;
Structure prediction by ZEFSAII (Michael W. Deem and Ramdas Pophale) SiO2 
 PCOD9496058
Probable space group: C C C M
;
_chemical_formula_sum "Si O2"
_cell_formula_units_Z 96
_cell_length_a 22.404588
_cell_length_b 8.093145
_cell_length_c 27.209674
_cell_angle_alpha 90.000000
_cell_angle_beta 90.000000
_cell_angle_gamma 90.000000
_cell_volume 4933.755483
_symmetry_space_group_name_H-M "C C C M"
_symmetry_group_IT_number 66
_symmetry_cell_setting 'orthorhombic'
loop_
_space_group_symop_operation_xyz
x,y,z
-x,-y,z
x,-y,1/2-z
-x,y,1/2-z
-x,-y,-z
x,y,-z
-x,y,1/2+z
x,-y,1/2+z
1/2+x,1/2+y,z
1/2-x,1/2-y,z
1/2+x,1/2-y,1/2-z
1/2-x,1/2+y,1/2-z
1/2-x,1/2-y,-z
1/2+x,1/2+y,-z
1/2-x,1/2+y,1/2+z
1/2+x,1/2-y,1/2+z
loop_
_atom_site_type_symbol
_atom_site_label
_atom_site_fract_x
_atom_site_fract_y
_atom_site_fract_z
Si Si1 0.045356 0.738322 0.315259
Si Si2 0.808086 0.364647 0.947148
Si Si3 0.618201 0.000000 0.750000
Si Si4 0.000000 0.500000 0.895722
Si Si5 0.065162 0.802556 0.946103
Si Si6 0.576890 0.412409 0.843042
Si Si7 0.186461 0.660793 0.838622
O O1 0.073566 0.641638 0.269823
O O2 0.043320 0.603827 0.359456
O O3 0.977811 0.813954 0.316819
O O4 0.083438 0.904136 0.322899
O O5 0.750000 0.250000 0.947140
O O6 0.865782 0.248143 0.949287
O O7 0.810572 0.434751 0.891458
O O8 0.807975 0.460212 0.000000
O O9 0.661479 0.950219 0.705289
O O10 0.967441 0.365106 0.928824
O O11 0.059445 0.925618 0.900620
O O12 0.045116 0.855389 0.000000
O O13 0.636079 0.303812 0.841359
O O14 0.250000 0.750000 0.829844
#
# Coordination Sequence:
#
# PCOD9496058 Si02
#       7
#    16  16   8   8  16  16  16
#     4  10  21  37  56  78 105 146 189 230 279 327
#     4   8  14  28  52  77 100 131 174 221 263 311
#     4  12  24  37  58  80 112 149 188 234 278 335
#     4  10  19  33  50  76 114 144 179 225 274 330
#     4   9  16  29  52  81 110 143 181 222 274 330
#     4   9  20  38  57  79 113 146 185 235 278 330
#     4  10  22  38  56  83 115 147 185 227 279 340
#
# _framework density 19.457795000000001
#
# number of rings (size 3 to 8) (size 9 to 14) (size 15 to 20)
#    0.000    2.500    0.000    3.250    0.000    5.000 
#    0.000   10.833    0.000    1.000    0.000    0.000 
#    0.000   30.000    0.000    0.000    0.000    0.000 
#
# Total GULP energy -267225.231536 kJ/mol
# GULP energy per Si atom -5567.192324 kJ/mol
# Density = 1.941351 g / cm^3
# Si number density = 19.457795 Si / 1000 Ang^3
#
#
#
# Elastic Constant Matrix: (Units=GPa)
#
#
# Indices 1 2 3 4 5 6 
#
# 1 69.1879 -6.9225 31.5402 0.0000 0.0000 0.0000
# 2 -6.9225 53.9491 47.8148 0.0000 0.0000 0.0000
# 3 31.5402 47.8148 178.5244 0.0000 0.0000 0.0000
# 4 0.0000 0.0000 0.0000 6.7708 0.0000 0.0000
# 5 0.0000 0.0000 0.0000 0.0000 -84.1359 0.0000
# 6 0.0000 0.0000 0.0000 0.0000 0.0000 11.5070
#
#
#
# Elastic Compliance Matrix: (Units=1/GPa)
#
#
# Indices 1 2 3 4 5 6 
#
# 1 0.017279 0.006455 -0.004782 0.000000 0.000000 0.000000
# 2 0.006455 0.026717 -0.008296 0.000000 0.000000 0.000000
# 3 -0.004782 -0.008296 0.008668 0.000000 0.000000 0.000000
# 4 0.000000 0.000000 0.000000 0.147693 0.000000 0.000000
# 5 0.000000 0.000000 0.000000 0.000000 -0.011886 0.000000
# 6 0.000000 0.000000 0.000000 0.000000 0.000000 0.086904
#
#
# Mechanical properties :
#
#
# Convention : Reuss Voigt Hill
#
# Bulk Modulus (GPa) = 25.36850 49.61404 37.49127
# Shear Modulus (GPa) = 16.56943 2.11031 9.33987
#
# Velocity S-wave (km/s) = 2.92131 1.04255 2.19328
# Velocity P-wave (km/s) = 4.94416 5.19643 5.07186
#
# Compressibility (1/GPa) = 0.03941897
#
# Stress axis : x y z
#
# Youngs Moduli (GPa) = 57.87371 37.42920 115.36379
#
# Poissons Ratio (x) = -0.24161 0.55162
# Poissons Ratio (y) = -0.37358 0.95708
# Poissons Ratio (z) = 0.27673 0.31052
#
# Static dielectric constant tensor:
#      x y z
#    x 1.673050 0.000000 0.000000 
#    y 0.000000 1.648480 0.000000 
#    z 0.000000 0.000000 1.793700 
# 
# From -- ./inp_files/66030.got.cif
#   From: 2010.05.17/outbox.cif.g08.bks.cpg/sg66_34_cif.got.tgz:66030.got - 2010.06.03 17:51:23.
