data_PCOD9496728
_publ_section_title
;
Structure prediction by ZEFSAII (Michael W. Deem and Ramdas Pophale) SiO2 
 PCOD9496728
Probable space group: C C C M
;
_chemical_formula_sum "Si O2"
_cell_formula_units_Z 68
_cell_length_a 37.254641
_cell_length_b 5.560510
_cell_length_c 14.588979
_cell_angle_alpha 90.000000
_cell_angle_beta 90.000000
_cell_angle_gamma 90.000000
_cell_volume 3022.177083
_symmetry_space_group_name_H-M "C C C M"
_symmetry_group_IT_number 66
_symmetry_cell_setting 'orthorhombic'
loop_
_space_group_symop_operation_xyz
x,y,z
-x,-y,z
x,-y,1/2-z
-x,y,1/2-z
-x,-y,-z
x,y,-z
-x,y,1/2+z
x,-y,1/2+z
1/2+x,1/2+y,z
1/2-x,1/2-y,z
1/2+x,1/2-y,1/2-z
1/2-x,1/2+y,1/2-z
1/2-x,1/2-y,-z
1/2+x,1/2+y,-z
1/2-x,1/2+y,1/2+z
1/2+x,1/2-y,1/2+z
loop_
_atom_site_type_symbol
_atom_site_label
_atom_site_fract_x
_atom_site_fract_y
_atom_site_fract_z
Si Si1 0.036445 0.390578 0.851771
Si Si2 0.000000 0.000000 0.250000
Si Si3 0.768503 0.000750 0.111296
Si Si4 0.383067 0.928929 0.395674
Si Si5 0.851744 0.931992 0.612123
O O1 0.039363 0.500000 0.750000
O O2 0.026882 0.121925 0.823131
O O3 0.073884 0.439427 0.898187
O O4 0.000000 0.500000 0.893825
O O5 0.750000 0.250000 0.141314
O O6 0.810287 0.022968 0.135444
O O7 0.750000 0.750000 0.141829
O O8 0.766467 0.997286 0.000000
O O9 0.368869 0.921721 0.500000
O O10 0.372707 0.669672 0.355100
O O11 0.366815 0.174227 0.354746
O O12 0.854917 0.923354 0.500000
#
# Coordination Sequence:
#
# PCOD9496728 Si02
#       5
#    16   4  16  16  16
#     4   9  20  35  54  74  96 131 170 211 252 293
#     4   8  18  36  54  70  96 124 170 222 254 288
#     4   9  15  24  41  63  92 132 170 198 234 291
#     4  10  20  33  50  73 105 136 163 204 256 304
#     4   9  18  30  44  69 104 135 164 204 253 295
#
# _framework density 22.500336000000001
#
# number of rings (size 3 to 8) (size 9 to 14) (size 15 to 20)
#    0.000    3.059    0.000    1.412    6.588    6.118 
#    0.000    0.588    0.000    0.000    0.000    0.000 
#    0.000   18.824    0.000    0.000    0.000    0.000 
#
# Total GULP energy -189393.523545 kJ/mol
# GULP energy per Si atom -5570.397751 kJ/mol
# Density = 2.244912 g / cm^3
# Si number density = 22.500336 Si / 1000 Ang^3
#
#
#
# Elastic Constant Matrix: (Units=GPa)
#
#
# Indices 1 2 3 4 5 6 
#
# 1 149.3813 98.2399 -18.1837 0.0000 0.0000 0.0000
# 2 98.2399 196.5411 -2.2158 0.0000 0.0000 0.0000
# 3 -18.1837 -2.2158 53.2805 0.0000 0.0000 0.0000
# 4 0.0000 0.0000 0.0000 1.7329 0.0000 0.0000
# 5 0.0000 0.0000 0.0000 0.0000 82.9970 0.0000
# 6 0.0000 0.0000 0.0000 0.0000 0.0000 64.7336
#
#
#
# Elastic Compliance Matrix: (Units=1/GPa)
#
#
# Indices 1 2 3 4 5 6 
#
# 1 0.010548 -0.005234 0.003382 0.000000 0.000000 0.000000
# 2 -0.005234 0.007688 -0.001467 0.000000 0.000000 0.000000
# 3 0.003382 -0.001467 0.019862 0.000000 0.000000 0.000000
# 4 0.000000 0.000000 0.000000 0.577074 0.000000 0.000000
# 5 0.000000 0.000000 0.000000 0.000000 0.012049 0.000000
# 6 0.000000 0.000000 0.000000 0.000000 0.000000 0.015448
#
#
# Mechanical properties :
#
#
# Convention : Reuss Voigt Hill
#
# Bulk Modulus (GPa) = 31.78588 61.65373 46.71981
# Shear Modulus (GPa) = 7.57813 51.31685 29.44749
#
# Velocity S-wave (km/s) = 1.83720 4.78086 3.62160
# Velocity P-wave (km/s) = 4.31948 7.61159 6.18847
#
# Compressibility (1/GPa) = 0.03146051
#
# Stress axis : x y z
#
# Youngs Moduli (GPa) = 94.80124 130.07536 50.34763
#
# Poissons Ratio (x) = 0.68087 -0.17029
# Poissons Ratio (y) = 0.49623 0.07384
# Poissons Ratio (z) = -0.32065 0.19078
#
# Static dielectric constant tensor:
#      x y z
#    x 1.759490 0.000000 0.000000 
#    y 0.000000 1.923330 0.000000 
#    z 0.000000 0.000000 1.882680 
# 
# From -- ./inp_files/45870.got.cif
#   From: 2010.05.17/outbox.cif.g08.bks.cpg/sg66_23_cif.got.tgz:45870.got - 2010.06.03 17:51:23.
