data_PCOD9496682
_publ_section_title
;
Structure prediction by ZEFSAII (Michael W. Deem and Ramdas Pophale) SiO2 
 PCOD9496682
Probable space group: C C C M
;
_chemical_formula_sum "Si O2"
_cell_formula_units_Z 68
_cell_length_a 23.739826
_cell_length_b 16.934172
_cell_length_c 7.385809
_cell_angle_alpha 90.000000
_cell_angle_beta 90.000000
_cell_angle_gamma 90.000000
_cell_volume 2969.200811
_symmetry_space_group_name_H-M "C C C M"
_symmetry_group_IT_number 66
_symmetry_cell_setting 'orthorhombic'
loop_
_space_group_symop_operation_xyz
x,y,z
-x,-y,z
x,-y,1/2-z
-x,y,1/2-z
-x,-y,-z
x,y,-z
-x,y,1/2+z
x,-y,1/2+z
1/2+x,1/2+y,z
1/2-x,1/2-y,z
1/2+x,1/2-y,1/2-z
1/2-x,1/2+y,1/2-z
1/2-x,1/2-y,-z
1/2+x,1/2+y,-z
1/2-x,1/2+y,1/2+z
1/2+x,1/2-y,1/2+z
loop_
_atom_site_type_symbol
_atom_site_label
_atom_site_fract_x
_atom_site_fract_y
_atom_site_fract_z
Si Si1 0.916310 0.635468 0.276967
Si Si2 0.000000 0.500000 0.750000
Si Si3 0.169223 0.093493 0.283038
Si Si4 0.707953 0.906301 0.284695
Si Si5 0.561510 0.687867 0.715658
O O1 0.920505 0.626130 0.500000
O O2 0.850927 0.629305 0.222069
O O3 0.937325 0.721617 0.221101
O O4 0.953612 0.565989 0.192161
O O5 0.170512 0.104177 0.500000
O O6 0.230866 0.120277 0.213810
O O7 0.114823 0.139465 0.212508
O O8 0.163875 0.000000 0.250000
O O9 0.708704 0.892865 0.500000
O O10 0.704955 0.000000 0.250000
O O11 0.500000 0.652243 0.750000
O O12 0.568248 0.692009 0.500000
#
# Coordination Sequence:
#
# PCOD9496682 Si02
#       5
#    16   4  16  16  16
#     4  10  20  32  51  77 107 138 174 210 254 306
#     4  12  18  32  52  78 106 136 176 204 258 300
#     4   9  19  35  57  78 103 134 174 217 263 308
#     4   9  17  32  52  77 103 136 173 215 254 302
#     4  10  21  37  53  77 106 138 173 216 261 310
#
# _framework density 22.901786000000001
#
# number of rings (size 3 to 8) (size 9 to 14) (size 15 to 20)
#    0.000    2.353    2.353    0.353    0.000    2.353 
#    0.000    8.235    0.000    0.000    0.000    8.235 
#    0.000    0.000    0.000    0.000    0.000    0.000 
#
# Total GULP energy -189542.540955 kJ/mol
# GULP energy per Si atom -5574.780616 kJ/mol
# Density = 2.284966 g / cm^3
# Si number density = 22.901786 Si / 1000 Ang^3
#
#
#
# Elastic Constant Matrix: (Units=GPa)
#
#
# Indices 1 2 3 4 5 6 
#
# 1 268.1842 77.5559 9.9646 0.0000 0.0000 0.0000
# 2 77.5559 63.3139 2.2952 0.0000 0.0000 0.0000
# 3 9.9646 2.2952 93.1350 0.0000 0.0000 0.0000
# 4 0.0000 0.0000 0.0000 8.4719 0.0000 0.0000
# 5 0.0000 0.0000 0.0000 0.0000 9.7885 0.0000
# 6 0.0000 0.0000 0.0000 0.0000 0.0000 43.3708
#
#
#
# Elastic Compliance Matrix: (Units=1/GPa)
#
#
# Indices 1 2 3 4 5 6 
#
# 1 0.005793 -0.007079 -0.000445 0.000000 0.000000 0.000000
# 2 -0.007079 0.024461 0.000155 0.000000 0.000000 0.000000
# 3 -0.000445 0.000155 0.010781 0.000000 0.000000 0.000000
# 4 0.000000 0.000000 0.000000 0.118037 0.000000 0.000000
# 5 0.000000 0.000000 0.000000 0.000000 0.102161 0.000000
# 6 0.000000 0.000000 0.000000 0.000000 0.000000 0.023057
#
#
# Mechanical properties :
#
#
# Convention : Reuss Voigt Hill
#
# Bulk Modulus (GPa) = 38.03158 67.14050 52.58604
# Shear Modulus (GPa) = 16.24460 34.64739 25.44599
#
# Velocity S-wave (km/s) = 2.66619 3.89378 3.33692
# Velocity P-wave (km/s) = 5.11082 7.04242 6.15289
#
# Compressibility (1/GPa) = 0.02629394
#
# Stress axis : x y z
#
# Youngs Moduli (GPa) = 172.63296 40.88194 92.75630
#
# Poissons Ratio (x) = 0.28942 0.04130
# Poissons Ratio (y) = 1.22215 -0.01434
# Poissons Ratio (z) = 0.07687 -0.00632
#
# Static dielectric constant tensor:
#      x y z
#    x 1.874990 0.000000 0.000000 
#    y 0.000000 1.780750 0.000000 
#    z 0.000000 0.000000 2.055880 
# 
# From -- ./inp_files/6253.got.cif
#   From: 2010.05.17/outbox.cif.g08.bks.cpg/sg66_4_cif.got.tgz:6253.got - 2010.06.03 17:51:23.
