data_PCOD9496713
_publ_section_title
;
Structure prediction by ZEFSAII (Michael W. Deem and Ramdas Pophale) SiO2 
 PCOD9496713
Probable space group: C C C M
;
_chemical_formula_sum "Si O2"
_cell_formula_units_Z 112
_cell_length_a 12.515782
_cell_length_b 31.729167
_cell_length_c 15.326349
_cell_angle_alpha 90.000000
_cell_angle_beta 90.000000
_cell_angle_gamma 90.000000
_cell_volume 6086.328251
_symmetry_space_group_name_H-M "C C C M"
_symmetry_group_IT_number 66
_symmetry_cell_setting 'orthorhombic'
loop_
_space_group_symop_operation_xyz
x,y,z
-x,-y,z
x,-y,1/2-z
-x,y,1/2-z
-x,-y,-z
x,y,-z
-x,y,1/2+z
x,-y,1/2+z
1/2+x,1/2+y,z
1/2-x,1/2-y,z
1/2+x,1/2-y,1/2-z
1/2-x,1/2+y,1/2-z
1/2-x,1/2-y,-z
1/2+x,1/2+y,-z
1/2-x,1/2+y,1/2+z
1/2+x,1/2-y,1/2+z
loop_
_atom_site_type_symbol
_atom_site_label
_atom_site_fract_x
_atom_site_fract_y
_atom_site_fract_z
Si Si1 0.877376 0.614402 0.405045
Si Si2 0.124701 0.836631 0.265930
Si Si3 0.037906 0.453883 0.149212
Si Si4 0.083085 0.766646 0.596831
Si Si5 0.331127 0.712000 0.900491
Si Si6 0.699819 0.103707 0.712352
Si Si7 0.459574 0.179426 0.841791
O O1 0.824061 0.613602 0.500000
O O2 0.813998 0.601052 0.317630
O O3 0.973081 0.580277 0.404929
O O4 0.938043 0.659107 0.390022
O O5 0.132902 0.796536 0.330162
O O6 0.178019 0.822870 0.174303
O O7 0.184381 0.877082 0.304279
O O8 0.000000 0.844630 0.250000
O O9 0.160189 0.437887 0.160763
O O10 0.000000 0.500000 0.120168
O O11 0.000000 0.450291 0.250000
O O12 0.116511 0.779686 0.500000
O O13 0.099736 0.716957 0.609668
O O14 0.954029 0.772334 0.603624
O O15 0.250000 0.750000 0.882835
O O16 0.312240 0.697546 0.000000
O O17 0.617376 0.140673 0.683124
O O18 0.500000 0.198041 0.750000
#
# Coordination Sequence:
#
# PCOD9496713 Si02
#       7
#    16  16  16  16  16  16  16
#     4   9  17  28  46  77 103 118 150 202 253 305
#     4  10  21  34  48  66  98 135 177 222 251 289
#     4   8  15  31  51  73 101 128 149 179 236 312
#     4  10  20  33  46  64  92 132 178 222 261 293
#     4   9  19  31  47  69  89 123 175 223 266 298
#     4   9  19  31  48  69  95 132 166 197 247 306
#     4   9  17  29  45  66  95 128 163 208 259 302
#
# _framework density 18.401899
#
# number of rings (size 3 to 8) (size 9 to 14) (size 15 to 20)
#    0.000    2.857    0.000    3.429    6.000    0.857 
#    0.000    4.286    0.000    0.000    0.000    8.000 
#    0.000    1.143    0.000    0.000    0.000    0.000 
#
# Total GULP energy -312031.837510 kJ/mol
# GULP energy per Si atom -5571.997098 kJ/mol
# Density = 1.836002 g / cm^3
# Si number density = 18.401899 Si / 1000 Ang^3
#
#
#
# Elastic Constant Matrix: (Units=GPa)
#
#
# Indices 1 2 3 4 5 6 
#
# 1 40.5861 23.9387 12.8431 0.0000 0.0000 0.0000
# 2 23.9387 84.9143 26.9553 0.0000 0.0000 0.0000
# 3 12.8431 26.9553 55.8941 0.0000 0.0000 0.0000
# 4 0.0000 0.0000 0.0000 0.3240 0.0000 0.0000
# 5 0.0000 0.0000 0.0000 0.0000 2.9260 0.0000
# 6 0.0000 0.0000 0.0000 0.0000 0.0000 22.4804
#
#
#
# Elastic Compliance Matrix: (Units=1/GPa)
#
#
# Indices 1 2 3 4 5 6 
#
# 1 0.030069 -0.007420 -0.003331 0.000000 0.000000 0.000000
# 2 -0.007420 0.015736 -0.005884 0.000000 0.000000 0.000000
# 3 -0.003331 -0.005884 0.021494 0.000000 0.000000 0.000000
# 4 0.000000 0.000000 0.000000 3.086665 0.000000 0.000000
# 5 0.000000 0.000000 0.000000 0.000000 0.341768 0.000000
# 6 0.000000 0.000000 0.000000 0.000000 0.000000 0.044483
#
#
# Mechanical properties :
#
#
# Convention : Reuss Voigt Hill
#
# Bulk Modulus (GPa) = 29.38574 34.31875 31.85224
# Shear Modulus (GPa) = 1.39477 12.98990 7.19233
#
# Velocity S-wave (km/s) = 0.87155 2.65976 1.97913
# Velocity P-wave (km/s) = 4.12508 5.30306 4.75073
#
# Compressibility (1/GPa) = 0.03403011
#
# Stress axis : x y z
#
# Youngs Moduli (GPa) = 33.25643 63.54803 46.52472
#
# Poissons Ratio (x) = 0.47150 0.15498
# Poissons Ratio (y) = 0.24675 0.27375
# Poissons Ratio (z) = 0.11078 0.37392
#
# Static dielectric constant tensor:
#      x y z
#    x 1.665520 0.000000 0.000000 
#    y 0.000000 1.655720 0.000000 
#    z 0.000000 0.000000 1.660740 
# 
# From -- ./inp_files/29025.got.cif
#   From: 2010.05.17/outbox.cif.g08.bks.cpg/sg66_15_cif.got.tgz:29025.got - 2010.06.03 17:51:23.
