data_PCOD9496822
_publ_section_title
;
Structure prediction by ZEFSAII (Michael W. Deem and Ramdas Pophale) SiO2 
 PCOD9496822
Probable space group: C C C M
;
_chemical_formula_sum "Si O2"
_cell_formula_units_Z 112
_cell_length_a 23.984798
_cell_length_b 17.205627
_cell_length_c 14.786869
_cell_angle_alpha 90.000000
_cell_angle_beta 90.000000
_cell_angle_gamma 90.000000
_cell_volume 6102.148808
_symmetry_space_group_name_H-M "C C C M"
_symmetry_group_IT_number 66
_symmetry_cell_setting 'orthorhombic'
loop_
_space_group_symop_operation_xyz
x,y,z
-x,-y,z
x,-y,1/2-z
-x,y,1/2-z
-x,-y,-z
x,y,-z
-x,y,1/2+z
x,-y,1/2+z
1/2+x,1/2+y,z
1/2-x,1/2-y,z
1/2+x,1/2-y,1/2-z
1/2-x,1/2+y,1/2-z
1/2-x,1/2-y,-z
1/2+x,1/2+y,-z
1/2-x,1/2+y,1/2+z
1/2+x,1/2-y,1/2+z
loop_
_atom_site_type_symbol
_atom_site_label
_atom_site_fract_x
_atom_site_fract_y
_atom_site_fract_z
Si Si1 0.018794 0.226343 0.653777
Si Si2 0.135214 0.298905 0.396155
Si Si3 0.799221 0.589502 0.275998
Si Si4 0.198740 0.690583 0.400120
Si Si5 0.101475 0.186775 0.099429
Si Si6 0.911688 0.914756 0.723398
Si Si7 0.309885 0.631293 0.108485
O O1 0.071064 0.271931 0.613370
O O2 0.042721 0.140281 0.676263
O O3 0.000000 0.261394 0.750000
O O4 0.962110 0.216768 0.599405
O O5 0.146731 0.320282 0.500000
O O6 0.150534 0.368088 0.328952
O O7 0.172924 0.222085 0.374901
O O8 0.806683 0.500000 0.250000
O O9 0.791871 0.632571 0.180975
O O10 0.746109 0.606645 0.340374
O O11 0.195547 0.653656 0.500000
O O12 0.250000 0.750000 0.400560
O O13 0.143249 0.741661 0.385827
O O14 0.106407 0.129143 0.184241
O O15 0.114523 0.152826 0.000000
O O16 0.859857 0.917112 0.654455
O O17 0.930976 0.000000 0.750000
O O18 0.306587 0.621183 0.000000
#
# Coordination Sequence:
#
# PCOD9496822 Si02
#       7
#    16  16  16  16  16  16  16
#     4   9  18  33  55  80 108 143 187 230 271 320
#     4  10  20  36  58  81 108 144 186 228 271 323
#     4  12  23  35  55  83 113 142 174 225 284 336
#     4  10  21  38  59  80 106 144 186 225 268 324
#     4  10  20  35  57  81 105 142 191 233 270 319
#     4  10  20  34  51  78 116 152 181 223 274 322
#     4  10  21  37  58  81 108 147 191 227 264 319
#
# _framework density 18.354191
#
# number of rings (size 3 to 8) (size 9 to 14) (size 15 to 20)
#    0.000    1.857    0.000    6.000    0.000    6.000 
#    0.000    2.143    0.000    3.857    0.000    6.000 
#    0.000    0.000    0.000    0.000    0.000    0.000 
#
# Total GULP energy -312545.314799 kJ/mol
# GULP energy per Si atom -5581.166336 kJ/mol
# Density = 1.831242 g / cm^3
# Si number density = 18.354191 Si / 1000 Ang^3
#
#
#
# Elastic Constant Matrix: (Units=GPa)
#
#
# Indices 1 2 3 4 5 6 
#
# 1 98.6359 39.5877 31.0523 0.0000 0.0000 0.0000
# 2 39.5877 83.9764 58.5225 0.0000 0.0000 0.0000
# 3 31.0523 58.5225 126.0623 0.0000 0.0000 0.0000
# 4 0.0000 0.0000 0.0000 7.5657 0.0000 0.0000
# 5 0.0000 0.0000 0.0000 0.0000 43.2773 0.0000
# 6 0.0000 0.0000 0.0000 0.0000 0.0000 -3.3116
#
#
#
# Elastic Compliance Matrix: (Units=1/GPa)
#
#
# Indices 1 2 3 4 5 6 
#
# 1 0.012526 -0.005550 -0.000509 0.000000 0.000000 0.000000
# 2 -0.005550 0.020063 -0.007946 0.000000 0.000000 0.000000
# 3 -0.000509 -0.007946 0.011747 0.000000 0.000000 0.000000
# 4 0.000000 0.000000 0.000000 0.132175 0.000000 0.000000
# 5 0.000000 0.000000 0.000000 0.000000 0.023107 0.000000
# 6 0.000000 0.000000 0.000000 0.000000 0.000000 -0.301969
#
#
# Mechanical properties :
#
#
# Convention : Reuss Voigt Hill
#
# Bulk Modulus (GPa) = 61.25891 62.99995 62.12943
# Shear Modulus (GPa) = -72.57053 21.47376 -25.54839
#
# Velocity S-wave (km/s) = -6.29482 3.42419 -3.73495
# Velocity P-wave (km/s) = 4.40279 7.07336 3.91458
#
# Compressibility (1/GPa) = 0.01632416
#
# Stress axis : x y z
#
# Youngs Moduli (GPa) = 79.83296 49.84424 85.12847
#
# Poissons Ratio (x) = 0.27666 0.04331
# Poissons Ratio (y) = 0.44311 0.67647
# Poissons Ratio (z) = 0.04062 0.39609
#
# Static dielectric constant tensor:
#      x y z
#    x 1.655140 0.000000 0.000000 
#    y 0.000000 1.618340 0.000000 
#    z 0.000000 0.000000 1.656860 
# 
# From -- ./inp_files/32460.got.cif
#   From: 2010.05.17/outbox.cif.g08.bks.cpg/sg66_17_cif.got.tgz:32460.got - 2010.06.03 17:51:23.
