data_PCOD9496424
_publ_section_title
;
Structure prediction by ZEFSAII (Michael W. Deem and Ramdas Pophale) SiO2 
 PCOD9496424
Probable space group: C C C M
;
_chemical_formula_sum "Si O2"
_cell_formula_units_Z 112
_cell_length_a 10.964837
_cell_length_b 16.056537
_cell_length_c 28.026908
_cell_angle_alpha 90.000000
_cell_angle_beta 90.000000
_cell_angle_gamma 90.000000
_cell_volume 4934.342058
_symmetry_space_group_name_H-M "C C C M"
_symmetry_group_IT_number 66
_symmetry_cell_setting 'orthorhombic'
loop_
_space_group_symop_operation_xyz
x,y,z
-x,-y,z
x,-y,1/2-z
-x,y,1/2-z
-x,-y,-z
x,y,-z
-x,y,1/2+z
x,-y,1/2+z
1/2+x,1/2+y,z
1/2-x,1/2-y,z
1/2+x,1/2-y,1/2-z
1/2-x,1/2+y,1/2-z
1/2-x,1/2-y,-z
1/2+x,1/2+y,-z
1/2-x,1/2+y,1/2+z
1/2+x,1/2-y,1/2+z
loop_
_atom_site_type_symbol
_atom_site_label
_atom_site_fract_x
_atom_site_fract_y
_atom_site_fract_z
Si Si1 0.288711 0.655887 0.144120
Si Si2 0.336074 0.626898 0.606787
Si Si3 0.463377 0.902927 0.805642
Si Si4 0.017762 0.096514 0.193885
Si Si5 0.348572 0.457422 0.554239
Si Si6 0.067961 0.426123 0.447540
Si Si7 0.069986 0.691605 0.609522
O O1 0.250000 0.750000 0.134309
O O2 0.176465 0.610752 0.173556
O O3 0.408102 0.654331 0.176604
O O4 0.344818 0.609603 0.097316
O O5 0.360548 0.616521 0.663742
O O6 0.383613 0.548045 0.576196
O O7 0.194292 0.642723 0.596145
O O8 0.404697 0.713310 0.597178
O O9 0.500000 0.887841 0.750000
O O10 0.541282 0.837240 0.836848
O O11 0.500000 0.000000 0.813835
O O12 0.000000 0.100175 0.250000
O O13 0.000000 0.000000 0.180392
O O14 0.396390 0.440410 0.500000
O O15 0.202905 0.457498 0.547818
O O16 0.012945 0.414889 0.500000
O O17 0.000000 0.500000 0.420746
O O18 0.045130 0.342230 0.419786
#
# Coordination Sequence:
#
# PCOD9496424 Si02
#       7
#    16  16  16  16  16  16  16
#     4  12  26  46  72 102 143 183 233 289 344 422
#     4  11  24  41  62  98 137 180 225 283 344 405
#     4  11  25  43  73 105 141 179 231 286 351 409
#     4  11  26  45  69  93 133 182 230 271 339 422
#     4  11  23  43  68  95 134 181 237 292 350 413
#     4  10  19  35  62  94 129 174 225 281 345 411
#     4  11  22  38  65  96 141 174 222 288 341 408
#
# _framework density 22.698060999999999
#
# number of rings (size 3 to 8) (size 9 to 14) (size 15 to 20)
#    0.000    1.000    4.286    2.143    2.000    4.286 
#    0.000    2.857    0.000    0.000    0.000    0.000 
#    0.000    0.000    0.000    0.000    0.000    0.000 
#
# Total GULP energy -312035.740324 kJ/mol
# GULP energy per Si atom -5572.066791 kJ/mol
# Density = 2.264640 g / cm^3
# Si number density = 22.698061 Si / 1000 Ang^3
#
#
#
# Elastic Constant Matrix: (Units=GPa)
#
#
# Indices 1 2 3 4 5 6 
#
# 1 66.4295 28.2937 11.0853 0.0000 0.0000 0.0000
# 2 28.2937 155.8184 57.8186 0.0000 0.0000 0.0000
# 3 11.0853 57.8186 142.4885 0.0000 0.0000 0.0000
# 4 0.0000 0.0000 0.0000 72.2946 0.0000 0.0000
# 5 0.0000 0.0000 0.0000 0.0000 24.1988 0.0000
# 6 0.0000 0.0000 0.0000 0.0000 0.0000 45.4792
#
#
#
# Elastic Compliance Matrix: (Units=1/GPa)
#
#
# Indices 1 2 3 4 5 6 
#
# 1 0.016316 -0.002933 -0.000079 0.000000 0.000000 0.000000
# 2 -0.002933 0.008083 -0.003052 0.000000 0.000000 0.000000
# 3 -0.000079 -0.003052 0.008263 0.000000 0.000000 0.000000
# 4 0.000000 0.000000 0.000000 0.013832 0.000000 0.000000
# 5 0.000000 0.000000 0.000000 0.000000 0.041324 0.000000
# 6 0.000000 0.000000 0.000000 0.000000 0.000000 0.021988
#
#
# Mechanical properties :
#
#
# Convention : Reuss Voigt Hill
#
# Bulk Modulus (GPa) = 48.70124 62.12571 55.41347
# Shear Modulus (GPa) = 38.82633 46.23043 42.52838
#
# Velocity S-wave (km/s) = 4.14038 4.51794 4.33327
# Velocity P-wave (km/s) = 6.66030 7.39227 7.03581
#
# Compressibility (1/GPa) = 0.02053336
#
# Stress axis : x y z
#
# Youngs Moduli (GPa) = 61.28902 123.72108 121.02852
#
# Poissons Ratio (x) = 0.36292 0.00957
# Poissons Ratio (y) = 0.17978 0.36933
# Poissons Ratio (z) = 0.00485 0.37754
#
# Static dielectric constant tensor:
#      x y z
#    x 1.928990 0.000000 0.000000 
#    y 0.000000 1.892740 0.000000 
#    z 0.000000 0.000000 1.943860 
# 
# From -- ./inp_files/69100.got.cif
#   From: 2010.05.17/outbox.cif.g08.bks.cpg/sg66_35_cif.got.tgz:69100.got - 2010.06.03 17:51:23.
