data_PCOD9496606
_publ_section_title
;
Structure prediction by ZEFSAII (Michael W. Deem and Ramdas Pophale) SiO2 
 PCOD9496606
Probable space group: C C C M
;
_chemical_formula_sum "Si O2"
_cell_formula_units_Z 64
_cell_length_a 10.158758
_cell_length_b 10.300551
_cell_length_c 26.316072
_cell_angle_alpha 90.000000
_cell_angle_beta 90.000000
_cell_angle_gamma 90.000000
_cell_volume 2753.734955
_symmetry_space_group_name_H-M "C C C M"
_symmetry_group_IT_number 66
_symmetry_cell_setting 'orthorhombic'
loop_
_space_group_symop_operation_xyz
x,y,z
-x,-y,z
x,-y,1/2-z
-x,y,1/2-z
-x,-y,-z
x,y,-z
-x,y,1/2+z
x,-y,1/2+z
1/2+x,1/2+y,z
1/2-x,1/2-y,z
1/2+x,1/2-y,1/2-z
1/2-x,1/2+y,1/2-z
1/2-x,1/2-y,-z
1/2+x,1/2+y,-z
1/2-x,1/2+y,1/2+z
1/2+x,1/2-y,1/2+z
loop_
_atom_site_type_symbol
_atom_site_label
_atom_site_fract_x
_atom_site_fract_y
_atom_site_fract_z
Si Si1 0.706424 0.888504 0.381403
Si Si2 0.959226 0.703965 0.163338
Si Si3 0.130932 0.645753 0.557049
Si Si4 0.187388 0.943859 0.305674
O O1 0.750000 0.750000 0.403083
O O2 0.601862 0.860906 0.334520
O O3 0.663588 0.000313 0.421628
O O4 0.826365 0.952405 0.350644
O O5 0.955508 0.706983 0.101697
O O6 0.927465 0.838350 0.189605
O O7 0.829551 0.623126 0.180584
O O8 0.078178 0.638001 0.500000
O O9 0.250000 0.750000 0.555696
O O10 0.191395 0.000000 0.250000
#
# Coordination Sequence:
#
# PCOD9496606 Si02
#       4
#    16  16  16  16
#     4  11  24  39  61  95 134 167 210 275 330 391
#     4  10  21  41  66  93 125 171 221 269 320 398
#     4  10  19  40  70  93 124 172 220 267 327 401
#     4  10  21  41  63  90 123 165 226 270 324 387
#
# _framework density 23.241161999999999
#
# number of rings (size 3 to 8) (size 9 to 14) (size 15 to 20)
#    0.000    1.750    5.000    3.000    3.500    5.500 
#    0.000    1.250    0.000    3.000    0.000    0.000 
#    0.000    0.000    0.000    0.000    0.000    0.000 
#
# Total GULP energy -178323.981516 kJ/mol
# GULP energy per Si atom -5572.624422 kJ/mol
# Density = 2.318826 g / cm^3
# Si number density = 23.241162 Si / 1000 Ang^3
#
#
#
# Elastic Constant Matrix: (Units=GPa)
#
#
# Indices 1 2 3 4 5 6 
#
# 1 85.2381 30.7846 0.0557 0.0000 0.0000 0.0000
# 2 30.7846 114.9887 42.7025 0.0000 0.0000 0.0000
# 3 0.0557 42.7025 148.5740 0.0000 0.0000 0.0000
# 4 0.0000 0.0000 0.0000 15.0485 0.0000 0.0000
# 5 0.0000 0.0000 0.0000 0.0000 8.3758 0.0000
# 6 0.0000 0.0000 0.0000 0.0000 0.0000 35.0001
#
#
#
# Elastic Compliance Matrix: (Units=1/GPa)
#
#
# Indices 1 2 3 4 5 6 
#
# 1 0.013154 -0.003940 0.001128 0.000000 0.000000 0.000000
# 2 -0.003940 0.010916 -0.003136 0.000000 0.000000 0.000000
# 3 0.001128 -0.003136 0.007632 0.000000 0.000000 0.000000
# 4 0.000000 0.000000 0.000000 0.066452 0.000000 0.000000
# 5 0.000000 0.000000 0.000000 0.000000 0.119391 0.000000
# 6 0.000000 0.000000 0.000000 0.000000 0.000000 0.028571
#
#
# Mechanical properties :
#
#
# Convention : Reuss Voigt Hill
#
# Bulk Modulus (GPa) = 50.49410 55.09850 52.79630
# Shear Modulus (GPa) = 18.89537 30.03540 24.46539
#
# Velocity S-wave (km/s) = 2.85443 3.59881 3.24801
# Velocity P-wave (km/s) = 5.71288 6.40526 6.06895
#
# Compressibility (1/GPa) = 0.01980429
#
# Stress axis : x y z
#
# Youngs Moduli (GPa) = 76.02128 91.60872 131.03493
#
# Poissons Ratio (x) = 0.36097 -0.14775
# Poissons Ratio (y) = 0.29955 0.41092
# Poissons Ratio (z) = -0.08572 0.28728
#
# Static dielectric constant tensor:
#      x y z
#    x 2.910260 0.000000 0.000000 
#    y 0.000000 2.049760 0.000000 
#    z 0.000000 0.000000 1.826750 
# 
# From -- ./inp_files/68580.got.cif
#   From: 2010.05.17/outbox.cif.g08.bks.cpg/sg66_35_cif.got.tgz:68580.got - 2010.06.03 17:51:23.
