data_PCOD9496957
_publ_section_title
;
Structure prediction by ZEFSAII (Michael W. Deem and Ramdas Pophale) SiO2 
 PCOD9496957
Probable space group: C C C M
;
_chemical_formula_sum "Si O2"
_cell_formula_units_Z 48
_cell_length_a 7.579286
_cell_length_b 13.588178
_cell_length_c 18.240292
_cell_angle_alpha 90.000000
_cell_angle_beta 90.000000
_cell_angle_gamma 90.000000
_cell_volume 1878.543729
_symmetry_space_group_name_H-M "C C C M"
_symmetry_group_IT_number 66
_symmetry_cell_setting 'orthorhombic'
loop_
_space_group_symop_operation_xyz
x,y,z
-x,-y,z
x,-y,1/2-z
-x,y,1/2-z
-x,-y,-z
x,y,-z
-x,y,1/2+z
x,-y,1/2+z
1/2+x,1/2+y,z
1/2-x,1/2-y,z
1/2+x,1/2-y,1/2-z
1/2-x,1/2+y,1/2-z
1/2-x,1/2-y,-z
1/2+x,1/2+y,-z
1/2-x,1/2+y,1/2+z
1/2+x,1/2-y,1/2+z
loop_
_atom_site_type_symbol
_atom_site_label
_atom_site_fract_x
_atom_site_fract_y
_atom_site_fract_z
Si Si1 0.252856 0.500000 0.250000
Si Si2 0.000000 0.822942 0.250000
Si Si3 0.250000 0.250000 0.368568
Si Si4 0.722379 0.089696 0.500000
Si Si5 0.500000 0.000000 0.877964
Si Si6 0.392529 0.374330 0.500000
O O1 0.358203 0.404021 0.222117
O O2 0.144385 0.536638 0.180221
O O3 0.914859 0.756902 0.312632
O O4 0.303046 0.333188 0.427001
O O5 0.593064 0.081146 0.430030
O O6 0.898308 0.156809 0.500000
O O7 0.828649 0.986567 0.500000
#
# Coordination Sequence:
#
# PCOD9496957 Si02
#       6
#     8   8   8   8   8   8
#     4  10  22  42  66  94 130 178 228 280 334 402
#     4  11  24  42  66  95 134 178 226 281 344 404
#     4  11  24  40  64  97 136 178 222 279 342 402
#     4  10  20  38  66  96 129 175 228 276 329 404
#     4  10  20  34  66 100 124 162 232 284 318 384
#     4  10  22  42  64  94 137 179 220 275 343 405
#
# _framework density 25.551707
#
# number of rings (size 3 to 8) (size 9 to 14) (size 15 to 20)
#    0.000    1.667    0.000    4.000    0.000   10.667 
#    0.000    0.000    0.000   22.000    0.000    0.000 
#    0.000    0.000    0.000    0.000    0.000    0.000 
#
# Total GULP energy -133913.307425 kJ/mol
# GULP energy per Si atom -5579.721143 kJ/mol
# Density = 2.549355 g / cm^3
# Si number density = 25.551707 Si / 1000 Ang^3
#
#
#
# Elastic Constant Matrix: (Units=GPa)
#
#
# Indices 1 2 3 4 5 6 
#
# 1 168.8471 41.1109 98.5346 0.0000 0.0000 0.0000
# 2 41.1109 53.8499 40.2694 0.0000 0.0000 0.0000
# 3 98.5346 40.2694 220.9654 0.0000 0.0000 0.0000
# 4 0.0000 0.0000 0.0000 30.1515 0.0000 0.0000
# 5 0.0000 0.0000 0.0000 0.0000 71.3878 0.0000
# 6 0.0000 0.0000 0.0000 0.0000 0.0000 23.4918
#
#
#
# Elastic Compliance Matrix: (Units=1/GPa)
#
#
# Indices 1 2 3 4 5 6 
#
# 1 0.008820 -0.004391 -0.003133 0.000000 0.000000 0.000000
# 2 -0.004391 0.023686 -0.002359 0.000000 0.000000 0.000000
# 3 -0.003133 -0.002359 0.006352 0.000000 0.000000 0.000000
# 4 0.000000 0.000000 0.000000 0.033166 0.000000 0.000000
# 5 0.000000 0.000000 0.000000 0.000000 0.014008 0.000000
# 6 0.000000 0.000000 0.000000 0.000000 0.000000 0.042568
#
#
# Mechanical properties :
#
#
# Convention : Reuss Voigt Hill
#
# Bulk Modulus (GPa) = 52.37267 89.27692 70.82480
# Shear Modulus (GPa) = 32.31457 42.58938 37.45198
#
# Velocity S-wave (km/s) = 3.56008 4.08707 3.83264
# Velocity P-wave (km/s) = 6.11884 7.56886 6.88215
#
# Compressibility (1/GPa) = 0.01909393
#
# Stress axis : x y z
#
# Youngs Moduli (GPa) = 113.38169 42.21921 157.41903
#
# Poissons Ratio (x) = 0.18537 0.49317
# Poissons Ratio (y) = 0.49781 0.37131
# Poissons Ratio (z) = 0.35521 0.09958
#
# Static dielectric constant tensor:
#      x y z
#    x 2.273210 0.000000 0.000000 
#    y 0.000000 2.116320 0.000000 
#    z 0.000000 0.000000 1.902720 
# 
# From -- ./inp_files/35807.got.cif
#   From: 2010.05.17/outbox.cif.g08.bks.cpg/sg66_18_cif.got.tgz:35807.got - 2010.06.03 17:51:23.
