data_PCOD9496240
_publ_section_title
;
Structure prediction by ZEFSAII (Michael W. Deem and Ramdas Pophale) SiO2 
 PCOD9496240
Probable space group: C C C M
;
_chemical_formula_sum "Si O2"
_cell_formula_units_Z 64
_cell_length_a 25.002057
_cell_length_b 5.179324
_cell_length_c 28.372091
_cell_angle_alpha 90.000000
_cell_angle_beta 90.000000
_cell_angle_gamma 90.000000
_cell_volume 3674.008569
_symmetry_space_group_name_H-M "C C C M"
_symmetry_group_IT_number 66
_symmetry_cell_setting 'orthorhombic'
loop_
_space_group_symop_operation_xyz
x,y,z
-x,-y,z
x,-y,1/2-z
-x,y,1/2-z
-x,-y,-z
x,y,-z
-x,y,1/2+z
x,-y,1/2+z
1/2+x,1/2+y,z
1/2-x,1/2-y,z
1/2+x,1/2-y,1/2-z
1/2-x,1/2+y,1/2-z
1/2-x,1/2-y,-z
1/2+x,1/2+y,-z
1/2-x,1/2+y,1/2+z
1/2+x,1/2-y,1/2+z
loop_
_atom_site_type_symbol
_atom_site_label
_atom_site_fract_x
_atom_site_fract_y
_atom_site_fract_z
Si Si1 0.810329 0.636811 0.847816
Si Si2 0.851223 0.869719 0.299953
Si Si3 0.524350 0.748754 0.303067
Si Si4 0.712107 0.999032 0.551634
O O1 0.750000 0.750000 0.844737
O O2 0.817968 0.384668 0.814802
O O3 0.821322 0.537415 0.900886
O O4 0.845745 0.885546 0.834760
O O5 0.912326 0.771108 0.298509
O O6 0.836224 0.000000 0.250000
O O7 0.500000 0.500000 0.327462
O O8 0.500000 0.749421 0.250000
O O9 0.500000 0.000000 0.326552
O O10 0.685485 0.975604 0.500000
O O11 0.750000 0.750000 0.557970
O O12 0.750000 0.250000 0.549766
#
# Coordination Sequence:
#
# PCOD9496240 Si02
#       4
#    16  16  16  16
#     4  11  23  37  51  77 115 146 181 214 244 318
#     4  12  23  36  55  76 106 150 182 213 259 314
#     4  10  19  34  56  74  92 127 174 241 271 286
#     4   9  17  33  56  75  97 137 182 226 267 291
#
# _framework density 17.419664000000001
#
# number of rings (size 3 to 8) (size 9 to 14) (size 15 to 20)
#    0.000    1.500    2.500    6.000    3.500    2.000 
#    0.000    1.250    0.000    0.000    0.000    0.000 
#    0.000   20.000    0.000    0.000    0.000    0.000 
#
# Total GULP energy -178250.572742 kJ/mol
# GULP energy per Si atom -5570.330398 kJ/mol
# Density = 1.738002 g / cm^3
# Si number density = 17.419664 Si / 1000 Ang^3
#
#
#
# Elastic Constant Matrix: (Units=GPa)
#
#
# Indices 1 2 3 4 5 6 
#
# 1 55.0568 31.0035 41.2387 0.0000 0.0000 0.0000
# 2 31.0035 172.7315 44.7405 0.0000 0.0000 0.0000
# 3 41.2387 44.7405 92.5516 0.0000 0.0000 0.0000
# 4 0.0000 0.0000 0.0000 21.1331 0.0000 0.0000
# 5 0.0000 0.0000 0.0000 0.0000 -4.4714 0.0000
# 6 0.0000 0.0000 0.0000 0.0000 0.0000 34.9490
#
#
#
# Elastic Compliance Matrix: (Units=1/GPa)
#
#
# Indices 1 2 3 4 5 6 
#
# 1 0.027878 -0.002042 -0.011434 0.000000 0.000000 0.000000
# 2 -0.002042 0.006768 -0.002362 0.000000 0.000000 0.000000
# 3 -0.011434 -0.002362 0.017041 0.000000 0.000000 0.000000
# 4 0.000000 0.000000 0.000000 0.047319 0.000000 0.000000
# 5 0.000000 0.000000 0.000000 0.000000 -0.223642 0.000000
# 6 0.000000 0.000000 0.000000 0.000000 0.000000 0.028613
#
#
# Mechanical properties :
#
#
# Convention : Reuss Voigt Hill
#
# Bulk Modulus (GPa) = 49.97423 61.58945 55.78184
# Shear Modulus (GPa) = -86.68918 23.87927 -31.40495
#
# Velocity S-wave (km/s) = -7.06209 3.70648 -4.25060
# Velocity P-wave (km/s) = 6.14385 7.33146 2.82873
#
# Compressibility (1/GPa) = 0.02001031
#
# Stress axis : x y z
#
# Youngs Moduli (GPa) = 35.87112 147.76373 58.68095
#
# Poissons Ratio (x) = 0.30174 0.67098
# Poissons Ratio (y) = 0.07325 0.13858
# Poissons Ratio (z) = 0.41016 0.34897
#
# Static dielectric constant tensor:
#      x y z
#    x 1.596540 0.000000 0.000000 
#    y 0.000000 1.610030 0.000000 
#    z 0.000000 0.000000 1.635450 
# 
# From -- ./inp_files/61413.got.cif
#   From: 2010.05.17/outbox.cif.g08.bks.cpg/sg66_31_cif.got.tgz:61413.got - 2010.06.03 17:51:23.
