data_PCOD9496316
_publ_section_title
;
Structure prediction by ZEFSAII (Michael W. Deem and Ramdas Pophale) SiO2 
 PCOD9496316
Probable space group: C C C M
;
_chemical_formula_sum "Si O2"
_cell_formula_units_Z 112
_cell_length_a 18.508574
_cell_length_b 14.241715
_cell_length_c 20.263979
_cell_angle_alpha 90.000000
_cell_angle_beta 90.000000
_cell_angle_gamma 90.000000
_cell_volume 5341.459957
_symmetry_space_group_name_H-M "C C C M"
_symmetry_group_IT_number 66
_symmetry_cell_setting 'orthorhombic'
loop_
_space_group_symop_operation_xyz
x,y,z
-x,-y,z
x,-y,1/2-z
-x,y,1/2-z
-x,-y,-z
x,y,-z
-x,y,1/2+z
x,-y,1/2+z
1/2+x,1/2+y,z
1/2-x,1/2-y,z
1/2+x,1/2-y,1/2-z
1/2-x,1/2+y,1/2-z
1/2-x,1/2-y,-z
1/2+x,1/2+y,-z
1/2-x,1/2+y,1/2+z
1/2+x,1/2-y,1/2+z
loop_
_atom_site_type_symbol
_atom_site_label
_atom_site_fract_x
_atom_site_fract_y
_atom_site_fract_z
Si Si1 0.050612 0.408133 0.074237
Si Si2 0.013364 0.105323 0.170372
Si Si3 0.367865 0.730204 0.721866
Si Si4 0.256170 0.900201 0.285810
Si Si5 0.195057 0.673372 0.075998
Si Si6 0.552630 0.782910 0.650779
Si Si7 0.279279 0.042444 0.073721
O O1 0.134740 0.434381 0.081807
O O2 0.000000 0.500000 0.076077
O O3 0.017682 0.341039 0.129875
O O4 0.042043 0.367058 0.000000
O O5 0.087609 0.166307 0.169534
O O6 0.000000 0.100342 0.250000
O O7 0.958635 0.174105 0.132856
O O8 0.000000 0.000000 0.146580
O O9 0.318629 0.821250 0.707835
O O10 0.310997 0.652029 0.749261
O O11 0.424577 0.773119 0.773517
O O12 0.238536 0.919278 0.362630
O O13 0.273820 0.000000 0.250000
O O14 0.250000 0.750000 0.103982
O O15 0.120477 0.672525 0.114494
O O16 0.227411 0.569785 0.076410
O O17 0.179688 0.698841 0.000000
O O18 0.258117 0.075152 0.000000
#
# Coordination Sequence:
#
# PCOD9496316 Si02
#       7
#    16  16  16  16  16  16  16
#     4  10  19  34  60  90 123 163 208 257 321 401
#     4   9  20  37  58  80 108 154 208 259 305 375
#     4  10  24  40  56  91 124 158 215 260 321 399
#     4  11  24  39  62  90 129 168 207 272 333 388
#     4  10  21  34  54  86 122 157 205 253 308 386
#     4  11  20  34  62  84 117 158 203 255 325 377
#     4  10  21  39  61  88 123 169 215 261 327 399
#
# _framework density 20.968050000000002
#
# number of rings (size 3 to 8) (size 9 to 14) (size 15 to 20)
#    0.000    1.857    1.429    2.143    8.000    0.000 
#    0.000    1.429    0.000    3.429    0.000    0.000 
#    0.000    0.000    0.000    0.000    0.000    0.000 
#
# Total GULP energy -311785.854524 kJ/mol
# GULP energy per Si atom -5567.604545 kJ/mol
# Density = 2.092033 g / cm^3
# Si number density = 20.968050 Si / 1000 Ang^3
#
#
#
# Elastic Constant Matrix: (Units=GPa)
#
#
# Indices 1 2 3 4 5 6 
#
# 1 55.9564 21.7361 20.6293 0.0000 0.0000 0.0000
# 2 21.7361 116.9657 30.7306 0.0000 0.0000 0.0000
# 3 20.6293 30.7306 77.4638 0.0000 0.0000 0.0000
# 4 0.0000 0.0000 0.0000 20.4557 0.0000 0.0000
# 5 0.0000 0.0000 0.0000 0.0000 11.9450 0.0000
# 6 0.0000 0.0000 0.0000 0.0000 0.0000 35.3499
#
#
#
# Elastic Compliance Matrix: (Units=1/GPa)
#
#
# Indices 1 2 3 4 5 6 
#
# 1 0.020530 -0.002655 -0.004414 0.000000 0.000000 0.000000
# 2 -0.002655 0.009888 -0.003215 0.000000 0.000000 0.000000
# 3 -0.004414 -0.003215 0.015360 0.000000 0.000000 0.000000
# 4 0.000000 0.000000 0.000000 0.048886 0.000000 0.000000
# 5 0.000000 0.000000 0.000000 0.000000 0.083717 0.000000
# 6 0.000000 0.000000 0.000000 0.000000 0.000000 0.028289
#
#
# Mechanical properties :
#
#
# Convention : Reuss Voigt Hill
#
# Bulk Modulus (GPa) = 39.66921 44.06423 41.86672
# Shear Modulus (GPa) = 21.21865 25.36944 23.29404
#
# Velocity S-wave (km/s) = 3.18457 3.48215 3.33668
# Velocity P-wave (km/s) = 5.69929 6.10145 5.90380
#
# Compressibility (1/GPa) = 0.02520847
#
# Stress axis : x y z
#
# Youngs Moduli (GPa) = 48.70970 101.13492 65.10301
#
# Poissons Ratio (x) = 0.26856 0.28735
# Poissons Ratio (y) = 0.12935 0.20933
# Poissons Ratio (z) = 0.21500 0.32519
#
# Static dielectric constant tensor:
#      x y z
#    x 1.810440 0.000000 0.000000 
#    y 0.000000 1.777430 0.000000 
#    z 0.000000 0.000000 1.787850 
# 
# From -- ./inp_files/59540.got.cif
#   From: 2010.05.17/outbox.cif.g08.bks.cpg/sg66_30_cif.got.tgz:59540.got - 2010.06.03 17:51:23.
