data_PCOD9496631
_publ_section_title
;
Structure prediction by ZEFSAII (Michael W. Deem and Ramdas Pophale) SiO2 
 PCOD9496631
Probable space group: C C C M
;
_chemical_formula_sum "Si O2"
_cell_formula_units_Z 96
_cell_length_a 24.385908
_cell_length_b 24.437678
_cell_length_c 8.982490
_cell_angle_alpha 90.000000
_cell_angle_beta 90.000000
_cell_angle_gamma 90.000000
_cell_volume 5352.979886
_symmetry_space_group_name_H-M "C C C M"
_symmetry_group_IT_number 66
_symmetry_cell_setting 'orthorhombic'
loop_
_space_group_symop_operation_xyz
x,y,z
-x,-y,z
x,-y,1/2-z
-x,y,1/2-z
-x,-y,-z
x,y,-z
-x,y,1/2+z
x,-y,1/2+z
1/2+x,1/2+y,z
1/2-x,1/2-y,z
1/2+x,1/2-y,1/2-z
1/2-x,1/2+y,1/2-z
1/2-x,1/2-y,-z
1/2+x,1/2+y,-z
1/2-x,1/2+y,1/2+z
1/2+x,1/2-y,1/2+z
loop_
_atom_site_type_symbol
_atom_site_label
_atom_site_fract_x
_atom_site_fract_y
_atom_site_fract_z
Si Si1 0.943120 0.948963 0.168238
Si Si2 0.057267 0.355900 0.321618
Si Si3 0.940790 0.226986 0.821366
Si Si4 0.143098 0.853105 0.328101
Si Si5 0.852127 0.557868 0.678203
Si Si6 0.776643 0.940124 0.321208
O O1 0.905900 0.896795 0.168952
O O2 0.000000 0.938302 0.250000
O O3 0.915769 0.000000 0.250000
O O4 0.953064 0.964953 0.000000
O O5 0.052880 0.360066 0.500000
O O6 0.065121 0.291648 0.287660
O O7 0.107649 0.393705 0.271795
O O8 0.000000 0.373815 0.250000
O O9 0.886925 0.196687 0.756733
O O10 0.000000 0.209654 0.750000
O O11 0.943846 0.218688 0.000000
O O12 0.157902 0.839565 0.500000
O O13 0.190480 0.888376 0.246678
O O14 0.867453 0.500000 0.750000
O O15 0.856685 0.553071 0.500000
O O16 0.788069 0.568595 0.710372
O O17 0.785445 0.942862 0.500000
O O18 0.790170 0.000000 0.250000
#
# Coordination Sequence:
#
# PCOD9496631 Si02
#       6
#    16  16  16  16  16  16
#     4  10  20  31  44  63  89 121 157 204 258 306
#     4   9  19  36  57  82 111 141 174 213 260 316
#     4  10  20  35  55  77 104 140 179 221 268 315
#     4  11  22  34  50  73 100 134 179 224 264 313
#     4   9  19  36  57  82 111 141 174 213 260 316
#     4  10  20  35  55  77 104 140 179 221 268 315
#
# _framework density 17.933935000000002
#
# number of rings (size 3 to 8) (size 9 to 14) (size 15 to 20)
#    0.000    2.167    0.000    3.500    0.000    7.667 
#    0.000    2.500    0.000    5.000    0.000    0.000 
#    0.000    0.000    0.000    0.000    0.000    0.000 
#
# Total GULP energy -267564.838727 kJ/mol
# GULP energy per Si atom -5574.267473 kJ/mol
# Density = 1.789312 g / cm^3
# Si number density = 17.933935 Si / 1000 Ang^3
#
#
#
# Elastic Constant Matrix: (Units=GPa)
#
#
# Indices 1 2 3 4 5 6 
#
# 1 114.0166 69.7646 48.2966 0.0000 0.0000 0.0000
# 2 69.7646 90.1456 42.5078 0.0000 0.0000 0.0000
# 3 48.2966 42.5078 82.5018 0.0000 0.0000 0.0000
# 4 0.0000 0.0000 0.0000 26.2778 0.0000 0.0000
# 5 0.0000 0.0000 0.0000 0.0000 22.1236 0.0000
# 6 0.0000 0.0000 0.0000 0.0000 0.0000 41.1251
#
#
#
# Elastic Compliance Matrix: (Units=1/GPa)
#
#
# Indices 1 2 3 4 5 6 
#
# 1 0.017785 -0.011696 -0.004385 0.000000 0.000000 0.000000
# 2 -0.011696 0.022345 -0.004666 0.000000 0.000000 0.000000
# 3 -0.004385 -0.004666 0.017092 0.000000 0.000000 0.000000
# 4 0.000000 0.000000 0.000000 0.038055 0.000000 0.000000
# 5 0.000000 0.000000 0.000000 0.000000 0.045201 0.000000
# 6 0.000000 0.000000 0.000000 0.000000 0.000000 0.024316
#
#
# Mechanical properties :
#
#
# Convention : Reuss Voigt Hill
#
# Bulk Modulus (GPa) = 63.58238 67.53356 65.55797
# Shear Modulus (GPa) = 23.63730 26.31164 24.97447
#
# Velocity S-wave (km/s) = 3.63439 3.83448 3.73578
# Velocity P-wave (km/s) = 7.28988 7.57251 7.43254
#
# Compressibility (1/GPa) = 0.01572763
#
# Stress axis : x y z
#
# Youngs Moduli (GPa) = 56.22824 44.75252 58.50672
#
# Poissons Ratio (x) = 0.52343 0.25655
# Poissons Ratio (y) = 0.65765 0.27300
# Poissons Ratio (z) = 0.24656 0.20882
#
# Static dielectric constant tensor:
#      x y z
#    x 1.616240 0.000000 0.000000 
#    y 0.000000 1.617790 0.000000 
#    z 0.000000 0.000000 1.648640 
# 
# From -- ./inp_files/9106.got.cif
#   From: 2010.05.17/outbox.cif.g08.bks.cpg/sg66_5_cif.got.tgz:9106.got - 2010.06.03 17:51:23.
