data_PCOD9496855
_publ_section_title
;
Structure prediction by ZEFSAII (Michael W. Deem and Ramdas Pophale) SiO2 
 PCOD9496855
Probable space group: C C C M
;
_chemical_formula_sum "Si O2"
_cell_formula_units_Z 80
_cell_length_a 14.256230
_cell_length_b 13.878859
_cell_length_c 16.472855
_cell_angle_alpha 90.000000
_cell_angle_beta 90.000000
_cell_angle_gamma 90.000000
_cell_volume 3259.322484
_symmetry_space_group_name_H-M "C C C M"
_symmetry_group_IT_number 66
_symmetry_cell_setting 'orthorhombic'
loop_
_space_group_symop_operation_xyz
x,y,z
-x,-y,z
x,-y,1/2-z
-x,y,1/2-z
-x,-y,-z
x,y,-z
-x,y,1/2+z
x,-y,1/2+z
1/2+x,1/2+y,z
1/2-x,1/2-y,z
1/2+x,1/2-y,1/2-z
1/2-x,1/2+y,1/2-z
1/2-x,1/2-y,-z
1/2+x,1/2+y,-z
1/2-x,1/2+y,1/2+z
1/2+x,1/2-y,1/2+z
loop_
_atom_site_type_symbol
_atom_site_label
_atom_site_fract_x
_atom_site_fract_y
_atom_site_fract_z
Si Si1 0.854275 0.035191 0.593310
Si Si2 0.488056 0.710998 0.407096
Si Si3 0.246645 0.635336 0.902872
Si Si4 0.907337 0.655027 0.708120
Si Si5 0.682761 0.164295 0.377950
O O1 0.882392 0.024059 0.500000
O O2 0.927577 0.117230 0.621659
O O3 0.748010 0.075935 0.597888
O O4 0.835983 0.928052 0.627058
O O5 0.525146 0.696672 0.500000
O O6 0.556156 0.748712 0.336886
O O7 0.416899 0.803131 0.412772
O O8 0.250000 0.750000 0.885798
O O9 0.150736 0.600182 0.860410
O O10 0.241430 0.625584 0.000000
O O11 0.834700 0.666736 0.781620
O O12 0.000000 0.611279 0.750000
O O13 0.750000 0.250000 0.403876
#
# Coordination Sequence:
#
# PCOD9496855 Si02
#       5
#    16  16  16  16  16
#     4   9  18  34  57  83 109 147 200 248 293 351
#     4   9  17  32  55  81 110 145 186 235 292 352
#     4  10  21  38  59  81 110 154 207 256 298 349
#     4  10  20  34  53  80 118 152 183 234 304 360
#     4   9  17  31  53  79 109 145 186 233 289 355
#
# _framework density 24.544979999999999
#
# number of rings (size 3 to 8) (size 9 to 14) (size 15 to 20)
#    0.000    2.600    0.000    1.800    0.000    3.200 
#    0.000    8.000    0.000   21.600    0.000    0.000 
#    0.000    0.000    0.000    0.000    0.000    4.800 
#
# Total GULP energy -222811.606013 kJ/mol
# GULP energy per Si atom -5570.290150 kJ/mol
# Density = 2.448911 g / cm^3
# Si number density = 24.544980 Si / 1000 Ang^3
#
#
#
# Elastic Constant Matrix: (Units=GPa)
#
#
# Indices 1 2 3 4 5 6 
#
# 1 85.3686 19.6839 29.4559 0.0000 0.0000 0.0000
# 2 19.6839 103.1457 13.1735 0.0000 0.0000 0.0000
# 3 29.4559 13.1735 77.7110 0.0000 0.0000 0.0000
# 4 0.0000 0.0000 0.0000 -19.7427 0.0000 0.0000
# 5 0.0000 0.0000 0.0000 0.0000 -85.7985 0.0000
# 6 0.0000 0.0000 0.0000 0.0000 0.0000 51.6312
#
#
#
# Elastic Compliance Matrix: (Units=1/GPa)
#
#
# Indices 1 2 3 4 5 6 
#
# 1 0.013876 -0.002020 -0.004917 0.000000 0.000000 0.000000
# 2 -0.002020 0.010204 -0.000964 0.000000 0.000000 0.000000
# 3 -0.004917 -0.000964 0.014895 0.000000 0.000000 0.000000
# 4 0.000000 0.000000 0.000000 -0.050652 0.000000 0.000000
# 5 0.000000 0.000000 0.000000 0.000000 -0.011655 0.000000
# 6 0.000000 0.000000 0.000000 0.000000 0.000000 0.019368
#
#
# Mechanical properties :
#
#
# Convention : Reuss Voigt Hill
#
# Bulk Modulus (GPa) = 43.15426 43.42800 43.29113
# Shear Modulus (GPa) = 255.57424 2.81213 129.19319
#
# Velocity S-wave (km/s) = 10.21523 1.07154 7.26289
# Velocity P-wave (km/s) = 12.52016 4.38891 9.38128
#
# Compressibility (1/GPa) = 0.02317268
#
# Stress axis : x y z
#
# Youngs Moduli (GPa) = 72.06490 98.00409 67.13440
#
# Poissons Ratio (x) = 0.19798 0.33012
# Poissons Ratio (y) = 0.14558 0.06472
# Poissons Ratio (z) = 0.35437 0.09448
#
# Static dielectric constant tensor:
#      x y z
#    x 2.085210 0.000000 0.000000 
#    y 0.000000 2.103190 0.000000 
#    z 0.000000 0.000000 2.080210 
# 
# From -- ./inp_files/41451.got.cif
#   From: 2010.05.17/outbox.cif.g08.bks.cpg/sg66_21_cif.got.tgz:41451.got - 2010.06.03 17:51:23.
