data_PCOD9496946
_publ_section_title
;
Structure prediction by ZEFSAII (Michael W. Deem and Ramdas Pophale) SiO2 
 PCOD9496946
Probable space group: C C C M
;
_chemical_formula_sum "Si O2"
_cell_formula_units_Z 88
_cell_length_a 12.406515
_cell_length_b 13.192798
_cell_length_c 22.635094
_cell_angle_alpha 90.000000
_cell_angle_beta 90.000000
_cell_angle_gamma 90.000000
_cell_volume 3704.836274
_symmetry_space_group_name_H-M "C C C M"
_symmetry_group_IT_number 66
_symmetry_cell_setting 'orthorhombic'
loop_
_space_group_symop_operation_xyz
x,y,z
-x,-y,z
x,-y,1/2-z
-x,y,1/2-z
-x,-y,-z
x,y,-z
-x,y,1/2+z
x,-y,1/2+z
1/2+x,1/2+y,z
1/2-x,1/2-y,z
1/2+x,1/2-y,1/2-z
1/2-x,1/2+y,1/2-z
1/2-x,1/2-y,-z
1/2+x,1/2+y,-z
1/2-x,1/2+y,1/2+z
1/2+x,1/2-y,1/2+z
loop_
_atom_site_type_symbol
_atom_site_label
_atom_site_fract_x
_atom_site_fract_y
_atom_site_fract_z
Si Si1 0.152803 0.581026 0.129491
Si Si2 0.254688 0.872390 0.000000
Si Si3 0.508066 0.644151 0.500000
Si Si4 0.928348 0.134261 0.631645
Si Si5 0.645422 0.556485 0.312448
Si Si6 0.140882 0.681075 0.500000
Si Si7 0.090519 0.361535 0.872107
O O1 0.192257 0.591194 0.061268
O O2 0.249124 0.619911 0.171327
O O3 0.125861 0.468148 0.155097
O O4 0.039370 0.638894 0.130714
O O5 0.250000 0.750000 0.000000
O O6 0.127810 0.897803 0.000000
O O7 0.456740 0.619512 0.562972
O O8 0.476803 0.763316 0.500000
O O9 0.851487 0.040969 0.644642
O O10 0.880547 0.245592 0.644205
O O11 0.036141 0.115523 0.670668
O O12 0.641594 0.500000 0.250000
O O13 0.250000 0.750000 0.500000
O O14 0.136223 0.624853 0.561494
#
# Coordination Sequence:
#
# PCOD9496946 Si02
#       7
#    16   8   8  16  16   8  16
#     4  11  24  41  67  98 140 175 227 281 347 419
#     4  12  21  37  69 102 142 181 221 281 353 428
#     4  10  20  34  60 107 121 164 215 263 336 419
#     4  10  21  42  67  95 140 168 225 279 346 423
#     4  11  25  44  66  97 128 175 234 295 344 411
#     4  10  21  36  62  96 143 179 212 262 339 431
#     4  10  23  42  62  99 134 182 222 272 345 423
#
# _framework density 23.752737
#
# number of rings (size 3 to 8) (size 9 to 14) (size 15 to 20)
#    0.000    1.455    1.818    4.364    5.091    3.636 
#    0.000    7.273    0.000    0.000    0.000    0.000 
#    0.000    0.000    0.000    0.000    0.000    0.000 
#
# Total GULP energy -245362.368046 kJ/mol
# GULP energy per Si atom -5576.417456 kJ/mol
# Density = 2.369867 g / cm^3
# Si number density = 23.752737 Si / 1000 Ang^3
#
#
#
# Elastic Constant Matrix: (Units=GPa)
#
#
# Indices 1 2 3 4 5 6 
#
# 1 119.9260 -1.1129 5.6591 0.0000 0.0000 0.0000
# 2 -1.1129 119.4609 -7.0164 0.0000 0.0000 0.0000
# 3 5.6591 -7.0164 82.6196 0.0000 0.0000 0.0000
# 4 0.0000 0.0000 0.0000 -18.4881 0.0000 0.0000
# 5 0.0000 0.0000 0.0000 0.0000 -1.1531 0.0000
# 6 0.0000 0.0000 0.0000 0.0000 0.0000 20.7204
#
#
#
# Elastic Compliance Matrix: (Units=1/GPa)
#
#
# Indices 1 2 3 4 5 6 
#
# 1 0.008366 0.000045 -0.000569 0.000000 0.000000 0.000000
# 2 0.000045 0.008413 0.000711 0.000000 0.000000 0.000000
# 3 -0.000569 0.000711 0.012203 0.000000 0.000000 0.000000
# 4 0.000000 0.000000 0.000000 -0.054089 0.000000 0.000000
# 5 0.000000 0.000000 0.000000 0.000000 -0.867256 0.000000
# 6 0.000000 0.000000 0.000000 0.000000 0.000000 0.048262
#
#
# Mechanical properties :
#
#
# Convention : Reuss Voigt Hill
#
# Bulk Modulus (GPa) = 34.06533 35.22955 34.64744
# Shear Modulus (GPa) = -5.99025 21.84762 7.92869
#
# Velocity S-wave (km/s) = -1.58978 3.03610 1.82900
# Velocity P-wave (km/s) = 3.31706 5.21100 4.36792
#
# Compressibility (1/GPa) = 0.02935536
#
# Stress axis : x y z
#
# Youngs Moduli (GPa) = 119.53496 118.86173 81.94659
#
# Poissons Ratio (x) = -0.00529 0.04665
# Poissons Ratio (y) = -0.00532 -0.05830
# Poissons Ratio (z) = 0.06804 -0.08456
#
# Static dielectric constant tensor:
#      x y z
#    x 1.945530 0.000000 0.000000 
#    y 0.000000 1.933330 0.000000 
#    z 0.000000 0.000000 1.942570 
# 
# From -- ./inp_files/56772.got.cif
#   From: 2010.05.17/outbox.cif.g08.bks.cpg/sg66_29_cif.got.tgz:56772.got - 2010.06.03 17:51:23.
