data_PCOD9496225
_publ_section_title
;
Structure prediction by ZEFSAII (Michael W. Deem and Ramdas Pophale) SiO2 
 PCOD9496225
Probable space group: C C C M
;
_chemical_formula_sum "Si O2"
_cell_formula_units_Z 72
_cell_length_a 11.634786
_cell_length_b 9.701546
_cell_length_c 26.157872
_cell_angle_alpha 90.000000
_cell_angle_beta 90.000000
_cell_angle_gamma 90.000000
_cell_volume 2952.580568
_symmetry_space_group_name_H-M "C C C M"
_symmetry_group_IT_number 66
_symmetry_cell_setting 'orthorhombic'
loop_
_space_group_symop_operation_xyz
x,y,z
-x,-y,z
x,-y,1/2-z
-x,y,1/2-z
-x,-y,-z
x,y,-z
-x,y,1/2+z
x,-y,1/2+z
1/2+x,1/2+y,z
1/2-x,1/2-y,z
1/2+x,1/2-y,1/2-z
1/2-x,1/2+y,1/2-z
1/2-x,1/2-y,-z
1/2+x,1/2+y,-z
1/2-x,1/2+y,1/2+z
1/2+x,1/2-y,1/2+z
loop_
_atom_site_type_symbol
_atom_site_label
_atom_site_fract_x
_atom_site_fract_y
_atom_site_fract_z
Si Si1 0.000000 0.777545 0.250000
Si Si2 0.352897 0.635858 0.443852
Si Si3 0.223510 0.907769 0.289046
Si Si4 0.199729 0.536938 0.112598
Si Si5 0.506354 0.800036 0.867233
O O1 0.113655 0.868594 0.255106
O O2 0.002156 0.705220 0.194473
O O3 0.406775 0.641764 0.500000
O O4 0.250000 0.750000 0.442548
O O5 0.282050 0.496336 0.434153
O O6 0.440513 0.671632 0.398168
O O7 0.250000 0.750000 0.306729
O O8 0.221985 0.003931 0.338199
O O9 0.300810 0.000000 0.250000
O O10 0.122862 0.671937 0.113732
O O11 0.098066 0.420564 0.118835
#
# Coordination Sequence:
#
# PCOD9496225 Si02
#       5
#     8  16  16  16  16
#     4  12  21  37  56  84 127 174 217 270 351 418
#     4   9  17  33  53  80 126 173 226 294 346 400
#     4  12  23  39  58  87 127 171 218 272 334 410
#     4  10  19  34  54  85 124 166 227 279 344 411
#     4  10  20  32  56  86 122 174 225 278 347 425
#
# _framework density 24.385448
#
# number of rings (size 3 to 8) (size 9 to 14) (size 15 to 20)
#    0.000    1.556    4.444    2.333    0.000    1.778 
#    0.000    4.444    0.000    0.000    0.000    3.111 
#    0.000    5.333    0.000    0.222    0.000    0.000 
#
# Total GULP energy -200477.721161 kJ/mol
# GULP energy per Si atom -5568.825588 kJ/mol
# Density = 2.432995 g / cm^3
# Si number density = 24.385448 Si / 1000 Ang^3
#
#
#
# Elastic Constant Matrix: (Units=GPa)
#
#
# Indices 1 2 3 4 5 6 
#
# 1 97.8734 21.1118 46.1969 0.0000 0.0000 0.0000
# 2 21.1118 42.6856 16.2570 0.0000 0.0000 0.0000
# 3 46.1969 16.2570 122.6396 0.0000 0.0000 0.0000
# 4 0.0000 0.0000 0.0000 6.1813 0.0000 0.0000
# 5 0.0000 0.0000 0.0000 0.0000 21.5573 0.0000
# 6 0.0000 0.0000 0.0000 0.0000 0.0000 11.7706
#
#
#
# Elastic Compliance Matrix: (Units=1/GPa)
#
#
# Indices 1 2 3 4 5 6 
#
# 1 0.013346 -0.004935 -0.004373 0.000000 0.000000 0.000000
# 2 -0.004935 0.026498 -0.001653 0.000000 0.000000 0.000000
# 3 -0.004373 -0.001653 0.010020 0.000000 0.000000 0.000000
# 4 0.000000 0.000000 0.000000 0.161779 0.000000 0.000000
# 5 0.000000 0.000000 0.000000 0.000000 0.046388 0.000000
# 6 0.000000 0.000000 0.000000 0.000000 0.000000 0.084957
#
#
# Mechanical properties :
#
#
# Convention : Reuss Voigt Hill
#
# Bulk Modulus (GPa) = 35.79020 47.81443 41.80232
# Shear Modulus (GPa) = 13.36090 19.87735 16.61913
#
# Velocity S-wave (km/s) = 2.34328 2.85815 2.61342
# Velocity P-wave (km/s) = 4.69361 5.52651 5.12700
#
# Compressibility (1/GPa) = 0.02794061
#
# Stress axis : x y z
#
# Youngs Moduli (GPa) = 74.92903 37.73901 99.79607
#
# Poissons Ratio (x) = 0.18625 0.43641
# Poissons Ratio (y) = 0.36980 0.16501
# Poissons Ratio (z) = 0.32767 0.06240
#
# Static dielectric constant tensor:
#      x y z
#    x 2.042060 0.000000 0.000000 
#    y 0.000000 2.046940 0.000000 
#    z 0.000000 0.000000 1.928340 
# 
# From -- ./inp_files/57813.got.cif
#   From: 2010.05.17/outbox.cif.g08.bks.cpg/sg66_29_cif.got.tgz:57813.got - 2010.06.03 17:51:23.
