data_PCOD9496514
_publ_section_title
;
Structure prediction by ZEFSAII (Michael W. Deem and Ramdas Pophale) SiO2 
 PCOD9496514
Probable space group: C C C M
;
_chemical_formula_sum "Si O2"
_cell_formula_units_Z 80
_cell_length_a 13.995507
_cell_length_b 11.867259
_cell_length_c 23.444562
_cell_angle_alpha 90.000000
_cell_angle_beta 90.000000
_cell_angle_gamma 90.000000
_cell_volume 3893.867597
_symmetry_space_group_name_H-M "C C C M"
_symmetry_group_IT_number 66
_symmetry_cell_setting 'orthorhombic'
loop_
_space_group_symop_operation_xyz
x,y,z
-x,-y,z
x,-y,1/2-z
-x,y,1/2-z
-x,-y,-z
x,y,-z
-x,y,1/2+z
x,-y,1/2+z
1/2+x,1/2+y,z
1/2-x,1/2-y,z
1/2+x,1/2-y,1/2-z
1/2-x,1/2+y,1/2-z
1/2-x,1/2-y,-z
1/2+x,1/2+y,-z
1/2-x,1/2+y,1/2+z
1/2+x,1/2-y,1/2+z
loop_
_atom_site_type_symbol
_atom_site_label
_atom_site_fract_x
_atom_site_fract_y
_atom_site_fract_z
Si Si1 0.039182 0.124531 0.161446
Si Si2 0.649855 0.047922 0.644905
Si Si3 0.285443 0.364719 0.762276
Si Si4 0.537200 0.845590 0.684551
Si Si5 0.299544 0.626932 0.565295
O O1 0.108956 0.155688 0.213590
O O2 0.107356 0.127181 0.105755
O O3 0.955458 0.216603 0.165365
O O4 0.000000 0.000000 0.167952
O O5 0.710058 0.128658 0.686104
O O6 0.547226 0.107766 0.642963
O O7 0.717422 0.043622 0.589995
O O8 0.626603 0.927301 0.673450
O O9 0.288632 0.500000 0.750000
O O10 0.250000 0.250000 0.730200
O O11 0.500000 0.861863 0.750000
O O12 0.324021 0.601106 0.500000
O O13 0.250000 0.750000 0.567132
#
# Coordination Sequence:
#
# PCOD9496514 Si02
#       5
#    16  16  16  16  16
#     4  11  24  38  57  89 126 154 203 253 301 372
#     4  10  19  37  58  86 114 153 204 249 289 363
#     4  11  22  37  56  81 121 165 206 244 294 364
#     4  11  21  34  58  88 127 161 193 242 305 357
#     4  10  20  42  67  84 114 159 205 260 309 356
#
# _framework density 20.545124999999999
#
# number of rings (size 3 to 8) (size 9 to 14) (size 15 to 20)
#    0.000    1.400    4.000    3.600    2.800    0.400 
#    0.000    6.000    0.000    1.200    0.000    0.000 
#    0.000    0.000    0.000    0.000    0.000    0.000 
#
# Total GULP energy -222876.297564 kJ/mol
# GULP energy per Si atom -5571.907439 kJ/mol
# Density = 2.049836 g / cm^3
# Si number density = 20.545125 Si / 1000 Ang^3
#
#
#
# Elastic Constant Matrix: (Units=GPa)
#
#
# Indices 1 2 3 4 5 6 
#
# 1 71.5902 37.5142 30.4902 0.0000 0.0000 0.0000
# 2 37.5142 173.4982 37.0970 0.0000 0.0000 0.0000
# 3 30.4902 37.0970 93.9440 0.0000 0.0000 0.0000
# 4 0.0000 0.0000 0.0000 10.7097 0.0000 0.0000
# 5 0.0000 0.0000 0.0000 0.0000 22.1256 0.0000
# 6 0.0000 0.0000 0.0000 0.0000 0.0000 48.0047
#
#
#
# Elastic Compliance Matrix: (Units=1/GPa)
#
#
# Indices 1 2 3 4 5 6 
#
# 1 0.017358 -0.002784 -0.004535 0.000000 0.000000 0.000000
# 2 -0.002784 0.006742 -0.001759 0.000000 0.000000 0.000000
# 3 -0.004535 -0.001759 0.012811 0.000000 0.000000 0.000000
# 4 0.000000 0.000000 0.000000 0.093374 0.000000 0.000000
# 5 0.000000 0.000000 0.000000 0.000000 0.045196 0.000000
# 6 0.000000 0.000000 0.000000 0.000000 0.000000 0.020831
#
#
# Mechanical properties :
#
#
# Convention : Reuss Voigt Hill
#
# Bulk Modulus (GPa) = 53.31350 61.02613 57.16981
# Shear Modulus (GPa) = 22.65328 31.76339 27.20834
#
# Velocity S-wave (km/s) = 3.32416 3.93623 3.64307
# Velocity P-wave (km/s) = 6.38273 7.10116 6.75150
#
# Compressibility (1/GPa) = 0.01875698
#
# Stress axis : x y z
#
# Youngs Moduli (GPa) = 57.60916 148.33065 78.05888
#
# Poissons Ratio (x) = 0.41291 0.35396
# Poissons Ratio (y) = 0.16037 0.13728
# Poissons Ratio (z) = 0.26123 0.26087
#
# Static dielectric constant tensor:
#      x y z
#    x 1.768750 0.000000 0.000000 
#    y 0.000000 1.829000 0.000000 
#    z 0.000000 0.000000 1.763310 
# 
# From -- ./inp_files/56554.got.cif
#   From: 2010.05.17/outbox.cif.g08.bks.cpg/sg66_29_cif.got.tgz:56554.got - 2010.06.03 17:51:23.
