data_PCOD9496275
_publ_section_title
;
Structure prediction by ZEFSAII (Michael W. Deem and Ramdas Pophale) SiO2 
 PCOD9496275
Probable space group: C C C M
;
_chemical_formula_sum "Si O2"
_cell_formula_units_Z 80
_cell_length_a 25.795137
_cell_length_b 6.018111
_cell_length_c 23.122297
_cell_angle_alpha 90.000000
_cell_angle_beta 90.000000
_cell_angle_gamma 90.000000
_cell_volume 3589.459089
_symmetry_space_group_name_H-M "C C C M"
_symmetry_group_IT_number 66
_symmetry_cell_setting 'orthorhombic'
loop_
_space_group_symop_operation_xyz
x,y,z
-x,-y,z
x,-y,1/2-z
-x,y,1/2-z
-x,-y,-z
x,y,-z
-x,y,1/2+z
x,-y,1/2+z
1/2+x,1/2+y,z
1/2-x,1/2-y,z
1/2+x,1/2-y,1/2-z
1/2-x,1/2+y,1/2-z
1/2-x,1/2-y,-z
1/2+x,1/2+y,-z
1/2-x,1/2+y,1/2+z
1/2+x,1/2-y,1/2+z
loop_
_atom_site_type_symbol
_atom_site_label
_atom_site_fract_x
_atom_site_fract_y
_atom_site_fract_z
Si Si1 0.930947 0.183000 0.566159
Si Si2 0.000000 0.500000 0.147053
Si Si3 0.682481 0.448524 0.686084
Si Si4 0.834735 0.436043 0.395151
Si Si5 0.585801 0.696351 0.349450
Si Si6 0.250000 0.750000 0.101018
O O1 0.947615 0.185428 0.500000
O O2 0.870607 0.263591 0.569900
O O3 0.964076 0.349520 0.605613
O O4 0.934596 0.942013 0.595490
O O5 0.961727 0.328606 0.179509
O O6 0.702138 0.500000 0.750000
O O7 0.686214 0.200856 0.660492
O O8 0.621737 0.522636 0.684678
O O9 0.713177 0.601393 0.641272
O O10 0.874528 0.618129 0.371489
O O11 0.788819 0.569596 0.427256
#
# Coordination Sequence:
#
# PCOD9496275 Si02
#       6
#    16   8  16  16  16   8
#     4  10  20  35  57  84 112 147 192 240 287 339
#     4  10  19  34  58  81 112 146 190 241 291 338
#     4  10  21  35  58  83 114 144 188 233 286 339
#     4   9  20  37  53  79 117 150 181 232 285 335
#     4   9  20  35  53  79 113 150 184 235 288 338
#     4  10  20  32  57  84 112 146 185 228 284 344
#
# _framework density 22.287479999999999
#
# number of rings (size 3 to 8) (size 9 to 14) (size 15 to 20)
#    0.000    2.400    0.000    1.500    2.800    7.200 
#    0.000    0.500    0.000   50.400    0.000    0.000 
#    0.000    0.000    0.000    0.000    0.000    0.000 
#
# Total GULP energy -222972.032183 kJ/mol
# GULP energy per Si atom -5574.300805 kJ/mol
# Density = 2.223675 g / cm^3
# Si number density = 22.287480 Si / 1000 Ang^3
#
#
#
# Elastic Constant Matrix: (Units=GPa)
#
#
# Indices 1 2 3 4 5 6 
#
# 1 109.1432 33.4821 -11.6726 0.0000 0.0000 0.0000
# 2 33.4821 114.5326 3.7801 0.0000 0.0000 0.0000
# 3 -11.6726 3.7801 27.1680 0.0000 0.0000 0.0000
# 4 0.0000 0.0000 0.0000 -5.5993 0.0000 0.0000
# 5 0.0000 0.0000 0.0000 0.0000 22.2319 0.0000
# 6 0.0000 0.0000 0.0000 0.0000 0.0000 67.0574
#
#
#
# Elastic Compliance Matrix: (Units=1/GPa)
#
#
# Indices 1 2 3 4 5 6 
#
# 1 0.010716 -0.003300 0.005063 0.000000 0.000000 0.000000
# 2 -0.003300 0.009788 -0.002780 0.000000 0.000000 0.000000
# 3 0.005063 -0.002780 0.039370 0.000000 0.000000 0.000000
# 4 0.000000 0.000000 0.000000 -0.178594 0.000000 0.000000
# 5 0.000000 0.000000 0.000000 0.000000 0.044980 0.000000
# 6 0.000000 0.000000 0.000000 0.000000 0.000000 0.014913
#
#
# Mechanical properties :
#
#
# Convention : Reuss Voigt Hill
#
# Bulk Modulus (GPa) = 17.28861 33.55809 25.42335
# Shear Modulus (GPa) = -133.28073 31.75494 -50.76289
#
# Velocity S-wave (km/s) = -7.74148 3.77873 -4.77764
# Velocity P-wave (km/s) = 8.49314 5.84192 4.35921
#
# Compressibility (1/GPa) = 0.05784154
#
# Stress axis : x y z
#
# Youngs Moduli (GPa) = 93.31785 102.17087 25.39992
#
# Poissons Ratio (x) = 0.33714 -0.12861
# Poissons Ratio (y) = 0.30793 0.07060
# Poissons Ratio (z) = -0.47249 0.28399
#
# Static dielectric constant tensor:
#      x y z
#    x 1.929460 0.000000 0.000000 
#    y 0.000000 1.864210 0.000000 
#    z 0.000000 0.000000 1.787210 
# 
# From -- ./inp_files/66256.got.cif
#   From: 2010.05.17/outbox.cif.g08.bks.cpg/sg66_34_cif.got.tgz:66256.got - 2010.06.03 17:51:23.
