data_PCOD9496746
_publ_section_title
;
Structure prediction by ZEFSAII (Michael W. Deem and Ramdas Pophale) SiO2 
 PCOD9496746
Probable space group: C C C M
;
_chemical_formula_sum "Si O2"
_cell_formula_units_Z 88
_cell_length_a 18.062684
_cell_length_b 14.208450
_cell_length_c 19.818090
_cell_angle_alpha 90.000000
_cell_angle_beta 90.000000
_cell_angle_gamma 90.000000
_cell_volume 5086.168968
_symmetry_space_group_name_H-M "C C C M"
_symmetry_group_IT_number 66
_symmetry_cell_setting 'orthorhombic'
loop_
_space_group_symop_operation_xyz
x,y,z
-x,-y,z
x,-y,1/2-z
-x,y,1/2-z
-x,-y,-z
x,y,-z
-x,y,1/2+z
x,-y,1/2+z
1/2+x,1/2+y,z
1/2-x,1/2-y,z
1/2+x,1/2-y,1/2-z
1/2-x,1/2+y,1/2-z
1/2-x,1/2-y,-z
1/2+x,1/2+y,-z
1/2-x,1/2+y,1/2+z
1/2+x,1/2-y,1/2+z
loop_
_atom_site_type_symbol
_atom_site_label
_atom_site_fract_x
_atom_site_fract_y
_atom_site_fract_z
Si Si1 0.750000 0.750000 0.723328
Si Si2 0.871291 0.117675 0.823442
Si Si3 0.926969 0.929687 0.176578
Si Si4 0.373816 0.892494 0.747879
Si Si5 0.504384 0.893471 0.637838
Si Si6 0.005434 0.197194 0.577568
O O1 0.796686 0.824684 0.680691
O O2 0.689324 0.814441 0.760997
O O3 0.910000 0.119858 0.748276
O O4 0.923378 0.162911 0.879870
O O5 0.863196 0.006238 0.836093
O O6 0.939981 0.855022 0.118387
O O7 0.000000 0.000000 0.177383
O O8 0.435657 0.885443 0.689771
O O9 0.421174 0.879541 0.817047
O O10 0.344720 0.000000 0.750000
O O11 0.499670 0.808958 0.585614
O O12 0.500000 0.000000 0.610985
O O13 0.008426 0.168540 0.500000
#
# Coordination Sequence:
#
# PCOD9496746 Si02
#       6
#     8  16  16  16  16  16
#     4  12  20  30  53  82 115 140 172 220 264 342
#     4  10  20  33  51  79 110 141 169 213 270 321
#     4   9  19  35  56  79 108 138 171 227 275 312
#     4   9  19  32  54  80 107 138 176 221 271 312
#     4   9  18  36  53  74 107 141 176 226 267 308
#     4  11  20  32  55  82 105 138 182 222 268 315
#
# _framework density 17.301824
#
# number of rings (size 3 to 8) (size 9 to 14) (size 15 to 20)
#    0.000    2.182    1.818    6.000    5.091    3.636 
#    0.000    0.455    0.000    0.000    0.000   10.182 
#    0.000    0.000    0.000    0.000    0.000    0.000 
#
# Total GULP energy -244958.665177 kJ/mol
# GULP energy per Si atom -5567.242390 kJ/mol
# Density = 1.726244 g / cm^3
# Si number density = 17.301824 Si / 1000 Ang^3
#
#
#
# Elastic Constant Matrix: (Units=GPa)
#
#
# Indices 1 2 3 4 5 6 
#
# 1 60.7436 43.4350 14.5484 0.0000 0.0000 0.0000
# 2 43.4350 105.5932 51.4167 0.0000 0.0000 0.0000
# 3 14.5484 51.4167 91.5625 0.0000 0.0000 0.0000
# 4 0.0000 0.0000 0.0000 13.8135 0.0000 0.0000
# 5 0.0000 0.0000 0.0000 0.0000 2.7121 0.0000
# 6 0.0000 0.0000 0.0000 0.0000 0.0000 45.0308
#
#
#
# Elastic Compliance Matrix: (Units=1/GPa)
#
#
# Indices 1 2 3 4 5 6 
#
# 1 0.023684 -0.010887 0.002350 0.000000 0.000000 0.000000
# 2 -0.010887 0.018039 -0.008400 0.000000 0.000000 0.000000
# 3 0.002350 -0.008400 0.015265 0.000000 0.000000 0.000000
# 4 0.000000 0.000000 0.000000 0.072393 0.000000 0.000000
# 5 0.000000 0.000000 0.000000 0.000000 0.368721 0.000000
# 6 0.000000 0.000000 0.000000 0.000000 0.000000 0.022207
#
#
# Mechanical properties :
#
#
# Convention : Reuss Voigt Hill
#
# Bulk Modulus (GPa) = 43.26134 52.96662 48.11398
# Shear Modulus (GPa) = 8.89859 22.21121 15.55490
#
# Velocity S-wave (km/s) = 2.27031 3.58683 3.00164
# Velocity P-wave (km/s) = 5.65072 6.91618 6.31523
#
# Compressibility (1/GPa) = 0.02311533
#
# Stress axis : x y z
#
# Youngs Moduli (GPa) = 42.22185 55.43666 65.50972
#
# Poissons Ratio (x) = 0.60353 -0.15396
# Poissons Ratio (y) = 0.45966 0.55026
# Poissons Ratio (z) = -0.09923 0.46565
#
# Static dielectric constant tensor:
#      x y z
#    x 1.637030 0.000000 0.000000 
#    y 0.000000 1.658330 0.000000 
#    z 0.000000 0.000000 1.554540 
# 
# From -- ./inp_files/41577.got.cif
#   From: 2010.05.17/outbox.cif.g08.bks.cpg/sg66_21_cif.got.tgz:41577.got - 2010.06.03 17:51:23.
