data_PCOD9496596
_publ_section_title
;
Structure prediction by ZEFSAII (Michael W. Deem and Ramdas Pophale) SiO2 
 PCOD9496596
Probable space group: C C C M
;
_chemical_formula_sum "Si O2"
_cell_formula_units_Z 80
_cell_length_a 20.114165
_cell_length_b 5.112192
_cell_length_c 35.203454
_cell_angle_alpha 90.000000
_cell_angle_beta 90.000000
_cell_angle_gamma 90.000000
_cell_volume 3619.882230
_symmetry_space_group_name_H-M "C C C M"
_symmetry_group_IT_number 66
_symmetry_cell_setting 'orthorhombic'
loop_
_space_group_symop_operation_xyz
x,y,z
-x,-y,z
x,-y,1/2-z
-x,y,1/2-z
-x,-y,-z
x,y,-z
-x,y,1/2+z
x,-y,1/2+z
1/2+x,1/2+y,z
1/2-x,1/2-y,z
1/2+x,1/2-y,1/2-z
1/2-x,1/2+y,1/2-z
1/2-x,1/2-y,-z
1/2+x,1/2+y,-z
1/2-x,1/2+y,1/2+z
1/2+x,1/2-y,1/2+z
loop_
_atom_site_type_symbol
_atom_site_label
_atom_site_fract_x
_atom_site_fract_y
_atom_site_fract_z
Si Si1 0.250000 0.250000 0.904749
Si Si2 0.750000 0.750000 0.777065
Si Si3 0.140050 0.890136 0.885280
Si Si4 0.897064 0.249009 0.276880
Si Si5 0.822974 0.383442 0.957319
Si Si6 0.568741 0.893806 0.856105
O O1 0.285576 0.482641 0.881714
O O2 0.193499 0.359522 0.932928
O O3 0.754349 0.500000 0.750000
O O4 0.822556 0.774531 0.795522
O O5 0.134454 0.790924 0.928695
O O6 0.120998 0.636377 0.859910
O O7 0.093046 0.132269 0.876312
O O8 0.899223 0.500000 0.250000
O O9 0.942827 0.301255 0.312760
O O10 0.909513 0.000000 0.250000
O O11 0.750000 0.250000 0.960184
O O12 0.847508 0.425262 0.000000
O O13 0.500000 0.000000 0.872323
#
# Coordination Sequence:
#
# PCOD9496596 Si02
#       6
#     8   8  16  16  16  16
#     4  10  19  39  66 105 138 166 220 272 348 402
#     4   8  16  33  56  85 120 146 175 236 323 388
#     4  11  23  42  63  97 137 174 218 270 340 409
#     4  10  21  41  66  94 122 158 211 270 333 396
#     4   9  18  35  65 101 139 170 210 276 346 406
#     4  12  26  44  65  92 131 187 229 277 332 387
#
# _framework density 22.100166999999999
#
# number of rings (size 3 to 8) (size 9 to 14) (size 15 to 20)
#    0.000    1.800    2.000    2.100    0.000    2.000 
#    0.000    5.000    0.000    3.600    0.000    0.000 
#    0.000    0.000    0.000    0.000    0.000    0.000 
#
# Total GULP energy -223166.695265 kJ/mol
# GULP energy per Si atom -5579.167382 kJ/mol
# Density = 2.204987 g / cm^3
# Si number density = 22.100167 Si / 1000 Ang^3
#
#
#
# Elastic Constant Matrix: (Units=GPa)
#
#
# Indices 1 2 3 4 5 6 
#
# 1 39.9856 35.3784 29.6854 0.0000 0.0000 0.0000
# 2 35.3784 195.3612 64.5465 0.0000 0.0000 0.0000
# 3 29.6854 64.5465 111.0158 0.0000 0.0000 0.0000
# 4 0.0000 0.0000 0.0000 21.0115 0.0000 0.0000
# 5 0.0000 0.0000 0.0000 0.0000 16.2254 0.0000
# 6 0.0000 0.0000 0.0000 0.0000 0.0000 65.2487
#
#
#
# Elastic Compliance Matrix: (Units=1/GPa)
#
#
# Indices 1 2 3 4 5 6 
#
# 1 0.033369 -0.003831 -0.006696 0.000000 0.000000 0.000000
# 2 -0.003831 0.006776 -0.002915 0.000000 0.000000 0.000000
# 3 -0.006696 -0.002915 0.012493 0.000000 0.000000 0.000000
# 4 0.000000 0.000000 0.000000 0.047593 0.000000 0.000000
# 5 0.000000 0.000000 0.000000 0.000000 0.061632 0.000000
# 6 0.000000 0.000000 0.000000 0.000000 0.000000 0.015326
#
#
# Mechanical properties :
#
#
# Convention : Reuss Voigt Hill
#
# Bulk Modulus (GPa) = 38.82753 67.28700 53.05726
# Shear Modulus (GPa) = 23.51214 34.94729 29.22972
#
# Velocity S-wave (km/s) = 3.26527 3.98089 3.64070
# Velocity P-wave (km/s) = 5.64119 7.18627 6.46009
#
# Compressibility (1/GPa) = 0.02575493
#
# Stress axis : x y z
#
# Youngs Moduli (GPa) = 29.96778 147.58897 80.04480
#
# Poissons Ratio (x) = 0.56537 0.53595
# Poissons Ratio (y) = 0.11480 0.23334
# Poissons Ratio (z) = 0.20065 0.43024
#
# Static dielectric constant tensor:
#      x y z
#    x 1.931600 0.000000 0.000000 
#    y 0.000000 1.866090 0.000000 
#    z 0.000000 0.000000 0.918030 
# 
# From -- ./inp_files/70326.got.cif
#   From: 2010.05.17/outbox.cif.g08.bks.cpg/sg66_36_cif.got.tgz:70326.got - 2010.06.03 17:51:23.
