data_PCOD9496169
_publ_section_title
;
Structure prediction by ZEFSAII (Michael W. Deem and Ramdas Pophale) SiO2 
 PCOD9496169
Probable space group: C C C M
;
_chemical_formula_sum "Si O2"
_cell_formula_units_Z 112
_cell_length_a 15.382529
_cell_length_b 23.012012
_cell_length_c 13.904930
_cell_angle_alpha 90.000000
_cell_angle_beta 90.000000
_cell_angle_gamma 90.000000
_cell_volume 4922.108029
_symmetry_space_group_name_H-M "C C C M"
_symmetry_group_IT_number 66
_symmetry_cell_setting 'orthorhombic'
loop_
_space_group_symop_operation_xyz
x,y,z
-x,-y,z
x,-y,1/2-z
-x,y,1/2-z
-x,-y,-z
x,y,-z
-x,y,1/2+z
x,-y,1/2+z
1/2+x,1/2+y,z
1/2-x,1/2-y,z
1/2+x,1/2-y,1/2-z
1/2-x,1/2+y,1/2-z
1/2-x,1/2-y,-z
1/2+x,1/2+y,-z
1/2-x,1/2+y,1/2+z
1/2+x,1/2-y,1/2+z
loop_
_atom_site_type_symbol
_atom_site_label
_atom_site_fract_x
_atom_site_fract_y
_atom_site_fract_z
Si Si1 0.353295 0.251639 0.721098
Si Si2 0.285567 0.451528 0.616553
Si Si3 0.621524 0.328277 0.614293
Si Si4 0.930776 0.863895 0.384458
Si Si5 0.126116 0.365159 0.612205
Si Si6 0.734829 0.080813 0.617288
Si Si7 0.043242 0.441560 0.112120
O O1 0.250000 0.250000 0.715488
O O2 0.380798 0.267678 0.829341
O O3 0.390546 0.305529 0.659993
O O4 0.381023 0.190868 0.678030
O O5 0.286888 0.454007 0.500000
O O6 0.373397 0.418875 0.647645
O O7 0.202767 0.410495 0.640001
O O8 0.273307 0.518228 0.646732
O O9 0.625599 0.319503 0.500000
O O10 0.533383 0.363638 0.637081
O O11 0.704773 0.365664 0.647939
O O12 0.922924 0.860514 0.500000
O O13 0.144038 0.348617 0.500000
O O14 0.033161 0.395682 0.615753
O O15 0.736872 0.083719 0.500000
O O16 0.634965 0.080439 0.651449
O O17 0.000000 0.500000 0.151166
O O18 0.063586 0.455155 0.000000
#
# Coordination Sequence:
#
# PCOD9496169 Si02
#       7
#    16  16  16  16  16  16  16
#     4  12  24  41  66  92 127 171 226 281 327 382
#     4   9  16  30  61  99 131 166 210 264 331 401
#     4  10  24  45  63  87 132 182 225 270 322 390
#     4  10  21  40  66  96 131 169 211 267 331 393
#     4  10  19  33  59 101 141 171 209 266 340 403
#     4   9  17  34  61  94 133 175 218 262 323 403
#     4   9  15  28  56  96 140 176 205 253 326 405
#
# _framework density 22.754477000000001
#
# number of rings (size 3 to 8) (size 9 to 14) (size 15 to 20)
#    0.000    2.143    2.857    0.857    0.000    1.429 
#    5.143    3.571    0.000    1.714    0.000    1.000 
#    0.000    0.571    0.000    0.000    0.000    0.143 
#
# Total GULP energy -313247.606906 kJ/mol
# GULP energy per Si atom -5593.707266 kJ/mol
# Density = 2.270269 g / cm^3
# Si number density = 22.754477 Si / 1000 Ang^3
#
#
#
# Elastic Constant Matrix: (Units=GPa)
#
#
# Indices 1 2 3 4 5 6 
#
# 1 113.0891 9.4626 25.4552 0.0000 0.0000 0.0000
# 2 9.4626 80.8230 30.7310 0.0000 0.0000 0.0000
# 3 25.4552 30.7310 84.2606 0.0000 0.0000 0.0000
# 4 0.0000 0.0000 0.0000 33.8129 0.0000 0.0000
# 5 0.0000 0.0000 0.0000 0.0000 23.2803 0.0000
# 6 0.0000 0.0000 0.0000 0.0000 0.0000 18.4645
#
#
#
# Elastic Compliance Matrix: (Units=1/GPa)
#
#
# Indices 1 2 3 4 5 6 
#
# 1 0.009488 -0.000024 -0.002857 0.000000 0.000000 0.000000
# 2 -0.000024 0.014365 -0.005232 0.000000 0.000000 0.000000
# 3 -0.002857 -0.005232 0.014639 0.000000 0.000000 0.000000
# 4 0.000000 0.000000 0.000000 0.029575 0.000000 0.000000
# 5 0.000000 0.000000 0.000000 0.000000 0.042955 0.000000
# 6 0.000000 0.000000 0.000000 0.000000 0.000000 0.054158
#
#
# Mechanical properties :
#
#
# Convention : Reuss Voigt Hill
#
# Bulk Modulus (GPa) = 44.91363 45.49671 45.20517
# Shear Modulus (GPa) = 26.47918 29.27979 27.87948
#
# Velocity S-wave (km/s) = 3.41499 3.59105 3.50413
# Velocity P-wave (km/s) = 5.94397 6.10182 6.02341
#
# Compressibility (1/GPa) = 0.02226495
#
# Stress axis : x y z
#
# Youngs Moduli (GPa) = 105.39859 69.61469 68.30959
#
# Poissons Ratio (x) = 0.00170 0.19519
# Poissons Ratio (y) = 0.00257 0.35737
# Poissons Ratio (z) = 0.30117 0.36420
#
# Static dielectric constant tensor:
#      x y z
#    x 1.812820 0.000000 0.000000 
#    y 0.000000 1.795790 0.000000 
#    z 0.000000 0.000000 1.909680 
# 
# From -- ./inp_files/28677.got.cif
#   From: 2010.05.17/outbox.cif.g08.bks.cpg/sg66_15_cif.got.tgz:28677.got - 2010.06.03 17:51:23.
