data_PCOD9496874
_publ_section_title
;
Structure prediction by ZEFSAII (Michael W. Deem and Ramdas Pophale) SiO2 
 PCOD9496874
Probable space group: C C C M
;
_chemical_formula_sum "Si O2"
_cell_formula_units_Z 80
_cell_length_a 11.951462
_cell_length_b 21.268991
_cell_length_c 14.072457
_cell_angle_alpha 90.000000
_cell_angle_beta 90.000000
_cell_angle_gamma 90.000000
_cell_volume 3577.155774
_symmetry_space_group_name_H-M "C C C M"
_symmetry_group_IT_number 66
_symmetry_cell_setting 'orthorhombic'
loop_
_space_group_symop_operation_xyz
x,y,z
-x,-y,z
x,-y,1/2-z
-x,y,1/2-z
-x,-y,-z
x,y,-z
-x,y,1/2+z
x,-y,1/2+z
1/2+x,1/2+y,z
1/2-x,1/2-y,z
1/2+x,1/2-y,1/2-z
1/2-x,1/2+y,1/2-z
1/2-x,1/2-y,-z
1/2+x,1/2+y,-z
1/2-x,1/2+y,1/2+z
1/2+x,1/2-y,1/2+z
loop_
_atom_site_type_symbol
_atom_site_label
_atom_site_fract_x
_atom_site_fract_y
_atom_site_fract_z
Si Si1 0.808826 0.000000 0.250000
Si Si2 0.000000 0.689643 0.750000
Si Si3 0.706753 0.822619 0.109985
Si Si4 0.824581 0.329523 0.111317
Si Si5 0.879811 0.476872 0.889100
Si Si6 0.375277 0.363628 0.742076
O O1 0.721207 0.989885 0.164435
O O2 0.877137 0.061689 0.223128
O O3 0.098351 0.664483 0.676681
O O4 0.087003 0.712577 0.831109
O O5 0.750000 0.750000 0.114452
O O6 0.811271 0.856901 0.158208
O O7 0.683857 0.838177 0.000000
O O8 0.868856 0.401632 0.123155
O O9 0.705302 0.332244 0.163661
O O10 0.817911 0.315238 0.000000
O O11 0.000000 0.500000 0.855114
O O12 0.871760 0.490756 0.000000
O O13 0.500000 0.337838 0.750000
#
# Coordination Sequence:
#
# PCOD9496874 Si02
#       6
#     8   8  16  16  16  16
#     4  10  20  34  54  82 116 155 205 240 298 358
#     4  10  20  36  63  86 116 151 188 250 304 360
#     4  10  23  41  64  93 121 157 205 255 307 363
#     4   9  19  34  52  81 114 148 189 237 293 352
#     4   9  18  28  45  73 110 147 187 237 288 348
#     4  10  22  38  60  84 120 163 203 251 298 360
#
# _framework density 22.364135999999998
#
# number of rings (size 3 to 8) (size 9 to 14) (size 15 to 20)
#    0.000    2.400    0.000    1.200    9.800    1.600 
#    0.000    0.000    0.000    9.000    0.000    0.000 
#    0.000    0.000    0.000    0.000    0.000    0.000 
#
# Total GULP energy -223028.008457 kJ/mol
# GULP energy per Si atom -5575.700211 kJ/mol
# Density = 2.231323 g / cm^3
# Si number density = 22.364136 Si / 1000 Ang^3
#
#
#
# Elastic Constant Matrix: (Units=GPa)
#
#
# Indices 1 2 3 4 5 6 
#
# 1 195.4039 32.5476 75.8853 0.0000 0.0000 0.0000
# 2 32.5476 64.4404 11.5327 0.0000 0.0000 0.0000
# 3 75.8853 11.5327 180.7524 0.0000 0.0000 0.0000
# 4 0.0000 0.0000 0.0000 -2.6109 0.0000 0.0000
# 5 0.0000 0.0000 0.0000 0.0000 13.2086 0.0000
# 6 0.0000 0.0000 0.0000 0.0000 0.0000 -5.6902
#
#
#
# Elastic Compliance Matrix: (Units=1/GPa)
#
#
# Indices 1 2 3 4 5 6 
#
# 1 0.006601 -0.002871 -0.002588 0.000000 0.000000 0.000000
# 2 -0.002871 0.016946 0.000124 0.000000 0.000000 0.000000
# 3 -0.002588 0.000124 0.006611 0.000000 0.000000 0.000000
# 4 0.000000 0.000000 0.000000 -0.383016 0.000000 0.000000
# 5 0.000000 0.000000 0.000000 0.000000 0.075708 0.000000
# 6 0.000000 0.000000 0.000000 0.000000 0.000000 -0.175741
#
#
# Mechanical properties :
#
#
# Convention : Reuss Voigt Hill
#
# Bulk Modulus (GPa) = 51.31295 75.61420 63.46357
# Shear Modulus (GPa) = -11.47512 22.35692 5.44090
#
# Velocity S-wave (km/s) = -2.26764 3.16520 1.56146
# Velocity P-wave (km/s) = 4.01720 6.87327 5.62937
#
# Compressibility (1/GPa) = 0.01948826
#
# Stress axis : x y z
#
# Youngs Moduli (GPa) = 151.49538 59.01098 151.26151
#
# Poissons Ratio (x) = 0.16941 0.39148
# Poissons Ratio (y) = 0.43491 -0.01876
# Poissons Ratio (z) = 0.39208 -0.00732
#
# Static dielectric constant tensor:
#      x y z
#    x 1.799250 0.000000 0.000000 
#    y 0.000000 1.942030 0.000000 
#    z 0.000000 0.000000 1.791950 
# 
# From -- ./inp_files/26712.got.cif
#   From: 2010.05.17/outbox.cif.g08.bks.cpg/sg66_14_cif.got.tgz:26712.got - 2010.06.03 17:51:23.
