data_PCOD9496234
_publ_section_title
;
Structure prediction by ZEFSAII (Michael W. Deem and Ramdas Pophale) SiO2 
 PCOD9496234
Probable space group: C C C M
;
_chemical_formula_sum "Si O2"
_cell_formula_units_Z 120
_cell_length_a 23.926965
_cell_length_b 12.016651
_cell_length_c 23.472273
_cell_angle_alpha 90.000000
_cell_angle_beta 90.000000
_cell_angle_gamma 90.000000
_cell_volume 6748.794593
_symmetry_space_group_name_H-M "C C C M"
_symmetry_group_IT_number 66
_symmetry_cell_setting 'orthorhombic'
loop_
_space_group_symop_operation_xyz
x,y,z
-x,-y,z
x,-y,1/2-z
-x,y,1/2-z
-x,-y,-z
x,y,-z
-x,y,1/2+z
x,-y,1/2+z
1/2+x,1/2+y,z
1/2-x,1/2-y,z
1/2+x,1/2-y,1/2-z
1/2-x,1/2+y,1/2-z
1/2-x,1/2-y,-z
1/2+x,1/2+y,-z
1/2-x,1/2+y,1/2+z
1/2+x,1/2-y,1/2+z
loop_
_atom_site_type_symbol
_atom_site_label
_atom_site_fract_x
_atom_site_fract_y
_atom_site_fract_z
Si Si1 0.679795 0.070223 0.567082
Si Si2 0.837473 0.151837 0.291830
Si Si3 0.229874 0.122572 0.432719
Si Si4 0.436572 0.988258 0.116232
Si Si5 0.932144 0.680256 0.200828
Si Si6 0.359665 0.584968 0.833812
Si Si7 0.547796 0.238865 0.832093
Si Si8 0.750000 0.250000 0.366515
O O1 0.681700 0.087900 0.500000
O O2 0.706420 0.179160 0.596297
O O3 0.719957 0.964221 0.580079
O O4 0.616112 0.040477 0.583947
O O5 0.873045 0.260731 0.306959
O O6 0.832330 0.138120 0.223785
O O7 0.779887 0.162669 0.324798
O O8 0.867855 0.043166 0.316727
O O9 0.214538 0.108134 0.500000
O O10 0.250000 0.250000 0.425584
O O11 0.179763 0.098908 0.388564
O O12 0.429523 0.857527 0.126939
O O13 0.500000 0.000000 0.092312
O O14 0.436291 0.056553 0.176063
O O15 0.942349 0.694234 0.267834
O O16 0.980759 0.745673 0.166270
O O17 0.417844 0.649542 0.841137
#
# Coordination Sequence:
#
# PCOD9496234 Si02
#       8
#    16  16  16  16  16  16  16   8
#     4  11  23  38  58  81 106 148 196 232 278 333
#     4  10  21  34  55  80 114 139 177 235 277 335
#     4  10  21  37  55  75 107 146 185 225 266 329
#     4  10  19  34  55  81 113 142 182 232 279 326
#     4   9  17  33  52  81 113 146 181 219 277 336
#     4  10  20  36  52  83 110 141 185 224 279 328
#     4   9  18  31  55  80 112 149 180 220 274 339
#     4  12  21  40  56  82 111 148 180 236 286 338
#
# _framework density 17.780951999999999
#
# number of rings (size 3 to 8) (size 9 to 14) (size 15 to 20)
#    0.000    2.000    2.667    1.400    0.933    2.400 
#    0.000    2.667    0.000    0.800    0.000    0.933 
#    0.000    0.000    0.000    0.000    0.000    0.000 
#
# Total GULP energy -334198.463841 kJ/mol
# GULP energy per Si atom -5569.974397 kJ/mol
# Density = 1.774048 g / cm^3
# Si number density = 17.780952 Si / 1000 Ang^3
#
#
#
# Elastic Constant Matrix: (Units=GPa)
#
#
# Indices 1 2 3 4 5 6 
#
# 1 60.9548 6.3782 24.8594 0.0000 0.0000 0.0000
# 2 6.3782 55.4402 6.8620 0.0000 0.0000 0.0000
# 3 24.8594 6.8620 46.8277 0.0000 0.0000 0.0000
# 4 0.0000 0.0000 0.0000 19.4552 0.0000 0.0000
# 5 0.0000 0.0000 0.0000 0.0000 12.1348 0.0000
# 6 0.0000 0.0000 0.0000 0.0000 0.0000 27.8762
#
#
#
# Elastic Compliance Matrix: (Units=1/GPa)
#
#
# Indices 1 2 3 4 5 6 
#
# 1 0.020999 -0.001055 -0.010993 0.000000 0.000000 0.000000
# 2 -0.001055 0.018424 -0.002140 0.000000 0.000000 0.000000
# 3 -0.010993 -0.002140 0.027504 0.000000 0.000000 0.000000
# 4 0.000000 0.000000 0.000000 0.051400 0.000000 0.000000
# 5 0.000000 0.000000 0.000000 0.000000 0.082407 0.000000
# 6 0.000000 0.000000 0.000000 0.000000 0.000000 0.035873
#
#
# Mechanical properties :
#
#
# Convention : Reuss Voigt Hill
#
# Bulk Modulus (GPa) = 25.93947 26.60243 26.27095
# Shear Modulus (GPa) = 17.99631 20.23479 19.11555
#
# Velocity S-wave (km/s) = 3.18482 3.37709 3.28236
# Velocity P-wave (km/s) = 5.30511 5.49545 5.40112
#
# Compressibility (1/GPa) = 0.03855129
#
# Stress axis : x y z
#
# Youngs Moduli (GPa) = 47.62032 54.27798 36.35779
#
# Poissons Ratio (x) = 0.05727 0.39969
# Poissons Ratio (y) = 0.05025 0.07779
# Poissons Ratio (z) = 0.52351 0.11613
#
# Static dielectric constant tensor:
#      x y z
#    x 1.629040 0.000000 0.000000 
#    y 0.000000 1.598230 0.000000 
#    z 0.000000 0.000000 1.599670 
# 
# From -- ./inp_files/59611.got.cif
#   From: 2010.05.17/outbox.cif.g08.bks.cpg/sg66_30_cif.got.tgz:59611.got - 2010.06.03 17:51:23.
