data_PCOD9496315
_publ_section_title
;
Structure prediction by ZEFSAII (Michael W. Deem and Ramdas Pophale) SiO2 
 PCOD9496315
Probable space group: C C C M
;
_chemical_formula_sum "Si O2"
_cell_formula_units_Z 104
_cell_length_a 8.962741
_cell_length_b 29.001677
_cell_length_c 21.859913
_cell_angle_alpha 90.000000
_cell_angle_beta 90.000000
_cell_angle_gamma 90.000000
_cell_volume 5682.145982
_symmetry_space_group_name_H-M "C C C M"
_symmetry_group_IT_number 66
_symmetry_cell_setting 'orthorhombic'
loop_
_space_group_symop_operation_xyz
x,y,z
-x,-y,z
x,-y,1/2-z
-x,y,1/2-z
-x,-y,-z
x,y,-z
-x,y,1/2+z
x,-y,1/2+z
1/2+x,1/2+y,z
1/2-x,1/2-y,z
1/2+x,1/2-y,1/2-z
1/2-x,1/2+y,1/2-z
1/2-x,1/2-y,-z
1/2+x,1/2+y,-z
1/2-x,1/2+y,1/2+z
1/2+x,1/2-y,1/2+z
loop_
_atom_site_type_symbol
_atom_site_label
_atom_site_fract_x
_atom_site_fract_y
_atom_site_fract_z
Si Si1 0.664644 0.483076 0.427893
Si Si2 0.002651 0.626379 0.679966
Si Si3 0.085366 0.157928 0.430847
Si Si4 0.759335 0.802678 0.317523
Si Si5 0.500000 0.365188 0.750000
Si Si6 0.324471 0.611994 0.637012
Si Si7 0.668535 0.077770 0.070084
O O1 0.500000 0.500000 0.408428
O O2 0.654430 0.472064 0.500000
O O3 0.708611 0.437108 0.392882
O O4 0.777544 0.525548 0.420915
O O5 0.899958 0.671987 0.681267
O O6 0.932142 0.594343 0.626626
O O7 0.000000 0.607522 0.750000
O O8 0.172076 0.634654 0.659929
O O9 0.084184 0.174719 0.500000
O O10 0.164044 0.192798 0.384231
O O11 0.186111 0.111249 0.428471
O O12 0.921186 0.143781 0.408276
O O13 0.750000 0.750000 0.298073
O O14 0.868510 0.832890 0.275304
O O15 0.567085 0.394516 0.695077
O O16 0.606096 0.082106 0.000000
#
# Coordination Sequence:
#
# PCOD9496315 Si02
#       7
#    16  16  16  16   8  16  16
#     4  10  19  34  60  88 114 153 209 248 276 338
#     4  11  23  40  58  85 126 154 192 250 310 360
#     4   9  18  36  61  87 118 153 196 241 292 357
#     4  10  22  39  64  88 112 153 196 244 302 365
#     4  10  22  38  57  82 114 150 202 235 292 366
#     4  11  21  35  58  83 117 157 196 248 293 349
#     4   9  19  37  59  85 119 160 202 241 288 346
#
# _framework density 18.302945000000001
#
# number of rings (size 3 to 8) (size 9 to 14) (size 15 to 20)
#    0.000    2.000    3.077    0.462    1.077    2.154 
#    0.000    7.308    0.000    0.923    0.000    0.000 
#    0.000    0.000    0.000    0.000    0.000    0.000 
#
# Total GULP energy -290082.306005 kJ/mol
# GULP energy per Si atom -5578.505885 kJ/mol
# Density = 1.826129 g / cm^3
# Si number density = 18.302945 Si / 1000 Ang^3
#
#
#
# Elastic Constant Matrix: (Units=GPa)
#
#
# Indices 1 2 3 4 5 6 
#
# 1 90.1517 17.8757 31.8900 0.0000 0.0000 0.0000
# 2 17.8757 53.1486 14.1703 0.0000 0.0000 0.0000
# 3 31.8900 14.1703 106.7374 0.0000 0.0000 0.0000
# 4 0.0000 0.0000 0.0000 6.1213 0.0000 0.0000
# 5 0.0000 0.0000 0.0000 0.0000 28.8920 0.0000
# 6 0.0000 0.0000 0.0000 0.0000 0.0000 9.8187
#
#
#
# Elastic Compliance Matrix: (Units=1/GPa)
#
#
# Indices 1 2 3 4 5 6 
#
# 1 0.012988 -0.003456 -0.003422 0.000000 0.000000 0.000000
# 2 -0.003456 0.020425 -0.001679 0.000000 0.000000 0.000000
# 3 -0.003422 -0.001679 0.010614 0.000000 0.000000 0.000000
# 4 0.000000 0.000000 0.000000 0.163363 0.000000 0.000000
# 5 0.000000 0.000000 0.000000 0.000000 0.034612 0.000000
# 6 0.000000 0.000000 0.000000 0.000000 0.000000 0.101846
#
#
# Mechanical properties :
#
#
# Convention : Reuss Voigt Hill
#
# Bulk Modulus (GPa) = 37.15570 41.98997 39.57283
# Shear Modulus (GPa) = 13.51597 21.37320 17.44459
#
# Velocity S-wave (km/s) = 2.72041 3.42094 3.09059
# Velocity P-wave (km/s) = 5.49654 6.21250 5.86546
#
# Compressibility (1/GPa) = 0.02691377
#
# Stress axis : x y z
#
# Youngs Moduli (GPa) = 76.99374 48.95903 94.21538
#
# Poissons Ratio (x) = 0.16921 0.32237
# Poissons Ratio (y) = 0.26610 0.15819
# Poissons Ratio (z) = 0.26344 0.08220
#
# Static dielectric constant tensor:
#      x y z
#    x 1.642940 0.000000 0.000000 
#    y 0.000000 1.589820 0.000000 
#    z 0.000000 0.000000 1.652840 
# 
# From -- ./inp_files/47535.got.cif
#   From: 2010.05.17/outbox.cif.g08.bks.cpg/sg66_24_cif.got.tgz:47535.got - 2010.06.03 17:51:23.
