data_PCOD9496847
_publ_section_title
;
Structure prediction by ZEFSAII (Michael W. Deem and Ramdas Pophale) SiO2 
 PCOD9496847
Probable space group: C C C M
;
_chemical_formula_sum "Si O2"
_cell_formula_units_Z 120
_cell_length_a 7.709174
_cell_length_b 32.507464
_cell_length_c 26.840933
_cell_angle_alpha 90.000000
_cell_angle_beta 90.000000
_cell_angle_gamma 90.000000
_cell_volume 6726.490703
_symmetry_space_group_name_H-M "C C C M"
_symmetry_group_IT_number 66
_symmetry_cell_setting 'orthorhombic'
loop_
_space_group_symop_operation_xyz
x,y,z
-x,-y,z
x,-y,1/2-z
-x,y,1/2-z
-x,-y,-z
x,y,-z
-x,y,1/2+z
x,-y,1/2+z
1/2+x,1/2+y,z
1/2-x,1/2-y,z
1/2+x,1/2-y,1/2-z
1/2-x,1/2+y,1/2-z
1/2-x,1/2-y,-z
1/2+x,1/2+y,-z
1/2-x,1/2+y,1/2+z
1/2+x,1/2-y,1/2+z
loop_
_atom_site_type_symbol
_atom_site_label
_atom_site_fract_x
_atom_site_fract_y
_atom_site_fract_z
Si Si1 0.295353 0.412770 0.189466
Si Si2 0.518597 0.875878 0.441396
Si Si3 0.750000 0.750000 0.149862
Si Si4 0.307565 0.341665 0.376250
Si Si5 0.694041 0.341306 0.612012
Si Si6 0.699237 0.419425 0.806218
Si Si7 0.486541 0.953862 0.871342
Si Si8 0.413833 0.724716 0.202897
O O1 0.285681 0.367472 0.163728
O O2 0.494725 0.428203 0.186356
O O3 0.257582 0.413102 0.248262
O O4 0.158329 0.439930 0.158937
O O5 0.543876 0.878404 0.500000
O O6 0.653612 0.844364 0.415500
O O7 0.327843 0.860144 0.426802
O O8 0.542452 0.920005 0.414381
O O9 0.731926 0.706868 0.120603
O O10 0.571448 0.751730 0.181246
O O11 0.493793 0.348417 0.402165
O O12 0.270183 0.377240 0.336090
O O13 0.339584 0.301993 0.342312
O O14 0.826780 0.451412 0.832468
O O15 0.500000 0.000000 0.890751
O O16 0.500000 0.701018 0.250000
O O17 0.250000 0.750000 0.221534
#
# Coordination Sequence:
#
# PCOD9496847 Si02
#       8
#    16  16   8  16  16  16  16  16
#     4   9  18  31  51  76 107 148 183 207 257 319
#     4  10  21  40  61  79  99 136 184 232 285 331
#     4  10  20  34  53  78 118 148 183 224 270 312
#     4   9  20  34  53  77 109 141 182 225 263 319
#     4   9  19  35  55  79 109 142 182 230 268 319
#     4   9  18  31  51  74 105 148 180 209 253 321
#     4  10  21  36  52  79 109 132 171 227 276 328
#     4  11  21  31  48  80 118 151 183 217 262 315
#
# _framework density 17.839911000000001
#
# number of rings (size 3 to 8) (size 9 to 14) (size 15 to 20)
#    0.000    2.400    0.667    1.200    5.600    2.400 
#    0.000    1.667    0.000    7.600    0.000    7.467 
#    0.000    0.000    0.000    0.000    0.000    0.000 
#
# Total GULP energy -334297.510807 kJ/mol
# GULP energy per Si atom -5571.625180 kJ/mol
# Density = 1.779931 g / cm^3
# Si number density = 17.839911 Si / 1000 Ang^3
#
#
#
# Elastic Constant Matrix: (Units=GPa)
#
#
# Indices 1 2 3 4 5 6 
#
# 1 71.1992 20.4562 46.3766 0.0000 0.0000 0.0000
# 2 20.4562 63.5545 13.7109 0.0000 0.0000 0.0000
# 3 46.3766 13.7109 105.1518 0.0000 0.0000 0.0000
# 4 0.0000 0.0000 0.0000 9.0259 0.0000 0.0000
# 5 0.0000 0.0000 0.0000 0.0000 16.4207 0.0000
# 6 0.0000 0.0000 0.0000 0.0000 0.0000 16.8080
#
#
#
# Elastic Compliance Matrix: (Units=1/GPa)
#
#
# Indices 1 2 3 4 5 6 
#
# 1 0.021104 -0.004923 -0.008666 0.000000 0.000000 0.000000
# 2 -0.004923 0.017338 -0.000089 0.000000 0.000000 0.000000
# 3 -0.008666 -0.000089 0.013344 0.000000 0.000000 0.000000
# 4 0.000000 0.000000 0.000000 0.110793 0.000000 0.000000
# 5 0.000000 0.000000 0.000000 0.000000 0.060899 0.000000
# 6 0.000000 0.000000 0.000000 0.000000 0.000000 0.059496
#
#
# Mechanical properties :
#
#
# Convention : Reuss Voigt Hill
#
# Bulk Modulus (GPa) = 40.93454 44.55477 42.74466
# Shear Modulus (GPa) = 15.69985 19.07502 17.38744
#
# Velocity S-wave (km/s) = 2.96977 3.27346 3.12530
# Velocity P-wave (km/s) = 5.89531 6.27028 6.08568
#
# Compressibility (1/GPa) = 0.02442925
#
# Stress axis : x y z
#
# Youngs Moduli (GPa) = 47.38368 57.67523 74.94122
#
# Poissons Ratio (x) = 0.28395 0.64944
# Poissons Ratio (y) = 0.23328 0.00670
# Poissons Ratio (z) = 0.41063 0.00516
#
# Static dielectric constant tensor:
#      x y z
#    x 1.640250 0.000000 0.000000 
#    y 0.000000 1.620900 0.000000 
#    z 0.000000 0.000000 1.597260 
# 
# From -- ./inp_files/62976.got.cif
#   From: 2010.05.17/outbox.cif.g08.bks.cpg/sg66_32_cif.got.tgz:62976.got - 2010.06.03 17:51:23.
