data_PCOD9496676
_publ_section_title
;
Structure prediction by ZEFSAII (Michael W. Deem and Ramdas Pophale) SiO2 
 PCOD9496676
Probable space group: C C C M
;
_chemical_formula_sum "Si O2"
_cell_formula_units_Z 88
_cell_length_a 16.520269
_cell_length_b 27.784581
_cell_length_c 9.444937
_cell_angle_alpha 90.000000
_cell_angle_beta 90.000000
_cell_angle_gamma 90.000000
_cell_volume 4335.308747
_symmetry_space_group_name_H-M "C C C M"
_symmetry_group_IT_number 66
_symmetry_cell_setting 'orthorhombic'
loop_
_space_group_symop_operation_xyz
x,y,z
-x,-y,z
x,-y,1/2-z
-x,y,1/2-z
-x,-y,-z
x,y,-z
-x,y,1/2+z
x,-y,1/2+z
1/2+x,1/2+y,z
1/2-x,1/2-y,z
1/2+x,1/2-y,1/2-z
1/2-x,1/2+y,1/2-z
1/2-x,1/2-y,-z
1/2+x,1/2+y,-z
1/2-x,1/2+y,1/2+z
1/2+x,1/2-y,1/2+z
loop_
_atom_site_type_symbol
_atom_site_label
_atom_site_fract_x
_atom_site_fract_y
_atom_site_fract_z
Si Si1 0.582671 0.767580 0.837097
Si Si2 0.000000 0.125593 0.750000
Si Si3 0.241062 0.595840 0.832268
Si Si4 0.150822 0.188742 0.341912
Si Si5 0.416014 0.118518 0.166661
Si Si6 0.617596 0.454985 0.660833
O O1 0.500000 0.761032 0.750000
O O2 0.647411 0.731771 0.769178
O O3 0.602080 0.824034 0.829046
O O4 0.569185 0.754596 0.000000
O O5 0.933500 0.158718 0.826750
O O6 0.945943 0.088994 0.658335
O O7 0.278514 0.649825 0.821351
O O8 0.155942 0.593559 0.752541
O O9 0.304731 0.563096 0.748399
O O10 0.236218 0.584628 0.000000
O O11 0.156040 0.208818 0.500000
O O12 0.500000 0.110879 0.250000
O O13 0.420906 0.105115 0.000000
O O14 0.586162 0.500000 0.750000
O O15 0.636854 0.468686 0.500000
#
# Coordination Sequence:
#
# PCOD9496676 Si02
#       6
#    16   8  16  16  16  16
#     4  10  20  32  50  76 109 149 193 238 282 331
#     4  10  21  34  56  84 116 158 202 238 277 328
#     4  10  22  39  58  83 112 145 187 236 290 345
#     4  10  20  33  51  77 112 152 194 237 281 329
#     4  10  21  38  59  83 110 145 188 235 289 346
#     4  11  23  39  60  86 118 154 193 238 288 343
#
# _framework density 20.298439999999999
#
# number of rings (size 3 to 8) (size 9 to 14) (size 15 to 20)
#    0.000    1.818    0.909    3.000    0.000    9.455 
#    0.000    3.636    0.000    0.545    0.000    3.818 
#    0.000    0.000    0.000    0.000    0.000    0.000 
#
# Total GULP energy -245749.456961 kJ/mol
# GULP energy per Si atom -5585.214931 kJ/mol
# Density = 2.025224 g / cm^3
# Si number density = 20.298440 Si / 1000 Ang^3
#
#
#
# Elastic Constant Matrix: (Units=GPa)
#
#
# Indices 1 2 3 4 5 6 
#
# 1 121.6408 17.1269 64.6712 0.0000 0.0000 0.0000
# 2 17.1269 21.7230 24.6065 0.0000 0.0000 0.0000
# 3 64.6712 24.6065 183.9525 0.0000 0.0000 0.0000
# 4 0.0000 0.0000 0.0000 21.2837 0.0000 0.0000
# 5 0.0000 0.0000 0.0000 0.0000 16.2099 0.0000
# 6 0.0000 0.0000 0.0000 0.0000 0.0000 9.2653
#
#
#
# Elastic Compliance Matrix: (Units=1/GPa)
#
#
# Indices 1 2 3 4 5 6 
#
# 1 0.010526 -0.004840 -0.003053 0.000000 0.000000 0.000000
# 2 -0.004840 0.056481 -0.005853 0.000000 0.000000 0.000000
# 3 -0.003053 -0.005853 0.007292 0.000000 0.000000 0.000000
# 4 0.000000 0.000000 0.000000 0.046984 0.000000 0.000000
# 5 0.000000 0.000000 0.000000 0.000000 0.061691 0.000000
# 6 0.000000 0.000000 0.000000 0.000000 0.000000 0.107929
#
#
# Mechanical properties :
#
#
# Convention : Reuss Voigt Hill
#
# Bulk Modulus (GPa) = 21.36512 60.01394 40.68953
# Shear Modulus (GPa) = 14.97012 24.07923 19.52468
#
# Velocity S-wave (km/s) = 2.71864 3.44795 3.10478
# Velocity P-wave (km/s) = 4.51697 6.74397 5.73952
#
# Compressibility (1/GPa) = 0.04680526
#
# Stress axis : x y z
#
# Youngs Moduli (GPa) = 95.00672 17.70511 137.12753
#
# Poissons Ratio (x) = 0.08570 0.41864
# Poissons Ratio (y) = 0.45987 0.80267
# Poissons Ratio (z) = 0.29005 0.10364
#
# Static dielectric constant tensor:
#      x y z
#    x 1.722850 0.000000 0.000000 
#    y 0.000000 1.744550 0.000000 
#    z 0.000000 0.000000 1.692640 
# 
# From -- ./inp_files/7035.got.cif
#   From: 2010.05.17/outbox.cif.g08.bks.cpg/sg66_4_cif.got.tgz:7035.got - 2010.06.03 17:51:23.
