data_PCOD9496762
_publ_section_title
;
Structure prediction by ZEFSAII (Michael W. Deem and Ramdas Pophale) SiO2 
 PCOD9496762
Probable space group: C C C M
;
_chemical_formula_sum "Si O2"
_cell_formula_units_Z 80
_cell_length_a 20.992189
_cell_length_b 12.487489
_cell_length_c 14.163320
_cell_angle_alpha 90.000000
_cell_angle_beta 90.000000
_cell_angle_gamma 90.000000
_cell_volume 3712.768870
_symmetry_space_group_name_H-M "C C C M"
_symmetry_group_IT_number 66
_symmetry_cell_setting 'orthorhombic'
loop_
_space_group_symop_operation_xyz
x,y,z
-x,-y,z
x,-y,1/2-z
-x,y,1/2-z
-x,-y,-z
x,y,-z
-x,y,1/2+z
x,-y,1/2+z
1/2+x,1/2+y,z
1/2-x,1/2-y,z
1/2+x,1/2-y,1/2-z
1/2-x,1/2+y,1/2-z
1/2-x,1/2-y,-z
1/2+x,1/2+y,-z
1/2-x,1/2+y,1/2+z
1/2+x,1/2-y,1/2+z
loop_
_atom_site_type_symbol
_atom_site_label
_atom_site_fract_x
_atom_site_fract_y
_atom_site_fract_z
Si Si1 0.435611 0.432687 0.394111
Si Si2 0.431300 0.774723 0.229188
Si Si3 0.129888 0.141007 0.107030
Si Si4 0.701834 0.851092 0.684439
Si Si5 0.273579 0.921543 0.395492
O O1 0.500000 0.500000 0.397642
O O2 0.416873 0.399930 0.500000
O O3 0.446204 0.331777 0.329917
O O4 0.385931 0.520703 0.358459
O O5 0.500000 0.829238 0.250000
O O6 0.400724 0.728753 0.325913
O O7 0.373743 0.829280 0.170181
O O8 0.205649 0.138136 0.102620
O O9 0.104636 0.150685 0.000000
O O10 0.750000 0.750000 0.672648
O O11 0.700120 0.882983 0.795258
O O12 0.727457 0.949653 0.621466
O O13 0.303144 0.901369 0.500000
#
# Coordination Sequence:
#
# PCOD9496762 Si02
#       5
#    16  16  16  16  16
#     4  10  20  33  52  84 123 159 193 236 305 382
#     4  12  23  35  59  90 127 164 196 252 312 368
#     4  10  20  35  58  87 117 154 200 249 307 371
#     4  11  23  40  64  95 127 160 216 261 306 382
#     4  10  23  43  65  88 122 165 212 266 314 361
#
# _framework density 21.547260000000001
#
# number of rings (size 3 to 8) (size 9 to 14) (size 15 to 20)
#    0.000    1.400    4.000    1.800    2.800    2.400 
#    0.000    2.000    0.000    1.200    0.000    0.000 
#    0.000    0.000    0.000    0.000    0.000    0.000 
#
# Total GULP energy -223014.404838 kJ/mol
# GULP energy per Si atom -5575.360121 kJ/mol
# Density = 2.149822 g / cm^3
# Si number density = 21.547260 Si / 1000 Ang^3
#
#
#
# Elastic Constant Matrix: (Units=GPa)
#
#
# Indices 1 2 3 4 5 6 
#
# 1 95.5224 15.9919 -3.7888 0.0000 0.0000 0.0000
# 2 15.9919 33.6824 -2.6565 0.0000 0.0000 0.0000
# 3 -3.7888 -2.6565 86.9511 0.0000 0.0000 0.0000
# 4 0.0000 0.0000 0.0000 -59.4827 0.0000 0.0000
# 5 0.0000 0.0000 0.0000 0.0000 -2.8006 0.0000
# 6 0.0000 0.0000 0.0000 0.0000 0.0000 30.4691
#
#
#
# Elastic Compliance Matrix: (Units=1/GPa)
#
#
# Indices 1 2 3 4 5 6 
#
# 1 0.011382 -0.005378 0.000332 0.000000 0.000000 0.000000
# 2 -0.005378 0.032302 0.000753 0.000000 0.000000 0.000000
# 3 0.000332 0.000753 0.011538 0.000000 0.000000 0.000000
# 4 0.000000 0.000000 0.000000 -0.016812 0.000000 0.000000
# 5 0.000000 0.000000 0.000000 0.000000 -0.357064 0.000000
# 6 0.000000 0.000000 0.000000 0.000000 0.000000 0.032820
#
#
# Mechanical properties :
#
#
# Convention : Reuss Voigt Hill
#
# Bulk Modulus (GPa) = 21.44326 26.13879 23.79102
# Shear Modulus (GPa) = -19.10582 7.41110 -5.84736
#
# Velocity S-wave (km/s) = -2.98097 1.85659 -1.64913
# Velocity P-wave (km/s) = 1.36928 4.09306 2.72747
#
# Compressibility (1/GPa) = 0.04663471
#
# Stress axis : x y z
#
# Youngs Moduli (GPa) = 87.85601 30.95798 86.66890
#
# Poissons Ratio (x) = 0.16649 -0.02874
# Poissons Ratio (y) = 0.47249 -0.06522
# Poissons Ratio (z) = -0.02914 -0.02330
#
# Static dielectric constant tensor:
#      x y z
#    x 1.894050 0.000000 0.000000 
#    y 0.000000 1.824180 0.000000 
#    z 0.000000 0.000000 1.822200 
# 
# From -- ./inp_files/28103.got.cif
#   From: 2010.05.17/outbox.cif.g08.bks.cpg/sg66_15_cif.got.tgz:28103.got - 2010.06.03 17:51:23.
