data_PCOD9496207
_publ_section_title
;
Structure prediction by ZEFSAII (Michael W. Deem and Ramdas Pophale) SiO2 
 PCOD9496207
Probable space group: C C C M
;
_chemical_formula_sum "Si O2"
_cell_formula_units_Z 116
_cell_length_a 28.528865
_cell_length_b 23.872015
_cell_length_c 8.002320
_cell_angle_alpha 90.000000
_cell_angle_beta 90.000000
_cell_angle_gamma 90.000000
_cell_volume 5449.911962
_symmetry_space_group_name_H-M "C C C M"
_symmetry_group_IT_number 66
_symmetry_cell_setting 'orthorhombic'
loop_
_space_group_symop_operation_xyz
x,y,z
-x,-y,z
x,-y,1/2-z
-x,y,1/2-z
-x,-y,-z
x,y,-z
-x,y,1/2+z
x,-y,1/2+z
1/2+x,1/2+y,z
1/2-x,1/2-y,z
1/2+x,1/2-y,1/2-z
1/2-x,1/2+y,1/2-z
1/2-x,1/2-y,-z
1/2+x,1/2+y,-z
1/2-x,1/2+y,1/2+z
1/2+x,1/2-y,1/2+z
loop_
_atom_site_type_symbol
_atom_site_label
_atom_site_fract_x
_atom_site_fract_y
_atom_site_fract_z
Si Si1 0.500000 0.500000 0.750000
Si Si2 0.449389 0.720746 0.196609
Si Si3 0.351364 0.751818 0.691645
Si Si4 0.930433 0.910053 0.303085
Si Si5 0.447483 0.935048 0.197142
Si Si6 0.238219 0.436595 0.200943
Si Si7 0.646896 0.125598 0.298465
Si Si8 0.669722 0.628171 0.203545
O O1 0.538994 0.546636 0.804838
O O2 0.500000 0.741645 0.250000
O O3 0.407635 0.747364 0.300847
O O4 0.446959 0.653719 0.225811
O O5 0.441174 0.730334 0.000000
O O6 0.334455 0.752329 0.500000
O O7 0.341106 0.812233 0.768246
O O8 0.334573 0.692556 0.765308
O O9 0.938232 0.924008 0.500000
O O10 0.875151 0.907229 0.264974
O O11 0.500000 0.917738 0.250000
O O12 0.404779 0.896974 0.259612
O O13 0.440658 0.000000 0.250000
O O14 0.446089 0.933511 0.000000
O O15 0.246769 0.500000 0.250000
O O16 0.187584 0.415907 0.262296
O O17 0.281484 0.398481 0.257936
O O18 0.237611 0.432863 0.000000
O O19 0.649439 0.128972 0.500000
O O20 0.667100 0.629028 0.000000
#
# Coordination Sequence:
#
# PCOD9496207 Si02
#       8
#     4  16  16  16  16  16  16  16
#     4  12  22  36  52  82 114 148 196 242 294 336
#     4  10  19  34  53  75 106 145 187 232 283 340
#     4   9  19  36  58  82 110 147 189 238 289 340
#     4  10  22  36  53  78 109 147 189 237 289 341
#     4  11  22  38  61  89 123 160 197 237 287 343
#     4  10  22  39  60  87 117 152 191 235 287 343
#     4  10  21  38  60  88 120 152 193 239 287 343
#     4   9  20  39  60  83 113 149 191 240 291 344
#
# _framework density 21.284746999999999
#
# number of rings (size 3 to 8) (size 9 to 14) (size 15 to 20)
#    0.000    2.069    0.690    2.690    0.966    5.517 
#    0.000    2.759    0.000    0.000    0.000    5.793 
#    0.000    0.000    0.000    0.000    0.000    0.000 
#
# Total GULP energy -323509.684434 kJ/mol
# GULP energy per Si atom -5577.753180 kJ/mol
# Density = 2.123630 g / cm^3
# Si number density = 21.284747 Si / 1000 Ang^3
#
#
#
# Elastic Constant Matrix: (Units=GPa)
#
#
# Indices 1 2 3 4 5 6 
#
# 1 133.5532 59.1989 6.4624 0.0000 0.0000 0.0000
# 2 59.1989 99.8960 8.6443 0.0000 0.0000 0.0000
# 3 6.4624 8.6443 38.4422 0.0000 0.0000 0.0000
# 4 0.0000 0.0000 0.0000 12.1986 0.0000 0.0000
# 5 0.0000 0.0000 0.0000 0.0000 22.4478 0.0000
# 6 0.0000 0.0000 0.0000 0.0000 0.0000 12.6881
#
#
#
# Elastic Compliance Matrix: (Units=1/GPa)
#
#
# Indices 1 2 3 4 5 6 
#
# 1 0.010160 -0.005990 -0.000361 0.000000 0.000000 0.000000
# 2 -0.005990 0.013740 -0.002083 0.000000 0.000000 0.000000
# 3 -0.000361 -0.002083 0.026542 0.000000 0.000000 0.000000
# 4 0.000000 0.000000 0.000000 0.081977 0.000000 0.000000
# 5 0.000000 0.000000 0.000000 0.000000 0.044548 0.000000
# 6 0.000000 0.000000 0.000000 0.000000 0.000000 0.078814
#
#
# Mechanical properties :
#
#
# Convention : Reuss Voigt Hill
#
# Bulk Modulus (GPa) = 29.78387 46.72253 38.25320
# Shear Modulus (GPa) = 17.61556 22.63927 20.12741
#
# Velocity S-wave (km/s) = 2.87995 3.26488 3.07844
# Velocity P-wave (km/s) = 5.00822 6.01760 5.53596
#
# Compressibility (1/GPa) = 0.03357522
#
# Stress axis : x y z
#
# Youngs Moduli (GPa) = 98.42393 72.77931 37.67599
#
# Poissons Ratio (x) = 0.43593 0.01361
# Poissons Ratio (y) = 0.58953 0.07847
# Poissons Ratio (z) = 0.03554 0.15158
#
# Static dielectric constant tensor:
#      x y z
#    x 2.148470 0.000000 0.000000 
#    y 0.000000 1.758200 0.000000 
#    z 0.000000 0.000000 1.806820 
# 
# From -- ./inp_files/10584.got.cif
#   From: 2010.05.17/outbox.cif.g08.bks.cpg/sg66_6_cif.got.tgz:10584.got - 2010.06.03 17:51:23.
