data_PCOD9496295
_publ_section_title
;
Structure prediction by ZEFSAII (Michael W. Deem and Ramdas Pophale) SiO2 
 PCOD9496295
Probable space group: C C C M
;
_chemical_formula_sum "Si O2"
_cell_formula_units_Z 112
_cell_length_a 15.791356
_cell_length_b 12.041121
_cell_length_c 29.381412
_cell_angle_alpha 90.000000
_cell_angle_beta 90.000000
_cell_angle_gamma 90.000000
_cell_volume 5586.747047
_symmetry_space_group_name_H-M "C C C M"
_symmetry_group_IT_number 66
_symmetry_cell_setting 'orthorhombic'
loop_
_space_group_symop_operation_xyz
x,y,z
-x,-y,z
x,-y,1/2-z
-x,y,1/2-z
-x,-y,-z
x,y,-z
-x,y,1/2+z
x,-y,1/2+z
1/2+x,1/2+y,z
1/2-x,1/2-y,z
1/2+x,1/2-y,1/2-z
1/2-x,1/2+y,1/2-z
1/2-x,1/2-y,-z
1/2+x,1/2+y,-z
1/2-x,1/2+y,1/2+z
1/2+x,1/2-y,1/2+z
loop_
_atom_site_type_symbol
_atom_site_label
_atom_site_fract_x
_atom_site_fract_y
_atom_site_fract_z
Si Si1 0.042785 0.171791 0.949091
Si Si2 0.482105 0.825461 0.698807
Si Si3 0.287549 0.629084 0.145188
Si Si4 0.819464 0.659795 0.911972
Si Si5 0.474167 0.372749 0.355685
Si Si6 0.310178 0.505361 0.950379
Si Si7 0.128672 0.495587 0.331016
O O1 0.107124 0.270987 0.936468
O O2 0.101351 0.061483 0.947559
O O3 0.975927 0.162165 0.908681
O O4 0.008728 0.184167 0.000000
O O5 0.500000 0.790891 0.750000
O O6 0.466071 0.716210 0.669055
O O7 0.404486 0.911065 0.703060
O O8 0.557844 0.897276 0.673890
O O9 0.250000 0.750000 0.140447
O O10 0.381094 0.637157 0.165025
O O11 0.297284 0.576472 0.094889
O O12 0.220943 0.556811 0.173685
O O13 0.750000 0.750000 0.891925
O O14 0.762785 0.588282 0.946527
O O15 0.861876 0.571002 0.877149
O O16 0.500000 0.500000 0.351711
O O17 0.305324 0.560588 0.000000
#
# Coordination Sequence:
#
# PCOD9496295 Si02
#       7
#    16  16  16  16  16  16  16
#     4  10  19  34  58  90 128 173 220 262 305 370
#     4  11  24  44  74  95 122 161 215 263 324 392
#     4  11  22  38  62  89 131 172 203 257 328 377
#     4   9  17  31  58  92 126 169 212 267 313 367
#     4  12  24  42  67  95 132 171 211 265 321 380
#     4   9  18  32  54  87 126 169 221 266 309 364
#     4  10  20  39  69  92 124 161 209 255 320 382
#
# _framework density 20.047443000000001
#
# number of rings (size 3 to 8) (size 9 to 14) (size 15 to 20)
#    0.000    1.714    4.286    1.286    0.000    3.143 
#    0.000    0.000   15.714    0.857    0.000    0.000 
#    0.000    0.000    0.000    0.000    0.000    0.000 
#
# Total GULP energy -312119.524892 kJ/mol
# GULP energy per Si atom -5573.562945 kJ/mol
# Density = 2.000181 g / cm^3
# Si number density = 20.047443 Si / 1000 Ang^3
#
#
#
# Elastic Constant Matrix: (Units=GPa)
#
#
# Indices 1 2 3 4 5 6 
#
# 1 71.5486 12.4316 -0.9949 0.0000 0.0000 0.0000
# 2 12.4316 87.3539 13.9438 0.0000 0.0000 0.0000
# 3 -0.9949 13.9438 64.4168 0.0000 0.0000 0.0000
# 4 0.0000 0.0000 0.0000 0.1488 0.0000 0.0000
# 5 0.0000 0.0000 0.0000 0.0000 4.2472 0.0000
# 6 0.0000 0.0000 0.0000 0.0000 0.0000 26.9417
#
#
#
# Elastic Compliance Matrix: (Units=1/GPa)
#
#
# Indices 1 2 3 4 5 6 
#
# 1 0.014360 -0.002153 0.000688 0.000000 0.000000 0.000000
# 2 -0.002153 0.012180 -0.002670 0.000000 0.000000 0.000000
# 3 0.000688 -0.002670 0.016112 0.000000 0.000000 0.000000
# 4 0.000000 0.000000 0.000000 6.719007 0.000000 0.000000
# 5 0.000000 0.000000 0.000000 0.000000 0.235449 0.000000
# 6 0.000000 0.000000 0.000000 0.000000 0.000000 0.037117
#
#
# Mechanical properties :
#
#
# Convention : Reuss Voigt Hill
#
# Bulk Modulus (GPa) = 29.08476 30.45338 29.76907
# Shear Modulus (GPa) = 0.70882 19.46346 10.08614
#
# Velocity S-wave (km/s) = 0.59526 3.11926 2.24545
# Velocity P-wave (km/s) = 3.87452 5.31005 4.64804
#
# Compressibility (1/GPa) = 0.03438226
#
# Stress axis : x y z
#
# Youngs Moduli (GPa) = 69.63674 82.09964 62.06381
#
# Poissons Ratio (x) = 0.17680 -0.04270
# Poissons Ratio (y) = 0.14996 0.16570
# Poissons Ratio (z) = -0.04791 0.21919
#
# Static dielectric constant tensor:
#      x y z
#    x 1.746490 0.000000 0.000000 
#    y 0.000000 1.724340 0.000000 
#    z 0.000000 0.000000 1.689820 
# 
# From -- ./inp_files/69527.got.cif
#   From: 2010.05.17/outbox.cif.g08.bks.cpg/sg66_35_cif.got.tgz:69527.got - 2010.06.03 17:51:23.
