data_PCOD9496848
_publ_section_title
;
Structure prediction by ZEFSAII (Michael W. Deem and Ramdas Pophale) SiO2 
 PCOD9496848
Probable space group: C C C M
;
_chemical_formula_sum "Si O2"
_cell_formula_units_Z 80
_cell_length_a 25.967417
_cell_length_b 17.316643
_cell_length_c 9.152405
_cell_angle_alpha 90.000000
_cell_angle_beta 90.000000
_cell_angle_gamma 90.000000
_cell_volume 4115.548135
_symmetry_space_group_name_H-M "C C C M"
_symmetry_group_IT_number 66
_symmetry_cell_setting 'orthorhombic'
loop_
_space_group_symop_operation_xyz
x,y,z
-x,-y,z
x,-y,1/2-z
-x,y,1/2-z
-x,-y,-z
x,y,-z
-x,y,1/2+z
x,-y,1/2+z
1/2+x,1/2+y,z
1/2-x,1/2-y,z
1/2+x,1/2-y,1/2-z
1/2-x,1/2+y,1/2-z
1/2-x,1/2-y,-z
1/2+x,1/2+y,-z
1/2-x,1/2+y,1/2+z
1/2+x,1/2-y,1/2+z
loop_
_atom_site_type_symbol
_atom_site_label
_atom_site_fract_x
_atom_site_fract_y
_atom_site_fract_z
Si Si1 0.154357 0.129811 0.170610
Si Si2 0.335716 0.205239 0.323167
Si Si3 0.447956 0.613240 0.831404
Si Si4 0.550553 0.801805 0.666634
Si Si5 0.731072 0.077690 0.329288
O O1 0.166690 0.209658 0.254485
O O2 0.104376 0.093065 0.246773
O O3 0.206894 0.082006 0.177543
O O4 0.142442 0.145425 0.000000
O O5 0.332485 0.209341 0.500000
O O6 0.392820 0.174193 0.281162
O O7 0.292962 0.150365 0.254800
O O8 0.500000 0.588490 0.750000
O O9 0.448771 0.707639 0.830372
O O10 0.446911 0.588105 0.000000
O O11 0.500000 0.828083 0.750000
O O12 0.545668 0.825981 0.500000
O O13 0.716518 0.079594 0.500000
O O14 0.713384 0.000000 0.250000
#
# Coordination Sequence:
#
# PCOD9496848 Si02
#       5
#    16  16  16  16  16
#     4  10  20  34  53  79 108 137 174 217 260 310
#     4  10  20  34  54  80 108 138 174 215 260 310
#     4   9  16  27  46  74 106 138 170 208 257 307
#     4   8  15  26  43  71 103 133 164 201 247 297
#     4  11  24  39  55  75 102 138 177 219 267 316
#
# _framework density 19.438479999999998
#
# number of rings (size 3 to 8) (size 9 to 14) (size 15 to 20)
#    0.000    2.400    0.000    4.200    0.000   11.200 
#    0.000    0.000    0.000    1.200    0.000    8.400 
#    0.000    0.000    0.000    0.000    0.000    0.000 
#
# Total GULP energy -223238.731666 kJ/mol
# GULP energy per Si atom -5580.968292 kJ/mol
# Density = 1.939424 g / cm^3
# Si number density = 19.438480 Si / 1000 Ang^3
#
#
#
# Elastic Constant Matrix: (Units=GPa)
#
#
# Indices 1 2 3 4 5 6 
#
# 1 97.8326 12.3284 56.3522 0.0000 0.0000 0.0000
# 2 12.3284 53.0843 35.4207 0.0000 0.0000 0.0000
# 3 56.3522 35.4207 132.6609 0.0000 0.0000 0.0000
# 4 0.0000 0.0000 0.0000 -7.1239 0.0000 0.0000
# 5 0.0000 0.0000 0.0000 0.0000 39.1603 0.0000
# 6 0.0000 0.0000 0.0000 0.0000 0.0000 -13.6121
#
#
#
# Elastic Compliance Matrix: (Units=1/GPa)
#
#
# Indices 1 2 3 4 5 6 
#
# 1 0.013564 0.000845 -0.005987 0.000000 0.000000 0.000000
# 2 0.000845 0.022974 -0.006493 0.000000 0.000000 0.000000
# 3 -0.005987 -0.006493 0.011815 0.000000 0.000000 0.000000
# 4 0.000000 0.000000 0.000000 -0.140373 0.000000 0.000000
# 5 0.000000 0.000000 0.000000 0.000000 0.025536 0.000000
# 6 0.000000 0.000000 0.000000 0.000000 0.000000 -0.073464
#
#
# Mechanical properties :
#
#
# Convention : Reuss Voigt Hill
#
# Bulk Modulus (GPa) = 39.86896 54.64226 47.25561
# Shear Modulus (GPa) = -46.16096 15.64997 -15.25549
#
# Velocity S-wave (km/s) = -4.87840 2.84051 -2.80448
# Velocity P-wave (km/s) = 3.34318 6.23934 3.72509
#
# Compressibility (1/GPa) = 0.02508217
#
# Stress axis : x y z
#
# Youngs Moduli (GPa) = 73.72581 43.52701 84.63835
#
# Poissons Ratio (x) = -0.03678 0.50675
# Poissons Ratio (y) = -0.06229 0.54956
# Poissons Ratio (z) = 0.44142 0.28262
#
# Static dielectric constant tensor:
#      x y z
#    x 1.701190 0.000000 0.000000 
#    y 0.000000 1.655380 0.000000 
#    z 0.000000 0.000000 1.661170 
# 
# From -- ./inp_files/6665.got.cif
#   From: 2010.05.17/outbox.cif.g08.bks.cpg/sg66_4_cif.got.tgz:6665.got - 2010.06.03 17:51:23.
