data_PCOD9496740
_publ_section_title
;
Structure prediction by ZEFSAII (Michael W. Deem and Ramdas Pophale) SiO2 
 PCOD9496740
Probable space group: C C C M
;
_chemical_formula_sum "Si O2"
_cell_formula_units_Z 80
_cell_length_a 5.010132
_cell_length_b 21.259484
_cell_length_c 35.678003
_cell_angle_alpha 90.000000
_cell_angle_beta 90.000000
_cell_angle_gamma 90.000000
_cell_volume 3800.164750
_symmetry_space_group_name_H-M "C C C M"
_symmetry_group_IT_number 66
_symmetry_cell_setting 'orthorhombic'
loop_
_space_group_symop_operation_xyz
x,y,z
-x,-y,z
x,-y,1/2-z
-x,y,1/2-z
-x,-y,-z
x,y,-z
-x,y,1/2+z
x,-y,1/2+z
1/2+x,1/2+y,z
1/2-x,1/2-y,z
1/2+x,1/2-y,1/2-z
1/2-x,1/2+y,1/2-z
1/2-x,1/2-y,-z
1/2+x,1/2+y,-z
1/2-x,1/2+y,1/2+z
1/2+x,1/2-y,1/2+z
loop_
_atom_site_type_symbol
_atom_site_label
_atom_site_fract_x
_atom_site_fract_y
_atom_site_fract_z
Si Si1 0.746678 0.825852 0.725629
Si Si2 0.859079 0.896225 0.958274
Si Si3 0.196492 0.943798 0.379895
Si Si4 0.800167 0.370021 0.140749
Si Si5 0.630893 0.817311 0.437338
O O1 0.500000 0.847826 0.750000
O O2 0.750000 0.750000 0.724432
O O3 0.710195 0.848056 0.683258
O O4 0.000000 0.846625 0.750000
O O5 0.780743 0.943830 0.925007
O O6 0.652840 0.837830 0.953861
O O7 0.155045 0.869726 0.950528
O O8 0.839168 0.922163 0.000000
O O9 0.488777 0.928085 0.363858
O O10 0.005219 0.885425 0.369692
O O11 0.000000 0.000000 0.367521
O O12 0.892848 0.322472 0.107995
O O13 0.750000 0.750000 0.448012
#
# Coordination Sequence:
#
# PCOD9496740 Si02
#       5
#    16  16  16  16  16
#     4  10  20  34  56  86 116 144 171 206 260 321
#     4  10  21  34  50  76 105 136 179 226 271 320
#     4  10  21  37  57  77 100 139 185 228 274 314
#     4  10  20  36  56  79 108 138 178 223 261 318
#     4  10  20  33  51  75 106 144 177 211 263 325
#
# _framework density 21.05172
#
# number of rings (size 3 to 8) (size 9 to 14) (size 15 to 20)
#    0.000    2.000    0.000    3.600    0.000    2.800 
#    0.000    6.000    0.000   16.200    0.000    0.000 
#    0.000    0.000    0.000    0.000    0.000    0.000 
#
# Total GULP energy -223111.647801 kJ/mol
# GULP energy per Si atom -5577.791195 kJ/mol
# Density = 2.100381 g / cm^3
# Si number density = 21.051720 Si / 1000 Ang^3
#
#
#
# Elastic Constant Matrix: (Units=GPa)
#
#
# Indices 1 2 3 4 5 6 
#
# 1 142.3771 4.1823 41.7368 0.0000 0.0000 0.0000
# 2 4.1823 15.3135 -14.3000 0.0000 0.0000 0.0000
# 3 41.7368 -14.3000 161.9118 0.0000 0.0000 0.0000
# 4 0.0000 0.0000 0.0000 -2.4538 0.0000 0.0000
# 5 0.0000 0.0000 0.0000 0.0000 25.6362 0.0000
# 6 0.0000 0.0000 0.0000 0.0000 0.0000 55.4274
#
#
#
# Elastic Compliance Matrix: (Units=1/GPa)
#
#
# Indices 1 2 3 4 5 6 
#
# 1 0.007861 -0.004402 -0.002415 0.000000 0.000000 0.000000
# 2 -0.004402 0.073637 0.007638 0.000000 0.000000 0.000000
# 3 -0.002415 0.007638 0.007473 0.000000 0.000000 0.000000
# 4 0.000000 0.000000 0.000000 -0.407538 0.000000 0.000000
# 5 0.000000 0.000000 0.000000 0.000000 0.039007 0.000000
# 6 0.000000 0.000000 0.000000 0.000000 0.000000 0.018042
#
#
# Mechanical properties :
#
#
# Convention : Reuss Voigt Hill
#
# Bulk Modulus (GPa) = 11.03589 42.53786 26.78688
# Shear Modulus (GPa) = -21.46338 34.92086 6.72874
#
# Velocity S-wave (km/s) = -3.19651 4.07727 1.78976
# Velocity P-wave (km/s) = 2.89308 6.51274 4.12588
#
# Compressibility (1/GPa) = 0.09061341
#
# Stress axis : x y z
#
# Youngs Moduli (GPa) = 127.21199 13.58011 133.80828
#
# Poissons Ratio (x) = 0.05978 0.32317
# Poissons Ratio (y) = 0.56001 -1.02208
# Poissons Ratio (z) = 0.30723 -0.10373
#
# Static dielectric constant tensor:
#      x y z
#    x 1.728420 0.000000 0.000000 
#    y 0.000000 1.828480 0.000000 
#    z 0.000000 0.000000 1.663480 
# 
# From -- ./inp_files/67188.got.cif
#   From: 2010.05.17/outbox.cif.g08.bks.cpg/sg66_34_cif.got.tgz:67188.got - 2010.06.03 17:51:23.
