data_PCOD9496459
_publ_section_title
;
Structure prediction by ZEFSAII (Michael W. Deem and Ramdas Pophale) SiO2 
 PCOD9496459
Probable space group: C C C M
;
_chemical_formula_sum "Si O2"
_cell_formula_units_Z 52
_cell_length_a 10.074652
_cell_length_b 17.998061
_cell_length_c 12.176248
_cell_angle_alpha 90.000000
_cell_angle_beta 90.000000
_cell_angle_gamma 90.000000
_cell_volume 2207.848443
_symmetry_space_group_name_H-M "C C C M"
_symmetry_group_IT_number 66
_symmetry_cell_setting 'orthorhombic'
loop_
_space_group_symop_operation_xyz
x,y,z
-x,-y,z
x,-y,1/2-z
-x,y,1/2-z
-x,-y,-z
x,y,-z
-x,y,1/2+z
x,-y,1/2+z
1/2+x,1/2+y,z
1/2-x,1/2-y,z
1/2+x,1/2-y,1/2-z
1/2-x,1/2+y,1/2-z
1/2-x,1/2-y,-z
1/2+x,1/2+y,-z
1/2-x,1/2+y,1/2+z
1/2+x,1/2-y,1/2+z
loop_
_atom_site_type_symbol
_atom_site_label
_atom_site_fract_x
_atom_site_fract_y
_atom_site_fract_z
Si Si1 0.000000 0.000000 0.250000
Si Si2 0.329585 0.366081 0.326750
Si Si3 0.084764 0.781799 0.615986
Si Si4 0.524188 0.117439 0.125973
O O1 0.098562 0.946059 0.183027
O O2 0.436947 0.315531 0.386371
O O3 0.335068 0.325776 0.208076
O O4 0.182929 0.369610 0.372615
O O5 0.147644 0.798629 0.500000
O O6 0.056164 0.695060 0.632441
O O7 0.500000 0.082543 0.250000
O O8 0.493363 0.087456 0.000000
#
# Coordination Sequence:
#
# PCOD9496459 Si02
#       4
#     4  16  16  16
#     4   8  20  40  60  84 112 150 206 244 300 334
#     4  10  19  36  58  82 118 155 197 245 285 356
#     4   9  18  32  54  84 117 151 191 240 296 347
#     4  11  22  37  58  90 125 158 192 241 301 357
#
# _framework density 23.552343
#
# number of rings (size 3 to 8) (size 9 to 14) (size 15 to 20)
#    0.000    2.462    3.077    1.846    0.000    3.692 
#    0.000   23.077    0.000    1.846    0.000    0.000 
#    0.000    0.000    0.000    0.000    0.000    0.000 
#
# Total GULP energy -144813.710350 kJ/mol
# GULP energy per Si atom -5569.758090 kJ/mol
# Density = 2.349874 g / cm^3
# Si number density = 23.552343 Si / 1000 Ang^3
#
#
#
# Elastic Constant Matrix: (Units=GPa)
#
#
# Indices 1 2 3 4 5 6 
#
# 1 139.2408 16.3902 18.7085 0.0000 0.0000 0.0000
# 2 16.3902 110.3354 27.2993 0.0000 0.0000 0.0000
# 3 18.7085 27.2993 222.0249 0.0000 0.0000 0.0000
# 4 0.0000 0.0000 0.0000 -24.7750 0.0000 0.0000
# 5 0.0000 0.0000 0.0000 0.0000 162.1191 0.0000
# 6 0.0000 0.0000 0.0000 0.0000 0.0000 -20.5050
#
#
#
# Elastic Compliance Matrix: (Units=1/GPa)
#
#
# Indices 1 2 3 4 5 6 
#
# 1 0.007363 -0.000970 -0.000501 0.000000 0.000000 0.000000
# 2 -0.000970 0.009475 -0.001083 0.000000 0.000000 0.000000
# 3 -0.000501 -0.001083 0.004679 0.000000 0.000000 0.000000
# 4 0.000000 0.000000 0.000000 -0.040363 0.000000 0.000000
# 5 0.000000 0.000000 0.000000 0.000000 0.006168 0.000000
# 6 0.000000 0.000000 0.000000 0.000000 0.000000 -0.048769
#
#
# Mechanical properties :
#
#
# Convention : Reuss Voigt Hill
#
# Bulk Modulus (GPa) = 60.94060 66.26635 63.60348
# Shear Modulus (GPa) = -98.29563 50.64803 -23.82380
#
# Velocity S-wave (km/s) = -6.46727 4.64232 -3.18390
# Velocity P-wave (km/s) = 5.46230 7.54531 3.68069
#
# Compressibility (1/GPa) = 0.01640942
#
# Stress axis : x y z
#
# Youngs Moduli (GPa) = 135.80862 105.53670 213.70101
#
# Poissons Ratio (x) = 0.10235 0.10711
# Poissons Ratio (y) = 0.13171 0.23151
# Poissons Ratio (z) = 0.06807 0.11433
#
# Static dielectric constant tensor:
#      x y z
#    x 1.870180 0.000000 0.000000 
#    y 0.000000 1.864020 0.000000 
#    z 0.000000 0.000000 1.906040 
# 
# From -- ./inp_files/23964.got.cif
#   From: 2010.05.17/outbox.cif.g08.bks.cpg/sg66_12_cif.got.tgz:23964.got - 2010.06.03 17:51:23.
