data_PCOD9496211
_publ_section_title
;
Structure prediction by ZEFSAII (Michael W. Deem and Ramdas Pophale) SiO2 
 PCOD9496211
Probable space group: C C C M
;
_chemical_formula_sum "Si O2"
_cell_formula_units_Z 116
_cell_length_a 27.185124
_cell_length_b 22.340660
_cell_length_c 9.316513
_cell_angle_alpha 90.000000
_cell_angle_beta 90.000000
_cell_angle_gamma 90.000000
_cell_volume 5658.231495
_symmetry_space_group_name_H-M "C C C M"
_symmetry_group_IT_number 66
_symmetry_cell_setting 'orthorhombic'
loop_
_space_group_symop_operation_xyz
x,y,z
-x,-y,z
x,-y,1/2-z
-x,y,1/2-z
-x,-y,-z
x,y,-z
-x,y,1/2+z
x,-y,1/2+z
1/2+x,1/2+y,z
1/2-x,1/2-y,z
1/2+x,1/2-y,1/2-z
1/2-x,1/2+y,1/2-z
1/2-x,1/2-y,-z
1/2+x,1/2+y,-z
1/2-x,1/2+y,1/2+z
1/2+x,1/2-y,1/2+z
loop_
_atom_site_type_symbol
_atom_site_label
_atom_site_fract_x
_atom_site_fract_y
_atom_site_fract_z
Si Si1 0.842997 0.339816 0.164438
Si Si2 0.785270 0.441004 0.330331
Si Si3 0.750000 0.250000 0.500000
Si Si4 0.069203 0.181314 0.165374
Si Si5 0.546587 0.195884 0.829182
Si Si6 0.179944 0.206534 0.758069
Si Si7 0.191213 0.080207 0.655056
Si Si8 0.574608 0.440072 0.168414
O O1 0.813917 0.383197 0.270121
O O2 0.901691 0.338057 0.193027
O O3 0.826437 0.271063 0.185140
O O4 0.834140 0.358108 0.000000
O O5 0.805175 0.500000 0.250000
O O6 0.790119 0.444393 0.500000
O O7 0.728315 0.436531 0.280988
O O8 0.778591 0.212031 0.624030
O O9 0.052016 0.238705 0.256280
O O10 0.128267 0.189464 0.167644
O O11 0.058050 0.119621 0.247762
O O12 0.051892 0.181591 0.000000
O O13 0.500000 0.166889 0.750000
O O14 0.538980 0.201597 0.000000
O O15 0.190982 0.152180 0.653673
O O16 0.209396 0.057690 0.500000
O O17 0.134680 0.061038 0.673168
O O18 0.558429 0.500000 0.250000
O O19 0.560645 0.439057 0.000000
#
# Coordination Sequence:
#
# PCOD9496211 Si02
#       8
#    16  16   4  16  16  16  16  16
#     4  10  22  40  61  84 116 150 188 232 288 343
#     4  12  26  40  57  77 108 150 196 239 284 334
#     4  12  20  28  42  76 112 144 190 228 272 322
#     4  10  19  34  53  79 114 150 185 233 281 335
#     4  10  21  38  63  93 119 145 176 224 286 356
#     4  10  21  31  53  79 115 147 190 231 284 331
#     4  10  21  36  54  76 110 151 198 245 288 331
#     4  10  20  33  51  76 107 151 201 246 287 330
#
# _framework density 20.501104999999999
#
# number of rings (size 3 to 8) (size 9 to 14) (size 15 to 20)
#    0.000    1.655    0.690    4.138    3.862    6.621 
#    0.000    2.069    0.000    0.828    0.000    5.793 
#    0.000    0.000    0.000    0.000    0.000    0.000 
#
# Total GULP energy -323661.821794 kJ/mol
# GULP energy per Si atom -5580.376238 kJ/mol
# Density = 2.045444 g / cm^3
# Si number density = 20.501105 Si / 1000 Ang^3
#
#
#
# Elastic Constant Matrix: (Units=GPa)
#
#
# Indices 1 2 3 4 5 6 
#
# 1 61.3425 21.2736 48.1164 0.0000 0.0000 0.0000
# 2 21.2736 83.0277 33.7272 0.0000 0.0000 0.0000
# 3 48.1164 33.7272 163.6313 0.0000 0.0000 0.0000
# 4 0.0000 0.0000 0.0000 15.5375 0.0000 0.0000
# 5 0.0000 0.0000 0.0000 0.0000 47.3956 0.0000
# 6 0.0000 0.0000 0.0000 0.0000 0.0000 5.9242
#
#
#
# Elastic Compliance Matrix: (Units=1/GPa)
#
#
# Indices 1 2 3 4 5 6 
#
# 1 0.021979 -0.003281 -0.005787 0.000000 0.000000 0.000000
# 2 -0.003281 0.013634 -0.001846 0.000000 0.000000 0.000000
# 3 -0.005787 -0.001846 0.008193 0.000000 0.000000 0.000000
# 4 0.000000 0.000000 0.000000 0.064360 0.000000 0.000000
# 5 0.000000 0.000000 0.000000 0.000000 0.021099 0.000000
# 6 0.000000 0.000000 0.000000 0.000000 0.000000 0.168800
#
#
# Mechanical properties :
#
#
# Convention : Reuss Voigt Hill
#
# Bulk Modulus (GPa) = 45.49510 57.13731 51.31621
# Shear Modulus (GPa) = 15.28029 27.43041 21.35535
#
# Velocity S-wave (km/s) = 2.73305 3.66183 3.23099
# Velocity P-wave (km/s) = 5.67443 6.76828 6.24535
#
# Compressibility (1/GPa) = 0.02198039
#
# Stress axis : x y z
#
# Youngs Moduli (GPa) = 45.49854 73.34348 122.05094
#
# Poissons Ratio (x) = 0.24063 0.70627
# Poissons Ratio (y) = 0.14927 0.22525
# Poissons Ratio (z) = 0.26329 0.13536
#
# Static dielectric constant tensor:
#      x y z
#    x 1.772470 0.000000 0.000000 
#    y 0.000000 1.733340 0.000000 
#    z 0.000000 0.000000 1.702930 
# 
# From -- ./inp_files/9595.got.cif
#   From: 2010.05.17/outbox.cif.g08.bks.cpg/sg66_5_cif.got.tgz:9595.got - 2010.06.03 17:51:23.
