data_PCOD9496992
_publ_section_title
;
Structure prediction by ZEFSAII (Michael W. Deem and Ramdas Pophale) SiO2 
 PCOD9496992
Probable space group: C C C M
;
_chemical_formula_sum "Si O2"
_cell_formula_units_Z 116
_cell_length_a 26.716767
_cell_length_b 25.379902
_cell_length_c 9.650428
_cell_angle_alpha 90.000000
_cell_angle_beta 90.000000
_cell_angle_gamma 90.000000
_cell_volume 6543.655371
_symmetry_space_group_name_H-M "C C C M"
_symmetry_group_IT_number 66
_symmetry_cell_setting 'orthorhombic'
loop_
_space_group_symop_operation_xyz
x,y,z
-x,-y,z
x,-y,1/2-z
-x,y,1/2-z
-x,-y,-z
x,y,-z
-x,y,1/2+z
x,-y,1/2+z
1/2+x,1/2+y,z
1/2-x,1/2-y,z
1/2+x,1/2-y,1/2-z
1/2-x,1/2+y,1/2-z
1/2-x,1/2-y,-z
1/2+x,1/2+y,-z
1/2-x,1/2+y,1/2+z
1/2+x,1/2-y,1/2+z
loop_
_atom_site_type_symbol
_atom_site_label
_atom_site_fract_x
_atom_site_fract_y
_atom_site_fract_z
Si Si1 0.781337 0.053158 0.836618
Si Si2 0.453607 0.303427 0.338822
Si Si3 0.307607 0.745293 0.334904
Si Si4 0.500000 0.000000 0.250000
Si Si5 0.579390 0.087864 0.657559
Si Si6 0.329121 0.946050 0.164094
Si Si7 0.150965 0.850888 0.839397
Si Si8 0.588961 0.792729 0.161797
O O1 0.726018 0.078683 0.815037
O O2 0.824663 0.093887 0.800470
O O3 0.784839 0.000000 0.750000
O O4 0.784270 0.040575 0.000000
O O5 0.500000 0.322596 0.250000
O O6 0.465468 0.293707 0.500000
O O7 0.408513 0.345109 0.332239
O O8 0.435259 0.249379 0.265163
O O9 0.306294 0.737874 0.500000
O O10 0.250000 0.750000 0.288261
O O11 0.328285 0.694155 0.258988
O O12 0.350458 0.790256 0.310505
O O13 0.462398 0.958045 0.324761
O O14 0.599225 0.082952 0.500000
O O15 0.622914 0.081244 0.770146
O O16 0.564749 0.149283 0.674249
O O17 0.326591 0.000000 0.250000
O O18 0.336167 0.954426 0.000000
O O19 0.165438 0.840399 0.000000
O O20 0.582701 0.776482 0.000000
#
# Coordination Sequence:
#
# PCOD9496992 Si02
#       8
#    16  16  16   4  16  16  16  16
#     4   9  19  35  55  83 114 146 182 222 263 319
#     4  10  20  36  58  82 108 142 180 224 272 325
#     4   9  18  32  51  79 112 142 176 218 272 333
#     4  12  26  40  56  78 106 140 190 244 294 320
#     4  11  24  40  57  76 103 138 182 234 286 331
#     4  10  20  35  55  77 104 137 176 218 267 323
#     4   9  19  35  54  79 112 145 181 221 269 324
#     4   9  20  37  54  77 107 141 181 226 273 332
#
# _framework density 17.727094000000001
#
# number of rings (size 3 to 8) (size 9 to 14) (size 15 to 20)
#    0.000    2.345    0.690    1.034    2.897    3.034 
#    0.000    0.000    0.000    0.414    0.000    2.897 
#    0.000    0.000    0.000    0.000    0.000    0.000 
#
# Total GULP energy -322906.439748 kJ/mol
# GULP energy per Si atom -5567.352409 kJ/mol
# Density = 1.768675 g / cm^3
# Si number density = 17.727094 Si / 1000 Ang^3
#
#
#
# Elastic Constant Matrix: (Units=GPa)
#
#
# Indices 1 2 3 4 5 6 
#
# 1 89.8932 36.1351 48.4780 0.0000 0.0000 0.0000
# 2 36.1351 63.5830 30.2783 0.0000 0.0000 0.0000
# 3 48.4780 30.2783 72.5147 0.0000 0.0000 0.0000
# 4 0.0000 0.0000 0.0000 -4.1135 0.0000 0.0000
# 5 0.0000 0.0000 0.0000 0.0000 21.3441 0.0000
# 6 0.0000 0.0000 0.0000 0.0000 0.0000 17.3513
#
#
#
# Elastic Compliance Matrix: (Units=1/GPa)
#
#
# Indices 1 2 3 4 5 6 
#
# 1 0.019038 -0.005940 -0.010247 0.000000 0.000000 0.000000
# 2 -0.005940 0.021484 -0.005000 0.000000 0.000000 0.000000
# 3 -0.010247 -0.005000 0.022729 0.000000 0.000000 0.000000
# 4 0.000000 0.000000 0.000000 -0.243102 0.000000 0.000000
# 5 0.000000 0.000000 0.000000 0.000000 0.046851 0.000000
# 6 0.000000 0.000000 0.000000 0.000000 0.000000 0.057633
#
#
# Mechanical properties :
#
#
# Convention : Reuss Voigt Hill
#
# Bulk Modulus (GPa) = 47.89957 50.64153 49.27055
# Shear Modulus (GPa) = -192.05126 14.32301 -88.86413
#
# Velocity S-wave (km/s) = -10.41983 2.84557 -7.08786
# Velocity P-wave (km/s) = 10.84826 6.27899 6.25536
#
# Compressibility (1/GPa) = 0.02087701
#
# Stress axis : x y z
#
# Youngs Moduli (GPa) = 52.52566 46.54617 43.99750
#
# Poissons Ratio (x) = 0.27648 0.45086
# Poissons Ratio (y) = 0.31200 0.21997
# Poissons Ratio (z) = 0.53825 0.23271
#
# Static dielectric constant tensor:
#      x y z
#    x 1.670060 0.000000 0.000000 
#    y 0.000000 1.588480 0.000000 
#    z 0.000000 0.000000 1.590710 
# 
# From -- ./inp_files/10596.got.cif
#   From: 2010.05.17/outbox.cif.g08.bks.cpg/sg66_6_cif.got.tgz:10596.got - 2010.06.03 17:51:23.
