data_PCOD9496530
_publ_section_title
;
Structure prediction by ZEFSAII (Michael W. Deem and Ramdas Pophale) SiO2 
 PCOD9496530
Probable space group: C C C M
;
_chemical_formula_sum "Si O2"
_cell_formula_units_Z 64
_cell_length_a 12.491873
_cell_length_b 16.530284
_cell_length_c 16.875004
_cell_angle_alpha 90.000000
_cell_angle_beta 90.000000
_cell_angle_gamma 90.000000
_cell_volume 3484.590592
_symmetry_space_group_name_H-M "C C C M"
_symmetry_group_IT_number 66
_symmetry_cell_setting 'orthorhombic'
loop_
_space_group_symop_operation_xyz
x,y,z
-x,-y,z
x,-y,1/2-z
-x,y,1/2-z
-x,-y,-z
x,y,-z
-x,y,1/2+z
x,-y,1/2+z
1/2+x,1/2+y,z
1/2-x,1/2-y,z
1/2+x,1/2-y,1/2-z
1/2-x,1/2+y,1/2-z
1/2-x,1/2-y,-z
1/2+x,1/2+y,-z
1/2-x,1/2+y,1/2+z
1/2+x,1/2-y,1/2+z
loop_
_atom_site_type_symbol
_atom_site_label
_atom_site_fract_x
_atom_site_fract_y
_atom_site_fract_z
Si Si1 0.595286 0.250225 0.351058
Si Si2 0.138045 0.708814 0.168175
Si Si3 0.753442 0.120615 0.409280
Si Si4 0.880626 0.532817 0.595648
O O1 0.620950 0.218567 0.262593
O O2 0.469362 0.249433 0.366924
O O3 0.656597 0.185853 0.406034
O O4 0.651155 0.336924 0.361670
O O5 0.250000 0.750000 0.146204
O O6 0.137638 0.616249 0.140703
O O7 0.787818 0.110981 0.500000
O O8 0.704638 0.036124 0.380754
O O9 0.873562 0.544295 0.500000
O O10 0.000000 0.500000 0.612575
#
# Coordination Sequence:
#
# PCOD9496530 Si02
#       4
#    16  16  16  16
#     4  10  20  36  55  87 115 153 197 229 293 350
#     4  11  22  37  56  87 126 150 185 243 302 350
#     4  10  19  37  62  83 111 153 202 242 274 339
#     4  10  21  37  58  87 115 149 199 245 288 339
#
# _framework density 18.366575999999998
#
# number of rings (size 3 to 8) (size 9 to 14) (size 15 to 20)
#    0.000    1.750    5.000    1.500    0.000    2.500 
#    0.000    1.250    0.000    6.000    0.000    0.000 
#    0.000    0.000    0.000    0.000    0.000    0.000 
#
# Total GULP energy -178525.544709 kJ/mol
# GULP energy per Si atom -5578.923272 kJ/mol
# Density = 1.832477 g / cm^3
# Si number density = 18.366576 Si / 1000 Ang^3
#
#
#
# Elastic Constant Matrix: (Units=GPa)
#
#
# Indices 1 2 3 4 5 6 
#
# 1 158.3566 97.0591 27.5882 0.0000 0.0000 0.0000
# 2 97.0591 161.5479 54.2846 0.0000 0.0000 0.0000
# 3 27.5882 54.2846 39.5959 0.0000 0.0000 0.0000
# 4 0.0000 0.0000 0.0000 873.9060 0.0000 0.0000
# 5 0.0000 0.0000 0.0000 0.0000 2.6599 0.0000
# 6 0.0000 0.0000 0.0000 0.0000 0.0000 34.8733
#
#
#
# Elastic Compliance Matrix: (Units=1/GPa)
#
#
# Indices 1 2 3 4 5 6 
#
# 1 0.010115 -0.006877 0.002381 0.000000 0.000000 0.000000
# 2 -0.006877 0.016154 -0.017354 0.000000 0.000000 0.000000
# 3 0.002381 -0.017354 0.047388 0.000000 0.000000 0.000000
# 4 0.000000 0.000000 0.000000 0.001144 0.000000 0.000000
# 5 0.000000 0.000000 0.000000 0.000000 0.375954 0.000000
# 6 0.000000 0.000000 0.000000 0.000000 0.000000 0.028675
#
#
# Mechanical properties :
#
#
# Convention : Reuss Voigt Hill
#
# Bulk Modulus (GPa) = 33.38262 79.70715 56.54488
# Shear Modulus (GPa) = 9.37879 194.32573 101.85226
#
# Velocity S-wave (km/s) = 2.26220 10.29727 7.45491
# Velocity P-wave (km/s) = 5.00386 13.59671 10.24473
#
# Compressibility (1/GPa) = 0.02995571
#
# Stress axis : x y z
#
# Youngs Moduli (GPa) = 98.85974 61.90566 21.10226
#
# Poissons Ratio (x) = 0.42575 -0.05024
# Poissons Ratio (y) = 0.67990 0.36621
# Poissons Ratio (z) = -0.23537 1.07432
#
# Static dielectric constant tensor:
#      x y z
#    x 1.653160 0.000000 0.000000 
#    y 0.000000 1.612150 0.000000 
#    z 0.000000 0.000000 1.681420 
# 
# From -- ./inp_files/38213.got.cif
#   From: 2010.05.17/outbox.cif.g08.bks.cpg/sg66_20_cif.got.tgz:38213.got - 2010.06.03 17:51:23.
