data_PCOD9496926
_publ_section_title
;
Structure prediction by ZEFSAII (Michael W. Deem and Ramdas Pophale) SiO2 
 PCOD9496926
Probable space group: C C C M
;
_chemical_formula_sum "Si O2"
_cell_formula_units_Z 96
_cell_length_a 14.484387
_cell_length_b 21.060577
_cell_length_c 17.383189
_cell_angle_alpha 90.000000
_cell_angle_beta 90.000000
_cell_angle_gamma 90.000000
_cell_volume 5302.733942
_symmetry_space_group_name_H-M "C C C M"
_symmetry_group_IT_number 66
_symmetry_cell_setting 'orthorhombic'
loop_
_space_group_symop_operation_xyz
x,y,z
-x,-y,z
x,-y,1/2-z
-x,y,1/2-z
-x,-y,-z
x,y,-z
-x,y,1/2+z
x,-y,1/2+z
1/2+x,1/2+y,z
1/2-x,1/2-y,z
1/2+x,1/2-y,1/2-z
1/2-x,1/2+y,1/2-z
1/2-x,1/2-y,-z
1/2+x,1/2+y,-z
1/2-x,1/2+y,1/2+z
1/2+x,1/2-y,1/2+z
loop_
_atom_site_type_symbol
_atom_site_label
_atom_site_fract_x
_atom_site_fract_y
_atom_site_fract_z
Si Si1 0.958839 0.434107 0.837206
Si Si2 0.937902 0.177564 0.591582
Si Si3 0.253070 0.676740 0.689709
Si Si4 0.244906 0.939237 0.194716
Si Si5 0.067684 0.677743 0.409427
Si Si6 0.935168 0.059931 0.092498
O O1 0.849014 0.440034 0.836720
O O2 0.000000 0.500000 0.867911
O O3 0.000000 0.427228 0.750000
O O4 0.993808 0.374283 0.884832
O O5 0.923472 0.170473 0.500000
O O6 0.841230 0.168832 0.634568
O O7 0.966843 0.250442 0.606130
O O8 0.011449 0.124505 0.615331
O O9 0.250000 0.750000 0.717101
O O10 0.261658 0.625399 0.756373
O O11 0.159908 0.666471 0.640482
O O12 0.163762 0.942889 0.132634
O O13 0.234895 0.000000 0.250000
O O14 0.089408 0.673615 0.500000
O O15 0.924821 0.059303 0.000000
O O16 0.000000 0.000000 0.113725
#
# Coordination Sequence:
#
# PCOD9496926 Si02
#       6
#    16  16  16  16  16  16
#     4  11  21  40  59  79 116 155 183 239 300 344
#     4   9  19  37  57  83 121 154 190 241 290 338
#     4  10  20  34  57  89 116 151 194 242 292 345
#     4  12  23  38  61  85 116 150 194 240 295 349
#     4  10  20  36  60  87 114 153 197 238 290 353
#     4  10  23  42  61  84 118 159 198 242 293 346
#
# _framework density 18.103869
#
# number of rings (size 3 to 8) (size 9 to 14) (size 15 to 20)
#    0.000    1.667    3.333    1.500    0.000    6.667 
#    0.000    4.167    0.000    3.500    0.000    0.000 
#    0.000    0.000    0.000    0.000    0.000    0.000 
#
# Total GULP energy -268039.190945 kJ/mol
# GULP energy per Si atom -5584.149811 kJ/mol
# Density = 1.806266 g / cm^3
# Si number density = 18.103869 Si / 1000 Ang^3
#
#
#
# Elastic Constant Matrix: (Units=GPa)
#
#
# Indices 1 2 3 4 5 6 
#
# 1 153.5190 86.5036 44.2326 0.0000 0.0000 0.0000
# 2 86.5036 129.7114 49.4104 0.0000 0.0000 0.0000
# 3 44.2326 49.4104 35.3867 0.0000 0.0000 0.0000
# 4 0.0000 0.0000 0.0000 25.1851 0.0000 0.0000
# 5 0.0000 0.0000 0.0000 0.0000 27.9952 0.0000
# 6 0.0000 0.0000 0.0000 0.0000 0.0000 30.6193
#
#
#
# Elastic Compliance Matrix: (Units=1/GPa)
#
#
# Indices 1 2 3 4 5 6 
#
# 1 0.011345 -0.004623 -0.007726 0.000000 0.000000 0.000000
# 2 -0.004623 0.018353 -0.019848 0.000000 0.000000 0.000000
# 3 -0.007726 -0.019848 0.065630 0.000000 0.000000 0.000000
# 4 0.000000 0.000000 0.000000 0.039706 0.000000 0.000000
# 5 0.000000 0.000000 0.000000 0.000000 0.035720 0.000000
# 6 0.000000 0.000000 0.000000 0.000000 0.000000 0.032659
#
#
# Mechanical properties :
#
#
# Convention : Reuss Voigt Hill
#
# Bulk Modulus (GPa) = 32.32636 75.43449 53.88042
# Shear Modulus (GPa) = 17.97809 25.99130 21.98470
#
# Velocity S-wave (km/s) = 3.15469 3.79314 3.48855
# Velocity P-wave (km/s) = 5.58250 7.80653 6.78624
#
# Compressibility (1/GPa) = 0.03093451
#
# Stress axis : x y z
#
# Youngs Moduli (GPa) = 88.14773 54.48782 15.23703
#
# Poissons Ratio (x) = 0.25188 0.11772
# Poissons Ratio (y) = 0.40748 0.30242
# Poissons Ratio (z) = 0.68102 1.08146
#
# Static dielectric constant tensor:
#      x y z
#    x 1.593360 0.000000 0.000000 
#    y 0.000000 1.627590 0.000000 
#    z 0.000000 0.000000 1.607230 
# 
# From -- ./inp_files/28371.got.cif
#   From: 2010.05.17/outbox.cif.g08.bks.cpg/sg66_15_cif.got.tgz:28371.got - 2010.06.03 17:51:23.
