data_PCOD9496053
_publ_section_title
;
Structure prediction by ZEFSAII (Michael W. Deem and Ramdas Pophale) SiO2 
 PCOD9496053
Probable space group: C C C M
;
_chemical_formula_sum "Si O2"
_cell_formula_units_Z 100
_cell_length_a 28.859394
_cell_length_b 28.830986
_cell_length_c 8.405169
_cell_angle_alpha 90.000000
_cell_angle_beta 90.000000
_cell_angle_gamma 90.000000
_cell_volume 6993.477028
_symmetry_space_group_name_H-M "C C C M"
_symmetry_group_IT_number 66
_symmetry_cell_setting 'orthorhombic'
loop_
_space_group_symop_operation_xyz
x,y,z
-x,-y,z
x,-y,1/2-z
-x,y,1/2-z
-x,-y,-z
x,y,-z
-x,y,1/2+z
x,-y,1/2+z
1/2+x,1/2+y,z
1/2-x,1/2-y,z
1/2+x,1/2-y,1/2-z
1/2-x,1/2+y,1/2-z
1/2-x,1/2-y,-z
1/2+x,1/2+y,-z
1/2-x,1/2+y,1/2+z
1/2+x,1/2-y,1/2+z
loop_
_atom_site_type_symbol
_atom_site_label
_atom_site_fract_x
_atom_site_fract_y
_atom_site_fract_z
Si Si1 0.281257 0.639576 0.810566
Si Si2 0.000000 0.000000 0.250000
Si Si3 0.645859 0.713513 0.815149
Si Si4 0.429594 0.428814 0.688942
Si Si5 0.949096 0.820417 0.311204
Si Si6 0.827708 0.049700 0.687763
Si Si7 0.208739 0.711830 0.184820
O O1 0.323722 0.675257 0.778999
O O2 0.293135 0.591565 0.727125
O O3 0.234216 0.665451 0.755648
O O4 0.278125 0.632812 0.000000
O O5 0.961520 0.038546 0.299603
O O6 0.592610 0.707546 0.768651
O O7 0.666844 0.763979 0.776042
O O8 0.652406 0.703305 0.000000
O O9 0.439790 0.438629 0.500000
O O10 0.440258 0.375150 0.721065
O O11 0.376172 0.439214 0.723826
O O12 0.946567 0.814094 0.500000
O O13 0.000000 0.808182 0.250000
O O14 0.836502 0.047633 0.500000
O O15 0.810957 0.000000 0.750000
O O16 0.250000 0.750000 0.189518
O O17 0.195812 0.705706 0.000000
#
# Coordination Sequence:
#
# PCOD9496053 Si02
#       7
#    16   4  16  16  16  16  16
#     4  10  19  33  50  67  89 114 143 179 224 270
#     4  12  22  36  52  62  78 100 154 196 238 280
#     4  11  20  30  47  69  91 114 143 179 223 271
#     4  11  23  35  48  62  80 106 141 187 234 276
#     4  11  22  35  48  63  86 114 148 186 230 275
#     4  12  24  35  49  65  86 113 146 183 227 274
#     4   8  16  30  48  68  89 113 138 172 219 268
#
# _framework density 14.299039
#
# number of rings (size 3 to 8) (size 9 to 14) (size 15 to 20)
#    0.000    1.440    3.200    5.040    0.000    4.800 
#    0.000    0.000    0.000    0.000    0.000    0.000 
#    0.000    0.000    0.000    0.000    0.000    0.800 
#
# Total GULP energy -278768.741131 kJ/mol
# GULP energy per Si atom -5575.374823 kJ/mol
# Density = 1.426649 g / cm^3
# Si number density = 14.299039 Si / 1000 Ang^3
#
#
#
# Elastic Constant Matrix: (Units=GPa)
#
#
# Indices 1 2 3 4 5 6 
#
# 1 66.9356 46.6359 16.1363 0.0000 0.0000 0.0000
# 2 46.6359 67.9106 13.6865 0.0000 0.0000 0.0000
# 3 16.1363 13.6865 41.4646 0.0000 0.0000 0.0000
# 4 0.0000 0.0000 0.0000 17.9314 0.0000 0.0000
# 5 0.0000 0.0000 0.0000 0.0000 12.0228 0.0000
# 6 0.0000 0.0000 0.0000 0.0000 0.0000 29.5563
#
#
#
# Elastic Compliance Matrix: (Units=1/GPa)
#
#
# Indices 1 2 3 4 5 6 
#
# 1 0.029641 -0.019316 -0.005160 0.000000 0.000000 0.000000
# 2 -0.019316 0.028361 -0.001845 0.000000 0.000000 0.000000
# 3 -0.005160 -0.001845 0.026734 0.000000 0.000000 0.000000
# 4 0.000000 0.000000 0.000000 0.055768 0.000000 0.000000
# 5 0.000000 0.000000 0.000000 0.000000 0.083175 0.000000
# 6 0.000000 0.000000 0.000000 0.000000 0.000000 0.033834
#
#
# Mechanical properties :
#
#
# Convention : Reuss Voigt Hill
#
# Bulk Modulus (GPa) = 31.15557 36.58089 33.86823
# Shear Modulus (GPa) = 15.58353 18.55892 17.07123
#
# Velocity S-wave (km/s) = 3.30484 3.60657 3.45899
# Velocity P-wave (km/s) = 6.03312 6.55602 6.30000
#
# Compressibility (1/GPa) = 0.03209699
#
# Stress axis : x y z
#
# Youngs Moduli (GPa) = 33.73681 35.25915 37.40598
#
# Poissons Ratio (x) = 0.68105 0.19300
# Poissons Ratio (y) = 0.65164 0.06900
# Poissons Ratio (z) = 0.17407 0.06504
#
# Static dielectric constant tensor:
#      x y z
#    x 1.462970 0.000000 0.000000 
#    y 0.000000 1.474660 0.000000 
#    z 0.000000 0.000000 1.509570 
# 
# From -- ./inp_files/10869.got.cif
#   From: 2010.05.17/outbox.cif.g08.bks.cpg/sg66_6_cif.got.tgz:10869.got - 2010.06.03 17:51:23.
