data_PCOD9496590
_publ_section_title
;
Structure prediction by ZEFSAII (Michael W. Deem and Ramdas Pophale) SiO2 
 PCOD9496590
Probable space group: C C C M
;
_chemical_formula_sum "Si O2"
_cell_formula_units_Z 96
_cell_length_a 27.584528
_cell_length_b 8.967641
_cell_length_c 20.350752
_cell_angle_alpha 90.000000
_cell_angle_beta 90.000000
_cell_angle_gamma 90.000000
_cell_volume 5034.127757
_symmetry_space_group_name_H-M "C C C M"
_symmetry_group_IT_number 66
_symmetry_cell_setting 'orthorhombic'
loop_
_space_group_symop_operation_xyz
x,y,z
-x,-y,z
x,-y,1/2-z
-x,y,1/2-z
-x,-y,-z
x,y,-z
-x,y,1/2+z
x,-y,1/2+z
1/2+x,1/2+y,z
1/2-x,1/2-y,z
1/2+x,1/2-y,1/2-z
1/2-x,1/2+y,1/2-z
1/2-x,1/2-y,-z
1/2+x,1/2+y,-z
1/2-x,1/2+y,1/2+z
1/2+x,1/2-y,1/2+z
loop_
_atom_site_type_symbol
_atom_site_label
_atom_site_fract_x
_atom_site_fract_y
_atom_site_fract_z
Si Si1 0.721895 0.097233 0.192946
Si Si2 0.871935 0.751081 0.256317
Si Si3 0.362084 0.488004 0.141179
Si Si4 0.029662 0.655941 0.693985
Si Si5 0.458436 0.375781 0.075475
Si Si6 0.241733 0.927919 0.423276
O O1 0.750000 0.250000 0.181431
O O2 0.670850 0.143877 0.222380
O O3 0.747657 0.000000 0.250000
O O4 0.720570 0.006290 0.125766
O O5 0.857662 0.860232 0.196625
O O6 0.917451 0.659639 0.227598
O O7 0.877223 0.861785 0.319347
O O8 0.406314 0.444954 0.093764
O O9 0.310938 0.483891 0.102802
O O10 0.032176 0.742292 0.626066
O O11 0.000000 0.500000 0.685491
O O12 0.000000 0.745260 0.750000
O O13 0.500000 0.500000 0.084299
O O14 0.458963 0.326459 0.000000
O O15 0.247358 0.965799 0.500000
O O16 0.250000 0.750000 0.416707
#
# Coordination Sequence:
#
# PCOD9496590 Si02
#       6
#    16  16  16  16  16  16
#     4  12  23  38  62  92 125 162 214 262 316 378
#     4  10  21  36  62  93 123 163 216 264 313 378
#     4  10  19  39  63  90 122 167 217 262 313 379
#     4  10  22  39  60  89 128 160 199 255 319 366
#     4  10  21  38  63  91 120 161 209 256 308 373
#     4  11  24  42  62  89 130 172 211 264 326 382
#
# _framework density 19.069838000000001
#
# number of rings (size 3 to 8) (size 9 to 14) (size 15 to 20)
#    0.000    1.500    1.667    4.000    2.333    2.333 
#    0.000    0.000    0.000    1.000    0.000    0.000 
#    0.000    0.000    0.000    0.000    0.000    0.000 
#
# Total GULP energy -267734.868070 kJ/mol
# GULP energy per Si atom -5577.809751 kJ/mol
# Density = 1.902643 g / cm^3
# Si number density = 19.069838 Si / 1000 Ang^3
#
#
#
# Elastic Constant Matrix: (Units=GPa)
#
#
# Indices 1 2 3 4 5 6 
#
# 1 92.0852 28.3528 31.9176 0.0000 0.0000 0.0000
# 2 28.3528 101.1943 64.4628 0.0000 0.0000 0.0000
# 3 31.9176 64.4628 131.3361 0.0000 0.0000 0.0000
# 4 0.0000 0.0000 0.0000 25.9466 0.0000 0.0000
# 5 0.0000 0.0000 0.0000 0.0000 -19.0029 0.0000
# 6 0.0000 0.0000 0.0000 0.0000 0.0000 28.0462
#
#
#
# Elastic Compliance Matrix: (Units=1/GPa)
#
#
# Indices 1 2 3 4 5 6 
#
# 1 0.012193 -0.002224 -0.001872 0.000000 0.000000 0.000000
# 2 -0.002224 0.014783 -0.006715 0.000000 0.000000 0.000000
# 3 -0.001872 -0.006715 0.011365 0.000000 0.000000 0.000000
# 4 0.000000 0.000000 0.000000 0.038541 0.000000 0.000000
# 5 0.000000 0.000000 0.000000 0.000000 -0.052623 0.000000
# 6 0.000000 0.000000 0.000000 0.000000 0.000000 0.035655
#
#
# Mechanical properties :
#
#
# Convention : Reuss Voigt Hill
#
# Bulk Modulus (GPa) = 59.81219 63.78690 61.79954
# Shear Modulus (GPa) = 57.39987 20.32347 38.86167
#
# Velocity S-wave (km/s) = 5.49228 3.26811 4.51916
# Velocity P-wave (km/s) = 8.46482 6.91104 7.72708
#
# Compressibility (1/GPa) = 0.01671900
#
# Stress axis : x y z
#
# Youngs Moduli (GPa) = 82.01440 67.64574 87.99010
#
# Poissons Ratio (x) = 0.15045 0.16468
# Poissons Ratio (y) = 0.18240 0.59088
# Poissons Ratio (z) = 0.15349 0.45426
#
# Static dielectric constant tensor:
#      x y z
#    x 1.661130 0.000000 0.000000 
#    y 0.000000 1.771730 0.000000 
#    z 0.000000 0.000000 1.653460 
# 
# From -- ./inp_files/52975.got.cif
#   From: 2010.05.17/outbox.cif.g08.bks.cpg/sg66_27_cif.got.tgz:52975.got - 2010.06.03 17:51:23.
