data_PCOD9496903
_publ_section_title
;
Structure prediction by ZEFSAII (Michael W. Deem and Ramdas Pophale) SiO2 
 PCOD9496903
Probable space group: C C C M
;
_chemical_formula_sum "Si O2"
_cell_formula_units_Z 88
_cell_length_a 13.165455
_cell_length_b 15.064233
_cell_length_c 25.035591
_cell_angle_alpha 90.000000
_cell_angle_beta 90.000000
_cell_angle_gamma 90.000000
_cell_volume 4965.245715
_symmetry_space_group_name_H-M "C C C M"
_symmetry_group_IT_number 66
_symmetry_cell_setting 'orthorhombic'
loop_
_space_group_symop_operation_xyz
x,y,z
-x,-y,z
x,-y,1/2-z
-x,y,1/2-z
-x,-y,-z
x,y,-z
-x,y,1/2+z
x,-y,1/2+z
1/2+x,1/2+y,z
1/2-x,1/2-y,z
1/2+x,1/2-y,1/2-z
1/2-x,1/2+y,1/2-z
1/2-x,1/2-y,-z
1/2+x,1/2+y,-z
1/2-x,1/2+y,1/2+z
1/2+x,1/2-y,1/2+z
loop_
_atom_site_type_symbol
_atom_site_label
_atom_site_fract_x
_atom_site_fract_y
_atom_site_fract_z
Si Si1 0.495022 0.742274 0.165615
Si Si2 0.879493 0.514026 0.442391
Si Si3 0.247459 0.000000 0.750000
Si Si4 0.632874 0.777024 0.563204
Si Si5 0.903503 0.434412 0.338243
Si Si6 0.845666 0.813506 0.242422
O O1 0.443079 0.734201 0.107091
O O2 0.550794 0.837269 0.167988
O O3 0.582024 0.678026 0.190124
O O4 0.406687 0.735330 0.209963
O O5 0.830819 0.498126 0.500000
O O6 0.868069 0.616872 0.427594
O O7 0.850130 0.448472 0.395474
O O8 0.000000 0.500000 0.447648
O O9 0.321824 0.964980 0.704173
O O10 0.183675 0.911590 0.762901
O O11 0.606641 0.761591 0.500000
O O12 0.750000 0.750000 0.571256
O O13 0.000000 0.500000 0.334628
O O14 0.750000 0.750000 0.230148
#
# Coordination Sequence:
#
# PCOD9496903 Si02
#       6
#    16  16   8  16  16  16
#     4  11  22  36  57  82 120 154 194 248 301 349
#     4   9  17  30  50  81 116 145 185 240 295 347
#     4  12  25  39  60  82 118 160 202 240 298 358
#     4  10  20  34  55  87 123 157 196 246 305 361
#     4  11  20  32  56  85 112 151 194 241 305 345
#     4  11  24  40  58  86 120 155 202 250 293 360
#
# _framework density 17.723191
#
# number of rings (size 3 to 8) (size 9 to 14) (size 15 to 20)
#    0.000    1.455    5.455    1.909    5.091    1.455 
#    0.000    0.000    0.000    1.636    0.000    1.273 
#    0.000    0.000    0.000    0.000    0.000    0.000 
#
# Total GULP energy -245034.794279 kJ/mol
# GULP energy per Si atom -5568.972597 kJ/mol
# Density = 1.768285 g / cm^3
# Si number density = 17.723191 Si / 1000 Ang^3
#
#
#
# Elastic Constant Matrix: (Units=GPa)
#
#
# Indices 1 2 3 4 5 6 
#
# 1 75.2060 25.8280 42.2327 0.0000 0.0000 0.0000
# 2 25.8280 71.1105 25.5944 0.0000 0.0000 0.0000
# 3 42.2327 25.5944 128.5957 0.0000 0.0000 0.0000
# 4 0.0000 0.0000 0.0000 20.7124 0.0000 0.0000
# 5 0.0000 0.0000 0.0000 0.0000 -64.7279 0.0000
# 6 0.0000 0.0000 0.0000 0.0000 0.0000 28.8789
#
#
#
# Elastic Compliance Matrix: (Units=1/GPa)
#
#
# Indices 1 2 3 4 5 6 
#
# 1 0.017625 -0.004651 -0.004862 0.000000 0.000000 0.000000
# 2 -0.004651 0.016375 -0.001732 0.000000 0.000000 0.000000
# 3 -0.004862 -0.001732 0.009718 0.000000 0.000000 0.000000
# 4 0.000000 0.000000 0.000000 0.048280 0.000000 0.000000
# 5 0.000000 0.000000 0.000000 0.000000 -0.015449 0.000000
# 6 0.000000 0.000000 0.000000 0.000000 0.000000 0.034627
#
#
# Mechanical properties :
#
#
# Convention : Reuss Voigt Hill
#
# Bulk Modulus (GPa) = 47.10967 51.35803 49.23385
# Shear Modulus (GPa) = 35.52579 9.05648 22.29113
#
# Velocity S-wave (km/s) = 4.48200 2.26297 3.55031
# Velocity P-wave (km/s) = 7.30910 5.98906 6.68176
#
# Compressibility (1/GPa) = 0.02122706
#
# Stress axis : x y z
#
# Youngs Moduli (GPa) = 56.73817 61.06761 102.90337
#
# Poissons Ratio (x) = 0.28405 0.50037
# Poissons Ratio (y) = 0.26391 0.17819
# Poissons Ratio (z) = 0.27589 0.10574
#
# Static dielectric constant tensor:
#      x y z
#    x 1.621280 0.000000 0.000000 
#    y 0.000000 1.612090 0.000000 
#    z 0.000000 0.000000 1.487060 
# 
# From -- ./inp_files/63616.got.cif
#   From: 2010.05.17/outbox.cif.g08.bks.cpg/sg66_32_cif.got.tgz:63616.got - 2010.06.03 17:51:23.
