data_PCOD9496242
_publ_section_title
;
Structure prediction by ZEFSAII (Michael W. Deem and Ramdas Pophale) SiO2 
 PCOD9496242
Probable space group: C C C M
;
_chemical_formula_sum "Si O2"
_cell_formula_units_Z 80
_cell_length_a 6.405452
_cell_length_b 23.315522
_cell_length_c 28.819309
_cell_angle_alpha 90.000000
_cell_angle_beta 90.000000
_cell_angle_gamma 90.000000
_cell_volume 4304.061693
_symmetry_space_group_name_H-M "C C C M"
_symmetry_group_IT_number 66
_symmetry_cell_setting 'orthorhombic'
loop_
_space_group_symop_operation_xyz
x,y,z
-x,-y,z
x,-y,1/2-z
-x,y,1/2-z
-x,-y,-z
x,y,-z
-x,y,1/2+z
x,-y,1/2+z
1/2+x,1/2+y,z
1/2-x,1/2-y,z
1/2+x,1/2-y,1/2-z
1/2-x,1/2+y,1/2-z
1/2-x,1/2-y,-z
1/2+x,1/2+y,-z
1/2-x,1/2+y,1/2+z
1/2+x,1/2-y,1/2+z
loop_
_atom_site_type_symbol
_atom_site_label
_atom_site_fract_x
_atom_site_fract_y
_atom_site_fract_z
Si Si1 0.135333 0.310670 0.626007
Si Si2 0.201889 0.902823 0.946701
Si Si3 0.250000 0.250000 0.839957
Si Si4 0.378323 0.441199 0.125882
Si Si5 0.968672 0.847021 0.696782
Si Si6 0.500000 0.000000 0.586018
O O1 0.250000 0.250000 0.617103
O O2 0.189487 0.354140 0.584752
O O3 0.240407 0.336500 0.673324
O O4 0.893222 0.294265 0.631281
O O5 0.342796 0.960168 0.942667
O O6 0.983878 0.917524 0.921381
O O7 0.177298 0.886260 0.000000
O O8 0.409484 0.287255 0.810117
O O9 0.500000 0.500000 0.137516
O O10 0.422855 0.394909 0.165009
O O11 0.140562 0.457989 0.117208
O O12 0.000000 0.863346 0.750000
#
# Coordination Sequence:
#
# PCOD9496242 Si02
#       6
#    16  16   8  16  16   8
#     4   9  20  37  52  75 108 143 176 219 274 322
#     4  10  20  34  54  79 107 140 181 224 270 326
#     4  10  20  34  55  76 110 136 177 224 274 324
#     4   9  20  37  54  77 109 142 178 225 275 325
#     4  10  21  34  56  80 105 140 180 224 273 330
#     4  10  19  34  56  77 106 140 178 223 275 322
#
# _framework density 18.587094
#
# number of rings (size 3 to 8) (size 9 to 14) (size 15 to 20)
#    0.000    2.400    0.000    1.500    4.200    5.200 
#    0.000    0.500    0.000   10.800    0.000    0.000 
#    0.000    0.000    0.000    0.000    0.000    0.000 
#
# Total GULP energy -223072.563068 kJ/mol
# GULP energy per Si atom -5576.814077 kJ/mol
# Density = 1.854479 g / cm^3
# Si number density = 18.587094 Si / 1000 Ang^3
#
#
#
# Elastic Constant Matrix: (Units=GPa)
#
#
# Indices 1 2 3 4 5 6 
#
# 1 94.8979 22.7942 44.6656 0.0000 0.0000 0.0000
# 2 22.7942 62.4628 49.9190 0.0000 0.0000 0.0000
# 3 44.6656 49.9190 144.1996 0.0000 0.0000 0.0000
# 4 0.0000 0.0000 0.0000 8.3627 0.0000 0.0000
# 5 0.0000 0.0000 0.0000 0.0000 2.7693 0.0000
# 6 0.0000 0.0000 0.0000 0.0000 0.0000 35.8119
#
#
#
# Elastic Compliance Matrix: (Units=1/GPa)
#
#
# Indices 1 2 3 4 5 6 
#
# 1 0.012520 -0.002032 -0.003175 0.000000 0.000000 0.000000
# 2 -0.002032 0.022462 -0.007147 0.000000 0.000000 0.000000
# 3 -0.003175 -0.007147 0.010392 0.000000 0.000000 0.000000
# 4 0.000000 0.000000 0.000000 0.119579 0.000000 0.000000
# 5 0.000000 0.000000 0.000000 0.000000 0.361100 0.000000
# 6 0.000000 0.000000 0.000000 0.000000 0.000000 0.027924
#
#
# Mechanical properties :
#
#
# Convention : Reuss Voigt Hill
#
# Bulk Modulus (GPa) = 48.38306 59.59089 53.98697
# Shear Modulus (GPa) = 8.53865 21.66755 15.10310
#
# Velocity S-wave (km/s) = 2.14565 3.41798 2.85363
# Velocity P-wave (km/s) = 5.67674 6.90701 6.32187
#
# Compressibility (1/GPa) = 0.02066839
#
# Stress axis : x y z
#
# Youngs Moduli (GPa) = 79.87307 44.51865 96.22546
#
# Poissons Ratio (x) = 0.09045 0.30549
# Poissons Ratio (y) = 0.16227 0.68770
# Poissons Ratio (z) = 0.25357 0.31816
#
# Static dielectric constant tensor:
#      x y z
#    x 1.685320 0.000000 0.000000 
#    y 0.000000 1.652600 0.000000 
#    z 0.000000 0.000000 1.616740 
# 
# From -- ./inp_files/67372.got.cif
#   From: 2010.05.17/outbox.cif.g08.bks.cpg/sg66_34_cif.got.tgz:67372.got - 2010.06.03 17:51:23.
