data_PCOD9496802
_publ_section_title
;
Structure prediction by ZEFSAII (Michael W. Deem and Ramdas Pophale) SiO2 
 PCOD9496802
Probable space group: C C C M
;
_chemical_formula_sum "Si O2"
_cell_formula_units_Z 96
_cell_length_a 20.290482
_cell_length_b 15.621649
_cell_length_c 14.023768
_cell_angle_alpha 90.000000
_cell_angle_beta 90.000000
_cell_angle_gamma 90.000000
_cell_volume 4445.124792
_symmetry_space_group_name_H-M "C C C M"
_symmetry_group_IT_number 66
_symmetry_cell_setting 'orthorhombic'
loop_
_space_group_symop_operation_xyz
x,y,z
-x,-y,z
x,-y,1/2-z
-x,y,1/2-z
-x,-y,-z
x,y,-z
-x,y,1/2+z
x,-y,1/2+z
1/2+x,1/2+y,z
1/2-x,1/2-y,z
1/2+x,1/2-y,1/2-z
1/2-x,1/2+y,1/2-z
1/2-x,1/2-y,-z
1/2+x,1/2+y,-z
1/2-x,1/2+y,1/2+z
1/2+x,1/2-y,1/2+z
loop_
_atom_site_type_symbol
_atom_site_label
_atom_site_fract_x
_atom_site_fract_y
_atom_site_fract_z
Si Si1 0.390219 0.206339 0.892330
Si Si2 0.484772 0.903789 0.137799
Si Si3 0.910943 0.921907 0.384150
Si Si4 0.727229 0.346839 0.114304
Si Si5 0.648610 0.094825 0.215020
Si Si6 0.557531 0.613374 0.884392
O O1 0.463098 0.163849 0.900522
O O2 0.354094 0.154395 0.808737
O O3 0.401128 0.303441 0.859084
O O4 0.361172 0.202787 0.000000
O O5 0.500000 0.904147 0.250000
O O6 0.407582 0.880433 0.136891
O O7 0.500000 0.000000 0.102725
O O8 0.911052 0.920757 0.500000
O O9 0.846415 0.870679 0.353964
O O10 0.981065 0.883149 0.353363
O O11 0.912391 0.022028 0.355787
O O12 0.750000 0.250000 0.134917
O O13 0.780767 0.404903 0.166484
O O14 0.730691 0.358741 0.000000
O O15 0.630788 0.000000 0.250000
O O16 0.555942 0.613317 0.000000
#
# Coordination Sequence:
#
# PCOD9496802 Si02
#       6
#    16  16  16  16  16  16
#     4  10  20  33  59  94 121 156 206 251 306 376
#     4   9  16  34  53  78 116 152 193 250 300 351
#     4   8  15  33  58  89 124 152 192 252 313 370
#     4  10  23  41  63  91 121 162 212 255 309 381
#     4  11  22  41  58  83 125 163 200 250 310 370
#     4   8  15  30  59  93 122 152 191 253 316 367
#
# _framework density 21.596693999999999
#
# number of rings (size 3 to 8) (size 9 to 14) (size 15 to 20)
#    0.000    2.667    3.333    1.000    2.333    1.667 
#    3.000    0.000    0.000    0.500    0.000    0.000 
#    0.000    0.000    0.000    1.833    0.000    0.167 
#
# Total GULP energy -267942.058238 kJ/mol
# GULP energy per Si atom -5582.126213 kJ/mol
# Density = 2.154754 g / cm^3
# Si number density = 21.596694 Si / 1000 Ang^3
#
#
#
# Elastic Constant Matrix: (Units=GPa)
#
#
# Indices 1 2 3 4 5 6 
#
# 1 86.9087 21.7483 29.9306 0.0000 0.0000 0.0000
# 2 21.7483 80.1836 28.7392 0.0000 0.0000 0.0000
# 3 29.9306 28.7392 81.9633 0.0000 0.0000 0.0000
# 4 0.0000 0.0000 0.0000 13.4451 0.0000 0.0000
# 5 0.0000 0.0000 0.0000 0.0000 17.8388 0.0000
# 6 0.0000 0.0000 0.0000 0.0000 0.0000 18.5371
#
#
#
# Elastic Compliance Matrix: (Units=1/GPa)
#
#
# Indices 1 2 3 4 5 6 
#
# 1 0.013482 -0.002164 -0.004164 0.000000 0.000000 0.000000
# 2 -0.002164 0.014611 -0.004333 0.000000 0.000000 0.000000
# 3 -0.004164 -0.004333 0.015241 0.000000 0.000000 0.000000
# 4 0.000000 0.000000 0.000000 0.074377 0.000000 0.000000
# 5 0.000000 0.000000 0.000000 0.000000 0.056057 0.000000
# 6 0.000000 0.000000 0.000000 0.000000 0.000000 0.053946
#
#
# Mechanical properties :
#
#
# Convention : Reuss Voigt Hill
#
# Bulk Modulus (GPa) = 45.43194 45.54352 45.48773
# Shear Modulus (GPa) = 19.50276 21.20671 20.35474
#
# Velocity S-wave (km/s) = 3.00833 3.13700 3.07334
# Velocity P-wave (km/s) = 5.75751 5.85277 5.80534
#
# Compressibility (1/GPa) = 0.02201095
#
# Stress axis : x y z
#
# Youngs Moduli (GPa) = 74.17253 68.43979 65.61424
#
# Poissons Ratio (x) = 0.14811 0.27325
# Poissons Ratio (y) = 0.16052 0.28430
# Poissons Ratio (z) = 0.30889 0.29655
#
# Static dielectric constant tensor:
#      x y z
#    x 1.817140 0.000000 0.000000 
#    y 0.000000 1.793750 0.000000 
#    z 0.000000 0.000000 1.820370 
# 
# From -- ./inp_files/31183.got.cif
#   From: 2010.05.17/outbox.cif.g08.bks.cpg/sg66_16_cif.got.tgz:31183.got - 2010.06.03 17:51:23.
