data_PCOD9496918
_publ_section_title
;
Structure prediction by ZEFSAII (Michael W. Deem and Ramdas Pophale) SiO2 
 PCOD9496918
Probable space group: C C C M
;
_chemical_formula_sum "Si O2"
_cell_formula_units_Z 88
_cell_length_a 27.203134
_cell_length_b 8.431764
_cell_length_c 19.050645
_cell_angle_alpha 90.000000
_cell_angle_beta 90.000000
_cell_angle_gamma 90.000000
_cell_volume 4369.654177
_symmetry_space_group_name_H-M "C C C M"
_symmetry_group_IT_number 66
_symmetry_cell_setting 'orthorhombic'
loop_
_space_group_symop_operation_xyz
x,y,z
-x,-y,z
x,-y,1/2-z
-x,y,1/2-z
-x,-y,-z
x,y,-z
-x,y,1/2+z
x,-y,1/2+z
1/2+x,1/2+y,z
1/2-x,1/2-y,z
1/2+x,1/2-y,1/2-z
1/2-x,1/2+y,1/2-z
1/2-x,1/2-y,-z
1/2+x,1/2+y,-z
1/2-x,1/2+y,1/2+z
1/2+x,1/2-y,1/2+z
loop_
_atom_site_type_symbol
_atom_site_label
_atom_site_fract_x
_atom_site_fract_y
_atom_site_fract_z
Si Si1 0.328654 0.296167 0.500000
Si Si2 0.260785 0.014289 0.000000
Si Si3 0.988202 0.172250 0.832670
Si Si4 0.572039 0.101802 0.676391
Si Si5 0.750000 0.750000 0.873963
Si Si6 0.842059 0.818095 0.773192
Si Si7 0.118790 0.295896 0.637536
O O1 0.294759 0.449852 0.500000
O O2 0.360535 0.284978 0.569241
O O3 0.295089 0.138676 0.500000
O O4 0.267227 0.113856 0.928578
O O5 0.931172 0.206782 0.841516
O O6 0.000000 0.164826 0.750000
O O7 0.022801 0.320035 0.854595
O O8 0.000000 0.000000 0.864050
O O9 0.609162 0.246993 0.690759
O O10 0.563462 0.000000 0.750000
O O11 0.601180 0.976626 0.628735
O O12 0.795280 0.797436 0.823477
O O13 0.841542 0.717792 0.700383
O O14 0.847281 0.000000 0.750000
#
# Coordination Sequence:
#
# PCOD9496918 Si02
#       7
#     8   8  16  16   8  16  16
#     4  11  24  46  64  88 123 175 217 253 321 381
#     4  10  24  46  66  84 128 173 201 258 323 385
#     4  11  20  35  59  90 128 165 199 251 319 372
#     4  10  20  34  56  87 124 160 200 249 311 367
#     4  11  24  42  66  95 122 162 208 259 326 382
#     4  11  22  36  60  95 124 153 206 265 311 367
#     4  11  23  37  63  91 126 165 212 261 307 372
#
# _framework density 20.138891999999998
#
# number of rings (size 3 to 8) (size 9 to 14) (size 15 to 20)
#    0.000    1.273    3.636    3.818    0.000    5.091 
#    0.000    2.273    0.000    0.000    0.000    0.000 
#    0.000    0.000    0.000    0.000    0.000    0.000 
#
# Total GULP energy -245610.069865 kJ/mol
# GULP energy per Si atom -5582.047042 kJ/mol
# Density = 2.009306 g / cm^3
# Si number density = 20.138892 Si / 1000 Ang^3
#
#
#
# Elastic Constant Matrix: (Units=GPa)
#
#
# Indices 1 2 3 4 5 6 
#
# 1 99.1144 35.2271 43.1181 0.0000 0.0000 0.0000
# 2 35.2271 114.7382 9.1086 0.0000 0.0000 0.0000
# 3 43.1181 9.1086 72.2300 0.0000 0.0000 0.0000
# 4 0.0000 0.0000 0.0000 10.2713 0.0000 0.0000
# 5 0.0000 0.0000 0.0000 0.0000 -358.7154 0.0000
# 6 0.0000 0.0000 0.0000 0.0000 0.0000 19.0057
#
#
#
# Elastic Compliance Matrix: (Units=1/GPa)
#
#
# Indices 1 2 3 4 5 6 
#
# 1 0.015253 -0.004000 -0.008601 0.000000 0.000000 0.000000
# 2 -0.004000 0.009853 0.001145 0.000000 0.000000 0.000000
# 3 -0.008601 0.001145 0.018834 0.000000 0.000000 0.000000
# 4 0.000000 0.000000 0.000000 0.097359 0.000000 0.000000
# 5 0.000000 0.000000 0.000000 0.000000 -0.002788 0.000000
# 6 0.000000 0.000000 0.000000 0.000000 0.000000 0.052616
#
#
# Mechanical properties :
#
#
# Convention : Reuss Voigt Hill
#
# Bulk Modulus (GPa) = 47.55348 51.22114 49.38731
# Shear Modulus (GPa) = 22.61958 -52.64577 -15.01310
#
# Velocity S-wave (km/s) = 3.35502 -5.11841 -2.73331
# Velocity P-wave (km/s) = 6.21870 3.07273 3.82300
#
# Compressibility (1/GPa) = 0.02102895
#
# Stress axis : x y z
#
# Youngs Moduli (GPa) = 65.56233 101.49520 53.09417
#
# Poissons Ratio (x) = 0.40599 0.45665
# Poissons Ratio (y) = 0.26226 -0.06081
# Poissons Ratio (z) = 0.56388 -0.11625
#
# Static dielectric constant tensor:
#      x y z
#    x 1.711620 0.000000 0.000000 
#    y 0.000000 1.775090 0.000000 
#    z 0.000000 0.000000 1.711330 
# 
# From -- ./inp_files/52445.got.cif
#   From: 2010.05.17/outbox.cif.g08.bks.cpg/sg66_27_cif.got.tgz:52445.got - 2010.06.03 17:51:23.
