data_PCOD9496049
_publ_section_title
;
Structure prediction by ZEFSAII (Michael W. Deem and Ramdas Pophale) SiO2 
 PCOD9496049
Probable space group: C C C M
;
_chemical_formula_sum "Si O2"
_cell_formula_units_Z 72
_cell_length_a 27.949543
_cell_length_b 17.738239
_cell_length_c 9.342578
_cell_angle_alpha 90.000000
_cell_angle_beta 90.000000
_cell_angle_gamma 90.000000
_cell_volume 4631.822902
_symmetry_space_group_name_H-M "C C C M"
_symmetry_group_IT_number 66
_symmetry_cell_setting 'orthorhombic'
loop_
_space_group_symop_operation_xyz
x,y,z
-x,-y,z
x,-y,1/2-z
-x,y,1/2-z
-x,-y,-z
x,y,-z
-x,y,1/2+z
x,-y,1/2+z
1/2+x,1/2+y,z
1/2-x,1/2-y,z
1/2+x,1/2-y,1/2-z
1/2-x,1/2+y,1/2-z
1/2-x,1/2-y,-z
1/2+x,1/2+y,-z
1/2-x,1/2+y,1/2+z
1/2+x,1/2-y,1/2+z
loop_
_atom_site_type_symbol
_atom_site_label
_atom_site_fract_x
_atom_site_fract_y
_atom_site_fract_z
Si Si1 0.695053 0.069745 0.160962
Si Si2 0.546667 0.418503 0.827696
Si Si3 0.363883 0.370997 0.161264
Si Si4 0.197774 0.279663 0.833126
Si Si5 0.709049 0.500000 0.750000
O O1 0.685930 0.148025 0.239431
O O2 0.673891 0.000000 0.250000
O O3 0.752373 0.049943 0.161638
O O4 0.677812 0.071115 0.000000
O O5 0.550997 0.500000 0.750000
O O6 0.500000 0.383512 0.750000
O O7 0.595389 0.378377 0.780391
O O8 0.541579 0.424395 0.000000
O O9 0.337316 0.291335 0.176680
O O10 0.325504 0.439201 0.175485
O O11 0.384602 0.376033 0.000000
O O12 0.250000 0.250000 0.790477
O O13 0.200671 0.303271 0.000000
#
# Coordination Sequence:
#
# PCOD9496049 Si02
#       5
#    16  16  16  16   8
#     4  10  20  32  47  66  92 128 167 204 243 286
#     4  11  22  36  53  71  95 124 163 206 249 293
#     4  11  21  34  51  71  99 131 167 205 248 292
#     4  10  19  33  48  67  97 130 163 202 245 288
#     4  10  20  30  49  68  94 134 169 208 240 288
#
# _framework density 15.544635
#
# number of rings (size 3 to 8) (size 9 to 14) (size 15 to 20)
#    0.667    0.889    3.333    4.000    0.000    2.222 
#    0.000    0.000    0.000    0.000    0.000    0.000 
#    0.000    0.889    0.000    9.333    0.000    4.000 
#
# Total GULP energy -200479.301934 kJ/mol
# GULP energy per Si atom -5568.869498 kJ/mol
# Density = 1.550925 g / cm^3
# Si number density = 15.544635 Si / 1000 Ang^3
#
#
#
# Elastic Constant Matrix: (Units=GPa)
#
#
# Indices 1 2 3 4 5 6 
#
# 1 32.7522 1.8753 7.0529 0.0000 0.0000 0.0000
# 2 1.8753 93.8899 48.0301 0.0000 0.0000 0.0000
# 3 7.0529 48.0301 105.9668 0.0000 0.0000 0.0000
# 4 0.0000 0.0000 0.0000 21.7362 0.0000 0.0000
# 5 0.0000 0.0000 0.0000 0.0000 17.4381 0.0000
# 6 0.0000 0.0000 0.0000 0.0000 0.0000 10.5236
#
#
#
# Elastic Compliance Matrix: (Units=1/GPa)
#
#
# Indices 1 2 3 4 5 6 
#
# 1 0.030999 0.000568 -0.002321 0.000000 0.000000 0.000000
# 2 0.000568 0.013876 -0.006327 0.000000 0.000000 0.000000
# 3 -0.002321 -0.006327 0.012459 0.000000 0.000000 0.000000
# 4 0.000000 0.000000 0.000000 0.046006 0.000000 0.000000
# 5 0.000000 0.000000 0.000000 0.000000 0.057346 0.000000
# 6 0.000000 0.000000 0.000000 0.000000 0.000000 0.095025
#
#
# Mechanical properties :
#
#
# Convention : Reuss Voigt Hill
#
# Bulk Modulus (GPa) = 24.28659 38.50283 31.39471
# Shear Modulus (GPa) = 17.50722 21.64962 19.57842
#
# Velocity S-wave (km/s) = 3.35961 3.73599 3.55279
# Velocity P-wave (km/s) = 5.54139 6.59038 6.08852
#
# Compressibility (1/GPa) = 0.04117498
#
# Stress axis : x y z
#
# Youngs Moduli (GPa) = 32.25861 72.06585 80.26159
#
# Poissons Ratio (x) = -0.04093 0.18626
# Poissons Ratio (y) = -0.01832 0.50784
# Poissons Ratio (z) = 0.07486 0.45598
#
# Static dielectric constant tensor:
#      x y z
#    x 1.532370 0.000000 0.000000 
#    y 0.000000 1.509140 0.000000 
#    z 0.000000 0.000000 1.541540 
# 
# From -- ./inp_files/10055.got.cif
#   From: 2010.05.17/outbox.cif.g08.bks.cpg/sg66_6_cif.got.tgz:10055.got - 2010.06.03 17:51:23.
