data_PCOD9496023
_publ_section_title
;
Structure prediction by ZEFSAII (Michael W. Deem and Ramdas Pophale) SiO2 
 PCOD9496023
Probable space group: C C C M
;
_chemical_formula_sum "Si O2"
_cell_formula_units_Z 112
_cell_length_a 24.649307
_cell_length_b 13.711836
_cell_length_c 14.242719
_cell_angle_alpha 90.000000
_cell_angle_beta 90.000000
_cell_angle_gamma 90.000000
_cell_volume 4813.857500
_symmetry_space_group_name_H-M "C C C M"
_symmetry_group_IT_number 66
_symmetry_cell_setting 'orthorhombic'
loop_
_space_group_symop_operation_xyz
x,y,z
-x,-y,z
x,-y,1/2-z
-x,y,1/2-z
-x,-y,-z
x,y,-z
-x,y,1/2+z
x,-y,1/2+z
1/2+x,1/2+y,z
1/2-x,1/2-y,z
1/2+x,1/2-y,1/2-z
1/2-x,1/2+y,1/2-z
1/2-x,1/2-y,-z
1/2+x,1/2+y,-z
1/2-x,1/2+y,1/2+z
1/2+x,1/2-y,1/2+z
loop_
_atom_site_type_symbol
_atom_site_label
_atom_site_fract_x
_atom_site_fract_y
_atom_site_fract_z
Si Si1 0.269140 0.353404 0.391868
Si Si2 0.191296 0.273930 0.107757
Si Si3 0.828281 0.499264 0.637526
Si Si4 0.882648 0.064932 0.885105
Si Si5 0.470477 0.728363 0.114420
Si Si6 0.588906 0.345773 0.384866
Si Si7 0.947013 0.449715 0.852019
O O1 0.284393 0.332038 0.500000
O O2 0.250000 0.250000 0.351457
O O3 0.219045 0.427542 0.391827
O O4 0.322932 0.403471 0.350708
O O5 0.250000 0.250000 0.149167
O O6 0.183271 0.389266 0.107550
O O7 0.138497 0.221665 0.149343
O O8 0.193509 0.237443 0.000000
O O9 0.827701 0.500000 0.750000
O O10 0.888049 0.530816 0.604779
O O11 0.926354 0.146983 0.859409
O O12 0.900156 0.956786 0.855349
O O13 0.881754 0.060387 0.000000
O O14 0.530432 0.694604 0.143896
O O15 0.456476 0.834681 0.152988
O O16 0.469772 0.736369 0.000000
O O17 0.587854 0.343590 0.500000
O O18 0.943882 0.500000 0.750000
O O19 0.000000 0.500000 0.897120
#
# Coordination Sequence:
#
# PCOD9496023 Si02
#       7
#    16  16  16  16  16  16  16
#     4  10  20  35  56  81 111 148 187 228 277 334
#     4  10  20  35  56  81 110 144 182 226 276 335
#     4  11  23  37  55  80 108 143 185 229 277 328
#     4   9  17  31  53  83 117 147 176 220 280 337
#     4  10  19  32  55  86 114 141 182 232 274 323
#     4   9  17  30  51  82 115 144 178 225 280 333
#     4  10  22  39  55  75 106 148 185 220 274 330
#
# _framework density 23.266165999999998
#
# number of rings (size 3 to 8) (size 9 to 14) (size 15 to 20)
#    0.000    2.143    0.000    3.429    0.000    7.143 
#    0.000    0.000    0.000    1.714    0.000   12.000 
#    0.000    0.000    0.000    0.000    0.000    0.857 
#
# Total GULP energy -313302.526019 kJ/mol
# GULP energy per Si atom -5594.687965 kJ/mol
# Density = 2.321321 g / cm^3
# Si number density = 23.266166 Si / 1000 Ang^3
#
#
#
# Elastic Constant Matrix: (Units=GPa)
#
#
# Indices 1 2 3 4 5 6 
#
# 1 262.5081 143.2384 4.9745 0.0000 0.0000 0.0000
# 2 143.2384 242.9260 0.0926 0.0000 0.0000 0.0000
# 3 4.9745 0.0926 77.5785 0.0000 0.0000 0.0000
# 4 0.0000 0.0000 0.0000 29.5949 0.0000 0.0000
# 5 0.0000 0.0000 0.0000 0.0000 11.3764 0.0000
# 6 0.0000 0.0000 0.0000 0.0000 0.0000 49.1548
#
#
#
# Elastic Compliance Matrix: (Units=1/GPa)
#
#
# Indices 1 2 3 4 5 6 
#
# 1 0.005626 -0.003317 -0.000357 0.000000 0.000000 0.000000
# 2 -0.003317 0.006072 0.000205 0.000000 0.000000 0.000000
# 3 -0.000357 0.000205 0.012913 0.000000 0.000000 0.000000
# 4 0.000000 0.000000 0.000000 0.033790 0.000000 0.000000
# 5 0.000000 0.000000 0.000000 0.000000 0.087901 0.000000
# 6 0.000000 0.000000 0.000000 0.000000 0.000000 0.020344
#
#
# Mechanical properties :
#
#
# Convention : Reuss Voigt Hill
#
# Bulk Modulus (GPa) = 56.57976 97.73594 77.15785
# Shear Modulus (GPa) = 27.85899 47.00567 37.43233
#
# Velocity S-wave (km/s) = 3.46411 4.49970 4.01543
# Velocity P-wave (km/s) = 6.35384 8.31236 7.39820
#
# Compressibility (1/GPa) = 0.01767417
#
# Stress axis : x y z
#
# Youngs Moduli (GPa) = 177.73723 164.67874 77.44251
#
# Poissons Ratio (x) = 0.54629 0.02763
# Poissons Ratio (y) = 0.58961 -0.01591
# Poissons Ratio (z) = 0.06342 -0.03384
#
# Static dielectric constant tensor:
#      x y z
#    x 1.854380 0.000000 0.000000 
#    y 0.000000 1.784530 0.000000 
#    z 0.000000 0.000000 1.965170 
# 
# From -- ./inp_files/52622.got.cif
#   From: 2010.05.17/outbox.cif.g08.bks.cpg/sg66_27_cif.got.tgz:52622.got - 2010.06.03 17:51:23.
