data_PCOD9496403
_publ_section_title
;
Structure prediction by ZEFSAII (Michael W. Deem and Ramdas Pophale) SiO2 
 PCOD9496403
Probable space group: C C C M
;
_chemical_formula_sum "Si O2"
_cell_formula_units_Z 112
_cell_length_a 15.896060
_cell_length_b 14.488074
_cell_length_c 24.297566
_cell_angle_alpha 90.000000
_cell_angle_beta 90.000000
_cell_angle_gamma 90.000000
_cell_volume 5595.809476
_symmetry_space_group_name_H-M "C C C M"
_symmetry_group_IT_number 66
_symmetry_cell_setting 'orthorhombic'
loop_
_space_group_symop_operation_xyz
x,y,z
-x,-y,z
x,-y,1/2-z
-x,y,1/2-z
-x,-y,-z
x,y,-z
-x,y,1/2+z
x,-y,1/2+z
1/2+x,1/2+y,z
1/2-x,1/2-y,z
1/2+x,1/2-y,1/2-z
1/2-x,1/2+y,1/2-z
1/2-x,1/2-y,-z
1/2+x,1/2+y,-z
1/2-x,1/2+y,1/2+z
1/2+x,1/2-y,1/2+z
loop_
_atom_site_type_symbol
_atom_site_label
_atom_site_fract_x
_atom_site_fract_y
_atom_site_fract_z
Si Si1 0.580124 0.566252 0.936996
Si Si2 0.533164 0.099494 0.565094
Si Si3 0.303671 0.462266 0.834531
Si Si4 0.904238 0.179833 0.730789
Si Si5 0.326939 0.184037 0.857954
Si Si6 0.316822 0.325537 0.656465
Si Si7 0.446932 0.285035 0.562999
O O1 0.500000 0.500000 0.924891
O O2 0.654582 0.553617 0.894509
O O3 0.538567 0.667234 0.933002
O O4 0.605677 0.548763 0.000000
O O5 0.551763 0.093552 0.500000
O O6 0.614224 0.136882 0.597016
O O7 0.460709 0.176725 0.571888
O O8 0.500000 0.000000 0.584079
O O9 0.372099 0.418345 0.792967
O O10 0.221930 0.398978 0.827454
O O11 0.286029 0.570551 0.831902
O O12 0.882660 0.254059 0.683457
O O13 0.853447 0.206767 0.785271
O O14 0.000000 0.175229 0.750000
O O15 0.250000 0.250000 0.878307
O O16 0.250000 0.250000 0.637775
O O17 0.387718 0.327635 0.609224
O O18 0.417646 0.302271 0.500000
#
# Coordination Sequence:
#
# PCOD9496403 Si02
#       7
#    16  16  16  16  16  16  16
#     4  10  19  35  60  92 128 161 204 257 315 377
#     4  10  22  40  65  92 124 169 214 258 311 383
#     4  11  23  38  63  96 125 164 206 262 321 378
#     4  11  24  43  67  91 119 160 212 268 319 382
#     4  10  22  42  64  93 131 162 210 272 319 383
#     4  12  25  39  61  88 126 168 203 255 319 376
#     4  10  21  39  62  90 123 162 207 257 314 381
#
# _framework density 20.014977999999999
#
# number of rings (size 3 to 8) (size 9 to 14) (size 15 to 20)
#    0.000    1.429    1.429    5.143    2.000    1.714 
#    0.000    0.000    0.000    0.000    0.000    0.000 
#    0.000    0.000    0.000    0.000    0.000    0.000 
#
# Total GULP energy -312753.986294 kJ/mol
# GULP energy per Si atom -5584.892612 kJ/mol
# Density = 1.996942 g / cm^3
# Si number density = 20.014978 Si / 1000 Ang^3
#
#
#
# Elastic Constant Matrix: (Units=GPa)
#
#
# Indices 1 2 3 4 5 6 
#
# 1 71.9393 37.9793 30.1373 0.0000 0.0000 0.0000
# 2 37.9793 139.7720 25.3314 0.0000 0.0000 0.0000
# 3 30.1373 25.3314 77.4169 0.0000 0.0000 0.0000
# 4 0.0000 0.0000 0.0000 26.0807 0.0000 0.0000
# 5 0.0000 0.0000 0.0000 0.0000 -16.4670 0.0000
# 6 0.0000 0.0000 0.0000 0.0000 0.0000 20.9071
#
#
#
# Elastic Compliance Matrix: (Units=1/GPa)
#
#
# Indices 1 2 3 4 5 6 
#
# 1 0.018452 -0.003946 -0.005892 0.000000 0.000000 0.000000
# 2 -0.003946 0.008449 -0.001229 0.000000 0.000000 0.000000
# 3 -0.005892 -0.001229 0.015613 0.000000 0.000000 0.000000
# 4 0.000000 0.000000 0.000000 0.038343 0.000000 0.000000
# 5 0.000000 0.000000 0.000000 0.000000 -0.060728 0.000000
# 6 0.000000 0.000000 0.000000 0.000000 0.000000 0.047831
#
#
# Mechanical properties :
#
#
# Convention : Reuss Voigt Hill
#
# Bulk Modulus (GPa) = 49.06508 52.89159 50.97833
# Shear Modulus (GPa) = 51.60653 19.14950 35.37801
#
# Velocity S-wave (km/s) = 5.08330 3.09651 4.20882
# Velocity P-wave (km/s) = 7.68249 6.26641 7.01030
#
# Compressibility (1/GPa) = 0.02038109
#
# Stress axis : x y z
#
# Youngs Moduli (GPa) = 54.19411 118.35157 64.05027
#
# Poissons Ratio (x) = 0.46702 0.37738
# Poissons Ratio (y) = 0.21385 0.07869
# Poissons Ratio (z) = 0.31931 0.14540
#
# Static dielectric constant tensor:
#      x y z
#    x 1.721800 0.000000 0.000000 
#    y 0.000000 1.756410 0.000000 
#    z 0.000000 0.000000 1.708350 
# 
# From -- ./inp_files/58263.got.cif
#   From: 2010.05.17/outbox.cif.g08.bks.cpg/sg66_30_cif.got.tgz:58263.got - 2010.06.03 17:51:23.
