data_PCOD9496717
_publ_section_title
;
Structure prediction by ZEFSAII (Michael W. Deem and Ramdas Pophale) SiO2 
 PCOD9496717
Probable space group: C C C M
;
_chemical_formula_sum "Si O2"
_cell_formula_units_Z 88
_cell_length_a 30.491123
_cell_length_b 5.207010
_cell_length_c 33.067168
_cell_angle_alpha 90.000000
_cell_angle_beta 90.000000
_cell_angle_gamma 90.000000
_cell_volume 5249.994319
_symmetry_space_group_name_H-M "C C C M"
_symmetry_group_IT_number 66
_symmetry_cell_setting 'orthorhombic'
loop_
_space_group_symop_operation_xyz
x,y,z
-x,-y,z
x,-y,1/2-z
-x,y,1/2-z
-x,-y,-z
x,y,-z
-x,y,1/2+z
x,-y,1/2+z
1/2+x,1/2+y,z
1/2-x,1/2-y,z
1/2+x,1/2-y,1/2-z
1/2-x,1/2+y,1/2-z
1/2-x,1/2-y,-z
1/2+x,1/2+y,-z
1/2-x,1/2+y,1/2+z
1/2+x,1/2-y,1/2+z
loop_
_atom_site_type_symbol
_atom_site_label
_atom_site_fract_x
_atom_site_fract_y
_atom_site_fract_z
Si Si1 0.553370 0.494486 0.095555
Si Si2 0.891679 0.103367 0.323099
Si Si3 0.656496 0.083329 0.202790
Si Si4 0.480509 0.752497 0.704994
Si Si5 0.250000 0.750000 0.777579
Si Si6 0.553008 0.994608 0.045766
O O1 0.500000 0.500000 0.100333
O O2 0.581495 0.553738 0.135663
O O3 0.565724 0.220461 0.076476
O O4 0.564650 0.718589 0.063724
O O5 0.856165 0.332185 0.323344
O O6 0.928939 0.225008 0.293798
O O7 0.873140 0.832630 0.307170
O O8 0.706869 0.171050 0.197877
O O9 0.652537 0.000000 0.250000
O O10 0.500000 0.500000 0.685694
O O11 0.500000 0.757567 0.750000
O O12 0.500000 0.000000 0.683108
O O13 0.261217 0.500000 0.750000
O O14 0.500000 0.000000 0.043935
O O15 0.569196 0.034421 0.000000
#
# Coordination Sequence:
#
# PCOD9496717 Si02
#       6
#    16  16  16  16   8  16
#     4  10  20  33  48  71 107 140 169 213 256 291
#     4  12  23  35  52  76 102 137 174 213 262 307
#     4  11  24  37  57  75  96 128 175 223 266 319
#     4  10  22  34  45  61  93 133 177 214 237 273
#     4  10  20  42  58  78  94 118 163 230 289 316
#     4   9  17  31  52  72  93 132 182 215 247 297
#
# _framework density 16.761922999999999
#
# number of rings (size 3 to 8) (size 9 to 14) (size 15 to 20)
#    0.000    1.636    0.000    6.000    7.636    4.364 
#    0.000    0.000    0.000    0.000    0.000    0.000 
#    0.000    0.000    0.000   57.273    0.000    0.000 
#
# Total GULP energy -245400.035001 kJ/mol
# GULP energy per Si atom -5577.273523 kJ/mol
# Density = 1.672377 g / cm^3
# Si number density = 16.761923 Si / 1000 Ang^3
#
#
#
# Elastic Constant Matrix: (Units=GPa)
#
#
# Indices 1 2 3 4 5 6 
#
# 1 78.1130 33.3107 30.9565 0.0000 0.0000 0.0000
# 2 33.3107 138.2457 20.0582 0.0000 0.0000 0.0000
# 3 30.9565 20.0582 73.3487 0.0000 0.0000 0.0000
# 4 0.0000 0.0000 0.0000 17.8157 0.0000 0.0000
# 5 0.0000 0.0000 0.0000 0.0000 9.3148 0.0000
# 6 0.0000 0.0000 0.0000 0.0000 0.0000 30.5882
#
#
#
# Elastic Compliance Matrix: (Units=1/GPa)
#
#
# Indices 1 2 3 4 5 6 
#
# 1 0.016557 -0.003098 -0.006140 0.000000 0.000000 0.000000
# 2 -0.003098 0.008112 -0.000911 0.000000 0.000000 0.000000
# 3 -0.006140 -0.000911 0.016474 0.000000 0.000000 0.000000
# 4 0.000000 0.000000 0.000000 0.056130 0.000000 0.000000
# 5 0.000000 0.000000 0.000000 0.000000 0.107356 0.000000
# 6 0.000000 0.000000 0.000000 0.000000 0.000000 0.032692
#
#
# Mechanical properties :
#
#
# Convention : Reuss Voigt Hill
#
# Bulk Modulus (GPa) = 47.97560 50.92868 49.45214
# Shear Modulus (GPa) = 18.89867 25.23588 22.06727
#
# Velocity S-wave (km/s) = 3.36143 3.88435 3.63231
# Velocity P-wave (km/s) = 6.61435 7.11105 6.86719
#
# Compressibility (1/GPa) = 0.02084393
#
# Stress axis : x y z
#
# Youngs Moduli (GPa) = 60.39831 123.27082 60.70142
#
# Poissons Ratio (x) = 0.38195 0.37273
# Poissons Ratio (y) = 0.18714 0.05528
# Poissons Ratio (z) = 0.37087 0.11226
#
# Static dielectric constant tensor:
#      x y z
#    x 1.596850 0.000000 0.000000 
#    y 0.000000 1.635960 0.000000 
#    z 0.000000 0.000000 1.534040 
# 
# From -- ./inp_files/70542.got.cif
#   From: 2010.05.17/outbox.cif.g08.bks.cpg/sg66_36_cif.got.tgz:70542.got - 2010.06.03 17:51:23.
