data_PCOD9496695
_publ_section_title
;
Structure prediction by ZEFSAII (Michael W. Deem and Ramdas Pophale) SiO2 
 PCOD9496695
Probable space group: C C C M
;
_chemical_formula_sum "Si O2"
_cell_formula_units_Z 96
_cell_length_a 16.890241
_cell_length_b 11.670134
_cell_length_c 27.001672
_cell_angle_alpha 90.000000
_cell_angle_beta 90.000000
_cell_angle_gamma 90.000000
_cell_volume 5322.336716
_symmetry_space_group_name_H-M "C C C M"
_symmetry_group_IT_number 66
_symmetry_cell_setting 'orthorhombic'
loop_
_space_group_symop_operation_xyz
x,y,z
-x,-y,z
x,-y,1/2-z
-x,y,1/2-z
-x,-y,-z
x,y,-z
-x,y,1/2+z
x,-y,1/2+z
1/2+x,1/2+y,z
1/2-x,1/2-y,z
1/2+x,1/2-y,1/2-z
1/2-x,1/2+y,1/2-z
1/2-x,1/2-y,-z
1/2+x,1/2+y,-z
1/2-x,1/2+y,1/2+z
1/2+x,1/2-y,1/2+z
loop_
_atom_site_type_symbol
_atom_site_label
_atom_site_fract_x
_atom_site_fract_y
_atom_site_fract_z
Si Si1 0.983945 0.363629 0.693929
Si Si2 0.835812 0.497094 0.943312
Si Si3 0.833572 0.295881 0.635240
Si Si4 0.156609 0.905947 0.944874
Si Si5 0.918333 0.851763 0.943686
Si Si6 0.429872 0.217781 0.403105
O O1 0.895458 0.329604 0.677570
O O2 0.000000 0.500000 0.691397
O O3 0.000000 0.326147 0.750000
O O4 0.038716 0.308246 0.651538
O O5 0.835389 0.597378 0.902924
O O6 0.746168 0.449654 0.942550
O O7 0.898827 0.399048 0.928107
O O8 0.852185 0.535082 0.000000
O O9 0.750000 0.250000 0.654514
O O10 0.863116 0.194371 0.599670
O O11 0.140614 0.809043 0.904961
O O12 0.094173 0.010921 0.940799
O O13 0.146219 0.854229 0.000000
O O14 0.000422 0.785259 0.932746
O O15 0.893466 0.823220 0.000000
#
# Coordination Sequence:
#
# PCOD9496695 Si02
#       6
#    16  16  16  16  16  16
#     4  10  22  43  66  83 107 144 194 255 310 346
#     4  11  21  33  53  86 124 159 189 231 283 341
#     4  11  21  37  59  86 117 149 192 240 288 346
#     4  10  20  34  52  80 123 165 191 223 279 349
#     4  10  20  32  53  82 117 162 195 227 275 340
#     4  11  21  35  56  82 111 151 200 243 283 343
#
# _framework density 18.037189000000001
#
# number of rings (size 3 to 8) (size 9 to 14) (size 15 to 20)
#    0.000    1.500    3.333    3.000    0.000    3.333 
#    0.000    4.167    0.000    8.000    0.000    0.000 
#    0.000    0.000    0.000    0.000    0.000    0.000 
#
# Total GULP energy -267629.422372 kJ/mol
# GULP energy per Si atom -5575.612966 kJ/mol
# Density = 1.799614 g / cm^3
# Si number density = 18.037189 Si / 1000 Ang^3
#
#
#
# Elastic Constant Matrix: (Units=GPa)
#
#
# Indices 1 2 3 4 5 6 
#
# 1 84.3463 30.7284 60.2079 0.0000 0.0000 0.0000
# 2 30.7284 72.6326 41.3445 0.0000 0.0000 0.0000
# 3 60.2079 41.3445 128.8841 0.0000 0.0000 0.0000
# 4 0.0000 0.0000 0.0000 24.2596 0.0000 0.0000
# 5 0.0000 0.0000 0.0000 0.0000 20.1894 0.0000
# 6 0.0000 0.0000 0.0000 0.0000 0.0000 30.9723
#
#
#
# Elastic Compliance Matrix: (Units=1/GPa)
#
#
# Indices 1 2 3 4 5 6 
#
# 1 0.018510 -0.003559 -0.007505 0.000000 0.000000 0.000000
# 2 -0.003559 0.017528 -0.003960 0.000000 0.000000 0.000000
# 3 -0.007505 -0.003960 0.012535 0.000000 0.000000 0.000000
# 4 0.000000 0.000000 0.000000 0.041221 0.000000 0.000000
# 5 0.000000 0.000000 0.000000 0.000000 0.049531 0.000000
# 6 0.000000 0.000000 0.000000 0.000000 0.000000 0.032287
#
#
# Mechanical properties :
#
#
# Convention : Reuss Voigt Hill
#
# Bulk Modulus (GPa) = 53.98241 61.15829 57.57035
# Shear Modulus (GPa) = 24.05761 25.32308 24.69034
#
# Velocity S-wave (km/s) = 3.65605 3.75098 3.70382
# Velocity P-wave (km/s) = 6.91489 7.26224 7.09069
#
# Compressibility (1/GPa) = 0.01852455
#
# Stress axis : x y z
#
# Youngs Moduli (GPa) = 54.02578 57.05227 79.77438
#
# Poissons Ratio (x) = 0.20303 0.59872
# Poissons Ratio (y) = 0.19226 0.31593
# Poissons Ratio (z) = 0.40547 0.22594
#
# Static dielectric constant tensor:
#      x y z
#    x 1.691340 0.000000 0.000000 
#    y 0.000000 1.637290 0.000000 
#    z 0.000000 0.000000 1.564220 
# 
# From -- ./inp_files/56911.got.cif
#   From: 2010.05.17/outbox.cif.g08.bks.cpg/sg66_29_cif.got.tgz:56911.got - 2010.06.03 17:51:23.
