data_PCOD9496784
_publ_section_title
;
Structure prediction by ZEFSAII (Michael W. Deem and Ramdas Pophale) SiO2 
 PCOD9496784
Probable space group: C C C M
;
_chemical_formula_sum "Si O2"
_cell_formula_units_Z 96
_cell_length_a 24.508266
_cell_length_b 12.850277
_cell_length_c 14.849491
_cell_angle_alpha 90.000000
_cell_angle_beta 90.000000
_cell_angle_gamma 90.000000
_cell_volume 4676.669099
_symmetry_space_group_name_H-M "C C C M"
_symmetry_group_IT_number 66
_symmetry_cell_setting 'orthorhombic'
loop_
_space_group_symop_operation_xyz
x,y,z
-x,-y,z
x,-y,1/2-z
-x,y,1/2-z
-x,-y,-z
x,y,-z
-x,y,1/2+z
x,-y,1/2+z
1/2+x,1/2+y,z
1/2-x,1/2-y,z
1/2+x,1/2-y,1/2-z
1/2-x,1/2+y,1/2-z
1/2-x,1/2-y,-z
1/2+x,1/2+y,-z
1/2-x,1/2+y,1/2+z
1/2+x,1/2-y,1/2+z
loop_
_atom_site_type_symbol
_atom_site_label
_atom_site_fract_x
_atom_site_fract_y
_atom_site_fract_z
Si Si1 0.231782 0.371412 0.899909
Si Si2 0.345993 0.418761 0.168289
Si Si3 0.056278 0.959820 0.896292
Si Si4 0.982393 0.386930 0.354381
Si Si5 0.585218 0.767085 0.602814
Si Si6 0.132939 0.323026 0.212628
O O1 0.250000 0.250000 0.900359
O O2 0.287988 0.430569 0.880736
O O3 0.186010 0.383578 0.823373
O O4 0.210343 0.395826 0.000000
O O5 0.345862 0.500000 0.250000
O O6 0.398025 0.452629 0.110349
O O7 0.354044 0.298599 0.195088
O O8 0.080834 0.851482 0.861801
O O9 0.044289 0.934712 0.000000
O O10 0.000000 0.000000 0.854110
O O11 0.918765 0.359110 0.348175
O O12 0.000000 0.500000 0.390144
O O13 0.000000 0.385866 0.250000
O O14 0.022562 0.304977 0.399509
O O15 0.607402 0.772953 0.500000
O O16 0.616987 0.830873 0.681224
#
# Coordination Sequence:
#
# PCOD9496784 Si02
#       6
#    16  16  16  16  16  16
#     4   9  20  38  61  84 111 152 208 260 300 347
#     4  11  20  35  58  89 120 159 194 249 301 368
#     4  10  20  33  54  88 127 162 197 240 300 375
#     4   9  19  36  57  82 113 155 201 253 295 342
#     4  10  20  35  55  85 125 161 194 244 307 374
#     4  10  20  38  61  85 118 158 205 251 305 354
#
# _framework density 20.527432000000001
#
# number of rings (size 3 to 8) (size 9 to 14) (size 15 to 20)
#    0.000    2.167    1.667    1.500    0.000    2.000 
#    6.000    0.000    0.000    5.500    0.000    0.000 
#    0.000    0.000    0.000    0.000    0.000    0.000 
#
# Total GULP energy -267478.746787 kJ/mol
# GULP energy per Si atom -5572.473891 kJ/mol
# Density = 2.048071 g / cm^3
# Si number density = 20.527432 Si / 1000 Ang^3
#
#
#
# Elastic Constant Matrix: (Units=GPa)
#
#
# Indices 1 2 3 4 5 6 
#
# 1 140.0538 18.4764 48.6308 0.0000 0.0000 0.0000
# 2 18.4764 45.7174 11.2828 0.0000 0.0000 0.0000
# 3 48.6308 11.2828 100.2487 0.0000 0.0000 0.0000
# 4 0.0000 0.0000 0.0000 -42.9000 0.0000 0.0000
# 5 0.0000 0.0000 0.0000 0.0000 108.8273 0.0000
# 6 0.0000 0.0000 0.0000 0.0000 0.0000 28.1913
#
#
#
# Elastic Compliance Matrix: (Units=1/GPa)
#
#
# Indices 1 2 3 4 5 6 
#
# 1 0.008876 -0.002597 -0.004014 0.000000 0.000000 0.000000
# 2 -0.002597 0.023258 -0.001358 0.000000 0.000000 0.000000
# 3 -0.004014 -0.001358 0.012075 0.000000 0.000000 0.000000
# 4 0.000000 0.000000 0.000000 -0.023310 0.000000 0.000000
# 5 0.000000 0.000000 0.000000 0.000000 0.009189 0.000000
# 6 0.000000 0.000000 0.000000 0.000000 0.000000 0.035472
#
#
# Mechanical properties :
#
#
# Convention : Reuss Voigt Hill
#
# Bulk Modulus (GPa) = 35.36975 49.19995 42.28485
# Shear Modulus (GPa) = 54.99258 32.66571 43.82914
#
# Velocity S-wave (km/s) = 5.18150 3.99346 4.62578
# Velocity P-wave (km/s) = 7.28458 6.72931 7.01244
#
# Compressibility (1/GPa) = 0.02827275
#
# Stress axis : x y z
#
# Youngs Moduli (GPa) = 112.65889 42.99575 82.81526
#
# Poissons Ratio (x) = 0.11165 0.33239
# Poissons Ratio (y) = 0.29255 0.11246
# Poissons Ratio (z) = 0.45218 0.05839
#
# Static dielectric constant tensor:
#      x y z
#    x 1.755440 0.000000 0.000000 
#    y 0.000000 1.796570 0.000000 
#    z 0.000000 0.000000 1.773430 
# 
# From -- ./inp_files/31165.got.cif
#   From: 2010.05.17/outbox.cif.g08.bks.cpg/sg66_16_cif.got.tgz:31165.got - 2010.06.03 17:51:23.
