data_PCOD9496439
_publ_section_title
;
Structure prediction by ZEFSAII (Michael W. Deem and Ramdas Pophale) SiO2 
 PCOD9496439
Probable space group: C C C M
;
_chemical_formula_sum "Si O2"
_cell_formula_units_Z 112
_cell_length_a 15.007526
_cell_length_b 12.951033
_cell_length_c 27.856676
_cell_angle_alpha 90.000000
_cell_angle_beta 90.000000
_cell_angle_gamma 90.000000
_cell_volume 5414.306128
_symmetry_space_group_name_H-M "C C C M"
_symmetry_group_IT_number 66
_symmetry_cell_setting 'orthorhombic'
loop_
_space_group_symop_operation_xyz
x,y,z
-x,-y,z
x,-y,1/2-z
-x,y,1/2-z
-x,-y,-z
x,y,-z
-x,y,1/2+z
x,-y,1/2+z
1/2+x,1/2+y,z
1/2-x,1/2-y,z
1/2+x,1/2-y,1/2-z
1/2-x,1/2+y,1/2-z
1/2-x,1/2-y,-z
1/2+x,1/2+y,-z
1/2-x,1/2+y,1/2+z
1/2+x,1/2-y,1/2+z
loop_
_atom_site_type_symbol
_atom_site_label
_atom_site_fract_x
_atom_site_fract_y
_atom_site_fract_z
Si Si1 0.600773 0.969944 0.055657
Si Si2 0.318690 0.116584 0.139428
Si Si3 0.366934 0.661076 0.326203
Si Si4 0.652422 0.200485 0.055543
Si Si5 0.802083 0.143667 0.776586
Si Si6 0.560522 0.270361 0.152208
Si Si7 0.886520 0.443010 0.201383
O O1 0.647017 0.879100 0.085349
O O2 0.500000 0.000000 0.069847
O O3 0.656134 0.076446 0.061115
O O4 0.596876 0.941954 0.000000
O O5 0.341335 0.217568 0.169946
O O6 0.212037 0.104736 0.144225
O O7 0.381634 0.026168 0.159436
O O8 0.357062 0.621201 0.271667
O O9 0.468124 0.667714 0.343969
O O10 0.750000 0.250000 0.061843
O O11 0.589081 0.242184 0.098056
O O12 0.623122 0.220105 0.000000
O O13 0.750000 0.250000 0.766377
O O14 0.865132 0.160342 0.821796
O O15 0.718655 0.074781 0.789805
O O16 0.565683 0.162481 0.183932
O O17 0.915260 0.500000 0.250000
#
# Coordination Sequence:
#
# PCOD9496439 Si02
#       7
#    16  16  16  16  16  16  16
#     4  10  21  38  62  93 121 150 201 259 300 349
#     4  11  21  37  59  80 119 157 192 239 303 355
#     4  11  22  39  54  82 125 159 190 241 306 360
#     4  10  20  37  62  92 121 153 197 251 306 354
#     4  10  19  36  54  80 119 156 192 240 298 352
#     4  11  22  35  60  87 116 155 198 248 297 357
#     4  11  20  35  60  84 112 150 201 244 289 355
#
# _framework density 20.685938
#
# number of rings (size 3 to 8) (size 9 to 14) (size 15 to 20)
#    0.000    1.429    4.286    3.429    0.000    0.000 
#    0.000    5.000    0.000    0.000    0.000    3.000 
#    0.000    0.000    0.000    0.000    0.000    0.000 
#
# Total GULP energy -312341.898854 kJ/mol
# GULP energy per Si atom -5577.533908 kJ/mol
# Density = 2.063886 g / cm^3
# Si number density = 20.685938 Si / 1000 Ang^3
#
#
#
# Elastic Constant Matrix: (Units=GPa)
#
#
# Indices 1 2 3 4 5 6 
#
# 1 107.2758 14.6245 45.8419 0.0000 0.0000 0.0000
# 2 14.6245 27.6441 3.1526 0.0000 0.0000 0.0000
# 3 45.8419 3.1526 130.0907 0.0000 0.0000 0.0000
# 4 0.0000 0.0000 0.0000 34.1431 0.0000 0.0000
# 5 0.0000 0.0000 0.0000 0.0000 17.5183 0.0000
# 6 0.0000 0.0000 0.0000 0.0000 0.0000 -23.5728
#
#
#
# Elastic Compliance Matrix: (Units=1/GPa)
#
#
# Indices 1 2 3 4 5 6 
#
# 1 0.011835 -0.005801 -0.004030 0.000000 0.000000 0.000000
# 2 -0.005801 0.039118 0.001096 0.000000 0.000000 0.000000
# 3 -0.004030 0.001096 0.009080 0.000000 0.000000 0.000000
# 4 0.000000 0.000000 0.000000 0.029289 0.000000 0.000000
# 5 0.000000 0.000000 0.000000 0.000000 0.057083 0.000000
# 6 0.000000 0.000000 0.000000 0.000000 0.000000 -0.042422
#
#
# Mechanical properties :
#
#
# Convention : Reuss Voigt Hill
#
# Bulk Modulus (GPa) = 23.49419 43.58315 33.53867
# Shear Modulus (GPa) = 36.86214 19.04383 27.95298
#
# Velocity S-wave (km/s) = 4.22594 3.03746 3.68000
# Velocity P-wave (km/s) = 5.93243 5.78068 5.85704
#
# Compressibility (1/GPa) = 0.04256371
#
# Stress axis : x y z
#
# Youngs Moduli (GPa) = 84.49755 25.56358 110.12731
#
# Poissons Ratio (x) = 0.14830 0.44379
# Poissons Ratio (y) = 0.49020 -0.12073
# Poissons Ratio (z) = 0.34050 -0.02803
#
# Static dielectric constant tensor:
#      x y z
#    x 1.726570 0.000000 0.000000 
#    y 0.000000 2.027590 0.000000 
#    z 0.000000 0.000000 1.979860 
# 
# From -- ./inp_files/64684.got.cif
#   From: 2010.05.17/outbox.cif.g08.bks.cpg/sg66_33_cif.got.tgz:64684.got - 2010.06.03 17:51:23.
