data_PCOD9496157
_publ_section_title
;
Structure prediction by ZEFSAII (Michael W. Deem and Ramdas Pophale) SiO2 
 PCOD9496157
Probable space group: C C C M
;
_chemical_formula_sum "Si O2"
_cell_formula_units_Z 116
_cell_length_a 12.214877
_cell_length_b 15.688199
_cell_length_c 29.441451
_cell_angle_alpha 90.000000
_cell_angle_beta 90.000000
_cell_angle_gamma 90.000000
_cell_volume 5641.848213
_symmetry_space_group_name_H-M "C C C M"
_symmetry_group_IT_number 66
_symmetry_cell_setting 'orthorhombic'
loop_
_space_group_symop_operation_xyz
x,y,z
-x,-y,z
x,-y,1/2-z
-x,y,1/2-z
-x,-y,-z
x,y,-z
-x,y,1/2+z
x,-y,1/2+z
1/2+x,1/2+y,z
1/2-x,1/2-y,z
1/2+x,1/2-y,1/2-z
1/2-x,1/2+y,1/2-z
1/2-x,1/2-y,-z
1/2+x,1/2+y,-z
1/2-x,1/2+y,1/2+z
1/2+x,1/2-y,1/2+z
loop_
_atom_site_type_symbol
_atom_site_label
_atom_site_fract_x
_atom_site_fract_y
_atom_site_fract_z
Si Si1 0.000000 0.500000 0.250000
Si Si2 0.866165 0.205190 0.049922
Si Si3 0.113779 0.821963 0.766757
Si Si4 0.082020 0.292063 0.643670
Si Si5 0.871489 0.756245 0.827884
Si Si6 0.382480 0.450097 0.853512
Si Si7 0.869021 0.994675 0.450777
Si Si8 0.296468 0.931830 0.807002
O O1 0.088569 0.546753 0.217285
O O2 0.750000 0.250000 0.046393
O O3 0.916049 0.247148 0.094888
O O4 0.846895 0.105041 0.056994
O O5 0.922365 0.214626 0.000000
O O6 0.106074 0.774183 0.814987
O O7 0.127966 0.753077 0.726795
O O8 0.216302 0.883459 0.771761
O O9 0.000000 0.865646 0.750000
O O10 0.167193 0.368158 0.651994
O O11 0.955011 0.312752 0.653027
O O12 0.750000 0.750000 0.845447
O O13 0.904029 0.853017 0.840245
O O14 0.500000 0.500000 0.849333
O O15 0.342408 0.454036 0.905713
O O16 0.283755 0.493654 0.825226
O O17 0.822743 0.020757 0.500000
O O18 0.000000 0.000000 0.454003
#
# Coordination Sequence:
#
# PCOD9496157 Si02
#       8
#     4  16  16  16  16  16  16  16
#     4  12  32  40  54  84 118 168 210 254 296 364
#     4  10  19  33  57  91 124 151 191 250 312 364
#     4  10  21  37  62  90 116 152 199 249 303 359
#     4  11  22  37  63  89 121 158 201 250 310 361
#     4  11  24  38  58  84 121 164 201 247 298 365
#     4  11  22  39  63  90 121 157 204 254 306 361
#     4   9  17  31  56  89 125 154 189 246 308 364
#     4  12  25  40  61  85 122 159 207 254 299 366
#
# _framework density 20.560638999999998
#
# number of rings (size 3 to 8) (size 9 to 14) (size 15 to 20)
#    0.000    1.379    0.000    7.862    6.759    0.000 
#    0.000    2.759    0.000    1.655    0.000    0.966 
#    0.000    0.000    0.000    0.000    0.000    0.000 
#
# Total GULP energy -323379.443495 kJ/mol
# GULP energy per Si atom -5575.507646 kJ/mol
# Density = 2.051384 g / cm^3
# Si number density = 20.560639 Si / 1000 Ang^3
#
#
#
# Elastic Constant Matrix: (Units=GPa)
#
#
# Indices 1 2 3 4 5 6 
#
# 1 108.7331 11.1275 -2.9664 0.0000 0.0000 0.0000
# 2 11.1275 48.2676 9.1662 0.0000 0.0000 0.0000
# 3 -2.9664 9.1662 125.1249 0.0000 0.0000 0.0000
# 4 0.0000 0.0000 0.0000 21.4637 0.0000 0.0000
# 5 0.0000 0.0000 0.0000 0.0000 16.7921 0.0000
# 6 0.0000 0.0000 0.0000 0.0000 0.0000 42.1482
#
#
#
# Elastic Compliance Matrix: (Units=1/GPa)
#
#
# Indices 1 2 3 4 5 6 
#
# 1 0.009438 -0.002250 0.000389 0.000000 0.000000 0.000000
# 2 -0.002250 0.021546 -0.001632 0.000000 0.000000 0.000000
# 3 0.000389 -0.001632 0.008121 0.000000 0.000000 0.000000
# 4 0.000000 0.000000 0.000000 0.046590 0.000000 0.000000
# 5 0.000000 0.000000 0.000000 0.000000 0.059552 0.000000
# 6 0.000000 0.000000 0.000000 0.000000 0.000000 0.023726
#
#
# Mechanical properties :
#
#
# Convention : Reuss Voigt Hill
#
# Bulk Modulus (GPa) = 31.13394 35.19779 33.16586
# Shear Modulus (GPa) = 26.78604 33.73403 30.26003
#
# Velocity S-wave (km/s) = 3.61332 4.05496 3.84050
# Velocity P-wave (km/s) = 5.70820 6.25138 5.98595
#
# Compressibility (1/GPa) = 0.03211929
#
# Stress axis : x y z
#
# Youngs Moduli (GPa) = 105.95874 46.41163 123.14113
#
# Poissons Ratio (x) = 0.10440 -0.04785
# Poissons Ratio (y) = 0.23836 0.20093
# Poissons Ratio (z) = -0.04117 0.07573
#
# Static dielectric constant tensor:
#      x y z
#    x 1.803110 0.000000 0.000000 
#    y 0.000000 1.768960 0.000000 
#    z 0.000000 0.000000 1.826970 
# 
# From -- ./inp_files/63854.got.cif
#   From: 2010.05.17/outbox.cif.g08.bks.cpg/sg66_32_cif.got.tgz:63854.got - 2010.06.03 17:51:23.
