data_PCOD9496248
_publ_section_title
;
Structure prediction by ZEFSAII (Michael W. Deem and Ramdas Pophale) SiO2 
 PCOD9496248
Probable space group: C C C M
;
_chemical_formula_sum "Si O2"
_cell_formula_units_Z 88
_cell_length_a 6.763616
_cell_length_b 23.190353
_cell_length_c 26.552808
_cell_angle_alpha 90.000000
_cell_angle_beta 90.000000
_cell_angle_gamma 90.000000
_cell_volume 4164.824998
_symmetry_space_group_name_H-M "C C C M"
_symmetry_group_IT_number 66
_symmetry_cell_setting 'orthorhombic'
loop_
_space_group_symop_operation_xyz
x,y,z
-x,-y,z
x,-y,1/2-z
-x,y,1/2-z
-x,-y,-z
x,y,-z
-x,y,1/2+z
x,-y,1/2+z
1/2+x,1/2+y,z
1/2-x,1/2-y,z
1/2+x,1/2-y,1/2-z
1/2-x,1/2+y,1/2-z
1/2-x,1/2-y,-z
1/2+x,1/2+y,-z
1/2-x,1/2+y,1/2+z
1/2+x,1/2-y,1/2+z
loop_
_atom_site_type_symbol
_atom_site_label
_atom_site_fract_x
_atom_site_fract_y
_atom_site_fract_z
Si Si1 0.120423 0.694365 0.877122
Si Si2 0.508367 0.368552 0.654219
Si Si3 0.232431 0.647634 0.442885
Si Si4 0.165031 0.307049 0.784639
Si Si5 0.727932 0.989900 0.947387
Si Si6 0.500000 0.500000 0.640299
O O1 0.250000 0.750000 0.892390
O O2 0.280465 0.650536 0.852023
O O3 0.982370 0.667319 0.921275
O O4 0.960081 0.710768 0.834264
O O5 0.608824 0.343976 0.602086
O O6 0.643871 0.341498 0.697700
O O7 0.535301 0.437514 0.663796
O O8 0.266300 0.670870 0.500000
O O9 0.248718 0.578583 0.447389
O O10 0.250000 0.250000 0.758034
O O11 0.000000 0.336874 0.750000
O O12 0.500000 0.000000 0.945345
O O13 0.825198 0.014861 0.898454
O O14 0.802597 0.015955 0.000000
#
# Coordination Sequence:
#
# PCOD9496248 Si02
#       6
#    16  16  16  16  16   8
#     4  11  21  37  59  85 119 150 197 253 299 352
#     4  10  22  38  59  90 123 156 201 245 291 358
#     4   9  20  34  50  80 121 165 207 248 292 344
#     4  11  23  40  66  96 112 139 187 252 307 355
#     4   9  16  28  48  76 109 151 210 255 278 318
#     4  10  19  34  56  81 118 164 188 228 291 347
#
# _framework density 21.129339000000002
#
# number of rings (size 3 to 8) (size 9 to 14) (size 15 to 20)
#    0.000    2.000    1.818    1.909    0.000    1.818 
#    0.000    0.909    0.000    3.273    0.000    0.000 
#    0.000    0.000    0.000    0.000    0.000    0.000 
#
# Total GULP energy -244986.247915 kJ/mol
# GULP energy per Si atom -5567.869271 kJ/mol
# Density = 2.108125 g / cm^3
# Si number density = 21.129339 Si / 1000 Ang^3
#
#
#
# Elastic Constant Matrix: (Units=GPa)
#
#
# Indices 1 2 3 4 5 6 
#
# 1 101.4416 14.4067 13.9609 0.0000 0.0000 0.0000
# 2 14.4067 81.1441 15.4959 0.0000 0.0000 0.0000
# 3 13.9609 15.4959 53.0085 0.0000 0.0000 0.0000
# 4 0.0000 0.0000 0.0000 16.9857 0.0000 0.0000
# 5 0.0000 0.0000 0.0000 0.0000 36.8721 0.0000
# 6 0.0000 0.0000 0.0000 0.0000 0.0000 30.7758
#
#
#
# Elastic Compliance Matrix: (Units=1/GPa)
#
#
# Indices 1 2 3 4 5 6 
#
# 1 0.010376 -0.001398 -0.002324 0.000000 0.000000 0.000000
# 2 -0.001398 0.013241 -0.003502 0.000000 0.000000 0.000000
# 3 -0.002324 -0.003502 0.020501 0.000000 0.000000 0.000000
# 4 0.000000 0.000000 0.000000 0.058873 0.000000 0.000000
# 5 0.000000 0.000000 0.000000 0.000000 0.027121 0.000000
# 6 0.000000 0.000000 0.000000 0.000000 0.000000 0.032493
#
#
# Mechanical properties :
#
#
# Convention : Reuss Voigt Hill
#
# Bulk Modulus (GPa) = 33.70597 35.92459 34.81528
# Shear Modulus (GPa) = 26.74597 29.70876 28.22737
#
# Velocity S-wave (km/s) = 3.56170 3.75379 3.65901
# Velocity P-wave (km/s) = 5.73595 5.98557 5.86209
#
# Compressibility (1/GPa) = 0.02966833
#
# Stress axis : x y z
#
# Youngs Moduli (GPa) = 96.37308 75.52366 48.77857
#
# Poissons Ratio (x) = 0.10562 0.11336
# Poissons Ratio (y) = 0.13477 0.17084
# Poissons Ratio (z) = 0.22397 0.26451
#
# Static dielectric constant tensor:
#      x y z
#    x 1.796080 0.000000 0.000000 
#    y 0.000000 1.767780 0.000000 
#    z 0.000000 0.000000 1.844090 
# 
# From -- ./inp_files/67262.got.cif
#   From: 2010.05.17/outbox.cif.g08.bks.cpg/sg66_34_cif.got.tgz:67262.got - 2010.06.03 17:51:23.
