data_PCOD9496571
_publ_section_title
;
Structure prediction by ZEFSAII (Michael W. Deem and Ramdas Pophale) SiO2 
 PCOD9496571
Probable space group: C C C M
;
_chemical_formula_sum "Si O2"
_cell_formula_units_Z 112
_cell_length_a 13.925865
_cell_length_b 22.544922
_cell_length_c 15.909398
_cell_angle_alpha 90.000000
_cell_angle_beta 90.000000
_cell_angle_gamma 90.000000
_cell_volume 4994.875462
_symmetry_space_group_name_H-M "C C C M"
_symmetry_group_IT_number 66
_symmetry_cell_setting 'orthorhombic'
loop_
_space_group_symop_operation_xyz
x,y,z
-x,-y,z
x,-y,1/2-z
-x,y,1/2-z
-x,-y,-z
x,y,-z
-x,y,1/2+z
x,-y,1/2+z
1/2+x,1/2+y,z
1/2-x,1/2-y,z
1/2+x,1/2-y,1/2-z
1/2-x,1/2+y,1/2-z
1/2-x,1/2-y,-z
1/2+x,1/2+y,-z
1/2-x,1/2+y,1/2+z
1/2+x,1/2-y,1/2+z
loop_
_atom_site_type_symbol
_atom_site_label
_atom_site_fract_x
_atom_site_fract_y
_atom_site_fract_z
Si Si1 0.912347 0.936864 0.702991
Si Si2 0.527544 0.364272 0.402622
Si Si3 0.194684 0.587546 0.750821
Si Si4 0.921666 0.630013 0.404563
Si Si5 0.287780 0.692105 0.680065
Si Si6 0.911369 0.546557 0.094493
Si Si7 0.921857 0.245993 0.180106
O O1 0.961280 0.923464 0.614145
O O2 0.802904 0.919252 0.713920
O O3 0.000000 0.901027 0.750000
O O4 0.911464 0.000000 0.750000
O O5 0.545901 0.362555 0.500000
O O6 0.633102 0.350761 0.362495
O O7 0.464158 0.308087 0.373825
O O8 0.127750 0.591501 0.831535
O O9 0.199260 0.651635 0.706514
O O10 0.159388 0.544830 0.674972
O O11 0.887207 0.618452 0.500000
O O12 0.903393 0.697794 0.378651
O O13 0.032559 0.609557 0.403020
O O14 0.250000 0.750000 0.630825
O O15 0.337233 0.718474 0.763957
O O16 0.000000 0.500000 0.100144
O O17 0.868293 0.539426 0.000000
O O18 0.000000 0.264730 0.250000
#
# Coordination Sequence:
#
# PCOD9496571 Si02
#       7
#    16  16  16  16  16  16  16
#     4  11  24  46  69  95 131 183 245 294 355 436
#     4  11  23  42  67  98 146 189 235 308 375 429
#     4  12  23  42  72 100 136 192 238 300 375 435
#     4  11  24  40  63 102 144 189 249 305 368 447
#     4  11  22  40  66 100 139 187 241 294 351 446
#     4  10  25  47  69 101 143 184 244 313 375 450
#     4  10  19  38  63  91 134 189 237 288 362 435
#
# _framework density 22.422981
#
# number of rings (size 3 to 8) (size 9 to 14) (size 15 to 20)
#    0.000    1.143    4.286    2.143    4.000    2.000 
#    0.000    2.857    0.000    0.000    0.000    0.000 
#    0.000    0.000    0.000    0.000    0.000    0.000 
#
# Total GULP energy -311923.642547 kJ/mol
# GULP energy per Si atom -5570.065045 kJ/mol
# Density = 2.237194 g / cm^3
# Si number density = 22.422981 Si / 1000 Ang^3
#
#
#
# Elastic Constant Matrix: (Units=GPa)
#
#
# Indices 1 2 3 4 5 6 
#
# 1 79.6555 5.9530 53.8949 0.0000 0.0000 0.0000
# 2 5.9530 91.6341 30.0852 0.0000 0.0000 0.0000
# 3 53.8949 30.0852 147.7249 0.0000 0.0000 0.0000
# 4 0.0000 0.0000 0.0000 19.9183 0.0000 0.0000
# 5 0.0000 0.0000 0.0000 0.0000 10.8811 0.0000
# 6 0.0000 0.0000 0.0000 0.0000 0.0000 35.8467
#
#
#
# Elastic Compliance Matrix: (Units=1/GPa)
#
#
# Indices 1 2 3 4 5 6 
#
# 1 0.016751 0.000984 -0.006312 0.000000 0.000000 0.000000
# 2 0.000984 0.011753 -0.002753 0.000000 0.000000 0.000000
# 3 -0.006312 -0.002753 0.009633 0.000000 0.000000 0.000000
# 4 0.000000 0.000000 0.000000 0.050205 0.000000 0.000000
# 5 0.000000 0.000000 0.000000 0.000000 0.091903 0.000000
# 6 0.000000 0.000000 0.000000 0.000000 0.000000 0.027897
#
#
# Mechanical properties :
#
#
# Convention : Reuss Voigt Hill
#
# Bulk Modulus (GPa) = 45.50429 55.43119 50.46774
# Shear Modulus (GPa) = 21.58646 28.60130 25.09388
#
# Velocity S-wave (km/s) = 3.10610 3.57534 3.34895
# Velocity P-wave (km/s) = 5.76207 6.46672 6.12454
#
# Compressibility (1/GPa) = 0.02197595
#
# Stress axis : x y z
#
# Youngs Moduli (GPa) = 59.69784 85.08650 103.81381
#
# Poissons Ratio (x) = -0.08373 0.65524
# Poissons Ratio (y) = -0.05874 0.28575
# Poissons Ratio (z) = 0.37680 0.23420
#
# Static dielectric constant tensor:
#      x y z
#    x 1.898280 0.000000 0.000000 
#    y 0.000000 1.971840 0.000000 
#    z 0.000000 0.000000 2.214540 
# 
# From -- ./inp_files/28671.got.cif
#   From: 2010.05.17/outbox.cif.g08.bks.cpg/sg66_15_cif.got.tgz:28671.got - 2010.06.03 17:51:23.
