data_PCOD9496006
_publ_section_title
;
Structure prediction by ZEFSAII (Michael W. Deem and Ramdas Pophale) SiO2 
 PCOD9496006
Probable space group: C C C M
;
_chemical_formula_sum "Si O2"
_cell_formula_units_Z 100
_cell_length_a 30.589749
_cell_length_b 9.238955
_cell_length_c 19.533474
_cell_angle_alpha 90.000000
_cell_angle_beta 90.000000
_cell_angle_gamma 90.000000
_cell_volume 5520.497964
_symmetry_space_group_name_H-M "C C C M"
_symmetry_group_IT_number 66
_symmetry_cell_setting 'orthorhombic'
loop_
_space_group_symop_operation_xyz
x,y,z
-x,-y,z
x,-y,1/2-z
-x,y,1/2-z
-x,-y,-z
x,y,-z
-x,y,1/2+z
x,-y,1/2+z
1/2+x,1/2+y,z
1/2-x,1/2-y,z
1/2+x,1/2-y,1/2-z
1/2-x,1/2+y,1/2-z
1/2-x,1/2-y,-z
1/2+x,1/2+y,-z
1/2-x,1/2+y,1/2+z
1/2+x,1/2-y,1/2+z
loop_
_atom_site_type_symbol
_atom_site_label
_atom_site_fract_x
_atom_site_fract_y
_atom_site_fract_z
Si Si1 0.633631 0.511757 0.420391
Si Si2 0.897567 0.675083 0.417419
Si Si3 0.301893 0.261148 0.079122
Si Si4 0.004353 0.672913 0.923269
Si Si5 0.568760 0.685681 0.165708
Si Si6 0.361921 0.077194 0.819982
Si Si7 0.000000 0.000000 0.750000
O O1 0.620076 0.495422 0.500000
O O2 0.632018 0.682578 0.406355
O O3 0.679019 0.424198 0.412822
O O4 0.599497 0.429426 0.372350
O O5 0.898349 0.642337 0.500000
O O6 0.947557 0.710536 0.395270
O O7 0.881282 0.541915 0.372271
O O8 0.250000 0.250000 0.086351
O O9 0.325865 0.163016 0.135550
O O10 0.313032 0.217470 0.000000
O O11 0.000000 0.500000 0.923859
O O12 0.961752 0.731057 0.887371
O O13 0.004201 0.730710 0.000000
O O14 0.600509 0.805320 0.199170
O O15 0.533418 0.603269 0.210509
O O16 0.346915 0.000000 0.750000
#
# Coordination Sequence:
#
# PCOD9496006 Si02
#       7
#    16  16  16  16  16  16   4
#     4   9  19  36  61  87 112 145 189 244 298 348
#     4  10  20  36  57  85 117 150 197 249 296 344
#     4   9  19  41  69  92 114 149 198 245 297 364
#     4  10  19  32  54  81 107 144 198 249 287 334
#     4  11  23  37  54  75 114 160 196 243 279 350
#     4  11  24  38  58  85 120 156 192 234 302 366
#     4  12  28  36  52  76 116 160 218 242 280 324
#
# _framework density 18.114308999999999
#
# number of rings (size 3 to 8) (size 9 to 14) (size 15 to 20)
#    0.000    1.920    1.600    1.920    4.480    1.280 
#    0.000    5.600    0.000    3.840    0.000    0.000 
#    0.000    0.000    0.000    0.000    0.000    0.000 
#
# Total GULP energy -278764.916349 kJ/mol
# GULP energy per Si atom -5575.298327 kJ/mol
# Density = 1.807308 g / cm^3
# Si number density = 18.114309 Si / 1000 Ang^3
#
#
#
# Elastic Constant Matrix: (Units=GPa)
#
#
# Indices 1 2 3 4 5 6 
#
# 1 94.8201 31.2961 32.1619 0.0000 0.0000 0.0000
# 2 31.2961 78.8545 31.4607 0.0000 0.0000 0.0000
# 3 32.1619 31.4607 51.2683 0.0000 0.0000 0.0000
# 4 0.0000 0.0000 0.0000 16.5908 0.0000 0.0000
# 5 0.0000 0.0000 0.0000 0.0000 21.0848 0.0000
# 6 0.0000 0.0000 0.0000 0.0000 0.0000 14.3295
#
#
#
# Elastic Compliance Matrix: (Units=1/GPa)
#
#
# Indices 1 2 3 4 5 6 
#
# 1 0.013812 -0.002681 -0.007019 0.000000 0.000000 0.000000
# 2 -0.002681 0.017313 -0.008942 0.000000 0.000000 0.000000
# 3 -0.007019 -0.008942 0.029396 0.000000 0.000000 0.000000
# 4 0.000000 0.000000 0.000000 0.060275 0.000000 0.000000
# 5 0.000000 0.000000 0.000000 0.000000 0.047428 0.000000
# 6 0.000000 0.000000 0.000000 0.000000 0.000000 0.069786
#
#
# Mechanical properties :
#
#
# Convention : Reuss Voigt Hill
#
# Bulk Modulus (GPa) = 43.03709 46.08668 44.56189
# Shear Modulus (GPa) = 17.66527 19.06928 18.36728
#
# Velocity S-wave (km/s) = 3.12622 3.24808 3.18774
# Velocity P-wave (km/s) = 6.06970 6.29000 6.18083
#
# Compressibility (1/GPa) = 0.02323577
#
# Stress axis : x y z
#
# Youngs Moduli (GPa) = 72.40005 57.75846 34.01819
#
# Poissons Ratio (x) = 0.15487 0.23878
# Poissons Ratio (y) = 0.19413 0.30420
# Poissons Ratio (z) = 0.50820 0.51649
#
# Static dielectric constant tensor:
#      x y z
#    x 1.598980 0.000000 0.000000 
#    y 0.000000 1.564560 0.000000 
#    z 0.000000 0.000000 1.588720 
# 
# From -- ./inp_files/53043.got.cif
#   From: 2010.05.17/outbox.cif.g08.bks.cpg/sg66_27_cif.got.tgz:53043.got - 2010.06.03 17:51:23.
