data_PCOD9496040
_publ_section_title
;
Structure prediction by ZEFSAII (Michael W. Deem and Ramdas Pophale) SiO2 
 PCOD9496040
Probable space group: C C C M
;
_chemical_formula_sum "Si O2"
_cell_formula_units_Z 64
_cell_length_a 9.037725
_cell_length_b 15.883737
_cell_length_c 21.058694
_cell_angle_alpha 90.000000
_cell_angle_beta 90.000000
_cell_angle_gamma 90.000000
_cell_volume 3023.035477
_symmetry_space_group_name_H-M "C C C M"
_symmetry_group_IT_number 66
_symmetry_cell_setting 'orthorhombic'
loop_
_space_group_symop_operation_xyz
x,y,z
-x,-y,z
x,-y,1/2-z
-x,y,1/2-z
-x,-y,-z
x,y,-z
-x,y,1/2+z
x,-y,1/2+z
1/2+x,1/2+y,z
1/2-x,1/2-y,z
1/2+x,1/2-y,1/2-z
1/2-x,1/2+y,1/2-z
1/2-x,1/2-y,-z
1/2+x,1/2+y,-z
1/2-x,1/2+y,1/2+z
1/2+x,1/2-y,1/2+z
loop_
_atom_site_type_symbol
_atom_site_label
_atom_site_fract_x
_atom_site_fract_y
_atom_site_fract_z
Si Si1 0.328992 0.603583 0.749282
Si Si2 0.110611 0.084393 0.000000
Si Si3 0.815396 0.841290 0.500000
Si Si4 0.324421 0.903205 0.621354
Si Si5 0.656628 0.102321 0.125936
O O1 0.329125 0.500000 0.750000
O O2 0.500000 0.629499 0.750000
O O3 0.253675 0.632040 0.683967
O O4 0.237253 0.634385 0.810557
O O5 0.215953 0.094929 0.060948
O O6 0.990775 0.157818 0.000000
O O7 0.000000 0.000000 0.000000
O O8 0.750000 0.750000 0.500000
O O9 0.754726 0.883873 0.436281
O O10 0.489443 0.865977 0.613609
O O11 0.349470 0.002079 0.634654
#
# Coordination Sequence:
#
# PCOD9496040 Si02
#       5
#    16   8   8  16  16
#     4   9  17  28  52  85 119 146 185 242 300 349
#     4  12  21  35  59  87 116 152 205 254 306 361
#     4  12  25  39  57  81 120 161 195 242 301 372
#     4  10  19  32  58  88 114 148 189 255 304 347
#     4  10  19  35  54  84 120 150 194 243 304 352
#
# _framework density 21.170773000000001
#
# number of rings (size 3 to 8) (size 9 to 14) (size 15 to 20)
#    0.000    1.750    2.500    3.000    3.500    5.000 
#    0.000    2.500    0.000    9.000    0.000    0.000 
#    0.000    0.000    0.000    0.000    0.000    0.000 
#
# Total GULP energy -178515.825040 kJ/mol
# GULP energy per Si atom -5578.619532 kJ/mol
# Density = 2.112259 g / cm^3
# Si number density = 21.170773 Si / 1000 Ang^3
#
#
#
# Elastic Constant Matrix: (Units=GPa)
#
#
# Indices 1 2 3 4 5 6 
#
# 1 226.2596 3.5320 121.7973 0.0000 0.0000 0.0000
# 2 3.5320 13.1334 -6.3992 0.0000 0.0000 0.0000
# 3 121.7973 -6.3992 216.4351 0.0000 0.0000 0.0000
# 4 0.0000 0.0000 0.0000 -38.2137 0.0000 0.0000
# 5 0.0000 0.0000 0.0000 0.0000 37.9820 0.0000
# 6 0.0000 0.0000 0.0000 0.0000 0.0000 11.0459
#
#
#
# Elastic Compliance Matrix: (Units=1/GPa)
#
#
# Indices 1 2 3 4 5 6 
#
# 1 0.006502 -0.003583 -0.003765 0.000000 0.000000 0.000000
# 2 -0.003583 0.079229 0.004359 0.000000 0.000000 0.000000
# 3 -0.003765 0.004359 0.006868 0.000000 0.000000 0.000000
# 4 0.000000 0.000000 0.000000 -0.026169 0.000000 0.000000
# 5 0.000000 0.000000 0.000000 0.000000 0.026328 0.000000
# 6 0.000000 0.000000 0.000000 0.000000 0.000000 0.090531
#
#
# Mechanical properties :
#
#
# Convention : Reuss Voigt Hill
#
# Bulk Modulus (GPa) = 11.54457 77.07649 44.31053
# Shear Modulus (GPa) = 22.92074 24.62270 23.77172
#
# Velocity S-wave (km/s) = 3.29395 3.41405 3.35454
# Velocity P-wave (km/s) = 4.46449 7.21298 5.99828
#
# Compressibility (1/GPa) = 0.08662078
#
# Stress axis : x y z
#
# Youngs Moduli (GPa) = 153.78811 12.62161 145.60244
#
# Poissons Ratio (x) = 0.04523 0.54822
# Poissons Ratio (y) = 0.55107 -0.63468
# Poissons Ratio (z) = 0.57904 -0.05502
#
# Static dielectric constant tensor:
#      x y z
#    x 1.774630 0.000000 0.000000 
#    y 0.000000 1.778570 0.000000 
#    z 0.000000 0.000000 2.185260 
# 
# From -- ./inp_files/36421.got.cif
#   From: 2010.05.17/outbox.cif.g08.bks.cpg/sg66_19_cif.got.tgz:36421.got - 2010.06.03 17:51:23.
