data_PCOD9496557
_publ_section_title
;
Structure prediction by ZEFSAII (Michael W. Deem and Ramdas Pophale) SiO2 
 PCOD9496557
Probable space group: C C C M
;
_chemical_formula_sum "Si O2"
_cell_formula_units_Z 88
_cell_length_a 12.023193
_cell_length_b 16.149663
_cell_length_c 18.227067
_cell_angle_alpha 90.000000
_cell_angle_beta 90.000000
_cell_angle_gamma 90.000000
_cell_volume 3539.158989
_symmetry_space_group_name_H-M "C C C M"
_symmetry_group_IT_number 66
_symmetry_cell_setting 'orthorhombic'
loop_
_space_group_symop_operation_xyz
x,y,z
-x,-y,z
x,-y,1/2-z
-x,y,1/2-z
-x,-y,-z
x,y,-z
-x,y,1/2+z
x,-y,1/2+z
1/2+x,1/2+y,z
1/2-x,1/2-y,z
1/2+x,1/2-y,1/2-z
1/2-x,1/2+y,1/2-z
1/2-x,1/2-y,-z
1/2+x,1/2+y,-z
1/2-x,1/2+y,1/2+z
1/2+x,1/2-y,1/2+z
loop_
_atom_site_type_symbol
_atom_site_label
_atom_site_fract_x
_atom_site_fract_y
_atom_site_fract_z
Si Si1 0.967593 0.819259 0.842867
Si Si2 0.530255 0.301046 0.500000
Si Si3 0.514819 0.868527 0.836534
Si Si4 0.456735 0.875636 0.000000
Si Si5 0.831914 0.944906 0.658015
Si Si6 0.703842 0.387309 0.000000
Si Si7 0.241685 0.122033 0.209079
O O1 0.023393 0.728317 0.840432
O O2 0.855390 0.811043 0.796292
O O3 0.055047 0.892727 0.827449
O O4 0.923976 0.835320 0.925009
O O5 0.538332 0.202827 0.500000
O O6 0.399114 0.324249 0.500000
O O7 0.500000 0.898031 0.750000
O O8 0.475106 0.909102 0.914883
O O9 0.649556 0.868892 0.838386
O O10 0.327053 0.851834 0.000000
O O11 0.810202 0.940370 0.572737
O O12 0.737681 0.896153 0.704867
O O13 0.823801 0.038990 0.683300
#
# Coordination Sequence:
#
# PCOD9496557 Si02
#       7
#    16   8  16   8  16   8  16
#     4  10  20  37  62  88 118 153 198 248 302 363
#     4   8  19  34  56  90 118 144 191 254 308 352
#     4  11  23  39  60  89 120 158 203 248 299 361
#     4  10  21  38  58  84 117 154 197 249 300 358
#     4  10  22  38  59  87 115 152 200 247 299 359
#     4  10  19  38  60  80 109 154 201 245 294 358
#     4  11  22  38  58  86 122 158 192 244 305 364
#
# _framework density 24.864664000000001
#
# number of rings (size 3 to 8) (size 9 to 14) (size 15 to 20)
#    0.000    1.818    0.000    4.091    0.000    3.636 
#    0.000   18.182    0.000    0.000    0.000    0.000 
#    0.000    0.000    0.000    0.000    0.000    0.000 
#
# Total GULP energy -245045.637009 kJ/mol
# GULP energy per Si atom -5569.219023 kJ/mol
# Density = 2.480807 g / cm^3
# Si number density = 24.864664 Si / 1000 Ang^3
#
#
#
# Elastic Constant Matrix: (Units=GPa)
#
#
# Indices 1 2 3 4 5 6 
#
# 1 60.7108 6.0905 18.5919 0.0000 0.0000 0.0000
# 2 6.0905 74.1352 -2.7602 0.0000 0.0000 0.0000
# 3 18.5919 -2.7602 215.9225 0.0000 0.0000 0.0000
# 4 0.0000 0.0000 0.0000 -0.0987 0.0000 0.0000
# 5 0.0000 0.0000 0.0000 0.0000 34.2752 0.0000
# 6 0.0000 0.0000 0.0000 0.0000 0.0000 14.3196
#
#
#
# Elastic Compliance Matrix: (Units=1/GPa)
#
#
# Indices 1 2 3 4 5 6 
#
# 1 0.017074 -0.001458 -0.001489 0.000000 0.000000 0.000000
# 2 -0.001458 0.013620 0.000300 0.000000 0.000000 0.000000
# 3 -0.001489 0.000300 0.004763 0.000000 0.000000 0.000000
# 4 0.000000 0.000000 0.000000-10.134478 0.000000 0.000000
# 5 0.000000 0.000000 0.000000 0.000000 0.029176 0.000000
# 6 0.000000 0.000000 0.000000 0.000000 0.000000 0.069835
#
#
# Mechanical properties :
#
#
# Convention : Reuss Voigt Hill
#
# Bulk Modulus (GPa) = 33.15384 43.84589 38.49986
# Shear Modulus (GPa) = -0.50077 31.62230 15.56076
#
# Velocity S-wave (km/s) = -0.44926 3.57007 2.50435
# Velocity P-wave (km/s) = 3.61850 5.88778 4.88669
#
# Compressibility (1/GPa) = 0.03016242
#
# Stress axis : x y z
#
# Youngs Moduli (GPa) = 58.56952 73.42248 209.93801
#
# Poissons Ratio (x) = 0.10706 0.31255
# Poissons Ratio (y) = 0.08540 -0.06291
# Poissons Ratio (z) = 0.08720 -0.02200
#
# Static dielectric constant tensor:
#      x y z
#    x 1.971190 0.000000 0.000000 
#    y 0.000000 1.998910 0.000000 
#    z 0.000000 0.000000 2.091510 
# 
# From -- ./inp_files/38701.got.cif
#   From: 2010.05.17/outbox.cif.g08.bks.cpg/sg66_20_cif.got.tgz:38701.got - 2010.06.03 17:51:23.
