data_PCOD9496832
_publ_section_title
;
Structure prediction by ZEFSAII (Michael W. Deem and Ramdas Pophale) SiO2 
 PCOD9496832
Probable space group: C C C M
;
_chemical_formula_sum "Si O2"
_cell_formula_units_Z 96
_cell_length_a 24.593702
_cell_length_b 17.992144
_cell_length_c 11.262396
_cell_angle_alpha 90.000000
_cell_angle_beta 90.000000
_cell_angle_gamma 90.000000
_cell_volume 4983.536212
_symmetry_space_group_name_H-M "C C C M"
_symmetry_group_IT_number 66
_symmetry_cell_setting 'orthorhombic'
loop_
_space_group_symop_operation_xyz
x,y,z
-x,-y,z
x,-y,1/2-z
-x,y,1/2-z
-x,-y,-z
x,y,-z
-x,y,1/2+z
x,-y,1/2+z
1/2+x,1/2+y,z
1/2-x,1/2-y,z
1/2+x,1/2-y,1/2-z
1/2-x,1/2+y,1/2-z
1/2-x,1/2-y,-z
1/2+x,1/2+y,-z
1/2-x,1/2+y,1/2+z
1/2+x,1/2-y,1/2+z
loop_
_atom_site_type_symbol
_atom_site_label
_atom_site_fract_x
_atom_site_fract_y
_atom_site_fract_z
Si Si1 0.156513 0.733686 0.000000
Si Si2 0.418295 0.049795 0.864972
Si Si3 0.033359 0.711880 0.632538
Si Si4 0.200339 0.919069 0.755984
Si Si5 0.360052 0.734538 0.745090
Si Si6 0.804284 0.366140 0.365025
Si Si7 0.754991 0.868137 0.500000
O O1 0.123305 0.743766 0.120592
O O2 0.202808 0.798382 0.000000
O O3 0.192877 0.659388 0.000000
O O4 0.455669 0.123262 0.863968
O O5 0.356578 0.080733 0.849255
O O6 0.430641 0.000000 0.750000
O O7 0.422442 0.016880 0.000000
O O8 0.012655 0.730374 0.500000
O O9 0.092366 0.748933 0.653054
O O10 0.000000 0.732765 0.750000
O O11 0.160354 0.849461 0.742106
O O12 0.248928 0.908182 0.662789
O O13 0.230415 0.911971 0.882228
O O14 0.174200 0.000000 0.750000
O O15 0.311997 0.793257 0.716135
O O16 0.804752 0.339951 0.500000
#
# Coordination Sequence:
#
# PCOD9496832 Si02
#       7
#     8  16  16  16  16  16   8
#     4   9  16  32  58  76 101 147 186 223 264 312
#     4   9  19  37  54  80 118 150 183 222 267 323
#     4  10  23  41  61  85 109 136 183 238 284 336
#     4  11  22  34  51  81 114 150 183 226 271 319
#     4  10  20  37  58  78 109 144 186 229 274 326
#     4  10  20  34  52  77 112 153 191 221 260 317
#     4   9  18  34  48  76 112 140 189 226 253 315
#
# _framework density 19.263428999999999
#
# number of rings (size 3 to 8) (size 9 to 14) (size 15 to 20)
#    0.000    2.167    1.667    2.500    2.333    3.000 
#    6.000    1.667    0.000    0.500    0.000    1.167 
#    0.000    0.000    0.000    0.000    0.000    0.000 
#
# Total GULP energy -267815.225977 kJ/mol
# GULP energy per Si atom -5579.483875 kJ/mol
# Density = 1.921958 g / cm^3
# Si number density = 19.263429 Si / 1000 Ang^3
#
#
#
# Elastic Constant Matrix: (Units=GPa)
#
#
# Indices 1 2 3 4 5 6 
#
# 1 32.3397 5.9690 21.2368 0.0000 0.0000 0.0000
# 2 5.9690 92.2396 37.7451 0.0000 0.0000 0.0000
# 3 21.2368 37.7451 128.3942 0.0000 0.0000 0.0000
# 4 0.0000 0.0000 0.0000 -1.2503 0.0000 0.0000
# 5 0.0000 0.0000 0.0000 0.0000 4.0251 0.0000
# 6 0.0000 0.0000 0.0000 0.0000 0.0000 5.5261
#
#
#
# Elastic Compliance Matrix: (Units=1/GPa)
#
#
# Indices 1 2 3 4 5 6 
#
# 1 0.034691 0.000117 -0.005772 0.000000 0.000000 0.000000
# 2 0.000117 0.012324 -0.003642 0.000000 0.000000 0.000000
# 3 -0.005772 -0.003642 0.009814 0.000000 0.000000 0.000000
# 4 0.000000 0.000000 0.000000 -0.799805 0.000000 0.000000
# 5 0.000000 0.000000 0.000000 0.000000 0.248439 0.000000
# 6 0.000000 0.000000 0.000000 0.000000 0.000000 0.180961
#
#
# Mechanical properties :
#
#
# Convention : Reuss Voigt Hill
#
# Bulk Modulus (GPa) = 26.15490 42.54171 34.34831
# Shear Modulus (GPa) = -17.71562 14.19501 -1.76031
#
# Velocity S-wave (km/s) = -3.03586 2.71752 -0.95697
# Velocity P-wave (km/s) = 1.14819 5.65497 4.08026
#
# Compressibility (1/GPa) = 0.03823375
#
# Stress axis : x y z
#
# Youngs Moduli (GPa) = 28.82616 81.14071 101.89426
#
# Poissons Ratio (x) = -0.00951 0.58818
# Poissons Ratio (y) = -0.00338 0.37115
# Poissons Ratio (z) = 0.16640 0.29555
#
# Static dielectric constant tensor:
#      x y z
#    x 1.668770 0.000000 0.000000 
#    y 0.000000 1.668490 0.000000 
#    z 0.000000 0.000000 1.720300 
# 
# From -- ./inp_files/19851.got.cif
#   From: 2010.05.17/outbox.cif.g08.bks.cpg/sg66_10_cif.got.tgz:19851.got - 2010.06.03 17:51:23.
