data_PCOD9496527
_publ_section_title
;
Structure prediction by ZEFSAII (Michael W. Deem and Ramdas Pophale) SiO2 
 PCOD9496527
Probable space group: C C C M
;
_chemical_formula_sum "Si O2"
_cell_formula_units_Z 116
_cell_length_a 11.684040
_cell_length_b 25.669745
_cell_length_c 16.985398
_cell_angle_alpha 90.000000
_cell_angle_beta 90.000000
_cell_angle_gamma 90.000000
_cell_volume 5094.368041
_symmetry_space_group_name_H-M "C C C M"
_symmetry_group_IT_number 66
_symmetry_cell_setting 'orthorhombic'
loop_
_space_group_symop_operation_xyz
x,y,z
-x,-y,z
x,-y,1/2-z
-x,y,1/2-z
-x,-y,-z
x,y,-z
-x,y,1/2+z
x,-y,1/2+z
1/2+x,1/2+y,z
1/2-x,1/2-y,z
1/2+x,1/2-y,1/2-z
1/2-x,1/2+y,1/2-z
1/2-x,1/2-y,-z
1/2+x,1/2+y,-z
1/2-x,1/2+y,1/2+z
1/2+x,1/2-y,1/2+z
loop_
_atom_site_type_symbol
_atom_site_label
_atom_site_fract_x
_atom_site_fract_y
_atom_site_fract_z
Si Si1 0.880232 0.772979 0.724290
Si Si2 0.824051 0.170918 0.377822
Si Si3 0.733859 0.504794 0.844194
Si Si4 0.120938 0.393970 0.843042
Si Si5 0.644767 0.649779 0.406476
Si Si6 0.968923 0.931180 0.910452
Si Si7 0.859969 0.398394 0.847185
Si Si8 0.750000 0.250000 0.500000
O O1 0.750000 0.750000 0.725119
O O2 0.867891 0.817880 0.790362
O O3 0.899822 0.800234 0.640299
O O4 0.000000 0.743824 0.750000
O O5 0.691012 0.154380 0.376020
O O6 0.888376 0.120295 0.409405
O O7 0.827809 0.220956 0.431738
O O8 0.724003 0.500000 0.750000
O O9 0.816254 0.552732 0.866135
O O10 0.609026 0.522628 0.875023
O O11 0.801214 0.453177 0.870130
O O12 0.134632 0.392863 0.747836
O O13 0.991322 0.394870 0.870747
O O14 0.628340 0.652881 0.500000
O O15 0.582229 0.596551 0.374677
O O16 0.777841 0.644425 0.384603
O O17 0.996505 0.944209 0.000000
#
# Coordination Sequence:
#
# PCOD9496527 Si02
#       8
#    16  16  16  16  16  16  16   4
#     4  12  26  46  72 101 135 177 233 291 359 433
#     4  11  21  41  66  97 126 167 220 282 344 415
#     4   9  19  35  61  96 127 172 227 273 333 401
#     4   9  19  36  64  91 130 176 218 277 342 412
#     4  11  25  44  67  94 135 184 225 282 350 418
#     4  10  21  40  66  89 130 178 221 277 342 411
#     4  10  19  37  61  93 133 172 225 277 334 410
#     4  12  24  40  68 104 130 154 228 298 340 408
#
# _framework density 22.770243000000001
#
# number of rings (size 3 to 8) (size 9 to 14) (size 15 to 20)
#    0.000    1.655    4.138    0.414    0.000    4.138 
#    1.241    3.448    0.000    2.483    0.000    0.000 
#    0.000    0.000    0.000    0.000    0.000    0.000 
#
# Total GULP energy -323144.601750 kJ/mol
# GULP energy per Si atom -5571.458651 kJ/mol
# Density = 2.271842 g / cm^3
# Si number density = 22.770243 Si / 1000 Ang^3
#
#
#
# Elastic Constant Matrix: (Units=GPa)
#
#
# Indices 1 2 3 4 5 6 
#
# 1 190.3694 20.3521 15.2278 0.0000 0.0000 0.0000
# 2 20.3521 41.0161 18.4599 0.0000 0.0000 0.0000
# 3 15.2278 18.4599 45.0929 0.0000 0.0000 0.0000
# 4 0.0000 0.0000 0.0000 27.8379 0.0000 0.0000
# 5 0.0000 0.0000 0.0000 0.0000 18.1877 0.0000
# 6 0.0000 0.0000 0.0000 0.0000 0.0000 30.6567
#
#
#
# Elastic Compliance Matrix: (Units=1/GPa)
#
#
# Indices 1 2 3 4 5 6 
#
# 1 0.005578 -0.002354 -0.000920 0.000000 0.000000 0.000000
# 2 -0.002354 0.030880 -0.011847 0.000000 0.000000 0.000000
# 3 -0.000920 -0.011847 0.027337 0.000000 0.000000 0.000000
# 4 0.000000 0.000000 0.000000 0.035922 0.000000 0.000000
# 5 0.000000 0.000000 0.000000 0.000000 0.054982 0.000000
# 6 0.000000 0.000000 0.000000 0.000000 0.000000 0.032619
#
#
# Mechanical properties :
#
#
# Convention : Reuss Voigt Hill
#
# Bulk Modulus (GPa) = 29.80259 42.72865 36.26562
# Shear Modulus (GPa) = 21.85835 30.16569 26.01202
#
# Velocity S-wave (km/s) = 3.10167 3.64371 3.38356
# Velocity P-wave (km/s) = 5.09352 6.04219 5.58802
#
# Compressibility (1/GPa) = 0.03355413
#
# Stress axis : x y z
#
# Youngs Moduli (GPa) = 179.26977 32.38297 36.58055
#
# Poissons Ratio (x) = 0.07622 0.03366
# Poissons Ratio (y) = 0.42195 0.43336
# Poissons Ratio (z) = 0.16496 0.38363
#
# Static dielectric constant tensor:
#      x y z
#    x 1.900340 0.000000 0.000000 
#    y 0.000000 1.892990 0.000000 
#    z 0.000000 0.000000 1.791470 
# 
# From -- ./inp_files/39120.got.cif
#   From: 2010.05.17/outbox.cif.g08.bks.cpg/sg66_20_cif.got.tgz:39120.got - 2010.06.03 17:51:23.
