data_PCOD9496820
_publ_section_title
;
Structure prediction by ZEFSAII (Michael W. Deem and Ramdas Pophale) SiO2 
 PCOD9496820
Probable space group: C C C M
;
_chemical_formula_sum "Si O2"
_cell_formula_units_Z 88
_cell_length_a 5.060388
_cell_length_b 31.973939
_cell_length_c 29.487403
_cell_angle_alpha 90.000000
_cell_angle_beta 90.000000
_cell_angle_gamma 90.000000
_cell_volume 4771.077647
_symmetry_space_group_name_H-M "C C C M"
_symmetry_group_IT_number 66
_symmetry_cell_setting 'orthorhombic'
loop_
_space_group_symop_operation_xyz
x,y,z
-x,-y,z
x,-y,1/2-z
-x,y,1/2-z
-x,-y,-z
x,y,-z
-x,y,1/2+z
x,-y,1/2+z
1/2+x,1/2+y,z
1/2-x,1/2-y,z
1/2+x,1/2-y,1/2-z
1/2-x,1/2+y,1/2-z
1/2-x,1/2-y,-z
1/2+x,1/2+y,-z
1/2-x,1/2+y,1/2+z
1/2+x,1/2-y,1/2+z
loop_
_atom_site_type_symbol
_atom_site_label
_atom_site_fract_x
_atom_site_fract_y
_atom_site_fract_z
Si Si1 0.914634 0.100298 0.797978
Si Si2 0.755913 0.469376 0.500000
Si Si3 0.450907 0.083123 0.084872
Si Si4 0.576150 0.953178 0.818157
Si Si5 0.951209 0.864161 0.604683
Si Si6 0.005107 0.779141 0.448073
O O1 0.632156 0.078238 0.795699
O O2 0.903647 0.130718 0.841392
O O3 0.000000 0.119451 0.750000
O O4 0.129936 0.063480 0.808106
O O5 0.500000 0.500000 0.500000
O O6 0.809687 0.440456 0.456392
O O7 0.000000 0.500000 0.500000
O O8 0.467815 0.052185 0.127754
O O9 0.737770 0.104991 0.080046
O O10 0.247355 0.119482 0.097688
O O11 0.500000 0.000000 0.804826
O O12 0.943396 0.818303 0.583799
O O13 0.061952 0.793890 0.500000
O O14 0.750000 0.750000 0.449492
O O15 0.250000 0.750000 0.433557
#
# Coordination Sequence:
#
# PCOD9496820 Si02
#       6
#    16   8  16  16  16  16
#     4  10  21  35  53  78 104 140 185 225 275 325
#     4  12  24  36  52  76 108 148 196 238 272 312
#     4  10  22  35  53  77 104 149 187 225 269 326
#     4  10  20  34  51  74 106 140 182 234 281 319
#     4  10  21  38  57  79 110 143 178 220 274 330
#     4  10  21  36  58  87 112 138 170 216 272 328
#
# _framework density 18.444472000000001
#
# number of rings (size 3 to 8) (size 9 to 14) (size 15 to 20)
#    0.000    1.818    0.000    3.818    2.545    5.091 
#    0.000    0.000    0.000    1.091    0.000    0.000 
#    0.000    0.000    0.000    0.000    0.000    0.000 
#
# Total GULP energy -245446.859883 kJ/mol
# GULP energy per Si atom -5578.337725 kJ/mol
# Density = 1.840249 g / cm^3
# Si number density = 18.444472 Si / 1000 Ang^3
#
#
#
# Elastic Constant Matrix: (Units=GPa)
#
#
# Indices 1 2 3 4 5 6 
#
# 1 98.1218 12.9925 14.1140 0.0000 0.0000 0.0000
# 2 12.9925 85.2648 54.9405 0.0000 0.0000 0.0000
# 3 14.1140 54.9405 124.4430 0.0000 0.0000 0.0000
# 4 0.0000 0.0000 0.0000 -9.5724 0.0000 0.0000
# 5 0.0000 0.0000 0.0000 0.0000 26.4873 0.0000
# 6 0.0000 0.0000 0.0000 0.0000 0.0000 20.7128
#
#
#
# Elastic Compliance Matrix: (Units=1/GPa)
#
#
# Indices 1 2 3 4 5 6 
#
# 1 0.010441 -0.001157 -0.000673 0.000000 0.000000 0.000000
# 2 -0.001157 0.016519 -0.007162 0.000000 0.000000 0.000000
# 3 -0.000673 -0.007162 0.011274 0.000000 0.000000 0.000000
# 4 0.000000 0.000000 0.000000 -0.104467 0.000000 0.000000
# 5 0.000000 0.000000 0.000000 0.000000 0.037754 0.000000
# 6 0.000000 0.000000 0.000000 0.000000 0.000000 0.048279
#
#
# Mechanical properties :
#
#
# Convention : Reuss Voigt Hill
#
# Bulk Modulus (GPa) = 49.38267 52.43598 50.90933
# Shear Modulus (GPa) = 112.27006 22.57773 67.42390
#
# Velocity S-wave (km/s) = 7.81034 3.50250 6.05264
# Velocity P-wave (km/s) = 10.40034 6.69683 8.74684
#
# Compressibility (1/GPa) = 0.02025002
#
# Stress axis : x y z
#
# Youngs Moduli (GPa) = 95.77172 60.53542 88.69902
#
# Poissons Ratio (x) = 0.07005 0.05973
# Poissons Ratio (y) = 0.11082 0.63525
# Poissons Ratio (z) = 0.06449 0.43355
#
# Static dielectric constant tensor:
#      x y z
#    x 1.597500 0.000000 0.000000 
#    y 0.000000 1.580970 0.000000 
#    z 0.000000 0.000000 1.699680 
# 
# From -- ./inp_files/67288.got.cif
#   From: 2010.05.17/outbox.cif.g08.bks.cpg/sg66_34_cif.got.tgz:67288.got - 2010.06.03 17:51:23.
