data_PCOD9496121
_publ_section_title
;
Structure prediction by ZEFSAII (Michael W. Deem and Ramdas Pophale) SiO2 
 PCOD9496121
Probable space group: C C C M
;
_chemical_formula_sum "Si O2"
_cell_formula_units_Z 120
_cell_length_a 24.838921
_cell_length_b 15.881336
_cell_length_c 14.794004
_cell_angle_alpha 90.000000
_cell_angle_beta 90.000000
_cell_angle_gamma 90.000000
_cell_volume 5835.868431
_symmetry_space_group_name_H-M "C C C M"
_symmetry_group_IT_number 66
_symmetry_cell_setting 'orthorhombic'
loop_
_space_group_symop_operation_xyz
x,y,z
-x,-y,z
x,-y,1/2-z
-x,y,1/2-z
-x,-y,-z
x,y,-z
-x,y,1/2+z
x,-y,1/2+z
1/2+x,1/2+y,z
1/2-x,1/2-y,z
1/2+x,1/2-y,1/2-z
1/2-x,1/2+y,1/2-z
1/2-x,1/2-y,-z
1/2+x,1/2+y,-z
1/2-x,1/2+y,1/2+z
1/2+x,1/2-y,1/2+z
loop_
_atom_site_type_symbol
_atom_site_label
_atom_site_fract_x
_atom_site_fract_y
_atom_site_fract_z
Si Si1 0.530143 0.175028 0.105328
Si Si2 0.875636 0.597061 0.276125
Si Si3 0.643921 0.615532 0.395480
Si Si4 0.022770 0.126881 0.649112
Si Si5 0.405549 0.811917 0.601953
Si Si6 0.193738 0.708312 0.106645
Si Si7 0.348988 0.500000 0.750000
Si Si8 0.591458 0.390996 0.598656
O O1 0.569874 0.123675 0.169778
O O2 0.529736 0.273557 0.131407
O O3 0.466808 0.153357 0.111733
O O4 0.546675 0.166804 0.000000
O O5 0.875568 0.500000 0.250000
O O6 0.872820 0.649211 0.183318
O O7 0.827011 0.628693 0.338912
O O8 0.657389 0.600466 0.500000
O O9 0.581374 0.592248 0.375994
O O10 0.651657 0.714865 0.380204
O O11 0.678007 0.561126 0.324050
O O12 0.000000 0.114797 0.750000
O O13 0.972237 0.091727 0.595020
O O14 0.387432 0.832142 0.500000
O O15 0.405636 0.710433 0.610303
O O16 0.250000 0.750000 0.134867
O O17 0.197224 0.689370 0.000000
O O18 0.381222 0.564470 0.683996
O O19 0.615313 0.412690 0.500000
#
# Coordination Sequence:
#
# PCOD9496121 Si02
#       8
#    16  16  16  16  16  16   8  16
#     4  10  19  33  55  84 124 168 206 241 282 345
#     4  12  23  36  61  97 125 154 199 252 308 361
#     4  11  22  37  60  85 112 157 204 246 303 364
#     4  11  18  32  53  78 112 158 208 237 277 338
#     4   9  20  37  56  83 125 175 210 234 279 359
#     4  10  23  46  71  90 113 150 201 259 319 379
#     4  12  22  35  50  86 122 154 192 252 301 348
#     4  10  20  33  49  72 112 161 200 235 276 333
#
# _framework density 20.562494000000001
#
# number of rings (size 3 to 8) (size 9 to 14) (size 15 to 20)
#    0.000    1.467    2.667    5.600    0.000    3.200 
#    1.200    2.667    0.000    0.400    0.000    0.000 
#    0.000    0.000    0.000    0.000    0.000    0.000 
#
# Total GULP energy -334930.079228 kJ/mol
# GULP energy per Si atom -5582.167987 kJ/mol
# Density = 2.051569 g / cm^3
# Si number density = 20.562494 Si / 1000 Ang^3
#
#
#
# Elastic Constant Matrix: (Units=GPa)
#
#
# Indices 1 2 3 4 5 6 
#
# 1 33.2301 6.3036 13.4307 0.0000 0.0000 0.0000
# 2 6.3036 91.3373 44.9651 0.0000 0.0000 0.0000
# 3 13.4307 44.9651 153.4883 0.0000 0.0000 0.0000
# 4 0.0000 0.0000 0.0000 -21.8704 0.0000 0.0000
# 5 0.0000 0.0000 0.0000 0.0000 20.2006 0.0000
# 6 0.0000 0.0000 0.0000 0.0000 0.0000 10.5972
#
#
#
# Elastic Compliance Matrix: (Units=1/GPa)
#
#
# Indices 1 2 3 4 5 6 
#
# 1 0.031267 -0.000948 -0.002458 0.000000 0.000000 0.000000
# 2 -0.000948 0.012822 -0.003673 0.000000 0.000000 0.000000
# 3 -0.002458 -0.003673 0.007806 0.000000 0.000000 0.000000
# 4 0.000000 0.000000 0.000000 -0.045724 0.000000 0.000000
# 5 0.000000 0.000000 0.000000 0.000000 0.049504 0.000000
# 6 0.000000 0.000000 0.000000 0.000000 0.000000 0.094364
#
#
# Mechanical properties :
#
#
# Convention : Reuss Voigt Hill
#
# Bulk Modulus (GPa) = 26.49952 45.27273 35.88613
# Shear Modulus (GPa) = 28.28428 16.00923 22.14676
#
# Velocity S-wave (km/s) = 3.71283 2.79330 3.28540
# Velocity P-wave (km/s) = 5.59424 5.69810 5.64641
#
# Compressibility (1/GPa) = 0.03773653
#
# Stress axis : x y z
#
# Youngs Moduli (GPa) = 31.98302 77.98950 128.09989
#
# Poissons Ratio (x) = 0.07390 0.31491
# Poissons Ratio (y) = 0.03031 0.47056
# Poissons Ratio (z) = 0.07862 0.28649
#
# Static dielectric constant tensor:
#      x y z
#    x 1.763780 0.000000 0.000000 
#    y 0.000000 1.716180 0.000000 
#    z 0.000000 0.000000 1.788760 
# 
# From -- ./inp_files/34007.got.cif
#   From: 2010.05.17/outbox.cif.g08.bks.cpg/sg66_18_cif.got.tgz:34007.got - 2010.06.03 17:51:23.
