data_PCOD9496907
_publ_section_title
;
Structure prediction by ZEFSAII (Michael W. Deem and Ramdas Pophale) SiO2 
 PCOD9496907
Probable space group: C C C M
;
_chemical_formula_sum "Si O2"
_cell_formula_units_Z 112
_cell_length_a 14.172500
_cell_length_b 14.595075
_cell_length_c 27.304997
_cell_angle_alpha 90.000000
_cell_angle_beta 90.000000
_cell_angle_gamma 90.000000
_cell_volume 5648.003145
_symmetry_space_group_name_H-M "C C C M"
_symmetry_group_IT_number 66
_symmetry_cell_setting 'orthorhombic'
loop_
_space_group_symop_operation_xyz
x,y,z
-x,-y,z
x,-y,1/2-z
-x,y,1/2-z
-x,-y,-z
x,y,-z
-x,y,1/2+z
x,-y,1/2+z
1/2+x,1/2+y,z
1/2-x,1/2-y,z
1/2+x,1/2-y,1/2-z
1/2-x,1/2+y,1/2-z
1/2-x,1/2-y,-z
1/2+x,1/2+y,-z
1/2-x,1/2+y,1/2+z
1/2+x,1/2-y,1/2+z
loop_
_atom_site_type_symbol
_atom_site_label
_atom_site_fract_x
_atom_site_fract_y
_atom_site_fract_z
Si Si1 0.359792 0.235051 0.558126
Si Si2 0.393285 0.557776 0.199346
Si Si3 0.011293 0.109541 0.944489
Si Si4 0.578648 0.781930 0.210971
Si Si5 0.048451 0.598001 0.863319
Si Si6 0.406230 0.383287 0.152986
Si Si7 0.797664 0.405542 0.779677
O O1 0.362790 0.210601 0.500000
O O2 0.250000 0.250000 0.571850
O O3 0.416591 0.331183 0.563316
O O4 0.412501 0.159425 0.591651
O O5 0.407936 0.500000 0.250000
O O6 0.356699 0.479361 0.162178
O O7 0.486889 0.598992 0.174848
O O8 0.307676 0.626638 0.206744
O O9 0.083903 0.140568 0.903259
O O10 0.042412 0.125272 0.000000
O O11 0.000000 0.000000 0.937652
O O12 0.500000 0.747624 0.250000
O O13 0.524878 0.841872 0.169575
O O14 0.630732 0.698766 0.184896
O O15 0.648733 0.840604 0.242764
O O16 0.136632 0.581107 0.826880
O O17 0.000000 0.500000 0.875933
O O18 0.787692 0.500000 0.750000
#
# Coordination Sequence:
#
# PCOD9496907 Si02
#       7
#    16  16  16  16  16  16  16
#     4  10  23  41  62  96 130 156 205 269 316 371
#     4  10  21  35  55  82 122 154 193 253 303 362
#     4  10  20  36  60  89 120 160 205 256 319 374
#     4  10  20  34  56  78 114 159 204 245 290 361
#     4  11  21  35  63  86 121 167 207 250 305 365
#     4  11  19  36  58  86 117 158 198 251 308 360
#     4  10  21  37  56  80 118 159 207 240 298 361
#
# _framework density 19.830017000000002
#
# number of rings (size 3 to 8) (size 9 to 14) (size 15 to 20)
#    0.000    1.714    4.286    1.714    2.000    0.286 
#    0.000   10.714    0.000    0.000    0.000    0.000 
#    0.000   12.571    0.000    0.000    0.000    0.000 
#
# Total GULP energy -312515.238314 kJ/mol
# GULP energy per Si atom -5580.629256 kJ/mol
# Density = 1.978488 g / cm^3
# Si number density = 19.830017 Si / 1000 Ang^3
#
#
#
# Elastic Constant Matrix: (Units=GPa)
#
#
# Indices 1 2 3 4 5 6 
#
# 1 70.5804 21.6737 39.5657 0.0000 0.0000 0.0000
# 2 21.6737 83.7711 47.7614 0.0000 0.0000 0.0000
# 3 39.5657 47.7614 116.7649 0.0000 0.0000 0.0000
# 4 0.0000 0.0000 0.0000 32.1557 0.0000 0.0000
# 5 0.0000 0.0000 0.0000 0.0000 21.8891 0.0000
# 6 0.0000 0.0000 0.0000 0.0000 0.0000 22.2910
#
#
#
# Elastic Compliance Matrix: (Units=1/GPa)
#
#
# Indices 1 2 3 4 5 6 
#
# 1 0.017635 -0.001507 -0.005359 0.000000 0.000000 0.000000
# 2 -0.001507 0.015697 -0.005910 0.000000 0.000000 0.000000
# 3 -0.005359 -0.005910 0.012798 0.000000 0.000000 0.000000
# 4 0.000000 0.000000 0.000000 0.031099 0.000000 0.000000
# 5 0.000000 0.000000 0.000000 0.000000 0.045685 0.000000
# 6 0.000000 0.000000 0.000000 0.000000 0.000000 0.044861
#
#
# Mechanical properties :
#
#
# Convention : Reuss Voigt Hill
#
# Bulk Modulus (GPa) = 48.59787 54.34646 51.47217
# Shear Modulus (GPa) = 24.97680 26.07486 25.52583
#
# Velocity S-wave (km/s) = 3.55286 3.63011 3.59169
# Velocity P-wave (km/s) = 6.43357 6.71088 6.57369
#
# Compressibility (1/GPa) = 0.02057703
#
# Stress axis : x y z
#
# Youngs Moduli (GPa) = 56.70443 63.70768 78.13999
#
# Poissons Ratio (x) = 0.09602 0.41877
# Poissons Ratio (y) = 0.08546 0.46180
# Poissons Ratio (z) = 0.30389 0.37650
#
# Static dielectric constant tensor:
#      x y z
#    x 1.730930 0.000000 0.000000 
#    y 0.000000 1.746220 0.000000 
#    z 0.000000 0.000000 1.714260 
# 
# From -- ./inp_files/64689.got.cif
#   From: 2010.05.17/outbox.cif.g08.bks.cpg/sg66_33_cif.got.tgz:64689.got - 2010.06.03 17:51:23.
