data_PCOD9496601
_publ_section_title
;
Structure prediction by ZEFSAII (Michael W. Deem and Ramdas Pophale) SiO2 
 PCOD9496601
Probable space group: C C C M
;
_chemical_formula_sum "Si O2"
_cell_formula_units_Z 64
_cell_length_a 9.371386
_cell_length_b 16.579274
_cell_length_c 20.553709
_cell_angle_alpha 90.000000
_cell_angle_beta 90.000000
_cell_angle_gamma 90.000000
_cell_volume 3193.445722
_symmetry_space_group_name_H-M "C C C M"
_symmetry_group_IT_number 66
_symmetry_cell_setting 'orthorhombic'
loop_
_space_group_symop_operation_xyz
x,y,z
-x,-y,z
x,-y,1/2-z
-x,y,1/2-z
-x,-y,-z
x,y,-z
-x,y,1/2+z
x,-y,1/2+z
1/2+x,1/2+y,z
1/2-x,1/2-y,z
1/2+x,1/2-y,1/2-z
1/2-x,1/2+y,1/2-z
1/2-x,1/2-y,-z
1/2+x,1/2+y,-z
1/2-x,1/2+y,1/2+z
1/2+x,1/2-y,1/2+z
loop_
_atom_site_type_symbol
_atom_site_label
_atom_site_fract_x
_atom_site_fract_y
_atom_site_fract_z
Si Si1 0.946471 0.692577 0.500000
Si Si2 0.360929 0.618540 0.000000
Si Si3 0.397747 0.799973 0.634687
Si Si4 0.000000 0.195082 0.750000
Si Si5 0.500000 0.500000 0.105508
Si Si6 0.272351 0.573629 0.294339
O O1 0.808964 0.633923 0.500000
O O2 0.913689 0.788925 0.500000
O O3 0.033102 0.680674 0.566130
O O4 0.421839 0.567302 0.060962
O O5 0.250000 0.750000 0.625002
O O6 0.493182 0.747940 0.684560
O O7 0.355670 0.881125 0.671480
O O8 0.861043 0.138537 0.748171
O O9 0.383936 0.457388 0.151412
O O10 0.228371 0.500000 0.250000
#
# Coordination Sequence:
#
# PCOD9496601 Si02
#       6
#     8   8  16   8   8  16
#     4  11  23  45  63  97 131 173 224 264 328 396
#     4  10  24  39  67  94 123 170 219 269 314 401
#     4  10  23  39  66  96 132 174 213 277 335 391
#     4  10  19  40  61  98 122 162 224 266 321 388
#     4  11  21  42  64  96 125 169 216 266 336 388
#     4  11  21  39  67  94 128 167 216 277 324 392
#
# _framework density 20.041048
#
# number of rings (size 3 to 8) (size 9 to 14) (size 15 to 20)
#    0.000    1.500    2.500    3.375    0.000    4.000 
#   13.500    5.625    0.000    0.000    0.000    0.000 
#    0.000    0.000    0.000    0.000    0.000    0.000 
#
# Total GULP energy -178864.014470 kJ/mol
# GULP energy per Si atom -5589.500452 kJ/mol
# Density = 1.999543 g / cm^3
# Si number density = 20.041048 Si / 1000 Ang^3
#
#
#
# Elastic Constant Matrix: (Units=GPa)
#
#
# Indices 1 2 3 4 5 6 
#
# 1 68.9930 60.9900 75.6124 0.0000 0.0000 0.0000
# 2 60.9900 135.9507 87.8079 0.0000 0.0000 0.0000
# 3 75.6124 87.8079 156.1815 0.0000 0.0000 0.0000
# 4 0.0000 0.0000 0.0000 15.7563 0.0000 0.0000
# 5 0.0000 0.0000 0.0000 0.0000 -250.0826 0.0000
# 6 0.0000 0.0000 0.0000 0.0000 0.0000 24.6634
#
#
#
# Elastic Compliance Matrix: (Units=1/GPa)
#
#
# Indices 1 2 3 4 5 6 
#
# 1 0.035159 -0.007504 -0.012803 0.000000 0.000000 0.000000
# 2 -0.007504 0.013151 -0.003761 0.000000 0.000000 0.000000
# 3 -0.012803 -0.003761 0.014715 0.000000 0.000000 0.000000
# 4 0.000000 0.000000 0.000000 0.063467 0.000000 0.000000
# 5 0.000000 0.000000 0.000000 0.000000 -0.003999 0.000000
# 6 0.000000 0.000000 0.000000 0.000000 0.000000 0.040546
#
#
# Mechanical properties :
#
#
# Convention : Reuss Voigt Hill
#
# Bulk Modulus (GPa) = 67.15759 89.99397 78.57578
# Shear Modulus (GPa) = 23.13348 -32.81826 -4.84239
#
# Velocity S-wave (km/s) = 3.40119 -4.05106 -1.55611
# Velocity P-wave (km/s) = 7.00049 4.80842 6.00532
#
# Compressibility (1/GPa) = 0.01489035
#
# Stress axis : x y z
#
# Youngs Moduli (GPa) = 28.44257 76.03943 67.95605
#
# Poissons Ratio (x) = 0.57059 0.87001
# Poissons Ratio (y) = 0.21343 0.25558
# Poissons Ratio (z) = 0.36414 0.28598
#
# Static dielectric constant tensor:
#      x y z
#    x 1.696580 0.000000 0.000000 
#    y 0.000000 1.713320 0.000000 
#    z 0.000000 0.000000 1.692420 
# 
# From -- ./inp_files/46693.got.cif
#   From: 2010.05.17/outbox.cif.g08.bks.cpg/sg66_24_cif.got.tgz:46693.got - 2010.06.03 17:51:23.
