data_PCOD9496965
_publ_section_title
;
Structure prediction by ZEFSAII (Michael W. Deem and Ramdas Pophale) SiO2 
 PCOD9496965
Probable space group: C C C M
;
_chemical_formula_sum "Si O2"
_cell_formula_units_Z 104
_cell_length_a 18.748798
_cell_length_b 23.031282
_cell_length_c 14.228495
_cell_angle_alpha 90.000000
_cell_angle_beta 90.000000
_cell_angle_gamma 90.000000
_cell_volume 6143.990119
_symmetry_space_group_name_H-M "C C C M"
_symmetry_group_IT_number 66
_symmetry_cell_setting 'orthorhombic'
loop_
_space_group_symop_operation_xyz
x,y,z
-x,-y,z
x,-y,1/2-z
-x,y,1/2-z
-x,-y,-z
x,y,-z
-x,y,1/2+z
x,-y,1/2+z
1/2+x,1/2+y,z
1/2-x,1/2-y,z
1/2+x,1/2-y,1/2-z
1/2-x,1/2+y,1/2-z
1/2-x,1/2-y,-z
1/2+x,1/2+y,-z
1/2-x,1/2+y,1/2+z
1/2+x,1/2-y,1/2+z
loop_
_atom_site_type_symbol
_atom_site_label
_atom_site_fract_x
_atom_site_fract_y
_atom_site_fract_z
Si Si1 0.840704 0.500000 0.250000
Si Si2 0.546003 0.158299 0.389568
Si Si3 0.424171 0.273162 0.767686
Si Si4 0.673212 0.220029 0.888835
Si Si5 0.393291 0.098739 0.612268
Si Si6 0.701943 0.695487 0.108926
Si Si7 0.691074 0.088727 0.606472
O O1 0.883062 0.543335 0.320514
O O2 0.794870 0.459947 0.318004
O O3 0.546584 0.174546 0.500000
O O4 0.558536 0.214875 0.327301
O O5 0.471053 0.127040 0.370331
O O6 0.612483 0.115219 0.374823
O O7 0.500000 0.302526 0.750000
O O8 0.385299 0.253166 0.672722
O O9 0.367507 0.308809 0.828033
O O10 0.750000 0.250000 0.871078
O O11 0.663522 0.150997 0.867160
O O12 0.658302 0.225354 0.000000
O O13 0.388885 0.084567 0.500000
O O14 0.750000 0.750000 0.140976
O O15 0.752535 0.640215 0.113065
O O16 0.682446 0.706684 0.000000
O O17 0.691279 0.066100 0.500000
#
# Coordination Sequence:
#
# PCOD9496965 Si02
#       7
#     8  16  16  16  16  16  16
#     4  12  24  35  54  76 109 154 200 232 259 314
#     4  10  20  35  52  76 109 146 184 226 270 317
#     4  12  21  30  55  84 111 139 178 220 279 341
#     4  10  22  37  53  75 109 145 178 222 276 334
#     4  10  22  38  53  74 111 153 191 228 271 322
#     4  10  20  35  57  83 111 141 179 233 287 333
#     4  10  22  37  54  78 108 144 186 231 275 316
#
# _framework density 16.927111
#
# number of rings (size 3 to 8) (size 9 to 14) (size 15 to 20)
#    0.000    1.538    3.077    2.308    2.154    1.846 
#    0.000    2.308    0.000    0.000    0.000    0.538 
#    0.000    2.462    0.000    0.000    0.000    0.000 
#
# Total GULP energy -290426.581479 kJ/mol
# GULP energy per Si atom -5585.126567 kJ/mol
# Density = 1.688858 g / cm^3
# Si number density = 16.927111 Si / 1000 Ang^3
#
#
#
# Elastic Constant Matrix: (Units=GPa)
#
#
# Indices 1 2 3 4 5 6 
#
# 1 94.6812 30.8767 39.8200 0.0000 0.0000 0.0000
# 2 30.8767 52.3616 36.3117 0.0000 0.0000 0.0000
# 3 39.8200 36.3117 76.7112 0.0000 0.0000 0.0000
# 4 0.0000 0.0000 0.0000 34.5442 0.0000 0.0000
# 5 0.0000 0.0000 0.0000 0.0000 23.3339 0.0000
# 6 0.0000 0.0000 0.0000 0.0000 0.0000 9.0737
#
#
#
# Elastic Compliance Matrix: (Units=1/GPa)
#
#
# Indices 1 2 3 4 5 6 
#
# 1 0.014307 -0.004892 -0.005111 0.000000 0.000000 0.000000
# 2 -0.004892 0.030104 -0.011710 0.000000 0.000000 0.000000
# 3 -0.005111 -0.011710 0.021232 0.000000 0.000000 0.000000
# 4 0.000000 0.000000 0.000000 0.028948 0.000000 0.000000
# 5 0.000000 0.000000 0.000000 0.000000 0.042856 0.000000
# 6 0.000000 0.000000 0.000000 0.000000 0.000000 0.110209
#
#
# Mechanical properties :
#
#
# Convention : Reuss Voigt Hill
#
# Bulk Modulus (GPa) = 45.01276 48.64119 46.82698
# Shear Modulus (GPa) = 16.75115 21.17340 18.96228
#
# Velocity S-wave (km/s) = 3.14921 3.54058 3.35062
# Velocity P-wave (km/s) = 6.31452 6.74628 6.53397
#
# Compressibility (1/GPa) = 0.02221592
#
# Stress axis : x y z
#
# Youngs Moduli (GPa) = 69.89810 33.21865 47.09902
#
# Poissons Ratio (x) = 0.16251 0.24071
# Poissons Ratio (y) = 0.34196 0.55154
# Poissons Ratio (z) = 0.35722 0.38900
#
# Static dielectric constant tensor:
#      x y z
#    x 1.576190 0.000000 0.000000 
#    y 0.000000 1.563120 0.000000 
#    z 0.000000 0.000000 1.624370 
# 
# From -- ./inp_files/30200.got.cif
#   From: 2010.05.17/outbox.cif.g08.bks.cpg/sg66_16_cif.got.tgz:30200.got - 2010.06.03 17:51:23.
