data_PCOD9496550
_publ_section_title
;
Structure prediction by ZEFSAII (Michael W. Deem and Ramdas Pophale) SiO2 
 PCOD9496550
Probable space group: C C C M
;
_chemical_formula_sum "Si O2"
_cell_formula_units_Z 80
_cell_length_a 23.607741
_cell_length_b 11.208925
_cell_length_c 14.864091
_cell_angle_alpha 90.000000
_cell_angle_beta 90.000000
_cell_angle_gamma 90.000000
_cell_volume 3933.297088
_symmetry_space_group_name_H-M "C C C M"
_symmetry_group_IT_number 66
_symmetry_cell_setting 'orthorhombic'
loop_
_space_group_symop_operation_xyz
x,y,z
-x,-y,z
x,-y,1/2-z
-x,y,1/2-z
-x,-y,-z
x,y,-z
-x,y,1/2+z
x,-y,1/2+z
1/2+x,1/2+y,z
1/2-x,1/2-y,z
1/2+x,1/2-y,1/2-z
1/2-x,1/2+y,1/2-z
1/2-x,1/2-y,-z
1/2+x,1/2+y,-z
1/2-x,1/2+y,1/2+z
1/2+x,1/2-y,1/2+z
loop_
_atom_site_type_symbol
_atom_site_label
_atom_site_fract_x
_atom_site_fract_y
_atom_site_fract_z
Si Si1 0.565763 0.481092 0.356976
Si Si2 0.344281 0.878304 0.761725
Si Si3 0.637337 0.297676 0.095594
Si Si4 0.664760 0.307077 0.394810
Si Si5 0.743999 0.462710 0.895156
O O1 0.500000 0.500000 0.378859
O O2 0.572238 0.500000 0.250000
O O3 0.597941 0.588325 0.404465
O O4 0.601501 0.362999 0.382679
O O5 0.377399 0.784833 0.822179
O O6 0.327684 0.804984 0.672054
O O7 0.292699 0.925996 0.825587
O O8 0.378480 0.000000 0.750000
O O9 0.699371 0.354074 0.108524
O O10 0.635302 0.233886 0.000000
O O11 0.673358 0.276481 0.500000
O O12 0.708347 0.416382 0.372330
O O13 0.762327 0.474186 0.000000
#
# Coordination Sequence:
#
# PCOD9496550 Si02
#       5
#    16  16  16  16  16
#     4  10  19  37  70 100 117 146 195 253 322 372
#     4  12  25  35  58  82 118 170 204 237 291 354
#     4  10  21  38  59  87 120 149 193 249 301 359
#     4  10  23  42  60  89 127 156 199 260 308 357
#     4   9  21  38  59  84 113 155 204 250 299 353
#
# _framework density 20.339171
#
# number of rings (size 3 to 8) (size 9 to 14) (size 15 to 20)
#    0.000    1.800    2.000    3.000    5.600    4.800 
#    0.000    2.000    0.000    2.400    0.000    2.800 
#    0.000    0.000    0.000    0.000    0.000    0.000 
#
# Total GULP energy -223270.806253 kJ/mol
# GULP energy per Si atom -5581.770156 kJ/mol
# Density = 2.029288 g / cm^3
# Si number density = 20.339171 Si / 1000 Ang^3
#
#
#
# Elastic Constant Matrix: (Units=GPa)
#
#
# Indices 1 2 3 4 5 6 
#
# 1 67.3546 11.8786 10.2358 0.0000 0.0000 0.0000
# 2 11.8786 121.3103 56.6320 0.0000 0.0000 0.0000
# 3 10.2358 56.6320 105.3437 0.0000 0.0000 0.0000
# 4 0.0000 0.0000 0.0000 -1.0682 0.0000 0.0000
# 5 0.0000 0.0000 0.0000 0.0000 14.6704 0.0000
# 6 0.0000 0.0000 0.0000 0.0000 0.0000 12.8109
#
#
#
# Elastic Compliance Matrix: (Units=1/GPa)
#
#
# Indices 1 2 3 4 5 6 
#
# 1 0.015172 -0.001065 -0.000902 0.000000 0.000000 0.000000
# 2 -0.001065 0.011080 -0.005853 0.000000 0.000000 0.000000
# 3 -0.000902 -0.005853 0.012727 0.000000 0.000000 0.000000
# 4 0.000000 0.000000 0.000000 -0.936138 0.000000 0.000000
# 5 0.000000 0.000000 0.000000 0.000000 0.068165 0.000000
# 6 0.000000 0.000000 0.000000 0.000000 0.000000 0.078058
#
#
# Mechanical properties :
#
#
# Convention : Reuss Voigt Hill
#
# Bulk Modulus (GPa) = 42.84579 50.16681 46.50630
# Shear Modulus (GPa) = -6.87268 19.63343 6.38037
#
# Velocity S-wave (km/s) = -1.84021 3.11030 1.77308
# Velocity P-wave (km/s) = 4.07385 6.13329 5.20641
#
# Compressibility (1/GPa) = 0.02333952
#
# Stress axis : x y z
#
# Youngs Moduli (GPa) = 65.91269 90.25269 78.57343
#
# Poissons Ratio (x) = 0.09608 0.07086
# Poissons Ratio (y) = 0.07017 0.45990
# Poissons Ratio (z) = 0.05944 0.52826
#
# Static dielectric constant tensor:
#      x y z
#    x 1.739140 0.000000 0.000000 
#    y 0.000000 1.807810 0.000000 
#    z 0.000000 0.000000 1.796160 
# 
# From -- ./inp_files/26411.got.cif
#   From: 2010.05.17/outbox.cif.g08.bks.cpg/sg66_14_cif.got.tgz:26411.got - 2010.06.03 17:51:23.
