data_PCOD9496003
_publ_section_title
;
Structure prediction by ZEFSAII (Michael W. Deem and Ramdas Pophale) SiO2 
 PCOD9496003
Probable space group: C C C M
;
_chemical_formula_sum "Si O2"
_cell_formula_units_Z 96
_cell_length_a 29.171821
_cell_length_b 9.625556
_cell_length_c 14.091727
_cell_angle_alpha 90.000000
_cell_angle_beta 90.000000
_cell_angle_gamma 90.000000
_cell_volume 3956.886436
_symmetry_space_group_name_H-M "C C C M"
_symmetry_group_IT_number 66
_symmetry_cell_setting 'orthorhombic'
loop_
_space_group_symop_operation_xyz
x,y,z
-x,-y,z
x,-y,1/2-z
-x,y,1/2-z
-x,-y,-z
x,y,-z
-x,y,1/2+z
x,-y,1/2+z
1/2+x,1/2+y,z
1/2-x,1/2-y,z
1/2+x,1/2-y,1/2-z
1/2-x,1/2+y,1/2-z
1/2-x,1/2-y,-z
1/2+x,1/2+y,-z
1/2-x,1/2+y,1/2+z
1/2+x,1/2-y,1/2+z
loop_
_atom_site_type_symbol
_atom_site_label
_atom_site_fract_x
_atom_site_fract_y
_atom_site_fract_z
Si Si1 0.381149 0.778005 0.889122
Si Si2 0.700304 0.319773 0.610252
Si Si3 0.874676 0.596849 0.114918
Si Si4 0.283581 0.368199 0.389723
Si Si5 0.979996 0.642477 0.143890
Si Si6 0.536501 0.603579 0.395649
O O1 0.332725 0.703530 0.889271
O O2 0.418546 0.670186 0.847035
O O3 0.374773 0.935038 0.851200
O O4 0.395907 0.794707 0.000000
O O5 0.685843 0.341051 0.500000
O O6 0.750000 0.250000 0.611290
O O7 0.663163 0.208930 0.650630
O O8 0.708693 0.475744 0.648405
O O9 0.925642 0.648187 0.137768
O O10 0.868167 0.589225 0.000000
O O11 0.267143 0.387721 0.500000
O O12 0.250000 0.250000 0.346117
O O13 0.000000 0.500000 0.104805
O O14 0.000000 0.650009 0.250000
O O15 0.004081 0.765717 0.092404
O O16 0.500000 0.500000 0.349428
O O17 0.550097 0.544512 0.500000
#
# Coordination Sequence:
#
# PCOD9496003 Si02
#       6
#    16  16  16  16  16  16
#     4   9  17  29  45  71 102 138 178 224 280 332
#     4   9  17  28  46  77 113 146 182 227 282 344
#     4  10  19  32  54  79 110 149 191 238 287 339
#     4   9  16  26  42  67 106 146 177 216 274 340
#     4  11  23  38  55  78 111 149 198 234 286 342
#     4  10  21  35  55  80 108 140 183 236 287 341
#
# _framework density 24.261500000000002
#
# number of rings (size 3 to 8) (size 9 to 14) (size 15 to 20)
#    0.000    2.333    1.667    1.500    2.333    5.000 
#    0.000    0.000    0.000    0.000    0.000    1.167 
#    0.000    0.000    0.000    0.000    0.000    0.167 
#
# Total GULP energy -267781.283381 kJ/mol
# GULP energy per Si atom -5578.776737 kJ/mol
# Density = 2.420628 g / cm^3
# Si number density = 24.261500 Si / 1000 Ang^3
#
#
#
# Elastic Constant Matrix: (Units=GPa)
#
#
# Indices 1 2 3 4 5 6 
#
# 1 157.3341 90.7770 -15.7802 0.0000 0.0000 0.0000
# 2 90.7770 138.2861 16.9342 0.0000 0.0000 0.0000
# 3 -15.7802 16.9342 76.1461 0.0000 0.0000 0.0000
# 4 0.0000 0.0000 0.0000 19.8937 0.0000 0.0000
# 5 0.0000 0.0000 0.0000 0.0000 -1.4481 0.0000
# 6 0.0000 0.0000 0.0000 0.0000 0.0000 56.7436
#
#
#
# Elastic Compliance Matrix: (Units=1/GPa)
#
#
# Indices 1 2 3 4 5 6 
#
# 1 0.011367 -0.007967 0.004127 0.000000 0.000000 0.000000
# 2 -0.007967 0.013018 -0.004546 0.000000 0.000000 0.000000
# 3 0.004127 -0.004546 0.014999 0.000000 0.000000 0.000000
# 4 0.000000 0.000000 0.000000 0.050267 0.000000 0.000000
# 5 0.000000 0.000000 0.000000 0.000000 -0.690583 0.000000
# 6 0.000000 0.000000 0.000000 0.000000 0.000000 0.017623
#
#
# Mechanical properties :
#
#
# Convention : Reuss Voigt Hill
#
# Bulk Modulus (GPa) = 44.22419 61.73648 52.98033
# Shear Modulus (GPa) = -8.94454 33.69356 12.37451
#
# Velocity S-wave (km/s) = -1.92217 3.73066 2.26087
# Velocity P-wave (km/s) = 3.65259 6.63767 5.35724
#
# Compressibility (1/GPa) = 0.02261206
#
# Stress axis : x y z
#
# Youngs Moduli (GPa) = 87.97776 76.81731 66.67119
#
# Poissons Ratio (x) = 0.61200 -0.27517
# Poissons Ratio (y) = 0.70091 0.30309
# Poissons Ratio (z) = -0.36311 0.34922
#
# Static dielectric constant tensor:
#      x y z
#    x 1.847170 0.000000 0.000000 
#    y 0.000000 1.895250 0.000000 
#    z 0.000000 0.000000 2.053660 
# 
# From -- ./inp_files/52951.got.cif
#   From: 2010.05.17/outbox.cif.g08.bks.cpg/sg66_27_cif.got.tgz:52951.got - 2010.06.03 17:51:23.
