data_PCOD9496430
_publ_section_title
;
Structure prediction by ZEFSAII (Michael W. Deem and Ramdas Pophale) SiO2 
 PCOD9496430
Probable space group: C C C M
;
_chemical_formula_sum "Si O2"
_cell_formula_units_Z 84
_cell_length_a 9.635704
_cell_length_b 16.536108
_cell_length_c 21.560123
_cell_angle_alpha 90.000000
_cell_angle_beta 90.000000
_cell_angle_gamma 90.000000
_cell_volume 3435.326224
_symmetry_space_group_name_H-M "C C C M"
_symmetry_group_IT_number 66
_symmetry_cell_setting 'orthorhombic'
loop_
_space_group_symop_operation_xyz
x,y,z
-x,-y,z
x,-y,1/2-z
-x,y,1/2-z
-x,-y,-z
x,y,-z
-x,y,1/2+z
x,-y,1/2+z
1/2+x,1/2+y,z
1/2-x,1/2-y,z
1/2+x,1/2-y,1/2-z
1/2-x,1/2+y,1/2-z
1/2-x,1/2-y,-z
1/2+x,1/2+y,-z
1/2-x,1/2+y,1/2+z
1/2+x,1/2-y,1/2+z
loop_
_atom_site_type_symbol
_atom_site_label
_atom_site_fract_x
_atom_site_fract_y
_atom_site_fract_z
Si Si1 0.750941 0.658363 0.096447
Si Si2 0.457024 0.116586 0.569827
Si Si3 0.000000 0.000000 0.750000
Si Si4 0.944208 0.189023 0.073659
Si Si5 0.651386 0.182057 0.262644
Si Si6 0.237810 0.080634 0.662883
O O1 0.750000 0.750000 0.070321
O O2 0.589266 0.640719 0.087014
O O3 0.795008 0.664790 0.168563
O O4 0.875540 0.606532 0.069106
O O5 0.405659 0.107446 0.500000
O O6 0.449694 0.213897 0.587075
O O7 0.364030 0.061323 0.614600
O O8 0.108874 0.039229 0.699744
O O9 0.836439 0.148066 0.119804
O O10 0.914026 0.181732 0.000000
O O11 0.500000 0.214851 0.250000
O O12 0.750000 0.250000 0.235973
O O13 0.669150 0.104688 0.221425
#
# Coordination Sequence:
#
# PCOD9496430 Si02
#       6
#    16  16   4  16  16  16
#     4   9  18  31  53  93 140 168 196 241 320 410
#     4  10  19  35  64 101 134 163 202 266 340 402
#     4  12  32  48  64  84 124 192 242 276 316 368
#     4  10  20  36  64 100 134 167 204 264 344 409
#     4  11  22  35  63 102 131 168 210 274 345 405
#     4  12  24  43  61  84 124 173 225 277 313 387
#
# _framework density 24.451826000000001
#
# number of rings (size 3 to 8) (size 9 to 14) (size 15 to 20)
#    0.000    1.524    1.905    4.000    6.667    3.810 
#    0.000    2.381    0.000    0.000    0.000    4.000 
#    0.000    0.000    0.000    0.000    0.000    0.000 
#
# Total GULP energy -233810.391883 kJ/mol
# GULP energy per Si atom -5566.914092 kJ/mol
# Density = 2.439617 g / cm^3
# Si number density = 24.451826 Si / 1000 Ang^3
#
#
#
# Elastic Constant Matrix: (Units=GPa)
#
#
# Indices 1 2 3 4 5 6 
#
# 1 183.2838 32.3612 44.2776 0.0000 0.0000 0.0000
# 2 32.3612 55.8568 39.7439 0.0000 0.0000 0.0000
# 3 44.2776 39.7439 169.5137 0.0000 0.0000 0.0000
# 4 0.0000 0.0000 0.0000 6.5775 0.0000 0.0000
# 5 0.0000 0.0000 0.0000 0.0000 22.7114 0.0000
# 6 0.0000 0.0000 0.0000 0.0000 0.0000 -6.2341
#
#
#
# Elastic Compliance Matrix: (Units=1/GPa)
#
#
# Indices 1 2 3 4 5 6 
#
# 1 0.006198 -0.002927 -0.000933 0.000000 0.000000 0.000000
# 2 -0.002927 0.022870 -0.004597 0.000000 0.000000 0.000000
# 3 -0.000933 -0.004597 0.007221 0.000000 0.000000 0.000000
# 4 0.000000 0.000000 0.000000 0.152034 0.000000 0.000000
# 5 0.000000 0.000000 0.000000 0.000000 0.044031 0.000000
# 6 0.000000 0.000000 0.000000 0.000000 0.000000 -0.160408
#
#
# Mechanical properties :
#
#
# Convention : Reuss Voigt Hill
#
# Bulk Modulus (GPa) = 51.61519 71.26884 61.44202
# Shear Modulus (GPa) = 52.45545 24.09573 38.27559
#
# Velocity S-wave (km/s) = 4.63672 3.14257 3.96074
# Velocity P-wave (km/s) = 7.05835 6.50981 6.78962
#
# Compressibility (1/GPa) = 0.01937414
#
# Stress axis : x y z
#
# Youngs Moduli (GPa) = 161.33727 43.72514 138.48982
#
# Poissons Ratio (x) = 0.12800 0.12916
# Poissons Ratio (y) = 0.47230 0.63670
# Poissons Ratio (z) = 0.15047 0.20102
#
# Static dielectric constant tensor:
#      x y z
#    x 2.254560 0.000000 0.000000 
#    y 0.000000 2.024120 0.000000 
#    z 0.000000 0.000000 1.928460 
# 
# From -- ./inp_files/55385.got.cif
#   From: 2010.05.17/outbox.cif.g08.bks.cpg/sg66_28_cif.got.tgz:55385.got - 2010.06.03 17:51:23.
