data_PCOD9496971
_publ_section_title
;
Structure prediction by ZEFSAII (Michael W. Deem and Ramdas Pophale) SiO2 
 PCOD9496971
Probable space group: C C C M
;
_chemical_formula_sum "Si O2"
_cell_formula_units_Z 116
_cell_length_a 27.399166
_cell_length_b 27.842278
_cell_length_c 8.801541
_cell_angle_alpha 90.000000
_cell_angle_beta 90.000000
_cell_angle_gamma 90.000000
_cell_volume 6714.301291
_symmetry_space_group_name_H-M "C C C M"
_symmetry_group_IT_number 66
_symmetry_cell_setting 'orthorhombic'
loop_
_space_group_symop_operation_xyz
x,y,z
-x,-y,z
x,-y,1/2-z
-x,y,1/2-z
-x,-y,-z
x,y,-z
-x,y,1/2+z
x,-y,1/2+z
1/2+x,1/2+y,z
1/2-x,1/2-y,z
1/2+x,1/2-y,1/2-z
1/2-x,1/2+y,1/2-z
1/2-x,1/2-y,-z
1/2+x,1/2+y,-z
1/2-x,1/2+y,1/2+z
1/2+x,1/2-y,1/2+z
loop_
_atom_site_type_symbol
_atom_site_label
_atom_site_fract_x
_atom_site_fract_y
_atom_site_fract_z
Si Si1 0.865879 0.745295 0.683935
Si Si2 0.179464 0.651552 0.817443
Si Si3 0.447008 0.679185 0.816259
Si Si4 0.816049 0.075032 0.678007
Si Si5 0.000000 0.000000 0.750000
Si Si6 0.085278 0.071863 0.327128
Si Si7 0.208513 0.826061 0.180494
Si Si8 0.712465 0.049383 0.182063
O O1 0.870156 0.742377 0.500000
O O2 0.858656 0.691046 0.742021
O O3 0.909856 0.779312 0.736336
O O4 0.817101 0.775985 0.714754
O O5 0.233862 0.672452 0.792799
O O6 0.183258 0.596715 0.762387
O O7 0.172766 0.648646 0.000000
O O8 0.500000 0.688154 0.750000
O O9 0.430773 0.625064 0.773392
O O10 0.448168 0.679734 0.000000
O O11 0.808486 0.068013 0.500000
O O12 0.868758 0.055439 0.727382
O O13 0.815611 0.131312 0.723810
O O14 0.768933 0.055001 0.766365
O O15 0.038644 0.036640 0.673389
O O16 0.103234 0.076188 0.500000
O O17 0.200650 0.836083 0.000000
O O18 0.693220 0.000000 0.250000
O O19 0.711479 0.048359 0.000000
#
# Coordination Sequence:
#
# PCOD9496971 Si02
#       8
#    16  16  16  16   4  16  16  16
#     4   9  15  27  49  75  97 125 160 200 249 297
#     4   8  15  26  47  76 100 123 160 201 237 289
#     4  10  20  35  54  72  95 126 163 208 255 307
#     4  11  22  34  51  72  96 129 166 206 249 299
#     4  12  26  40  56  70  90 120 168 230 276 304
#     4  11  23  40  55  70  91 122 166 218 268 307
#     4   9  15  28  49  73  99 126 158 200 244 295
#     4  10  20  35  53  73 100 132 164 200 237 286
#
# _framework density 17.276555999999999
#
# number of rings (size 3 to 8) (size 9 to 14) (size 15 to 20)
#    0.000    2.207    2.069    3.103    0.966    3.310 
#    0.000    0.000    0.000   11.586    0.000    0.000 
#    0.000    0.552    0.000    6.897    0.000    0.000 
#
# Total GULP energy -323264.259571 kJ/mol
# GULP energy per Si atom -5573.521717 kJ/mol
# Density = 1.723723 g / cm^3
# Si number density = 17.276556 Si / 1000 Ang^3
#
#
#
# Elastic Constant Matrix: (Units=GPa)
#
#
# Indices 1 2 3 4 5 6 
#
# 1 40.1303 54.9877 9.8166 0.0000 0.0000 0.0000
# 2 54.9877 150.9750 19.0919 0.0000 0.0000 0.0000
# 3 9.8166 19.0919 30.7500 0.0000 0.0000 0.0000
# 4 0.0000 0.0000 0.0000 56.3649 0.0000 0.0000
# 5 0.0000 0.0000 0.0000 0.0000 9.0020 0.0000
# 6 0.0000 0.0000 0.0000 0.0000 0.0000 23.2020
#
#
#
# Elastic Compliance Matrix: (Units=1/GPa)
#
#
# Indices 1 2 3 4 5 6 
#
# 1 0.050470 -0.017737 -0.005100 0.000000 0.000000 0.000000
# 2 -0.017737 0.013422 -0.002671 0.000000 0.000000 0.000000
# 3 -0.005100 -0.002671 0.035806 0.000000 0.000000 0.000000
# 4 0.000000 0.000000 0.000000 0.017742 0.000000 0.000000
# 5 0.000000 0.000000 0.000000 0.000000 0.111086 0.000000
# 6 0.000000 0.000000 0.000000 0.000000 0.000000 0.043100
#
#
# Mechanical properties :
#
#
# Convention : Reuss Voigt Hill
#
# Bulk Modulus (GPa) = 20.54088 43.29422 31.91755
# Shear Modulus (GPa) = 14.75498 26.91105 20.83301
#
# Velocity S-wave (km/s) = 2.92558 3.95101 3.47631
# Velocity P-wave (km/s) = 4.82983 6.77701 5.88452
#
# Compressibility (1/GPa) = 0.04868340
#
# Stress axis : x y z
#
# Youngs Moduli (GPa) = 19.81358 74.50685 27.92797
#
# Poissons Ratio (x) = 1.32155 0.14242
# Poissons Ratio (y) = 0.35144 0.07459
# Poissons Ratio (z) = 0.10104 0.19898
#
# Static dielectric constant tensor:
#      x y z
#    x 1.576970 0.000000 0.000000 
#    y 0.000000 1.648270 0.000000 
#    z 0.000000 0.000000 1.592790 
# 
# From -- ./inp_files/10901.got.cif
#   From: 2010.05.17/outbox.cif.g08.bks.cpg/sg66_6_cif.got.tgz:10901.got - 2010.06.03 17:51:23.
