data_PCOD9496638
_publ_section_title
;
Structure prediction by ZEFSAII (Michael W. Deem and Ramdas Pophale) SiO2 
 PCOD9496638
Probable space group: C C C M
;
_chemical_formula_sum "Si O2"
_cell_formula_units_Z 112
_cell_length_a 12.687040
_cell_length_b 32.095854
_cell_length_c 14.409660
_cell_angle_alpha 90.000000
_cell_angle_beta 90.000000
_cell_angle_gamma 90.000000
_cell_volume 5867.633488
_symmetry_space_group_name_H-M "C C C M"
_symmetry_group_IT_number 66
_symmetry_cell_setting 'orthorhombic'
loop_
_space_group_symop_operation_xyz
x,y,z
-x,-y,z
x,-y,1/2-z
-x,y,1/2-z
-x,-y,-z
x,y,-z
-x,y,1/2+z
x,-y,1/2+z
1/2+x,1/2+y,z
1/2-x,1/2-y,z
1/2+x,1/2-y,1/2-z
1/2-x,1/2+y,1/2-z
1/2-x,1/2-y,-z
1/2+x,1/2+y,-z
1/2-x,1/2+y,1/2+z
1/2+x,1/2-y,1/2+z
loop_
_atom_site_type_symbol
_atom_site_label
_atom_site_fract_x
_atom_site_fract_y
_atom_site_fract_z
Si Si1 0.870608 0.614121 0.398111
Si Si2 0.122290 0.841944 0.270856
Si Si3 0.035005 0.454883 0.142365
Si Si4 0.069968 0.764701 0.607230
Si Si5 0.322804 0.711450 0.107281
Si Si6 0.704693 0.100773 0.698032
Si Si7 0.443854 0.170791 0.889007
O O1 0.819637 0.615692 0.500000
O O2 0.807543 0.597644 0.309380
O O3 0.966831 0.581022 0.404181
O O4 0.933491 0.657334 0.378089
O O5 0.125426 0.800598 0.334365
O O6 0.181016 0.827613 0.176284
O O7 0.179583 0.880998 0.317953
O O8 0.000000 0.850597 0.250000
O O9 0.156945 0.439894 0.146912
O O10 0.000000 0.500000 0.106990
O O11 0.000000 0.453982 0.250000
O O12 0.104114 0.766599 0.500000
O O13 0.081429 0.717589 0.642025
O O14 0.944822 0.774194 0.610299
O O15 0.250000 0.750000 0.136503
O O16 0.296787 0.701774 0.000000
O O17 0.627290 0.137986 0.665237
O O18 0.423561 0.168418 0.000000
#
# Coordination Sequence:
#
# PCOD9496638 Si02
#       7
#    16  16  16  16  16  16  16
#     4   9  18  30  47  76 105 127 156 197 247 310
#     4  10  22  34  47  67  97 134 180 221 251 293
#     4   8  15  31  52  76 103 127 151 187 242 310
#     4   9  19  34  48  64  92 131 175 228 266 291
#     4   9  19  32  46  66  90 127 178 222 260 297
#     4  10  20  31  49  72  99 133 165 201 251 305
#     4   9  18  31  47  69  96 126 168 217 262 305
#
# _framework density 19.087765000000001
#
# number of rings (size 3 to 8) (size 9 to 14) (size 15 to 20)
#    0.000    2.857    0.000    1.286    4.000    3.714 
#    0.000    1.429    0.000    0.000    0.000    8.000 
#    0.000    1.143    0.000    0.000    0.000    0.000 
#
# Total GULP energy -312155.049227 kJ/mol
# GULP energy per Si atom -5574.197308 kJ/mol
# Density = 1.904432 g / cm^3
# Si number density = 19.087765 Si / 1000 Ang^3
#
#
#
# Elastic Constant Matrix: (Units=GPa)
#
#
# Indices 1 2 3 4 5 6 
#
# 1 35.2918 31.7432 6.4890 0.0000 0.0000 0.0000
# 2 31.7432 98.2722 12.9661 0.0000 0.0000 0.0000
# 3 6.4890 12.9661 51.0937 0.0000 0.0000 0.0000
# 4 0.0000 0.0000 0.0000 -6.7947 0.0000 0.0000
# 5 0.0000 0.0000 0.0000 0.0000 3.5446 0.0000
# 6 0.0000 0.0000 0.0000 0.0000 0.0000 26.2843
#
#
#
# Elastic Compliance Matrix: (Units=1/GPa)
#
#
# Indices 1 2 3 4 5 6 
#
# 1 0.040110 -0.012710 -0.001869 0.000000 0.000000 0.000000
# 2 -0.012710 0.014556 -0.002080 0.000000 0.000000 0.000000
# 3 -0.001869 -0.002080 0.020337 0.000000 0.000000 0.000000
# 4 0.000000 0.000000 0.000000 -0.147174 0.000000 0.000000
# 5 0.000000 0.000000 0.000000 0.000000 0.282121 0.000000
# 6 0.000000 0.000000 0.000000 0.000000 0.000000 0.038046
#
#
# Mechanical properties :
#
#
# Convention : Reuss Voigt Hill
#
# Bulk Modulus (GPa) = 23.98836 31.89494 27.94165
# Shear Modulus (GPa) = 16.93726 13.50413 15.22069
#
# Velocity S-wave (km/s) = 2.98205 2.66273 2.82690
# Velocity P-wave (km/s) = 4.94485 5.11853 5.03244
#
# Compressibility (1/GPa) = 0.04168689
#
# Stress axis : x y z
#
# Youngs Moduli (GPa) = 24.93119 68.70222 49.17154
#
# Poissons Ratio (x) = 0.87318 0.09189
# Poissons Ratio (y) = 0.31687 0.10226
# Poissons Ratio (z) = 0.04659 0.14288
#
# Static dielectric constant tensor:
#      x y z
#    x 1.695970 0.000000 0.000000 
#    y 0.000000 1.694380 0.000000 
#    z 0.000000 0.000000 1.727990 
# 
# From -- ./inp_files/29027.got.cif
#   From: 2010.05.17/outbox.cif.g08.bks.cpg/sg66_15_cif.got.tgz:29027.got - 2010.06.03 17:51:23.
