data_PCOD9496666
_publ_section_title
;
Structure prediction by ZEFSAII (Michael W. Deem and Ramdas Pophale) SiO2 
 PCOD9496666
Probable space group: C C C M
;
_chemical_formula_sum "Si O2"
_cell_formula_units_Z 80
_cell_length_a 5.092419
_cell_length_b 35.255964
_cell_length_c 24.176821
_cell_angle_alpha 90.000000
_cell_angle_beta 90.000000
_cell_angle_gamma 90.000000
_cell_volume 4340.661496
_symmetry_space_group_name_H-M "C C C M"
_symmetry_group_IT_number 66
_symmetry_cell_setting 'orthorhombic'
loop_
_space_group_symop_operation_xyz
x,y,z
-x,-y,z
x,-y,1/2-z
-x,y,1/2-z
-x,-y,-z
x,y,-z
-x,y,1/2+z
x,-y,1/2+z
1/2+x,1/2+y,z
1/2-x,1/2-y,z
1/2+x,1/2-y,1/2-z
1/2-x,1/2+y,1/2-z
1/2-x,1/2-y,-z
1/2+x,1/2+y,-z
1/2-x,1/2+y,1/2+z
1/2+x,1/2-y,1/2+z
loop_
_atom_site_type_symbol
_atom_site_label
_atom_site_fract_x
_atom_site_fract_y
_atom_site_fract_z
Si Si1 0.748335 0.206039 0.789271
Si Si2 0.083822 0.641236 0.871065
Si Si3 0.097010 0.960261 0.622369
Si Si4 0.082552 0.119592 0.064225
Si Si5 0.594628 0.938741 0.687710
O O1 0.500000 0.201419 0.750000
O O2 0.750000 0.250000 0.807719
O O3 0.695849 0.177560 0.839319
O O4 0.000000 0.198374 0.750000
O O5 0.290509 0.631876 0.919207
O O6 0.082538 0.605790 0.828409
O O7 0.794489 0.641676 0.897710
O O8 0.094825 0.924879 0.580689
O O9 0.385302 0.959827 0.648561
O O10 0.886797 0.951727 0.671534
O O11 0.000000 0.000000 0.597773
O O12 0.137731 0.125161 0.000000
O O13 0.500000 0.944639 0.750000
#
# Coordination Sequence:
#
# PCOD9496666 Si02
#       5
#    16  16  16  16  16
#     4  10  20  34  56  86 116 144 171 205 257 316
#     4  10  20  35  55  78 106 136 175 218 255 311
#     4  10  21  34  49  73 100 130 173 219 263 314
#     4  10  21  37  56  75  98 136 181 225 269 305
#     4  10  20  32  49  73 102 137 169 203 257 320
#
# _framework density 18.430372999999999
#
# number of rings (size 3 to 8) (size 9 to 14) (size 15 to 20)
#    0.000    2.000    0.000    3.600    0.000    6.000 
#    0.000    0.000    0.000   10.800    0.000    0.000 
#    0.000    0.000    0.000    0.000    0.000    0.000 
#
# Total GULP energy -223212.076812 kJ/mol
# GULP energy per Si atom -5580.301920 kJ/mol
# Density = 1.838842 g / cm^3
# Si number density = 18.430373 Si / 1000 Ang^3
#
#
#
# Elastic Constant Matrix: (Units=GPa)
#
#
# Indices 1 2 3 4 5 6 
#
# 1 92.1529 16.5858 -0.4353 0.0000 0.0000 0.0000
# 2 16.5858 78.5795 38.1687 0.0000 0.0000 0.0000
# 3 -0.4353 38.1687 47.2379 0.0000 0.0000 0.0000
# 4 0.0000 0.0000 0.0000 -3.4642 0.0000 0.0000
# 5 0.0000 0.0000 0.0000 0.0000 0.6925 0.0000
# 6 0.0000 0.0000 0.0000 0.0000 0.0000 31.1823
#
#
#
# Elastic Compliance Matrix: (Units=1/GPa)
#
#
# Indices 1 2 3 4 5 6 
#
# 1 0.011609 -0.004119 0.003435 0.000000 0.000000 0.000000
# 2 -0.004119 0.022409 -0.018144 0.000000 0.000000 0.000000
# 3 0.003435 -0.018144 0.035862 0.000000 0.000000 0.000000
# 4 0.000000 0.000000 0.000000 -0.288669 0.000000 0.000000
# 5 0.000000 0.000000 0.000000 0.000000 1.444002 0.000000
# 6 0.000000 0.000000 0.000000 0.000000 0.000000 0.032069
#
#
# Mechanical properties :
#
#
# Convention : Reuss Voigt Hill
#
# Bulk Modulus (GPa) = 31.03342 36.28986 33.66164
# Shear Modulus (GPa) = 3.82942 16.59220 10.21081
#
# Velocity S-wave (km/s) = 1.44301 3.00370 2.35632
# Velocity P-wave (km/s) = 4.43296 5.63583 5.07019
#
# Compressibility (1/GPa) = 0.03222332
#
# Stress axis : x y z
#
# Youngs Moduli (GPa) = 86.13953 44.62554 27.88466
#
# Poissons Ratio (x) = 0.18381 -0.09579
# Poissons Ratio (y) = 0.35480 0.50595
# Poissons Ratio (z) = -0.29589 0.80970
#
# Static dielectric constant tensor:
#      x y z
#    x 1.619080 0.000000 0.000000 
#    y 0.000000 1.806980 0.000000 
#    z 0.000000 0.000000 1.582150 
# 
# From -- ./inp_files/54346.got.cif
#   From: 2010.05.17/outbox.cif.g08.bks.cpg/sg66_28_cif.got.tgz:54346.got - 2010.06.03 17:51:23.
