data_PCOD9496933
_publ_section_title
;
Structure prediction by ZEFSAII (Michael W. Deem and Ramdas Pophale) SiO2 
 PCOD9496933
Probable space group: C C C M
;
_chemical_formula_sum "Si O2"
_cell_formula_units_Z 116
_cell_length_a 23.427438
_cell_length_b 16.880040
_cell_length_c 14.566784
_cell_angle_alpha 90.000000
_cell_angle_beta 90.000000
_cell_angle_gamma 90.000000
_cell_volume 5760.523452
_symmetry_space_group_name_H-M "C C C M"
_symmetry_group_IT_number 66
_symmetry_cell_setting 'orthorhombic'
loop_
_space_group_symop_operation_xyz
x,y,z
-x,-y,z
x,-y,1/2-z
-x,y,1/2-z
-x,-y,-z
x,y,-z
-x,y,1/2+z
x,-y,1/2+z
1/2+x,1/2+y,z
1/2-x,1/2-y,z
1/2+x,1/2-y,1/2-z
1/2-x,1/2+y,1/2-z
1/2-x,1/2-y,-z
1/2+x,1/2+y,-z
1/2-x,1/2+y,1/2+z
1/2+x,1/2-y,1/2+z
loop_
_atom_site_type_symbol
_atom_site_label
_atom_site_fract_x
_atom_site_fract_y
_atom_site_fract_z
Si Si1 0.093096 0.514340 0.144019
Si Si2 0.479593 0.722257 0.646956
Si Si3 0.097741 0.700827 0.898389
Si Si4 0.799332 0.410232 0.392660
Si Si5 0.671080 0.401750 0.611085
Si Si6 0.000000 0.500000 0.000000
Si Si7 0.053043 0.046180 0.896113
Si Si8 0.641749 0.235518 0.298465
O O1 0.079872 0.500000 0.250000
O O2 0.092818 0.606919 0.118346
O O3 0.155395 0.479232 0.124073
O O4 0.046230 0.474871 0.079732
O O5 0.500000 0.703331 0.750000
O O6 0.533262 0.765506 0.603012
O O7 0.463692 0.638730 0.602307
O O8 0.421696 0.772870 0.656681
O O9 0.131586 0.735775 0.811182
O O10 0.122157 0.715825 0.000000
O O11 0.801760 0.386019 0.500000
O O12 0.734254 0.434312 0.372694
O O13 0.819243 0.336738 0.330510
O O14 0.664622 0.389981 0.500000
O O15 0.617126 0.454472 0.642772
O O16 0.665682 0.317614 0.662063
O O17 0.058113 0.014273 0.000000
O O18 0.000000 0.000000 0.852599
#
# Coordination Sequence:
#
# PCOD9496933 Si02
#       8
#    16  16  16  16  16   4  16  16
#     4  12  25  40  59  90 125 169 214 265 315 376
#     4   9  20  33  54  83 114 156 197 248 309 368
#     4  11  22  38  57  82 123 169 212 256 309 379
#     4  11  21  36  62  87 120 162 201 254 316 369
#     4   9  19  36  60  95 121 150 204 255 312 385
#     4  12  26  40  60  90 130 158 226 264 316 374
#     4   9  17  33  58  88 121 151 185 246 315 373
#     4  10  20  34  58  86 121 157 200 257 309 367
#
# _framework density 20.137058
#
# number of rings (size 3 to 8) (size 9 to 14) (size 15 to 20)
#    0.000    1.793    2.759    1.448    1.931    4.138 
#    0.000    0.000    9.103    1.655    0.000    0.000 
#    0.000    0.000    0.000    0.000    0.000    0.000 
#
# Total GULP energy -323187.200377 kJ/mol
# GULP energy per Si atom -5572.193110 kJ/mol
# Density = 2.009122 g / cm^3
# Si number density = 20.137058 Si / 1000 Ang^3
#
#
#
# Elastic Constant Matrix: (Units=GPa)
#
#
# Indices 1 2 3 4 5 6 
#
# 1 161.4944 39.5542 48.7857 0.0000 0.0000 0.0000
# 2 39.5542 34.4810 15.8667 0.0000 0.0000 0.0000
# 3 48.7857 15.8667 127.9695 0.0000 0.0000 0.0000
# 4 0.0000 0.0000 0.0000 12.9606 0.0000 0.0000
# 5 0.0000 0.0000 0.0000 0.0000 -5.6348 0.0000
# 6 0.0000 0.0000 0.0000 0.0000 0.0000 28.1325
#
#
#
# Elastic Compliance Matrix: (Units=1/GPa)
#
#
# Indices 1 2 3 4 5 6 
#
# 1 0.009228 -0.009509 -0.002339 0.000000 0.000000 0.000000
# 2 -0.009509 0.040555 -0.001403 0.000000 0.000000 0.000000
# 3 -0.002339 -0.001403 0.008880 0.000000 0.000000 0.000000
# 4 0.000000 0.000000 0.000000 0.077157 0.000000 0.000000
# 5 0.000000 0.000000 0.000000 0.000000 -0.177468 0.000000
# 6 0.000000 0.000000 0.000000 0.000000 0.000000 0.035546
#
#
# Mechanical properties :
#
#
# Convention : Reuss Voigt Hill
#
# Bulk Modulus (GPa) = 31.09391 59.15090 45.12241
# Shear Modulus (GPa) = 160.66429 21.74089 91.20259
#
# Velocity S-wave (km/s) = 8.94196 3.28936 6.73715
# Velocity P-wave (km/s) = 11.04926 6.62302 9.10908
#
# Compressibility (1/GPa) = 0.03216064
#
# Stress axis : x y z
#
# Youngs Moduli (GPa) = 108.36862 24.65760 112.61280
#
# Poissons Ratio (x) = 0.23447 0.26339
# Poissons Ratio (y) = 1.03050 0.15802
# Poissons Ratio (z) = 0.25346 0.03460
#
# Static dielectric constant tensor:
#      x y z
#    x 1.737010 0.000000 0.000000 
#    y 0.000000 1.698740 0.000000 
#    z 0.000000 0.000000 1.742430 
# 
# From -- ./inp_files/32676.got.cif
#   From: 2010.05.17/outbox.cif.g08.bks.cpg/sg66_17_cif.got.tgz:32676.got - 2010.06.03 17:51:23.
