data_PCOD9496846
_publ_section_title
;
Structure prediction by ZEFSAII (Michael W. Deem and Ramdas Pophale) SiO2 
 PCOD9496846
Probable space group: C C C M
;
_chemical_formula_sum "Si O2"
_cell_formula_units_Z 80
_cell_length_a 27.747882
_cell_length_b 18.363370
_cell_length_c 8.816507
_cell_angle_alpha 90.000000
_cell_angle_beta 90.000000
_cell_angle_gamma 90.000000
_cell_volume 4492.403743
_symmetry_space_group_name_H-M "C C C M"
_symmetry_group_IT_number 66
_symmetry_cell_setting 'orthorhombic'
loop_
_space_group_symop_operation_xyz
x,y,z
-x,-y,z
x,-y,1/2-z
-x,y,1/2-z
-x,-y,-z
x,y,-z
-x,y,1/2+z
x,-y,1/2+z
1/2+x,1/2+y,z
1/2-x,1/2-y,z
1/2+x,1/2-y,1/2-z
1/2-x,1/2+y,1/2-z
1/2-x,1/2-y,-z
1/2+x,1/2+y,-z
1/2-x,1/2+y,1/2+z
1/2+x,1/2-y,1/2+z
loop_
_atom_site_type_symbol
_atom_site_label
_atom_site_fract_x
_atom_site_fract_y
_atom_site_fract_z
Si Si1 0.287842 0.923336 0.818825
Si Si2 0.150180 0.281125 0.681750
Si Si3 0.311340 0.366483 0.182175
Si Si4 0.916184 0.075405 0.318907
Si Si5 0.050222 0.234559 0.182439
O O1 0.323998 0.857216 0.783335
O O2 0.235854 0.902919 0.750413
O O3 0.303888 0.000000 0.750000
O O4 0.283682 0.929237 0.000000
O O5 0.147962 0.272311 0.500000
O O6 0.180674 0.214328 0.751546
O O7 0.096929 0.275032 0.751886
O O8 0.360017 0.410729 0.221947
O O9 0.308172 0.362801 0.000000
O O10 0.919212 0.070595 0.500000
O O11 0.942982 0.149401 0.271705
O O12 0.933740 0.000000 0.250000
O O13 0.000000 0.261479 0.250000
O O14 0.050584 0.238325 0.000000
#
# Coordination Sequence:
#
# PCOD9496846 Si02
#       5
#    16  16  16  16  16
#     4  11  23  36  53  79 110 143 178 217 263 314
#     4  10  21  37  56  79 107 139 177 220 264 313
#     4  10  20  34  53  78 109 146 184 218 257 307
#     4   9  19  32  47  72 105 140 176 212 252 299
#     4  10  21  37  56  78 102 133 175 220 269 321
#
# _framework density 17.807836999999999
#
# number of rings (size 3 to 8) (size 9 to 14) (size 15 to 20)
#    0.000    2.000    0.000    4.800    0.000   12.400 
#    0.000    2.000    0.000    0.600    0.000    4.200 
#    0.000    0.000    0.000    0.000    0.000    0.000 
#
# Total GULP energy -223449.383156 kJ/mol
# GULP energy per Si atom -5586.234579 kJ/mol
# Density = 1.776731 g / cm^3
# Si number density = 17.807837 Si / 1000 Ang^3
#
#
#
# Elastic Constant Matrix: (Units=GPa)
#
#
# Indices 1 2 3 4 5 6 
#
# 1 64.9416 17.3395 20.5206 0.0000 0.0000 0.0000
# 2 17.3395 75.9971 24.8549 0.0000 0.0000 0.0000
# 3 20.5206 24.8549 39.2257 0.0000 0.0000 0.0000
# 4 0.0000 0.0000 0.0000 30.1909 0.0000 0.0000
# 5 0.0000 0.0000 0.0000 0.0000 -746.8900 0.0000
# 6 0.0000 0.0000 0.0000 0.0000 0.0000 0.7034
#
#
#
# Elastic Compliance Matrix: (Units=1/GPa)
#
#
# Indices 1 2 3 4 5 6 
#
# 1 0.018555 -0.001336 -0.008861 0.000000 0.000000 0.000000
# 2 -0.001336 0.016694 -0.009879 0.000000 0.000000 0.000000
# 3 -0.008861 -0.009879 0.036389 0.000000 0.000000 0.000000
# 4 0.000000 0.000000 0.000000 0.033123 0.000000 0.000000
# 5 0.000000 0.000000 0.000000 0.000000 -0.001339 0.000000
# 6 0.000000 0.000000 0.000000 0.000000 0.000000 1.421660
#
#
# Mechanical properties :
#
#
# Convention : Reuss Voigt Hill
#
# Bulk Modulus (GPa) = 31.75936 33.95493 32.85714
# Shear Modulus (GPa) = 3.17314 -135.36919 -66.09803
#
# Velocity S-wave (km/s) = 1.33632 -8.72821 -6.09901
# Velocity P-wave (km/s) = 4.50047 9.08112 5.57730
#
# Compressibility (1/GPa) = 0.03148678
#
# Stress axis : x y z
#
# Youngs Moduli (GPa) = 53.89422 59.90116 27.48107
#
# Poissons Ratio (x) = 0.08001 0.24350
# Poissons Ratio (y) = 0.07198 0.27149
# Poissons Ratio (z) = 0.47753 0.59178
#
# Static dielectric constant tensor:
#      x y z
#    x 1.597180 0.000000 0.000000 
#    y 0.000000 1.597050 0.000000 
#    z 0.000000 0.000000 1.593820 
# 
# From -- ./inp_files/6662.got.cif
#   From: 2010.05.17/outbox.cif.g08.bks.cpg/sg66_4_cif.got.tgz:6662.got - 2010.06.03 17:51:23.
