data_PCOD9496722
_publ_section_title
;
Structure prediction by ZEFSAII (Michael W. Deem and Ramdas Pophale) SiO2 
 PCOD9496722
Probable space group: C C C M
;
_chemical_formula_sum "Si O2"
_cell_formula_units_Z 96
_cell_length_a 29.617634
_cell_length_b 20.437129
_cell_length_c 10.344422
_cell_angle_alpha 90.000000
_cell_angle_beta 90.000000
_cell_angle_gamma 90.000000
_cell_volume 6261.472500
_symmetry_space_group_name_H-M "C C C M"
_symmetry_group_IT_number 66
_symmetry_cell_setting 'orthorhombic'
loop_
_space_group_symop_operation_xyz
x,y,z
-x,-y,z
x,-y,1/2-z
-x,y,1/2-z
-x,-y,-z
x,y,-z
-x,y,1/2+z
x,-y,1/2+z
1/2+x,1/2+y,z
1/2-x,1/2-y,z
1/2+x,1/2-y,1/2-z
1/2-x,1/2+y,1/2-z
1/2-x,1/2-y,-z
1/2+x,1/2+y,-z
1/2-x,1/2+y,1/2+z
1/2+x,1/2-y,1/2+z
loop_
_atom_site_type_symbol
_atom_site_label
_atom_site_fract_x
_atom_site_fract_y
_atom_site_fract_z
Si Si1 0.935306 0.753854 0.000000
Si Si2 0.606209 0.259678 0.768944
Si Si3 0.540738 0.254756 0.000000
Si Si4 0.294337 0.290846 0.655740
Si Si5 0.427929 0.587081 0.500000
Si Si6 0.099133 0.916737 0.781570
Si Si7 0.700018 0.557413 0.349590
Si Si8 0.531275 0.413914 0.000000
O O1 0.909948 0.733651 0.130730
O O2 0.988183 0.733598 0.000000
O O3 0.568767 0.666543 0.000000
O O4 0.659982 0.256177 0.792806
O O5 0.599511 0.338036 0.777562
O O6 0.571368 0.234388 0.877607
O O7 0.535459 0.334208 0.000000
O O8 0.299286 0.291842 0.500000
O O9 0.250000 0.250000 0.690650
O O10 0.288326 0.367656 0.692834
O O11 0.404486 0.565187 0.631618
O O12 0.479741 0.566314 0.500000
O O13 0.145586 0.939800 0.843496
O O14 0.057108 0.935167 0.870807
O O15 0.714695 0.500000 0.250000
O O16 0.713883 0.546886 0.500000
#
# Coordination Sequence:
#
# PCOD9496722 Si02
#       8
#     8  16   8  16   8  16  16   8
#     4   9  16  22  33  58  88 110 139 181 223 265
#     4   9  15  25  39  59  84 110 143 182 221 262
#     4   9  14  22  37  56  80 112 147 179 215 263
#     4   9  17  32  52  70  88 115 153 189 222 266
#     4   9  16  22  37  57  73 103 138 178 225 260
#     4   9  16  26  39  56  77 102 137 179 220 260
#     4  10  20  33  50  67  84 109 141 180 222 264
#     4   9  14  24  37  53  75 101 138 180 223 262
#
# _framework density 15.331856
#
# number of rings (size 3 to 8) (size 9 to 14) (size 15 to 20)
#    0.000    2.833    1.667    1.000    1.167    4.000 
#    1.500    0.417    0.000    3.000    0.000    0.000 
#    0.000    0.000    0.000    0.000    0.000    5.000 
#
# Total GULP energy -267242.817152 kJ/mol
# GULP energy per Si atom -5567.558691 kJ/mol
# Density = 1.529696 g / cm^3
# Si number density = 15.331856 Si / 1000 Ang^3
#
#
#
# Elastic Constant Matrix: (Units=GPa)
#
#
# Indices 1 2 3 4 5 6 
#
# 1 98.3228 28.5044 44.7362 0.0000 0.0000 0.0000
# 2 28.5044 31.5812 15.4806 0.0000 0.0000 0.0000
# 3 44.7362 15.4806 100.8179 0.0000 0.0000 0.0000
# 4 0.0000 0.0000 0.0000 -0.6537 0.0000 0.0000
# 5 0.0000 0.0000 0.0000 0.0000 13.5405 0.0000
# 6 0.0000 0.0000 0.0000 0.0000 0.0000 19.8714
#
#
#
# Elastic Compliance Matrix: (Units=1/GPa)
#
#
# Indices 1 2 3 4 5 6 
#
# 1 0.016014 -0.011864 -0.005284 0.000000 0.000000 0.000000
# 2 -0.011864 0.043031 -0.001343 0.000000 0.000000 0.000000
# 3 -0.005284 -0.001343 0.012470 0.000000 0.000000 0.000000
# 4 0.000000 0.000000 0.000000 -1.529762 0.000000 0.000000
# 5 0.000000 0.000000 0.000000 0.000000 0.073853 0.000000
# 6 0.000000 0.000000 0.000000 0.000000 0.000000 0.050324
#
#
# Mechanical properties :
#
#
# Convention : Reuss Voigt Hill
#
# Bulk Modulus (GPa) = 28.95822 45.35160 37.15491
# Shear Modulus (GPa) = -3.88930 16.01834 6.06452
#
# Velocity S-wave (km/s) = -1.59444 3.23580 1.99100
# Velocity P-wave (km/s) = 3.94195 6.60339 5.43800
#
# Compressibility (1/GPa) = 0.03453251
#
# Stress axis : x y z
#
# Youngs Moduli (GPa) = 62.44406 23.23927 80.19269
#
# Poissons Ratio (x) = 0.27571 0.42377
# Poissons Ratio (y) = 0.74082 0.10770
# Poissons Ratio (z) = 0.32998 0.03121
#
# Static dielectric constant tensor:
#      x y z
#    x 1.499240 0.000000 0.000000 
#    y 0.000000 1.522980 0.000000 
#    z 0.000000 0.000000 1.545090 
# 
# From -- ./inp_files/20745.got.cif
#   From: 2010.05.17/outbox.cif.g08.bks.cpg/sg66_11_cif.got.tgz:20745.got - 2010.06.03 17:51:23.
