data_PCOD9496393
_publ_section_title
;
Structure prediction by ZEFSAII (Michael W. Deem and Ramdas Pophale) SiO2 
 PCOD9496393
Probable space group: C C C M
;
_chemical_formula_sum "Si O2"
_cell_formula_units_Z 72
_cell_length_a 16.206259
_cell_length_b 9.334877
_cell_length_c 24.336018
_cell_angle_alpha 90.000000
_cell_angle_beta 90.000000
_cell_angle_gamma 90.000000
_cell_volume 3681.636383
_symmetry_space_group_name_H-M "C C C M"
_symmetry_group_IT_number 66
_symmetry_cell_setting 'orthorhombic'
loop_
_space_group_symop_operation_xyz
x,y,z
-x,-y,z
x,-y,1/2-z
-x,y,1/2-z
-x,-y,-z
x,y,-z
-x,y,1/2+z
x,-y,1/2+z
1/2+x,1/2+y,z
1/2-x,1/2-y,z
1/2+x,1/2-y,1/2-z
1/2-x,1/2+y,1/2-z
1/2-x,1/2-y,-z
1/2+x,1/2+y,-z
1/2-x,1/2+y,1/2+z
1/2+x,1/2-y,1/2+z
loop_
_atom_site_type_symbol
_atom_site_label
_atom_site_fract_x
_atom_site_fract_y
_atom_site_fract_z
Si Si1 0.080989 0.597478 0.500000
Si Si2 0.416028 0.836156 0.269233
Si Si3 0.621791 0.215229 0.384837
Si Si4 0.250000 0.750000 0.794070
Si Si5 0.752262 0.081079 0.000000
Si Si6 0.782570 0.011309 0.620606
O O1 0.085645 0.693140 0.445151
O O2 0.162400 0.495758 0.500000
O O3 0.000000 0.500000 0.500000
O O4 0.500000 0.761528 0.250000
O O5 0.429441 0.841746 0.334381
O O6 0.330625 0.771189 0.244948
O O7 0.412726 0.000000 0.250000
O O8 0.702913 0.114817 0.381686
O O9 0.643602 0.378161 0.369173
O O10 0.267051 0.613870 0.834865
O O11 0.750000 0.250000 0.000000
O O12 0.793576 0.040605 0.942135
#
# Coordination Sequence:
#
# PCOD9496393 Si02
#       6
#     8  16  16   8   8  16
#     4  10  23  37  65  88 119 163 216 253 311 373
#     4  11  25  40  65  92 127 165 214 259 314 381
#     4  10  21  40  60  91 122 163 205 263 305 378
#     4  12  22  39  64  95 120 172 206 260 318 388
#     4  10  19  35  59  93 118 155 202 265 300 362
#     4  10  20  36  64  90 125 160 212 252 319 373
#
# _framework density 19.556522000000001
#
# number of rings (size 3 to 8) (size 9 to 14) (size 15 to 20)
#    0.000    1.556    3.333    2.000    3.111    2.667 
#    0.000    2.222    0.000    1.333    0.000    0.000 
#    0.000    0.000    0.000    0.000    0.000    0.000 
#
# Total GULP energy -200522.340331 kJ/mol
# GULP energy per Si atom -5570.065009 kJ/mol
# Density = 1.951201 g / cm^3
# Si number density = 19.556522 Si / 1000 Ang^3
#
#
#
# Elastic Constant Matrix: (Units=GPa)
#
#
# Indices 1 2 3 4 5 6 
#
# 1 76.0936 8.3261 29.3115 0.0000 0.0000 0.0000
# 2 8.3261 88.6495 31.0091 0.0000 0.0000 0.0000
# 3 29.3115 31.0091 152.5061 0.0000 0.0000 0.0000
# 4 0.0000 0.0000 0.0000 9.2550 0.0000 0.0000
# 5 0.0000 0.0000 0.0000 0.0000 -55.4343 0.0000
# 6 0.0000 0.0000 0.0000 0.0000 0.0000 16.3510
#
#
#
# Elastic Compliance Matrix: (Units=1/GPa)
#
#
# Indices 1 2 3 4 5 6 
#
# 1 0.014206 -0.000408 -0.002647 0.000000 0.000000 0.000000
# 2 -0.000408 0.012156 -0.002393 0.000000 0.000000 0.000000
# 3 -0.002647 -0.002393 0.007553 0.000000 0.000000 0.000000
# 4 0.000000 0.000000 0.000000 0.108050 0.000000 0.000000
# 5 0.000000 0.000000 0.000000 0.000000 -0.018039 0.000000
# 6 0.000000 0.000000 0.000000 0.000000 0.000000 0.061159
#
#
# Mechanical properties :
#
#
# Convention : Reuss Voigt Hill
#
# Bulk Modulus (GPa) = 43.44629 50.50473 46.97551
# Shear Modulus (GPa) = 24.55149 10.60784 17.57966
#
# Velocity S-wave (km/s) = 3.54702 2.33152 3.00144
# Velocity P-wave (km/s) = 6.24813 5.75578 6.00700
#
# Compressibility (1/GPa) = 0.02301692
#
# Stress axis : x y z
#
# Youngs Moduli (GPa) = 70.39201 82.26496 132.40567
#
# Poissons Ratio (x) = 0.03358 0.35053
# Poissons Ratio (y) = 0.02874 0.31687
# Poissons Ratio (z) = 0.18636 0.19688
#
# Static dielectric constant tensor:
#      x y z
#    x 2.186580 0.000000 0.000000 
#    y 0.000000 2.000920 0.000000 
#    z 0.000000 0.000000 1.821380 
# 
# From -- ./inp_files/55257.got.cif
#   From: 2010.05.17/outbox.cif.g08.bks.cpg/sg66_28_cif.got.tgz:55257.got - 2010.06.03 17:51:23.
