data_PCOD9496643
_publ_section_title
;
Structure prediction by ZEFSAII (Michael W. Deem and Ramdas Pophale) SiO2 
 PCOD9496643
Probable space group: C C C M
;
_chemical_formula_sum "Si O2"
_cell_formula_units_Z 80
_cell_length_a 8.710615
_cell_length_b 24.418382
_cell_length_c 20.174343
_cell_angle_alpha 90.000000
_cell_angle_beta 90.000000
_cell_angle_gamma 90.000000
_cell_volume 4291.065094
_symmetry_space_group_name_H-M "C C C M"
_symmetry_group_IT_number 66
_symmetry_cell_setting 'orthorhombic'
loop_
_space_group_symop_operation_xyz
x,y,z
-x,-y,z
x,-y,1/2-z
-x,y,1/2-z
-x,-y,-z
x,y,-z
-x,y,1/2+z
x,-y,1/2+z
1/2+x,1/2+y,z
1/2-x,1/2-y,z
1/2+x,1/2-y,1/2-z
1/2-x,1/2+y,1/2-z
1/2-x,1/2-y,-z
1/2+x,1/2+y,-z
1/2-x,1/2+y,1/2+z
1/2+x,1/2-y,1/2+z
loop_
_atom_site_type_symbol
_atom_site_label
_atom_site_fract_x
_atom_site_fract_y
_atom_site_fract_z
Si Si1 0.111645 0.954402 0.859244
Si Si2 0.340858 0.031762 0.896096
Si Si3 0.822955 0.587790 0.241795
Si Si4 0.372988 0.629744 0.576359
Si Si5 0.645215 0.696975 0.799534
O O1 0.232927 0.930984 0.807049
O O2 0.004339 0.908732 0.891219
O O3 0.208134 0.988460 0.913109
O O4 0.000000 0.000000 0.827362
O O5 0.329890 0.042839 0.816725
O O6 0.283698 0.091559 0.921592
O O7 0.500000 0.000000 0.911537
O O8 0.732593 0.641429 0.219899
O O9 0.000000 0.602643 0.250000
O O10 0.403730 0.641761 0.500000
O O11 0.379331 0.683771 0.622399
O O12 0.500000 0.701541 0.750000
O O13 0.750000 0.750000 0.791258
#
# Coordination Sequence:
#
# PCOD9496643 Si02
#       5
#    16  16  16  16  16
#     4  10  20  33  56  85 125 164 202 239 292 354
#     4  10  20  31  54  90 127 165 200 245 289 345
#     4  11  20  33  57  90 123 153 203 256 307 351
#     4  10  23  41  60  85 123 168 206 238 295 365
#     4  11  23  41  65  91 115 149 197 263 317 362
#
# _framework density 18.64339
#
# number of rings (size 3 to 8) (size 9 to 14) (size 15 to 20)
#    0.000    1.600    4.000    1.200    0.000    8.400 
#    0.000    0.000    0.000    0.600    0.000    0.000 
#    0.000    0.000    0.000    0.000    0.000    0.000 
#
# Total GULP energy -222741.251728 kJ/mol
# GULP energy per Si atom -5568.531293 kJ/mol
# Density = 1.860096 g / cm^3
# Si number density = 18.643390 Si / 1000 Ang^3
#
#
#
# Elastic Constant Matrix: (Units=GPa)
#
#
# Indices 1 2 3 4 5 6 
#
# 1 121.3009 31.2322 36.2948 0.0000 0.0000 0.0000
# 2 31.2322 78.2308 28.3905 0.0000 0.0000 0.0000
# 3 36.2948 28.3905 116.9084 0.0000 0.0000 0.0000
# 4 0.0000 0.0000 0.0000 -15.5229 0.0000 0.0000
# 5 0.0000 0.0000 0.0000 0.0000 -72.9502 0.0000
# 6 0.0000 0.0000 0.0000 0.0000 0.0000 35.9145
#
#
#
# Elastic Compliance Matrix: (Units=1/GPa)
#
#
# Indices 1 2 3 4 5 6 
#
# 1 0.009710 -0.003051 -0.002273 0.000000 0.000000 0.000000
# 2 -0.003051 0.014977 -0.002690 0.000000 0.000000 0.000000
# 3 -0.002273 -0.002690 0.009913 0.000000 0.000000 0.000000
# 4 0.000000 0.000000 0.000000 -0.064421 0.000000 0.000000
# 5 0.000000 0.000000 0.000000 0.000000 -0.013708 0.000000
# 6 0.000000 0.000000 0.000000 0.000000 0.000000 0.027844
#
#
# Mechanical properties :
#
#
# Convention : Reuss Voigt Hill
#
# Bulk Modulus (GPa) = 53.84933 56.47502 55.16217
# Shear Modulus (GPa) = 765.24175 4.18979 384.71577
#
# Velocity S-wave (km/s) = 20.28186 1.50074 14.38065
# Velocity P-wave (km/s) = 24.02953 5.77589 17.47540
#
# Compressibility (1/GPa) = 0.01857033
#
# Stress axis : x y z
#
# Youngs Moduli (GPa) = 102.98780 66.76886 100.88063
#
# Poissons Ratio (x) = 0.20374 0.22935
# Poissons Ratio (y) = 0.31426 0.27134
# Poissons Ratio (z) = 0.23414 0.17959
#
# Static dielectric constant tensor:
#      x y z
#    x 1.709620 0.000000 0.000000 
#    y 0.000000 1.631680 0.000000 
#    z 0.000000 0.000000 1.710890 
# 
# From -- ./inp_files/36935.got.cif
#   From: 2010.05.17/outbox.cif.g08.bks.cpg/sg66_19_cif.got.tgz:36935.got - 2010.06.03 17:51:23.
