data_PCOD9496059
_publ_section_title
;
Structure prediction by ZEFSAII (Michael W. Deem and Ramdas Pophale) SiO2 
 PCOD9496059
Probable space group: C C C M
;
_chemical_formula_sum "Si O2"
_cell_formula_units_Z 60
_cell_length_a 5.583578
_cell_length_b 14.224743
_cell_length_c 33.058338
_cell_angle_alpha 90.000000
_cell_angle_beta 90.000000
_cell_angle_gamma 90.000000
_cell_volume 2625.657242
_symmetry_space_group_name_H-M "C C C M"
_symmetry_group_IT_number 66
_symmetry_cell_setting 'orthorhombic'
loop_
_space_group_symop_operation_xyz
x,y,z
-x,-y,z
x,-y,1/2-z
-x,y,1/2-z
-x,-y,-z
x,y,-z
-x,y,1/2+z
x,-y,1/2+z
1/2+x,1/2+y,z
1/2-x,1/2-y,z
1/2+x,1/2-y,1/2-z
1/2-x,1/2+y,1/2-z
1/2-x,1/2-y,-z
1/2+x,1/2+y,-z
1/2-x,1/2+y,1/2+z
1/2+x,1/2-y,1/2+z
loop_
_atom_site_type_symbol
_atom_site_label
_atom_site_fract_x
_atom_site_fract_y
_atom_site_fract_z
Si Si1 0.892135 0.894903 0.708602
Si Si2 0.501661 0.810680 0.000000
Si Si3 0.009038 0.150114 0.379030
Si Si4 0.500000 0.000000 0.250000
Si Si5 0.506152 0.863200 0.910696
O O1 0.954325 0.838200 0.668920
O O2 0.626282 0.926039 0.719746
O O3 0.000000 0.853880 0.750000
O O4 0.000000 0.000000 0.702907
O O5 0.250000 0.750000 0.000000
O O6 0.509383 0.870442 0.041063
O O7 0.750000 0.750000 0.000000
O O8 0.252365 0.100814 0.394102
O O9 0.753563 0.104956 0.390020
O O10 0.001756 0.251440 0.400497
#
# Coordination Sequence:
#
# PCOD9496059 Si02
#       5
#    16   8  16   4  16
#     4   9  20  35  53  75  97 137 176 219 254 301
#     4  12  16  32  50  78 108 135 173 202 252 308
#     4  10  19  33  50  77 107 130 170 212 251 306
#     4   8  18  36  52  78  92 134 186 220 264 288
#     4  10  20  32  51  81 106 135 164 208 256 309
#
# _framework density 22.851420000000001
#
# number of rings (size 3 to 8) (size 9 to 14) (size 15 to 20)
#    0.000    2.400    5.333    0.000    7.467    0.000 
#    0.000    5.333    0.000    0.000    0.000   10.267 
#    0.000    0.000    0.000    0.000    0.000    0.000 
#
# Total GULP energy -167134.120951 kJ/mol
# GULP energy per Si atom -5571.137365 kJ/mol
# Density = 2.279941 g / cm^3
# Si number density = 22.851420 Si / 1000 Ang^3
#
#
#
# Elastic Constant Matrix: (Units=GPa)
#
#
# Indices 1 2 3 4 5 6 
#
# 1 214.8427 -0.1820 55.5777 0.0000 0.0000 0.0000
# 2 -0.1820 64.6201 0.2145 0.0000 0.0000 0.0000
# 3 55.5777 0.2145 213.9963 0.0000 0.0000 0.0000
# 4 0.0000 0.0000 0.0000 -48.2951 0.0000 0.0000
# 5 0.0000 0.0000 0.0000 0.0000 92.4287 0.0000
# 6 0.0000 0.0000 0.0000 0.0000 0.0000-2474.3263
#
#
#
# Elastic Compliance Matrix: (Units=1/GPa)
#
#
# Indices 1 2 3 4 5 6 
#
# 1 0.004990 0.000018 -0.001296 0.000000 0.000000 0.000000
# 2 0.000018 0.015475 -0.000020 0.000000 0.000000 0.000000
# 3 -0.001296 -0.000020 0.005010 0.000000 0.000000 0.000000
# 4 0.000000 0.000000 0.000000 -0.020706 0.000000 0.000000
# 5 0.000000 0.000000 0.000000 0.000000 0.010819 0.000000
# 6 0.000000 0.000000 0.000000 0.000000 0.000000 -0.000404
#
#
# Mechanical properties :
#
#
# Convention : Reuss Voigt Hill
#
# Bulk Modulus (GPa) = 43.70846 67.18659 55.44753
# Shear Modulus (GPa) = 196.80728 -456.84862 -130.02067
#
# Velocity S-wave (km/s) = 9.29041 -14.15469 -7.55128
# Velocity P-wave (km/s) = 11.58668 15.41672 7.19111
#
# Compressibility (1/GPa) = 0.02287886
#
# Stress axis : x y z
#
# Youngs Moduli (GPa) = 200.40755 64.61957 199.61784
#
# Poissons Ratio (x) = -0.00119 0.25869
# Poissons Ratio (y) = -0.00368 0.00405
# Poissons Ratio (z) = 0.25972 0.00131
#
# Static dielectric constant tensor:
#      x y z
#    x 2.156290 0.000000 0.000000 
#    y 0.000000 1.839260 0.000000 
#    z 0.000000 0.000000 1.674720 
# 
# From -- ./inp_files/66916.got.cif
#   From: 2010.05.17/outbox.cif.g08.bks.cpg/sg66_34_cif.got.tgz:66916.got - 2010.06.03 17:51:23.
