data_PCOD9496661
_publ_section_title
;
Structure prediction by ZEFSAII (Michael W. Deem and Ramdas Pophale) SiO2 
 PCOD9496661
Probable space group: C C C M
;
_chemical_formula_sum "Si O2"
_cell_formula_units_Z 64
_cell_length_a 24.235006
_cell_length_b 13.146208
_cell_length_c 9.361486
_cell_angle_alpha 90.000000
_cell_angle_beta 90.000000
_cell_angle_gamma 90.000000
_cell_volume 2982.554740
_symmetry_space_group_name_H-M "C C C M"
_symmetry_group_IT_number 66
_symmetry_cell_setting 'orthorhombic'
loop_
_space_group_symop_operation_xyz
x,y,z
-x,-y,z
x,-y,1/2-z
-x,y,1/2-z
-x,-y,-z
x,y,-z
-x,y,1/2+z
x,-y,1/2+z
1/2+x,1/2+y,z
1/2-x,1/2-y,z
1/2+x,1/2-y,1/2-z
1/2-x,1/2+y,1/2-z
1/2-x,1/2-y,-z
1/2+x,1/2+y,-z
1/2-x,1/2+y,1/2+z
1/2+x,1/2-y,1/2+z
loop_
_atom_site_type_symbol
_atom_site_label
_atom_site_fract_x
_atom_site_fract_y
_atom_site_fract_z
Si Si1 0.337024 0.318458 0.168612
Si Si2 0.057792 0.168427 0.665308
Si Si3 0.057557 0.590987 0.834697
Si Si4 0.213137 0.602175 0.667425
O O1 0.387295 0.369259 0.254066
O O2 0.278292 0.373652 0.184331
O O3 0.321337 0.201978 0.212050
O O4 0.351585 0.315841 0.000000
O O5 0.052780 0.135376 0.500000
O O6 0.071084 0.289835 0.664806
O O7 0.000000 0.150694 0.750000
O O8 0.087939 0.500000 0.750000
O O9 0.000000 0.596140 0.750000
O O10 0.053952 0.560187 0.000000
O O11 0.202046 0.500000 0.750000
O O12 0.202274 0.588007 0.500000
#
# Coordination Sequence:
#
# PCOD9496661 Si02
#       4
#    16  16  16  16
#     4   9  19  36  55  78 110 144 178 218 267 323
#     4  10  20  32  48  72 102 139 179 218 263 315
#     4   9  16  25  37  55  82 118 161 203 243 291
#     4   9  19  36  58  82 108 140 177 221 273 322
#
# _framework density 21.458114999999999
#
# number of rings (size 3 to 8) (size 9 to 14) (size 15 to 20)
#    0.000    2.750    0.000    3.750    0.000    6.000 
#    0.000    7.500    0.000    0.750    0.000    5.250 
#    0.000    0.000    0.000    0.000    0.000    0.000 
#
# Total GULP energy -178261.898438 kJ/mol
# GULP energy per Si atom -5570.684326 kJ/mol
# Density = 2.140928 g / cm^3
# Si number density = 21.458115 Si / 1000 Ang^3
#
#
#
# Elastic Constant Matrix: (Units=GPa)
#
#
# Indices 1 2 3 4 5 6 
#
# 1 132.6920 5.9468 87.5203 0.0000 0.0000 0.0000
# 2 5.9468 45.5222 17.0173 0.0000 0.0000 0.0000
# 3 87.5203 17.0173 122.5923 0.0000 0.0000 0.0000
# 4 0.0000 0.0000 0.0000 17.4672 0.0000 0.0000
# 5 0.0000 0.0000 0.0000 0.0000 54.8690 0.0000
# 6 0.0000 0.0000 0.0000 0.0000 0.0000 -11.0503
#
#
#
# Elastic Compliance Matrix: (Units=1/GPa)
#
#
# Indices 1 2 3 4 5 6 
#
# 1 0.014426 0.002073 -0.010587 0.000000 0.000000 0.000000
# 2 0.002073 0.023467 -0.004738 0.000000 0.000000 0.000000
# 3 -0.010587 -0.004738 0.016373 0.000000 0.000000 0.000000
# 4 0.000000 0.000000 0.000000 0.057250 0.000000 0.000000
# 5 0.000000 0.000000 0.000000 0.000000 0.018225 0.000000
# 6 0.000000 0.000000 0.000000 0.000000 0.000000 -0.090495
#
#
# Mechanical properties :
#
#
# Convention : Reuss Voigt Hill
#
# Bulk Modulus (GPa) = 36.01808 57.97504 46.99656
# Shear Modulus (GPa) = 66.66330 24.94532 45.80431
#
# Velocity S-wave (km/s) = 5.57980 3.41326 4.62518
# Velocity P-wave (km/s) = 7.63767 6.52765 7.10437
#
# Compressibility (1/GPa) = 0.02776383
#
# Stress axis : x y z
#
# Youngs Moduli (GPa) = 69.31893 42.61216 61.07712
#
# Poissons Ratio (x) = -0.08834 0.64661
# Poissons Ratio (y) = -0.14370 0.28935
# Poissons Ratio (z) = 0.73386 0.20188
#
# Static dielectric constant tensor:
#      x y z
#    x 1.810270 0.000000 0.000000 
#    y 0.000000 1.678630 0.000000 
#    z 0.000000 0.000000 1.756190 
# 
# From -- ./inp_files/8704.got.cif
#   From: 2010.05.17/outbox.cif.g08.bks.cpg/sg66_5_cif.got.tgz:8704.got - 2010.06.03 17:51:23.
