data_PCOD9496920
_publ_section_title
;
Structure prediction by ZEFSAII (Michael W. Deem and Ramdas Pophale) SiO2 
 PCOD9496920
Probable space group: C C C M
;
_chemical_formula_sum "Si O2"
_cell_formula_units_Z 96
_cell_length_a 20.775718
_cell_length_b 13.189082
_cell_length_c 15.059227
_cell_angle_alpha 90.000000
_cell_angle_beta 90.000000
_cell_angle_gamma 90.000000
_cell_volume 4126.418672
_symmetry_space_group_name_H-M "C C C M"
_symmetry_group_IT_number 66
_symmetry_cell_setting 'orthorhombic'
loop_
_space_group_symop_operation_xyz
x,y,z
-x,-y,z
x,-y,1/2-z
-x,y,1/2-z
-x,-y,-z
x,y,-z
-x,y,1/2+z
x,-y,1/2+z
1/2+x,1/2+y,z
1/2-x,1/2-y,z
1/2+x,1/2-y,1/2-z
1/2-x,1/2+y,1/2-z
1/2-x,1/2-y,-z
1/2+x,1/2+y,-z
1/2-x,1/2+y,1/2+z
1/2+x,1/2-y,1/2+z
loop_
_atom_site_type_symbol
_atom_site_label
_atom_site_fract_x
_atom_site_fract_y
_atom_site_fract_z
Si Si1 0.253598 0.372813 0.095742
Si Si2 0.372178 0.393454 0.197758
Si Si3 0.001531 0.879385 0.897602
Si Si4 0.037551 0.398001 0.102488
Si Si5 0.593815 0.778182 0.600221
Si Si6 0.152681 0.335105 0.231794
O O1 0.250000 0.250000 0.089112
O O2 0.325838 0.410304 0.112322
O O3 0.210860 0.392110 0.183370
O O4 0.229288 0.411420 0.000000
O O5 0.372814 0.500000 0.250000
O O6 0.443152 0.356955 0.168729
O O7 0.339879 0.288112 0.232643
O O8 0.073175 0.837377 0.875081
O O9 0.987040 0.849979 0.000000
O O10 0.000000 0.000000 0.896197
O O11 0.092313 0.367329 0.170839
O O12 0.000000 0.500000 0.126797
O O13 0.979311 0.318948 0.103607
O O14 0.061317 0.406618 0.000000
O O15 0.618360 0.781663 0.500000
O O16 0.635133 0.847973 0.665375
#
# Coordination Sequence:
#
# PCOD9496920 Si02
#       6
#    16  16  16  16  16  16
#     4   9  20  39  63  88 115 161 221 277 328 382
#     4  11  22  36  59  90 127 161 213 276 336 396
#     4  10  20  34  56  88 125 167 210 258 327 403
#     4  10  21  37  59  92 127 161 207 266 328 385
#     4  10  21  36  55  87 128 164 204 258 323 389
#     4  11  21  37  64  87 123 170 217 265 328 395
#
# _framework density 23.264726
#
# number of rings (size 3 to 8) (size 9 to 14) (size 15 to 20)
#    0.000    1.833    1.667    2.500    0.000    4.333 
#    3.000    0.833    0.000    5.500    0.000    0.000 
#    0.000    0.000    0.000    0.000    0.000    0.000 
#
# Total GULP energy -267493.097613 kJ/mol
# GULP energy per Si atom -5572.772867 kJ/mol
# Density = 2.321177 g / cm^3
# Si number density = 23.264726 Si / 1000 Ang^3
#
#
#
# Elastic Constant Matrix: (Units=GPa)
#
#
# Indices 1 2 3 4 5 6 
#
# 1 54.8474 -0.9785 49.9970 0.0000 0.0000 0.0000
# 2 -0.9785 69.8425 10.4353 0.0000 0.0000 0.0000
# 3 49.9970 10.4353 135.1432 0.0000 0.0000 0.0000
# 4 0.0000 0.0000 0.0000 17.7124 0.0000 0.0000
# 5 0.0000 0.0000 0.0000 0.0000 20.9117 0.0000
# 6 0.0000 0.0000 0.0000 0.0000 0.0000 10.2924
#
#
#
# Elastic Compliance Matrix: (Units=1/GPa)
#
#
# Indices 1 2 3 4 5 6 
#
# 1 0.027769 0.001946 -0.010424 0.000000 0.000000 0.000000
# 2 0.001946 0.014621 -0.001849 0.000000 0.000000 0.000000
# 3 -0.010424 -0.001849 0.011399 0.000000 0.000000 0.000000
# 4 0.000000 0.000000 0.000000 0.056458 0.000000 0.000000
# 5 0.000000 0.000000 0.000000 0.000000 0.047820 0.000000
# 6 0.000000 0.000000 0.000000 0.000000 0.000000 0.097159
#
#
# Mechanical properties :
#
#
# Convention : Reuss Voigt Hill
#
# Bulk Modulus (GPa) = 30.17817 42.08229 36.13023
# Shear Modulus (GPa) = 17.42624 23.14193 20.28409
#
# Velocity S-wave (km/s) = 2.73983 3.15734 2.95597
# Velocity P-wave (km/s) = 4.79674 5.60531 5.21671
#
# Compressibility (1/GPa) = 0.03313654
#
# Stress axis : x y z
#
# Youngs Moduli (GPa) = 36.01149 68.39251 87.73007
#
# Poissons Ratio (x) = -0.13312 0.91446
# Poissons Ratio (y) = -0.07010 0.16222
# Poissons Ratio (z) = 0.37537 0.12647
#
# Static dielectric constant tensor:
#      x y z
#    x 1.944260 0.000000 0.000000 
#    y 0.000000 2.296040 0.000000 
#    z 0.000000 0.000000 1.995060 
# 
# From -- ./inp_files/31166.got.cif
#   From: 2010.05.17/outbox.cif.g08.bks.cpg/sg66_16_cif.got.tgz:31166.got - 2010.06.03 17:51:23.
