data_PCOD9496542
_publ_section_title
;
Structure prediction by ZEFSAII (Michael W. Deem and Ramdas Pophale) SiO2 
 PCOD9496542
Probable space group: C C C M
;
_chemical_formula_sum "Si O2"
_cell_formula_units_Z 116
_cell_length_a 17.114409
_cell_length_b 15.125783
_cell_length_c 20.972010
_cell_angle_alpha 90.000000
_cell_angle_beta 90.000000
_cell_angle_gamma 90.000000
_cell_volume 5428.999832
_symmetry_space_group_name_H-M "C C C M"
_symmetry_group_IT_number 66
_symmetry_cell_setting 'orthorhombic'
loop_
_space_group_symop_operation_xyz
x,y,z
-x,-y,z
x,-y,1/2-z
-x,y,1/2-z
-x,-y,-z
x,y,-z
-x,y,1/2+z
x,-y,1/2+z
1/2+x,1/2+y,z
1/2-x,1/2-y,z
1/2+x,1/2-y,1/2-z
1/2-x,1/2+y,1/2-z
1/2-x,1/2-y,-z
1/2+x,1/2+y,-z
1/2-x,1/2+y,1/2+z
1/2+x,1/2-y,1/2+z
loop_
_atom_site_type_symbol
_atom_site_label
_atom_site_fract_x
_atom_site_fract_y
_atom_site_fract_z
Si Si1 0.545700 0.152174 0.686376
Si Si2 0.820950 0.354992 0.074465
Si Si3 0.652070 0.565347 0.424171
Si Si4 0.921836 0.791760 0.646475
Si Si5 0.290406 0.623103 0.606389
Si Si6 0.116281 0.450117 0.073729
Si Si7 0.170689 0.221976 0.764804
Si Si8 0.750000 0.750000 0.000000
O O1 0.500000 0.119946 0.750000
O O2 0.500517 0.238098 0.659305
O O3 0.559549 0.085655 0.628373
O O4 0.628010 0.189674 0.710695
O O5 0.733488 0.384279 0.094453
O O6 0.863532 0.280897 0.115417
O O7 0.871469 0.444983 0.077759
O O8 0.817925 0.327189 0.000000
O O9 0.651690 0.563908 0.500000
O O10 0.580996 0.622849 0.397652
O O11 0.658393 0.464815 0.401500
O O12 0.887752 0.820660 0.714740
O O13 0.201986 0.591887 0.587771
O O14 0.304469 0.662051 0.676020
O O15 0.302983 0.700906 0.555753
O O16 0.095271 0.427386 0.000000
O O17 0.250000 0.250000 0.730652
#
# Coordination Sequence:
#
# PCOD9496542 Si02
#       8
#    16  16  16  16  16  16  16   4
#     4  10  23  41  58  88 132 170 202 257 324 393
#     4   9  19  36  62  89 120 164 212 258 307 368
#     4  10  20  37  60  90 122 156 209 261 308 369
#     4  11  23  38  57  83 129 174 204 242 310 389
#     4  11  20  34  65  95 119 145 200 272 322 354
#     4  10  19  37  63  96 123 155 216 273 323 371
#     4  11  21  38  63  87 116 156 216 258 316 379
#     4  12  16  32  60  92 120 142 174 270 344 340
#
# _framework density 21.366734000000001
#
# number of rings (size 3 to 8) (size 9 to 14) (size 15 to 20)
#    0.000    1.655    3.448    2.483    0.000    3.310 
#    0.000    6.897    0.000    3.310    0.000    0.000 
#    0.000    0.000    0.000    0.000    0.000    0.000 
#
# Total GULP energy -323447.698038 kJ/mol
# GULP energy per Si atom -5576.684449 kJ/mol
# Density = 2.131810 g / cm^3
# Si number density = 21.366734 Si / 1000 Ang^3
#
#
#
# Elastic Constant Matrix: (Units=GPa)
#
#
# Indices 1 2 3 4 5 6 
#
# 1 53.4120 18.6241 22.0783 0.0000 0.0000 0.0000
# 2 18.6241 74.1812 40.3668 0.0000 0.0000 0.0000
# 3 22.0783 40.3668 97.2007 0.0000 0.0000 0.0000
# 4 0.0000 0.0000 0.0000 9.3059 0.0000 0.0000
# 5 0.0000 0.0000 0.0000 0.0000 32.3049 0.0000
# 6 0.0000 0.0000 0.0000 0.0000 0.0000 15.7308
#
#
#
# Elastic Compliance Matrix: (Units=1/GPa)
#
#
# Indices 1 2 3 4 5 6 
#
# 1 0.021349 -0.003516 -0.003389 0.000000 0.000000 0.000000
# 2 -0.003516 0.017995 -0.006675 0.000000 0.000000 0.000000
# 3 -0.003389 -0.006675 0.013830 0.000000 0.000000 0.000000
# 4 0.000000 0.000000 0.000000 0.107458 0.000000 0.000000
# 5 0.000000 0.000000 0.000000 0.000000 0.030955 0.000000
# 6 0.000000 0.000000 0.000000 0.000000 0.000000 0.063570
#
#
# Mechanical properties :
#
#
# Convention : Reuss Voigt Hill
#
# Bulk Modulus (GPa) = 38.43938 42.99245 40.71592
# Shear Modulus (GPa) = 17.18280 21.04997 19.11639
#
# Velocity S-wave (km/s) = 2.83889 3.14215 2.99436
# Velocity P-wave (km/s) = 5.36424 5.77313 5.57244
#
# Compressibility (1/GPa) = 0.02601499
#
# Stress axis : x y z
#
# Youngs Moduli (GPa) = 46.84006 55.56996 72.30747
#
# Poissons Ratio (x) = 0.19536 0.24507
# Poissons Ratio (y) = 0.16467 0.48264
# Poissons Ratio (z) = 0.15875 0.37092
#
# Static dielectric constant tensor:
#      x y z
#    x 1.820510 0.000000 0.000000 
#    y 0.000000 1.790310 0.000000 
#    z 0.000000 0.000000 1.760550 
# 
# From -- ./inp_files/58943.got.cif
#   From: 2010.05.17/outbox.cif.g08.bks.cpg/sg66_30_cif.got.tgz:58943.got - 2010.06.03 17:51:23.
