data_PCOD9496767
_publ_section_title
;
Structure prediction by ZEFSAII (Michael W. Deem and Ramdas Pophale) SiO2 
 PCOD9496767
Probable space group: C C C M
;
_chemical_formula_sum "Si O2"
_cell_formula_units_Z 96
_cell_length_a 24.299415
_cell_length_b 12.975943
_cell_length_c 16.397778
_cell_angle_alpha 90.000000
_cell_angle_beta 90.000000
_cell_angle_gamma 90.000000
_cell_volume 5170.347699
_symmetry_space_group_name_H-M "C C C M"
_symmetry_group_IT_number 66
_symmetry_cell_setting 'orthorhombic'
loop_
_space_group_symop_operation_xyz
x,y,z
-x,-y,z
x,-y,1/2-z
-x,y,1/2-z
-x,-y,-z
x,y,-z
-x,y,1/2+z
x,-y,1/2+z
1/2+x,1/2+y,z
1/2-x,1/2-y,z
1/2+x,1/2-y,1/2-z
1/2-x,1/2+y,1/2-z
1/2-x,1/2-y,-z
1/2+x,1/2+y,-z
1/2-x,1/2+y,1/2+z
1/2+x,1/2-y,1/2+z
loop_
_atom_site_type_symbol
_atom_site_label
_atom_site_fract_x
_atom_site_fract_y
_atom_site_fract_z
Si Si1 0.049156 0.240542 0.182062
Si Si2 0.268273 0.370204 0.593149
Si Si3 0.870030 0.185396 0.193054
Si Si4 0.526645 0.602806 0.593589
Si Si5 0.156696 0.428028 0.669727
Si Si6 0.059616 0.550461 0.594478
O O1 0.100876 0.177951 0.218550
O O2 0.065801 0.354165 0.155492
O O3 0.000000 0.244360 0.250000
O O4 0.020887 0.186819 0.105389
O O5 0.285163 0.397736 0.500000
O O6 0.250000 0.250000 0.590093
O O7 0.316307 0.374155 0.661069
O O8 0.214776 0.431814 0.622700
O O9 0.918765 0.147111 0.134225
O O10 0.856420 0.307494 0.186407
O O11 0.500000 0.500000 0.632517
O O12 0.538947 0.581519 0.500000
O O13 0.159139 0.500000 0.750000
O O14 0.107203 0.469674 0.614432
O O15 0.062803 0.582376 0.500000
O O16 0.000000 0.500000 0.608183
#
# Coordination Sequence:
#
# PCOD9496767 Si02
#       6
#    16  16  16  16  16  16
#     4  10  20  33  53  81 115 154 190 240 291 351
#     4   9  19  36  58  83 111 146 197 249 291 339
#     4  10  20  36  60  82 114 154 198 243 298 346
#     4  10  21  37  57  83 117 152 195 248 299 345
#     4  11  21  36  57  87 121 157 191 246 298 351
#     4  11  22  33  53  86 123 163 197 230 292 366
#
# _framework density 18.567416000000001
#
# number of rings (size 3 to 8) (size 9 to 14) (size 15 to 20)
#    0.000    1.833    1.667    3.500    0.000    6.333 
#    3.000    0.000    0.000    0.000    0.000    1.167 
#    0.000    0.000    0.000    0.000    0.000    0.000 
#
# Total GULP energy -267501.628890 kJ/mol
# GULP energy per Si atom -5572.950602 kJ/mol
# Density = 1.852516 g / cm^3
# Si number density = 18.567416 Si / 1000 Ang^3
#
#
#
# Elastic Constant Matrix: (Units=GPa)
#
#
# Indices 1 2 3 4 5 6 
#
# 1 133.0855 19.4151 35.9340 0.0000 0.0000 0.0000
# 2 19.4151 37.6082 1.8573 0.0000 0.0000 0.0000
# 3 35.9340 1.8573 58.9038 0.0000 0.0000 0.0000
# 4 0.0000 0.0000 0.0000 20.1391 0.0000 0.0000
# 5 0.0000 0.0000 0.0000 0.0000 19.4482 0.0000
# 6 0.0000 0.0000 0.0000 0.0000 0.0000 33.1608
#
#
#
# Elastic Compliance Matrix: (Units=1/GPa)
#
#
# Indices 1 2 3 4 5 6 
#
# 1 0.009779 -0.004761 -0.005815 0.000000 0.000000 0.000000
# 2 -0.004761 0.028949 0.001992 0.000000 0.000000 0.000000
# 3 -0.005815 0.001992 0.020462 0.000000 0.000000 0.000000
# 4 0.000000 0.000000 0.000000 0.049655 0.000000 0.000000
# 5 0.000000 0.000000 0.000000 0.000000 0.051419 0.000000
# 6 0.000000 0.000000 0.000000 0.000000 0.000000 0.030156
#
#
# Mechanical properties :
#
#
# Convention : Reuss Voigt Hill
#
# Bulk Modulus (GPa) = 23.79800 38.22337 31.01068
# Shear Modulus (GPa) = 22.56365 26.04237 24.30301
#
# Velocity S-wave (km/s) = 3.48979 3.74917 3.62181
# Velocity P-wave (km/s) = 5.39288 6.27476 5.85046
#
# Compressibility (1/GPa) = 0.04202035
#
# Stress axis : x y z
#
# Youngs Moduli (GPa) = 102.26307 34.54299 48.87191
#
# Poissons Ratio (x) = 0.16446 0.28421
# Poissons Ratio (y) = 0.48688 -0.09733
# Poissons Ratio (z) = 0.59469 -0.06880
#
# Static dielectric constant tensor:
#      x y z
#    x 1.637830 0.000000 0.000000 
#    y 0.000000 1.723700 0.000000 
#    z 0.000000 0.000000 1.660050 
# 
# From -- ./inp_files/38860.got.cif
#   From: 2010.05.17/outbox.cif.g08.bks.cpg/sg66_20_cif.got.tgz:38860.got - 2010.06.03 17:51:23.
