data_PCOD9496174
_publ_section_title
;
Structure prediction by ZEFSAII (Michael W. Deem and Ramdas Pophale) SiO2 
 PCOD9496174
Probable space group: C C C M
;
_chemical_formula_sum "Si O2"
_cell_formula_units_Z 128
_cell_length_a 12.016804
_cell_length_b 24.374799
_cell_length_c 23.204665
_cell_angle_alpha 90.000000
_cell_angle_beta 90.000000
_cell_angle_gamma 90.000000
_cell_volume 6796.813037
_symmetry_space_group_name_H-M "C C C M"
_symmetry_group_IT_number 66
_symmetry_cell_setting 'orthorhombic'
loop_
_space_group_symop_operation_xyz
x,y,z
-x,-y,z
x,-y,1/2-z
-x,y,1/2-z
-x,-y,-z
x,y,-z
-x,y,1/2+z
x,-y,1/2+z
1/2+x,1/2+y,z
1/2-x,1/2-y,z
1/2+x,1/2-y,1/2-z
1/2-x,1/2+y,1/2-z
1/2-x,1/2-y,-z
1/2+x,1/2+y,-z
1/2-x,1/2+y,1/2+z
1/2+x,1/2-y,1/2+z
loop_
_atom_site_type_symbol
_atom_site_label
_atom_site_fract_x
_atom_site_fract_y
_atom_site_fract_z
Si Si1 0.695887 0.808976 0.935387
Si Si2 0.631622 0.066133 0.757690
Si Si3 0.491738 0.935212 0.563200
Si Si4 0.413924 0.450261 0.932826
Si Si5 0.814040 0.375078 0.121783
Si Si6 0.719482 0.091251 0.361970
Si Si7 0.583022 0.351517 0.932470
Si Si8 0.562391 0.777873 0.432814
O O1 0.750000 0.750000 0.929964
O O2 0.743551 0.849250 0.887902
O O3 0.563067 0.801248 0.930028
O O4 0.723488 0.829240 0.000000
O O5 0.500000 0.077889 0.750000
O O6 0.666895 0.094535 0.817446
O O7 0.705487 0.089922 0.705883
O O8 0.643141 0.000000 0.750000
O O9 0.454346 0.916239 0.500000
O O10 0.610619 0.909761 0.577433
O O11 0.401640 0.921515 0.611312
O O12 0.500000 0.000000 0.562391
O O13 0.500000 0.500000 0.922603
O O14 0.309673 0.449594 0.889705
O O15 0.480292 0.393017 0.925263
O O16 0.377251 0.454294 0.000000
O O17 0.685848 0.372522 0.104984
O O18 0.862945 0.313510 0.110930
O O19 0.559945 0.287242 0.920537
O O20 0.614868 0.354764 0.000000
O O21 0.600898 0.784520 0.500000
#
# Coordination Sequence:
#
# PCOD9496174 Si02
#       8
#    16  16  16  16  16  16  16  16
#     4  10  19  33  59  91 124 160 200 252 312 375
#     4  11  24  42  62  86 119 167 212 260 310 359
#     4  11  22  33  57  93 122 148 190 256 322 379
#     4  10  23  40  62  94 131 169 206 257 325 388
#     4  12  22  38  61  88 122 161 210 257 315 375
#     4  12  22  40  63  87 123 164 211 257 305 375
#     4  10  22  39  62  92 131 167 201 257 326 392
#     4  10  19  35  59  93 127 160 203 256 324 394
#
# _framework density 18.832355
#
# number of rings (size 3 to 8) (size 9 to 14) (size 15 to 20)
#    0.000    1.250    2.500    4.125    3.500    3.000 
#    0.000    1.875    0.000    1.500    0.000    0.000 
#    0.000    0.000    0.000    0.000    0.000    0.000 
#
# Total GULP energy -357418.551209 kJ/mol
# GULP energy per Si atom -5584.664863 kJ/mol
# Density = 1.878949 g / cm^3
# Si number density = 18.832355 Si / 1000 Ang^3
#
#
#
# Elastic Constant Matrix: (Units=GPa)
#
#
# Indices 1 2 3 4 5 6 
#
# 1 56.8305 10.5380 23.7175 0.0000 0.0000 0.0000
# 2 10.5380 102.5872 37.8214 0.0000 0.0000 0.0000
# 3 23.7175 37.8214 80.4960 0.0000 0.0000 0.0000
# 4 0.0000 0.0000 0.0000 56.8307 0.0000 0.0000
# 5 0.0000 0.0000 0.0000 0.0000-1819.1373 0.0000
# 6 0.0000 0.0000 0.0000 0.0000 0.0000 29.9536
#
#
#
# Elastic Compliance Matrix: (Units=1/GPa)
#
#
# Indices 1 2 3 4 5 6 
#
# 1 0.020065 0.000143 -0.005979 0.000000 0.000000 0.000000
# 2 0.000143 0.011791 -0.005582 0.000000 0.000000 0.000000
# 3 -0.005979 -0.005582 0.016808 0.000000 0.000000 0.000000
# 4 0.000000 0.000000 0.000000 0.017596 0.000000 0.000000
# 5 0.000000 0.000000 0.000000 0.000000 -0.000550 0.000000
# 6 0.000000 0.000000 0.000000 0.000000 0.000000 0.033385
#
#
# Mechanical properties :
#
#
# Convention : Reuss Voigt Hill
#
# Bulk Modulus (GPa) = 38.71907 42.67415 40.69661
# Shear Modulus (GPa) = 38.30214 -335.28149 -148.48967
#
# Velocity S-wave (km/s) = 4.51471 -13.35744 -8.88928
# Velocity P-wave (km/s) = 6.91240 14.66922 9.14889
#
# Compressibility (1/GPa) = 0.02582706
#
# Stress axis : x y z
#
# Youngs Moduli (GPa) = 49.83797 84.80929 59.49676
#
# Poissons Ratio (x) = -0.01215 0.35575
# Poissons Ratio (y) = -0.00714 0.33213
# Poissons Ratio (z) = 0.29800 0.47344
#
# Static dielectric constant tensor:
#      x y z
#    x 1.662600 0.000000 0.000000 
#    y 0.000000 1.704230 0.000000 
#    z 0.000000 0.000000 1.627520 
# 
# From -- ./inp_files/57354.got.cif
#   From: 2010.05.17/outbox.cif.g08.bks.cpg/sg66_29_cif.got.tgz:57354.got - 2010.06.03 17:51:23.
