data_PCOD9496312
_publ_section_title
;
Structure prediction by ZEFSAII (Michael W. Deem and Ramdas Pophale) SiO2 
 PCOD9496312
Probable space group: C C C M
;
_chemical_formula_sum "Si O2"
_cell_formula_units_Z 88
_cell_length_a 16.186600
_cell_length_b 16.804180
_cell_length_c 17.030028
_cell_angle_alpha 90.000000
_cell_angle_beta 90.000000
_cell_angle_gamma 90.000000
_cell_volume 4632.210872
_symmetry_space_group_name_H-M "C C C M"
_symmetry_group_IT_number 66
_symmetry_cell_setting 'orthorhombic'
loop_
_space_group_symop_operation_xyz
x,y,z
-x,-y,z
x,-y,1/2-z
-x,y,1/2-z
-x,-y,-z
x,y,-z
-x,y,1/2+z
x,-y,1/2+z
1/2+x,1/2+y,z
1/2-x,1/2-y,z
1/2+x,1/2-y,1/2-z
1/2-x,1/2+y,1/2-z
1/2-x,1/2-y,-z
1/2+x,1/2+y,-z
1/2-x,1/2+y,1/2+z
1/2+x,1/2-y,1/2+z
loop_
_atom_site_type_symbol
_atom_site_label
_atom_site_fract_x
_atom_site_fract_y
_atom_site_fract_z
Si Si1 0.500000 0.500000 0.861979
Si Si2 0.335046 0.719812 0.665156
Si Si3 0.005518 0.175533 0.086143
Si Si4 0.217858 0.658624 0.909249
Si Si5 0.833092 0.925761 0.714074
Si Si6 0.921923 0.299239 0.198555
O O1 0.478350 0.419024 0.907615
O O2 0.420114 0.536440 0.816392
O O3 0.250000 0.750000 0.630562
O O4 0.406401 0.716140 0.601114
O O5 0.339552 0.637753 0.715188
O O6 0.355084 0.781694 0.734684
O O7 0.951530 0.216817 0.155379
O O8 0.969940 0.193026 0.000000
O O9 0.250000 0.750000 0.905470
O O10 0.284224 0.610059 0.858941
O O11 0.127680 0.653653 0.868131
O O12 0.215161 0.634752 0.000000
O O13 0.784293 0.000000 0.750000
O O14 0.000000 0.329472 0.250000
#
# Coordination Sequence:
#
# PCOD9496312 Si02
#       6
#     8  16  16  16  16  16
#     4  12  22  34  54  82 128 156 190 228 292 374
#     4  11  20  37  57  77 110 154 205 240 282 354
#     4  11  23  34  52  84 118 153 187 238 302 359
#     4  11  21  37  60  87 121 159 206 255 300 351
#     4  12  22  35  56  84 120 162 195 234 295 362
#     4  10  19  34  60  84 108 146 201 252 291 345
#
# _framework density 18.997409000000001
#
# number of rings (size 3 to 8) (size 9 to 14) (size 15 to 20)
#    0.000    0.909    7.273    1.091    0.000    3.273 
#    0.000    0.000    0.000    0.545    0.000    1.273 
#    0.000    0.000    0.000    0.000    0.000    0.000 
#
# Total GULP energy -244977.888790 kJ/mol
# GULP energy per Si atom -5567.679291 kJ/mol
# Density = 1.895417 g / cm^3
# Si number density = 18.997409 Si / 1000 Ang^3
#
#
#
# Elastic Constant Matrix: (Units=GPa)
#
#
# Indices 1 2 3 4 5 6 
#
# 1 81.9318 24.4652 21.4079 0.0000 0.0000 0.0000
# 2 24.4652 38.6831 23.3557 0.0000 0.0000 0.0000
# 3 21.4079 23.3557 88.6480 0.0000 0.0000 0.0000
# 4 0.0000 0.0000 0.0000 -1.4511 0.0000 0.0000
# 5 0.0000 0.0000 0.0000 0.0000 21.3235 0.0000
# 6 0.0000 0.0000 0.0000 0.0000 0.0000 24.0997
#
#
#
# Elastic Compliance Matrix: (Units=1/GPa)
#
#
# Indices 1 2 3 4 5 6 
#
# 1 0.015182 -0.008786 -0.001352 0.000000 0.000000 0.000000
# 2 -0.008786 0.035826 -0.007317 0.000000 0.000000 0.000000
# 3 -0.001352 -0.007317 0.013535 0.000000 0.000000 0.000000
# 4 0.000000 0.000000 0.000000 -0.689131 0.000000 0.000000
# 5 0.000000 0.000000 0.000000 0.000000 0.046897 0.000000
# 6 0.000000 0.000000 0.000000 0.000000 0.000000 0.041494
#
#
# Mechanical properties :
#
#
# Convention : Reuss Voigt Hill
#
# Bulk Modulus (GPa) = 33.74584 38.63562 36.19073
# Shear Modulus (GPa) = -10.17478 18.13004 3.97763
#
# Velocity S-wave (km/s) = -2.31679 3.09260 1.44856
# Velocity P-wave (km/s) = 3.26271 5.75618 4.67862
#
# Compressibility (1/GPa) = 0.02963328
#
# Stress axis : x y z
#
# Youngs Moduli (GPa) = 65.86787 27.91307 73.88379
#
# Poissons Ratio (x) = 0.24524 0.09986
# Poissons Ratio (y) = 0.57870 0.54062
# Poissons Ratio (z) = 0.08902 0.20424
#
# Static dielectric constant tensor:
#      x y z
#    x 1.700710 0.000000 0.000000 
#    y 0.000000 1.696870 0.000000 
#    z 0.000000 0.000000 1.706220 
# 
# From -- ./inp_files/40331.got.cif
#   From: 2010.05.17/outbox.cif.g08.bks.cpg/sg66_21_cif.got.tgz:40331.got - 2010.06.03 17:51:23.
