data_PCOD9496396
_publ_section_title
;
Structure prediction by ZEFSAII (Michael W. Deem and Ramdas Pophale) SiO2 
 PCOD9496396
Probable space group: C C C M
;
_chemical_formula_sum "Si O2"
_cell_formula_units_Z 88
_cell_length_a 17.048282
_cell_length_b 16.066934
_cell_length_c 17.833644
_cell_angle_alpha 90.000000
_cell_angle_beta 90.000000
_cell_angle_gamma 90.000000
_cell_volume 4884.878016
_symmetry_space_group_name_H-M "C C C M"
_symmetry_group_IT_number 66
_symmetry_cell_setting 'orthorhombic'
loop_
_space_group_symop_operation_xyz
x,y,z
-x,-y,z
x,-y,1/2-z
-x,y,1/2-z
-x,-y,-z
x,y,-z
-x,y,1/2+z
x,-y,1/2+z
1/2+x,1/2+y,z
1/2-x,1/2-y,z
1/2+x,1/2-y,1/2-z
1/2-x,1/2+y,1/2-z
1/2-x,1/2-y,-z
1/2+x,1/2+y,-z
1/2-x,1/2+y,1/2+z
1/2+x,1/2-y,1/2+z
loop_
_atom_site_type_symbol
_atom_site_label
_atom_site_fract_x
_atom_site_fract_y
_atom_site_fract_z
Si Si1 0.991693 0.381196 0.838328
Si Si2 0.921637 0.951382 0.085945
Si Si3 0.750000 0.750000 0.154754
Si Si4 0.921978 0.244601 0.584287
Si Si5 0.119691 0.503205 0.910998
Si Si6 0.265834 0.558892 0.678909
O O1 0.908276 0.412263 0.869365
O O2 0.000000 0.395981 0.750000
O O3 0.018349 0.289149 0.859623
O O4 0.056133 0.436298 0.882109
O O5 0.937955 0.853126 0.083980
O O6 0.850230 0.960849 0.143103
O O7 0.900145 0.976282 0.000000
O O8 0.000000 0.000000 0.107435
O O9 0.830880 0.743609 0.107623
O O10 0.742568 0.658829 0.194510
O O11 0.933039 0.277973 0.500000
O O12 0.201838 0.468023 0.882706
O O13 0.116475 0.512854 0.000000
O O14 0.252175 0.500000 0.750000
#
# Coordination Sequence:
#
# PCOD9496396 Si02
#       6
#    16  16   8  16  16  16
#     4  11  21  34  53  84 123 155 182 230 290 348
#     4   9  20  40  61  83 110 151 199 245 288 336
#     4  10  21  36  60  86 115 146 192 244 293 334
#     4  10  19  35  60  86 113 147 193 241 284 340
#     4  11  21  35  57  83 116 156 192 228 282 353
#     4  11  22  38  59  88 119 150 190 245 301 348
#
# _framework density 18.014779999999998
#
# number of rings (size 3 to 8) (size 9 to 14) (size 15 to 20)
#    0.000    1.636    1.818    5.182    0.000    1.818 
#    6.545    0.000    0.000    0.000    0.000    6.364 
#    0.000    0.000    0.000    0.000    0.000    0.000 
#
# Total GULP energy -245335.662258 kJ/mol
# GULP energy per Si atom -5575.810506 kJ/mol
# Density = 1.797378 g / cm^3
# Si number density = 18.014780 Si / 1000 Ang^3
#
#
#
# Elastic Constant Matrix: (Units=GPa)
#
#
# Indices 1 2 3 4 5 6 
#
# 1 69.0020 46.7016 20.7499 0.0000 0.0000 0.0000
# 2 46.7016 74.8639 46.0899 0.0000 0.0000 0.0000
# 3 20.7499 46.0899 118.4347 0.0000 0.0000 0.0000
# 4 0.0000 0.0000 0.0000 11.2654 0.0000 0.0000
# 5 0.0000 0.0000 0.0000 0.0000 2.8199 0.0000
# 6 0.0000 0.0000 0.0000 0.0000 0.0000 29.4952
#
#
#
# Elastic Compliance Matrix: (Units=1/GPa)
#
#
# Indices 1 2 3 4 5 6 
#
# 1 0.025538 -0.017328 0.002269 0.000000 0.000000 0.000000
# 2 -0.017328 0.029324 -0.008376 0.000000 0.000000 0.000000
# 3 0.002269 -0.008376 0.011305 0.000000 0.000000 0.000000
# 4 0.000000 0.000000 0.000000 0.088768 0.000000 0.000000
# 5 0.000000 0.000000 0.000000 0.000000 0.354623 0.000000
# 6 0.000000 0.000000 0.000000 0.000000 0.000000 0.033904
#
#
# Mechanical properties :
#
#
# Convention : Reuss Voigt Hill
#
# Bulk Modulus (GPa) = 51.81964 54.37593 53.09778
# Shear Modulus (GPa) = 8.37854 18.63339 13.50596
#
# Velocity S-wave (km/s) = 2.15894 3.21960 2.74106
# Velocity P-wave (km/s) = 5.91965 6.63858 6.28939
#
# Compressibility (1/GPa) = 0.01929770
#
# Stress axis : x y z
#
# Youngs Moduli (GPa) = 39.15767 34.10231 88.45348
#
# Poissons Ratio (x) = 0.59092 -0.20071
# Poissons Ratio (y) = 0.67852 0.74085
# Poissons Ratio (z) = -0.08885 0.28563
#
# Static dielectric constant tensor:
#      x y z
#    x 1.617090 0.000000 0.000000 
#    y 0.000000 1.679480 0.000000 
#    z 0.000000 0.000000 1.616910 
# 
# From -- ./inp_files/41561.got.cif
#   From: 2010.05.17/outbox.cif.g08.bks.cpg/sg66_21_cif.got.tgz:41561.got - 2010.06.03 17:51:23.
