data_PCOD9496634
_publ_section_title
;
Structure prediction by ZEFSAII (Michael W. Deem and Ramdas Pophale) SiO2 
 PCOD9496634
Probable space group: C C C M
;
_chemical_formula_sum "Si O2"
_cell_formula_units_Z 68
_cell_length_a 18.221447
_cell_length_b 27.710639
_cell_length_c 9.219774
_cell_angle_alpha 90.000000
_cell_angle_beta 90.000000
_cell_angle_gamma 90.000000
_cell_volume 4655.321492
_symmetry_space_group_name_H-M "C C C M"
_symmetry_group_IT_number 66
_symmetry_cell_setting 'orthorhombic'
loop_
_space_group_symop_operation_xyz
x,y,z
-x,-y,z
x,-y,1/2-z
-x,y,1/2-z
-x,-y,-z
x,y,-z
-x,y,1/2+z
x,-y,1/2+z
1/2+x,1/2+y,z
1/2-x,1/2-y,z
1/2+x,1/2-y,1/2-z
1/2-x,1/2+y,1/2-z
1/2-x,1/2-y,-z
1/2+x,1/2+y,-z
1/2-x,1/2+y,1/2+z
1/2+x,1/2-y,1/2+z
loop_
_atom_site_type_symbol
_atom_site_label
_atom_site_fract_x
_atom_site_fract_y
_atom_site_fract_z
Si Si1 0.855750 0.546362 0.835083
Si Si2 0.813000 0.643461 0.328188
Si Si3 0.500000 0.000000 0.750000
Si Si4 0.305284 0.295927 0.832770
Si Si5 0.077733 0.734167 0.828033
O O1 0.823571 0.500000 0.750000
O O2 0.839837 0.594665 0.747271
O O3 0.943101 0.533930 0.835306
O O4 0.829987 0.549876 0.000000
O O5 0.801939 0.636808 0.500000
O O6 0.739305 0.662809 0.251258
O O7 0.874160 0.685408 0.309453
O O8 0.250000 0.250000 0.835010
O O9 0.376072 0.277090 0.746642
O O10 0.321264 0.308581 0.000000
O O11 0.000000 0.728890 0.750000
O O12 0.069353 0.742388 0.000000
#
# Coordination Sequence:
#
# PCOD9496634 Si02
#       5
#    16  16   4  16  16
#     4  10  20  32  46  63  87 118 154 191 229 268
#     4  10  20  32  47  66  90 122 157 191 229 274
#     4   8  22  32  46  60  90 120 152 192 234 264
#     4   9  17  31  48  65  87 117 151 189 230 273
#     4  10  20  31  45  67  93 121 153 191 230 273
#
# _framework density 14.60694
#
# number of rings (size 3 to 8) (size 9 to 14) (size 15 to 20)
#    0.706    1.647    0.000    3.176    1.647    5.647 
#    0.000    0.000    0.000    0.000    0.000    0.000 
#    0.000    0.941    0.000    9.412    0.000    5.647 
#
# Total GULP energy -189308.861714 kJ/mol
# GULP energy per Si atom -5567.907697 kJ/mol
# Density = 1.457369 g / cm^3
# Si number density = 14.606940 Si / 1000 Ang^3
#
#
#
# Elastic Constant Matrix: (Units=GPa)
#
#
# Indices 1 2 3 4 5 6 
#
# 1 57.2833 42.8933 64.4281 0.0000 0.0000 0.0000
# 2 42.8933 94.5178 72.5688 0.0000 0.0000 0.0000
# 3 64.4281 72.5688 160.8300 0.0000 0.0000 0.0000
# 4 0.0000 0.0000 0.0000 5.8114 0.0000 0.0000
# 5 0.0000 0.0000 0.0000 0.0000 24.1326 0.0000
# 6 0.0000 0.0000 0.0000 0.0000 0.0000 20.9887
#
#
#
# Elastic Compliance Matrix: (Units=1/GPa)
#
#
# Indices 1 2 3 4 5 6 
#
# 1 0.035235 -0.007884 -0.010558 0.000000 0.000000 0.000000
# 2 -0.007884 0.017952 -0.004942 0.000000 0.000000 0.000000
# 3 -0.010558 -0.004942 0.012677 0.000000 0.000000 0.000000
# 4 0.000000 0.000000 0.000000 0.172076 0.000000 0.000000
# 5 0.000000 0.000000 0.000000 0.000000 0.041438 0.000000
# 6 0.000000 0.000000 0.000000 0.000000 0.000000 0.047645
#
#
# Mechanical properties :
#
#
# Convention : Reuss Voigt Hill
#
# Bulk Modulus (GPa) = 52.36459 74.71238 63.53848
# Shear Modulus (GPa) = 13.15251 19.03593 16.09422
#
# Velocity S-wave (km/s) = 3.00397 3.61392 3.32297
# Velocity P-wave (km/s) = 6.92522 8.28695 7.63650
#
# Compressibility (1/GPa) = 0.01909688
#
# Stress axis : x y z
#
# Youngs Moduli (GPa) = 28.38073 55.70325 78.88304
#
# Poissons Ratio (x) = 0.43917 0.83282
# Poissons Ratio (y) = 0.22376 0.38984
# Poissons Ratio (z) = 0.29963 0.27528
#
# Static dielectric constant tensor:
#      x y z
#    x 1.464470 0.000000 0.000000 
#    y 0.000000 1.462230 0.000000 
#    z 0.000000 0.000000 1.493150 
# 
# From -- ./inp_files/6577.got.cif
#   From: 2010.05.17/outbox.cif.g08.bks.cpg/sg66_4_cif.got.tgz:6577.got - 2010.06.03 17:51:23.
