data_PCOD9496353
_publ_section_title
;
Structure prediction by ZEFSAII (Michael W. Deem and Ramdas Pophale) SiO2 
 PCOD9496353
Probable space group: C C C M
;
_chemical_formula_sum "Si O2"
_cell_formula_units_Z 116
_cell_length_a 22.758757
_cell_length_b 27.957858
_cell_length_c 9.132504
_cell_angle_alpha 90.000000
_cell_angle_beta 90.000000
_cell_angle_gamma 90.000000
_cell_volume 5810.885321
_symmetry_space_group_name_H-M "C C C M"
_symmetry_group_IT_number 66
_symmetry_cell_setting 'orthorhombic'
loop_
_space_group_symop_operation_xyz
x,y,z
-x,-y,z
x,-y,1/2-z
-x,y,1/2-z
-x,-y,-z
x,y,-z
-x,y,1/2+z
x,-y,1/2+z
1/2+x,1/2+y,z
1/2-x,1/2-y,z
1/2+x,1/2-y,1/2-z
1/2-x,1/2+y,1/2-z
1/2-x,1/2-y,-z
1/2+x,1/2+y,-z
1/2-x,1/2+y,1/2+z
1/2+x,1/2-y,1/2+z
loop_
_atom_site_type_symbol
_atom_site_label
_atom_site_fract_x
_atom_site_fract_y
_atom_site_fract_z
Si Si1 0.939409 0.784540 0.175243
Si Si2 0.799041 0.546955 0.330406
Si Si3 0.725712 0.801871 0.326741
Si Si4 0.397365 0.178338 0.171657
Si Si5 0.652245 0.645655 0.674111
Si Si6 0.075562 0.590402 0.159083
Si Si7 0.824309 0.949367 0.176097
Si Si8 0.500000 0.000000 0.750000
O O1 0.929827 0.728163 0.203439
O O2 0.887286 0.813838 0.251533
O O3 0.000000 0.799803 0.250000
O O4 0.939640 0.792117 0.000000
O O5 0.822889 0.500000 0.250000
O O6 0.780451 0.538732 0.500000
O O7 0.854361 0.581437 0.334884
O O8 0.742599 0.559001 0.233153
O O9 0.712654 0.798260 0.500000
O O10 0.750000 0.750000 0.277434
O O11 0.666512 0.816894 0.246652
O O12 0.779740 0.838325 0.308683
O O13 0.433029 0.131638 0.222988
O O14 0.387774 0.174667 0.000000
O O15 0.641073 0.641987 0.500000
O O16 0.641621 0.595572 0.756028
O O17 0.042931 0.539216 0.174109
O O18 0.060154 0.610127 0.000000
O O19 0.841607 0.000000 0.250000
O O20 0.827223 0.951154 0.000000
#
# Coordination Sequence:
#
# PCOD9496353 Si02
#       8
#    16  16  16  16  16  16  16   4
#     4  11  25  44  64  91 124 165 212 259 309 371
#     4  10  19  35  56  82 114 154 198 249 308 374
#     4  10  20  37  63  96 131 169 209 255 319 387
#     4  11  25  41  63  93 126 163 210 265 323 385
#     4  11  22  39  65  95 129 169 209 256 313 377
#     4  11  25  42  62  83 113 155 207 267 329 387
#     4  11  22  37  60  93 129 164 203 249 302 369
#     4  12  26  48  64  90 110 160 224 294 338 392
#
# _framework density 19.962533000000001
#
# number of rings (size 3 to 8) (size 9 to 14) (size 15 to 20)
#    0.000    1.241    2.069    4.759    0.966    8.552 
#    0.000    0.000    0.000    0.414    0.000    2.897 
#    0.000    0.000    0.000    0.000    0.000    0.000 
#
# Total GULP energy -323816.115330 kJ/mol
# GULP energy per Si atom -5583.036471 kJ/mol
# Density = 1.991710 g / cm^3
# Si number density = 19.962533 Si / 1000 Ang^3
#
#
#
# Elastic Constant Matrix: (Units=GPa)
#
#
# Indices 1 2 3 4 5 6 
#
# 1 61.0084 12.0963 34.2807 0.0000 0.0000 0.0000
# 2 12.0963 125.7265 64.9876 0.0000 0.0000 0.0000
# 3 34.2807 64.9876 116.3299 0.0000 0.0000 0.0000
# 4 0.0000 0.0000 0.0000 108.3964 0.0000 0.0000
# 5 0.0000 0.0000 0.0000 0.0000 15.7019 0.0000
# 6 0.0000 0.0000 0.0000 0.0000 0.0000 7.6424
#
#
#
# Elastic Compliance Matrix: (Units=1/GPa)
#
#
# Indices 1 2 3 4 5 6 
#
# 1 0.019861 0.001567 -0.006728 0.000000 0.000000 0.000000
# 2 0.001567 0.011307 -0.006778 0.000000 0.000000 0.000000
# 3 -0.006728 -0.006778 0.014366 0.000000 0.000000 0.000000
# 4 0.000000 0.000000 0.000000 0.009225 0.000000 0.000000
# 5 0.000000 0.000000 0.000000 0.000000 0.063687 0.000000
# 6 0.000000 0.000000 0.000000 0.000000 0.000000 0.130850
#
#
# Mechanical properties :
#
#
# Convention : Reuss Voigt Hill
#
# Bulk Modulus (GPa) = 46.17995 58.42157 52.30076
# Shear Modulus (GPa) = 17.83220 39.12814 28.48017
#
# Velocity S-wave (km/s) = 2.99203 4.43208 3.78124
# Velocity P-wave (km/s) = 5.92620 7.45119 6.73202
#
# Compressibility (1/GPa) = 0.02165442
#
# Stress axis : x y z
#
# Youngs Moduli (GPa) = 50.34980 88.44362 69.61102
#
# Poissons Ratio (x) = -0.13858 0.46835
# Poissons Ratio (y) = -0.07889 0.47184
# Poissons Ratio (z) = 0.33876 0.59949
#
# Static dielectric constant tensor:
#      x y z
#    x 1.718600 0.000000 0.000000 
#    y 0.000000 1.765320 0.000000 
#    z 0.000000 0.000000 1.684560 
# 
# From -- ./inp_files/9440.got.cif
#   From: 2010.05.17/outbox.cif.g08.bks.cpg/sg66_5_cif.got.tgz:9440.got - 2010.06.03 17:51:23.
