data_PCOD9496950
_publ_section_title
;
Structure prediction by ZEFSAII (Michael W. Deem and Ramdas Pophale) SiO2 
 PCOD9496950
Probable space group: C C C M
;
_chemical_formula_sum "Si O2"
_cell_formula_units_Z 104
_cell_length_a 7.825779
_cell_length_b 22.588898
_cell_length_c 29.933024
_cell_angle_alpha 90.000000
_cell_angle_beta 90.000000
_cell_angle_gamma 90.000000
_cell_volume 5291.431977
_symmetry_space_group_name_H-M "C C C M"
_symmetry_group_IT_number 66
_symmetry_cell_setting 'orthorhombic'
loop_
_space_group_symop_operation_xyz
x,y,z
-x,-y,z
x,-y,1/2-z
-x,y,1/2-z
-x,-y,-z
x,y,-z
-x,y,1/2+z
x,-y,1/2+z
1/2+x,1/2+y,z
1/2-x,1/2-y,z
1/2+x,1/2-y,1/2-z
1/2-x,1/2+y,1/2-z
1/2-x,1/2-y,-z
1/2+x,1/2+y,-z
1/2-x,1/2+y,1/2+z
1/2+x,1/2-y,1/2+z
loop_
_atom_site_type_symbol
_atom_site_label
_atom_site_fract_x
_atom_site_fract_y
_atom_site_fract_z
Si Si1 0.956184 0.738378 0.948153
Si Si2 0.349651 0.547838 0.951205
Si Si3 0.500000 0.000000 0.079931
Si Si4 0.464323 0.182895 0.700311
Si Si5 0.556035 0.680272 0.701782
Si Si6 0.511633 0.644750 0.105113
Si Si7 0.094509 0.627539 0.609523
O O1 0.750000 0.750000 0.947801
O O2 0.027579 0.791775 0.917666
O O3 0.990199 0.675372 0.924394
O O4 0.011210 0.739847 0.000000
O O5 0.500000 0.500000 0.947208
O O6 0.381529 0.596784 0.913848
O O7 0.170465 0.514504 0.947454
O O8 0.364375 0.576819 0.000000
O O9 0.531110 0.939463 0.106643
O O10 0.500000 0.159028 0.750000
O O11 0.513748 0.252354 0.699822
O O12 0.259942 0.180992 0.696045
O O13 0.558958 0.151816 0.659301
O O14 0.500000 0.656187 0.750000
O O15 0.490380 0.647575 0.658356
O O16 0.707164 0.627711 0.094637
#
# Coordination Sequence:
#
# PCOD9496950 Si02
#       7
#    16  16   8  16  16  16  16
#     4   9  19  34  57  90 124 160 202 255 318 378
#     4  11  24  43  65  91 125 172 221 265 311 375
#     4  12  25  44  63  90 126 174 220 265 315 374
#     4  10  20  36  58  90 127 161 207 259 320 383
#     4  10  20  34  60  92 126 162 203 258 321 387
#     4  11  20  39  65  91 127 160 209 261 325 376
#     4  11  22  38  62  90 126 169 206 263 314 379
#
# _framework density 19.654416000000001
#
# number of rings (size 3 to 8) (size 9 to 14) (size 15 to 20)
#    0.000    1.538    3.077    2.538    0.000    3.077 
#    0.000    0.385    0.000    3.231    0.000    0.000 
#    0.000    0.000    0.000    0.000    0.000    0.000 
#
# Total GULP energy -290323.746762 kJ/mol
# GULP energy per Si atom -5583.148976 kJ/mol
# Density = 1.960968 g / cm^3
# Si number density = 19.654416 Si / 1000 Ang^3
#
#
#
# Elastic Constant Matrix: (Units=GPa)
#
#
# Indices 1 2 3 4 5 6 
#
# 1 72.8702 24.1557 9.0461 0.0000 0.0000 0.0000
# 2 24.1557 102.9287 56.4571 0.0000 0.0000 0.0000
# 3 9.0461 56.4571 135.6281 0.0000 0.0000 0.0000
# 4 0.0000 0.0000 0.0000 23.3873 0.0000 0.0000
# 5 0.0000 0.0000 0.0000 0.0000 108.7677 0.0000
# 6 0.0000 0.0000 0.0000 0.0000 0.0000 22.5766
#
#
#
# Elastic Compliance Matrix: (Units=1/GPa)
#
#
# Indices 1 2 3 4 5 6 
#
# 1 0.014918 -0.003830 0.000599 0.000000 0.000000 0.000000
# 2 -0.003830 0.013573 -0.005395 0.000000 0.000000 0.000000
# 3 0.000599 -0.005395 0.009579 0.000000 0.000000 0.000000
# 4 0.000000 0.000000 0.000000 0.042758 0.000000 0.000000
# 5 0.000000 0.000000 0.000000 0.000000 0.009194 0.000000
# 6 0.000000 0.000000 0.000000 0.000000 0.000000 0.044294
#
#
# Mechanical properties :
#
#
# Convention : Reuss Voigt Hill
#
# Bulk Modulus (GPa) = 48.03119 54.52720 51.27920
# Shear Modulus (GPa) = 31.54451 45.73085 38.63768
#
# Velocity S-wave (km/s) = 4.01054 4.82887 4.43860
# Velocity P-wave (km/s) = 6.77767 7.67423 7.23984
#
# Compressibility (1/GPa) = 0.02081980
#
# Stress axis : x y z
#
# Youngs Moduli (GPa) = 67.03237 73.67444 104.39803
#
# Poissons Ratio (x) = 0.28215 -0.06255
# Poissons Ratio (y) = 0.25671 0.56319
# Poissons Ratio (z) = -0.04016 0.39745
#
# Static dielectric constant tensor:
#      x y z
#    x 1.769240 0.000000 0.000000 
#    y 0.000000 1.664640 0.000000 
#    z 0.000000 0.000000 1.681690 
# 
# From -- ./inp_files/68267.got.cif
#   From: 2010.05.17/outbox.cif.g08.bks.cpg/sg66_35_cif.got.tgz:68267.got - 2010.06.03 17:51:23.
