data_PCOD9496200
_publ_section_title
;
Structure prediction by ZEFSAII (Michael W. Deem and Ramdas Pophale) SiO2 
 PCOD9496200
Probable space group: C C C M
;
_chemical_formula_sum "Si O2"
_cell_formula_units_Z 116
_cell_length_a 22.604669
_cell_length_b 32.178845
_cell_length_c 8.726019
_cell_angle_alpha 90.000000
_cell_angle_beta 90.000000
_cell_angle_gamma 90.000000
_cell_volume 6347.237634
_symmetry_space_group_name_H-M "C C C M"
_symmetry_group_IT_number 66
_symmetry_cell_setting 'orthorhombic'
loop_
_space_group_symop_operation_xyz
x,y,z
-x,-y,z
x,-y,1/2-z
-x,y,1/2-z
-x,-y,-z
x,y,-z
-x,y,1/2+z
x,-y,1/2+z
1/2+x,1/2+y,z
1/2-x,1/2-y,z
1/2+x,1/2-y,1/2-z
1/2-x,1/2+y,1/2-z
1/2-x,1/2-y,-z
1/2+x,1/2+y,-z
1/2-x,1/2+y,1/2+z
1/2+x,1/2-y,1/2+z
loop_
_atom_site_type_symbol
_atom_site_label
_atom_site_fract_x
_atom_site_fract_y
_atom_site_fract_z
Si Si1 0.325727 0.603778 0.816733
Si Si2 0.564141 0.545579 0.316233
Si Si3 0.500000 0.000000 0.750000
Si Si4 0.097821 0.566771 0.324029
Si Si5 0.302492 0.307906 0.814554
Si Si6 0.562778 0.842572 0.185945
Si Si7 0.830261 0.284028 0.314103
Si Si8 0.272211 0.043970 0.815850
O O1 0.384557 0.577952 0.775251
O O2 0.328449 0.650954 0.759578
O O3 0.269871 0.580788 0.740170
O O4 0.319085 0.602447 0.000000
O O5 0.578521 0.500000 0.250000
O O6 0.500000 0.557461 0.250000
O O7 0.560306 0.542759 0.500000
O O8 0.453396 0.967846 0.675374
O O9 0.112096 0.576473 0.500000
O O10 0.075480 0.610322 0.256795
O O11 0.160191 0.551156 0.257746
O O12 0.233328 0.302859 0.770054
O O13 0.332546 0.264281 0.767942
O O14 0.305188 0.311236 0.000000
O O15 0.500000 0.828813 0.250000
O O16 0.615718 0.812521 0.236271
O O17 0.560224 0.842599 0.000000
O O18 0.830389 0.284014 0.500000
O O19 0.250865 0.000000 0.750000
O O20 0.271393 0.041772 0.000000
#
# Coordination Sequence:
#
# PCOD9496200 Si02
#       8
#    16  16   4  16  16  16  16  16
#     4  11  23  37  54  84 117 145 175 221 274 327
#     4  10  21  37  58  81 109 142 181 217 259 315
#     4  12  18  36  52  74 108 148 192 236 274 312
#     4  10  21  34  52  75 106 147 190 231 275 318
#     4   9  17  34  60  83 101 136 178 220 271 327
#     4  10  19  34  52  75 104 138 178 223 268 321
#     4   8  16  33  58  81 103 132 178 226 270 325
#     4  11  22  37  55  79 109 147 189 233 275 322
#
# _framework density 18.275666999999999
#
# number of rings (size 3 to 8) (size 9 to 14) (size 15 to 20)
#    0.000    2.069    1.379    3.931    0.000    5.517 
#    0.000    6.207    0.000    3.310    0.000    0.000 
#    0.000    0.000    0.000    0.000    0.000    0.000 
#
# Total GULP energy -323483.826403 kJ/mol
# GULP energy per Si atom -5577.307352 kJ/mol
# Density = 1.823407 g / cm^3
# Si number density = 18.275667 Si / 1000 Ang^3
#
#
#
# Elastic Constant Matrix: (Units=GPa)
#
#
# Indices 1 2 3 4 5 6 
#
# 1 106.3126 80.4915 27.2118 0.0000 0.0000 0.0000
# 2 80.4915 135.8661 28.5650 0.0000 0.0000 0.0000
# 3 27.2118 28.5650 32.7857 0.0000 0.0000 0.0000
# 4 0.0000 0.0000 0.0000 25.7836 0.0000 0.0000
# 5 0.0000 0.0000 0.0000 0.0000 0.2400 0.0000
# 6 0.0000 0.0000 0.0000 0.0000 0.0000 22.0912
#
#
#
# Elastic Compliance Matrix: (Units=1/GPa)
#
#
# Indices 1 2 3 4 5 6 
#
# 1 0.018290 -0.009358 -0.007027 0.000000 0.000000 0.000000
# 2 -0.009358 0.013799 -0.004255 0.000000 0.000000 0.000000
# 3 -0.007027 -0.004255 0.040041 0.000000 0.000000 0.000000
# 4 0.000000 0.000000 0.000000 0.038784 0.000000 0.000000
# 5 0.000000 0.000000 0.000000 0.000000 4.167348 0.000000
# 6 0.000000 0.000000 0.000000 0.000000 0.000000 0.045267
#
#
# Mechanical properties :
#
#
# Convention : Reuss Voigt Hill
#
# Bulk Modulus (GPa) = 32.41620 60.83344 46.62482
# Shear Modulus (GPa) = 1.14283 18.86937 10.00610
#
# Velocity S-wave (km/s) = 0.79164 3.21672 2.34243
# Velocity P-wave (km/s) = 4.31410 6.86696 5.73440
#
# Compressibility (1/GPa) = 0.03084877
#
# Stress axis : x y z
#
# Youngs Moduli (GPa) = 54.67382 72.46898 24.97444
#
# Poissons Ratio (x) = 0.67819 0.17550
# Poissons Ratio (y) = 0.51166 0.10627
# Poissons Ratio (z) = 0.38420 0.30837
#
# Static dielectric constant tensor:
#      x y z
#    x 1.626570 0.000000 0.000000 
#    y 0.000000 1.626740 0.000000 
#    z 0.000000 0.000000 1.632320 
# 
# From -- ./inp_files/9609.got.cif
#   From: 2010.05.17/outbox.cif.g08.bks.cpg/sg66_5_cif.got.tgz:9609.got - 2010.06.03 17:51:23.
