data_PCOD9496117
_publ_section_title
;
Structure prediction by ZEFSAII (Michael W. Deem and Ramdas Pophale) SiO2 
 PCOD9496117
Probable space group: C C C M
;
_chemical_formula_sum "Si O2"
_cell_formula_units_Z 80
_cell_length_a 15.137281
_cell_length_b 9.431952
_cell_length_c 28.145915
_cell_angle_alpha 90.000000
_cell_angle_beta 90.000000
_cell_angle_gamma 90.000000
_cell_volume 4018.507902
_symmetry_space_group_name_H-M "C C C M"
_symmetry_group_IT_number 66
_symmetry_cell_setting 'orthorhombic'
loop_
_space_group_symop_operation_xyz
x,y,z
-x,-y,z
x,-y,1/2-z
-x,y,1/2-z
-x,-y,-z
x,y,-z
-x,y,1/2+z
x,-y,1/2+z
1/2+x,1/2+y,z
1/2-x,1/2-y,z
1/2+x,1/2-y,1/2-z
1/2-x,1/2+y,1/2-z
1/2-x,1/2-y,-z
1/2+x,1/2+y,-z
1/2-x,1/2+y,1/2+z
1/2+x,1/2-y,1/2+z
loop_
_atom_site_type_symbol
_atom_site_label
_atom_site_fract_x
_atom_site_fract_y
_atom_site_fract_z
Si Si1 0.348513 0.320594 0.356531
Si Si2 0.044886 0.720139 0.945077
Si Si3 0.249496 0.089929 0.855711
Si Si4 0.139660 0.411790 0.945896
Si Si5 0.590899 0.940575 0.696432
O O1 0.250000 0.250000 0.363957
O O2 0.405492 0.306885 0.404459
O O3 0.332286 0.486160 0.346271
O O4 0.394937 0.225732 0.315324
O O5 0.094250 0.567229 0.943927
O O6 0.941393 0.694024 0.933579
O O7 0.051408 0.771155 0.000000
O O8 0.250000 0.250000 0.838199
O O9 0.277978 0.092761 0.910862
O O10 0.330517 0.014916 0.830419
O O11 0.165845 0.385269 0.000000
O O12 0.500000 0.000000 0.675343
O O13 0.593908 0.000000 0.750000
#
# Coordination Sequence:
#
# PCOD9496117 Si02
#       5
#    16  16  16  16  16
#     4  10  19  33  55  83 112 144 186 230 280 341
#     4   9  16  29  54  81 106 146 199 242 268 320
#     4  11  23  36  54  84 119 151 183 233 287 331
#     4   9  17  31  52  78 112 153 192 233 279 329
#     4  10  21  40  64  83 104 140 184 231 283 348
#
# _framework density 19.907886999999999
#
# number of rings (size 3 to 8) (size 9 to 14) (size 15 to 20)
#    0.000    2.200    4.000    2.400    0.000    4.000 
#    0.000    4.000    0.000    4.800    0.000    0.000 
#    0.000    0.000    0.000    0.000    0.000    0.000 
#
# Total GULP energy -222919.955175 kJ/mol
# GULP energy per Si atom -5572.998879 kJ/mol
# Density = 1.986258 g / cm^3
# Si number density = 19.907887 Si / 1000 Ang^3
#
#
#
# Elastic Constant Matrix: (Units=GPa)
#
#
# Indices 1 2 3 4 5 6 
#
# 1 47.5663 35.6750 23.0003 0.0000 0.0000 0.0000
# 2 35.6750 131.3681 31.8829 0.0000 0.0000 0.0000
# 3 23.0003 31.8829 74.5263 0.0000 0.0000 0.0000
# 4 0.0000 0.0000 0.0000 1.7959 0.0000 0.0000
# 5 0.0000 0.0000 0.0000 0.0000 15.7134 0.0000
# 6 0.0000 0.0000 0.0000 0.0000 0.0000 21.0621
#
#
#
# Elastic Compliance Matrix: (Units=1/GPa)
#
#
# Indices 1 2 3 4 5 6 
#
# 1 0.028737 -0.006306 -0.006171 0.000000 0.000000 0.000000
# 2 -0.006306 0.009878 -0.002280 0.000000 0.000000 0.000000
# 3 -0.006171 -0.002280 0.016298 0.000000 0.000000 0.000000
# 4 0.000000 0.000000 0.000000 0.556811 0.000000 0.000000
# 5 0.000000 0.000000 0.000000 0.000000 0.063640 0.000000
# 6 0.000000 0.000000 0.000000 0.000000 0.000000 0.047479
#
#
# Mechanical properties :
#
#
# Convention : Reuss Voigt Hill
#
# Bulk Modulus (GPa) = 39.37151 48.28636 43.82893
# Shear Modulus (GPa) = 6.57184 18.57445 12.57315
#
# Velocity S-wave (km/s) = 1.81887 3.05785 2.51582
# Velocity P-wave (km/s) = 4.92248 6.06422 5.52294
#
# Compressibility (1/GPa) = 0.02539908
#
# Stress axis : x y z
#
# Youngs Moduli (GPa) = 34.79838 101.23471 61.35801
#
# Poissons Ratio (x) = 0.63842 0.37864
# Poissons Ratio (y) = 0.21945 0.13987
# Poissons Ratio (z) = 0.21474 0.23078
#
# Static dielectric constant tensor:
#      x y z
#    x 1.708900 0.000000 0.000000 
#    y 0.000000 1.763440 0.000000 
#    z 0.000000 0.000000 1.802560 
# 
# From -- ./inp_files/69868.got.cif
#   From: 2010.05.17/outbox.cif.g08.bks.cpg/sg66_35_cif.got.tgz:69868.got - 2010.06.03 17:51:23.
