data_PCOD9496103
_publ_section_title
;
Structure prediction by ZEFSAII (Michael W. Deem and Ramdas Pophale) SiO2 
 PCOD9496103
Probable space group: C C C M
;
_chemical_formula_sum "Si O2"
_cell_formula_units_Z 116
_cell_length_a 13.063276
_cell_length_b 25.717348
_cell_length_c 17.767920
_cell_angle_alpha 90.000000
_cell_angle_beta 90.000000
_cell_angle_gamma 90.000000
_cell_volume 5969.182739
_symmetry_space_group_name_H-M "C C C M"
_symmetry_group_IT_number 66
_symmetry_cell_setting 'orthorhombic'
loop_
_space_group_symop_operation_xyz
x,y,z
-x,-y,z
x,-y,1/2-z
-x,y,1/2-z
-x,-y,-z
x,y,-z
-x,y,1/2+z
x,-y,1/2+z
1/2+x,1/2+y,z
1/2-x,1/2-y,z
1/2+x,1/2-y,1/2-z
1/2-x,1/2+y,1/2-z
1/2-x,1/2-y,-z
1/2+x,1/2+y,-z
1/2-x,1/2+y,1/2+z
1/2+x,1/2-y,1/2+z
loop_
_atom_site_type_symbol
_atom_site_label
_atom_site_fract_x
_atom_site_fract_y
_atom_site_fract_z
Si Si1 0.150447 0.773860 0.412731
Si Si2 0.387444 0.939894 0.225759
Si Si3 0.152580 0.628052 0.089369
Si Si4 0.000000 0.000000 0.250000
Si Si5 0.130582 0.834139 0.151569
Si Si6 0.573365 0.614967 0.084854
Si Si7 0.957596 0.275574 0.832950
Si Si8 0.843935 0.917672 0.766855
O O1 0.146449 0.758175 0.500000
O O2 0.250000 0.750000 0.375531
O O3 0.150165 0.835943 0.411349
O O4 0.052639 0.749586 0.375275
O O5 0.500000 0.918604 0.250000
O O6 0.372463 0.923493 0.138448
O O7 0.278703 0.921778 0.261907
O O8 0.390288 0.000000 0.250000
O O9 0.267715 0.646628 0.109472
O O10 0.083513 0.674080 0.124321
O O11 0.139463 0.622212 0.000000
O O12 0.086918 0.958852 0.219116
O O13 0.122859 0.772411 0.163512
O O14 0.128413 0.861506 0.233195
O O15 0.034666 0.858470 0.106462
O O16 0.612860 0.576456 0.148994
O O17 0.570014 0.594348 0.000000
O O18 0.000000 0.287396 0.750000
#
# Coordination Sequence:
#
# PCOD9496103 Si02
#       8
#    16  16  16   4  16  16  16  16
#     4   9  19  34  52  75 111 155 192 236 293 352
#     4  10  23  45  68  87 117 164 211 256 313 380
#     4  11  24  40  62  93 125 161 209 266 321 375
#     4  12  20  36  68  88 116 156 206 258 318 356
#     4  10  20  37  59  85 125 166 206 248 311 388
#     4  10  19  33  54  85 121 153 194 250 314 377
#     4  11  22  35  56  86 121 164 206 249 300 371
#     4  11  21  38  63  89 118 158 203 257 314 375
#
# _framework density 19.433146000000001
#
# number of rings (size 3 to 8) (size 9 to 14) (size 15 to 20)
#    0.000    1.655    2.069    3.310    0.000    6.621 
#    0.000    4.483    0.000    0.000    0.000    0.000 
#    0.000    0.000    0.000    0.000    0.000    0.000 
#
# Total GULP energy -322966.130067 kJ/mol
# GULP energy per Si atom -5568.381553 kJ/mol
# Density = 1.938891 g / cm^3
# Si number density = 19.433146 Si / 1000 Ang^3
#
#
#
# Elastic Constant Matrix: (Units=GPa)
#
#
# Indices 1 2 3 4 5 6 
#
# 1 111.1025 17.4953 33.3398 0.0000 0.0000 0.0000
# 2 17.4953 79.8643 38.1223 0.0000 0.0000 0.0000
# 3 33.3398 38.1223 150.2285 0.0000 0.0000 0.0000
# 4 0.0000 0.0000 0.0000 19.7492 0.0000 0.0000
# 5 0.0000 0.0000 0.0000 0.0000 18.9199 0.0000
# 6 0.0000 0.0000 0.0000 0.0000 0.0000 22.7068
#
#
#
# Elastic Compliance Matrix: (Units=1/GPa)
#
#
# Indices 1 2 3 4 5 6 
#
# 1 0.009752 -0.001255 -0.001846 0.000000 0.000000 0.000000
# 2 -0.001255 0.014409 -0.003378 0.000000 0.000000 0.000000
# 3 -0.001846 -0.003378 0.007923 0.000000 0.000000 0.000000
# 4 0.000000 0.000000 0.000000 0.050635 0.000000 0.000000
# 5 0.000000 0.000000 0.000000 0.000000 0.052854 0.000000
# 6 0.000000 0.000000 0.000000 0.000000 0.000000 0.044040
#
#
# Mechanical properties :
#
#
# Convention : Reuss Voigt Hill
#
# Bulk Modulus (GPa) = 52.28355 57.67892 54.98124
# Shear Modulus (GPa) = 25.13242 29.09104 27.11173
#
# Velocity S-wave (km/s) = 3.60012 3.87328 3.73919
# Velocity P-wave (km/s) = 6.65160 7.05324 6.85536
#
# Compressibility (1/GPa) = 0.01912647
#
# Stress axis : x y z
#
# Youngs Moduli (GPa) = 102.54052 69.40318 126.21010
#
# Poissons Ratio (x) = 0.08712 0.23295
# Poissons Ratio (y) = 0.12872 0.42631
# Poissons Ratio (z) = 0.18926 0.23443
#
# Static dielectric constant tensor:
#      x y z
#    x 1.737230 0.000000 0.000000 
#    y 0.000000 1.711980 0.000000 
#    z 0.000000 0.000000 0.920520 
# 
# From -- ./inp_files/39145.got.cif
#   From: 2010.05.17/outbox.cif.g08.bks.cpg/sg66_20_cif.got.tgz:39145.got - 2010.06.03 17:51:23.
