data_PCOD9496245
_publ_section_title
;
Structure prediction by ZEFSAII (Michael W. Deem and Ramdas Pophale) SiO2 
 PCOD9496245
Probable space group: C C C M
;
_chemical_formula_sum "Si O2"
_cell_formula_units_Z 80
_cell_length_a 28.528709
_cell_length_b 7.465340
_cell_length_c 15.887904
_cell_angle_alpha 90.000000
_cell_angle_beta 90.000000
_cell_angle_gamma 90.000000
_cell_volume 3383.750384
_symmetry_space_group_name_H-M "C C C M"
_symmetry_group_IT_number 66
_symmetry_cell_setting 'orthorhombic'
loop_
_space_group_symop_operation_xyz
x,y,z
-x,-y,z
x,-y,1/2-z
-x,y,1/2-z
-x,-y,-z
x,y,-z
-x,y,1/2+z
x,-y,1/2+z
1/2+x,1/2+y,z
1/2-x,1/2-y,z
1/2+x,1/2-y,1/2-z
1/2-x,1/2+y,1/2-z
1/2-x,1/2-y,-z
1/2+x,1/2+y,-z
1/2-x,1/2+y,1/2+z
1/2+x,1/2-y,1/2+z
loop_
_atom_site_type_symbol
_atom_site_label
_atom_site_fract_x
_atom_site_fract_y
_atom_site_fract_z
Si Si1 0.289793 0.846582 0.805865
Si Si2 0.621680 0.195601 0.902463
Si Si3 0.783074 0.920417 0.908171
Si Si4 0.946397 0.717666 0.746965
Si Si5 0.880141 0.740546 0.098497
O O1 0.250000 0.750000 0.749094
O O2 0.330312 0.746677 0.855796
O O3 0.252183 0.060358 0.633564
O O4 0.313522 0.000000 0.750000
O O5 0.580335 0.258329 0.840482
O O6 0.625094 0.976912 0.902617
O O7 0.616812 0.249377 0.000000
O O8 0.750000 0.750000 0.920228
O O9 0.832149 0.840009 0.874197
O O10 0.795287 0.994769 0.000000
O O11 0.946628 0.500000 0.750000
O O12 0.918329 0.780950 0.829769
O O13 0.000000 0.778755 0.750000
O O14 0.890730 0.787545 0.000000
#
# Coordination Sequence:
#
# PCOD9496245 Si02
#       5
#    16  16  16  16  16
#     4  12  25  36  55  83 117 156 196 244 294 351
#     4  10  20  34  53  78 114 157 195 240 295 348
#     4  10  19  34  56  80 111 151 192 230 284 354
#     4   9  18  31  50  78 115 154 198 252 294 340
#     4   9  17  31  55  80 109 151 196 239 290 349
#
# _framework density 23.642406999999999
#
# number of rings (size 3 to 8) (size 9 to 14) (size 15 to 20)
#    0.000    2.000    2.000    3.000    2.800    2.400 
#    0.000    4.000    0.000    0.000    0.000    2.800 
#    0.000    4.800    0.000    0.200    0.000    0.400 
#
# Total GULP energy -223291.572895 kJ/mol
# GULP energy per Si atom -5582.289322 kJ/mol
# Density = 2.358860 g / cm^3
# Si number density = 23.642407 Si / 1000 Ang^3
#
#
#
# Elastic Constant Matrix: (Units=GPa)
#
#
# Indices 1 2 3 4 5 6 
#
# 1 220.4957 15.8536 109.8674 0.0000 0.0000 0.0000
# 2 15.8536 64.4128 14.5320 0.0000 0.0000 0.0000
# 3 109.8674 14.5320 182.4975 0.0000 0.0000 0.0000
# 4 0.0000 0.0000 0.0000 -3.3648 0.0000 0.0000
# 5 0.0000 0.0000 0.0000 0.0000 31.2029 0.0000
# 6 0.0000 0.0000 0.0000 0.0000 0.0000 20.8766
#
#
#
# Elastic Compliance Matrix: (Units=1/GPa)
#
#
# Indices 1 2 3 4 5 6 
#
# 1 0.006512 -0.000731 -0.003862 0.000000 0.000000 0.000000
# 2 -0.000731 0.015891 -0.000825 0.000000 0.000000 0.000000
# 3 -0.003862 -0.000825 0.007870 0.000000 0.000000 0.000000
# 4 0.000000 0.000000 0.000000 -0.297194 0.000000 0.000000
# 5 0.000000 0.000000 0.000000 0.000000 0.032048 0.000000
# 6 0.000000 0.000000 0.000000 0.000000 0.000000 0.047901
#
#
# Mechanical properties :
#
#
# Convention : Reuss Voigt Hill
#
# Bulk Modulus (GPa) = 51.45051 83.10132 67.27591
# Shear Modulus (GPa) = -29.47166 31.55313 1.04073
#
# Velocity S-wave (km/s) = -3.53449 3.65718 0.66419
# Velocity P-wave (km/s) = 2.26987 7.28415 5.39496
#
# Compressibility (1/GPa) = 0.01943616
#
# Stress axis : x y z
#
# Youngs Moduli (GPa) = 153.55513 62.92863 127.05816
#
# Poissons Ratio (x) = 0.04603 0.49074
# Poissons Ratio (y) = 0.11232 0.10482
# Poissons Ratio (z) = 0.59308 0.05192
#
# Static dielectric constant tensor:
#      x y z
#    x 1.821030 0.000000 0.000000 
#    y 0.000000 2.593000 0.000000 
#    z 0.000000 0.000000 1.969750 
# 
# From -- ./inp_files/26705.got.cif
#   From: 2010.05.17/outbox.cif.g08.bks.cpg/sg66_14_cif.got.tgz:26705.got - 2010.06.03 17:51:23.
