data_PCOD9496765
_publ_section_title
;
Structure prediction by ZEFSAII (Michael W. Deem and Ramdas Pophale) SiO2 
 PCOD9496765
Probable space group: C C C M
;
_chemical_formula_sum "Si O2"
_cell_formula_units_Z 96
_cell_length_a 20.013403
_cell_length_b 27.212843
_cell_length_c 8.962492
_cell_angle_alpha 90.000000
_cell_angle_beta 90.000000
_cell_angle_gamma 90.000000
_cell_volume 4881.166677
_symmetry_space_group_name_H-M "C C C M"
_symmetry_group_IT_number 66
_symmetry_cell_setting 'orthorhombic'
loop_
_space_group_symop_operation_xyz
x,y,z
-x,-y,z
x,-y,1/2-z
-x,y,1/2-z
-x,-y,-z
x,y,-z
-x,y,1/2+z
x,-y,1/2+z
1/2+x,1/2+y,z
1/2-x,1/2-y,z
1/2+x,1/2-y,1/2-z
1/2-x,1/2+y,1/2-z
1/2-x,1/2-y,-z
1/2+x,1/2+y,-z
1/2-x,1/2+y,1/2+z
1/2+x,1/2-y,1/2+z
loop_
_atom_site_type_symbol
_atom_site_label
_atom_site_fract_x
_atom_site_fract_y
_atom_site_fract_z
Si Si1 0.353579 0.554966 0.819892
Si Si2 0.066852 0.415995 0.831433
Si Si3 0.677161 0.734085 0.181173
Si Si4 0.062956 0.298850 0.834149
Si Si5 0.297458 0.946586 0.822564
Si Si6 0.573176 0.353038 0.319139
O O1 0.360362 0.500000 0.750000
O O2 0.276983 0.573575 0.790256
O O3 0.402971 0.594209 0.745346
O O4 0.362208 0.552294 0.000000
O O5 0.058909 0.357245 0.840151
O O6 0.136156 0.423105 0.745757
O O7 0.000000 0.435342 0.750000
O O8 0.071333 0.435899 0.000000
O O9 0.750000 0.750000 0.238247
O O10 0.631783 0.780180 0.228613
O O11 0.631917 0.686550 0.222769
O O12 0.683924 0.730464 0.000000
O O13 0.000000 0.278813 0.750000
O O14 0.059361 0.278796 0.000000
O O15 0.296189 0.000000 0.750000
O O16 0.304610 0.949073 0.000000
O O17 0.500000 0.341461 0.250000
O O18 0.568738 0.354339 0.500000
#
# Coordination Sequence:
#
# PCOD9496765 Si02
#       6
#    16  16  16  16  16  16
#     4  10  22  41  64  91 123 156 199 248 304 366
#     4  10  20  33  53  80 111 149 195 242 292 349
#     4   9  19  35  57  87 118 154 199 242 286 343
#     4   9  18  33  54  78 108 148 189 234 280 333
#     4  10  21  37  57  81 112 148 188 240 296 355
#     4  11  23  39  64  92 125 163 202 249 300 357
#
# _framework density 19.667428000000001
#
# number of rings (size 3 to 8) (size 9 to 14) (size 15 to 20)
#    0.000    2.167    0.000    2.500    2.333    3.333 
#    0.000    4.167    0.000    2.500    0.000    0.000 
#    0.000    0.000    0.000    0.000    0.000    0.000 
#
# Total GULP energy -267326.333239 kJ/mol
# GULP energy per Si atom -5569.298609 kJ/mol
# Density = 1.962266 g / cm^3
# Si number density = 19.667428 Si / 1000 Ang^3
#
#
#
# Elastic Constant Matrix: (Units=GPa)
#
#
# Indices 1 2 3 4 5 6 
#
# 1 176.2557 46.1818 58.0231 0.0000 0.0000 0.0000
# 2 46.1818 48.5938 25.5481 0.0000 0.0000 0.0000
# 3 58.0231 25.5481 77.3071 0.0000 0.0000 0.0000
# 4 0.0000 0.0000 0.0000 23.2748 0.0000 0.0000
# 5 0.0000 0.0000 0.0000 0.0000 32.4845 0.0000
# 6 0.0000 0.0000 0.0000 0.0000 0.0000 29.2007
#
#
#
# Elastic Compliance Matrix: (Units=1/GPa)
#
#
# Indices 1 2 3 4 5 6 
#
# 1 0.008731 -0.005872 -0.004612 0.000000 0.000000 0.000000
# 2 -0.005872 0.028856 -0.005129 0.000000 0.000000 0.000000
# 3 -0.004612 -0.005129 0.018092 0.000000 0.000000 0.000000
# 4 0.000000 0.000000 0.000000 0.042965 0.000000 0.000000
# 5 0.000000 0.000000 0.000000 0.000000 0.030784 0.000000
# 6 0.000000 0.000000 0.000000 0.000000 0.000000 0.034246
#
#
# Mechanical properties :
#
#
# Convention : Reuss Voigt Hill
#
# Bulk Modulus (GPa) = 40.89599 62.40696 51.65147
# Shear Modulus (GPa) = 24.62449 28.48559 26.55504
#
# Velocity S-wave (km/s) = 3.54226 3.80987 3.67850
# Velocity P-wave (km/s) = 6.12936 7.15216 6.66042
#
# Compressibility (1/GPa) = 0.02445228
#
# Stress axis : x y z
#
# Youngs Moduli (GPa) = 114.54086 34.65476 55.27343
#
# Poissons Ratio (x) = 0.20351 0.25492
# Poissons Ratio (y) = 0.67263 0.28348
# Poissons Ratio (z) = 0.52826 0.17773
#
# Static dielectric constant tensor:
#      x y z
#    x 1.778880 0.000000 0.000000 
#    y 0.000000 1.692700 0.000000 
#    z 0.000000 0.000000 1.720480 
# 
# From -- ./inp_files/7983.got.cif
#   From: 2010.05.17/outbox.cif.g08.bks.cpg/sg66_4_cif.got.tgz:7983.got - 2010.06.03 17:51:23.
