data_PCOD9496185
_publ_section_title
;
Structure prediction by ZEFSAII (Michael W. Deem and Ramdas Pophale) SiO2 
 PCOD9496185
Probable space group: C C C M
;
_chemical_formula_sum "Si O2"
_cell_formula_units_Z 64
_cell_length_a 11.583826
_cell_length_b 14.904419
_cell_length_c 16.141186
_cell_angle_alpha 90.000000
_cell_angle_beta 90.000000
_cell_angle_gamma 90.000000
_cell_volume 2786.778932
_symmetry_space_group_name_H-M "C C C M"
_symmetry_group_IT_number 66
_symmetry_cell_setting 'orthorhombic'
loop_
_space_group_symop_operation_xyz
x,y,z
-x,-y,z
x,-y,1/2-z
-x,y,1/2-z
-x,-y,-z
x,y,-z
-x,y,1/2+z
x,-y,1/2+z
1/2+x,1/2+y,z
1/2-x,1/2-y,z
1/2+x,1/2-y,1/2-z
1/2-x,1/2+y,1/2-z
1/2-x,1/2-y,-z
1/2+x,1/2+y,-z
1/2-x,1/2+y,1/2+z
1/2+x,1/2-y,1/2+z
loop_
_atom_site_type_symbol
_atom_site_label
_atom_site_fract_x
_atom_site_fract_y
_atom_site_fract_z
Si Si1 0.343453 0.327128 0.000000
Si Si2 0.498749 0.108866 0.596984
Si Si3 0.237278 0.392183 0.832783
Si Si4 0.247803 0.105481 0.347923
Si Si5 0.072225 0.096612 0.500000
O O1 0.250000 0.250000 0.000000
O O2 0.314340 0.373399 0.087355
O O3 0.480123 0.323301 0.000000
O O4 0.521282 0.124286 0.500000
O O5 0.607485 0.143484 0.649588
O O6 0.372226 0.142592 0.622593
O O7 0.500000 0.000000 0.606520
O O8 0.282306 0.359569 0.743871
O O9 0.230863 0.499664 0.833885
O O10 0.152638 0.108162 0.419432
O O11 0.000000 0.000000 0.500000
#
# Coordination Sequence:
#
# PCOD9496185 Si02
#       5
#     8  16  16  16   8
#     4  12  26  43  61  81 129 188 224 261 343 437
#     4   9  15  27  55  88 126 157 191 261 341 398
#     4  10  19  35  60  94 124 163 216 271 341 401
#     4  10  19  33  62  99 126 151 212 294 344 384
#     4  12  22  39  63  95 133 170 222 294 346 398
#
# _framework density 22.965581
#
# number of rings (size 3 to 8) (size 9 to 14) (size 15 to 20)
#    0.000    1.750    5.000    0.750    0.000    4.000 
#    0.000    0.000   11.000    1.500    0.000    0.000 
#    0.000    0.000    0.000    0.000    0.000    0.000 
#
# Total GULP energy -178561.945882 kJ/mol
# GULP energy per Si atom -5580.060809 kJ/mol
# Density = 2.291331 g / cm^3
# Si number density = 22.965581 Si / 1000 Ang^3
#
#
#
# Elastic Constant Matrix: (Units=GPa)
#
#
# Indices 1 2 3 4 5 6 
#
# 1 167.5409 7.8938 101.3144 0.0000 0.0000 0.0000
# 2 7.8938 30.2806 8.3374 0.0000 0.0000 0.0000
# 3 101.3144 8.3374 231.4275 0.0000 0.0000 0.0000
# 4 0.0000 0.0000 0.0000 -4.8800 0.0000 0.0000
# 5 0.0000 0.0000 0.0000 0.0000 -44.3865 0.0000
# 6 0.0000 0.0000 0.0000 0.0000 0.0000 12.1330
#
#
#
# Elastic Compliance Matrix: (Units=1/GPa)
#
#
# Indices 1 2 3 4 5 6 
#
# 1 0.008157 -0.001155 -0.003530 0.000000 0.000000 0.000000
# 2 -0.001155 0.033519 -0.000702 0.000000 0.000000 0.000000
# 3 -0.003530 -0.000702 0.005891 0.000000 0.000000 0.000000
# 4 0.000000 0.000000 0.000000 -0.204916 0.000000 0.000000
# 5 0.000000 0.000000 0.000000 0.000000 -0.022529 0.000000
# 6 0.000000 0.000000 0.000000 0.000000 0.000000 0.082420
#
#
# Mechanical properties :
#
#
# Convention : Reuss Voigt Hill
#
# Bulk Modulus (GPa) = 27.17759 73.81557 50.49658
# Shear Modulus (GPa) = -67.18599 13.35353 -26.91623
#
# Velocity S-wave (km/s) = -5.41466 2.41396 -3.42720
# Velocity P-wave (km/s) = 5.21840 6.32307 2.52483
#
# Compressibility (1/GPa) = 0.03679502
#
# Stress axis : x y z
#
# Youngs Moduli (GPa) = 122.58667 29.83408 169.73645
#
# Poissons Ratio (x) = 0.03445 0.59910
# Poissons Ratio (y) = 0.14155 0.11916
# Poissons Ratio (z) = 0.43268 0.02094
#
# Static dielectric constant tensor:
#      x y z
#    x 1.845200 0.000000 0.000000 
#    y 0.000000 1.954040 0.000000 
#    z 0.000000 0.000000 1.725520 
# 
# From -- ./inp_files/25846.got.cif
#   From: 2010.05.17/outbox.cif.g08.bks.cpg/sg66_13_cif.got.tgz:25846.got - 2010.06.03 17:51:23.
