data_PCOD9496338
_publ_section_title
;
Structure prediction by ZEFSAII (Michael W. Deem and Ramdas Pophale) SiO2 
 PCOD9496338
Probable space group: C C C M
;
_chemical_formula_sum "Si O2"
_cell_formula_units_Z 96
_cell_length_a 19.283358
_cell_length_b 7.707016
_cell_length_c 28.749851
_cell_angle_alpha 90.000000
_cell_angle_beta 90.000000
_cell_angle_gamma 90.000000
_cell_volume 4272.720879
_symmetry_space_group_name_H-M "C C C M"
_symmetry_group_IT_number 66
_symmetry_cell_setting 'orthorhombic'
loop_
_space_group_symop_operation_xyz
x,y,z
-x,-y,z
x,-y,1/2-z
-x,y,1/2-z
-x,-y,-z
x,y,-z
-x,y,1/2+z
x,-y,1/2+z
1/2+x,1/2+y,z
1/2-x,1/2-y,z
1/2+x,1/2-y,1/2-z
1/2-x,1/2+y,1/2-z
1/2-x,1/2-y,-z
1/2+x,1/2+y,-z
1/2-x,1/2+y,1/2+z
1/2+x,1/2-y,1/2+z
loop_
_atom_site_type_symbol
_atom_site_label
_atom_site_fract_x
_atom_site_fract_y
_atom_site_fract_z
Si Si1 0.871893 0.000000 0.750000
Si Si2 0.660954 0.921261 0.899168
Si Si3 0.472009 0.186686 0.854737
Si Si4 0.719422 0.443639 0.163737
Si Si5 0.600500 0.314242 0.901413
Si Si6 0.500000 0.256913 0.750000
Si Si7 0.858278 0.137533 0.000000
Si Si8 0.790475 0.526142 0.000000
O O1 0.820325 0.028590 0.707032
O O2 0.928693 0.855208 0.735460
O O3 0.721194 0.945100 0.861055
O O4 0.627718 0.114691 0.902424
O O5 0.602667 0.795319 0.878162
O O6 0.686788 0.884543 0.951541
O O7 0.528959 0.318595 0.873712
O O8 0.473467 0.179087 0.798716
O O9 0.500000 0.000000 0.870334
O O10 0.750000 0.250000 0.176688
O O11 0.661547 0.410575 0.125092
O O12 0.597211 0.380629 0.953704
O O13 0.826115 0.333830 0.000000
O O14 0.791464 0.012998 0.000000
#
# Coordination Sequence:
#
# PCOD9496338 Si02
#       8
#     8  16  16  16  16   8   8   8
#     4  11  24  38  58  80 103 146 190 240 283 350
#     4   9  18  29  51  81 113 147 181 235 290 334
#     4  10  20  35  54  78 113 150 190 237 288 344
#     4  10  19  35  53  79 113 141 184 236 287 343
#     4   9  16  30  49  77 112 149 186 226 280 350
#     4  11  23  40  56  76 107 151 192 230 294 349
#     4   9  14  23  49  75 112 156 181 226 286 342
#     4   9  14  25  45  79 116 147 184 226 293 344
#
# _framework density 22.468119999999999
#
# number of rings (size 3 to 8) (size 9 to 14) (size 15 to 20)
#    0.000    2.333    3.333    0.250    0.000    2.000 
#    0.000    3.333    0.000    0.000    0.000    7.000 
#    0.000    0.000    0.000    0.000    0.000    0.000 
#
# Total GULP energy -267798.253316 kJ/mol
# GULP energy per Si atom -5579.130277 kJ/mol
# Density = 2.241698 g / cm^3
# Si number density = 22.468120 Si / 1000 Ang^3
#
#
#
# Elastic Constant Matrix: (Units=GPa)
#
#
# Indices 1 2 3 4 5 6 
#
# 1 146.8780 18.6398 70.2744 0.0000 0.0000 0.0000
# 2 18.6398 28.5416 -1.3076 0.0000 0.0000 0.0000
# 3 70.2744 -1.3076 155.0472 0.0000 0.0000 0.0000
# 4 0.0000 0.0000 0.0000 -45.1952 0.0000 0.0000
# 5 0.0000 0.0000 0.0000 0.0000 18.8708 0.0000
# 6 0.0000 0.0000 0.0000 0.0000 0.0000 15.3613
#
#
#
# Elastic Compliance Matrix: (Units=1/GPa)
#
#
# Indices 1 2 3 4 5 6 
#
# 1 0.009798 -0.006605 -0.004497 0.000000 0.000000 0.000000
# 2 -0.006605 0.039502 0.003327 0.000000 0.000000 0.000000
# 3 -0.004497 0.003327 0.008516 0.000000 0.000000 0.000000
# 4 0.000000 0.000000 0.000000 -0.022126 0.000000 0.000000
# 5 0.000000 0.000000 0.000000 0.000000 0.052992 0.000000
# 6 0.000000 0.000000 0.000000 0.000000 0.000000 0.065099
#
#
# Mechanical properties :
#
#
# Convention : Reuss Voigt Hill
#
# Bulk Modulus (GPa) = 23.65925 56.18667 39.92296
# Shear Modulus (GPa) = 27.26001 13.99804 20.62903
#
# Velocity S-wave (km/s) = 3.48699 2.49874 3.03338
# Velocity P-wave (km/s) = 5.17350 5.77811 5.48414
#
# Compressibility (1/GPa) = 0.04226676
#
# Stress axis : x y z
#
# Youngs Moduli (GPa) = 102.06192 25.31496 117.42933
#
# Poissons Ratio (x) = 0.16720 0.52803
# Poissons Ratio (y) = 0.67410 -0.39065
# Poissons Ratio (z) = 0.45893 -0.08422
#
# Static dielectric constant tensor:
#      x y z
#    x 1.814160 0.000000 0.000000 
#    y 0.000000 1.939460 0.000000 
#    z 0.000000 0.000000 1.726420 
# 
# From -- ./inp_files/65254.got.cif
#   From: 2010.05.17/outbox.cif.g08.bks.cpg/sg66_33_cif.got.tgz:65254.got - 2010.06.03 17:51:23.
