data_PCOD9496435
_publ_section_title
;
Structure prediction by ZEFSAII (Michael W. Deem and Ramdas Pophale) SiO2 
 PCOD9496435
Probable space group: C C C M
;
_chemical_formula_sum "Si O2"
_cell_formula_units_Z 56
_cell_length_a 15.085995
_cell_length_b 13.386821
_cell_length_c 14.388631
_cell_angle_alpha 90.000000
_cell_angle_beta 90.000000
_cell_angle_gamma 90.000000
_cell_volume 2905.834602
_symmetry_space_group_name_H-M "C C C M"
_symmetry_group_IT_number 66
_symmetry_cell_setting 'orthorhombic'
loop_
_space_group_symop_operation_xyz
x,y,z
-x,-y,z
x,-y,1/2-z
-x,y,1/2-z
-x,-y,-z
x,y,-z
-x,y,1/2+z
x,-y,1/2+z
1/2+x,1/2+y,z
1/2-x,1/2-y,z
1/2+x,1/2-y,1/2-z
1/2-x,1/2+y,1/2-z
1/2-x,1/2-y,-z
1/2+x,1/2+y,-z
1/2-x,1/2+y,1/2+z
1/2+x,1/2-y,1/2+z
loop_
_atom_site_type_symbol
_atom_site_label
_atom_site_fract_x
_atom_site_fract_y
_atom_site_fract_z
Si Si1 0.718510 0.459634 0.603552
Si Si2 0.500000 0.759128 0.250000
Si Si3 0.582744 0.057778 0.348593
Si Si4 0.321606 0.339291 0.712385
O O1 0.682183 0.444280 0.500000
O O2 0.824524 0.445231 0.601283
O O3 0.699971 0.570989 0.641844
O O4 0.685116 0.384537 0.683352
O O5 0.449679 0.832207 0.321904
O O6 0.577920 0.697972 0.298876
O O7 0.500000 0.000000 0.392836
O O8 0.598456 0.000000 0.250000
O O9 0.250000 0.250000 0.702551
#
# Coordination Sequence:
#
# PCOD9496435 Si02
#       4
#    16   8  16  16
#     4  11  23  38  60  91 127 162 201 255 310 361
#     4  10  19  35  66  86 112 168 206 242 296 368
#     4   9  16  35  61  86 114 155 207 255 302 352
#     4  11  21  42  63  89 122 166 204 252 306 363
#
# _framework density 19.271571999999999
#
# number of rings (size 3 to 8) (size 9 to 14) (size 15 to 20)
#    0.000    2.000    5.714    1.714    0.000    4.000 
#    0.000    4.286    0.000    0.000    0.000    0.000 
#    0.000    0.000    0.000    0.000    0.000    0.000 
#
# Total GULP energy -156213.392809 kJ/mol
# GULP energy per Si atom -5579.049743 kJ/mol
# Density = 1.922771 g / cm^3
# Si number density = 19.271572 Si / 1000 Ang^3
#
#
#
# Elastic Constant Matrix: (Units=GPa)
#
#
# Indices 1 2 3 4 5 6 
#
# 1 107.5756 37.9593 2.5774 0.0000 0.0000 0.0000
# 2 37.9593 80.3602 4.2224 0.0000 0.0000 0.0000
# 3 2.5774 4.2224 87.9899 0.0000 0.0000 0.0000
# 4 0.0000 0.0000 0.0000 -2.4287 0.0000 0.0000
# 5 0.0000 0.0000 0.0000 0.0000 11.5857 0.0000
# 6 0.0000 0.0000 0.0000 0.0000 0.0000 18.8686
#
#
#
# Elastic Compliance Matrix: (Units=1/GPa)
#
#
# Indices 1 2 3 4 5 6 
#
# 1 0.011156 -0.005266 -0.000074 0.000000 0.000000 0.000000
# 2 -0.005266 0.014961 -0.000564 0.000000 0.000000 0.000000
# 3 -0.000074 -0.000564 0.011394 0.000000 0.000000 0.000000
# 4 0.000000 0.000000 0.000000 -0.411745 0.000000 0.000000
# 5 0.000000 0.000000 0.000000 0.000000 0.086313 0.000000
# 6 0.000000 0.000000 0.000000 0.000000 0.000000 0.052998
#
#
# Mechanical properties :
#
#
# Convention : Reuss Voigt Hill
#
# Bulk Modulus (GPa) = 38.90467 40.60487 39.75477
# Shear Modulus (GPa) = -23.30480 21.01625 -1.14428
#
# Velocity S-wave (km/s) = -3.48125 3.30590 -0.77140
# Velocity P-wave (km/s) = 2.01808 5.97391 4.45871
#
# Compressibility (1/GPa) = 0.02570386
#
# Stress axis : x y z
#
# Youngs Moduli (GPa) = 89.64114 66.84098 87.76427
#
# Poissons Ratio (x) = 0.35196 0.00650
# Poissons Ratio (y) = 0.47202 0.04947
# Poissons Ratio (z) = 0.00664 0.03768
#
# Static dielectric constant tensor:
#      x y z
#    x 1.693360 0.000000 0.000000 
#    y 0.000000 1.683080 0.000000 
#    z 0.000000 0.000000 1.715300 
# 
# From -- ./inp_files/27648.got.cif
#   From: 2010.05.17/outbox.cif.g08.bks.cpg/sg66_14_cif.got.tgz:27648.got - 2010.06.03 17:51:23.
