data_PCOD9496729
_publ_section_title
;
Structure prediction by ZEFSAII (Michael W. Deem and Ramdas Pophale) SiO2 
 PCOD9496729
Probable space group: C C C M
;
_chemical_formula_sum "Si O2"
_cell_formula_units_Z 64
_cell_length_a 9.645724
_cell_length_b 43.475780
_cell_length_c 8.623496
_cell_angle_alpha 90.000000
_cell_angle_beta 90.000000
_cell_angle_gamma 90.000000
_cell_volume 3616.309395
_symmetry_space_group_name_H-M "C C C M"
_symmetry_group_IT_number 66
_symmetry_cell_setting 'orthorhombic'
loop_
_space_group_symop_operation_xyz
x,y,z
-x,-y,z
x,-y,1/2-z
-x,y,1/2-z
-x,-y,-z
x,y,-z
-x,y,1/2+z
x,-y,1/2+z
1/2+x,1/2+y,z
1/2-x,1/2-y,z
1/2+x,1/2-y,1/2-z
1/2-x,1/2+y,1/2-z
1/2-x,1/2-y,-z
1/2+x,1/2+y,-z
1/2-x,1/2+y,1/2+z
1/2+x,1/2-y,1/2+z
loop_
_atom_site_type_symbol
_atom_site_label
_atom_site_fract_x
_atom_site_fract_y
_atom_site_fract_z
Si Si1 0.657213 0.842672 0.185931
Si Si2 0.656445 0.221118 0.814223
Si Si3 0.844104 0.410227 0.313036
Si Si4 0.844416 0.032765 0.313337
O O1 0.500000 0.843225 0.250000
O O2 0.718162 0.811345 0.254758
O O3 0.714434 0.876344 0.230364
O O4 0.655177 0.840273 0.000000
O O5 0.500000 0.224233 0.750000
O O6 0.750000 0.250000 0.766210
O O7 0.649266 0.220156 0.000000
O O8 0.851183 0.410810 0.500000
O O9 0.749797 0.438635 0.262370
O O10 0.000000 0.413118 0.250000
O O11 0.848158 0.031680 0.500000
O O12 0.000000 0.036605 0.250000
O O13 0.791769 0.000000 0.250000
#
# Coordination Sequence:
#
# PCOD9496729 Si02
#       4
#    16  16  16  16
#     4   9  16  29  49  71  96 127 160 196 240 287
#     4  10  20  33  50  73  99 128 163 200 240 287
#     4   9  19  33  51  75 100 125 159 201 242 286
#     4  10  20  35  52  72  98 130 165 198 238 288
#
# _framework density 17.697600999999999
#
# number of rings (size 3 to 8) (size 9 to 14) (size 15 to 20)
#    0.000    2.500    0.000    4.500    0.000    5.500 
#    0.000    3.750    0.000    6.000    0.000    0.000 
#    0.000    0.000    0.000    0.000    0.000    0.000 
#
# Total GULP energy -178322.601912 kJ/mol
# GULP energy per Si atom -5572.581310 kJ/mol
# Density = 1.765732 g / cm^3
# Si number density = 17.697601 Si / 1000 Ang^3
#
#
#
# Elastic Constant Matrix: (Units=GPa)
#
#
# Indices 1 2 3 4 5 6 
#
# 1 43.5101 72.4161 16.0350 0.0000 0.0000 0.0000
# 2 72.4161 230.4488 44.8476 0.0000 0.0000 0.0000
# 3 16.0350 44.8476 42.3317 0.0000 0.0000 0.0000
# 4 0.0000 0.0000 0.0000 33.7392 0.0000 0.0000
# 5 0.0000 0.0000 0.0000 0.0000 6.6843 0.0000
# 6 0.0000 0.0000 0.0000 0.0000 0.0000 36.1273
#
#
#
# Elastic Compliance Matrix: (Units=1/GPa)
#
#
# Indices 1 2 3 4 5 6 
#
# 1 0.048445 -0.014679 -0.002800 0.000000 0.000000 0.000000
# 2 -0.014679 0.009914 -0.004943 0.000000 0.000000 0.000000
# 3 -0.002800 -0.004943 0.029920 0.000000 0.000000 0.000000
# 4 0.000000 0.000000 0.000000 0.029639 0.000000 0.000000
# 5 0.000000 0.000000 0.000000 0.000000 0.149604 0.000000
# 6 0.000000 0.000000 0.000000 0.000000 0.000000 0.027680
#
#
# Mechanical properties :
#
#
# Convention : Reuss Voigt Hill
#
# Bulk Modulus (GPa) = 23.02198 64.76534 43.89366
# Shear Modulus (GPa) = 14.10342 27.50963 20.80652
#
# Velocity S-wave (km/s) = 2.82602 3.94690 3.43252
# Velocity P-wave (km/s) = 4.86676 7.57929 6.36911
#
# Compressibility (1/GPa) = 0.04343676
#
# Stress axis : x y z
#
# Youngs Moduli (GPa) = 20.64181 100.86847 33.42222
#
# Poissons Ratio (x) = 1.48061 0.09358
# Poissons Ratio (y) = 0.30299 0.16520
# Poissons Ratio (z) = 0.05779 0.49859
#
# Static dielectric constant tensor:
#      x y z
#    x 1.648340 0.000000 0.000000 
#    y 0.000000 1.663830 0.000000 
#    z 0.000000 0.000000 1.599950 
# 
# From -- ./inp_files/3970.got.cif
#   From: 2010.05.17/outbox.cif.g08.bks.cpg/sg66_2_cif.got.tgz:3970.got - 2010.06.03 17:51:23.
