data_PCOD9496782
_publ_section_title
;
Structure prediction by ZEFSAII (Michael W. Deem and Ramdas Pophale) SiO2 
 PCOD9496782
Probable space group: C C C M
;
_chemical_formula_sum "Si O2"
_cell_formula_units_Z 100
_cell_length_a 14.349143
_cell_length_b 19.845435
_cell_length_c 19.700875
_cell_angle_alpha 90.000000
_cell_angle_beta 90.000000
_cell_angle_gamma 90.000000
_cell_volume 5610.119368
_symmetry_space_group_name_H-M "C C C M"
_symmetry_group_IT_number 66
_symmetry_cell_setting 'orthorhombic'
loop_
_space_group_symop_operation_xyz
x,y,z
-x,-y,z
x,-y,1/2-z
-x,y,1/2-z
-x,-y,-z
x,y,-z
-x,y,1/2+z
x,-y,1/2+z
1/2+x,1/2+y,z
1/2-x,1/2-y,z
1/2+x,1/2-y,1/2-z
1/2-x,1/2+y,1/2-z
1/2-x,1/2-y,-z
1/2+x,1/2+y,-z
1/2-x,1/2+y,1/2+z
1/2+x,1/2-y,1/2+z
loop_
_atom_site_type_symbol
_atom_site_label
_atom_site_fract_x
_atom_site_fract_y
_atom_site_fract_z
Si Si1 0.898702 0.815731 0.400957
Si Si2 0.250000 0.750000 0.000000
Si Si3 0.791733 0.361739 0.575268
Si Si4 0.889594 0.222386 0.606297
Si Si5 0.394189 0.475524 0.577635
Si Si6 0.738316 0.454268 0.311270
Si Si7 0.893722 0.839535 0.752304
O O1 0.825578 0.773228 0.442249
O O2 0.891138 0.894824 0.418512
O O3 0.876863 0.809760 0.321241
O O4 0.005426 0.794113 0.414577
O O5 0.806346 0.390411 0.500000
O O6 0.855063 0.295412 0.583875
O O7 0.685508 0.332670 0.580293
O O8 0.805140 0.413051 0.637520
O O9 0.886804 0.215041 0.687887
O O10 0.500000 0.500000 0.589904
O O11 0.368929 0.496225 0.500000
O O12 0.327373 0.504933 0.635835
O O13 0.777665 0.500000 0.250000
O O14 0.674530 0.399384 0.272857
O O15 0.000000 0.866276 0.750000
#
# Coordination Sequence:
#
# PCOD9496782 Si02
#       7
#    16   4  16  16  16  16  16
#     4  11  22  38  53  82 121 156 189 229 284 353
#     4  12  28  36  54  82 122 164 190 224 296 364
#     4  10  20  33  54  86 111 150 188 245 288 331
#     4   9  19  34  58  81 112 148 198 242 286 330
#     4  11  21  33  53  80 118 156 186 225 284 351
#     4  11  21  31  51  81 116 152 185 230 277 347
#     4   9  18  34  54  80 115 151 188 233 281 342
#
# _framework density 17.824932
#
# number of rings (size 3 to 8) (size 9 to 14) (size 15 to 20)
#    0.000    1.760    2.400    4.320    2.240    3.840 
#    0.000    0.000    0.000    0.000    0.000    2.240 
#    4.800    0.000    0.000    0.000    0.000    0.000 
#
# Total GULP energy -278455.817645 kJ/mol
# GULP energy per Si atom -5569.116353 kJ/mol
# Density = 1.778436 g / cm^3
# Si number density = 17.824932 Si / 1000 Ang^3
#
#
#
# Elastic Constant Matrix: (Units=GPa)
#
#
# Indices 1 2 3 4 5 6 
#
# 1 53.8923 27.7823 17.7289 0.0000 0.0000 0.0000
# 2 27.7823 50.7984 29.9999 0.0000 0.0000 0.0000
# 3 17.7289 29.9999 134.4256 0.0000 0.0000 0.0000
# 4 0.0000 0.0000 0.0000 -1.0121 0.0000 0.0000
# 5 0.0000 0.0000 0.0000 0.0000 25.2704 0.0000
# 6 0.0000 0.0000 0.0000 0.0000 0.0000 12.8105
#
#
#
# Elastic Compliance Matrix: (Units=1/GPa)
#
#
# Indices 1 2 3 4 5 6 
#
# 1 0.025851 -0.013966 -0.000293 0.000000 0.000000 0.000000
# 2 -0.013966 0.030219 -0.004902 0.000000 0.000000 0.000000
# 3 -0.000293 -0.004902 0.008572 0.000000 0.000000 0.000000
# 4 0.000000 0.000000 0.000000 -0.988027 0.000000 0.000000
# 5 0.000000 0.000000 0.000000 0.000000 0.039572 0.000000
# 6 0.000000 0.000000 0.000000 0.000000 0.000000 0.078061
#
#
# Mechanical properties :
#
#
# Convention : Reuss Voigt Hill
#
# Bulk Modulus (GPa) = 37.99261 43.34872 40.67066
# Shear Modulus (GPa) = -6.59058 18.32078 5.86510
#
# Velocity S-wave (km/s) = -1.92495 3.20944 1.81591
# Velocity P-wave (km/s) = 4.05216 6.17300 5.22140
#
# Compressibility (1/GPa) = 0.02632091
#
# Stress axis : x y z
#
# Youngs Moduli (GPa) = 38.68278 33.09223 116.66354
#
# Poissons Ratio (x) = 0.46215 0.03415
# Poissons Ratio (y) = 0.54023 0.57189
# Poissons Ratio (z) = 0.01132 0.16222
#
# Static dielectric constant tensor:
#      x y z
#    x 1.578900 0.000000 0.000000 
#    y 0.000000 1.613670 0.000000 
#    z 0.000000 0.000000 1.658000 
# 
# From -- ./inp_files/50081.got.cif
#   From: 2010.05.17/outbox.cif.g08.bks.cpg/sg66_26_cif.got.tgz:50081.got - 2010.06.03 17:51:23.
