data_PCOD9496336
_publ_section_title
;
Structure prediction by ZEFSAII (Michael W. Deem and Ramdas Pophale) SiO2 
 PCOD9496336
Probable space group: C C C M
;
_chemical_formula_sum "Si O2"
_cell_formula_units_Z 96
_cell_length_a 11.397919
_cell_length_b 24.611000
_cell_length_c 13.921865
_cell_angle_alpha 90.000000
_cell_angle_beta 90.000000
_cell_angle_gamma 90.000000
_cell_volume 3905.280607
_symmetry_space_group_name_H-M "C C C M"
_symmetry_group_IT_number 66
_symmetry_cell_setting 'orthorhombic'
loop_
_space_group_symop_operation_xyz
x,y,z
-x,-y,z
x,-y,1/2-z
-x,y,1/2-z
-x,-y,-z
x,y,-z
-x,y,1/2+z
x,-y,1/2+z
1/2+x,1/2+y,z
1/2-x,1/2-y,z
1/2+x,1/2-y,1/2-z
1/2-x,1/2+y,1/2-z
1/2-x,1/2-y,-z
1/2+x,1/2+y,-z
1/2-x,1/2+y,1/2+z
1/2+x,1/2-y,1/2+z
loop_
_atom_site_type_symbol
_atom_site_label
_atom_site_fract_x
_atom_site_fract_y
_atom_site_fract_z
Si Si1 0.962850 0.886690 0.395060
Si Si2 0.297958 0.859145 0.885170
Si Si3 0.936389 0.775289 0.148802
Si Si4 0.790621 0.931593 0.883505
Si Si5 0.680301 0.824381 0.817780
Si Si6 0.378335 0.976275 0.885469
O O1 0.946892 0.912703 0.500000
O O2 0.831840 0.881588 0.355962
O O3 0.997152 0.823035 0.405361
O O4 0.076499 0.916370 0.349785
O O5 0.332018 0.818910 0.798365
O O6 0.376563 0.912144 0.871901
O O7 0.296843 0.842977 0.000000
O O8 0.806008 0.799097 0.156469
O O9 0.915542 0.711820 0.125888
O O10 0.000000 0.776302 0.250000
O O11 0.696835 0.886529 0.848116
O O12 0.736136 0.989369 0.854569
O O13 0.796639 0.927049 0.000000
O O14 0.500000 0.000000 0.849644
O O15 0.376558 0.984138 0.000000
#
# Coordination Sequence:
#
# PCOD9496336 Si02
#       6
#    16  16  16  16  16  16
#     4   9  18  34  58  82 109 145 188 243 293 342
#     4  10  20  36  57  82 113 152 194 235 288 345
#     4  10  19  35  53  75 110 141 183 235 287 338
#     4   9  19  35  55  82 111 145 191 237 288 345
#     4  10  21  34  55  81 107 150 186 234 292 338
#     4   9  19  36  57  81 116 154 189 237 286 342
#
# _framework density 24.582101000000002
#
# number of rings (size 3 to 8) (size 9 to 14) (size 15 to 20)
#    0.000    2.500    1.667    0.000    0.000    3.333 
#    0.000   10.000    0.000    2.000    0.000    0.000 
#    0.000    0.000    0.000    0.000    0.000    0.000 
#
# Total GULP energy -267463.665852 kJ/mol
# GULP energy per Si atom -5572.159705 kJ/mol
# Density = 2.452615 g / cm^3
# Si number density = 24.582101 Si / 1000 Ang^3
#
#
#
# Elastic Constant Matrix: (Units=GPa)
#
#
# Indices 1 2 3 4 5 6 
#
# 1 72.1218 -7.9622 -5.0560 0.0000 0.0000 0.0000
# 2 -7.9622 26.2355 -5.6492 0.0000 0.0000 0.0000
# 3 -5.0560 -5.6492 90.2562 0.0000 0.0000 0.0000
# 4 0.0000 0.0000 0.0000 35.0710 0.0000 0.0000
# 5 0.0000 0.0000 0.0000 0.0000 -6.1630 0.0000
# 6 0.0000 0.0000 0.0000 0.0000 0.0000 3.1738
#
#
#
# Elastic Compliance Matrix: (Units=1/GPa)
#
#
# Indices 1 2 3 4 5 6 
#
# 1 0.014453 0.004623 0.001099 0.000000 0.000000 0.000000
# 2 0.004623 0.040116 0.002770 0.000000 0.000000 0.000000
# 3 0.001099 0.002770 0.011314 0.000000 0.000000 0.000000
# 4 0.000000 0.000000 0.000000 0.028514 0.000000 0.000000
# 5 0.000000 0.000000 0.000000 0.000000 -0.162258 0.000000
# 6 0.000000 0.000000 0.000000 0.000000 0.000000 0.315082
#
#
# Mechanical properties :
#
#
# Convention : Reuss Voigt Hill
#
# Bulk Modulus (GPa) = 12.06760 16.80876 14.43818
# Shear Modulus (GPa) = 19.39041 20.23508 19.81274
#
# Velocity S-wave (km/s) = 2.81161 2.87219 2.84206
# Velocity P-wave (km/s) = 3.93191 4.22516 4.08117
#
# Compressibility (1/GPa) = 0.08286654
#
# Stress axis : x y z
#
# Youngs Moduli (GPa) = 69.19056 24.92786 88.38220
#
# Poissons Ratio (x) = -0.11524 -0.09713
# Poissons Ratio (y) = -0.31986 -0.24480
# Poissons Ratio (z) = -0.07604 -0.06905
#
# Static dielectric constant tensor:
#      x y z
#    x 1.957830 0.000000 0.000000 
#    y 0.000000 2.140320 0.000000 
#    z 0.000000 0.000000 1.957730 
# 
# From -- ./inp_files/38851.got.cif
#   From: 2010.05.17/outbox.cif.g08.bks.cpg/sg66_20_cif.got.tgz:38851.got - 2010.06.03 17:51:23.
