data_PCOD9496279
_publ_section_title
;
Structure prediction by ZEFSAII (Michael W. Deem and Ramdas Pophale) SiO2 
 PCOD9496279
Probable space group: C C C M
;
_chemical_formula_sum "Si O2"
_cell_formula_units_Z 112
_cell_length_a 26.309100
_cell_length_b 12.689422
_cell_length_c 14.232551
_cell_angle_alpha 90.000000
_cell_angle_beta 90.000000
_cell_angle_gamma 90.000000
_cell_volume 4751.498330
_symmetry_space_group_name_H-M "C C C M"
_symmetry_group_IT_number 66
_symmetry_cell_setting 'orthorhombic'
loop_
_space_group_symop_operation_xyz
x,y,z
-x,-y,z
x,-y,1/2-z
-x,y,1/2-z
-x,-y,-z
x,y,-z
-x,y,1/2+z
x,-y,1/2+z
1/2+x,1/2+y,z
1/2-x,1/2-y,z
1/2+x,1/2-y,1/2-z
1/2-x,1/2+y,1/2-z
1/2-x,1/2-y,-z
1/2+x,1/2+y,-z
1/2-x,1/2+y,1/2+z
1/2+x,1/2-y,1/2+z
loop_
_atom_site_type_symbol
_atom_site_label
_atom_site_fract_x
_atom_site_fract_y
_atom_site_fract_z
Si Si1 0.149771 0.129095 0.892947
Si Si2 0.554568 0.966241 0.641830
Si Si3 0.039521 0.187039 0.891911
Si Si4 0.664798 0.947156 0.394320
Si Si5 0.670627 0.731656 0.288161
Si Si6 0.275414 0.554456 0.889638
Si Si7 0.439884 0.273026 0.317371
O O1 0.088889 0.112656 0.888711
O O2 0.167031 0.220757 0.823180
O O3 0.181428 0.027979 0.863456
O O4 0.162485 0.154661 0.000000
O O5 0.610578 0.005439 0.610091
O O6 0.556515 0.839763 0.631952
O O7 0.500000 0.000000 0.601445
O O8 0.553152 0.000000 0.750000
O O9 0.050025 0.251928 0.794341
O O10 0.982367 0.153017 0.865004
O O11 0.039362 0.229601 0.000000
O O12 0.667185 0.901768 0.500000
O O13 0.666624 0.851032 0.321620
O O14 0.719845 0.998751 0.378166
O O15 0.714840 0.660039 0.330842
O O16 0.616689 0.683606 0.324461
O O17 0.281172 0.580598 0.000000
#
# Coordination Sequence:
#
# PCOD9496279 Si02
#       7
#    16  16  16  16  16  16  16
#     4   9  19  34  55  84 113 146 189 233 278 330
#     4  10  20  36  55  79 114 150 185 229 276 325
#     4   9  16  30  51  74 107 146 179 220 275 326
#     4  10  22  38  58  86 115 147 189 230 273 333
#     4  10  19  34  58  84 114 152 187 228 281 333
#     4  10  20  36  57  83 116 147 184 235 283 331
#     4   9  19  33  51  81 112 141 188 234 268 330
#
# _framework density 23.571511999999998
#
# number of rings (size 3 to 8) (size 9 to 14) (size 15 to 20)
#    0.000    2.429    0.000    3.000    0.000    5.429 
#    0.000    2.857    0.000    9.000    0.000    0.000 
#    0.000    0.000    0.000    0.000    0.000    0.000 
#
# Total GULP energy -311873.495141 kJ/mol
# GULP energy per Si atom -5569.169556 kJ/mol
# Density = 2.351786 g / cm^3
# Si number density = 23.571512 Si / 1000 Ang^3
#
#
#
# Elastic Constant Matrix: (Units=GPa)
#
#
# Indices 1 2 3 4 5 6 
#
# 1 165.7709 32.4294 27.7485 0.0000 0.0000 0.0000
# 2 32.4294 27.3831 26.3725 0.0000 0.0000 0.0000
# 3 27.7485 26.3725 88.9060 0.0000 0.0000 0.0000
# 4 0.0000 0.0000 0.0000 14.2428 0.0000 0.0000
# 5 0.0000 0.0000 0.0000 0.0000 25.6110 0.0000
# 6 0.0000 0.0000 0.0000 0.0000 0.0000 33.5356
#
#
#
# Elastic Compliance Matrix: (Units=1/GPa)
#
#
# Indices 1 2 3 4 5 6 
#
# 1 0.007863 -0.009728 0.000431 0.000000 0.000000 0.000000
# 2 -0.009728 0.063159 -0.015699 0.000000 0.000000 0.000000
# 3 0.000431 -0.015699 0.015770 0.000000 0.000000 0.000000
# 4 0.000000 0.000000 0.000000 0.070211 0.000000 0.000000
# 5 0.000000 0.000000 0.000000 0.000000 0.039046 0.000000
# 6 0.000000 0.000000 0.000000 0.000000 0.000000 0.029819
#
#
# Mechanical properties :
#
#
# Convention : Reuss Voigt Hill
#
# Bulk Modulus (GPa) = 27.17275 50.57342 38.87309
# Shear Modulus (GPa) = 17.35353 27.71185 22.53269
#
# Velocity S-wave (km/s) = 2.71626 3.43250 3.09516
# Velocity P-wave (km/s) = 4.62496 6.10010 5.41302
#
# Compressibility (1/GPa) = 0.03680157
#
# Stress axis : x y z
#
# Youngs Moduli (GPa) = 127.17413 15.83306 63.41141
#
# Poissons Ratio (x) = 0.15402 -0.02736
# Poissons Ratio (y) = 1.23712 0.99549
# Poissons Ratio (z) = -0.05486 0.24856
#
# Static dielectric constant tensor:
#      x y z
#    x 1.999530 0.000000 0.000000 
#    y 0.000000 1.874780 0.000000 
#    z 0.000000 0.000000 1.903650 
# 
# From -- ./inp_files/33321.got.cif
#   From: 2010.05.17/outbox.cif.g08.bks.cpg/sg66_17_cif.got.tgz:33321.got - 2010.06.03 17:51:23.
