data_PCOD9496259
_publ_section_title
;
Structure prediction by ZEFSAII (Michael W. Deem and Ramdas Pophale) SiO2 
 PCOD9496259
Probable space group: C C C M
;
_chemical_formula_sum "Si O2"
_cell_formula_units_Z 96
_cell_length_a 11.221754
_cell_length_b 28.942222
_cell_length_c 14.964726
_cell_angle_alpha 90.000000
_cell_angle_beta 90.000000
_cell_angle_gamma 90.000000
_cell_volume 4860.281055
_symmetry_space_group_name_H-M "C C C M"
_symmetry_group_IT_number 66
_symmetry_cell_setting 'orthorhombic'
loop_
_space_group_symop_operation_xyz
x,y,z
-x,-y,z
x,-y,1/2-z
-x,y,1/2-z
-x,-y,-z
x,y,-z
-x,y,1/2+z
x,-y,1/2+z
1/2+x,1/2+y,z
1/2-x,1/2-y,z
1/2+x,1/2-y,1/2-z
1/2-x,1/2+y,1/2-z
1/2-x,1/2-y,-z
1/2+x,1/2+y,-z
1/2-x,1/2+y,1/2+z
1/2+x,1/2-y,1/2+z
loop_
_atom_site_type_symbol
_atom_site_label
_atom_site_fract_x
_atom_site_fract_y
_atom_site_fract_z
Si Si1 0.033229 0.553073 0.000000
Si Si2 0.079511 0.045417 0.602433
Si Si3 0.756927 0.631139 0.803744
Si Si4 0.500000 0.382349 0.250000
Si Si5 0.120672 0.272533 0.000000
Si Si6 0.882249 0.728283 0.194860
Si Si7 0.667988 0.956609 0.312536
Si Si8 0.688089 0.121176 0.500000
O O1 0.096563 0.558322 0.902503
O O2 0.000000 0.500000 0.000000
O O3 0.917278 0.584586 0.000000
O O4 0.097687 0.061066 0.500000
O O5 0.022630 0.084602 0.664705
O O6 0.203434 0.030817 0.647203
O O7 0.000000 0.000000 0.601776
O O8 0.625395 0.643415 0.765981
O O9 0.847954 0.673913 0.799113
O O10 0.811288 0.587897 0.750235
O O11 0.741276 0.617460 0.907655
O O12 0.250000 0.250000 0.000000
O O13 0.073183 0.258452 0.095287
O O14 0.132338 0.327621 0.000000
O O15 0.750000 0.750000 0.212087
O O16 0.000000 0.738996 0.250000
O O17 0.628295 0.000000 0.250000
#
# Coordination Sequence:
#
# PCOD9496259 Si02
#       8
#     8  16  16   8   8  16  16   8
#     4  12  26  38  54  86 128 173 223 268 315 384
#     4  10  19  34  57  79 112 157 208 266 318 367
#     4  10  23  39  65  91 124 165 209 263 318 389
#     4  10  21  36  56  88 120 148 204 260 321 362
#     4   8  18  40  65  94 125 161 207 261 315 396
#     4  10  22  41  70  97 129 167 214 263 328 392
#     4  11  23  40  57  84 125 167 219 268 320 372
#     4  10  22  38  61  88 117 169 212 248 314 386
#
# _framework density 19.751943000000001
#
# number of rings (size 3 to 8) (size 9 to 14) (size 15 to 20)
#    0.000    1.833    0.833    3.250    7.000    1.667 
#    0.000    0.417    0.000    0.000    0.000    0.000 
#    0.000    0.000    0.000    0.000    0.000    0.000 
#
# Total GULP energy -267520.802067 kJ/mol
# GULP energy per Si atom -5573.350043 kJ/mol
# Density = 1.970699 g / cm^3
# Si number density = 19.751943 Si / 1000 Ang^3
#
#
#
# Elastic Constant Matrix: (Units=GPa)
#
#
# Indices 1 2 3 4 5 6 
#
# 1 89.2099 22.2582 52.2951 0.0000 0.0000 0.0000
# 2 22.2582 51.6633 21.9764 0.0000 0.0000 0.0000
# 3 52.2951 21.9764 175.6872 0.0000 0.0000 0.0000
# 4 0.0000 0.0000 0.0000 18.0174 0.0000 0.0000
# 5 0.0000 0.0000 0.0000 0.0000 37.9310 0.0000
# 6 0.0000 0.0000 0.0000 0.0000 0.0000 19.9743
#
#
#
# Elastic Compliance Matrix: (Units=1/GPa)
#
#
# Indices 1 2 3 4 5 6 
#
# 1 0.014579 -0.004684 -0.003754 0.000000 0.000000 0.000000
# 2 -0.004684 0.021949 -0.001351 0.000000 0.000000 0.000000
# 3 -0.003754 -0.001351 0.006978 0.000000 0.000000 0.000000
# 4 0.000000 0.000000 0.000000 0.055502 0.000000 0.000000
# 5 0.000000 0.000000 0.000000 0.000000 0.026364 0.000000
# 6 0.000000 0.000000 0.000000 0.000000 0.000000 0.050064
#
#
# Mechanical properties :
#
#
# Convention : Reuss Voigt Hill
#
# Bulk Modulus (GPa) = 41.79243 56.62442 49.20843
# Shear Modulus (GPa) = 24.63180 29.85327 27.24254
#
# Velocity S-wave (km/s) = 3.53520 3.89190 3.71783
# Velocity P-wave (km/s) = 6.15371 6.99470 6.58764
#
# Compressibility (1/GPa) = 0.02392778
#
# Stress axis : x y z
#
# Youngs Moduli (GPa) = 68.59382 45.56015 143.30284
#
# Poissons Ratio (x) = 0.21342 0.53789
# Poissons Ratio (y) = 0.32131 0.19364
# Poissons Ratio (z) = 0.25747 0.06156
#
# Static dielectric constant tensor:
#      x y z
#    x 1.679100 0.000000 0.000000 
#    y 0.000000 1.692020 0.000000 
#    z 0.000000 0.000000 1.836260 
# 
# From -- ./inp_files/26954.got.cif
#   From: 2010.05.17/outbox.cif.g08.bks.cpg/sg66_14_cif.got.tgz:26954.got - 2010.06.03 17:51:23.
