data_PCOD9496249
_publ_section_title
;
Structure prediction by ZEFSAII (Michael W. Deem and Ramdas Pophale) SiO2 
 PCOD9496249
Probable space group: C C C M
;
_chemical_formula_sum "Si O2"
_cell_formula_units_Z 48
_cell_length_a 24.454174
_cell_length_b 5.198236
_cell_length_c 14.482303
_cell_angle_alpha 90.000000
_cell_angle_beta 90.000000
_cell_angle_gamma 90.000000
_cell_volume 1840.969613
_symmetry_space_group_name_H-M "C C C M"
_symmetry_group_IT_number 66
_symmetry_cell_setting 'orthorhombic'
loop_
_space_group_symop_operation_xyz
x,y,z
-x,-y,z
x,-y,1/2-z
-x,y,1/2-z
-x,-y,-z
x,y,-z
-x,y,1/2+z
x,-y,1/2+z
1/2+x,1/2+y,z
1/2-x,1/2-y,z
1/2+x,1/2-y,1/2-z
1/2-x,1/2+y,1/2-z
1/2-x,1/2-y,-z
1/2+x,1/2+y,-z
1/2-x,1/2+y,1/2+z
1/2+x,1/2-y,1/2+z
loop_
_atom_site_type_symbol
_atom_site_label
_atom_site_fract_x
_atom_site_fract_y
_atom_site_fract_z
Si Si1 0.944116 0.334891 0.643086
Si Si2 0.715405 0.508570 0.890718
Si Si3 0.902873 0.171370 0.849141
O O1 0.928807 0.251569 0.749232
O O2 0.900596 0.543927 0.607034
O O3 0.000000 0.500000 0.632833
O O4 0.939605 0.048511 0.603234
O O5 0.750000 0.750000 0.853414
O O6 0.656600 0.452921 0.847463
O O7 0.750000 0.250000 0.880817
O O8 0.705918 0.554589 0.000000
#
# Coordination Sequence:
#
# PCOD9496249 Si02
#       3
#    16  16  16
#     4  10  20  34  55  83 112 144 180 224 283 339
#     4  10  21  38  59  82 112 152 193 233 279 330
#     4  10  19  34  56  82 108 145 186 223 274 335
#
# _framework density 26.073219999999999
#
# number of rings (size 3 to 8) (size 9 to 14) (size 15 to 20)
#    0.000    2.000    0.000    5.000    0.000    5.333 
#    0.000   13.333    0.000    9.000    0.000    0.000 
#    0.000    2.667    0.000    0.000    0.000    0.000 
#
# Total GULP energy -133829.879810 kJ/mol
# GULP energy per Si atom -5576.244992 kJ/mol
# Density = 2.601388 g / cm^3
# Si number density = 26.073220 Si / 1000 Ang^3
#
#
#
# Elastic Constant Matrix: (Units=GPa)
#
#
# Indices 1 2 3 4 5 6 
#
# 1 170.7559 71.3065 5.0855 0.0000 0.0000 0.0000
# 2 71.3065 296.7582 10.1257 0.0000 0.0000 0.0000
# 3 5.0855 10.1257 105.0519 0.0000 0.0000 0.0000
# 4 0.0000 0.0000 0.0000 -510.7982 0.0000 0.0000
# 5 0.0000 0.0000 0.0000 0.0000 47.5853 0.0000
# 6 0.0000 0.0000 0.0000 0.0000 0.0000 57.4683
#
#
#
# Elastic Compliance Matrix: (Units=1/GPa)
#
#
# Indices 1 2 3 4 5 6 
#
# 1 0.006512 -0.001559 -0.000165 0.000000 0.000000 0.000000
# 2 -0.001559 0.003754 -0.000286 0.000000 0.000000 0.000000
# 3 -0.000165 -0.000286 0.009555 0.000000 0.000000 0.000000
# 4 0.000000 0.000000 0.000000 -0.001958 0.000000 0.000000
# 5 0.000000 0.000000 0.000000 0.000000 0.021015 0.000000
# 6 0.000000 0.000000 0.000000 0.000000 0.000000 0.017401
#
#
# Mechanical properties :
#
#
# Convention : Reuss Voigt Hill
#
# Bulk Modulus (GPa) = 63.29065 82.84462 73.06764
# Shear Modulus (GPa) = 76.25781 -48.74571 13.75605
#
# Velocity S-wave (km/s) = 5.41397 -4.32854 2.29943
# Velocity P-wave (km/s) = 7.96293 2.61937 5.92745
#
# Compressibility (1/GPa) = 0.01580012
#
# Stress axis : x y z
#
# Youngs Moduli (GPa) = 153.55485 266.37065 104.66057
#
# Poissons Ratio (x) = 0.41532 0.01727
# Poissons Ratio (y) = 0.23942 0.02997
# Poissons Ratio (z) = 0.02533 0.07628
#
# Static dielectric constant tensor:
#      x y z
#    x 2.045030 0.000000 0.000000 
#    y 0.000000 2.286150 0.000000 
#    z 0.000000 0.000000 2.530920 
# 
# From -- ./inp_files/43284.got.cif
#   From: 2010.05.17/outbox.cif.g08.bks.cpg/sg66_22_cif.got.tgz:43284.got - 2010.06.03 17:51:23.
