data_PCOD9496686
_publ_section_title
;
Structure prediction by ZEFSAII (Michael W. Deem and Ramdas Pophale) SiO2 
 PCOD9496686
Probable space group: C C C M
;
_chemical_formula_sum "Si O2"
_cell_formula_units_Z 112
_cell_length_a 20.997964
_cell_length_b 11.277066
_cell_length_c 22.952981
_cell_angle_alpha 90.000000
_cell_angle_beta 90.000000
_cell_angle_gamma 90.000000
_cell_volume 5435.160911
_symmetry_space_group_name_H-M "C C C M"
_symmetry_group_IT_number 66
_symmetry_cell_setting 'orthorhombic'
loop_
_space_group_symop_operation_xyz
x,y,z
-x,-y,z
x,-y,1/2-z
-x,y,1/2-z
-x,-y,-z
x,y,-z
-x,y,1/2+z
x,-y,1/2+z
1/2+x,1/2+y,z
1/2-x,1/2-y,z
1/2+x,1/2-y,1/2-z
1/2-x,1/2+y,1/2-z
1/2-x,1/2-y,-z
1/2+x,1/2+y,-z
1/2-x,1/2+y,1/2+z
1/2+x,1/2-y,1/2+z
loop_
_atom_site_type_symbol
_atom_site_label
_atom_site_fract_x
_atom_site_fract_y
_atom_site_fract_z
Si Si1 0.038799 0.119822 0.567969
Si Si2 0.471308 0.832293 0.847780
Si Si3 0.339165 0.543420 0.128883
Si Si4 0.898884 0.442434 0.641364
Si Si5 0.132015 0.216696 0.271729
Si Si6 0.673651 0.724910 0.861910
Si Si7 0.782331 0.432415 0.805128
O O1 0.029819 0.142885 0.500000
O O2 0.015102 0.226553 0.607837
O O3 0.113826 0.105183 0.583298
O O4 0.000000 0.000000 0.583065
O O5 0.538180 0.888096 0.830122
O O6 0.431451 0.781646 0.793941
O O7 0.427635 0.932159 0.880665
O O8 0.365803 0.594957 0.191031
O O9 0.340087 0.404827 0.113519
O O10 0.264558 0.570229 0.139769
O O11 0.864067 0.334159 0.608046
O O12 0.842401 0.482851 0.683288
O O13 0.144653 0.210872 0.203439
O O14 0.188627 0.304178 0.293098
O O15 0.750000 0.750000 0.859351
O O16 0.750329 0.500000 0.750000
#
# Coordination Sequence:
#
# PCOD9496686 Si02
#       7
#    16  16  16  16  16  16  16
#     4  10  22  44  69  86 107 145 201 259 323 381
#     4   9  21  38  57  86 116 157 196 250 306 351
#     4  11  21  33  57  84 115 151 198 251 294 349
#     4  10  20  35  54  82 127 156 200 240 285 357
#     4  10  20  32  51  81 123 165 203 241 278 343
#     4  12  20  32  51  85 120 166 204 231 285 359
#     4  11  18  33  53  85 124 169 202 225 281 361
#
# _framework density 20.606566000000001
#
# number of rings (size 3 to 8) (size 9 to 14) (size 15 to 20)
#    0.000    1.571    2.857    3.429    0.000    0.571 
#    2.571    1.429    0.000   22.286    0.000    0.000 
#    0.000    0.000    0.000    0.000    0.000    0.000 
#
# Total GULP energy -311832.967392 kJ/mol
# GULP energy per Si atom -5568.445846 kJ/mol
# Density = 2.055966 g / cm^3
# Si number density = 20.606566 Si / 1000 Ang^3
#
#
#
# Elastic Constant Matrix: (Units=GPa)
#
#
# Indices 1 2 3 4 5 6 
#
# 1 109.9242 5.8611 9.5466 0.0000 0.0000 0.0000
# 2 5.8611 72.2531 7.8769 0.0000 0.0000 0.0000
# 3 9.5466 7.8769 29.1035 0.0000 0.0000 0.0000
# 4 0.0000 0.0000 0.0000 6.7131 0.0000 0.0000
# 5 0.0000 0.0000 0.0000 0.0000 4.1142 0.0000
# 6 0.0000 0.0000 0.0000 0.0000 0.0000 43.8272
#
#
#
# Elastic Compliance Matrix: (Units=1/GPa)
#
#
# Indices 1 2 3 4 5 6 
#
# 1 0.009377 -0.000438 -0.002957 0.000000 0.000000 0.000000
# 2 -0.000438 0.014281 -0.003722 0.000000 0.000000 0.000000
# 3 -0.002957 -0.003722 0.036337 0.000000 0.000000 0.000000
# 4 0.000000 0.000000 0.000000 0.148962 0.000000 0.000000
# 5 0.000000 0.000000 0.000000 0.000000 0.243063 0.000000
# 6 0.000000 0.000000 0.000000 0.000000 0.000000 0.022817
#
#
# Mechanical properties :
#
#
# Convention : Reuss Voigt Hill
#
# Bulk Modulus (GPa) = 21.85223 28.65001 25.25112
# Shear Modulus (GPa) = 9.91421 23.46398 16.68909
#
# Velocity S-wave (km/s) = 2.19582 3.37807 2.84895
# Velocity P-wave (km/s) = 4.12993 5.39895 4.80651
#
# Compressibility (1/GPa) = 0.04576193
#
# Stress axis : x y z
#
# Youngs Moduli (GPa) = 106.63952 70.02070 27.51987
#
# Poissons Ratio (x) = 0.03069 0.08139
# Poissons Ratio (y) = 0.04674 0.10242
# Poissons Ratio (z) = 0.31537 0.26058
#
# Static dielectric constant tensor:
#      x y z
#    x 1.785540 0.000000 0.000000 
#    y 0.000000 1.841120 0.000000 
#    z 0.000000 0.000000 1.680050 
# 
# From -- ./inp_files/59562.got.cif
#   From: 2010.05.17/outbox.cif.g08.bks.cpg/sg66_30_cif.got.tgz:59562.got - 2010.06.03 17:51:23.
