data_PCOD9496360
_publ_section_title
;
Structure prediction by ZEFSAII (Michael W. Deem and Ramdas Pophale) SiO2 
 PCOD9496360
Probable space group: C C C M
;
_chemical_formula_sum "Si O2"
_cell_formula_units_Z 112
_cell_length_a 25.150687
_cell_length_b 16.646189
_cell_length_c 13.866082
_cell_angle_alpha 90.000000
_cell_angle_beta 90.000000
_cell_angle_gamma 90.000000
_cell_volume 5805.216726
_symmetry_space_group_name_H-M "C C C M"
_symmetry_group_IT_number 66
_symmetry_cell_setting 'orthorhombic'
loop_
_space_group_symop_operation_xyz
x,y,z
-x,-y,z
x,-y,1/2-z
-x,y,1/2-z
-x,-y,-z
x,y,-z
-x,y,1/2+z
x,-y,1/2+z
1/2+x,1/2+y,z
1/2-x,1/2-y,z
1/2+x,1/2-y,1/2-z
1/2-x,1/2+y,1/2-z
1/2-x,1/2-y,-z
1/2+x,1/2+y,-z
1/2-x,1/2+y,1/2+z
1/2+x,1/2-y,1/2+z
loop_
_atom_site_type_symbol
_atom_site_label
_atom_site_fract_x
_atom_site_fract_y
_atom_site_fract_z
Si Si1 0.957113 0.857829 0.384303
Si Si2 0.382077 0.759064 0.783957
Si Si3 0.920658 0.165666 0.385289
Si Si4 0.375459 0.492848 0.384920
Si Si5 0.726008 0.328468 0.763341
Si Si6 0.259443 0.472548 0.885753
Si Si7 0.316706 0.113136 0.387349
O O1 0.956452 0.861021 0.500000
O O2 0.928864 0.776806 0.349161
O O3 0.920969 0.932572 0.347963
O O4 0.018934 0.857055 0.357410
O O5 0.401165 0.742561 0.674799
O O6 0.332605 0.697459 0.793771
O O7 0.361306 0.845547 0.819875
O O8 0.917816 0.178829 0.500000
O O9 0.886599 0.085948 0.361434
O O10 0.380029 0.487837 0.500000
O O11 0.313510 0.476129 0.363165
O O12 0.750000 0.250000 0.711047
O O13 0.735962 0.399633 0.687941
O O14 0.763078 0.340538 0.856587
O O15 0.204832 0.522278 0.872347
O O16 0.263017 0.451301 0.000000
O O17 0.329686 0.123941 0.500000
#
# Coordination Sequence:
#
# PCOD9496360 Si02
#       7
#    16  16  16  16  16  16  16
#     4  10  20  32  50  77 109 149 194 239 283 338
#     4  11  21  34  52  76 107 148 192 239 281 331
#     4  10  20  35  52  74 111 150 192 237 287 347
#     4   9  17  31  52  76 108 151 190 230 281 343
#     4  10  21  34  54  81 111 150 188 239 292 345
#     4  10  19  35  57  81 114 156 196 234 284 346
#     4  10  22  37  54  76 106 147 194 240 284 337
#
# _framework density 19.292992999999999
#
# number of rings (size 3 to 8) (size 9 to 14) (size 15 to 20)
#    0.000    2.000    1.429    2.571    0.000    6.857 
#    0.000    3.571    0.000    0.857    0.000    0.000 
#    0.000   36.571    0.000  134.286    0.000    2.857 
#
# Total GULP energy -312091.603468 kJ/mol
# GULP energy per Si atom -5573.064348 kJ/mol
# Density = 1.924908 g / cm^3
# Si number density = 19.292993 Si / 1000 Ang^3
#
#
#
# Elastic Constant Matrix: (Units=GPa)
#
#
# Indices 1 2 3 4 5 6 
#
# 1 72.4996 30.8895 14.9600 0.0000 0.0000 0.0000
# 2 30.8895 57.8925 19.4831 0.0000 0.0000 0.0000
# 3 14.9600 19.4831 89.5804 0.0000 0.0000 0.0000
# 4 0.0000 0.0000 0.0000 22.3139 0.0000 0.0000
# 5 0.0000 0.0000 0.0000 0.0000 26.3605 0.0000
# 6 0.0000 0.0000 0.0000 0.0000 0.0000 26.8255
#
#
#
# Elastic Compliance Matrix: (Units=1/GPa)
#
#
# Indices 1 2 3 4 5 6 
#
# 1 0.017932 -0.009236 -0.000986 0.000000 0.000000 0.000000
# 2 -0.009236 0.023395 -0.003546 0.000000 0.000000 0.000000
# 3 -0.000986 -0.003546 0.012099 0.000000 0.000000 0.000000
# 4 0.000000 0.000000 0.000000 0.044815 0.000000 0.000000
# 5 0.000000 0.000000 0.000000 0.000000 0.037936 0.000000
# 6 0.000000 0.000000 0.000000 0.000000 0.000000 0.037278
#
#
# Mechanical properties :
#
#
# Convention : Reuss Voigt Hill
#
# Bulk Modulus (GPa) = 38.62467 38.95975 38.79221
# Shear Modulus (GPa) = 23.85276 25.40930 24.63103
#
# Velocity S-wave (km/s) = 3.51998 3.63302 3.57695
# Velocity P-wave (km/s) = 6.04846 6.15110 6.09999
#
# Compressibility (1/GPa) = 0.02589019
#
# Stress axis : x y z
#
# Youngs Moduli (GPa) = 55.76706 42.74474 82.65163
#
# Poissons Ratio (x) = 0.39479 0.08148
# Poissons Ratio (y) = 0.51506 0.29306
# Poissons Ratio (z) = 0.05498 0.15156
#
# Static dielectric constant tensor:
#      x y z
#    x 1.689970 0.000000 0.000000 
#    y 0.000000 1.743280 0.000000 
#    z 0.000000 0.000000 1.713550 
# 
# From -- ./inp_files/32515.got.cif
#   From: 2010.05.17/outbox.cif.g08.bks.cpg/sg66_17_cif.got.tgz:32515.got - 2010.06.03 17:51:23.
