data_PCOD9496997
_publ_section_title
;
Structure prediction by ZEFSAII (Michael W. Deem and Ramdas Pophale) SiO2 
 PCOD9496997
Probable space group: C C C M
;
_chemical_formula_sum "Si O2"
_cell_formula_units_Z 104
_cell_length_a 27.758321
_cell_length_b 12.814709
_cell_length_c 14.880359
_cell_angle_alpha 90.000000
_cell_angle_beta 90.000000
_cell_angle_gamma 90.000000
_cell_volume 5293.164014
_symmetry_space_group_name_H-M "C C C M"
_symmetry_group_IT_number 66
_symmetry_cell_setting 'orthorhombic'
loop_
_space_group_symop_operation_xyz
x,y,z
-x,-y,z
x,-y,1/2-z
-x,y,1/2-z
-x,-y,-z
x,y,-z
-x,y,1/2+z
x,-y,1/2+z
1/2+x,1/2+y,z
1/2-x,1/2-y,z
1/2+x,1/2-y,1/2-z
1/2-x,1/2+y,1/2-z
1/2-x,1/2-y,-z
1/2+x,1/2+y,-z
1/2-x,1/2+y,1/2+z
1/2+x,1/2-y,1/2+z
loop_
_atom_site_type_symbol
_atom_site_label
_atom_site_fract_x
_atom_site_fract_y
_atom_site_fract_z
Si Si1 0.697055 0.500000 0.750000
Si Si2 0.553090 0.977762 0.606307
Si Si3 0.243000 0.373354 0.895641
Si Si4 0.368840 0.853451 0.393489
Si Si5 0.114529 0.846319 0.266331
Si Si6 0.531099 0.244770 0.162195
Si Si7 0.038340 0.082924 0.102151
O O1 0.728930 0.547883 0.830501
O O2 0.660925 0.404204 0.772091
O O3 0.552047 0.997206 0.500000
O O4 0.557201 0.854958 0.621014
O O5 0.500000 0.000000 0.643121
O O6 0.593857 0.057342 0.638562
O O7 0.250000 0.250000 0.871844
O O8 0.185867 0.393501 0.890806
O O9 0.258882 0.383938 0.000000
O O10 0.378237 0.824840 0.500000
O O11 0.373080 0.755978 0.326078
O O12 0.074454 0.818624 0.193070
O O13 0.085589 0.916194 0.338176
O O14 0.500000 0.214773 0.250000
O O15 0.490850 0.307039 0.105468
O O16 0.050119 0.057048 0.000000
O O17 0.000000 0.000000 0.137797
#
# Coordination Sequence:
#
# PCOD9496997 Si02
#       7
#     8  16  16  16  16  16  16
#     4  12  24  40  67  98 119 154 206 272 334 376
#     4  10  20  35  56  83 116 153 198 247 296 358
#     4  10  22  44  69  93 125 164 214 271 327 399
#     4  10  21  39  63  89 116 159 211 260 314 384
#     4  11  22  35  56  88 119 151 200 263 312 376
#     4  10  21  34  51  80 123 162 198 248 309 373
#     4  10  20  35  55  78 115 169 214 251 307 382
#
# _framework density 19.647984000000001
#
# number of rings (size 3 to 8) (size 9 to 14) (size 15 to 20)
#    0.000    1.692    1.538    3.692    0.000    7.385 
#    0.000    1.538    0.000    0.462    0.000    0.000 
#    0.000    0.000    0.000    0.000    0.000    0.000 
#
# Total GULP energy -290151.449256 kJ/mol
# GULP energy per Si atom -5579.835563 kJ/mol
# Density = 1.960326 g / cm^3
# Si number density = 19.647984 Si / 1000 Ang^3
#
#
#
# Elastic Constant Matrix: (Units=GPa)
#
#
# Indices 1 2 3 4 5 6 
#
# 1 110.9678 49.6167 38.0297 0.0000 0.0000 0.0000
# 2 49.6167 100.3735 29.3915 0.0000 0.0000 0.0000
# 3 38.0297 29.3915 59.5206 0.0000 0.0000 0.0000
# 4 0.0000 0.0000 0.0000 21.7929 0.0000 0.0000
# 5 0.0000 0.0000 0.0000 0.0000 15.0324 0.0000
# 6 0.0000 0.0000 0.0000 0.0000 0.0000 33.1913
#
#
#
# Elastic Compliance Matrix: (Units=1/GPa)
#
#
# Indices 1 2 3 4 5 6 
#
# 1 0.013229 -0.004751 -0.006106 0.000000 0.000000 0.000000
# 2 -0.004751 0.013353 -0.003558 0.000000 0.000000 0.000000
# 3 -0.006106 -0.003558 0.022459 0.000000 0.000000 0.000000
# 4 0.000000 0.000000 0.000000 0.045886 0.000000 0.000000
# 5 0.000000 0.000000 0.000000 0.000000 0.066523 0.000000
# 6 0.000000 0.000000 0.000000 0.000000 0.000000 0.030128
#
#
# Mechanical properties :
#
#
# Convention : Reuss Voigt Hill
#
# Bulk Modulus (GPa) = 49.47964 56.10418 52.79191
# Shear Modulus (GPa) = 22.01220 24.25827 23.13523
#
# Velocity S-wave (km/s) = 3.35076 3.51756 3.43517
# Velocity P-wave (km/s) = 6.34097 6.71672 6.53155
#
# Compressibility (1/GPa) = 0.02021033
#
# Stress axis : x y z
#
# Youngs Moduli (GPa) = 75.59376 74.88764 44.52497
#
# Poissons Ratio (x) = 0.35581 0.27187
# Poissons Ratio (y) = 0.35916 0.15843
# Poissons Ratio (z) = 0.46158 0.26647
#
# Static dielectric constant tensor:
#      x y z
#    x 1.689810 0.000000 0.000000 
#    y 0.000000 1.773520 0.000000 
#    z 0.000000 0.000000 1.711340 
# 
# From -- ./inp_files/44322.got.cif
#   From: 2010.05.17/outbox.cif.g08.bks.cpg/sg66_23_cif.got.tgz:44322.got - 2010.06.03 17:51:23.
