data_PCOD9496452
_publ_section_title
;
Structure prediction by ZEFSAII (Michael W. Deem and Ramdas Pophale) SiO2 
 PCOD9496452
Probable space group: C C C M
;
_chemical_formula_sum "Si O2"
_cell_formula_units_Z 52
_cell_length_a 8.125521
_cell_length_b 14.100062
_cell_length_c 19.103933
_cell_angle_alpha 90.000000
_cell_angle_beta 90.000000
_cell_angle_gamma 90.000000
_cell_volume 2188.744288
_symmetry_space_group_name_H-M "C C C M"
_symmetry_group_IT_number 66
_symmetry_cell_setting 'orthorhombic'
loop_
_space_group_symop_operation_xyz
x,y,z
-x,-y,z
x,-y,1/2-z
-x,y,1/2-z
-x,-y,-z
x,y,-z
-x,y,1/2+z
x,-y,1/2+z
1/2+x,1/2+y,z
1/2-x,1/2-y,z
1/2+x,1/2-y,1/2-z
1/2-x,1/2+y,1/2-z
1/2-x,1/2-y,-z
1/2+x,1/2+y,-z
1/2-x,1/2+y,1/2+z
1/2+x,1/2-y,1/2+z
loop_
_atom_site_type_symbol
_atom_site_label
_atom_site_fract_x
_atom_site_fract_y
_atom_site_fract_z
Si Si1 0.000000 0.000000 0.750000
Si Si2 0.161566 0.108042 0.868424
Si Si3 0.666245 0.064567 0.922914
Si Si4 0.998148 0.286418 0.835161
O O1 0.882601 0.064639 0.705504
O O2 0.019539 0.186980 0.877250
O O3 0.334325 0.160793 0.858730
O O4 0.191474 0.014582 0.914608
O O5 0.645538 0.144454 0.863105
O O6 0.500000 0.000000 0.919920
O O7 0.673674 0.108750 0.000000
O O8 0.000000 0.275737 0.750000
#
# Coordination Sequence:
#
# PCOD9496452 Si02
#       4
#     4  16  16  16
#     4  12  20  36  52  84 114 148 188 256 308 356
#     4  10  21  33  56  83 114 153 195 248 308 364
#     4   9  19  36  58  85 118 158 200 247 304 368
#     4  10  19  36  57  86 115 149 203 260 301 353
#
# _framework density 23.757915000000001
#
# number of rings (size 3 to 8) (size 9 to 14) (size 15 to 20)
#    0.000    2.154    1.538    1.846    0.000    5.538 
#    0.000    6.923    0.000    1.846    0.000    0.000 
#    0.000    0.000    0.000    0.000    0.000    0.000 
#
# Total GULP energy -144906.446357 kJ/mol
# GULP energy per Si atom -5573.324860 kJ/mol
# Density = 2.370384 g / cm^3
# Si number density = 23.757915 Si / 1000 Ang^3
#
#
#
# Elastic Constant Matrix: (Units=GPa)
#
#
# Indices 1 2 3 4 5 6 
#
# 1 87.7689 31.5883 -0.8032 0.0000 0.0000 0.0000
# 2 31.5883 149.7684 46.0408 0.0000 0.0000 0.0000
# 3 -0.8032 46.0408 91.7484 0.0000 0.0000 0.0000
# 4 0.0000 0.0000 0.0000 9.3459 0.0000 0.0000
# 5 0.0000 0.0000 0.0000 0.0000 43.5799 0.0000
# 6 0.0000 0.0000 0.0000 0.0000 0.0000 9.1473
#
#
#
# Elastic Compliance Matrix: (Units=1/GPa)
#
#
# Indices 1 2 3 4 5 6 
#
# 1 0.012550 -0.003170 0.001700 0.000000 0.000000 0.000000
# 2 -0.003170 0.008695 -0.004391 0.000000 0.000000 0.000000
# 3 0.001700 -0.004391 0.013118 0.000000 0.000000 0.000000
# 4 0.000000 0.000000 0.000000 0.106999 0.000000 0.000000
# 5 0.000000 0.000000 0.000000 0.000000 0.022946 0.000000
# 6 0.000000 0.000000 0.000000 0.000000 0.000000 0.109322
#
#
# Mechanical properties :
#
#
# Convention : Reuss Voigt Hill
#
# Bulk Modulus (GPa) = 44.16528 53.65973 48.91250
# Shear Modulus (GPa) = 17.07074 29.24528 23.15801
#
# Velocity S-wave (km/s) = 2.68345 3.51232 3.12548
# Velocity P-wave (km/s) = 5.31331 6.25169 5.80150
#
# Compressibility (1/GPa) = 0.02264222
#
# Stress axis : x y z
#
# Youngs Moduli (GPa) = 79.68194 115.00287 76.23200
#
# Poissons Ratio (x) = 0.36452 -0.12963
# Poissons Ratio (y) = 0.25257 0.33475
# Poissons Ratio (z) = -0.13550 0.50501
#
# Static dielectric constant tensor:
#      x y z
#    x 2.086070 0.000000 0.000000 
#    y 0.000000 2.032600 0.000000 
#    z 0.000000 0.000000 1.905260 
# 
# From -- ./inp_files/35980.got.cif
#   From: 2010.05.17/outbox.cif.g08.bks.cpg/sg66_18_cif.got.tgz:35980.got - 2010.06.03 17:51:23.
