data_PCOD9496507
_publ_section_title
;
Structure prediction by ZEFSAII (Michael W. Deem and Ramdas Pophale) SiO2 
 PCOD9496507
Probable space group: C C C M
;
_chemical_formula_sum "Si O2"
_cell_formula_units_Z 88
_cell_length_a 11.359629
_cell_length_b 11.514901
_cell_length_c 28.451181
_cell_angle_alpha 90.000000
_cell_angle_beta 90.000000
_cell_angle_gamma 90.000000
_cell_volume 3721.556825
_symmetry_space_group_name_H-M "C C C M"
_symmetry_group_IT_number 66
_symmetry_cell_setting 'orthorhombic'
loop_
_space_group_symop_operation_xyz
x,y,z
-x,-y,z
x,-y,1/2-z
-x,y,1/2-z
-x,-y,-z
x,y,-z
-x,y,1/2+z
x,-y,1/2+z
1/2+x,1/2+y,z
1/2-x,1/2-y,z
1/2+x,1/2-y,1/2-z
1/2-x,1/2+y,1/2-z
1/2-x,1/2-y,-z
1/2+x,1/2+y,-z
1/2-x,1/2+y,1/2+z
1/2+x,1/2-y,1/2+z
loop_
_atom_site_type_symbol
_atom_site_label
_atom_site_fract_x
_atom_site_fract_y
_atom_site_fract_z
Si Si1 0.109653 0.902442 0.710303
Si Si2 0.802873 0.041691 0.447966
Si Si3 0.304406 0.880767 0.358161
Si Si4 0.457883 0.689829 0.053197
Si Si5 0.543455 0.221782 0.155907
Si Si6 0.250000 0.250000 0.280616
O O1 0.211442 0.942998 0.675328
O O2 0.158477 0.801150 0.743100
O O3 0.006051 0.845956 0.678046
O O4 0.100683 0.000000 0.750000
O O5 0.754015 0.056842 0.500000
O O6 0.706164 0.062680 0.408823
O O7 0.911291 0.133154 0.442320
O O8 0.865743 0.916921 0.444575
O O9 0.250000 0.750000 0.361911
O O10 0.434561 0.865861 0.338743
O O11 0.437788 0.763911 0.100048
O O12 0.448438 0.740156 0.000000
O O13 0.660322 0.186864 0.183574
#
# Coordination Sequence:
#
# PCOD9496507 Si02
#       6
#    16  16  16  16  16   8
#     4  11  24  42  65  91 119 164 210 260 316 373
#     4   9  17  30  54  92 128 152 194 265 320 361
#     4  10  19  37  55  88 123 154 201 260 304 373
#     4   9  18  33  58  93 127 158 202 260 317 374
#     4  11  23  42  63  88 129 164 209 263 309 381
#     4  12  26  42  59  92 129 166 214 268 308 362
#
# _framework density 23.646018000000002
#
# number of rings (size 3 to 8) (size 9 to 14) (size 15 to 20)
#    0.000    1.818    6.364    1.636    2.545    2.545 
#    0.000    2.273    0.000    0.000    0.000    2.545 
#    0.000    0.000    0.000    0.000    0.000    0.000 
#
# Total GULP energy -245491.016200 kJ/mol
# GULP energy per Si atom -5579.341277 kJ/mol
# Density = 2.359220 g / cm^3
# Si number density = 23.646018 Si / 1000 Ang^3
#
#
#
# Elastic Constant Matrix: (Units=GPa)
#
#
# Indices 1 2 3 4 5 6 
#
# 1 84.9647 2.7033 43.7378 0.0000 0.0000 0.0000
# 2 2.7033 22.8770 22.4497 0.0000 0.0000 0.0000
# 3 43.7378 22.4497 175.7894 0.0000 0.0000 0.0000
# 4 0.0000 0.0000 0.0000 -108.3054 0.0000 0.0000
# 5 0.0000 0.0000 0.0000 0.0000 20.5482 0.0000
# 6 0.0000 0.0000 0.0000 0.0000 0.0000 12.4172
#
#
#
# Elastic Compliance Matrix: (Units=1/GPa)
#
#
# Indices 1 2 3 4 5 6 
#
# 1 0.013575 0.001955 -0.003627 0.000000 0.000000 0.000000
# 2 0.001955 0.050257 -0.006905 0.000000 0.000000 0.000000
# 3 -0.003627 -0.006905 0.007473 0.000000 0.000000 0.000000
# 4 0.000000 0.000000 0.000000 -0.009233 0.000000 0.000000
# 5 0.000000 0.000000 0.000000 0.000000 0.048666 0.000000
# 6 0.000000 0.000000 0.000000 0.000000 0.000000 0.080533
#
#
# Mechanical properties :
#
#
# Convention : Reuss Voigt Hill
#
# Bulk Modulus (GPa) = 18.46687 46.82367 32.64527
# Shear Modulus (GPa) = 22.07763 -0.75198 10.66282
#
# Velocity S-wave (km/s) = 3.05892 -0.56454 2.12583
# Velocity P-wave (km/s) = 4.50585 4.40681 4.45660
#
# Compressibility (1/GPa) = 0.05415103
#
# Stress axis : x y z
#
# Youngs Moduli (GPa) = 73.66718 19.89788 133.81719
#
# Poissons Ratio (x) = -0.03891 0.48538
# Poissons Ratio (y) = -0.14404 0.92397
# Poissons Ratio (z) = 0.26720 0.13739
#
# Static dielectric constant tensor:
#      x y z
#    x 15.349390 0.000000 0.000000 
#    y 0.000000 1.553040 0.000000 
#    z 0.000000 0.000000 1.947190 
# 
# From -- ./inp_files/68854.got.cif
#   From: 2010.05.17/outbox.cif.g08.bks.cpg/sg66_35_cif.got.tgz:68854.got - 2010.06.03 17:51:23.
