data_PCOD9496745
_publ_section_title
;
Structure prediction by ZEFSAII (Michael W. Deem and Ramdas Pophale) SiO2 
 PCOD9496745
Probable space group: C C C M
;
_chemical_formula_sum "Si O2"
_cell_formula_units_Z 120
_cell_length_a 24.757235
_cell_length_b 9.243130
_cell_length_c 29.066170
_cell_angle_alpha 90.000000
_cell_angle_beta 90.000000
_cell_angle_gamma 90.000000
_cell_volume 6651.337873
_symmetry_space_group_name_H-M "C C C M"
_symmetry_group_IT_number 66
_symmetry_cell_setting 'orthorhombic'
loop_
_space_group_symop_operation_xyz
x,y,z
-x,-y,z
x,-y,1/2-z
-x,y,1/2-z
-x,-y,-z
x,y,-z
-x,y,1/2+z
x,-y,1/2+z
1/2+x,1/2+y,z
1/2-x,1/2-y,z
1/2+x,1/2-y,1/2-z
1/2-x,1/2+y,1/2-z
1/2-x,1/2-y,-z
1/2+x,1/2+y,-z
1/2-x,1/2+y,1/2+z
1/2+x,1/2-y,1/2+z
loop_
_atom_site_type_symbol
_atom_site_label
_atom_site_fract_x
_atom_site_fract_y
_atom_site_fract_z
Si Si1 0.501278 0.243088 0.698915
Si Si2 0.637287 0.244703 0.945148
Si Si3 0.411625 0.991712 0.700028
Si Si4 0.339747 0.978243 0.614410
Si Si5 0.250000 0.250000 0.886291
Si Si6 0.521192 0.339134 0.902255
Si Si7 0.418886 0.781998 0.446621
Si Si8 0.672260 0.562456 0.948543
O O1 0.500000 0.313595 0.750000
O O2 0.458413 0.111969 0.701976
O O3 0.484425 0.329302 0.653309
O O4 0.559160 0.163455 0.692235
O O5 0.579359 0.285817 0.921275
O O6 0.670869 0.392571 0.941643
O O7 0.668650 0.117773 0.918121
O O8 0.629559 0.212990 0.000000
O O9 0.384761 0.000000 0.750000
O O10 0.372016 0.026884 0.659134
O O11 0.291542 0.873284 0.632225
O O12 0.380538 0.885176 0.582691
O O13 0.289854 0.350934 0.915095
O O14 0.500000 0.500000 0.915876
O O15 0.477140 0.230779 0.924009
O O16 0.422044 0.825705 0.500000
O O17 0.388170 0.627190 0.444841
O O18 0.691166 0.595295 0.000000
#
# Coordination Sequence:
#
# PCOD9496745 Si02
#       8
#    16  16  16  16   8  16  16  16
#     4   9  18  33  53  83 113 144 184 224 266 327
#     4  11  23  35  53  83 117 149 188 227 272 334
#     4   9  17  33  59  82 107 141 181 222 273 332
#     4  11  21  38  57  83 108 143 188 236 282 325
#     4  10  23  38  62  78 100 140 190 244 291 332
#     4  12  21  32  53  80 118 159 184 218 272 331
#     4  10  20  33  51  77 115 156 189 218 260 329
#     4   9  19  37  55  76 105 145 192 233 275 322
#
# _framework density 18.041482999999999
#
# number of rings (size 3 to 8) (size 9 to 14) (size 15 to 20)
#    0.000    1.867    4.000    1.800    0.000    3.467 
#    0.000    2.667    0.000    1.600    0.000    0.000 
#    0.000    0.000    0.000    0.000    0.000    0.000 
#
# Total GULP energy -334015.202266 kJ/mol
# GULP energy per Si atom -5566.920038 kJ/mol
# Density = 1.800042 g / cm^3
# Si number density = 18.041483 Si / 1000 Ang^3
#
#
#
# Elastic Constant Matrix: (Units=GPa)
#
#
# Indices 1 2 3 4 5 6 
#
# 1 38.9699 -6.1038 16.6672 0.0000 0.0000 0.0000
# 2 -6.1038 49.2265 12.6610 0.0000 0.0000 0.0000
# 3 16.6672 12.6610 103.4039 0.0000 0.0000 0.0000
# 4 0.0000 0.0000 0.0000 18.5948 0.0000 0.0000
# 5 0.0000 0.0000 0.0000 0.0000 5.8608 0.0000
# 6 0.0000 0.0000 0.0000 0.0000 0.0000 14.1830
#
#
#
# Elastic Compliance Matrix: (Units=1/GPa)
#
#
# Indices 1 2 3 4 5 6 
#
# 1 0.028660 0.004896 -0.005219 0.000000 0.000000 0.000000
# 2 0.004896 0.021811 -0.003460 0.000000 0.000000 0.000000
# 3 -0.005219 -0.003460 0.010936 0.000000 0.000000 0.000000
# 4 0.000000 0.000000 0.000000 0.053778 0.000000 0.000000
# 5 0.000000 0.000000 0.000000 0.000000 0.170625 0.000000
# 6 0.000000 0.000000 0.000000 0.000000 0.000000 0.070507
#
#
# Mechanical properties :
#
#
# Convention : Reuss Voigt Hill
#
# Bulk Modulus (GPa) = 18.57319 26.44990 22.51155
# Shear Modulus (GPa) = 13.09483 18.95278 16.02381
#
# Velocity S-wave (km/s) = 2.69702 3.24468 2.98344
# Velocity P-wave (km/s) = 4.47388 5.36001 4.93687
#
# Compressibility (1/GPa) = 0.05384104
#
# Stress axis : x y z
#
# Youngs Moduli (GPa) = 34.89206 45.84807 91.44398
#
# Poissons Ratio (x) = -0.22447 0.47725
# Poissons Ratio (y) = -0.17083 0.31637
# Poissons Ratio (z) = 0.18210 0.15862
#
# Static dielectric constant tensor:
#      x y z
#    x 1.630600 0.000000 0.000000 
#    y 0.000000 1.667350 0.000000 
#    z 0.000000 0.000000 1.626400 
# 
# From -- ./inp_files/66331.got.cif
#   From: 2010.05.17/outbox.cif.g08.bks.cpg/sg66_34_cif.got.tgz:66331.got - 2010.06.03 17:51:23.
