data_PCOD9496253
_publ_section_title
;
Structure prediction by ZEFSAII (Michael W. Deem and Ramdas Pophale) SiO2 
 PCOD9496253
Probable space group: C C C M
;
_chemical_formula_sum "Si O2"
_cell_formula_units_Z 96
_cell_length_a 27.634620
_cell_length_b 8.756848
_cell_length_c 18.708499
_cell_angle_alpha 90.000000
_cell_angle_beta 90.000000
_cell_angle_gamma 90.000000
_cell_volume 4527.310212
_symmetry_space_group_name_H-M "C C C M"
_symmetry_group_IT_number 66
_symmetry_cell_setting 'orthorhombic'
loop_
_space_group_symop_operation_xyz
x,y,z
-x,-y,z
x,-y,1/2-z
-x,y,1/2-z
-x,-y,-z
x,y,-z
-x,y,1/2+z
x,-y,1/2+z
1/2+x,1/2+y,z
1/2-x,1/2-y,z
1/2+x,1/2-y,1/2-z
1/2-x,1/2+y,1/2-z
1/2-x,1/2-y,-z
1/2+x,1/2+y,-z
1/2-x,1/2+y,1/2+z
1/2+x,1/2-y,1/2+z
loop_
_atom_site_type_symbol
_atom_site_label
_atom_site_fract_x
_atom_site_fract_y
_atom_site_fract_z
Si Si1 0.347060 0.982533 0.083941
Si Si2 0.972926 0.155184 0.086075
Si Si3 0.140093 0.858813 0.914281
Si Si4 0.798550 0.654473 0.204984
Si Si5 0.874726 0.104062 0.687419
Si Si6 0.564073 0.180381 0.585687
O O1 0.337319 0.806063 0.100715
O O2 0.312848 0.096406 0.126168
O O3 0.403270 0.030657 0.099282
O O4 0.340744 0.001374 0.000000
O O5 0.916941 0.157822 0.106124
O O6 0.007339 0.299861 0.103462
O O7 0.971567 0.148499 0.000000
O O8 0.000000 0.000000 0.110418
O O9 0.157693 0.996009 0.864358
O O10 0.143679 0.889280 0.000000
O O11 0.796767 0.500000 0.250000
O O12 0.750000 0.750000 0.208863
O O13 0.842258 0.767593 0.225193
O O14 0.910307 0.190348 0.633400
O O15 0.896664 0.000000 0.750000
O O16 0.568511 0.211812 0.500000
#
# Coordination Sequence:
#
# PCOD9496253 Si02
#       6
#    16  16  16  16  16  16
#     4   9  20  36  57  87 120 151 186 233 289 340
#     4   9  15  26  49  79 111 152 203 240 264 314
#     4  10  19  34  56  83 118 156 191 232 278 329
#     4  11  24  43  65  85 109 141 184 232 285 354
#     4  11  21  34  56  82 109 144 185 233 289 340
#     4   9  17  32  51  76 113 155 197 237 277 324
#
# _framework density 21.204643000000001
#
# number of rings (size 3 to 8) (size 9 to 14) (size 15 to 20)
#    0.000    2.167    1.667    2.000    0.000    1.667 
#    0.000    5.000    0.000    2.500    0.000    3.500 
#    0.000    0.000    0.000    0.000    0.000    0.000 
#
# Total GULP energy -267614.255613 kJ/mol
# GULP energy per Si atom -5575.296992 kJ/mol
# Density = 2.115638 g / cm^3
# Si number density = 21.204643 Si / 1000 Ang^3
#
#
#
# Elastic Constant Matrix: (Units=GPa)
#
#
# Indices 1 2 3 4 5 6 
#
# 1 41.4797 13.2770 -3.8755 0.0000 0.0000 0.0000
# 2 13.2770 93.6039 33.3537 0.0000 0.0000 0.0000
# 3 -3.8755 33.3537 51.0842 0.0000 0.0000 0.0000
# 4 0.0000 0.0000 0.0000 32.6165 0.0000 0.0000
# 5 0.0000 0.0000 0.0000 0.0000 8.5127 0.0000
# 6 0.0000 0.0000 0.0000 0.0000 0.0000 29.4307
#
#
#
# Elastic Compliance Matrix: (Units=1/GPa)
#
#
# Indices 1 2 3 4 5 6 
#
# 1 0.026520 -0.005837 0.005823 0.000000 0.000000 0.000000
# 2 -0.005837 0.015207 -0.010372 0.000000 0.000000 0.000000
# 3 0.005823 -0.010372 0.026789 0.000000 0.000000 0.000000
# 4 0.000000 0.000000 0.000000 0.030659 0.000000 0.000000
# 5 0.000000 0.000000 0.000000 0.000000 0.117471 0.000000
# 6 0.000000 0.000000 0.000000 0.000000 0.000000 0.033978
#
#
# Mechanical properties :
#
#
# Convention : Reuss Voigt Hill
#
# Bulk Modulus (GPa) = 20.94436 30.18646 25.56541
# Shear Modulus (GPa) = 17.40277 23.67284 20.53780
#
# Velocity S-wave (km/s) = 2.86790 3.34488 3.11553
# Velocity P-wave (km/s) = 4.56784 5.40225 5.00247
#
# Compressibility (1/GPa) = 0.04774556
#
# Stress axis : x y z
#
# Youngs Moduli (GPa) = 37.70680 65.75973 37.32871
#
# Poissons Ratio (x) = 0.38381 -0.21736
# Poissons Ratio (y) = 0.22008 0.38716
# Poissons Ratio (z) = -0.21956 0.68203
#
# Static dielectric constant tensor:
#      x y z
#    x 1.791590 0.000000 0.000000 
#    y 0.000000 1.824670 0.000000 
#    z 0.000000 0.000000 1.766470 
# 
# From -- ./inp_files/52964.got.cif
#   From: 2010.05.17/outbox.cif.g08.bks.cpg/sg66_27_cif.got.tgz:52964.got - 2010.06.03 17:51:23.
