data_PCOD9496501
_publ_section_title
;
Structure prediction by ZEFSAII (Michael W. Deem and Ramdas Pophale) SiO2 
 PCOD9496501
Probable space group: C C C M
;
_chemical_formula_sum "Si O2"
_cell_formula_units_Z 88
_cell_length_a 9.395905
_cell_length_b 25.716930
_cell_length_c 17.713475
_cell_angle_alpha 90.000000
_cell_angle_beta 90.000000
_cell_angle_gamma 90.000000
_cell_volume 4280.174828
_symmetry_space_group_name_H-M "C C C M"
_symmetry_group_IT_number 66
_symmetry_cell_setting 'orthorhombic'
loop_
_space_group_symop_operation_xyz
x,y,z
-x,-y,z
x,-y,1/2-z
-x,y,1/2-z
-x,-y,-z
x,y,-z
-x,y,1/2+z
x,-y,1/2+z
1/2+x,1/2+y,z
1/2-x,1/2-y,z
1/2+x,1/2-y,1/2-z
1/2-x,1/2+y,1/2-z
1/2-x,1/2-y,-z
1/2+x,1/2+y,-z
1/2-x,1/2+y,1/2+z
1/2+x,1/2-y,1/2+z
loop_
_atom_site_type_symbol
_atom_site_label
_atom_site_fract_x
_atom_site_fract_y
_atom_site_fract_z
Si Si1 0.150176 0.293226 0.414148
Si Si2 0.000000 0.500000 0.629658
Si Si3 0.880652 0.221199 0.413457
Si Si4 0.706310 0.907650 0.629804
Si Si5 0.231924 0.050709 0.790186
Si Si6 0.531977 0.394605 0.588338
O O1 0.207379 0.300517 0.500000
O O2 0.250000 0.250000 0.375400
O O3 0.143188 0.350706 0.382880
O O4 0.000860 0.264676 0.416481
O O5 0.103263 0.453611 0.597778
O O6 0.118012 0.532566 0.675010
O O7 0.835424 0.209044 0.500000
O O8 0.750000 0.250000 0.373050
O O9 0.942992 0.165904 0.387756
O O10 0.730460 0.913273 0.719577
O O11 0.865638 0.908870 0.595824
O O12 0.130032 0.072803 0.854567
O O13 0.166527 0.000000 0.750000
O O14 0.571861 0.401807 0.500000
#
# Coordination Sequence:
#
# PCOD9496501 Si02
#       6
#    16   8  16  16  16  16
#     4  10  19  36  63  93 132 175 211 262 326 390
#     4  10  25  46  67  90 127 178 219 268 333 394
#     4   9  19  36  59  92 130 170 211 259 326 386
#     4  11  21  40  68  95 128 174 223 265 329 394
#     4  10  23  46  68  89 127 174 215 270 334 385
#     4  11  23  41  68  99 130 171 221 270 326 401
#
# _framework density 20.559906999999999
#
# number of rings (size 3 to 8) (size 9 to 14) (size 15 to 20)
#    0.000    1.818    1.818    3.545    2.545    5.091 
#    0.000   15.000    0.000    0.000    0.000    0.000 
#    0.000    0.000    0.000    0.000    0.000    0.000 
#
# Total GULP energy -245071.312235 kJ/mol
# GULP energy per Si atom -5569.802551 kJ/mol
# Density = 2.051311 g / cm^3
# Si number density = 20.559907 Si / 1000 Ang^3
#
#
#
# Elastic Constant Matrix: (Units=GPa)
#
#
# Indices 1 2 3 4 5 6 
#
# 1 122.6703 67.6277 25.2698 0.0000 0.0000 0.0000
# 2 67.6277 173.9155 65.0096 0.0000 0.0000 0.0000
# 3 25.2698 65.0096 68.3529 0.0000 0.0000 0.0000
# 4 0.0000 0.0000 0.0000 13.3123 0.0000 0.0000
# 5 0.0000 0.0000 0.0000 0.0000 -20.6064 0.0000
# 6 0.0000 0.0000 0.0000 0.0000 0.0000 19.1270
#
#
#
# Elastic Compliance Matrix: (Units=1/GPa)
#
#
# Indices 1 2 3 4 5 6 
#
# 1 0.010376 -0.004036 0.000002 0.000000 0.000000 0.000000
# 2 -0.004036 0.010491 -0.008486 0.000000 0.000000 0.000000
# 3 0.000002 -0.008486 0.022700 0.000000 0.000000 0.000000
# 4 0.000000 0.000000 0.000000 0.075119 0.000000 0.000000
# 5 0.000000 0.000000 0.000000 0.000000 -0.048529 0.000000
# 6 0.000000 0.000000 0.000000 0.000000 0.000000 0.052282
#
#
# Mechanical properties :
#
#
# Convention : Reuss Voigt Hill
#
# Bulk Modulus (GPa) = 53.97071 75.63922 64.80497
# Shear Modulus (GPa) = 32.54026 16.16868 24.35447
#
# Velocity S-wave (km/s) = 3.98264 2.80736 3.44548
# Velocity P-wave (km/s) = 6.88883 6.88316 6.88600
#
# Compressibility (1/GPa) = 0.01852857
#
# Stress axis : x y z
#
# Youngs Moduli (GPa) = 96.37305 95.31642 44.05227
#
# Poissons Ratio (x) = 0.38467 -0.00010
# Poissons Ratio (y) = 0.38893 0.37384
# Poissons Ratio (z) = -0.00021 0.80888
#
# Static dielectric constant tensor:
#      x y z
#    x 1.782040 0.000000 0.000000 
#    y 0.000000 1.777900 0.000000 
#    z 0.000000 0.000000 1.767360 
# 
# From -- ./inp_files/47153.got.cif
#   From: 2010.05.17/outbox.cif.g08.bks.cpg/sg66_24_cif.got.tgz:47153.got - 2010.06.03 17:51:23.
