data_PCOD9496135
_publ_section_title
;
Structure prediction by ZEFSAII (Michael W. Deem and Ramdas Pophale) SiO2 
 PCOD9496135
Probable space group: C C C M
;
_chemical_formula_sum "Si O2"
_cell_formula_units_Z 96
_cell_length_a 10.884905
_cell_length_b 18.900484
_cell_length_c 22.166728
_cell_angle_alpha 90.000000
_cell_angle_beta 90.000000
_cell_angle_gamma 90.000000
_cell_volume 4560.360348
_symmetry_space_group_name_H-M "C C C M"
_symmetry_group_IT_number 66
_symmetry_cell_setting 'orthorhombic'
loop_
_space_group_symop_operation_xyz
x,y,z
-x,-y,z
x,-y,1/2-z
-x,y,1/2-z
-x,-y,-z
x,y,-z
-x,y,1/2+z
x,-y,1/2+z
1/2+x,1/2+y,z
1/2-x,1/2-y,z
1/2+x,1/2-y,1/2-z
1/2-x,1/2+y,1/2-z
1/2-x,1/2-y,-z
1/2+x,1/2+y,-z
1/2-x,1/2+y,1/2+z
1/2+x,1/2-y,1/2+z
loop_
_atom_site_type_symbol
_atom_site_label
_atom_site_fract_x
_atom_site_fract_y
_atom_site_fract_z
Si Si1 0.065348 0.149896 0.340425
Si Si2 0.975294 0.310046 0.664329
Si Si3 0.793134 0.331256 0.568423
Si Si4 0.173781 0.064803 0.161798
Si Si5 0.192261 0.634726 0.237639
Si Si6 0.626000 0.454450 0.067338
O O1 0.016521 0.229331 0.339504
O O2 0.184962 0.152350 0.298375
O O3 0.098929 0.123708 0.407936
O O4 0.962946 0.091526 0.319685
O O5 0.079950 0.362373 0.690300
O O6 0.925121 0.334697 0.600136
O O7 0.862203 0.311593 0.711917
O O8 0.790905 0.356551 0.500000
O O9 0.750000 0.250000 0.569828
O O10 0.706554 0.377689 0.610509
O O11 0.265574 0.071445 0.217965
O O12 0.188526 0.992056 0.125217
O O13 0.500000 0.500000 0.063369
O O14 0.680902 0.455882 0.000000
#
# Coordination Sequence:
#
# PCOD9496135 Si02
#       6
#    16  16  16  16  16  16
#     4  11  21  33  56  89 118 153 194 238 306 364
#     4  10  22  35  54  86 115 157 194 239 307 350
#     4  10  19  33  56  84 114 151 201 253 290 345
#     4  10  20  35  58  88 114 153 199 241 301 359
#     4  10  23  34  57  80 123 159 190 248 297 355
#     4   9  20  38  58  83 119 158 197 248 298 351
#
# _framework density 21.050968000000001
#
# number of rings (size 3 to 8) (size 9 to 14) (size 15 to 20)
#    0.000    2.000    1.667    1.500    7.000    2.000 
#    0.000    3.333    0.000   19.000    0.000   11.667 
#    0.000    0.000    0.000    0.000    0.000    0.000 
#
# Total GULP energy -267494.929334 kJ/mol
# GULP energy per Si atom -5572.811028 kJ/mol
# Density = 2.100306 g / cm^3
# Si number density = 21.050968 Si / 1000 Ang^3
#
#
#
# Elastic Constant Matrix: (Units=GPa)
#
#
# Indices 1 2 3 4 5 6 
#
# 1 91.5475 34.2167 63.3941 0.0000 0.0000 0.0000
# 2 34.2167 58.8518 32.8634 0.0000 0.0000 0.0000
# 3 63.3941 32.8634 115.6400 0.0000 0.0000 0.0000
# 4 0.0000 0.0000 0.0000 21.7604 0.0000 0.0000
# 5 0.0000 0.0000 0.0000 0.0000 15.6097 0.0000
# 6 0.0000 0.0000 0.0000 0.0000 0.0000 11.8335
#
#
#
# Elastic Compliance Matrix: (Units=1/GPa)
#
#
# Indices 1 2 3 4 5 6 
#
# 1 0.019420 -0.006354 -0.008840 0.000000 0.000000 0.000000
# 2 -0.006354 0.022276 -0.002847 0.000000 0.000000 0.000000
# 3 -0.008840 -0.002847 0.014303 0.000000 0.000000 0.000000
# 4 0.000000 0.000000 0.000000 0.045955 0.000000 0.000000
# 5 0.000000 0.000000 0.000000 0.000000 0.064063 0.000000
# 6 0.000000 0.000000 0.000000 0.000000 0.000000 0.084506
#
#
# Mechanical properties :
#
#
# Convention : Reuss Voigt Hill
#
# Bulk Modulus (GPa) = 50.21205 58.55418 54.38312
# Shear Modulus (GPa) = 17.05063 18.87839 17.96451
#
# Velocity S-wave (km/s) = 2.84908 2.99790 2.92444
# Velocity P-wave (km/s) = 5.89300 6.31340 6.10682
#
# Compressibility (1/GPa) = 0.01991554
#
# Stress axis : x y z
#
# Youngs Moduli (GPa) = 51.49367 44.89108 69.91610
#
# Poissons Ratio (x) = 0.28525 0.61807
# Poissons Ratio (y) = 0.32721 0.19906
# Poissons Ratio (z) = 0.45521 0.12781
#
# Static dielectric constant tensor:
#      x y z
#    x 2.068050 0.000000 0.000000 
#    y 0.000000 1.801050 0.000000 
#    z 0.000000 0.000000 1.782570 
# 
# From -- ./inp_files/57095.got.cif
#   From: 2010.05.17/outbox.cif.g08.bks.cpg/sg66_29_cif.got.tgz:57095.got - 2010.06.03 17:51:23.
