data_PCOD9496241
_publ_section_title
;
Structure prediction by ZEFSAII (Michael W. Deem and Ramdas Pophale) SiO2 
 PCOD9496241
Probable space group: C C C M
;
_chemical_formula_sum "Si O2"
_cell_formula_units_Z 64
_cell_length_a 5.249181
_cell_length_b 26.560414
_cell_length_c 25.063713
_cell_angle_alpha 90.000000
_cell_angle_beta 90.000000
_cell_angle_gamma 90.000000
_cell_volume 3494.393406
_symmetry_space_group_name_H-M "C C C M"
_symmetry_group_IT_number 66
_symmetry_cell_setting 'orthorhombic'
loop_
_space_group_symop_operation_xyz
x,y,z
-x,-y,z
x,-y,1/2-z
-x,y,1/2-z
-x,-y,-z
x,y,-z
-x,y,1/2+z
x,-y,1/2+z
1/2+x,1/2+y,z
1/2-x,1/2-y,z
1/2+x,1/2-y,1/2-z
1/2-x,1/2+y,1/2-z
1/2-x,1/2-y,-z
1/2+x,1/2+y,-z
1/2-x,1/2+y,1/2+z
1/2+x,1/2-y,1/2+z
loop_
_atom_site_type_symbol
_atom_site_label
_atom_site_fract_x
_atom_site_fract_y
_atom_site_fract_z
Si Si1 0.002193 0.780080 0.064920
Si Si2 0.382731 0.945651 0.898010
Si Si3 0.253334 0.942966 0.226247
Si Si4 0.885076 0.106713 0.562787
O O1 0.250000 0.750000 0.083765
O O2 0.750000 0.750000 0.080462
O O3 0.979518 0.838205 0.081102
O O4 0.012718 0.780590 0.000000
O O5 0.286358 0.946477 0.836821
O O6 0.626203 0.909465 0.907287
O O7 0.128596 0.929827 0.929658
O O8 0.500000 0.000000 0.912209
O O9 0.500000 0.916715 0.250000
O O10 0.000000 0.919056 0.250000
O O11 0.251955 0.000000 0.250000
O O12 0.819845 0.108862 0.500000
#
# Coordination Sequence:
#
# PCOD9496241 Si02
#       4
#    16  16  16  16
#     4   9  17  33  56  76 100 141 189 240 283 303
#     4  12  23  36  55  79 114 159 188 224 273 330
#     4  10  19  34  56  76  96 137 181 246 282 303
#     4  11  24  37  52  81 119 154 195 226 258 339
#
# _framework density 18.315052999999999
#
# number of rings (size 3 to 8) (size 9 to 14) (size 15 to 20)
#    0.000    1.500    2.500    4.500    3.500    7.000 
#    0.000    0.000    0.000    0.000    0.000    0.000 
#    0.000   56.000    0.000    0.000    0.000    0.000 
#
# Total GULP energy -178429.824492 kJ/mol
# GULP energy per Si atom -5575.932015 kJ/mol
# Density = 1.827337 g / cm^3
# Si number density = 18.315053 Si / 1000 Ang^3
#
#
#
# Elastic Constant Matrix: (Units=GPa)
#
#
# Indices 1 2 3 4 5 6 
#
# 1 168.4177 34.9815 26.7614 0.0000 0.0000 0.0000
# 2 34.9815 67.0064 27.4938 0.0000 0.0000 0.0000
# 3 26.7614 27.4938 53.4703 0.0000 0.0000 0.0000
# 4 0.0000 0.0000 0.0000 -11.0510 0.0000 0.0000
# 5 0.0000 0.0000 0.0000 0.0000 33.5033 0.0000
# 6 0.0000 0.0000 0.0000 0.0000 0.0000 22.9600
#
#
#
# Elastic Compliance Matrix: (Units=1/GPa)
#
#
# Indices 1 2 3 4 5 6 
#
# 1 0.006826 -0.002740 -0.002007 0.000000 0.000000 0.000000
# 2 -0.002740 0.020014 -0.008920 0.000000 0.000000 0.000000
# 3 -0.002007 -0.008920 0.024293 0.000000 0.000000 0.000000
# 4 0.000000 0.000000 0.000000 -0.090489 0.000000 0.000000
# 5 0.000000 0.000000 0.000000 0.000000 0.029848 0.000000
# 6 0.000000 0.000000 0.000000 0.000000 0.000000 0.043554
#
#
# Mechanical properties :
#
#
# Convention : Reuss Voigt Hill
#
# Bulk Modulus (GPa) = 42.01860 51.92974 46.97417
# Shear Modulus (GPa) = 72.13697 22.39297 47.26497
#
# Velocity S-wave (km/s) = 6.28269 3.50044 5.08553
# Velocity P-wave (km/s) = 8.69606 6.68974 7.75803
#
# Compressibility (1/GPa) = 0.02379898
#
# Stress axis : x y z
#
# Youngs Moduli (GPa) = 146.50601 49.96449 41.16384
#
# Poissons Ratio (x) = 0.13689 0.08263
# Poissons Ratio (y) = 0.40139 0.36718
# Poissons Ratio (z) = 0.29410 0.44568
#
# Static dielectric constant tensor:
#      x y z
#    x 1.573290 0.000000 0.000000 
#    y 0.000000 1.647960 0.000000 
#    z 0.000000 0.000000 1.639910 
# 
# From -- ./inp_files/52193.got.cif
#   From: 2010.05.17/outbox.cif.g08.bks.cpg/sg66_27_cif.got.tgz:52193.got - 2010.06.03 17:51:23.
