data_PCOD9496895
_publ_section_title
;
Structure prediction by ZEFSAII (Michael W. Deem and Ramdas Pophale) SiO2 
 PCOD9496895
Probable space group: C C C M
;
_chemical_formula_sum "Si O2"
_cell_formula_units_Z 112
_cell_length_a 27.019319
_cell_length_b 15.317881
_cell_length_c 14.805232
_cell_angle_alpha 90.000000
_cell_angle_beta 90.000000
_cell_angle_gamma 90.000000
_cell_volume 6127.570368
_symmetry_space_group_name_H-M "C C C M"
_symmetry_group_IT_number 66
_symmetry_cell_setting 'orthorhombic'
loop_
_space_group_symop_operation_xyz
x,y,z
-x,-y,z
x,-y,1/2-z
-x,y,1/2-z
-x,-y,-z
x,y,-z
-x,y,1/2+z
x,-y,1/2+z
1/2+x,1/2+y,z
1/2-x,1/2-y,z
1/2+x,1/2-y,1/2-z
1/2-x,1/2+y,1/2-z
1/2-x,1/2-y,-z
1/2+x,1/2+y,-z
1/2-x,1/2+y,1/2+z
1/2+x,1/2-y,1/2+z
loop_
_atom_site_type_symbol
_atom_site_label
_atom_site_fract_x
_atom_site_fract_y
_atom_site_fract_z
Si Si1 0.883553 0.032074 0.849663
Si Si2 0.871019 0.308947 0.893420
Si Si3 0.805460 0.716787 0.901036
Si Si4 0.105242 0.160159 0.903468
Si Si5 0.298899 0.899975 0.224786
Si Si6 0.793881 0.149523 0.102020
Si Si7 0.056377 0.804545 0.216234
O O1 0.834815 0.073351 0.892765
O O2 0.925947 0.105822 0.834678
O O3 0.869357 0.000000 0.750000
O O4 0.899650 0.944145 0.898889
O O5 0.845553 0.389439 0.842679
O O6 0.828368 0.234057 0.881470
O O7 0.920516 0.271993 0.845547
O O8 0.878454 0.321497 0.000000
O O9 0.750000 0.750000 0.898736
O O10 0.839218 0.803327 0.898776
O O11 0.811786 0.654861 0.814926
O O12 0.814968 0.674408 0.000000
O O13 0.083268 0.197722 0.812448
O O14 0.083936 0.190192 0.000000
O O15 0.249469 0.864092 0.174263
O O16 0.289982 0.000000 0.250000
O O17 0.773135 0.153629 0.000000
O O18 0.000000 0.803736 0.250000
#
# Coordination Sequence:
#
# PCOD9496895 Si02
#       7
#    16  16  16  16  16  16  16
#     4   9  19  32  51  82 117 155 188 228 275 333
#     4  10  21  40  61  84 117 156 195 240 292 348
#     4  10  22  37  55  79 113 155 194 232 279 339
#     4  10  20  36  57  80 117 157 192 229 278 340
#     4  12  24  35  56  84 117 150 193 244 287 337
#     4  10  20  34  55  82 117 156 194 228 271 334
#     4  10  21  38  60  86 115 146 190 242 292 345
#
# _framework density 18.278044999999999
#
# number of rings (size 3 to 8) (size 9 to 14) (size 15 to 20)
#    0.000    1.857    1.429    2.571    6.000    6.000 
#    0.000    0.714    0.000    0.429    0.000    1.000 
#    0.000    0.000    0.000    0.000    0.000    0.000 
#
# Total GULP energy -312092.087829 kJ/mol
# GULP energy per Si atom -5573.072997 kJ/mol
# Density = 1.823644 g / cm^3
# Si number density = 18.278045 Si / 1000 Ang^3
#
#
#
# Elastic Constant Matrix: (Units=GPa)
#
#
# Indices 1 2 3 4 5 6 
#
# 1 99.3604 16.9604 41.2035 0.0000 0.0000 0.0000
# 2 16.9604 23.1715 15.7010 0.0000 0.0000 0.0000
# 3 41.2035 15.7010 125.0913 0.0000 0.0000 0.0000
# 4 0.0000 0.0000 0.0000 0.3351 0.0000 0.0000
# 5 0.0000 0.0000 0.0000 0.0000 -6.0549 0.0000
# 6 0.0000 0.0000 0.0000 0.0000 0.0000 1.4458
#
#
#
# Elastic Compliance Matrix: (Units=1/GPa)
#
#
# Indices 1 2 3 4 5 6 
#
# 1 0.012621 -0.007018 -0.003276 0.000000 0.000000 0.000000
# 2 -0.007018 0.051070 -0.004099 0.000000 0.000000 0.000000
# 3 -0.003276 -0.004099 0.009588 0.000000 0.000000 0.000000
# 4 0.000000 0.000000 0.000000 2.984305 0.000000 0.000000
# 5 0.000000 0.000000 0.000000 0.000000 -0.165155 0.000000
# 6 0.000000 0.000000 0.000000 0.000000 0.000000 0.691651
#
#
# Mechanical properties :
#
#
# Convention : Reuss Voigt Hill
#
# Bulk Modulus (GPa) = 22.47516 43.92812 33.20164
# Shear Modulus (GPa) = 1.37828 10.72908 6.05368
#
# Velocity S-wave (km/s) = 0.86931 2.42542 1.82186
# Velocity P-wave (km/s) = 3.65110 5.65058 4.75708
#
# Compressibility (1/GPa) = 0.04449356
#
# Stress axis : x y z
#
# Youngs Moduli (GPa) = 79.23333 19.58082 104.29950
#
# Poissons Ratio (x) = 0.13742 0.34172
# Poissons Ratio (y) = 0.55605 0.42748
# Poissons Ratio (z) = 0.25959 0.08025
#
# Static dielectric constant tensor:
#      x y z
#    x 0.978450 0.000000 0.000000 
#    y 0.000000 1.648490 0.000000 
#    z 0.000000 0.000000 1.659250 
# 
# From -- ./inp_files/33347.got.cif
#   From: 2010.05.17/outbox.cif.g08.bks.cpg/sg66_17_cif.got.tgz:33347.got - 2010.06.03 17:51:23.
