data_PCOD9496421
_publ_section_title
;
Structure prediction by ZEFSAII (Michael W. Deem and Ramdas Pophale) SiO2 
 PCOD9496421
Probable space group: C C C M
;
_chemical_formula_sum "Si O2"
_cell_formula_units_Z 112
_cell_length_a 17.225452
_cell_length_b 14.124070
_cell_length_c 24.283735
_cell_angle_alpha 90.000000
_cell_angle_beta 90.000000
_cell_angle_gamma 90.000000
_cell_volume 5908.074634
_symmetry_space_group_name_H-M "C C C M"
_symmetry_group_IT_number 66
_symmetry_cell_setting 'orthorhombic'
loop_
_space_group_symop_operation_xyz
x,y,z
-x,-y,z
x,-y,1/2-z
-x,y,1/2-z
-x,-y,-z
x,y,-z
-x,y,1/2+z
x,-y,1/2+z
1/2+x,1/2+y,z
1/2-x,1/2-y,z
1/2+x,1/2-y,1/2-z
1/2-x,1/2+y,1/2-z
1/2-x,1/2-y,-z
1/2+x,1/2+y,-z
1/2-x,1/2+y,1/2+z
1/2+x,1/2-y,1/2+z
loop_
_atom_site_type_symbol
_atom_site_label
_atom_site_fract_x
_atom_site_fract_y
_atom_site_fract_z
Si Si1 0.566198 0.569572 0.408795
Si Si2 0.543826 0.081804 0.691200
Si Si3 0.260732 0.363796 0.436591
Si Si4 0.668175 0.802143 0.938789
Si Si5 0.130894 0.948773 0.307905
Si Si6 0.451002 0.284954 0.859863
Si Si7 0.200854 0.527035 0.356831
O O1 0.500000 0.500000 0.436141
O O2 0.648273 0.601523 0.435376
O O3 0.590729 0.510105 0.355298
O O4 0.523045 0.662656 0.387060
O O5 0.500000 0.089542 0.750000
O O6 0.533484 0.182175 0.663511
O O7 0.631864 0.043348 0.687519
O O8 0.500000 0.000000 0.657870
O O9 0.233241 0.380932 0.500000
O O10 0.250000 0.250000 0.426101
O O11 0.217396 0.427960 0.389622
O O12 0.750000 0.750000 0.941834
O O13 0.611834 0.730428 0.907617
O O14 0.679913 0.896856 0.903858
O O15 0.639766 0.823312 0.000000
O O16 0.088083 0.848414 0.312223
O O17 0.220261 0.943410 0.326017
O O18 0.122758 0.000000 0.250000
#
# Coordination Sequence:
#
# PCOD9496421 Si02
#       7
#    16  16  16  16  16  16  16
#     4   9  21  38  58  91 123 156 204 254 311 373
#     4  10  24  39  58  83 117 164 203 248 303 355
#     4  10  22  40  64  92 124 165 206 255 319 380
#     4  10  19  35  62  90 120 160 201 253 312 358
#     4  10  21  36  61  90 116 159 198 250 312 371
#     4  10  21  38  60  86 126 153 204 255 301 368
#     4  10  21  41  61  85 126 153 208 257 300 375
#
# _framework density 18.957107000000001
#
# number of rings (size 3 to 8) (size 9 to 14) (size 15 to 20)
#    0.000    2.143    1.429    0.429    6.000    2.857 
#    0.000    0.000    3.143    2.143    0.000    0.000 
#    0.000    0.000    0.000    0.000    0.000    0.000 
#
# Total GULP energy -311772.712784 kJ/mol
# GULP energy per Si atom -5567.369871 kJ/mol
# Density = 1.891396 g / cm^3
# Si number density = 18.957107 Si / 1000 Ang^3
#
#
#
# Elastic Constant Matrix: (Units=GPa)
#
#
# Indices 1 2 3 4 5 6 
#
# 1 91.6478 33.8204 23.7377 0.0000 0.0000 0.0000
# 2 33.8204 119.2365 25.1258 0.0000 0.0000 0.0000
# 3 23.7377 25.1258 78.7745 0.0000 0.0000 0.0000
# 4 0.0000 0.0000 0.0000 24.4336 0.0000 0.0000
# 5 0.0000 0.0000 0.0000 0.0000 17.7594 0.0000
# 6 0.0000 0.0000 0.0000 0.0000 0.0000 23.1960
#
#
#
# Elastic Compliance Matrix: (Units=1/GPa)
#
#
# Indices 1 2 3 4 5 6 
#
# 1 0.012771 -0.003014 -0.002887 0.000000 0.000000 0.000000
# 2 -0.003014 0.009702 -0.002186 0.000000 0.000000 0.000000
# 3 -0.002887 -0.002186 0.014262 0.000000 0.000000 0.000000
# 4 0.000000 0.000000 0.000000 0.040927 0.000000 0.000000
# 5 0.000000 0.000000 0.000000 0.000000 0.056308 0.000000
# 6 0.000000 0.000000 0.000000 0.000000 0.000000 0.043111
#
#
# Mechanical properties :
#
#
# Convention : Reuss Voigt Hill
#
# Bulk Modulus (GPa) = 48.63734 50.55851 49.59792
# Shear Modulus (GPa) = 24.98619 26.87613 25.93116
#
# Velocity S-wave (km/s) = 3.63442 3.76937 3.70251
# Velocity P-wave (km/s) = 6.58211 6.75811 6.67069
#
# Compressibility (1/GPa) = 0.02056034
#
# Stress axis : x y z
#
# Youngs Moduli (GPa) = 78.29986 103.06789 70.11722
#
# Poissons Ratio (x) = 0.31066 0.20244
# Poissons Ratio (y) = 0.23600 0.15330
# Poissons Ratio (z) = 0.22606 0.22535
#
# Static dielectric constant tensor:
#      x y z
#    x 1.710230 0.000000 0.000000 
#    y 0.000000 1.672410 0.000000 
#    z 0.000000 0.000000 1.666320 
# 
# From -- ./inp_files/64679.got.cif
#   From: 2010.05.17/outbox.cif.g08.bks.cpg/sg66_33_cif.got.tgz:64679.got - 2010.06.03 17:51:23.
