data_PCOD9496977
_publ_section_title
;
Structure prediction by ZEFSAII (Michael W. Deem and Ramdas Pophale) SiO2 
 PCOD9496977
Probable space group: C C C M
;
_chemical_formula_sum "Si O2"
_cell_formula_units_Z 116
_cell_length_a 18.307241
_cell_length_b 25.009517
_cell_length_c 14.185757
_cell_angle_alpha 90.000000
_cell_angle_beta 90.000000
_cell_angle_gamma 90.000000
_cell_volume 6495.023389
_symmetry_space_group_name_H-M "C C C M"
_symmetry_group_IT_number 66
_symmetry_cell_setting 'orthorhombic'
loop_
_space_group_symop_operation_xyz
x,y,z
-x,-y,z
x,-y,1/2-z
-x,y,1/2-z
-x,-y,-z
x,y,-z
-x,y,1/2+z
x,-y,1/2+z
1/2+x,1/2+y,z
1/2-x,1/2-y,z
1/2+x,1/2-y,1/2-z
1/2-x,1/2+y,1/2-z
1/2-x,1/2-y,-z
1/2+x,1/2+y,-z
1/2-x,1/2+y,1/2+z
1/2+x,1/2-y,1/2+z
loop_
_atom_site_type_symbol
_atom_site_label
_atom_site_fract_x
_atom_site_fract_y
_atom_site_fract_z
Si Si1 0.939149 0.222151 0.890265
Si Si2 0.262366 0.016380 0.891913
Si Si3 0.500000 0.500000 0.500000
Si Si4 0.147687 0.849532 0.746474
Si Si5 0.295395 0.910251 0.218499
Si Si6 0.584840 0.175689 0.234925
Si Si7 0.096596 0.959727 0.335983
Si Si8 0.112311 0.759418 0.389584
O O1 0.900317 0.176841 0.828750
O O2 0.913852 0.278246 0.844733
O O3 0.027225 0.221745 0.881012
O O4 0.920809 0.218147 0.000000
O O5 0.285676 0.957617 0.856962
O O6 0.295041 0.059557 0.819514
O O7 0.174849 0.021507 0.878442
O O8 0.281608 0.025752 0.000000
O O9 0.537733 0.463412 0.417226
O O10 0.224679 0.871893 0.783190
O O11 0.106452 0.900373 0.703167
O O12 0.157668 0.804542 0.665731
O O13 0.366589 0.874486 0.207862
O O14 0.500000 0.161698 0.250000
O O15 0.615015 0.204606 0.329863
O O16 0.082182 0.000000 0.250000
O O17 0.130002 0.754089 0.500000
#
# Coordination Sequence:
#
# PCOD9496977 Si02
#       8
#    16  16   4  16  16  16  16  16
#     4   9  19  36  54  80 115 152 182 227 282 332
#     4  10  20  40  59  75 114 150 182 225 288 337
#     4  12  26  32  60  82 108 158 202 236 280 310
#     4  10  20  35  53  77 111 146 186 233 271 325
#     4  10  21  37  59  82 106 147 183 232 284 338
#     4   9  19  38  61  82 109 139 180 228 285 350
#     4  11  22  41  52  80 115 150 195 242 272 318
#     4   9  19  34  53  79 113 149 182 223 278 328
#
# _framework density 17.859828
#
# number of rings (size 3 to 8) (size 9 to 14) (size 15 to 20)
#    0.000    2.207    3.448    1.448    0.966    6.621 
#    3.724    2.759    0.000    0.828    0.000    0.000 
#    0.000    0.000    0.000    0.000    0.000    0.000 
#
# Total GULP energy -323176.919689 kJ/mol
# GULP energy per Si atom -5572.015857 kJ/mol
# Density = 1.781918 g / cm^3
# Si number density = 17.859828 Si / 1000 Ang^3
#
#
#
# Elastic Constant Matrix: (Units=GPa)
#
#
# Indices 1 2 3 4 5 6 
#
# 1 35.0020 31.8121 2.0672 0.0000 0.0000 0.0000
# 2 31.8121 65.1942 4.4183 0.0000 0.0000 0.0000
# 3 2.0672 4.4183 84.2760 0.0000 0.0000 0.0000
# 4 0.0000 0.0000 0.0000 3.9019 0.0000 0.0000
# 5 0.0000 0.0000 0.0000 0.0000 -0.8009 0.0000
# 6 0.0000 0.0000 0.0000 0.0000 0.0000 18.2543
#
#
#
# Elastic Compliance Matrix: (Units=1/GPa)
#
#
# Indices 1 2 3 4 5 6 
#
# 1 0.051338 -0.025054 0.000054 0.000000 0.000000 0.000000
# 2 -0.025054 0.027621 -0.000833 0.000000 0.000000 0.000000
# 3 0.000054 -0.000833 0.011908 0.000000 0.000000 0.000000
# 4 0.000000 0.000000 0.000000 0.256287 0.000000 0.000000
# 5 0.000000 0.000000 0.000000 0.000000 -1.248526 0.000000
# 6 0.000000 0.000000 0.000000 0.000000 0.000000 0.054782
#
#
# Mechanical properties :
#
#
# Convention : Reuss Voigt Hill
#
# Bulk Modulus (GPa) = 25.51066 29.00750 27.25908
# Shear Modulus (GPa) = -6.39503 14.01601 3.81049
#
# Velocity S-wave (km/s) = -1.89432 2.80443 1.46225
# Velocity P-wave (km/s) = 3.08711 5.17334 4.25991
#
# Compressibility (1/GPa) = 0.03919930
#
# Stress axis : x y z
#
# Youngs Moduli (GPa) = 19.47891 36.20462 83.97621
#
# Poissons Ratio (x) = 0.90708 -0.00455
# Poissons Ratio (y) = 0.48803 0.06999
# Poissons Ratio (z) = -0.00106 0.03018
#
# Static dielectric constant tensor:
#      x y z
#    x 1.621740 0.000000 0.000000 
#    y 0.000000 1.589660 0.000000 
#    z 0.000000 0.000000 1.604790 
# 
# From -- ./inp_files/30353.got.cif
#   From: 2010.05.17/outbox.cif.g08.bks.cpg/sg66_16_cif.got.tgz:30353.got - 2010.06.03 17:51:23.
