data_PCOD9496569
_publ_section_title
;
Structure prediction by ZEFSAII (Michael W. Deem and Ramdas Pophale) SiO2 
 PCOD9496569
Probable space group: C C C M
;
_chemical_formula_sum "Si O2"
_cell_formula_units_Z 80
_cell_length_a 24.674269
_cell_length_b 5.802724
_cell_length_c 26.165807
_cell_angle_alpha 90.000000
_cell_angle_beta 90.000000
_cell_angle_gamma 90.000000
_cell_volume 3746.367206
_symmetry_space_group_name_H-M "C C C M"
_symmetry_group_IT_number 66
_symmetry_cell_setting 'orthorhombic'
loop_
_space_group_symop_operation_xyz
x,y,z
-x,-y,z
x,-y,1/2-z
-x,y,1/2-z
-x,-y,-z
x,y,-z
-x,y,1/2+z
x,-y,1/2+z
1/2+x,1/2+y,z
1/2-x,1/2-y,z
1/2+x,1/2-y,1/2-z
1/2-x,1/2+y,1/2-z
1/2-x,1/2-y,-z
1/2+x,1/2+y,-z
1/2-x,1/2+y,1/2+z
1/2+x,1/2-y,1/2+z
loop_
_atom_site_type_symbol
_atom_site_label
_atom_site_fract_x
_atom_site_fract_y
_atom_site_fract_z
Si Si1 0.804094 0.612260 0.112452
Si Si2 0.386988 0.825833 0.943610
Si Si3 0.000000 0.500000 0.089990
Si Si4 0.381886 0.505274 0.655383
Si Si5 0.000000 0.000000 0.649088
Si Si6 0.694409 0.823442 0.712181
O O1 0.750000 0.750000 0.097996
O O2 0.833623 0.478541 0.066836
O O3 0.851867 0.766016 0.137275
O O4 0.788730 0.445080 0.159173
O O5 0.442604 0.973705 0.939123
O O6 0.386548 0.645787 0.896835
O O7 0.385492 0.719387 0.000000
O O8 0.997772 0.750418 0.119027
O O9 0.442475 0.511707 0.676918
O O10 0.343396 0.382120 0.695572
O O11 0.750000 0.750000 0.739146
O O12 0.665435 0.000000 0.750000
#
# Coordination Sequence:
#
# PCOD9496569 Si02
#       6
#    16  16   8  16   8  16
#     4  11  21  39  61  85 125 164 207 257 321 388
#     4  10  22  37  57  90 126 167 218 269 316 374
#     4  10  19  38  62  94 125 168 225 274 316 368
#     4  10  22  40  61  92 127 166 210 259 321 386
#     4  10  20  40  67  93 128 176 210 262 326 382
#     4  11  23  38  65  98 120 152 207 268 325 380
#
# _framework density 21.354019999999998
#
# number of rings (size 3 to 8) (size 9 to 14) (size 15 to 20)
#    0.000    1.600    4.000    0.900    0.000    1.200 
#    0.000    3.500    0.000    3.600    0.000    0.000 
#    0.000    0.000    0.000    0.000    0.000    0.000 
#
# Total GULP energy -223003.579547 kJ/mol
# GULP energy per Si atom -5575.089489 kJ/mol
# Density = 2.130542 g / cm^3
# Si number density = 21.354020 Si / 1000 Ang^3
#
#
#
# Elastic Constant Matrix: (Units=GPa)
#
#
# Indices 1 2 3 4 5 6 
#
# 1 129.3406 10.4993 4.8327 0.0000 0.0000 0.0000
# 2 10.4993 69.1401 8.5664 0.0000 0.0000 0.0000
# 3 4.8327 8.5664 61.5300 0.0000 0.0000 0.0000
# 4 0.0000 0.0000 0.0000 13.8851 0.0000 0.0000
# 5 0.0000 0.0000 0.0000 0.0000 12.0432 0.0000
# 6 0.0000 0.0000 0.0000 0.0000 0.0000 38.5260
#
#
#
# Elastic Compliance Matrix: (Units=1/GPa)
#
#
# Indices 1 2 3 4 5 6 
#
# 1 0.007841 -0.001134 -0.000458 0.000000 0.000000 0.000000
# 2 -0.001134 0.014881 -0.001983 0.000000 0.000000 0.000000
# 3 -0.000458 -0.001983 0.016564 0.000000 0.000000 0.000000
# 4 0.000000 0.000000 0.000000 0.072020 0.000000 0.000000
# 5 0.000000 0.000000 0.000000 0.000000 0.083034 0.000000
# 6 0.000000 0.000000 0.000000 0.000000 0.000000 0.025957
#
#
# Mechanical properties :
#
#
# Convention : Reuss Voigt Hill
#
# Bulk Modulus (GPa) = 31.11688 34.20085 32.65886
# Shear Modulus (GPa) = 20.99444 28.63167 24.81306
#
# Velocity S-wave (km/s) = 3.13894 3.66568 3.41249
# Velocity P-wave (km/s) = 5.26695 5.82813 5.55464
#
# Compressibility (1/GPa) = 0.03213690
#
# Stress axis : x y z
#
# Youngs Moduli (GPa) = 127.53991 67.19873 60.37102
#
# Poissons Ratio (x) = 0.07620 0.02765
# Poissons Ratio (y) = 0.14462 0.11970
# Poissons Ratio (z) = 0.05841 0.13324
#
# Static dielectric constant tensor:
#      x y z
#    x 1.794670 0.000000 0.000000 
#    y 0.000000 1.967410 0.000000 
#    z 0.000000 0.000000 1.732660 
# 
# From -- ./inp_files/70319.got.cif
#   From: 2010.05.17/outbox.cif.g08.bks.cpg/sg66_36_cif.got.tgz:70319.got - 2010.06.03 17:51:23.
