data_PCOD9496539
_publ_section_title
;
Structure prediction by ZEFSAII (Michael W. Deem and Ramdas Pophale) SiO2 
 PCOD9496539
Probable space group: C C C M
;
_chemical_formula_sum "Si O2"
_cell_formula_units_Z 112
_cell_length_a 13.329488
_cell_length_b 15.480396
_cell_length_c 26.893733
_cell_angle_alpha 90.000000
_cell_angle_beta 90.000000
_cell_angle_gamma 90.000000
_cell_volume 5549.407579
_symmetry_space_group_name_H-M "C C C M"
_symmetry_group_IT_number 66
_symmetry_cell_setting 'orthorhombic'
loop_
_space_group_symop_operation_xyz
x,y,z
-x,-y,z
x,-y,1/2-z
-x,y,1/2-z
-x,-y,-z
x,y,-z
-x,y,1/2+z
x,-y,1/2+z
1/2+x,1/2+y,z
1/2-x,1/2-y,z
1/2+x,1/2-y,1/2-z
1/2-x,1/2+y,1/2-z
1/2-x,1/2-y,-z
1/2+x,1/2+y,-z
1/2-x,1/2+y,1/2+z
1/2+x,1/2-y,1/2+z
loop_
_atom_site_type_symbol
_atom_site_label
_atom_site_fract_x
_atom_site_fract_y
_atom_site_fract_z
Si Si1 0.815446 0.838925 0.943146
Si Si2 0.641896 0.881387 0.879330
Si Si3 0.676183 0.975080 0.307320
Si Si4 0.539398 0.900746 0.556968
Si Si5 0.602281 0.533541 0.193494
Si Si6 0.353010 0.803067 0.858570
Si Si7 0.434716 0.711197 0.351789
O O1 0.750000 0.750000 0.944786
O O2 0.740319 0.899372 0.911698
O O3 0.909284 0.827014 0.906654
O O4 0.835866 0.864110 0.000000
O O5 0.559112 0.857340 0.920367
O O6 0.638075 0.794804 0.846201
O O7 0.615320 0.960963 0.843837
O O8 0.652952 0.875372 0.315812
O O9 0.662218 0.000000 0.250000
O O10 0.791361 0.995495 0.323076
O O11 0.560196 0.880579 0.500000
O O12 0.625411 0.863101 0.592589
O O13 0.500000 0.000000 0.559183
O O14 0.500000 0.500000 0.168125
O O15 0.598742 0.500000 0.250000
O O16 0.596090 0.636480 0.186705
O O17 0.250000 0.750000 0.862281
O O18 0.449957 0.742160 0.849069
#
# Coordination Sequence:
#
# PCOD9496539 Si02
#       7
#    16  16  16  16  16  16  16
#     4   9  17  32  59  92 121 152 198 257 310 364
#     4  10  19  37  63  93 127 157 214 264 318 366
#     4  11  23  42  63  91 129 171 208 267 324 380
#     4  10  20  37  64  93 127 172 216 258 319 393
#     4  10  21  40  62  84 119 166 218 256 315 374
#     4  11  24  43  64  94 133 167 212 266 328 385
#     4  10  21  37  62  92 122 164 207 261 311 381
#
# _framework density 20.182333
#
# number of rings (size 3 to 8) (size 9 to 14) (size 15 to 20)
#    0.000    1.857    2.857    1.286    0.000    3.714 
#   10.286    5.000    0.000    0.429    0.000    0.000 
#    0.000    0.000    0.000    0.000    0.000    0.000 
#
# Total GULP energy -311784.517654 kJ/mol
# GULP energy per Si atom -5567.580672 kJ/mol
# Density = 2.013640 g / cm^3
# Si number density = 20.182333 Si / 1000 Ang^3
#
#
#
# Elastic Constant Matrix: (Units=GPa)
#
#
# Indices 1 2 3 4 5 6 
#
# 1 93.6982 29.7865 37.8934 0.0000 0.0000 0.0000
# 2 29.7865 95.7906 48.6937 0.0000 0.0000 0.0000
# 3 37.8934 48.6937 120.5527 0.0000 0.0000 0.0000
# 4 0.0000 0.0000 0.0000 25.7074 0.0000 0.0000
# 5 0.0000 0.0000 0.0000 0.0000 14.9035 0.0000
# 6 0.0000 0.0000 0.0000 0.0000 0.0000 22.4608
#
#
#
# Elastic Compliance Matrix: (Units=1/GPa)
#
#
# Indices 1 2 3 4 5 6 
#
# 1 0.012653 -0.002407 -0.003005 0.000000 0.000000 0.000000
# 2 -0.002407 0.013595 -0.004735 0.000000 0.000000 0.000000
# 3 -0.003005 -0.004735 0.011152 0.000000 0.000000 0.000000
# 4 0.000000 0.000000 0.000000 0.038899 0.000000 0.000000
# 5 0.000000 0.000000 0.000000 0.000000 0.067098 0.000000
# 6 0.000000 0.000000 0.000000 0.000000 0.000000 0.044522
#
#
# Mechanical properties :
#
#
# Convention : Reuss Voigt Hill
#
# Bulk Modulus (GPa) = 58.45676 60.30985 59.38330
# Shear Modulus (GPa) = 23.37381 25.52554 24.44967
#
# Velocity S-wave (km/s) = 3.40683 3.56019 3.48435
# Velocity P-wave (km/s) = 6.67102 6.84451 6.75832
#
# Compressibility (1/GPa) = 0.01710666
#
# Stress axis : x y z
#
# Youngs Moduli (GPa) = 79.03258 73.55842 89.66930
#
# Poissons Ratio (x) = 0.17705 0.26946
# Poissons Ratio (y) = 0.19023 0.42455
# Poissons Ratio (z) = 0.23749 0.34827
#
# Static dielectric constant tensor:
#      x y z
#    x 1.806430 0.000000 0.000000 
#    y 0.000000 1.767550 0.000000 
#    z 0.000000 0.000000 1.733690 
# 
# From -- ./inp_files/64636.got.cif
#   From: 2010.05.17/outbox.cif.g08.bks.cpg/sg66_33_cif.got.tgz:64636.got - 2010.06.03 17:51:23.
