data_PCOD9496990
_publ_section_title
;
Structure prediction by ZEFSAII (Michael W. Deem and Ramdas Pophale) SiO2 
 PCOD9496990
Probable space group: C C C M
;
_chemical_formula_sum "Si O2"
_cell_formula_units_Z 56
_cell_length_a 14.596062
_cell_length_b 5.141081
_cell_length_c 34.269026
_cell_angle_alpha 90.000000
_cell_angle_beta 90.000000
_cell_angle_gamma 90.000000
_cell_volume 2571.531845
_symmetry_space_group_name_H-M "C C C M"
_symmetry_group_IT_number 66
_symmetry_cell_setting 'orthorhombic'
loop_
_space_group_symop_operation_xyz
x,y,z
-x,-y,z
x,-y,1/2-z
-x,y,1/2-z
-x,-y,-z
x,y,-z
-x,y,1/2+z
x,-y,1/2+z
1/2+x,1/2+y,z
1/2-x,1/2-y,z
1/2+x,1/2-y,1/2-z
1/2-x,1/2+y,1/2-z
1/2-x,1/2-y,-z
1/2+x,1/2+y,-z
1/2-x,1/2+y,1/2+z
1/2+x,1/2-y,1/2+z
loop_
_atom_site_type_symbol
_atom_site_label
_atom_site_fract_x
_atom_site_fract_y
_atom_site_fract_z
Si Si1 0.138218 0.764543 0.129570
Si Si2 0.436040 0.245323 0.000000
Si Si3 0.683267 0.504945 0.707582
Si Si4 0.359324 0.245755 0.914655
O O1 0.250000 0.750000 0.128938
O O2 0.106986 0.481990 0.114677
O O3 0.120859 0.902295 0.171412
O O4 0.105924 0.973362 0.098281
O O5 0.500000 0.500000 0.000000
O O6 0.379622 0.218578 0.960099
O O7 0.500000 0.000000 0.000000
O O8 0.635492 0.500000 0.750000
O O9 0.750000 0.250000 0.699677
O O10 0.750000 0.750000 0.712810
O O11 0.250000 0.250000 0.909748
#
# Coordination Sequence:
#
# PCOD9496990 Si02
#       4
#    16   8  16  16
#     4   9  16  28  47  72 100 134 171 205 244 298
#     4  12  25  40  55  76 104 132 170 220 271 316
#     4   9  15  23  38  65 103 140 166 196 247 302
#     4  10  20  35  55  75 100 135 174 211 252 305
#
# _framework density 21.776902
#
# number of rings (size 3 to 8) (size 9 to 14) (size 15 to 20)
#    0.000    2.286    0.000    6.429    0.000    0.000 
#    0.000    5.714    0.000    0.000    0.000    0.000 
#    0.000   17.143    0.000    2.857    0.000    0.000 
#
# Total GULP energy -155905.117216 kJ/mol
# GULP energy per Si atom -5568.039901 kJ/mol
# Density = 2.172734 g / cm^3
# Si number density = 21.776902 Si / 1000 Ang^3
#
#
#
# Elastic Constant Matrix: (Units=GPa)
#
#
# Indices 1 2 3 4 5 6 
#
# 1 48.0044 8.0450 2.4399 0.0000 0.0000 0.0000
# 2 8.0450 155.4286 34.2976 0.0000 0.0000 0.0000
# 3 2.4399 34.2976 176.4358 0.0000 0.0000 0.0000
# 4 0.0000 0.0000 0.0000 33.8184 0.0000 0.0000
# 5 0.0000 0.0000 0.0000 0.0000 -24.6238 0.0000
# 6 0.0000 0.0000 0.0000 0.0000 0.0000 4.2979
#
#
#
# Elastic Compliance Matrix: (Units=1/GPa)
#
#
# Indices 1 2 3 4 5 6 
#
# 1 0.021015 -0.001069 -0.000083 0.000000 0.000000 0.000000
# 2 -0.001069 0.006777 -0.001303 0.000000 0.000000 0.000000
# 3 -0.000083 -0.001303 0.005922 0.000000 0.000000 0.000000
# 4 0.000000 0.000000 0.000000 0.029570 0.000000 0.000000
# 5 0.000000 0.000000 0.000000 0.000000 -0.040611 0.000000
# 6 0.000000 0.000000 0.000000 0.000000 0.000000 0.232669
#
#
# Mechanical properties :
#
#
# Convention : Reuss Voigt Hill
#
# Bulk Modulus (GPa) = 34.71720 52.15931 43.43825
# Shear Modulus (GPa) = 18.52866 25.03760 21.78313
#
# Velocity S-wave (km/s) = 2.92008 3.39445 3.16616
# Velocity P-wave (km/s) = 5.22934 6.27429 5.77549
#
# Compressibility (1/GPa) = 0.02880417
#
# Stress axis : x y z
#
# Youngs Moduli (GPa) = 47.58536 147.56664 168.85828
#
# Poissons Ratio (x) = 0.15782 0.01397
# Poissons Ratio (y) = 0.05089 0.21994
# Poissons Ratio (z) = 0.00394 0.19221
#
# Static dielectric constant tensor:
#      x y z
#    x 1.784980 0.000000 0.000000 
#    y 0.000000 1.794280 0.000000 
#    z 0.000000 0.000000 -1.750980 
# 
# From -- ./inp_files/69717.got.cif
#   From: 2010.05.17/outbox.cif.g08.bks.cpg/sg66_35_cif.got.tgz:69717.got - 2010.06.03 17:51:23.
