data_PCOD9496281
_publ_section_title
;
Structure prediction by ZEFSAII (Michael W. Deem and Ramdas Pophale) SiO2 
 PCOD9496281
Probable space group: C C C M
;
_chemical_formula_sum "Si O2"
_cell_formula_units_Z 104
_cell_length_a 21.716910
_cell_length_b 29.591214
_cell_length_c 7.861780
_cell_angle_alpha 90.000000
_cell_angle_beta 90.000000
_cell_angle_gamma 90.000000
_cell_volume 5052.213568
_symmetry_space_group_name_H-M "C C C M"
_symmetry_group_IT_number 66
_symmetry_cell_setting 'orthorhombic'
loop_
_space_group_symop_operation_xyz
x,y,z
-x,-y,z
x,-y,1/2-z
-x,y,1/2-z
-x,-y,-z
x,y,-z
-x,y,1/2+z
x,-y,1/2+z
1/2+x,1/2+y,z
1/2-x,1/2-y,z
1/2+x,1/2-y,1/2-z
1/2-x,1/2+y,1/2-z
1/2-x,1/2-y,-z
1/2+x,1/2+y,-z
1/2-x,1/2+y,1/2+z
1/2+x,1/2-y,1/2+z
loop_
_atom_site_type_symbol
_atom_site_label
_atom_site_fract_x
_atom_site_fract_y
_atom_site_fract_z
Si Si1 0.408684 0.815887 0.200693
Si Si2 0.345630 0.367310 0.294481
Si Si3 0.929251 0.051423 0.201760
Si Si4 0.609166 0.052071 0.704406
Si Si5 0.069281 0.786395 0.204342
Si Si6 0.000000 0.389415 0.250000
Si Si7 0.203254 0.629456 0.298649
O O1 0.419420 0.765060 0.261741
O O2 0.449517 0.851549 0.307131
O O3 0.338353 0.831649 0.214820
O O4 0.426877 0.820268 0.000000
O O5 0.349861 0.367094 0.500000
O O6 0.382682 0.411100 0.228546
O O7 0.380948 0.322439 0.232167
O O8 0.274186 0.369072 0.250103
O O9 0.000000 0.060819 0.250000
O O10 0.914257 0.000000 0.250000
O O11 0.926264 0.053769 0.000000
O O12 0.595726 0.056265 0.500000
O O13 0.552040 0.074362 0.805909
O O14 0.669440 0.082031 0.743724
O O15 0.617054 0.000000 0.750000
O O16 0.000000 0.800454 0.250000
O O17 0.073871 0.784976 0.000000
O O18 0.198345 0.635375 0.500000
#
# Coordination Sequence:
#
# PCOD9496281 Si02
#       7
#    16  16  16  16  16   8  16
#     4  10  20  36  59  83 112 150 188 229 278 333
#     4  10  22  39  58  82 114 149 187 230 283 339
#     4  10  20  35  57  84 112 145 183 229 280 337
#     4  10  22  37  55  82 113 145 187 235 280 335
#     4  10  21  37  59  88 116 147 186 231 282 336
#     4  10  19  34  58  86 114 148 189 228 282 332
#     4  10  23  40  57  79 110 149 192 235 280 335
#
# _framework density 20.585035999999999
#
# number of rings (size 3 to 8) (size 9 to 14) (size 15 to 20)
#    0.000    2.000    0.769    2.538    0.000    8.615 
#    0.000    6.154    0.000    0.000    0.000    0.000 
#    0.000    0.000    0.000    0.000    0.000    0.000 
#
# Total GULP energy -289821.162521 kJ/mol
# GULP energy per Si atom -5573.483895 kJ/mol
# Density = 2.053818 g / cm^3
# Si number density = 20.585036 Si / 1000 Ang^3
#
#
#
# Elastic Constant Matrix: (Units=GPa)
#
#
# Indices 1 2 3 4 5 6 
#
# 1 171.2871 100.9206 8.0914 0.0000 0.0000 0.0000
# 2 100.9206 129.3619 19.3255 0.0000 0.0000 0.0000
# 3 8.0914 19.3255 51.1785 0.0000 0.0000 0.0000
# 4 0.0000 0.0000 0.0000 15.0435 0.0000 0.0000
# 5 0.0000 0.0000 0.0000 0.0000 -1.3534 0.0000
# 6 0.0000 0.0000 0.0000 0.0000 0.0000 23.5218
#
#
#
# Elastic Compliance Matrix: (Units=1/GPa)
#
#
# Indices 1 2 3 4 5 6 
#
# 1 0.010924 -0.008758 0.001580 0.000000 0.000000 0.000000
# 2 -0.008758 0.015214 -0.004360 0.000000 0.000000 0.000000
# 3 0.001580 -0.004360 0.020936 0.000000 0.000000 0.000000
# 4 0.000000 0.000000 0.000000 0.066474 0.000000 0.000000
# 5 0.000000 0.000000 0.000000 0.000000 -0.738883 0.000000
# 6 0.000000 0.000000 0.000000 0.000000 0.000000 0.042514
#
#
# Mechanical properties :
#
#
# Convention : Reuss Voigt Hill
#
# Bulk Modulus (GPa) = 41.67132 67.61136 54.64134
# Shear Modulus (GPa) = -9.06215 22.34171 6.63978
#
# Velocity S-wave (km/s) = -2.10044 3.29802 1.79793
# Velocity P-wave (km/s) = 3.79539 6.88613 5.55985
#
# Compressibility (1/GPa) = 0.02399732
#
# Stress axis : x y z
#
# Youngs Moduli (GPa) = 91.54437 65.72820 47.76430
#
# Poissons Ratio (x) = 0.57565 -0.07547
# Poissons Ratio (y) = 0.80175 0.20827
# Poissons Ratio (z) = -0.14465 0.28660
#
# Static dielectric constant tensor:
#      x y z
#    x 1.709630 0.000000 0.000000 
#    y 0.000000 1.736740 0.000000 
#    z 0.000000 0.000000 1.817200 
# 
# From -- ./inp_files/8321.got.cif
#   From: 2010.05.17/outbox.cif.g08.bks.cpg/sg66_5_cif.got.tgz:8321.got - 2010.06.03 17:51:23.
