data_PCOD9496202
_publ_section_title
;
Structure prediction by ZEFSAII (Michael W. Deem and Ramdas Pophale) SiO2 
 PCOD9496202
Probable space group: C C C M
;
_chemical_formula_sum "Si O2"
_cell_formula_units_Z 128
_cell_length_a 12.461386
_cell_length_b 21.396759
_cell_length_c 24.307991
_cell_angle_alpha 90.000000
_cell_angle_beta 90.000000
_cell_angle_gamma 90.000000
_cell_volume 6481.319202
_symmetry_space_group_name_H-M "C C C M"
_symmetry_group_IT_number 66
_symmetry_cell_setting 'orthorhombic'
loop_
_space_group_symop_operation_xyz
x,y,z
-x,-y,z
x,-y,1/2-z
-x,y,1/2-z
-x,-y,-z
x,y,-z
-x,y,1/2+z
x,-y,1/2+z
1/2+x,1/2+y,z
1/2-x,1/2-y,z
1/2+x,1/2-y,1/2-z
1/2-x,1/2+y,1/2-z
1/2-x,1/2-y,-z
1/2+x,1/2+y,-z
1/2-x,1/2+y,1/2+z
1/2+x,1/2-y,1/2+z
loop_
_atom_site_type_symbol
_atom_site_label
_atom_site_fract_x
_atom_site_fract_y
_atom_site_fract_z
Si Si1 0.827143 0.379838 0.936657
Si Si2 0.267237 0.484820 0.061981
Si Si3 0.216894 0.126821 0.210401
Si Si4 0.934693 0.590748 0.937416
Si Si5 0.124738 0.002764 0.831192
Si Si6 0.295789 0.359096 0.668361
Si Si7 0.012195 0.785996 0.689526
Si Si8 0.157080 0.701254 0.617956
O O1 0.754741 0.441729 0.942258
O O2 0.773927 0.343427 0.885577
O O3 0.944769 0.402294 0.916378
O O4 0.836160 0.353647 0.000000
O O5 0.155738 0.455818 0.084957
O O6 0.359769 0.472582 0.105946
O O7 0.287012 0.460362 0.000000
O O8 0.191343 0.053308 0.204154
O O9 0.256140 0.147239 0.270988
O O10 0.102030 0.160345 0.199645
O O11 0.295106 0.154806 0.164453
O O12 0.882485 0.658746 0.931496
O O13 0.948809 0.570116 0.000000
O O14 0.170304 0.932507 0.831556
O O15 0.000000 0.000000 0.815735
O O16 0.402669 0.317426 0.669968
O O17 0.060159 0.738881 0.645398
O O18 0.000000 0.756017 0.750000
O O19 0.250000 0.750000 0.603307
#
# Coordination Sequence:
#
# PCOD9496202 Si02
#       8
#    16  16  16  16  16  16  16  16
#     4   9  19  35  55  82 110 141 182 228 276 329
#     4   9  18  33  54  80 110 147 187 223 268 331
#     4  10  19  34  52  81 111 142 184 225 273 337
#     4  10  19  35  58  78 103 145 188 227 274 329
#     4  11  19  30  55  84 117 145 174 226 283 334
#     4  10  20  33  55  82 113 144 184 224 278 338
#     4   9  19  35  54  76 106 148 189 223 268 326
#     4  10  21  36  55  76 109 140 183 235 268 316
#
# _framework density 19.749065999999999
#
# number of rings (size 3 to 8) (size 9 to 14) (size 15 to 20)
#    0.000    2.250    2.500    0.750    0.000    3.500 
#    0.000    2.500    0.000    2.250    0.000    0.000 
#    0.000    0.000    0.000    0.000    0.000    0.000 
#
# Total GULP energy -356514.340566 kJ/mol
# GULP energy per Si atom -5570.536571 kJ/mol
# Density = 1.970412 g / cm^3
# Si number density = 19.749066 Si / 1000 Ang^3
#
#
#
# Elastic Constant Matrix: (Units=GPa)
#
#
# Indices 1 2 3 4 5 6 
#
# 1 40.4103 11.9732 30.7333 0.0000 0.0000 0.0000
# 2 11.9732 40.3672 2.0806 0.0000 0.0000 0.0000
# 3 30.7333 2.0806 83.3751 0.0000 0.0000 0.0000
# 4 0.0000 0.0000 0.0000 13.7254 0.0000 0.0000
# 5 0.0000 0.0000 0.0000 0.0000 20.7628 0.0000
# 6 0.0000 0.0000 0.0000 0.0000 0.0000 22.5276
#
#
#
# Elastic Compliance Matrix: (Units=1/GPa)
#
#
# Indices 1 2 3 4 5 6 
#
# 1 0.038511 -0.010705 -0.013929 0.000000 0.000000 0.000000
# 2 -0.010705 0.027780 0.003253 0.000000 0.000000 0.000000
# 3 -0.013929 0.003253 0.017047 0.000000 0.000000 0.000000
# 4 0.000000 0.000000 0.000000 0.072858 0.000000 0.000000
# 5 0.000000 0.000000 0.000000 0.000000 0.048163 0.000000
# 6 0.000000 0.000000 0.000000 0.000000 0.000000 0.044390
#
#
# Mechanical properties :
#
#
# Convention : Reuss Voigt Hill
#
# Bulk Modulus (GPa) = 24.64459 28.19186 26.41823
# Shear Modulus (GPa) = 16.39152 19.36086 17.87619
#
# Velocity S-wave (km/s) = 2.88408 3.13444 3.01186
# Velocity P-wave (km/s) = 4.85762 5.23504 5.04986
#
# Compressibility (1/GPa) = 0.04057686
#
# Stress axis : x y z
#
# Youngs Moduli (GPa) = 25.96664 35.99712 58.66105
#
# Poissons Ratio (x) = 0.38534 0.81706
# Poissons Ratio (y) = 0.27796 -0.19080
# Poissons Ratio (z) = 0.36168 -0.11709
#
# Static dielectric constant tensor:
#      x y z
#    x 1.689760 0.000000 0.000000 
#    y 0.000000 1.705580 0.000000 
#    z 0.000000 0.000000 1.759060 
# 
# From -- ./inp_files/64032.got.cif
#   From: 2010.05.17/outbox.cif.g08.bks.cpg/sg66_33_cif.got.tgz:64032.got - 2010.06.03 17:51:23.
