data_PCOD9496227
_publ_section_title
;
Structure prediction by ZEFSAII (Michael W. Deem and Ramdas Pophale) SiO2 
 PCOD9496227
Probable space group: C C C M
;
_chemical_formula_sum "Si O2"
_cell_formula_units_Z 112
_cell_length_a 14.250447
_cell_length_b 27.003489
_cell_length_c 14.389739
_cell_angle_alpha 90.000000
_cell_angle_beta 90.000000
_cell_angle_gamma 90.000000
_cell_volume 5537.341205
_symmetry_space_group_name_H-M "C C C M"
_symmetry_group_IT_number 66
_symmetry_cell_setting 'orthorhombic'
loop_
_space_group_symop_operation_xyz
x,y,z
-x,-y,z
x,-y,1/2-z
-x,y,1/2-z
-x,-y,-z
x,y,-z
-x,y,1/2+z
x,-y,1/2+z
1/2+x,1/2+y,z
1/2-x,1/2-y,z
1/2+x,1/2-y,1/2-z
1/2-x,1/2+y,1/2-z
1/2-x,1/2-y,-z
1/2+x,1/2+y,-z
1/2-x,1/2+y,1/2+z
1/2+x,1/2-y,1/2+z
loop_
_atom_site_type_symbol
_atom_site_label
_atom_site_fract_x
_atom_site_fract_y
_atom_site_fract_z
Si Si1 0.650286 0.270304 0.387122
Si Si2 0.538262 0.782698 0.613818
Si Si3 0.838976 0.369237 0.887424
Si Si4 0.162694 0.805732 0.106286
Si Si5 0.156099 0.886350 0.603537
Si Si6 0.272104 0.443537 0.721379
Si Si7 0.958236 0.101698 0.851165
O O1 0.650270 0.266569 0.500000
O O2 0.750000 0.250000 0.353360
O O3 0.562141 0.237614 0.354994
O O4 0.640499 0.328802 0.368169
O O5 0.539474 0.780016 0.500000
O O6 0.567815 0.838558 0.636959
O O7 0.617212 0.743430 0.646863
O O8 0.754089 0.332650 0.855170
O O9 0.812853 0.420240 0.837670
O O10 0.833933 0.374869 0.000000
O O11 0.083395 0.848052 0.107488
O O12 0.187012 0.794387 0.000000
O O13 0.198352 0.886924 0.500000
O O14 0.214613 0.912497 0.683723
O O15 0.053949 0.912788 0.598394
O O16 0.261188 0.500000 0.750000
O O17 0.369586 0.434713 0.662843
O O18 0.000000 0.112246 0.750000
#
# Coordination Sequence:
#
# PCOD9496227 Si02
#       7
#    16  16  16  16  16  16  16
#     4   9  17  30  52  82 115 150 183 224 281 350
#     4   9  15  26  49  79 109 141 177 222 280 345
#     4   9  18  31  51  78 107 143 188 236 288 342
#     4   9  14  24  43  69 102 137 170 214 274 331
#     4  10  19  34  55  76 105 149 193 232 286 352
#     4  10  22  37  51  73 110 147 191 252 297 334
#     4   9  17  28  44  68  99 138 182 228 275 331
#
# _framework density 20.226313999999999
#
# number of rings (size 3 to 8) (size 9 to 14) (size 15 to 20)
#    0.000    2.714    1.429    0.857    0.000    5.429 
#    0.000    5.000    0.000    0.000    0.000    2.000 
#    0.000    5.714    0.000    0.000    0.000    0.143 
#
# Total GULP energy -312225.441087 kJ/mol
# GULP energy per Si atom -5575.454305 kJ/mol
# Density = 2.018028 g / cm^3
# Si number density = 20.226314 Si / 1000 Ang^3
#
#
#
# Elastic Constant Matrix: (Units=GPa)
#
#
# Indices 1 2 3 4 5 6 
#
# 1 45.8522 55.2921 17.3168 0.0000 0.0000 0.0000
# 2 55.2921 136.6313 37.3388 0.0000 0.0000 0.0000
# 3 17.3168 37.3388 74.1528 0.0000 0.0000 0.0000
# 4 0.0000 0.0000 0.0000 25.0778 0.0000 0.0000
# 5 0.0000 0.0000 0.0000 0.0000 17.2186 0.0000
# 6 0.0000 0.0000 0.0000 0.0000 0.0000 15.3935
#
#
#
# Elastic Compliance Matrix: (Units=1/GPa)
#
#
# Indices 1 2 3 4 5 6 
#
# 1 0.042734 -0.016891 -0.001475 0.000000 0.000000 0.000000
# 2 -0.016891 0.015163 -0.003691 0.000000 0.000000 0.000000
# 3 -0.001475 -0.003691 0.015688 0.000000 0.000000 0.000000
# 4 0.000000 0.000000 0.000000 0.039876 0.000000 0.000000
# 5 0.000000 0.000000 0.000000 0.000000 0.058077 0.000000
# 6 0.000000 0.000000 0.000000 0.000000 0.000000 0.064963
#
#
# Mechanical properties :
#
#
# Convention : Reuss Voigt Hill
#
# Bulk Modulus (GPa) = 33.92856 52.94797 43.43827
# Shear Modulus (GPa) = 17.21544 21.31723 19.26633
#
# Velocity S-wave (km/s) = 2.92060 3.24996 3.08967
# Velocity P-wave (km/s) = 5.30887 6.34961 5.85242
#
# Compressibility (1/GPa) = 0.02947369
#
# Stress axis : x y z
#
# Youngs Moduli (GPa) = 23.40044 65.95035 63.74144
#
# Poissons Ratio (x) = 1.11395 0.09399
# Poissons Ratio (y) = 0.39525 0.23525
# Poissons Ratio (z) = 0.03450 0.24340
#
# Static dielectric constant tensor:
#      x y z
#    x 1.746750 0.000000 0.000000 
#    y 0.000000 1.705000 0.000000 
#    z 0.000000 0.000000 1.839140 
# 
# From -- ./inp_files/28865.got.cif
#   From: 2010.05.17/outbox.cif.g08.bks.cpg/sg66_15_cif.got.tgz:28865.got - 2010.06.03 17:51:23.
