data_PCOD9496172
_publ_section_title
;
Structure prediction by ZEFSAII (Michael W. Deem and Ramdas Pophale) SiO2 
 PCOD9496172
Probable space group: C C C M
;
_chemical_formula_sum "Si O2"
_cell_formula_units_Z 80
_cell_length_a 14.026646
_cell_length_b 16.003172
_cell_length_c 14.650979
_cell_angle_alpha 90.000000
_cell_angle_beta 90.000000
_cell_angle_gamma 90.000000
_cell_volume 3288.717395
_symmetry_space_group_name_H-M "C C C M"
_symmetry_group_IT_number 66
_symmetry_cell_setting 'orthorhombic'
loop_
_space_group_symop_operation_xyz
x,y,z
-x,-y,z
x,-y,1/2-z
-x,y,1/2-z
-x,-y,-z
x,y,-z
-x,y,1/2+z
x,-y,1/2+z
1/2+x,1/2+y,z
1/2-x,1/2-y,z
1/2+x,1/2-y,1/2-z
1/2-x,1/2+y,1/2-z
1/2-x,1/2-y,-z
1/2+x,1/2+y,-z
1/2-x,1/2+y,1/2+z
1/2+x,1/2-y,1/2+z
loop_
_atom_site_type_symbol
_atom_site_label
_atom_site_fract_x
_atom_site_fract_y
_atom_site_fract_z
Si Si1 0.345316 0.284373 0.603662
Si Si2 0.535309 0.870723 0.349682
Si Si3 0.998314 0.903934 0.611635
Si Si4 0.797779 0.162391 0.611470
Si Si5 0.148418 0.527094 0.604378
O O1 0.319018 0.309416 0.500000
O O2 0.250000 0.250000 0.649179
O O3 0.419414 0.208062 0.601774
O O4 0.402063 0.360700 0.646013
O O5 0.500000 0.846086 0.250000
O O6 0.443765 0.911966 0.397114
O O7 0.385979 0.055567 0.343699
O O8 0.995646 0.901411 0.500000
O O9 0.092785 0.852627 0.637708
O O10 0.000000 0.000000 0.638694
O O11 0.794170 0.161677 0.500000
O O12 0.734729 0.082697 0.640863
O O13 0.169678 0.501050 0.500000
O O14 0.250000 0.750000 0.639521
#
# Coordination Sequence:
#
# PCOD9496172 Si02
#       5
#    16  16  16  16  16
#     4  10  21  37  61  89 121 161 212 264 312 373
#     4  11  22  37  55  82 122 157 198 253 317 378
#     4   9  18  32  53  85 122 153 188 248 310 357
#     4   9  17  29  50  83 120 151 189 240 301 365
#     4  10  19  33  59  87 115 154 201 252 302 361
#
# _framework density 24.325592
#
# number of rings (size 3 to 8) (size 9 to 14) (size 15 to 20)
#    0.000    2.200    0.000    4.800    2.800    3.200 
#    0.000    3.000    0.000    0.600    0.000    0.000 
#    0.000    0.000    0.000    0.000    0.000    0.000 
#
# Total GULP energy -223777.942040 kJ/mol
# GULP energy per Si atom -5594.448551 kJ/mol
# Density = 2.427023 g / cm^3
# Si number density = 24.325592 Si / 1000 Ang^3
#
#
#
# Elastic Constant Matrix: (Units=GPa)
#
#
# Indices 1 2 3 4 5 6 
#
# 1 142.6621 66.9254 2.6922 0.0000 0.0000 0.0000
# 2 66.9254 118.4863 -6.5328 0.0000 0.0000 0.0000
# 3 2.6922 -6.5328 84.6072 0.0000 0.0000 0.0000
# 4 0.0000 0.0000 0.0000 12.5787 0.0000 0.0000
# 5 0.0000 0.0000 0.0000 0.0000 -23.0466 0.0000
# 6 0.0000 0.0000 0.0000 0.0000 0.0000 44.3312
#
#
#
# Elastic Compliance Matrix: (Units=1/GPa)
#
#
# Indices 1 2 3 4 5 6 
#
# 1 0.009581 -0.005452 -0.000726 0.000000 0.000000 0.000000
# 2 -0.005452 0.011578 0.001067 0.000000 0.000000 0.000000
# 3 -0.000726 0.001067 0.011925 0.000000 0.000000 0.000000
# 4 0.000000 0.000000 0.000000 0.079499 0.000000 0.000000
# 5 0.000000 0.000000 0.000000 0.000000 -0.043390 0.000000
# 6 0.000000 0.000000 0.000000 0.000000 0.000000 0.022558
#
#
# Mechanical properties :
#
#
# Convention : Reuss Voigt Hill
#
# Bulk Modulus (GPa) = 43.73761 52.43613 48.08687
# Shear Modulus (GPa) = 45.62427 25.61739 35.62083
#
# Velocity S-wave (km/s) = 4.33548 3.24868 3.83082
# Velocity P-wave (km/s) = 6.56361 5.97282 6.27517
#
# Compressibility (1/GPa) = 0.02286362
#
# Stress axis : x y z
#
# Youngs Moduli (GPa) = 104.37671 86.37162 83.85856
#
# Poissons Ratio (x) = 0.47086 0.06086
# Poissons Ratio (y) = 0.56901 -0.08951
# Poissons Ratio (z) = 0.07576 -0.09220
#
# Static dielectric constant tensor:
#      x y z
#    x 1.915510 0.000000 0.000000 
#    y 0.000000 1.884340 0.000000 
#    z 0.000000 0.000000 1.924970 
# 
# From -- ./inp_files/40435.got.cif
#   From: 2010.05.17/outbox.cif.g08.bks.cpg/sg66_21_cif.got.tgz:40435.got - 2010.06.03 17:51:23.
