data_PCOD9496783
_publ_section_title
;
Structure prediction by ZEFSAII (Michael W. Deem and Ramdas Pophale) SiO2 
 PCOD9496783
Probable space group: C C C M
;
_chemical_formula_sum "Si O2"
_cell_formula_units_Z 64
_cell_length_a 7.988870
_cell_length_b 15.132721
_cell_length_c 21.986141
_cell_angle_alpha 90.000000
_cell_angle_beta 90.000000
_cell_angle_gamma 90.000000
_cell_volume 2657.978037
_symmetry_space_group_name_H-M "C C C M"
_symmetry_group_IT_number 66
_symmetry_cell_setting 'orthorhombic'
loop_
_space_group_symop_operation_xyz
x,y,z
-x,-y,z
x,-y,1/2-z
-x,y,1/2-z
-x,-y,-z
x,y,-z
-x,y,1/2+z
x,-y,1/2+z
1/2+x,1/2+y,z
1/2-x,1/2-y,z
1/2+x,1/2-y,1/2-z
1/2-x,1/2+y,1/2-z
1/2-x,1/2-y,-z
1/2+x,1/2+y,-z
1/2-x,1/2+y,1/2+z
1/2+x,1/2-y,1/2+z
loop_
_atom_site_type_symbol
_atom_site_label
_atom_site_fract_x
_atom_site_fract_y
_atom_site_fract_z
Si Si1 0.665785 0.849131 0.168672
Si Si2 0.970186 0.092167 0.399424
Si Si3 0.057983 0.719178 0.934094
Si Si4 0.323896 0.654521 0.787182
O O1 0.750000 0.750000 0.171134
O O2 0.506198 0.834964 0.124876
O O3 0.686724 0.880488 0.238725
O O4 0.791231 0.911503 0.132704
O O5 0.966881 0.185510 0.433112
O O6 0.112306 0.103566 0.346568
O O7 0.000000 0.000000 0.432023
O O8 0.250000 0.750000 0.932496
O O9 0.026870 0.675167 0.000000
O O10 0.500000 0.665124 0.750000
O O11 0.250000 0.750000 0.803498
#
# Coordination Sequence:
#
# PCOD9496783 Si02
#       4
#    16  16  16  16
#     4   8  17  33  54  82 111 151 197 239 292 355
#     4  10  20  33  54  87 122 153 192 245 306 367
#     4  10  21  39  62  85 113 155 208 258 301 355
#     4   9  17  31  53  81 112 148 193 238 286 347
#
# _framework density 24.078451999999999
#
# number of rings (size 3 to 8) (size 9 to 14) (size 15 to 20)
#    0.000    2.750    0.000    2.250    0.000    9.500 
#    0.000    1.250    0.000    3.000    0.000   73.500 
#    0.000    0.000    0.000    0.000    0.000    0.000 
#
# Total GULP energy -178176.853819 kJ/mol
# GULP energy per Si atom -5568.026682 kJ/mol
# Density = 2.402365 g / cm^3
# Si number density = 24.078452 Si / 1000 Ang^3
#
#
#
# Elastic Constant Matrix: (Units=GPa)
#
#
# Indices 1 2 3 4 5 6 
#
# 1 105.6589 6.9657 53.4310 0.0000 0.0000 0.0000
# 2 6.9657 50.2881 -2.4912 0.0000 0.0000 0.0000
# 3 53.4310 -2.4912 173.5946 0.0000 0.0000 0.0000
# 4 0.0000 0.0000 0.0000 -3.8000 0.0000 0.0000
# 5 0.0000 0.0000 0.0000 0.0000 68.5557 0.0000
# 6 0.0000 0.0000 0.0000 0.0000 0.0000 13.0143
#
#
#
# Elastic Compliance Matrix: (Units=1/GPa)
#
#
# Indices 1 2 3 4 5 6 
#
# 1 0.011361 -0.001748 -0.003522 0.000000 0.000000 0.000000
# 2 -0.001748 0.020169 0.000827 0.000000 0.000000 0.000000
# 3 -0.003522 0.000827 0.006856 0.000000 0.000000 0.000000
# 4 0.000000 0.000000 0.000000 -0.263155 0.000000 0.000000
# 5 0.000000 0.000000 0.000000 0.000000 0.014587 0.000000
# 6 0.000000 0.000000 0.000000 0.000000 0.000000 0.076839
#
#
# Mechanical properties :
#
#
# Convention : Reuss Voigt Hill
#
# Bulk Modulus (GPa) = 33.89746 49.48363 41.69055
# Shear Modulus (GPa) = -43.62032 33.66306 -4.97863
#
# Velocity S-wave (km/s) = -4.26090 3.74312 -1.43950
# Velocity P-wave (km/s) = 3.17782 6.26712 3.81958
#
# Compressibility (1/GPa) = 0.02950074
#
# Stress axis : x y z
#
# Youngs Moduli (GPa) = 88.02339 49.58217 145.84905
#
# Poissons Ratio (x) = 0.08667 0.51365
# Poissons Ratio (y) = 0.15387 -0.12069
# Poissons Ratio (z) = 0.31000 -0.04103
#
# Static dielectric constant tensor:
#      x y z
#    x 2.022950 0.000000 0.000000 
#    y 0.000000 1.925260 0.000000 
#    z 0.000000 0.000000 2.050230 
# 
# From -- ./inp_files/54947.got.cif
#   From: 2010.05.17/outbox.cif.g08.bks.cpg/sg66_28_cif.got.tgz:54947.got - 2010.06.03 17:51:23.
