data_PCOD9496485
_publ_section_title
;
Structure prediction by ZEFSAII (Michael W. Deem and Ramdas Pophale) SiO2 
 PCOD9496485
Probable space group: C C C M
;
_chemical_formula_sum "Si O2"
_cell_formula_units_Z 68
_cell_length_a 18.087959
_cell_length_b 9.964449
_cell_length_c 17.986275
_cell_angle_alpha 90.000000
_cell_angle_beta 90.000000
_cell_angle_gamma 90.000000
_cell_volume 3241.784063
_symmetry_space_group_name_H-M "C C C M"
_symmetry_group_IT_number 66
_symmetry_cell_setting 'orthorhombic'
loop_
_space_group_symop_operation_xyz
x,y,z
-x,-y,z
x,-y,1/2-z
-x,y,1/2-z
-x,-y,-z
x,y,-z
-x,y,1/2+z
x,-y,1/2+z
1/2+x,1/2+y,z
1/2-x,1/2-y,z
1/2+x,1/2-y,1/2-z
1/2-x,1/2+y,1/2-z
1/2-x,1/2-y,-z
1/2+x,1/2+y,-z
1/2-x,1/2+y,1/2+z
1/2+x,1/2-y,1/2+z
loop_
_atom_site_type_symbol
_atom_site_label
_atom_site_fract_x
_atom_site_fract_y
_atom_site_fract_z
Si Si1 0.618946 0.690960 0.165716
Si Si2 0.642071 0.794433 0.326243
Si Si3 0.500000 0.500000 0.750000
Si Si4 0.229031 0.974440 0.838459
Si Si5 0.000408 0.340015 0.417585
O O1 0.643996 0.780313 0.236665
O O2 0.556628 0.588818 0.200106
O O3 0.686912 0.605216 0.132490
O O4 0.577970 0.780801 0.105857
O O5 0.688189 0.923709 0.353769
O O6 0.680503 0.658099 0.354491
O O7 0.559878 0.798024 0.356178
O O8 0.225141 0.000000 0.750000
O O9 0.021890 0.292371 0.500000
O O10 0.000000 0.500000 0.417849
#
# Coordination Sequence:
#
# PCOD9496485 Si02
#       5
#    16  16   4  16  16
#     4  11  19  37  64  89 126 155 203 263 317 366
#     4  10  19  36  60  89 118 154 198 252 313 359
#     4  12  16  36  60  96 120 148 196 266 304 376
#     4   9  19  34  58  93 121 145 192 258 312 369
#     4  11  25  41  56  83 124 167 210 251 299 371
#
# _framework density 20.976102999999998
#
# number of rings (size 3 to 8) (size 9 to 14) (size 15 to 20)
#    0.000    1.647    5.882    0.000    3.294    0.941 
#    0.000    8.824    0.000    2.824    0.000    0.000 
#    0.000    0.000    0.000    0.000    0.000    0.000 
#
# Total GULP energy -189730.487744 kJ/mol
# GULP energy per Si atom -5580.308463 kJ/mol
# Density = 2.092836 g / cm^3
# Si number density = 20.976103 Si / 1000 Ang^3
#
#
#
# Elastic Constant Matrix: (Units=GPa)
#
#
# Indices 1 2 3 4 5 6 
#
# 1 90.3558 48.0858 6.7628 0.0000 0.0000 0.0000
# 2 48.0858 85.9547 26.4847 0.0000 0.0000 0.0000
# 3 6.7628 26.4847 25.3712 0.0000 0.0000 0.0000
# 4 0.0000 0.0000 0.0000 -75.6100 0.0000 0.0000
# 5 0.0000 0.0000 0.0000 0.0000 -5.2079 0.0000
# 6 0.0000 0.0000 0.0000 0.0000 0.0000 60.7233
#
#
#
# Elastic Compliance Matrix: (Units=1/GPa)
#
#
# Indices 1 2 3 4 5 6 
#
# 1 0.016754 -0.011789 0.007840 0.000000 0.000000 0.000000
# 2 -0.011789 0.025445 -0.023419 0.000000 0.000000 0.000000
# 3 0.007840 -0.023419 0.061772 0.000000 0.000000 0.000000
# 4 0.000000 0.000000 0.000000 -0.013226 0.000000 0.000000
# 5 0.000000 0.000000 0.000000 0.000000 -0.192014 0.000000
# 6 0.000000 0.000000 0.000000 0.000000 0.000000 0.016468
#
#
# Mechanical properties :
#
#
# Convention : Reuss Voigt Hill
#
# Bulk Modulus (GPa) = 20.31052 40.48316 30.39684
# Shear Modulus (GPa) = -366.23504 4.00430 -181.11537
#
# Velocity S-wave (km/s) = -13.22782 1.38316 -9.30221
# Velocity P-wave (km/s) = 14.95315 4.67893 10.04252
#
# Compressibility (1/GPa) = 0.04923556
#
# Stress axis : x y z
#
# Youngs Moduli (GPa) = 59.68645 39.30046 16.18847
#
# Poissons Ratio (x) = 0.46329 -0.12692
# Poissons Ratio (y) = 0.70362 0.37913
# Poissons Ratio (z) = -0.46794 0.92039
#
# Static dielectric constant tensor:
#      x y z
#    x 1.783350 0.000000 0.000000 
#    y 0.000000 1.804820 0.000000 
#    z 0.000000 0.000000 1.701790 
# 
# From -- ./inp_files/46730.got.cif
#   From: 2010.05.17/outbox.cif.g08.bks.cpg/sg66_24_cif.got.tgz:46730.got - 2010.06.03 17:51:23.
