data_PCOD9496349
_publ_section_title
;
Structure prediction by ZEFSAII (Michael W. Deem and Ramdas Pophale) SiO2 
 PCOD9496349
Probable space group: C C C M
;
_chemical_formula_sum "Si O2"
_cell_formula_units_Z 116
_cell_length_a 22.637142
_cell_length_b 27.350560
_cell_length_c 9.406130
_cell_angle_alpha 90.000000
_cell_angle_beta 90.000000
_cell_angle_gamma 90.000000
_cell_volume 5823.697318
_symmetry_space_group_name_H-M "C C C M"
_symmetry_group_IT_number 66
_symmetry_cell_setting 'orthorhombic'
loop_
_space_group_symop_operation_xyz
x,y,z
-x,-y,z
x,-y,1/2-z
-x,y,1/2-z
-x,-y,-z
x,y,-z
-x,y,1/2+z
x,-y,1/2+z
1/2+x,1/2+y,z
1/2-x,1/2-y,z
1/2+x,1/2-y,1/2-z
1/2-x,1/2+y,1/2-z
1/2-x,1/2-y,-z
1/2+x,1/2+y,-z
1/2-x,1/2+y,1/2+z
1/2+x,1/2-y,1/2+z
loop_
_atom_site_type_symbol
_atom_site_label
_atom_site_fract_x
_atom_site_fract_y
_atom_site_fract_z
Si Si1 0.940554 0.250790 0.334212
Si Si2 0.127599 0.651739 0.335356
Si Si3 0.000000 0.000000 0.250000
Si Si4 0.263035 0.142133 0.334733
Si Si5 0.231265 0.047197 0.837074
Si Si6 0.871964 0.828292 0.334156
Si Si7 0.936361 0.549037 0.827307
Si Si8 0.904373 0.921383 0.842407
O O1 0.946440 0.238969 0.500000
O O2 0.922974 0.307577 0.321966
O O3 0.892331 0.216497 0.261153
O O4 0.000000 0.240986 0.250000
O O5 0.147708 0.652024 0.500000
O O6 0.180697 0.668026 0.233159
O O7 0.102509 0.597685 0.303407
O O8 0.955115 0.962183 0.173457
O O9 0.273097 0.131432 0.500000
O O10 0.257335 0.093541 0.241599
O O11 0.198951 0.166833 0.323058
O O12 0.159891 0.053044 0.834016
O O13 0.248293 0.000000 0.750000
O O14 0.250261 0.044703 0.000000
O O15 0.887269 0.822336 0.500000
O O16 0.902065 0.878125 0.273345
O O17 0.912033 0.500000 0.750000
O O18 0.000000 0.556493 0.750000
O O19 0.942373 0.542559 0.000000
O O20 0.909303 0.899006 0.000000
#
# Coordination Sequence:
#
# PCOD9496349 Si02
#       8
#    16  16   4  16  16  16  16  16
#     4  11  24  43  67  93 122 159 202 248 306 363
#     4  10  23  41  62  91 125 161 201 248 300 363
#     4  12  22  36  56  90 122 156 212 254 306 360
#     4  10  22  39  61  88 118 157 201 250 305 361
#     4  10  19  35  56  79 112 155 200 247 301 360
#     4  10  23  43  64  88 121 159 204 256 307 365
#     4  10  20  36  59  89 125 163 202 243 296 356
#     4  10  22  37  56  83 117 158 201 251 307 360
#
# _framework density 19.918617000000001
#
# number of rings (size 3 to 8) (size 9 to 14) (size 15 to 20)
#    0.000    1.793    0.690    3.103    0.966    6.621 
#    0.000    4.138    0.000    0.000    0.000    0.000 
#    0.000    0.000    0.000    0.000    0.000    0.000 
#
# Total GULP energy -323804.525962 kJ/mol
# GULP energy per Si atom -5582.836655 kJ/mol
# Density = 1.987328 g / cm^3
# Si number density = 19.918617 Si / 1000 Ang^3
#
#
#
# Elastic Constant Matrix: (Units=GPa)
#
#
# Indices 1 2 3 4 5 6 
#
# 1 50.6491 10.1527 41.4663 0.0000 0.0000 0.0000
# 2 10.1527 72.1120 49.5524 0.0000 0.0000 0.0000
# 3 41.4663 49.5524 151.4945 0.0000 0.0000 0.0000
# 4 0.0000 0.0000 0.0000 33.5786 0.0000 0.0000
# 5 0.0000 0.0000 0.0000 0.0000 24.8214 0.0000
# 6 0.0000 0.0000 0.0000 0.0000 0.0000 -49.1589
#
#
#
# Elastic Compliance Matrix: (Units=1/GPa)
#
#
# Indices 1 2 3 4 5 6 
#
# 1 0.025581 0.001561 -0.007512 0.000000 0.000000 0.000000
# 2 0.001561 0.017983 -0.006309 0.000000 0.000000 0.000000
# 3 -0.007512 -0.006309 0.010721 0.000000 0.000000 0.000000
# 4 0.000000 0.000000 0.000000 0.029781 0.000000 0.000000
# 5 0.000000 0.000000 0.000000 0.000000 0.040288 0.000000
# 6 0.000000 0.000000 0.000000 0.000000 0.000000 -0.020342
#
#
# Mechanical properties :
#
#
# Convention : Reuss Voigt Hill
#
# Bulk Modulus (GPa) = 33.59868 52.95538 43.27703
# Shear Modulus (GPa) = 36.11286 13.38716 24.75001
#
# Velocity S-wave (km/s) = 4.26258 2.59529 3.52882
# Velocity P-wave (km/s) = 6.41332 5.96861 6.19496
#
# Compressibility (1/GPa) = 0.02976307
#
# Stress axis : x y z
#
# Youngs Moduli (GPa) = 39.09109 55.60791 93.27609
#
# Poissons Ratio (x) = -0.08678 0.70073
# Poissons Ratio (y) = -0.06101 0.58850
# Poissons Ratio (z) = 0.29367 0.35084
#
# Static dielectric constant tensor:
#      x y z
#    x 1.712700 0.000000 0.000000 
#    y 0.000000 1.733730 0.000000 
#    z 0.000000 0.000000 1.676640 
# 
# From -- ./inp_files/9444.got.cif
#   From: 2010.05.17/outbox.cif.g08.bks.cpg/sg66_5_cif.got.tgz:9444.got - 2010.06.03 17:51:23.
