data_PCOD9496293
_publ_section_title
;
Structure prediction by ZEFSAII (Michael W. Deem and Ramdas Pophale) SiO2 
 PCOD9496293
Probable space group: C C C M
;
_chemical_formula_sum "Si O2"
_cell_formula_units_Z 64
_cell_length_a 21.698018
_cell_length_b 8.732328
_cell_length_c 15.971557
_cell_angle_alpha 90.000000
_cell_angle_beta 90.000000
_cell_angle_gamma 90.000000
_cell_volume 3026.198147
_symmetry_space_group_name_H-M "C C C M"
_symmetry_group_IT_number 66
_symmetry_cell_setting 'orthorhombic'
loop_
_space_group_symop_operation_xyz
x,y,z
-x,-y,z
x,-y,1/2-z
-x,y,1/2-z
-x,-y,-z
x,y,-z
-x,y,1/2+z
x,-y,1/2+z
1/2+x,1/2+y,z
1/2-x,1/2-y,z
1/2+x,1/2-y,1/2-z
1/2-x,1/2+y,1/2-z
1/2-x,1/2-y,-z
1/2+x,1/2+y,-z
1/2-x,1/2+y,1/2+z
1/2+x,1/2-y,1/2+z
loop_
_atom_site_type_symbol
_atom_site_label
_atom_site_fract_x
_atom_site_fract_y
_atom_site_fract_z
Si Si1 0.062385 0.431526 0.344880
Si Si2 0.312047 0.061789 0.844022
Si Si3 0.180150 0.892960 0.405303
Si Si4 0.563388 0.567061 0.655982
O O1 0.064289 0.500000 0.250000
O O2 0.127353 0.484163 0.382935
O O3 0.059112 0.249396 0.341480
O O4 0.000000 0.500000 0.383951
O O5 0.247348 0.035471 0.889961
O O6 0.324111 0.244619 0.845439
O O7 0.304474 0.000000 0.750000
O O8 0.177289 0.833986 0.500000
O O9 0.124443 0.007778 0.389380
O O10 0.500000 0.500000 0.618523
O O11 0.567251 0.500000 0.750000
#
# Coordination Sequence:
#
# PCOD9496293 Si02
#       4
#    16  16  16  16
#     4  10  19  34  58  90 121 150 197 261 313 354
#     4  10  20  37  63  90 118 159 208 252 302 368
#     4  11  24  42  62  90 130 167 202 255 321 375
#     4  11  21  37  64  93 122 163 216 263 304 367
#
# _framework density 21.148648999999999
#
# number of rings (size 3 to 8) (size 9 to 14) (size 15 to 20)
#    0.000    1.500    0.000    9.750    0.000    5.500 
#    0.000    3.750    0.000    5.250    0.000    0.000 
#    0.000    0.000    0.000    0.000    0.000    0.000 
#
# Total GULP energy -178801.617902 kJ/mol
# GULP energy per Si atom -5587.550559 kJ/mol
# Density = 2.110051 g / cm^3
# Si number density = 21.148649 Si / 1000 Ang^3
#
#
#
# Elastic Constant Matrix: (Units=GPa)
#
#
# Indices 1 2 3 4 5 6 
#
# 1 212.8544 100.1240 12.6178 0.0000 0.0000 0.0000
# 2 100.1240 172.6882 27.4387 0.0000 0.0000 0.0000
# 3 12.6178 27.4387 52.0398 0.0000 0.0000 0.0000
# 4 0.0000 0.0000 0.0000 6.9349 0.0000 0.0000
# 5 0.0000 0.0000 0.0000 0.0000 -33.7775 0.0000
# 6 0.0000 0.0000 0.0000 0.0000 0.0000 29.8749
#
#
#
# Elastic Compliance Matrix: (Units=1/GPa)
#
#
# Indices 1 2 3 4 5 6 
#
# 1 0.006469 -0.003822 0.000447 0.000000 0.000000 0.000000
# 2 -0.003822 0.008578 -0.003596 0.000000 0.000000 0.000000
# 3 0.000447 -0.003596 0.021004 0.000000 0.000000 0.000000
# 4 0.000000 0.000000 0.000000 0.144198 0.000000 0.000000
# 5 0.000000 0.000000 0.000000 0.000000 -0.029605 0.000000
# 6 0.000000 0.000000 0.000000 0.000000 0.000000 0.033473
#
#
# Mechanical properties :
#
#
# Convention : Reuss Voigt Hill
#
# Bulk Modulus (GPa) = 45.23194 79.77147 62.50171
# Shear Modulus (GPa) = 24.33929 20.43326 22.38628
#
# Velocity S-wave (km/s) = 3.39612 3.11171 3.25702
# Velocity P-wave (km/s) = 6.06731 7.12121 6.61528
#
# Compressibility (1/GPa) = 0.02210827
#
# Stress axis : x y z
#
# Youngs Moduli (GPa) = 154.57577 116.57616 47.61004
#
# Poissons Ratio (x) = 0.44554 -0.02126
# Poissons Ratio (y) = 0.59076 0.17122
# Poissons Ratio (z) = -0.06902 0.41924
#
# Static dielectric constant tensor:
#      x y z
#    x 1.822140 0.000000 0.000000 
#    y 0.000000 1.719510 0.000000 
#    z 0.000000 0.000000 1.752360 
# 
# From -- ./inp_files/31884.got.cif
#   From: 2010.05.17/outbox.cif.g08.bks.cpg/sg66_16_cif.got.tgz:31884.got - 2010.06.03 17:51:23.
