data_PCOD9496115
_publ_section_title
;
Structure prediction by ZEFSAII (Michael W. Deem and Ramdas Pophale) SiO2 
 PCOD9496115
Probable space group: C C C M
;
_chemical_formula_sum "Si O2"
_cell_formula_units_Z 80
_cell_length_a 8.790634
_cell_length_b 29.396279
_cell_length_c 16.627179
_cell_angle_alpha 90.000000
_cell_angle_beta 90.000000
_cell_angle_gamma 90.000000
_cell_volume 4296.661410
_symmetry_space_group_name_H-M "C C C M"
_symmetry_group_IT_number 66
_symmetry_cell_setting 'orthorhombic'
loop_
_space_group_symop_operation_xyz
x,y,z
-x,-y,z
x,-y,1/2-z
-x,y,1/2-z
-x,-y,-z
x,y,-z
-x,y,1/2+z
x,-y,1/2+z
1/2+x,1/2+y,z
1/2-x,1/2-y,z
1/2+x,1/2-y,1/2-z
1/2-x,1/2+y,1/2-z
1/2-x,1/2-y,-z
1/2+x,1/2+y,-z
1/2-x,1/2+y,1/2+z
1/2+x,1/2-y,1/2+z
loop_
_atom_site_type_symbol
_atom_site_label
_atom_site_fract_x
_atom_site_fract_y
_atom_site_fract_z
Si Si1 0.835537 0.795468 0.597747
Si Si2 0.321213 0.446598 0.737981
Si Si3 0.315134 0.699301 0.594982
Si Si4 0.108674 0.623301 0.673824
Si Si5 0.691570 0.107436 0.907271
O O1 0.838516 0.792085 0.500000
O O2 0.750000 0.750000 0.627416
O O3 0.748939 0.842033 0.617400
O O4 0.010322 0.799616 0.623937
O O5 0.293224 0.500000 0.750000
O O6 0.500000 0.437800 0.750000
O O7 0.220258 0.416948 0.798934
O O8 0.269316 0.429099 0.650544
O O9 0.313753 0.686201 0.500000
O O10 0.250000 0.750000 0.600385
O O11 0.209489 0.665074 0.643921
O O12 0.000000 0.634487 0.750000
O O13 0.989263 0.607569 0.606346
O O14 0.730977 0.100441 0.000000
#
# Coordination Sequence:
#
# PCOD9496115 Si02
#       5
#    16  16  16  16  16
#     4   9  17  30  52  82 114 145 178 223 273 318
#     4  10  22  42  62  81 111 148 183 229 289 341
#     4  10  19  33  55  82 113 148 188 229 269 320
#     4  10  21  36  55  81 112 148 184 227 279 333
#     4  10  20  36  59  86 115 147 188 231 274 330
#
# _framework density 18.619105999999999
#
# number of rings (size 3 to 8) (size 9 to 14) (size 15 to 20)
#    0.000    2.200    0.000    3.000    0.000    6.800 
#    0.000   15.000    0.000    0.000    0.000    0.000 
#    0.000    0.000    0.000    0.000    0.000    0.200 
#
# Total GULP energy -223330.716397 kJ/mol
# GULP energy per Si atom -5583.267910 kJ/mol
# Density = 1.857673 g / cm^3
# Si number density = 18.619106 Si / 1000 Ang^3
#
#
#
# Elastic Constant Matrix: (Units=GPa)
#
#
# Indices 1 2 3 4 5 6 
#
# 1 157.0477 94.8629 42.6953 0.0000 0.0000 0.0000
# 2 94.8629 138.3910 64.5344 0.0000 0.0000 0.0000
# 3 42.6953 64.5344 47.3940 0.0000 0.0000 0.0000
# 4 0.0000 0.0000 0.0000 27.9908 0.0000 0.0000
# 5 0.0000 0.0000 0.0000 0.0000 17.0844 0.0000
# 6 0.0000 0.0000 0.0000 0.0000 0.0000 32.9789
#
#
#
# Elastic Compliance Matrix: (Units=1/GPa)
#
#
# Indices 1 2 3 4 5 6 
#
# 1 0.010883 -0.007912 0.000970 0.000000 0.000000 0.000000
# 2 -0.007912 0.025548 -0.027659 0.000000 0.000000 0.000000
# 3 0.000970 -0.027659 0.057889 0.000000 0.000000 0.000000
# 4 0.000000 0.000000 0.000000 0.035726 0.000000 0.000000
# 5 0.000000 0.000000 0.000000 0.000000 0.058533 0.000000
# 6 0.000000 0.000000 0.000000 0.000000 0.000000 0.030322
#
#
# Mechanical properties :
#
#
# Convention : Reuss Voigt Hill
#
# Bulk Modulus (GPa) = 39.81590 83.00199 61.40895
# Shear Modulus (GPa) = 16.86475 24.99348 20.92911
#
# Velocity S-wave (km/s) = 3.01288 3.66779 3.35635
# Velocity P-wave (km/s) = 5.79086 7.91282 6.93350
#
# Compressibility (1/GPa) = 0.02511559
#
# Stress axis : x y z
#
# Youngs Moduli (GPa) = 91.88465 39.14274 17.27454
#
# Poissons Ratio (x) = 0.30971 -0.01675
# Poissons Ratio (y) = 0.72701 0.47780
# Poissons Ratio (z) = -0.08908 1.08266
#
# Static dielectric constant tensor:
#      x y z
#    x 1.641640 0.000000 0.000000 
#    y 0.000000 1.602770 0.000000 
#    z 0.000000 0.000000 1.665750 
# 
# From -- ./inp_files/37141.got.cif
#   From: 2010.05.17/outbox.cif.g08.bks.cpg/sg66_19_cif.got.tgz:37141.got - 2010.06.03 17:51:23.
