data_PCOD9496306
_publ_section_title
;
Structure prediction by ZEFSAII (Michael W. Deem and Ramdas Pophale) SiO2 
 PCOD9496306
Probable space group: C C C M
;
_chemical_formula_sum "Si O2"
_cell_formula_units_Z 96
_cell_length_a 16.142533
_cell_length_b 10.783299
_cell_length_c 27.480828
_cell_angle_alpha 90.000000
_cell_angle_beta 90.000000
_cell_angle_gamma 90.000000
_cell_volume 4783.581133
_symmetry_space_group_name_H-M "C C C M"
_symmetry_group_IT_number 66
_symmetry_cell_setting 'orthorhombic'
loop_
_space_group_symop_operation_xyz
x,y,z
-x,-y,z
x,-y,1/2-z
-x,y,1/2-z
-x,-y,-z
x,y,-z
-x,y,1/2+z
x,-y,1/2+z
1/2+x,1/2+y,z
1/2-x,1/2-y,z
1/2+x,1/2-y,1/2-z
1/2-x,1/2+y,1/2-z
1/2-x,1/2-y,-z
1/2+x,1/2+y,-z
1/2-x,1/2+y,1/2+z
1/2+x,1/2-y,1/2+z
loop_
_atom_site_type_symbol
_atom_site_label
_atom_site_fract_x
_atom_site_fract_y
_atom_site_fract_z
Si Si1 0.059918 0.710607 0.054749
Si Si2 0.151832 0.280751 0.831096
Si Si3 0.686799 0.864411 0.268847
Si Si4 0.932334 0.895561 0.097508
Si Si5 0.144324 0.453929 0.625887
Si Si6 0.199640 0.923197 0.055670
O O1 0.072251 0.604824 0.094094
O O2 0.139148 0.804095 0.059411
O O3 0.980064 0.793201 0.066061
O O4 0.058012 0.662845 0.000000
O O5 0.250000 0.250000 0.830501
O O6 0.129612 0.319291 0.775948
O O7 0.103793 0.166628 0.854163
O O8 0.138745 0.400157 0.864874
O O9 0.750000 0.750000 0.275657
O O10 0.647388 0.891410 0.320976
O O11 0.721399 0.000000 0.250000
O O12 0.859427 0.960098 0.067135
O O13 0.000000 0.000000 0.109538
O O14 0.228249 0.425603 0.595513
O O15 0.231317 0.927475 0.000000
#
# Coordination Sequence:
#
# PCOD9496306 Si02
#       6
#    16  16  16  16  16  16
#     4  10  21  36  56  85 122 160 199 245 306 364
#     4  10  20  39  61  86 117 156 201 252 301 359
#     4   9  19  34  58  89 120 157 198 250 309 360
#     4  10  21  39  61  85 120 163 200 244 305 360
#     4  11  20  35  60  88 120 156 200 250 302 361
#     4  10  19  34  59  88 121 161 205 248 296 360
#
# _framework density 20.068646999999999
#
# number of rings (size 3 to 8) (size 9 to 14) (size 15 to 20)
#    0.000    2.000    1.667    2.500    0.000    4.000 
#    0.000    5.833    0.000   10.000    0.000    0.000 
#    0.000    0.000    0.000    0.000    0.000    0.000 
#
# Total GULP energy -267986.576862 kJ/mol
# GULP energy per Si atom -5583.053685 kJ/mol
# Density = 2.002297 g / cm^3
# Si number density = 20.068647 Si / 1000 Ang^3
#
#
#
# Elastic Constant Matrix: (Units=GPa)
#
#
# Indices 1 2 3 4 5 6 
#
# 1 40.1470 16.7030 34.1747 0.0000 0.0000 0.0000
# 2 16.7030 88.1480 56.9090 0.0000 0.0000 0.0000
# 3 34.1747 56.9090 150.6374 0.0000 0.0000 0.0000
# 4 0.0000 0.0000 0.0000 14.3288 0.0000 0.0000
# 5 0.0000 0.0000 0.0000 0.0000 17.3271 0.0000
# 6 0.0000 0.0000 0.0000 0.0000 0.0000 29.9079
#
#
#
# Elastic Compliance Matrix: (Units=1/GPa)
#
#
# Indices 1 2 3 4 5 6 
#
# 1 0.031077 -0.001768 -0.006382 0.000000 0.000000 0.000000
# 2 -0.001768 0.015105 -0.005305 0.000000 0.000000 0.000000
# 3 -0.006382 -0.005305 0.010091 0.000000 0.000000 0.000000
# 4 0.000000 0.000000 0.000000 0.069789 0.000000 0.000000
# 5 0.000000 0.000000 0.000000 0.000000 0.057713 0.000000
# 6 0.000000 0.000000 0.000000 0.000000 0.000000 0.033436
#
#
# Mechanical properties :
#
#
# Convention : Reuss Voigt Hill
#
# Bulk Modulus (GPa) = 34.05905 54.94510 44.50207
# Shear Modulus (GPa) = 19.69208 23.72248 21.70728
#
# Velocity S-wave (km/s) = 3.13587 3.44185 3.29241
# Velocity P-wave (km/s) = 5.48814 6.57519 6.05610
#
# Compressibility (1/GPa) = 0.02936078
#
# Stress axis : x y z
#
# Youngs Moduli (GPa) = 32.17814 66.20446 99.10157
#
# Poissons Ratio (x) = 0.11706 0.63250
# Poissons Ratio (y) = 0.05690 0.52576
# Poissons Ratio (z) = 0.20537 0.35123
#
# Static dielectric constant tensor:
#      x y z
#    x 1.711300 0.000000 0.000000 
#    y 0.000000 1.730690 0.000000 
#    z 0.000000 0.000000 1.689960 
# 
# From -- ./inp_files/58768.got.cif
#   From: 2010.05.17/outbox.cif.g08.bks.cpg/sg66_30_cif.got.tgz:58768.got - 2010.06.03 17:51:23.
