data_PCOD9496030
_publ_section_title
;
Structure prediction by ZEFSAII (Michael W. Deem and Ramdas Pophale) SiO2 
 PCOD9496030
Probable space group: C C C M
;
_chemical_formula_sum "Si O2"
_cell_formula_units_Z 88
_cell_length_a 7.442844
_cell_length_b 20.165906
_cell_length_c 25.240062
_cell_angle_alpha 90.000000
_cell_angle_beta 90.000000
_cell_angle_gamma 90.000000
_cell_volume 3788.323624
_symmetry_space_group_name_H-M "C C C M"
_symmetry_group_IT_number 66
_symmetry_cell_setting 'orthorhombic'
loop_
_space_group_symop_operation_xyz
x,y,z
-x,-y,z
x,-y,1/2-z
-x,y,1/2-z
-x,-y,-z
x,y,-z
-x,y,1/2+z
x,-y,1/2+z
1/2+x,1/2+y,z
1/2-x,1/2-y,z
1/2+x,1/2-y,1/2-z
1/2-x,1/2+y,1/2-z
1/2-x,1/2-y,-z
1/2+x,1/2+y,-z
1/2-x,1/2+y,1/2+z
1/2+x,1/2-y,1/2+z
loop_
_atom_site_type_symbol
_atom_site_label
_atom_site_fract_x
_atom_site_fract_y
_atom_site_fract_z
Si Si1 0.738800 0.642345 0.799712
Si Si2 0.685768 0.541331 0.057904
Si Si3 0.296967 0.997902 0.329316
Si Si4 0.826169 0.645574 0.686505
Si Si5 0.750000 0.750000 0.402836
Si Si6 0.386499 0.308283 0.912232
O O1 0.694935 0.563354 0.802109
O O2 0.727358 0.669682 0.740151
O O3 0.637430 0.679096 0.847846
O O4 0.956365 0.642669 0.808259
O O5 0.500000 0.500000 0.061927
O O6 0.798695 0.520581 0.108777
O O7 0.650645 0.619816 0.063569
O O8 0.764531 0.527449 0.000000
O O9 0.239580 0.073482 0.323747
O O10 0.500000 0.000000 0.308458
O O11 0.804236 0.690889 0.636116
O O12 0.577363 0.720073 0.430616
O O13 0.250000 0.250000 0.925836
#
# Coordination Sequence:
#
# PCOD9496030 Si02
#       6
#    16  16  16  16   8  16
#     4   9  19  34  56  83 122 164 202 247 290 353
#     4  10  22  42  66  89 118 155 203 264 321 372
#     4   9  18  35  59  87 118 154 197 250 301 357
#     4  10  19  32  55  88 123 161 205 239 294 362
#     4  12  24  34  59  86 120 166 199 246 304 364
#     4  11  23  42  62  88 127 165 205 255 310 369
#
# _framework density 23.229274
#
# number of rings (size 3 to 8) (size 9 to 14) (size 15 to 20)
#    0.000    2.000    1.818    1.636    1.273    3.636 
#    0.000    0.455    0.000    3.273    0.000    0.000 
#    0.000    0.000    0.000    0.000    0.000    0.000 
#
# Total GULP energy -245697.758272 kJ/mol
# GULP energy per Si atom -5584.039961 kJ/mol
# Density = 2.317640 g / cm^3
# Si number density = 23.229274 Si / 1000 Ang^3
#
#
#
# Elastic Constant Matrix: (Units=GPa)
#
#
# Indices 1 2 3 4 5 6 
#
# 1 68.2590 19.3445 3.3050 0.0000 0.0000 0.0000
# 2 19.3445 121.0168 5.7149 0.0000 0.0000 0.0000
# 3 3.3050 5.7149 100.9185 0.0000 0.0000 0.0000
# 4 0.0000 0.0000 0.0000 -685.9161 0.0000 0.0000
# 5 0.0000 0.0000 0.0000 0.0000 -8.3649 0.0000
# 6 0.0000 0.0000 0.0000 0.0000 0.0000 20.8323
#
#
#
# Elastic Compliance Matrix: (Units=1/GPa)
#
#
# Indices 1 2 3 4 5 6 
#
# 1 0.015359 -0.002438 -0.000365 0.000000 0.000000 0.000000
# 2 -0.002438 0.008672 -0.000411 0.000000 0.000000 0.000000
# 3 -0.000365 -0.000411 0.009944 0.000000 0.000000 0.000000
# 4 0.000000 0.000000 0.000000 -0.001458 0.000000 0.000000
# 5 0.000000 0.000000 0.000000 0.000000 -0.119547 0.000000
# 6 0.000000 0.000000 0.000000 0.000000 0.000000 0.048002
#
#
# Mechanical properties :
#
#
# Convention : Reuss Voigt Hill
#
# Bulk Modulus (GPa) = 36.30134 38.54701 37.42418
# Shear Modulus (GPa) = -213.52094 -117.23440 -165.37767
#
# Velocity S-wave (km/s) = -9.59784 -7.11182 -8.44679
# Velocity P-wave (km/s) = 10.35197 7.12791 8.88736
#
# Compressibility (1/GPa) = 0.02754719
#
# Stress axis : x y z
#
# Youngs Moduli (GPa) = 65.11000 115.30802 100.56091
#
# Poissons Ratio (x) = 0.28110 0.03670
# Poissons Ratio (y) = 0.15873 0.04136
# Poissons Ratio (z) = 0.02376 0.04742
#
# Static dielectric constant tensor:
#      x y z
#    x 1.903530 0.000000 0.000000 
#    y 0.000000 1.878330 0.000000 
#    z 0.000000 0.000000 1.888230 
# 
# From -- ./inp_files/68190.got.cif
#   From: 2010.05.17/outbox.cif.g08.bks.cpg/sg66_35_cif.got.tgz:68190.got - 2010.06.03 17:51:23.
