data_PCOD9496589
_publ_section_title
;
Structure prediction by ZEFSAII (Michael W. Deem and Ramdas Pophale) SiO2 
 PCOD9496589
Probable space group: C C C M
;
_chemical_formula_sum "Si O2"
_cell_formula_units_Z 104
_cell_length_a 7.572543
_cell_length_b 25.737599
_cell_length_c 24.821630
_cell_angle_alpha 90.000000
_cell_angle_beta 90.000000
_cell_angle_gamma 90.000000
_cell_volume 4837.712731
_symmetry_space_group_name_H-M "C C C M"
_symmetry_group_IT_number 66
_symmetry_cell_setting 'orthorhombic'
loop_
_space_group_symop_operation_xyz
x,y,z
-x,-y,z
x,-y,1/2-z
-x,y,1/2-z
-x,-y,-z
x,y,-z
-x,y,1/2+z
x,-y,1/2+z
1/2+x,1/2+y,z
1/2-x,1/2-y,z
1/2+x,1/2-y,1/2-z
1/2-x,1/2+y,1/2-z
1/2-x,1/2-y,-z
1/2+x,1/2+y,-z
1/2-x,1/2+y,1/2+z
1/2+x,1/2-y,1/2+z
loop_
_atom_site_type_symbol
_atom_site_label
_atom_site_fract_x
_atom_site_fract_y
_atom_site_fract_z
Si Si1 0.459103 0.749940 0.620796
Si Si2 0.449566 0.896736 0.500000
Si Si3 0.466555 0.439422 0.117380
Si Si4 0.042422 0.559618 0.385982
Si Si5 0.538255 0.848576 0.187126
Si Si6 0.037602 0.847326 0.687670
Si Si7 0.552251 0.773375 0.500000
Si Si8 0.463406 0.563174 0.500000
O O1 0.250000 0.750000 0.631069
O O2 0.530620 0.800870 0.651073
O O3 0.531179 0.698571 0.649429
O O4 0.480095 0.752382 0.556825
O O5 0.520612 0.922188 0.445039
O O6 0.501061 0.835402 0.500000
O O7 0.238475 0.913116 0.500000
O O8 0.500000 0.500000 0.126376
O O9 0.254581 0.435278 0.113359
O O10 0.530186 0.401984 0.164574
O O11 0.537111 0.421391 0.058569
O O12 0.973786 0.598064 0.339867
O O13 0.000000 0.500000 0.376484
O O14 0.500000 0.843130 0.250000
O O15 0.750513 0.848519 0.182574
O O16 0.000000 0.838293 0.750000
O O17 0.750000 0.750000 0.500000
O O18 0.500000 0.500000 0.500000
#
# Coordination Sequence:
#
# PCOD9496589 Si02
#       8
#    16   8  16  16  16  16   8   8
#     4  10  22  42  65  87 117 163 206 252 315 377
#     4  10  19  39  62  83 129 161 197 262 324 376
#     4   9  19  36  56  87 121 152 196 255 308 367
#     4  10  20  36  61  85 113 159 203 243 309 379
#     4  10  21  38  61  85 117 158 205 254 306 368
#     4  10  22  38  59  88 118 158 207 251 314 371
#     4  12  25  41  62  97 130 163 205 259 323 380
#     4   8  16  32  62  89 115 158 208 251 310 387
#
# _framework density 21.497762000000002
#
# number of rings (size 3 to 8) (size 9 to 14) (size 15 to 20)
#    0.000    2.154    1.538    0.923    2.154    3.692 
#    2.769    3.077    0.000    0.000    0.000    0.000 
#    0.000    0.000    0.000    0.000    0.000    0.000 
#
# Total GULP energy -290012.735194 kJ/mol
# GULP energy per Si atom -5577.167984 kJ/mol
# Density = 2.144883 g / cm^3
# Si number density = 21.497762 Si / 1000 Ang^3
#
#
#
# Elastic Constant Matrix: (Units=GPa)
#
#
# Indices 1 2 3 4 5 6 
#
# 1 60.5357 17.6929 -3.4494 0.0000 0.0000 0.0000
# 2 17.6929 158.5673 98.3320 0.0000 0.0000 0.0000
# 3 -3.4494 98.3320 180.5888 0.0000 0.0000 0.0000
# 4 0.0000 0.0000 0.0000 26.5712 0.0000 0.0000
# 5 0.0000 0.0000 0.0000 0.0000 21.5990 0.0000
# 6 0.0000 0.0000 0.0000 0.0000 0.0000 18.7706
#
#
#
# Elastic Compliance Matrix: (Units=1/GPa)
#
#
# Indices 1 2 3 4 5 6 
#
# 1 0.017599 -0.003279 0.002122 0.000000 0.000000 0.000000
# 2 -0.003279 0.010133 -0.005580 0.000000 0.000000 0.000000
# 3 0.002122 -0.005580 0.008616 0.000000 0.000000 0.000000
# 4 0.000000 0.000000 0.000000 0.037635 0.000000 0.000000
# 5 0.000000 0.000000 0.000000 0.000000 0.046298 0.000000
# 6 0.000000 0.000000 0.000000 0.000000 0.000000 0.053275
#
#
# Mechanical properties :
#
#
# Convention : Reuss Voigt Hill
#
# Bulk Modulus (GPa) = 43.72084 69.42699 56.57392
# Shear Modulus (GPa) = 25.68653 32.52927 29.10790
#
# Velocity S-wave (km/s) = 3.46041 3.89414 3.68366
# Velocity P-wave (km/s) = 6.02888 7.25150 6.66827
#
# Compressibility (1/GPa) = 0.02287239
#
# Stress axis : x y z
#
# Youngs Moduli (GPa) = 56.82280 98.69056 116.05902
#
# Poissons Ratio (x) = 0.32365 -0.24626
# Poissons Ratio (y) = 0.18635 0.64761
# Poissons Ratio (z) = -0.12057 0.55069
#
# Static dielectric constant tensor:
#      x y z
#    x 1.912770 0.000000 0.000000 
#    y 0.000000 1.812670 0.000000 
#    z 0.000000 0.000000 1.767160 
# 
# From -- ./inp_files/47459.got.cif
#   From: 2010.05.17/outbox.cif.g08.bks.cpg/sg66_24_cif.got.tgz:47459.got - 2010.06.03 17:51:23.
