data_PCOD9496735
_publ_section_title
;
Structure prediction by ZEFSAII (Michael W. Deem and Ramdas Pophale) SiO2 
 PCOD9496735
Probable space group: C C C M
;
_chemical_formula_sum "Si O2"
_cell_formula_units_Z 116
_cell_length_a 25.891115
_cell_length_b 26.561439
_cell_length_c 9.227871
_cell_angle_alpha 90.000000
_cell_angle_beta 90.000000
_cell_angle_gamma 90.000000
_cell_volume 6346.055533
_symmetry_space_group_name_H-M "C C C M"
_symmetry_group_IT_number 66
_symmetry_cell_setting 'orthorhombic'
loop_
_space_group_symop_operation_xyz
x,y,z
-x,-y,z
x,-y,1/2-z
-x,y,1/2-z
-x,-y,-z
x,y,-z
-x,y,1/2+z
x,-y,1/2+z
1/2+x,1/2+y,z
1/2-x,1/2-y,z
1/2+x,1/2-y,1/2-z
1/2-x,1/2+y,1/2-z
1/2-x,1/2-y,-z
1/2+x,1/2+y,-z
1/2-x,1/2+y,1/2+z
1/2+x,1/2-y,1/2+z
loop_
_atom_site_type_symbol
_atom_site_label
_atom_site_fract_x
_atom_site_fract_y
_atom_site_fract_z
Si Si1 0.736601 0.118752 0.161784
Si Si2 0.345912 0.945638 0.674932
Si Si3 0.250000 0.250000 0.000000
Si Si4 0.182131 0.713239 0.750008
Si Si5 0.066775 0.303316 0.162464
Si Si6 0.051140 0.815872 0.668627
Si Si7 0.448225 0.099640 0.672591
Si Si8 0.342753 0.672672 0.832328
O O1 0.704966 0.084851 0.274049
O O2 0.702446 0.169471 0.149332
O O3 0.794382 0.136635 0.204720
O O4 0.738878 0.095511 0.000000
O O5 0.350146 0.947525 0.500000
O O6 0.397205 0.920500 0.745931
O O7 0.342561 0.000000 0.750000
O O8 0.223565 0.283993 0.875447
O O9 0.128336 0.699007 0.676827
O O10 0.175157 0.768956 0.815843
O O11 0.050273 0.245357 0.177673
O O12 0.050697 0.340568 0.290768
O O13 0.052500 0.321696 0.000000
O O14 0.049745 0.829170 0.500000
O O15 0.105601 0.832793 0.737429
O O16 0.000000 0.834603 0.750000
O O17 0.500000 0.078573 0.750000
O O18 0.446754 0.090546 0.500000
O O19 0.355780 0.664248 0.000000
#
# Coordination Sequence:
#
# PCOD9496735 Si02
#       8
#    16  16   4  16  16  16  16  16
#     4  11  22  37  58  84 113 147 184 229 285 340
#     4  12  27  46  67  87 112 142 183 234 292 353
#     4  12  20  28  46  84 116 148 192 236 274 338
#     4  11  20  29  52  76 116 147 188 227 278 329
#     4  10  20  33  50  77 107 147 190 236 282 332
#     4  10  21  34  51  73 110 154 197 237 277 325
#     4  12  25  41  62  85 110 142 186 236 290 346
#     4  10  21  34  52  80 115 150 190 228 272 327
#
# _framework density 18.279070999999998
#
# number of rings (size 3 to 8) (size 9 to 14) (size 15 to 20)
#    0.000    1.103    3.448    3.724    1.931    5.793 
#    0.000    1.379    0.000    0.000    0.000    0.000 
#    0.000    0.552    0.000    5.793    0.000    2.483 
#
# Total GULP energy -323058.287520 kJ/mol
# GULP energy per Si atom -5569.970474 kJ/mol
# Density = 1.823747 g / cm^3
# Si number density = 18.279071 Si / 1000 Ang^3
#
#
#
# Elastic Constant Matrix: (Units=GPa)
#
#
# Indices 1 2 3 4 5 6 
#
# 1 104.9823 31.8159 79.4277 0.0000 0.0000 0.0000
# 2 31.8159 42.3233 35.6222 0.0000 0.0000 0.0000
# 3 79.4277 35.6222 173.6169 0.0000 0.0000 0.0000
# 4 0.0000 0.0000 0.0000 31.4620 0.0000 0.0000
# 5 0.0000 0.0000 0.0000 0.0000 17.3202 0.0000
# 6 0.0000 0.0000 0.0000 0.0000 0.0000 6.1584
#
#
#
# Elastic Compliance Matrix: (Units=1/GPa)
#
#
# Indices 1 2 3 4 5 6 
#
# 1 0.016190 -0.007176 -0.005934 0.000000 0.000000 0.000000
# 2 -0.007176 0.031740 -0.003230 0.000000 0.000000 0.000000
# 3 -0.005934 -0.003230 0.009137 0.000000 0.000000 0.000000
# 4 0.000000 0.000000 0.000000 0.031784 0.000000 0.000000
# 5 0.000000 0.000000 0.000000 0.000000 0.057736 0.000000
# 6 0.000000 0.000000 0.000000 0.000000 0.000000 0.162381
#
#
# Mechanical properties :
#
#
# Convention : Reuss Voigt Hill
#
# Bulk Modulus (GPa) = 41.00366 68.29488 54.64927
# Shear Modulus (GPa) = 14.29480 22.59190 18.44335
#
# Velocity S-wave (km/s) = 2.79952 3.51941 3.17990
# Velocity P-wave (km/s) = 5.73851 7.34564 6.59124
#
# Compressibility (1/GPa) = 0.02438807
#
# Stress axis : x y z
#
# Youngs Moduli (GPa) = 61.76667 31.50588 109.44085
#
# Poissons Ratio (x) = 0.22608 0.64947
# Poissons Ratio (y) = 0.44322 0.35344
# Poissons Ratio (z) = 0.36655 0.10175
#
# Static dielectric constant tensor:
#      x y z
#    x 1.677950 0.000000 0.000000 
#    y 0.000000 1.644140 0.000000 
#    z 0.000000 0.000000 1.421170 
# 
# From -- ./inp_files/10624.got.cif
#   From: 2010.05.17/outbox.cif.g08.bks.cpg/sg66_6_cif.got.tgz:10624.got - 2010.06.03 17:51:23.
