data_PCOD9496823
_publ_section_title
;
Structure prediction by ZEFSAII (Michael W. Deem and Ramdas Pophale) SiO2 
 PCOD9496823
Probable space group: C C C M
;
_chemical_formula_sum "Si O2"
_cell_formula_units_Z 48
_cell_length_a 5.076269
_cell_length_b 24.349116
_cell_length_c 23.409453
_cell_angle_alpha 90.000000
_cell_angle_beta 90.000000
_cell_angle_gamma 90.000000
_cell_volume 2893.470724
_symmetry_space_group_name_H-M "C C C M"
_symmetry_group_IT_number 66
_symmetry_cell_setting 'orthorhombic'
loop_
_space_group_symop_operation_xyz
x,y,z
-x,-y,z
x,-y,1/2-z
-x,y,1/2-z
-x,-y,-z
x,y,-z
-x,y,1/2+z
x,-y,1/2+z
1/2+x,1/2+y,z
1/2-x,1/2-y,z
1/2+x,1/2-y,1/2-z
1/2-x,1/2+y,1/2-z
1/2-x,1/2-y,-z
1/2+x,1/2+y,-z
1/2-x,1/2+y,1/2+z
1/2+x,1/2-y,1/2+z
loop_
_atom_site_type_symbol
_atom_site_label
_atom_site_fract_x
_atom_site_fract_y
_atom_site_fract_z
Si Si1 0.346808 0.312934 0.872509
Si Si2 0.250000 0.538951 0.000000
Si Si3 0.500000 0.711485 0.750000
Si Si4 0.352641 0.855588 0.935570
O O1 0.250000 0.250000 0.877004
O O2 0.415311 0.321774 0.805963
O O3 0.608970 0.323277 0.908779
O O4 0.109334 0.349304 0.896857
O O5 0.500000 0.500000 0.000000
O O6 0.235114 0.581484 0.053090
O O7 0.000000 0.500000 0.000000
O O8 0.250000 0.750000 0.765830
O O9 0.415888 0.834887 0.000000
#
# Coordination Sequence:
#
# PCOD9496823 Si02
#       4
#    16   8   8  16
#     4  11  20  34  51  77 115 145 175 213 247 312
#     4  10  20  38  55  74 105 136 176 226 268 322
#     4  10  20  34  52  72 103 156 191 204 244 296
#     4  10  22  33  52  82 105 138 186 202 277 322
#
# _framework density 16.589072999999999
#
# number of rings (size 3 to 8) (size 9 to 14) (size 15 to 20)
#    1.000    0.667    0.000    8.000    0.000    4.000 
#    0.000    0.000    0.000    0.000    0.000   17.500 
#    0.000    0.000    0.000    0.000    0.000    0.000 
#
# Total GULP energy -133782.416827 kJ/mol
# GULP energy per Si atom -5574.267368 kJ/mol
# Density = 1.655132 g / cm^3
# Si number density = 16.589073 Si / 1000 Ang^3
#
#
#
# Elastic Constant Matrix: (Units=GPa)
#
#
# Indices 1 2 3 4 5 6 
#
# 1 138.4013 24.3371 69.0695 0.0000 0.0000 0.0000
# 2 24.3371 49.7586 47.9506 0.0000 0.0000 0.0000
# 3 69.0695 47.9506 134.8936 0.0000 0.0000 0.0000
# 4 0.0000 0.0000 0.0000 -6.3860 0.0000 0.0000
# 5 0.0000 0.0000 0.0000 0.0000 36.5859 0.0000
# 6 0.0000 0.0000 0.0000 0.0000 0.0000 37.3225
#
#
#
# Elastic Compliance Matrix: (Units=1/GPa)
#
#
# Indices 1 2 3 4 5 6 
#
# 1 0.009706 0.000064 -0.004992 0.000000 0.000000 0.000000
# 2 0.000064 0.030569 -0.010899 0.000000 0.000000 0.000000
# 3 -0.004992 -0.010899 0.013844 0.000000 0.000000 0.000000
# 4 0.000000 0.000000 0.000000 -0.156592 0.000000 0.000000
# 5 0.000000 0.000000 0.000000 0.000000 0.027333 0.000000
# 6 0.000000 0.000000 0.000000 0.000000 0.000000 0.026794
#
#
# Mechanical properties :
#
#
# Convention : Reuss Voigt Hill
#
# Bulk Modulus (GPa) = 44.51716 67.30754 55.91235
# Shear Modulus (GPa) = -543.14429 25.61755 -258.76337
#
# Velocity S-wave (km/s) = -18.11413 3.93395 -12.50291
# Velocity P-wave (km/s) = 20.26332 7.82918 13.21563
#
# Compressibility (1/GPa) = 0.02246325
#
# Stress axis : x y z
#
# Youngs Moduli (GPa) = 103.03429 32.71314 72.23538
#
# Poissons Ratio (x) = -0.00209 0.36061
# Poissons Ratio (y) = -0.00657 0.78729
# Poissons Ratio (z) = 0.51437 0.35654
#
# Static dielectric constant tensor:
#      x y z
#    x 1.550760 0.000000 0.000000 
#    y 0.000000 1.547160 0.000000 
#    z 0.000000 0.000000 1.579770 
# 
# From -- ./inp_files/54064.got.cif
#   From: 2010.05.17/outbox.cif.g08.bks.cpg/sg66_28_cif.got.tgz:54064.got - 2010.06.03 17:51:23.
