data_PCOD9496250
_publ_section_title
;
Structure prediction by ZEFSAII (Michael W. Deem and Ramdas Pophale) SiO2 
 PCOD9496250
Probable space group: C C C M
;
_chemical_formula_sum "Si O2"
_cell_formula_units_Z 88
_cell_length_a 14.025150
_cell_length_b 14.678186
_cell_length_c 17.885124
_cell_angle_alpha 90.000000
_cell_angle_beta 90.000000
_cell_angle_gamma 90.000000
_cell_volume 3681.898881
_symmetry_space_group_name_H-M "C C C M"
_symmetry_group_IT_number 66
_symmetry_cell_setting 'orthorhombic'
loop_
_space_group_symop_operation_xyz
x,y,z
-x,-y,z
x,-y,1/2-z
-x,y,1/2-z
-x,-y,-z
x,y,-z
-x,y,1/2+z
x,-y,1/2+z
1/2+x,1/2+y,z
1/2-x,1/2-y,z
1/2+x,1/2-y,1/2-z
1/2-x,1/2+y,1/2-z
1/2-x,1/2-y,-z
1/2+x,1/2+y,-z
1/2-x,1/2+y,1/2+z
1/2+x,1/2-y,1/2+z
loop_
_atom_site_type_symbol
_atom_site_label
_atom_site_fract_x
_atom_site_fract_y
_atom_site_fract_z
Si Si1 0.791128 0.897500 0.410427
Si Si2 0.250000 0.750000 0.687229
Si Si3 0.539063 0.717794 0.588087
Si Si4 0.141084 0.099975 0.912111
Si Si5 0.386025 0.004111 0.584681
Si Si6 0.577794 0.854750 0.193598
O O1 0.801958 0.889843 0.500000
O O2 0.858111 0.816151 0.383065
O O3 0.834164 0.996691 0.388903
O O4 0.677449 0.907179 0.397301
O O5 0.199290 0.825308 0.634670
O O6 0.338425 0.795072 0.729783
O O7 0.542919 0.746017 0.500000
O O8 0.469696 0.629030 0.593355
O O9 0.483497 0.793534 0.635598
O O10 0.164733 0.109302 0.000000
O O11 0.357466 0.977757 0.500000
O O12 0.367122 0.931569 0.648319
O O13 0.500000 0.000000 0.583552
O O14 0.500000 0.892281 0.250000
#
# Coordination Sequence:
#
# PCOD9496250 Si02
#       6
#    16   8  16  16  16  16
#     4   9  16  30  54  87 121 150 188 241 302 357
#     4  10  19  34  56  82 113 156 202 246 298 362
#     4   9  18  32  56  90 122 152 188 242 307 363
#     4   9  15  25  52  89 120 145 183 241 303 360
#     4  10  21  39  63  90 118 154 205 260 303 356
#     4  11  23  40  60  84 122 161 206 248 304 366
#
# _framework density 23.900711999999999
#
# number of rings (size 3 to 8) (size 9 to 14) (size 15 to 20)
#    0.000    2.364    1.818    1.364    0.000    4.000 
#    3.273    0.000    0.000   13.091    0.000    0.000 
#    0.000    0.000    0.000    0.000    0.000    0.000 
#
# Total GULP energy -245544.000142 kJ/mol
# GULP energy per Si atom -5580.545458 kJ/mol
# Density = 2.384631 g / cm^3
# Si number density = 23.900712 Si / 1000 Ang^3
#
#
#
# Elastic Constant Matrix: (Units=GPa)
#
#
# Indices 1 2 3 4 5 6 
#
# 1 159.2669 31.5189 27.7241 0.0000 0.0000 0.0000
# 2 31.5189 73.4248 33.3513 0.0000 0.0000 0.0000
# 3 27.7241 33.3513 55.0625 0.0000 0.0000 0.0000
# 4 0.0000 0.0000 0.0000 30.2258 0.0000 0.0000
# 5 0.0000 0.0000 0.0000 0.0000 -5.9808 0.0000
# 6 0.0000 0.0000 0.0000 0.0000 0.0000 45.5733
#
#
#
# Elastic Compliance Matrix: (Units=1/GPa)
#
#
# Indices 1 2 3 4 5 6 
#
# 1 0.007080 -0.001959 -0.002378 0.000000 0.000000 0.000000
# 2 -0.001959 0.019331 -0.010722 0.000000 0.000000 0.000000
# 3 -0.002378 -0.010722 0.025853 0.000000 0.000000 0.000000
# 4 0.000000 0.000000 0.000000 0.033084 0.000000 0.000000
# 5 0.000000 0.000000 0.000000 0.000000 -0.167202 0.000000
# 6 0.000000 0.000000 0.000000 0.000000 0.000000 0.021943
#
#
# Mechanical properties :
#
#
# Convention : Reuss Voigt Hill
#
# Bulk Modulus (GPa) = 45.15709 52.54922 48.85316
# Shear Modulus (GPa) = -223.11642 26.97431 -98.07106
#
# Velocity S-wave (km/s) = -9.67233 3.36311 -6.41263
# Velocity P-wave (km/s) = 10.28611 6.09220 5.86043
#
# Compressibility (1/GPa) = 0.02214492
#
# Stress axis : x y z
#
# Youngs Moduli (GPa) = 141.23315 51.73142 38.68002
#
# Poissons Ratio (x) = 0.10135 0.09200
# Poissons Ratio (y) = 0.27669 0.41473
# Poissons Ratio (z) = 0.33591 0.55467
#
# Static dielectric constant tensor:
#      x y z
#    x 2.006160 0.000000 0.000000 
#    y 0.000000 1.928280 0.000000 
#    z 0.000000 0.000000 1.898720 
# 
# From -- ./inp_files/49863.got.cif
#   From: 2010.05.17/outbox.cif.g08.bks.cpg/sg66_25_cif.got.tgz:49863.got - 2010.06.03 17:51:23.
