data_PCOD9496296
_publ_section_title
;
Structure prediction by ZEFSAII (Michael W. Deem and Ramdas Pophale) SiO2 
 PCOD9496296
Probable space group: C C C M
;
_chemical_formula_sum "Si O2"
_cell_formula_units_Z 88
_cell_length_a 22.309205
_cell_length_b 11.594152
_cell_length_c 14.075588
_cell_angle_alpha 90.000000
_cell_angle_beta 90.000000
_cell_angle_gamma 90.000000
_cell_volume 3640.739706
_symmetry_space_group_name_H-M "C C C M"
_symmetry_group_IT_number 66
_symmetry_cell_setting 'orthorhombic'
loop_
_space_group_symop_operation_xyz
x,y,z
-x,-y,z
x,-y,1/2-z
-x,y,1/2-z
-x,-y,-z
x,y,-z
-x,y,1/2+z
x,-y,1/2+z
1/2+x,1/2+y,z
1/2-x,1/2-y,z
1/2+x,1/2-y,1/2-z
1/2-x,1/2+y,1/2-z
1/2-x,1/2-y,-z
1/2+x,1/2+y,-z
1/2-x,1/2+y,1/2+z
1/2+x,1/2-y,1/2+z
loop_
_atom_site_type_symbol
_atom_site_label
_atom_site_fract_x
_atom_site_fract_y
_atom_site_fract_z
Si Si1 0.154532 0.500000 0.250000
Si Si2 0.993274 0.127972 0.108452
Si Si3 0.243269 0.912836 0.887333
Si Si4 0.305734 0.332673 0.888298
Si Si5 0.627969 0.259094 0.106070
Si Si6 0.912766 0.702751 0.800127
O O1 0.200411 0.576731 0.184033
O O2 0.114310 0.423467 0.175965
O O3 0.028254 0.234074 0.159887
O O4 0.921609 0.140118 0.103324
O O5 0.016726 0.129335 0.000000
O O6 0.000000 0.000000 0.148771
O O7 0.193141 0.813748 0.873222
O O8 0.210937 0.035619 0.872728
O O9 0.259163 0.908793 0.000000
O O10 0.250000 0.250000 0.863831
O O11 0.362354 0.294154 0.829258
O O12 0.318290 0.314875 0.000000
O O13 0.594729 0.186714 0.187061
O O14 0.628111 0.208465 0.000000
#
# Coordination Sequence:
#
# PCOD9496296 Si02
#       6
#     8  16  16  16  16  16
#     4  12  26  40  59  96 137 184 232 270 330 422
#     4  10  22  43  70 100 127 160 218 290 358 412
#     4  10  21  38  61  91 133 177 220 276 335 402
#     4  10  19  34  58  91 128 169 218 272 338 406
#     4  10  23  41  61  89 127 172 221 273 331 394
#     4  12  24  39  64  93 134 177 227 281 345 410
#
# _framework density 24.170912999999999
#
# number of rings (size 3 to 8) (size 9 to 14) (size 15 to 20)
#    0.000    1.455    1.818    3.273    0.000    7.273 
#    0.000    3.636    0.000    2.182    0.000    0.000 
#    0.000    0.000    0.000    0.000    0.000    0.000 
#
# Total GULP energy -245360.574744 kJ/mol
# GULP energy per Si atom -5576.376699 kJ/mol
# Density = 2.411590 g / cm^3
# Si number density = 24.170913 Si / 1000 Ang^3
#
#
#
# Elastic Constant Matrix: (Units=GPa)
#
#
# Indices 1 2 3 4 5 6 
#
# 1 157.2911 42.0219 39.2916 0.0000 0.0000 0.0000
# 2 42.0219 98.5585 31.1288 0.0000 0.0000 0.0000
# 3 39.2916 31.1288 102.5383 0.0000 0.0000 0.0000
# 4 0.0000 0.0000 0.0000 26.3906 0.0000 0.0000
# 5 0.0000 0.0000 0.0000 0.0000 12.6145 0.0000
# 6 0.0000 0.0000 0.0000 0.0000 0.0000 46.1605
#
#
#
# Elastic Compliance Matrix: (Units=1/GPa)
#
#
# Indices 1 2 3 4 5 6 
#
# 1 0.007572 -0.002557 -0.002125 0.000000 0.000000 0.000000
# 2 -0.002557 0.012086 -0.002689 0.000000 0.000000 0.000000
# 3 -0.002125 -0.002689 0.011383 0.000000 0.000000 0.000000
# 4 0.000000 0.000000 0.000000 0.037892 0.000000 0.000000
# 5 0.000000 0.000000 0.000000 0.000000 0.079274 0.000000
# 6 0.000000 0.000000 0.000000 0.000000 0.000000 0.021664
#
#
# Mechanical properties :
#
#
# Convention : Reuss Voigt Hill
#
# Bulk Modulus (GPa) = 61.35759 64.80807 63.08283
# Shear Modulus (GPa) = 26.30944 33.42949 29.86947
#
# Velocity S-wave (km/s) = 3.30278 3.72297 3.51915
# Velocity P-wave (km/s) = 6.32333 6.73434 6.53207
#
# Compressibility (1/GPa) = 0.01629790
#
# Stress axis : x y z
#
# Youngs Moduli (GPa) = 132.07168 82.74115 87.84905
#
# Poissons Ratio (x) = 0.21158 0.18669
# Poissons Ratio (y) = 0.33772 0.23624
# Poissons Ratio (z) = 0.28066 0.22251
#
# Static dielectric constant tensor:
#      x y z
#    x 1.963730 0.000000 0.000000 
#    y 0.000000 2.036460 0.000000 
#    z 0.000000 0.000000 2.047430 
# 
# From -- ./inp_files/32206.got.cif
#   From: 2010.05.17/outbox.cif.g08.bks.cpg/sg66_17_cif.got.tgz:32206.got - 2010.06.03 17:51:23.
