data_PCOD9496198
_publ_section_title
;
Structure prediction by ZEFSAII (Michael W. Deem and Ramdas Pophale) SiO2 
 PCOD9496198
Probable space group: C C C M
;
_chemical_formula_sum "Si O2"
_cell_formula_units_Z 104
_cell_length_a 25.527431
_cell_length_b 24.091360
_cell_length_c 9.018516
_cell_angle_alpha 90.000000
_cell_angle_beta 90.000000
_cell_angle_gamma 90.000000
_cell_volume 5546.301936
_symmetry_space_group_name_H-M "C C C M"
_symmetry_group_IT_number 66
_symmetry_cell_setting 'orthorhombic'
loop_
_space_group_symop_operation_xyz
x,y,z
-x,-y,z
x,-y,1/2-z
-x,y,1/2-z
-x,-y,-z
x,y,-z
-x,y,1/2+z
x,-y,1/2+z
1/2+x,1/2+y,z
1/2-x,1/2-y,z
1/2+x,1/2-y,1/2-z
1/2-x,1/2+y,1/2-z
1/2-x,1/2-y,-z
1/2+x,1/2+y,-z
1/2-x,1/2+y,1/2+z
1/2+x,1/2-y,1/2+z
loop_
_atom_site_type_symbol
_atom_site_label
_atom_site_fract_x
_atom_site_fract_y
_atom_site_fract_z
Si Si1 0.421031 0.945610 0.666251
Si Si2 0.557656 0.339238 0.819870
Si Si3 0.756375 0.941020 0.825607
Si Si4 0.500000 0.145784 0.250000
Si Si5 0.902911 0.721502 0.671021
Si Si6 0.168092 0.376131 0.678735
Si Si7 0.881461 0.940974 0.824518
O O1 0.404303 0.959731 0.500000
O O2 0.464429 0.897233 0.658724
O O3 0.372991 0.921573 0.761132
O O4 0.440715 0.000000 0.750000
O O5 0.500000 0.339785 0.750000
O O6 0.585621 0.282160 0.766399
O O7 0.588958 0.392024 0.759928
O O8 0.554721 0.339312 0.000000
O O9 0.723561 0.892923 0.746118
O O10 0.818729 0.933189 0.809693
O O11 0.742931 0.000000 0.750000
O O12 0.743723 0.943052 0.000000
O O13 0.456760 0.185734 0.323278
O O14 0.889181 0.730307 0.500000
O O15 0.856878 0.682360 0.732787
O O16 0.169220 0.376836 0.500000
O O17 0.894632 0.000000 0.750000
O O18 0.894082 0.941345 0.000000
#
# Coordination Sequence:
#
# PCOD9496198 Si02
#       7
#    16  16  16   8  16  16  16
#     4  11  22  33  48  71 104 144 188 240 293 342
#     4  11  22  39  63  90 120 153 190 232 282 340
#     4  10  20  36  59  85 115 150 191 237 289 345
#     4  10  19  34  52  72 101 140 190 236 288 338
#     4   9  19  35  54  79 110 147 191 235 280 333
#     4  10  20  35  55  79 111 149 194 240 282 334
#     4  10  22  41  64  92 121 150 185 229 283 343
#
# _framework density 18.751232000000002
#
# number of rings (size 3 to 8) (size 9 to 14) (size 15 to 20)
#    0.000    1.846    0.769    3.462    0.000    4.615 
#    0.000    4.615    0.000    4.615    0.000    0.000 
#    0.000    0.000    0.000    0.000    0.000    0.000 
#
# Total GULP energy -290073.628333 kJ/mol
# GULP energy per Si atom -5578.339006 kJ/mol
# Density = 1.870855 g / cm^3
# Si number density = 18.751232 Si / 1000 Ang^3
#
#
#
# Elastic Constant Matrix: (Units=GPa)
#
#
# Indices 1 2 3 4 5 6 
#
# 1 48.3843 60.1495 40.0345 0.0000 0.0000 0.0000
# 2 60.1495 160.5243 56.9966 0.0000 0.0000 0.0000
# 3 40.0345 56.9966 108.5425 0.0000 0.0000 0.0000
# 4 0.0000 0.0000 0.0000 20.2366 0.0000 0.0000
# 5 0.0000 0.0000 0.0000 0.0000 14.2843 0.0000
# 6 0.0000 0.0000 0.0000 0.0000 0.0000 24.7286
#
#
#
# Elastic Compliance Matrix: (Units=1/GPa)
#
#
# Indices 1 2 3 4 5 6 
#
# 1 0.045672 -0.013684 -0.009660 0.000000 0.000000 0.000000
# 2 -0.013684 0.011757 -0.001127 0.000000 0.000000 0.000000
# 3 -0.009660 -0.001127 0.013368 0.000000 0.000000 0.000000
# 4 0.000000 0.000000 0.000000 0.049416 0.000000 0.000000
# 5 0.000000 0.000000 0.000000 0.000000 0.070007 0.000000
# 6 0.000000 0.000000 0.000000 0.000000 0.000000 0.040439
#
#
# Mechanical properties :
#
#
# Convention : Reuss Voigt Hill
#
# Bulk Modulus (GPa) = 45.75473 70.20140 57.97806
# Shear Modulus (GPa) = 17.42867 22.53459 19.98163
#
# Velocity S-wave (km/s) = 3.05203 3.47041 3.26792
# Velocity P-wave (km/s) = 6.07237 7.31969 6.72501
#
# Compressibility (1/GPa) = 0.02185566
#
# Stress axis : x y z
#
# Youngs Moduli (GPa) = 21.89541 85.05617 74.80777
#
# Poissons Ratio (x) = 1.16387 0.72265
# Poissons Ratio (y) = 0.29961 0.08428
# Poissons Ratio (z) = 0.21151 0.09583
#
# Static dielectric constant tensor:
#      x y z
#    x 1.650190 0.000000 0.000000 
#    y 0.000000 1.657150 0.000000 
#    z 0.000000 0.000000 1.635590 
# 
# From -- ./inp_files/10533.got.cif
#   From: 2010.05.17/outbox.cif.g08.bks.cpg/sg66_6_cif.got.tgz:10533.got - 2010.06.03 17:51:23.
