data_PCOD9496654
_publ_section_title
;
Structure prediction by ZEFSAII (Michael W. Deem and Ramdas Pophale) SiO2 
 PCOD9496654
Probable space group: C C C M
;
_chemical_formula_sum "Si O2"
_cell_formula_units_Z 84
_cell_length_a 6.860966
_cell_length_b 26.798249
_cell_length_c 19.047050
_cell_angle_alpha 90.000000
_cell_angle_beta 90.000000
_cell_angle_gamma 90.000000
_cell_volume 3502.026331
_symmetry_space_group_name_H-M "C C C M"
_symmetry_group_IT_number 66
_symmetry_cell_setting 'orthorhombic'
loop_
_space_group_symop_operation_xyz
x,y,z
-x,-y,z
x,-y,1/2-z
-x,y,1/2-z
-x,-y,-z
x,y,-z
-x,y,1/2+z
x,-y,1/2+z
1/2+x,1/2+y,z
1/2-x,1/2-y,z
1/2+x,1/2-y,1/2-z
1/2-x,1/2+y,1/2-z
1/2-x,1/2-y,-z
1/2+x,1/2+y,-z
1/2-x,1/2+y,1/2+z
1/2+x,1/2-y,1/2+z
loop_
_atom_site_type_symbol
_atom_site_label
_atom_site_fract_x
_atom_site_fract_y
_atom_site_fract_z
Si Si1 0.074627 0.167974 0.081650
Si Si2 0.844625 0.059152 0.625866
Si Si3 0.476597 0.762383 0.166540
Si Si4 0.000000 0.000000 0.750000
Si Si5 0.706108 0.960195 0.418777
Si Si6 0.390373 0.856614 0.081869
O O1 0.090540 0.215475 0.133001
O O2 0.841684 0.155860 0.081474
O O3 0.178983 0.117291 0.109114
O O4 0.124526 0.178659 0.000000
O O5 0.061742 0.048723 0.594683
O O6 0.868839 0.037820 0.704540
O O7 0.690841 0.019319 0.595099
O O8 0.500000 0.767294 0.250000
O O9 0.250000 0.750000 0.155366
O O10 0.499862 0.813971 0.124818
O O11 0.670296 0.952824 0.500000
O O12 0.605105 0.911987 0.383861
O O13 0.452117 0.855288 0.000000
#
# Coordination Sequence:
#
# PCOD9496654 Si02
#       6
#    16  16  16   4  16  16
#     4   9  16  26  44  66  92 131 171 212 257 306
#     4   9  14  21  33  56  93 128 157 188 248 311
#     4  10  20  32  47  70 101 135 175 213 261 309
#     4   8  16  20  26  48  88 132 152 176 236 320
#     4   8  12  20  36  57  82 116 155 197 239 286
#     4   8  14  26  44  65  89 124 173 218 251 294
#
# _framework density 23.986114000000001
#
# number of rings (size 3 to 8) (size 9 to 14) (size 15 to 20)
#    0.000    3.429    0.000    4.000    1.333    2.286 
#    0.000    0.000    0.000    2.286    0.000    0.000 
#    0.000    3.048    0.000    6.095   32.762   45.524 
#
# Total GULP energy -234303.541374 kJ/mol
# GULP energy per Si atom -5578.655747 kJ/mol
# Density = 2.393152 g / cm^3
# Si number density = 23.986114 Si / 1000 Ang^3
#
#
#
# Elastic Constant Matrix: (Units=GPa)
#
#
# Indices 1 2 3 4 5 6 
#
# 1 78.7312 57.2691 0.4344 0.0000 0.0000 0.0000
# 2 57.2691 287.0094 112.5178 0.0000 0.0000 0.0000
# 3 0.4344 112.5178 143.0073 0.0000 0.0000 0.0000
# 4 0.0000 0.0000 0.0000 119.6886 0.0000 0.0000
# 5 0.0000 0.0000 0.0000 0.0000 -2.0146 0.0000
# 6 0.0000 0.0000 0.0000 0.0000 0.0000 61.8142
#
#
#
# Elastic Compliance Matrix: (Units=1/GPa)
#
#
# Indices 1 2 3 4 5 6 
#
# 1 0.016025 -0.004596 0.003568 0.000000 0.000000 0.000000
# 2 -0.004596 0.006357 -0.004987 0.000000 0.000000 0.000000
# 3 0.003568 -0.004987 0.010906 0.000000 0.000000 0.000000
# 4 0.000000 0.000000 0.000000 0.008355 0.000000 0.000000
# 5 0.000000 0.000000 0.000000 0.000000 -0.496380 0.000000
# 6 0.000000 0.000000 0.000000 0.000000 0.000000 0.016178
#
#
# Mechanical properties :
#
#
# Convention : Reuss Voigt Hill
#
# Bulk Modulus (GPa) = 47.04653 94.35450 70.70052
# Shear Modulus (GPa) = -11.92058 58.46609 23.27276
#
# Velocity S-wave (km/s) = -2.23172 4.94246 3.11828
# Velocity P-wave (km/s) = 3.60775 8.48487 6.51955
#
# Compressibility (1/GPa) = 0.02125555
#
# Stress axis : x y z
#
# Youngs Moduli (GPa) = 62.40220 157.31804 91.69387
#
# Poissons Ratio (x) = 0.72307 -0.32713
# Poissons Ratio (y) = 0.28682 0.45731
# Poissons Ratio (z) = -0.22263 0.78460
#
# Static dielectric constant tensor:
#      x y z
#    x 2.037500 0.000000 0.000000 
#    y 0.000000 1.527290 0.000000 
#    z 0.000000 0.000000 1.863360 
# 
# From -- ./inp_files/48898.got.cif
#   From: 2010.05.17/outbox.cif.g08.bks.cpg/sg66_25_cif.got.tgz:48898.got - 2010.06.03 17:51:23.
