data_PCOD9496404
_publ_section_title
;
Structure prediction by ZEFSAII (Michael W. Deem and Ramdas Pophale) SiO2 
 PCOD9496404
Probable space group: C C C M
;
_chemical_formula_sum "Si O2"
_cell_formula_units_Z 88
_cell_length_a 10.937011
_cell_length_b 10.886154
_cell_length_c 31.169668
_cell_angle_alpha 90.000000
_cell_angle_beta 90.000000
_cell_angle_gamma 90.000000
_cell_volume 3711.122576
_symmetry_space_group_name_H-M "C C C M"
_symmetry_group_IT_number 66
_symmetry_cell_setting 'orthorhombic'
loop_
_space_group_symop_operation_xyz
x,y,z
-x,-y,z
x,-y,1/2-z
-x,y,1/2-z
-x,-y,-z
x,y,-z
-x,y,1/2+z
x,-y,1/2+z
1/2+x,1/2+y,z
1/2-x,1/2-y,z
1/2+x,1/2-y,1/2-z
1/2-x,1/2+y,1/2-z
1/2-x,1/2-y,-z
1/2+x,1/2+y,-z
1/2-x,1/2+y,1/2+z
1/2+x,1/2-y,1/2+z
loop_
_atom_site_type_symbol
_atom_site_label
_atom_site_fract_x
_atom_site_fract_y
_atom_site_fract_z
Si Si1 0.762504 0.950574 0.387753
Si Si2 0.282378 0.562891 0.705931
Si Si3 0.388287 0.900817 0.547642
Si Si4 0.970241 0.355565 0.321999
Si Si5 0.500000 0.295172 0.250000
Si Si6 0.447605 0.258531 0.404389
O O1 0.658677 0.844879 0.395330
O O2 0.883556 0.888720 0.406791
O O3 0.789592 0.981629 0.337844
O O4 0.708025 0.062998 0.415416
O O5 0.241008 0.500000 0.750000
O O6 0.166974 0.646441 0.694836
O O7 0.408933 0.622273 0.721985
O O8 0.334825 0.903906 0.500000
O O9 0.462505 0.776921 0.557390
O O10 0.500000 0.000000 0.549275
O O11 0.056549 0.296781 0.285629
O O12 0.000000 0.500000 0.331247
O O13 0.974670 0.265788 0.362040
#
# Coordination Sequence:
#
# PCOD9496404 Si02
#       6
#    16  16  16  16   8  16
#     4  10  20  36  61  90 133 181 231 301 353 428
#     4  12  24  42  61  87 132 174 230 285 346 418
#     4   9  17  33  57  93 137 178 232 301 370 439
#     4  12  22  42  64  88 124 174 230 278 345 418
#     4  12  28  40  60  96 124 170 220 282 344 412
#     4  10  19  35  60  93 125 177 239 283 361 423
#
# _framework density 23.712501
#
# number of rings (size 3 to 8) (size 9 to 14) (size 15 to 20)
#    0.000    1.273    3.636    3.818    0.000    0.727 
#    0.000    3.636    0.000    0.000    0.000    2.545 
#    0.000    5.818    0.000    0.182    0.000    1.091 
#
# Total GULP energy -245472.250773 kJ/mol
# GULP energy per Si atom -5578.914790 kJ/mol
# Density = 2.365853 g / cm^3
# Si number density = 23.712501 Si / 1000 Ang^3
#
#
#
# Elastic Constant Matrix: (Units=GPa)
#
#
# Indices 1 2 3 4 5 6 
#
# 1 91.4271 51.2394 36.5542 0.0000 0.0000 0.0000
# 2 51.2394 49.6420 22.0153 0.0000 0.0000 0.0000
# 3 36.5542 22.0153 122.0857 0.0000 0.0000 0.0000
# 4 0.0000 0.0000 0.0000 18.0410 0.0000 0.0000
# 5 0.0000 0.0000 0.0000 0.0000 5.2640 0.0000
# 6 0.0000 0.0000 0.0000 0.0000 0.0000 43.9630
#
#
#
# Elastic Compliance Matrix: (Units=1/GPa)
#
#
# Indices 1 2 3 4 5 6 
#
# 1 0.027147 -0.026539 -0.003343 0.000000 0.000000 0.000000
# 2 -0.026539 0.047839 -0.000681 0.000000 0.000000 0.000000
# 3 -0.003343 -0.000681 0.009315 0.000000 0.000000 0.000000
# 4 0.000000 0.000000 0.000000 0.055429 0.000000 0.000000
# 5 0.000000 0.000000 0.000000 0.000000 0.189971 0.000000
# 6 0.000000 0.000000 0.000000 0.000000 0.000000 0.022746
#
#
# Mechanical properties :
#
#
# Convention : Reuss Voigt Hill
#
# Bulk Modulus (GPa) = 43.14640 53.64140 48.39390
# Shear Modulus (GPa) = 11.86813 23.67666 17.77240
#
# Velocity S-wave (km/s) = 2.23961 3.16332 2.74066
# Velocity P-wave (km/s) = 4.99229 6.00106 5.51977
#
# Compressibility (1/GPa) = 0.02317691
#
# Stress axis : x y z
#
# Youngs Moduli (GPa) = 36.83586 20.90360 107.35899
#
# Poissons Ratio (x) = 0.55475 0.35887
# Poissons Ratio (y) = 0.97757 0.07306
# Poissons Ratio (z) = 0.12313 0.01423
#
# Static dielectric constant tensor:
#      x y z
#    x 1.992740 0.000000 0.000000 
#    y 0.000000 2.025780 0.000000 
#    z 0.000000 0.000000 1.924840 
# 
# From -- ./inp_files/68864.got.cif
#   From: 2010.05.17/outbox.cif.g08.bks.cpg/sg66_35_cif.got.tgz:68864.got - 2010.06.03 17:51:23.
