data_PCOD9496339
_publ_section_title
;
Structure prediction by ZEFSAII (Michael W. Deem and Ramdas Pophale) SiO2 
 PCOD9496339
Probable space group: C C C M
;
_chemical_formula_sum "Si O2"
_cell_formula_units_Z 68
_cell_length_a 27.502840
_cell_length_b 4.963770
_cell_length_c 19.908837
_cell_angle_alpha 90.000000
_cell_angle_beta 90.000000
_cell_angle_gamma 90.000000
_cell_volume 2717.910072
_symmetry_space_group_name_H-M "C C C M"
_symmetry_group_IT_number 66
_symmetry_cell_setting 'orthorhombic'
loop_
_space_group_symop_operation_xyz
x,y,z
-x,-y,z
x,-y,1/2-z
-x,y,1/2-z
-x,-y,-z
x,y,-z
-x,y,1/2+z
x,-y,1/2+z
1/2+x,1/2+y,z
1/2-x,1/2-y,z
1/2+x,1/2-y,1/2-z
1/2-x,1/2+y,1/2-z
1/2-x,1/2-y,-z
1/2+x,1/2+y,-z
1/2-x,1/2+y,1/2+z
1/2+x,1/2-y,1/2+z
loop_
_atom_site_type_symbol
_atom_site_label
_atom_site_fract_x
_atom_site_fract_y
_atom_site_fract_z
Si Si1 0.427905 0.212687 0.889246
Si Si2 0.910317 0.210725 0.192955
Si Si3 0.500000 0.000000 0.500000
Si Si4 0.799798 0.822993 0.337315
Si Si5 0.317846 0.164766 0.075295
O O1 0.423224 0.526764 0.871379
O O2 0.375991 0.140996 0.921330
O O3 0.430340 0.007306 0.824714
O O4 0.469646 0.159065 0.941188
O O5 0.851328 0.232628 0.199304
O O6 0.927348 0.000000 0.250000
O O7 0.750000 0.750000 0.299087
O O8 0.798843 0.621846 0.400803
O O9 0.802842 0.120061 0.368126
O O10 0.303779 0.240554 0.000000
#
# Coordination Sequence:
#
# PCOD9496339 Si02
#       5
#    16  16   4  16  16
#     4  10  23  39  66  94 123 164 207 261 324 381
#     4  10  22  44  64  87 129 173 209 254 317 378
#     4  12  24  46  70 102 126 154 212 272 316 398
#     4  10  21  34  55  86 118 159 212 251 294 354
#     4  10  19  35  53  82 124 162 197 248 312 371
#
# _framework density 25.019226
#
# number of rings (size 3 to 8) (size 9 to 14) (size 15 to 20)
#    0.000    1.882    1.176    2.118    0.000    5.647 
#    0.000   10.588    0.000    0.000    0.000    0.000 
#    0.000    0.000    0.000    0.000    0.000    0.000 
#
# Total GULP energy -189522.533804 kJ/mol
# GULP energy per Si atom -5574.192171 kJ/mol
# Density = 2.496228 g / cm^3
# Si number density = 25.019226 Si / 1000 Ang^3
#
#
#
# Elastic Constant Matrix: (Units=GPa)
#
#
# Indices 1 2 3 4 5 6 
#
# 1 58.4909 11.3529 -6.4404 0.0000 0.0000 0.0000
# 2 11.3529 143.6197 14.5177 0.0000 0.0000 0.0000
# 3 -6.4404 14.5177 59.1252 0.0000 0.0000 0.0000
# 4 0.0000 0.0000 0.0000 18.6288 0.0000 0.0000
# 5 0.0000 0.0000 0.0000 0.0000 -9.2966 0.0000
# 6 0.0000 0.0000 0.0000 0.0000 0.0000 30.6111
#
#
#
# Elastic Compliance Matrix: (Units=1/GPa)
#
#
# Indices 1 2 3 4 5 6 
#
# 1 0.017669 -0.001632 0.002325 0.000000 0.000000 0.000000
# 2 -0.001632 0.007291 -0.001968 0.000000 0.000000 0.000000
# 3 0.002325 -0.001968 0.017650 0.000000 0.000000 0.000000
# 4 0.000000 0.000000 0.000000 0.053680 0.000000 0.000000
# 5 0.000000 0.000000 0.000000 0.000000 -0.107567 0.000000
# 6 0.000000 0.000000 0.000000 0.000000 0.000000 0.032668
#
#
# Mechanical properties :
#
#
# Convention : Reuss Voigt Hill
#
# Bulk Modulus (GPa) = 24.96177 33.34401 29.15289
# Shear Modulus (GPa) = 134.06965 24.10904 79.08935
#
# Velocity S-wave (km/s) = 7.32823 3.10759 5.62850
# Velocity P-wave (km/s) = 9.03342 5.12176 7.34286
#
# Compressibility (1/GPa) = 0.04006126
#
# Stress axis : x y z
#
# Youngs Moduli (GPa) = 56.59485 137.16017 56.65802
#
# Poissons Ratio (x) = 0.22382 -0.13175
# Poissons Ratio (y) = 0.09235 0.11150
# Poissons Ratio (z) = -0.13160 0.26992
#
# Static dielectric constant tensor:
#      x y z
#    x 2.028450 0.000000 0.000000 
#    y 0.000000 1.895830 0.000000 
#    z 0.000000 0.000000 2.027210 
# 
# From -- ./inp_files/53249.got.cif
#   From: 2010.05.17/outbox.cif.g08.bks.cpg/sg66_27_cif.got.tgz:53249.got - 2010.06.03 17:51:23.
