data_PCOD9496909
_publ_section_title
;
Structure prediction by ZEFSAII (Michael W. Deem and Ramdas Pophale) SiO2 
 PCOD9496909
Probable space group: C C C M
;
_chemical_formula_sum "Si O2"
_cell_formula_units_Z 96
_cell_length_a 26.899918
_cell_length_b 10.188000
_cell_length_c 14.420827
_cell_angle_alpha 90.000000
_cell_angle_beta 90.000000
_cell_angle_gamma 90.000000
_cell_volume 3952.119422
_symmetry_space_group_name_H-M "C C C M"
_symmetry_group_IT_number 66
_symmetry_cell_setting 'orthorhombic'
loop_
_space_group_symop_operation_xyz
x,y,z
-x,-y,z
x,-y,1/2-z
-x,y,1/2-z
-x,-y,-z
x,y,-z
-x,y,1/2+z
x,-y,1/2+z
1/2+x,1/2+y,z
1/2-x,1/2-y,z
1/2+x,1/2-y,1/2-z
1/2-x,1/2+y,1/2-z
1/2-x,1/2-y,-z
1/2+x,1/2+y,-z
1/2-x,1/2+y,1/2+z
1/2+x,1/2-y,1/2+z
loop_
_atom_site_type_symbol
_atom_site_label
_atom_site_fract_x
_atom_site_fract_y
_atom_site_fract_z
Si Si1 0.530716 0.306397 0.888867
Si Si2 0.182475 0.131903 0.886486
Si Si3 0.930260 0.910511 0.113393
Si Si4 0.055368 0.523072 0.857620
Si Si5 0.257014 0.101763 0.613447
Si Si6 0.838014 0.584374 0.891084
O O1 0.553510 0.443748 0.857747
O O2 0.473186 0.308892 0.854905
O O3 0.562755 0.178712 0.869367
O O4 0.528020 0.314441 0.000000
O O5 0.125593 0.109824 0.856903
O O6 0.188364 0.283210 0.854816
O O7 0.217336 0.010792 0.858495
O O8 0.185004 0.132242 0.000000
O O9 0.929551 0.905527 0.000000
O O10 0.051214 0.500000 0.750000
O O11 0.102568 0.436195 0.886791
O O12 0.000000 0.500000 0.899203
O O13 0.254657 0.108370 0.500000
O O14 0.250000 0.250000 0.646840
O O15 0.310305 0.044860 0.643896
O O16 0.827094 0.589979 0.000000
#
# Coordination Sequence:
#
# PCOD9496909 Si02
#       6
#    16  16  16  16  16  16
#     4   9  17  31  53  83 114 143 184 231 280 337
#     4   9  16  28  49  79 117 144 171 219 274 327
#     4   8  15  27  50  85 116 141 173 228 287 335
#     4  11  24  38  53  75 111 152 187 230 281 332
#     4   9  18  30  49  83 118 143 176 226 282 334
#     4  10  20  34  56  83 109 146 188 228 277 332
#
# _framework density 24.290762999999998
#
# number of rings (size 3 to 8) (size 9 to 14) (size 15 to 20)
#    0.000    2.667    0.000    3.000    2.333    4.667 
#    0.000    0.000    0.000   19.000    0.000    0.000 
#    0.000    0.000    0.000    0.000    0.000    0.000 
#
# Total GULP energy -267923.528045 kJ/mol
# GULP energy per Si atom -5581.740168 kJ/mol
# Density = 2.423548 g / cm^3
# Si number density = 24.290763 Si / 1000 Ang^3
#
#
#
# Elastic Constant Matrix: (Units=GPa)
#
#
# Indices 1 2 3 4 5 6 
#
# 1 118.5249 72.3401 1.4500 0.0000 0.0000 0.0000
# 2 72.3401 179.4323 7.6834 0.0000 0.0000 0.0000
# 3 1.4500 7.6834 54.0722 0.0000 0.0000 0.0000
# 4 0.0000 0.0000 0.0000 4.3471 0.0000 0.0000
# 5 0.0000 0.0000 0.0000 0.0000 3.3191 0.0000
# 6 0.0000 0.0000 0.0000 0.0000 0.0000 38.3549
#
#
#
# Elastic Compliance Matrix: (Units=1/GPa)
#
#
# Indices 1 2 3 4 5 6 
#
# 1 0.011197 -0.004529 0.000343 0.000000 0.000000 0.000000
# 2 -0.004529 0.007439 -0.000936 0.000000 0.000000 0.000000
# 3 0.000343 -0.000936 0.018618 0.000000 0.000000 0.000000
# 4 0.000000 0.000000 0.000000 0.230038 0.000000 0.000000
# 5 0.000000 0.000000 0.000000 0.000000 0.301284 0.000000
# 6 0.000000 0.000000 0.000000 0.000000 0.000000 0.026072
#
#
# Mechanical properties :
#
#
# Convention : Reuss Voigt Hill
#
# Bulk Modulus (GPa) = 37.02177 57.21960 47.12068
# Shear Modulus (GPa) = 8.14472 27.24130 17.69301
#
# Velocity S-wave (km/s) = 1.83311 3.35246 2.70179
# Velocity P-wave (km/s) = 4.44461 6.21230 5.40126
#
# Compressibility (1/GPa) = 0.02701113
#
# Stress axis : x y z
#
# Youngs Moduli (GPa) = 89.30975 134.42553 53.71285
#
# Poissons Ratio (x) = 0.60880 -0.01844
# Poissons Ratio (y) = 0.40447 0.05025
# Poissons Ratio (z) = -0.03066 0.12577
#
# Static dielectric constant tensor:
#      x y z
#    x 1.980240 0.000000 0.000000 
#    y 0.000000 2.015480 0.000000 
#    z 0.000000 0.000000 1.937020 
# 
# From -- ./inp_files/52971.got.cif
#   From: 2010.05.17/outbox.cif.g08.bks.cpg/sg66_27_cif.got.tgz:52971.got - 2010.06.03 17:51:23.
