data_PCOD9496289
_publ_section_title
;
Structure prediction by ZEFSAII (Michael W. Deem and Ramdas Pophale) SiO2 
 PCOD9496289
Probable space group: C C C M
;
_chemical_formula_sum "Si O2"
_cell_formula_units_Z 96
_cell_length_a 16.451908
_cell_length_b 19.160025
_cell_length_c 13.687052
_cell_angle_alpha 90.000000
_cell_angle_beta 90.000000
_cell_angle_gamma 90.000000
_cell_volume 4314.418414
_symmetry_space_group_name_H-M "C C C M"
_symmetry_group_IT_number 66
_symmetry_cell_setting 'orthorhombic'
loop_
_space_group_symop_operation_xyz
x,y,z
-x,-y,z
x,-y,1/2-z
-x,y,1/2-z
-x,-y,-z
x,y,-z
-x,y,1/2+z
x,-y,1/2+z
1/2+x,1/2+y,z
1/2-x,1/2-y,z
1/2+x,1/2-y,1/2-z
1/2-x,1/2+y,1/2-z
1/2-x,1/2-y,-z
1/2+x,1/2+y,-z
1/2-x,1/2+y,1/2+z
1/2+x,1/2-y,1/2+z
loop_
_atom_site_type_symbol
_atom_site_label
_atom_site_fract_x
_atom_site_fract_y
_atom_site_fract_z
Si Si1 0.039520 0.379455 0.116221
Si Si2 0.586695 0.341735 0.785429
Si Si3 0.347011 0.255521 0.890430
Si Si4 0.748929 0.103157 0.194344
Si Si5 0.617176 0.803071 0.382973
Si Si6 0.683833 0.963651 0.113646
O O1 0.103800 0.315943 0.130445
O O2 0.090032 0.448192 0.141571
O O3 0.951950 0.357124 0.155232
O O4 0.025289 0.384217 0.000000
O O5 0.500000 0.369498 0.750000
O O6 0.625980 0.311149 0.687442
O O7 0.655552 0.392079 0.827557
O O8 0.583308 0.273259 0.854613
O O9 0.250000 0.250000 0.887072
O O10 0.370384 0.276110 0.000000
O O11 0.701283 0.174345 0.168109
O O12 0.734943 0.079281 0.306206
O O13 0.707402 0.043543 0.128765
O O14 0.627301 0.806600 0.500000
O O15 0.695731 0.942604 0.000000
#
# Coordination Sequence:
#
# PCOD9496289 Si02
#       6
#    16  16  16  16  16  16
#     4   9  18  34  59  90 122 162 207 257 320 386
#     4  12  24  39  62  91 131 169 214 270 328 401
#     4  10  19  34  58  88 119 154 204 265 325 381
#     4  11  25  40  63  95 122 172 226 267 330 393
#     4  11  23  40  63  96 138 173 212 270 342 411
#     4  10  22  43  65  88 126 169 221 274 320 386
#
# _framework density 22.250972000000001
#
# number of rings (size 3 to 8) (size 9 to 14) (size 15 to 20)
#    0.000    1.500    1.667    4.000    0.000    4.667 
#    0.000    5.833    0.000    1.000    0.000    0.000 
#    0.000    0.000    0.000    0.000    0.000    0.000 
#
# Total GULP energy -268274.674389 kJ/mol
# GULP energy per Si atom -5589.055716 kJ/mol
# Density = 2.220033 g / cm^3
# Si number density = 22.250972 Si / 1000 Ang^3
#
#
#
# Elastic Constant Matrix: (Units=GPa)
#
#
# Indices 1 2 3 4 5 6 
#
# 1 127.2673 26.0786 11.0144 0.0000 0.0000 0.0000
# 2 26.0786 47.7404 8.8758 0.0000 0.0000 0.0000
# 3 11.0144 8.8758 97.7171 0.0000 0.0000 0.0000
# 4 0.0000 0.0000 0.0000 12.0227 0.0000 0.0000
# 5 0.0000 0.0000 0.0000 0.0000 21.6917 0.0000
# 6 0.0000 0.0000 0.0000 0.0000 0.0000 24.5192
#
#
#
# Elastic Compliance Matrix: (Units=1/GPa)
#
#
# Indices 1 2 3 4 5 6 
#
# 1 0.008879 -0.004744 -0.000570 0.000000 0.000000 0.000000
# 2 -0.004744 0.023841 -0.001631 0.000000 0.000000 0.000000
# 3 -0.000570 -0.001631 0.010446 0.000000 0.000000 0.000000
# 4 0.000000 0.000000 0.000000 0.083176 0.000000 0.000000
# 5 0.000000 0.000000 0.000000 0.000000 0.046101 0.000000
# 6 0.000000 0.000000 0.000000 0.000000 0.000000 0.040784
#
#
# Mechanical properties :
#
#
# Convention : Reuss Voigt Hill
#
# Bulk Modulus (GPa) = 34.15712 40.51805 37.33759
# Shear Modulus (GPa) = 21.10806 26.76377 23.93591
#
# Velocity S-wave (km/s) = 3.08333 3.47192 3.28338
# Velocity P-wave (km/s) = 5.29718 5.85845 5.58487
#
# Compressibility (1/GPa) = 0.02927647
#
# Stress axis : x y z
#
# Youngs Moduli (GPa) = 112.62580 41.94380 95.73057
#
# Poissons Ratio (x) = 0.19899 0.05455
# Poissons Ratio (y) = 0.53433 0.15612
# Poissons Ratio (z) = 0.06418 0.06840
#
# Static dielectric constant tensor:
#      x y z
#    x 1.895790 0.000000 0.000000 
#    y 0.000000 1.876440 0.000000 
#    z 0.000000 0.000000 1.838790 
# 
# From -- ./inp_files/28338.got.cif
#   From: 2010.05.17/outbox.cif.g08.bks.cpg/sg66_15_cif.got.tgz:28338.got - 2010.06.03 17:51:23.
