data_PCOD9496272
_publ_section_title
;
Structure prediction by ZEFSAII (Michael W. Deem and Ramdas Pophale) SiO2 
 PCOD9496272
Probable space group: C C C M
;
_chemical_formula_sum "Si O2"
_cell_formula_units_Z 80
_cell_length_a 12.053599
_cell_length_b 22.346691
_cell_length_c 15.033158
_cell_angle_alpha 90.000000
_cell_angle_beta 90.000000
_cell_angle_gamma 90.000000
_cell_volume 4049.302159
_symmetry_space_group_name_H-M "C C C M"
_symmetry_group_IT_number 66
_symmetry_cell_setting 'orthorhombic'
loop_
_space_group_symop_operation_xyz
x,y,z
-x,-y,z
x,-y,1/2-z
-x,y,1/2-z
-x,-y,-z
x,y,-z
-x,y,1/2+z
x,-y,1/2+z
1/2+x,1/2+y,z
1/2-x,1/2-y,z
1/2+x,1/2-y,1/2-z
1/2-x,1/2+y,1/2-z
1/2-x,1/2-y,-z
1/2+x,1/2+y,-z
1/2-x,1/2+y,1/2+z
1/2+x,1/2-y,1/2+z
loop_
_atom_site_type_symbol
_atom_site_label
_atom_site_fract_x
_atom_site_fract_y
_atom_site_fract_z
Si Si1 0.165750 0.356407 0.000000
Si Si2 0.377112 0.519447 0.648303
Si Si3 0.820890 0.157300 0.334127
Si Si4 0.295234 0.000412 0.000000
Si Si5 0.908745 0.618261 0.500000
Si Si6 0.690938 0.809795 0.343707
Si Si7 0.000000 0.760081 0.750000
O O1 0.231306 0.331020 0.086888
O O2 0.031781 0.351982 0.000000
O O3 0.176899 0.429030 0.000000
O O4 0.500000 0.500000 0.619337
O O5 0.362333 0.500000 0.750000
O O6 0.365502 0.591065 0.646540
O O7 0.283301 0.491727 0.585747
O O8 0.760121 0.163237 0.238716
O O9 0.926244 0.200514 0.318508
O O10 0.396255 0.953695 0.000000
O O11 0.841194 0.641966 0.415548
O O12 0.750000 0.750000 0.381156
O O13 0.580316 0.782544 0.303320
#
# Coordination Sequence:
#
# PCOD9496272 Si02
#       7
#     8  16  16   8   8  16   8
#     4  10  23  39  60  87 114 150 195 236 292 350
#     4  10  19  34  57  86 114 147 187 234 295 350
#     4  10  21  39  59  85 119 148 186 243 290 343
#     4  10  22  37  55  84 117 149 193 239 284 351
#     4  12  22  38  59  79 114 161 195 239 287 337
#     4  10  22  38  56  84 115 150 196 239 283 341
#     4  10  20  38  61  82 113 150 188 238 294 346
#
# _framework density 19.756489999999999
#
# number of rings (size 3 to 8) (size 9 to 14) (size 15 to 20)
#    0.000    1.800    0.000    4.500    0.000    2.400 
#    0.000    6.500    0.000    3.600    0.000    0.000 
#    0.000    0.000    0.000    0.000    0.000    0.000 
#
# Total GULP energy -223159.225270 kJ/mol
# GULP energy per Si atom -5578.980632 kJ/mol
# Density = 1.971152 g / cm^3
# Si number density = 19.756490 Si / 1000 Ang^3
#
#
#
# Elastic Constant Matrix: (Units=GPa)
#
#
# Indices 1 2 3 4 5 6 
#
# 1 81.5063 24.0794 2.4180 0.0000 0.0000 0.0000
# 2 24.0794 80.6579 10.4152 0.0000 0.0000 0.0000
# 3 2.4180 10.4152 23.2344 0.0000 0.0000 0.0000
# 4 0.0000 0.0000 0.0000 16.9283 0.0000 0.0000
# 5 0.0000 0.0000 0.0000 0.0000 30.0539 0.0000
# 6 0.0000 0.0000 0.0000 0.0000 0.0000 29.0510
#
#
#
# Elastic Compliance Matrix: (Units=1/GPa)
#
#
# Indices 1 2 3 4 5 6 
#
# 1 0.013460 -0.004073 0.000425 0.000000 0.000000 0.000000
# 2 -0.004073 0.014392 -0.006028 0.000000 0.000000 0.000000
# 3 0.000425 -0.006028 0.045697 0.000000 0.000000 0.000000
# 4 0.000000 0.000000 0.000000 0.059073 0.000000 0.000000
# 5 0.000000 0.000000 0.000000 0.000000 0.033274 0.000000
# 6 0.000000 0.000000 0.000000 0.000000 0.000000 0.034422
#
#
# Mechanical properties :
#
#
# Convention : Reuss Voigt Hill
#
# Bulk Modulus (GPa) = 18.45089 28.80266 23.62678
# Shear Modulus (GPa) = 21.03178 25.10570 23.06874
#
# Velocity S-wave (km/s) = 3.26628 3.56864 3.42080
# Velocity P-wave (km/s) = 4.85636 5.62056 5.25238
#
# Compressibility (1/GPa) = 0.05419792
#
# Stress axis : x y z
#
# Youngs Moduli (GPa) = 74.29581 69.48121 21.88309
#
# Poissons Ratio (x) = 0.28301 -0.00930
# Poissons Ratio (y) = 0.30262 0.13191
# Poissons Ratio (z) = -0.03158 0.41882
#
# Static dielectric constant tensor:
#      x y z
#    x 1.702590 0.000000 0.000000 
#    y 0.000000 1.706880 0.000000 
#    z 0.000000 0.000000 1.782230 
# 
# From -- ./inp_files/26492.got.cif
#   From: 2010.05.17/outbox.cif.g08.bks.cpg/sg66_14_cif.got.tgz:26492.got - 2010.06.03 17:51:23.
