data_PCOD9496489
_publ_section_title
;
Structure prediction by ZEFSAII (Michael W. Deem and Ramdas Pophale) SiO2 
 PCOD9496489
Probable space group: C C C M
;
_chemical_formula_sum "Si O2"
_cell_formula_units_Z 116
_cell_length_a 26.265551
_cell_length_b 25.490907
_cell_length_c 9.292903
_cell_angle_alpha 90.000000
_cell_angle_beta 90.000000
_cell_angle_gamma 90.000000
_cell_volume 6221.902602
_symmetry_space_group_name_H-M "C C C M"
_symmetry_group_IT_number 66
_symmetry_cell_setting 'orthorhombic'
loop_
_space_group_symop_operation_xyz
x,y,z
-x,-y,z
x,-y,1/2-z
-x,y,1/2-z
-x,-y,-z
x,y,-z
-x,y,1/2+z
x,-y,1/2+z
1/2+x,1/2+y,z
1/2-x,1/2-y,z
1/2+x,1/2-y,1/2-z
1/2-x,1/2+y,1/2-z
1/2-x,1/2-y,-z
1/2+x,1/2+y,-z
1/2-x,1/2+y,1/2+z
1/2+x,1/2-y,1/2+z
loop_
_atom_site_type_symbol
_atom_site_label
_atom_site_fract_x
_atom_site_fract_y
_atom_site_fract_z
Si Si1 0.154800 0.449788 0.328595
Si Si2 0.101662 0.949474 0.334903
Si Si3 0.500000 0.500000 0.250000
Si Si4 0.449687 0.927764 0.664650
Si Si5 0.273446 0.149711 0.327936
Si Si6 0.049708 0.301287 0.163178
Si Si7 0.351025 0.235663 0.329502
Si Si8 0.159798 0.860269 0.170946
O O1 0.178936 0.500000 0.250000
O O2 0.099994 0.442463 0.254877
O O3 0.187232 0.397353 0.303494
O O4 0.150497 0.542290 0.000000
O O5 0.117683 0.948669 0.500000
O O6 0.040633 0.961946 0.329400
O O7 0.120533 0.897295 0.255011
O O8 0.123827 0.000000 0.250000
O O9 0.500000 0.943923 0.750000
O O10 0.447877 0.947554 0.500000
O O11 0.451310 0.864470 0.657777
O O12 0.265788 0.156001 0.500000
O O13 0.300645 0.203701 0.280082
O O14 0.217851 0.133785 0.272952
O O15 0.100624 0.285106 0.244160
O O16 0.000000 0.283399 0.250000
O O17 0.048825 0.281351 0.000000
O O18 0.357100 0.223941 0.500000
O O19 0.349006 0.298060 0.313608
O O20 0.156674 0.873138 0.000000
#
# Coordination Sequence:
#
# PCOD9496489 Si02
#       8
#    16  16   4  16  16  16  16  16
#     4  11  22  37  57  81 112 148 195 244 292 347
#     4  10  21  39  64  91 122 158 198 243 295 358
#     4   8  22  40  70  92 122 160 206 236 298 360
#     4  10  20  35  56  81 109 143 186 234 289 345
#     4   9  19  37  60  84 115 159 203 244 294 356
#     4  10  20  34  55  82 114 151 193 239 290 349
#     4  10  19  36  61  87 118 158 201 245 297 357
#     4  10  21  37  61  93 124 155 198 247 295 354
#
# _framework density 18.643815
#
# number of rings (size 3 to 8) (size 9 to 14) (size 15 to 20)
#    0.414    1.655    1.379    2.276    0.000    4.138 
#    1.241    4.828    0.000    1.655    0.000    0.000 
#    0.000    0.000    0.000    0.000    0.000    0.000 
#
# Total GULP energy -323326.570302 kJ/mol
# GULP energy per Si atom -5574.596040 kJ/mol
# Density = 1.860138 g / cm^3
# Si number density = 18.643815 Si / 1000 Ang^3
#
#
#
# Elastic Constant Matrix: (Units=GPa)
#
#
# Indices 1 2 3 4 5 6 
#
# 1 102.8260 36.9628 46.3022 0.0000 0.0000 0.0000
# 2 36.9628 72.8806 58.5532 0.0000 0.0000 0.0000
# 3 46.3022 58.5532 108.1854 0.0000 0.0000 0.0000
# 4 0.0000 0.0000 0.0000 21.9789 0.0000 0.0000
# 5 0.0000 0.0000 0.0000 0.0000 17.0294 0.0000
# 6 0.0000 0.0000 0.0000 0.0000 0.0000 12.8870
#
#
#
# Elastic Compliance Matrix: (Units=1/GPa)
#
#
# Indices 1 2 3 4 5 6 
#
# 1 0.012568 -0.003632 -0.003413 0.000000 0.000000 0.000000
# 2 -0.003632 0.025327 -0.012154 0.000000 0.000000 0.000000
# 3 -0.003413 -0.012154 0.017282 0.000000 0.000000 0.000000
# 4 0.000000 0.000000 0.000000 0.045498 0.000000 0.000000
# 5 0.000000 0.000000 0.000000 0.000000 0.058722 0.000000
# 6 0.000000 0.000000 0.000000 0.000000 0.000000 0.077598
#
#
# Mechanical properties :
#
#
# Convention : Reuss Voigt Hill
#
# Bulk Modulus (GPa) = 59.59464 63.05872 61.32668
# Shear Modulus (GPa) = 17.79452 19.85063 18.82258
#
# Velocity S-wave (km/s) = 3.09276 3.26656 3.18085
# Velocity P-wave (km/s) = 6.69237 6.93711 6.81584
#
# Compressibility (1/GPa) = 0.01678003
#
# Stress axis : x y z
#
# Youngs Moduli (GPa) = 79.56966 39.48315 57.86335
#
# Poissons Ratio (x) = 0.14339 0.19750
# Poissons Ratio (y) = 0.28897 0.70325
# Poissons Ratio (z) = 0.27159 0.47986
#
# Static dielectric constant tensor:
#      x y z
#    x 1.646410 0.000000 0.000000 
#    y 0.000000 1.663360 0.000000 
#    z 0.000000 0.000000 1.629220 
# 
# From -- ./inp_files/9470.got.cif
#   From: 2010.05.17/outbox.cif.g08.bks.cpg/sg66_5_cif.got.tgz:9470.got - 2010.06.03 17:51:23.
