data_PCOD9496019
_publ_section_title
;
Structure prediction by ZEFSAII (Michael W. Deem and Ramdas Pophale) SiO2 
 PCOD9496019
Probable space group: C C C M
;
_chemical_formula_sum "Si O2"
_cell_formula_units_Z 104
_cell_length_a 26.690428
_cell_length_b 8.635259
_cell_length_c 23.877814
_cell_angle_alpha 90.000000
_cell_angle_beta 90.000000
_cell_angle_gamma 90.000000
_cell_volume 5503.328929
_symmetry_space_group_name_H-M "C C C M"
_symmetry_group_IT_number 66
_symmetry_cell_setting 'orthorhombic'
loop_
_space_group_symop_operation_xyz
x,y,z
-x,-y,z
x,-y,1/2-z
-x,y,1/2-z
-x,-y,-z
x,y,-z
-x,y,1/2+z
x,-y,1/2+z
1/2+x,1/2+y,z
1/2-x,1/2-y,z
1/2+x,1/2-y,1/2-z
1/2-x,1/2+y,1/2-z
1/2-x,1/2-y,-z
1/2+x,1/2+y,-z
1/2-x,1/2+y,1/2+z
1/2+x,1/2-y,1/2+z
loop_
_atom_site_type_symbol
_atom_site_label
_atom_site_fract_x
_atom_site_fract_y
_atom_site_fract_z
Si Si1 0.828326 0.000000 0.250000
Si Si2 0.966238 0.845625 0.875954
Si Si3 0.879730 0.979718 0.436078
Si Si4 0.390471 0.080872 0.333899
Si Si5 0.406471 0.235179 0.776848
Si Si6 0.197475 0.179568 0.642847
Si Si7 0.050765 0.329674 0.563232
O O1 0.865989 0.871485 0.225096
O O2 0.797732 0.917020 0.299332
O O3 0.953158 0.783808 0.814558
O O4 0.997232 0.725950 0.913793
O O5 0.913887 0.893820 0.904957
O O6 0.000000 0.000000 0.871834
O O7 0.868864 0.024003 0.500000
O O8 0.830754 0.930567 0.401495
O O9 0.914702 0.825618 0.437586
O O10 0.418749 0.184794 0.286744
O O11 0.340352 0.177331 0.345887
O O12 0.422857 0.066264 0.389962
O O13 0.382538 0.914748 0.306525
O O14 0.250000 0.250000 0.624216
O O15 0.048844 0.390069 0.500000
#
# Coordination Sequence:
#
# PCOD9496019 Si02
#       7
#     8  16  16  16  16  16  16
#     4  10  20  36  57  78 110 144 178 231 278 340
#     4  10  19  32  55  82 110 148 193 233 271 324
#     4   9  17  33  54  81 114 147 185 234 277 326
#     4   9  21  38  54  79 114 149 175 234 287 333
#     4  10  20  37  56  77 114 144 185 226 284 334
#     4  10  20  35  58  86 107 138 186 228 286 338
#     4   9  18  34  54  79 112 151 192 227 272 331
#
# _framework density 18.897653999999999
#
# number of rings (size 3 to 8) (size 9 to 14) (size 15 to 20)
#    0.000    2.462    1.538    0.462    2.154    5.846 
#    0.000    3.846    0.000    0.000    0.000    1.077 
#    0.000    0.000    0.000    0.000    0.000    0.000 
#
# Total GULP energy -290171.710675 kJ/mol
# GULP energy per Si atom -5580.225205 kJ/mol
# Density = 1.885464 g / cm^3
# Si number density = 18.897654 Si / 1000 Ang^3
#
#
#
# Elastic Constant Matrix: (Units=GPa)
#
#
# Indices 1 2 3 4 5 6 
#
# 1 96.8302 22.4851 59.9970 0.0000 0.0000 0.0000
# 2 22.4851 54.2483 17.2481 0.0000 0.0000 0.0000
# 3 59.9970 17.2481 117.9201 0.0000 0.0000 0.0000
# 4 0.0000 0.0000 0.0000 19.2064 0.0000 0.0000
# 5 0.0000 0.0000 0.0000 0.0000 10.9257 0.0000
# 6 0.0000 0.0000 0.0000 0.0000 0.0000 22.1798
#
#
#
# Elastic Compliance Matrix: (Units=1/GPa)
#
#
# Indices 1 2 3 4 5 6 
#
# 1 0.015956 -0.004229 -0.007500 0.000000 0.000000 0.000000
# 2 -0.004229 0.020454 -0.000840 0.000000 0.000000 0.000000
# 3 -0.007500 -0.000840 0.012419 0.000000 0.000000 0.000000
# 4 0.000000 0.000000 0.000000 0.052066 0.000000 0.000000
# 5 0.000000 0.000000 0.000000 0.000000 0.091527 0.000000
# 6 0.000000 0.000000 0.000000 0.000000 0.000000 0.045086
#
#
# Mechanical properties :
#
#
# Convention : Reuss Voigt Hill
#
# Bulk Modulus (GPa) = 42.20984 52.05101 47.13042
# Shear Modulus (GPa) = 18.48129 21.74693 20.11411
#
# Velocity S-wave (km/s) = 3.13064 3.39599 3.26601
# Velocity P-wave (km/s) = 5.95419 6.55594 6.26230
#
# Compressibility (1/GPa) = 0.02369116
#
# Stress axis : x y z
#
# Youngs Moduli (GPa) = 62.67045 48.89075 80.52094
#
# Poissons Ratio (x) = 0.20677 0.60390
# Poissons Ratio (y) = 0.26504 0.06764
# Poissons Ratio (z) = 0.47003 0.04107
#
# Static dielectric constant tensor:
#      x y z
#    x 1.625870 0.000000 0.000000 
#    y 0.000000 1.667660 0.000000 
#    z 0.000000 0.000000 1.675860 
# 
# From -- ./inp_files/60153.got.cif
#   From: 2010.05.17/outbox.cif.g08.bks.cpg/sg66_31_cif.got.tgz:60153.got - 2010.06.03 17:51:23.
