data_PCOD9496080
_publ_section_title
;
Structure prediction by ZEFSAII (Michael W. Deem and Ramdas Pophale) SiO2 
 PCOD9496080
Probable space group: C C C M
;
_chemical_formula_sum "Si O2"
_cell_formula_units_Z 64
_cell_length_a 8.836888
_cell_length_b 11.869499
_cell_length_c 24.986801
_cell_angle_alpha 90.000000
_cell_angle_beta 90.000000
_cell_angle_gamma 90.000000
_cell_volume 2620.851396
_symmetry_space_group_name_H-M "C C C M"
_symmetry_group_IT_number 66
_symmetry_cell_setting 'orthorhombic'
loop_
_space_group_symop_operation_xyz
x,y,z
-x,-y,z
x,-y,1/2-z
-x,y,1/2-z
-x,-y,-z
x,y,-z
-x,y,1/2+z
x,-y,1/2+z
1/2+x,1/2+y,z
1/2-x,1/2-y,z
1/2+x,1/2-y,1/2-z
1/2-x,1/2+y,1/2-z
1/2-x,1/2-y,-z
1/2+x,1/2+y,-z
1/2-x,1/2+y,1/2+z
1/2+x,1/2-y,1/2+z
loop_
_atom_site_type_symbol
_atom_site_label
_atom_site_fract_x
_atom_site_fract_y
_atom_site_fract_z
Si Si1 0.821488 0.496858 0.500000
Si Si2 0.378903 0.653535 0.295709
Si Si3 0.694858 0.882511 0.889015
Si Si4 0.571764 0.246421 0.890759
Si Si5 0.561441 0.629302 0.500000
O O1 0.767910 0.439958 0.555183
O O2 0.743984 0.617579 0.500000
O O3 0.000000 0.500000 0.500000
O O4 0.500000 0.620107 0.250000
O O5 0.250000 0.750000 0.278910
O O6 0.273613 0.573438 0.334304
O O7 0.500441 0.694654 0.339477
O O8 0.750000 0.750000 0.891731
O O9 0.512707 0.873370 0.887819
O O10 0.750000 0.250000 0.887427
O O11 0.522879 0.305670 0.946096
O O12 0.500000 0.500000 0.500000
#
# Coordination Sequence:
#
# PCOD9496080 Si02
#       5
#     8  16  16  16   8
#     4  12  22  34  54  82 116 146 178 220 268 330
#     4   9  18  32  54  80 103 131 176 228 269 309
#     4   9  19  35  54  77 108 144 176 215 269 323
#     4  10  19  33  53  77 106 137 173 215 262 316
#     4  12  22  32  50  78 110 140 174 214 260 318
#
# _framework density 24.419543000000001
#
# number of rings (size 3 to 8) (size 9 to 14) (size 15 to 20)
#    0.000    2.500    0.000    6.750    0.000    0.000 
#    0.000    0.625    0.000    6.750    0.000    1.750 
#    0.000    2.000    0.000    0.000    0.000    0.000 
#
# Total GULP energy -178197.230208 kJ/mol
# GULP energy per Si atom -5568.663444 kJ/mol
# Density = 2.436396 g / cm^3
# Si number density = 24.419543 Si / 1000 Ang^3
#
#
#
# Elastic Constant Matrix: (Units=GPa)
#
#
# Indices 1 2 3 4 5 6 
#
# 1 217.0202 31.2406 76.2881 0.0000 0.0000 0.0000
# 2 31.2406 54.5488 50.4455 0.0000 0.0000 0.0000
# 3 76.2881 50.4455 206.0244 0.0000 0.0000 0.0000
# 4 0.0000 0.0000 0.0000 7.3123 0.0000 0.0000
# 5 0.0000 0.0000 0.0000 0.0000 58.8232 0.0000
# 6 0.0000 0.0000 0.0000 0.0000 0.0000 18.9425
#
#
#
# Elastic Compliance Matrix: (Units=1/GPa)
#
#
# Indices 1 2 3 4 5 6 
#
# 1 0.005404 -0.001609 -0.001607 0.000000 0.000000 0.000000
# 2 -0.001609 0.024177 -0.005324 0.000000 0.000000 0.000000
# 3 -0.001607 -0.005324 0.006753 0.000000 0.000000 0.000000
# 4 0.000000 0.000000 0.000000 0.136755 0.000000 0.000000
# 5 0.000000 0.000000 0.000000 0.000000 0.017000 0.000000
# 6 0.000000 0.000000 0.000000 0.000000 0.000000 0.052791
#
#
# Mechanical properties :
#
#
# Convention : Reuss Voigt Hill
#
# Bulk Modulus (GPa) = 51.93770 88.17129 70.05450
# Shear Modulus (GPa) = 18.77024 38.32355 28.54689
#
# Velocity S-wave (km/s) = 2.77547 3.96584 3.42280
# Velocity P-wave (km/s) = 5.62015 7.56014 6.66115
#
# Compressibility (1/GPa) = 0.01925384
#
# Stress axis : x y z
#
# Youngs Moduli (GPa) = 185.03242 41.36126 148.09175
#
# Poissons Ratio (x) = 0.06654 0.23803
# Poissons Ratio (y) = 0.29768 0.78846
# Poissons Ratio (z) = 0.29740 0.22021
#
# Static dielectric constant tensor:
#      x y z
#    x 2.176230 0.000000 0.000000 
#    y 0.000000 2.093610 0.000000 
#    z 0.000000 0.000000 2.025110 
# 
# From -- ./inp_files/62103.got.cif
#   From: 2010.05.17/outbox.cif.g08.bks.cpg/sg66_32_cif.got.tgz:62103.got - 2010.06.03 17:51:23.
