data_PCOD9496254
_publ_section_title
;
Structure prediction by ZEFSAII (Michael W. Deem and Ramdas Pophale) SiO2 
 PCOD9496254
Probable space group: C C C M
;
_chemical_formula_sum "Si O2"
_cell_formula_units_Z 88
_cell_length_a 17.474723
_cell_length_b 12.148508
_cell_length_c 20.136917
_cell_angle_alpha 90.000000
_cell_angle_beta 90.000000
_cell_angle_gamma 90.000000
_cell_volume 4274.902601
_symmetry_space_group_name_H-M "C C C M"
_symmetry_group_IT_number 66
_symmetry_cell_setting 'orthorhombic'
loop_
_space_group_symop_operation_xyz
x,y,z
-x,-y,z
x,-y,1/2-z
-x,y,1/2-z
-x,-y,-z
x,y,-z
-x,y,1/2+z
x,-y,1/2+z
1/2+x,1/2+y,z
1/2-x,1/2-y,z
1/2+x,1/2-y,1/2-z
1/2-x,1/2+y,1/2-z
1/2-x,1/2-y,-z
1/2+x,1/2+y,-z
1/2-x,1/2+y,1/2+z
1/2+x,1/2-y,1/2+z
loop_
_atom_site_type_symbol
_atom_site_label
_atom_site_fract_x
_atom_site_fract_y
_atom_site_fract_z
Si Si1 0.750000 0.750000 0.385903
Si Si2 0.792100 0.587488 0.920883
Si Si3 0.984093 0.228943 0.825935
Si Si4 0.651122 0.313169 0.641393
Si Si5 0.893296 0.623338 0.424944
Si Si6 0.834471 0.118537 0.217170
O O1 0.823652 0.711571 0.425633
O O2 0.772479 0.849168 0.336803
O O3 0.707055 0.593370 0.888510
O O4 0.829445 0.702075 0.897761
O O5 0.851326 0.489919 0.904109
O O6 0.782125 0.583656 0.000000
O O7 0.953457 0.327299 0.872628
O O8 0.916406 0.140452 0.816553
O O9 0.000000 0.267551 0.750000
O O10 0.059767 0.173883 0.856947
O O11 0.670946 0.301055 0.719235
O O12 0.924222 0.611432 0.500000
O O13 0.829040 0.000000 0.250000
#
# Coordination Sequence:
#
# PCOD9496254 Si02
#       6
#     8  16  16  16  16  16
#     4  10  19  34  56  84 113 148 192 236 283 352
#     4  10  21  36  56  82 111 148 192 239 292 348
#     4   9  21  38  57  85 117 151 195 245 294 350
#     4  10  19  35  55  80 109 142 188 242 286 340
#     4  10  21  37  57  83 117 156 193 236 297 358
#     4  10  20  35  57  83 114 151 188 237 299 348
#
# _framework density 20.585265
#
# number of rings (size 3 to 8) (size 9 to 14) (size 15 to 20)
#    0.000    2.182    0.000    3.545    0.000    5.455 
#    0.000   13.636    0.000    1.091    0.000   21.636 
#    0.000    0.000    0.000    0.000    0.000    0.000 
#
# Total GULP energy -245322.915524 kJ/mol
# GULP energy per Si atom -5575.520807 kJ/mol
# Density = 2.053841 g / cm^3
# Si number density = 20.585265 Si / 1000 Ang^3
#
#
#
# Elastic Constant Matrix: (Units=GPa)
#
#
# Indices 1 2 3 4 5 6 
#
# 1 96.6230 16.4530 43.0039 0.0000 0.0000 0.0000
# 2 16.4530 85.5680 23.0042 0.0000 0.0000 0.0000
# 3 43.0039 23.0042 76.4965 0.0000 0.0000 0.0000
# 4 0.0000 0.0000 0.0000 19.7638 0.0000 0.0000
# 5 0.0000 0.0000 0.0000 0.0000 31.4104 0.0000
# 6 0.0000 0.0000 0.0000 0.0000 0.0000 20.2439
#
#
#
# Elastic Compliance Matrix: (Units=1/GPa)
#
#
# Indices 1 2 3 4 5 6 
#
# 1 0.013833 -0.000619 -0.007590 0.000000 0.000000 0.000000
# 2 -0.000619 0.012742 -0.003484 0.000000 0.000000 0.000000
# 3 -0.007590 -0.003484 0.018387 0.000000 0.000000 0.000000
# 4 0.000000 0.000000 0.000000 0.050597 0.000000 0.000000
# 5 0.000000 0.000000 0.000000 0.000000 0.031837 0.000000
# 6 0.000000 0.000000 0.000000 0.000000 0.000000 0.049398
#
#
# Mechanical properties :
#
#
# Convention : Reuss Voigt Hill
#
# Bulk Modulus (GPa) = 46.34796 47.06773 46.70785
# Shear Modulus (GPa) = 24.11113 26.03204 25.07158
#
# Velocity S-wave (km/s) = 3.42611 3.55997 3.49368
# Velocity P-wave (km/s) = 6.18183 6.30970 6.24609
#
# Compressibility (1/GPa) = 0.02157592
#
# Stress axis : x y z
#
# Youngs Moduli (GPa) = 72.28998 78.47902 54.38565
#
# Poissons Ratio (x) = 0.04860 0.41281
# Poissons Ratio (y) = 0.04476 0.18947
# Poissons Ratio (z) = 0.54871 0.27340
#
# Static dielectric constant tensor:
#      x y z
#    x 1.766990 0.000000 0.000000 
#    y 0.000000 1.762370 0.000000 
#    z 0.000000 0.000000 1.725140 
# 
# From -- ./inp_files/50915.got.cif
#   From: 2010.05.17/outbox.cif.g08.bks.cpg/sg66_26_cif.got.tgz:50915.got - 2010.06.03 17:51:23.
