data_PCOD9496868
_publ_section_title
;
Structure prediction by ZEFSAII (Michael W. Deem and Ramdas Pophale) SiO2 
 PCOD9496868
Probable space group: C C C M
;
_chemical_formula_sum "Si O2"
_cell_formula_units_Z 96
_cell_length_a 8.250378
_cell_length_b 23.747950
_cell_length_c 24.080235
_cell_angle_alpha 90.000000
_cell_angle_beta 90.000000
_cell_angle_gamma 90.000000
_cell_volume 4718.029950
_symmetry_space_group_name_H-M "C C C M"
_symmetry_group_IT_number 66
_symmetry_cell_setting 'orthorhombic'
loop_
_space_group_symop_operation_xyz
x,y,z
-x,-y,z
x,-y,1/2-z
-x,y,1/2-z
-x,-y,-z
x,y,-z
-x,y,1/2+z
x,-y,1/2+z
1/2+x,1/2+y,z
1/2-x,1/2-y,z
1/2+x,1/2-y,1/2-z
1/2-x,1/2+y,1/2-z
1/2-x,1/2-y,-z
1/2+x,1/2+y,-z
1/2-x,1/2+y,1/2+z
1/2+x,1/2-y,1/2+z
loop_
_atom_site_type_symbol
_atom_site_label
_atom_site_fract_x
_atom_site_fract_y
_atom_site_fract_z
Si Si1 0.104889 0.205542 0.059943
Si Si2 0.658852 0.698815 0.352522
Si Si3 0.009252 0.087011 0.687438
Si Si4 0.723750 0.902190 0.895823
Si Si5 0.168847 0.022871 0.414481
Si Si6 0.122154 0.630987 0.063484
O O1 0.250000 0.250000 0.059230
O O2 0.171715 0.141958 0.067685
O O3 0.996635 0.218836 0.112895
O O4 0.019533 0.208568 0.000000
O O5 0.750000 0.750000 0.323340
O O6 0.602227 0.646888 0.315099
O O7 0.774962 0.675273 0.401313
O O8 0.110097 0.046643 0.645845
O O9 0.000000 0.066764 0.750000
O O10 0.829910 0.095609 0.660862
O O11 0.540863 0.881062 0.901589
O O12 0.723202 0.967089 0.914322
O O13 0.265783 0.075062 0.439153
O O14 0.000000 0.000000 0.439687
O O15 0.082019 0.647792 0.000000
#
# Coordination Sequence:
#
# PCOD9496868 Si02
#       6
#    16  16  16  16  16  16
#     4  10  20  34  54  80 112 155 200 239 287 346
#     4  10  21  37  55  81 114 147 192 242 289 351
#     4   9  20  41  63  81 107 148 191 241 299 348
#     4  10  20  34  55  83 112 143 190 243 288 345
#     4   9  20  36  55  81 112 147 193 241 289 350
#     4  11  22  35  54  82 119 158 190 232 293 355
#
# _framework density 20.347474999999999
#
# number of rings (size 3 to 8) (size 9 to 14) (size 15 to 20)
#    0.000    2.167    0.000    3.500    0.000    8.000 
#    0.000   10.833    0.000    8.000    0.000    0.000 
#    0.000    0.000    0.000    0.000    0.000    0.000 
#
# Total GULP energy -267653.098294 kJ/mol
# GULP energy per Si atom -5576.106214 kJ/mol
# Density = 2.030116 g / cm^3
# Si number density = 20.347475 Si / 1000 Ang^3
#
#
#
# Elastic Constant Matrix: (Units=GPa)
#
#
# Indices 1 2 3 4 5 6 
#
# 1 66.0129 2.7797 6.4291 0.0000 0.0000 0.0000
# 2 2.7797 94.8956 3.5428 0.0000 0.0000 0.0000
# 3 6.4291 3.5428 89.5307 0.0000 0.0000 0.0000
# 4 0.0000 0.0000 0.0000 -1.6497 0.0000 0.0000
# 5 0.0000 0.0000 0.0000 0.0000 16.0813 0.0000
# 6 0.0000 0.0000 0.0000 0.0000 0.0000 41.5274
#
#
#
# Elastic Compliance Matrix: (Units=1/GPa)
#
#
# Indices 1 2 3 4 5 6 
#
# 1 0.015271 -0.000407 -0.001080 0.000000 0.000000 0.000000
# 2 -0.000407 0.010564 -0.000389 0.000000 0.000000 0.000000
# 3 -0.001080 -0.000389 0.011262 0.000000 0.000000 0.000000
# 4 0.000000 0.000000 0.000000 -0.606178 0.000000 0.000000
# 5 0.000000 0.000000 0.000000 0.000000 0.062184 0.000000
# 6 0.000000 0.000000 0.000000 0.000000 0.000000 0.024081
#
#
# Mechanical properties :
#
#
# Convention : Reuss Voigt Hill
#
# Bulk Modulus (GPa) = 29.98947 30.66026 30.32486
# Shear Modulus (GPa) = -10.68495 27.03764 8.17635
#
# Velocity S-wave (km/s) = -2.29404 3.64922 2.00676
# Velocity P-wave (km/s) = 2.78457 5.73208 4.50614
#
# Compressibility (1/GPa) = 0.03334504
#
# Stress axis : x y z
#
# Youngs Moduli (GPa) = 65.48392 94.65813 88.79158
#
# Poissons Ratio (x) = 0.03852 0.09594
# Poissons Ratio (y) = 0.02665 0.03452
# Poissons Ratio (z) = 0.07075 0.03680
#
# Static dielectric constant tensor:
#      x y z
#    x 1.742310 0.000000 0.000000 
#    y 0.000000 1.751480 0.000000 
#    z 0.000000 0.000000 1.695040 
# 
# From -- ./inp_files/55599.got.cif
#   From: 2010.05.17/outbox.cif.g08.bks.cpg/sg66_28_cif.got.tgz:55599.got - 2010.06.03 17:51:23.
