data_PCOD9496652
_publ_section_title
;
Structure prediction by ZEFSAII (Michael W. Deem and Ramdas Pophale) SiO2 
 PCOD9496652
Probable space group: C C C M
;
_chemical_formula_sum "Si O2"
_cell_formula_units_Z 88
_cell_length_a 5.188762
_cell_length_b 34.111279
_cell_length_c 33.314654
_cell_angle_alpha 90.000000
_cell_angle_beta 90.000000
_cell_angle_gamma 90.000000
_cell_volume 5896.537454
_symmetry_space_group_name_H-M "C C C M"
_symmetry_group_IT_number 66
_symmetry_cell_setting 'orthorhombic'
loop_
_space_group_symop_operation_xyz
x,y,z
-x,-y,z
x,-y,1/2-z
-x,y,1/2-z
-x,-y,-z
x,y,-z
-x,y,1/2+z
x,-y,1/2+z
1/2+x,1/2+y,z
1/2-x,1/2-y,z
1/2+x,1/2-y,1/2-z
1/2-x,1/2+y,1/2-z
1/2-x,1/2-y,-z
1/2+x,1/2+y,-z
1/2-x,1/2+y,1/2+z
1/2+x,1/2-y,1/2+z
loop_
_atom_site_type_symbol
_atom_site_label
_atom_site_fract_x
_atom_site_fract_y
_atom_site_fract_z
Si Si1 0.011058 0.047495 0.795799
Si Si2 0.755591 0.472442 0.500000
Si Si3 0.381375 0.088607 0.070230
Si Si4 0.489838 0.952658 0.846619
Si Si5 0.900814 0.864856 0.547978
Si Si6 0.996908 0.773622 0.451324
O O1 0.772531 0.058604 0.824029
O O2 0.000000 0.061978 0.750000
O O3 0.275609 0.058075 0.817336
O O4 0.000000 0.000000 0.793695
O O5 0.500000 0.500000 0.500000
O O6 0.794382 0.444646 0.461528
O O7 0.000000 0.500000 0.500000
O O8 0.472319 0.068171 0.110970
O O9 0.618001 0.116316 0.055293
O O10 0.119244 0.113233 0.073445
O O11 0.500000 0.000000 0.852408
O O12 0.954669 0.869829 0.500000
O O13 0.943331 0.819108 0.557788
O O14 0.005906 0.772099 0.500000
O O15 0.750000 0.750000 0.437125
O O16 0.250000 0.750000 0.437244
#
# Coordination Sequence:
#
# PCOD9496652 Si02
#       6
#    16   8  16  16  16  16
#     4   9  17  31  50  69  87 110 144 191 247 297
#     4  12  24  36  48  60  82 126 178 218 242 262
#     4  12  22  35  47  66  91 126 166 204 244 271
#     4  10  20  32  47  67  91 118 156 203 236 278
#     4  11  20  34  49  65  91 123 160 199 240 280
#     4   9  17  29  47  69  87 109 146 194 237 281
#
# _framework density 14.924011999999999
#
# number of rings (size 3 to 8) (size 9 to 14) (size 15 to 20)
#    0.000    1.636    1.818    4.364    0.000    7.273 
#    0.000    0.000    0.000    0.000    0.000    0.000 
#    0.000    0.000    0.000    0.000    0.000  229.091 
#
# Total GULP energy -245208.084045 kJ/mol
# GULP energy per Si atom -5572.911001 kJ/mol
# Density = 1.489004 g / cm^3
# Si number density = 14.924012 Si / 1000 Ang^3
#
#
#
# Elastic Constant Matrix: (Units=GPa)
#
#
# Indices 1 2 3 4 5 6 
#
# 1 121.2537 44.9296 19.3544 0.0000 0.0000 0.0000
# 2 44.9296 79.3305 25.2809 0.0000 0.0000 0.0000
# 3 19.3544 25.2809 80.1663 0.0000 0.0000 0.0000
# 4 0.0000 0.0000 0.0000 2.7503 0.0000 0.0000
# 5 0.0000 0.0000 0.0000 0.0000 16.7498 0.0000
# 6 0.0000 0.0000 0.0000 0.0000 0.0000 25.0042
#
#
#
# Elastic Compliance Matrix: (Units=1/GPa)
#
#
# Indices 1 2 3 4 5 6 
#
# 1 0.010476 -0.005700 -0.000732 0.000000 0.000000 0.000000
# 2 -0.005700 0.017115 -0.004021 0.000000 0.000000 0.000000
# 3 -0.000732 -0.004021 0.013919 0.000000 0.000000 0.000000
# 4 0.000000 0.000000 0.000000 0.363594 0.000000 0.000000
# 5 0.000000 0.000000 0.000000 0.000000 0.059702 0.000000
# 6 0.000000 0.000000 0.000000 0.000000 0.000000 0.039993
#
#
# Mechanical properties :
#
#
# Convention : Reuss Voigt Hill
#
# Bulk Modulus (GPa) = 48.53374 51.09781 49.81577
# Shear Modulus (GPa) = 9.38837 21.64658 15.51747
#
# Velocity S-wave (km/s) = 2.51086 3.81261 3.22804
# Velocity P-wave (km/s) = 6.40290 7.32764 6.88082
#
# Compressibility (1/GPa) = 0.02060422
#
# Stress axis : x y z
#
# Youngs Moduli (GPa) = 95.45562 58.42745 71.84513
#
# Poissons Ratio (x) = 0.33304 0.05257
# Poissons Ratio (y) = 0.54410 0.28891
# Poissons Ratio (z) = 0.06984 0.23495
#
# Static dielectric constant tensor:
#      x y z
#    x 1.496270 0.000000 0.000000 
#    y 0.000000 1.503050 0.000000 
#    z 0.000000 0.000000 1.444580 
# 
# From -- ./inp_files/61658.got.cif
#   From: 2010.05.17/outbox.cif.g08.bks.cpg/sg66_31_cif.got.tgz:61658.got - 2010.06.03 17:51:23.
