data_PCOD9496692
_publ_section_title
;
Structure prediction by ZEFSAII (Michael W. Deem and Ramdas Pophale) SiO2 
 PCOD9496692
Probable space group: C C C M
;
_chemical_formula_sum "Si O2"
_cell_formula_units_Z 112
_cell_length_a 25.648587
_cell_length_b 15.880831
_cell_length_c 13.883436
_cell_angle_alpha 90.000000
_cell_angle_beta 90.000000
_cell_angle_gamma 90.000000
_cell_volume 5655.013307
_symmetry_space_group_name_H-M "C C C M"
_symmetry_group_IT_number 66
_symmetry_cell_setting 'orthorhombic'
loop_
_space_group_symop_operation_xyz
x,y,z
-x,-y,z
x,-y,1/2-z
-x,y,1/2-z
-x,-y,-z
x,y,-z
-x,y,1/2+z
x,-y,1/2+z
1/2+x,1/2+y,z
1/2-x,1/2-y,z
1/2+x,1/2-y,1/2-z
1/2-x,1/2+y,1/2-z
1/2-x,1/2-y,-z
1/2+x,1/2+y,-z
1/2-x,1/2+y,1/2+z
1/2+x,1/2-y,1/2+z
loop_
_atom_site_type_symbol
_atom_site_label
_atom_site_fract_x
_atom_site_fract_y
_atom_site_fract_z
Si Si1 0.580800 0.659834 0.267377
Si Si2 0.203859 0.115235 0.112557
Si Si3 0.776132 0.659142 0.394753
Si Si4 0.374270 0.771649 0.387285
Si Si5 0.814810 0.594789 0.786502
Si Si6 0.013238 0.098024 0.108075
Si Si7 0.332595 0.565869 0.111992
O O1 0.588962 0.743751 0.202516
O O2 0.561090 0.600519 0.181030
O O3 0.533758 0.652294 0.344968
O O4 0.631474 0.624013 0.321474
O O5 0.172651 0.202430 0.123137
O O6 0.256451 0.108596 0.172999
O O7 0.169062 0.033072 0.135512
O O8 0.217986 0.107525 0.000000
O O9 0.799481 0.645202 0.500000
O O10 0.750000 0.750000 0.392037
O O11 0.816867 0.649946 0.310332
O O12 0.727683 0.595244 0.382573
O O13 0.391341 0.766305 0.500000
O O14 0.352990 0.864507 0.364163
O O15 0.822826 0.500000 0.750000
O O16 0.025189 0.126732 0.000000
O O17 0.000000 0.000000 0.103201
O O18 0.349380 0.575634 0.000000
#
# Coordination Sequence:
#
# PCOD9496692 Si02
#       7
#    16  16  16  16  16  16  16
#     4  11  21  36  59  83 118 159 194 236 291 355
#     4  10  21  35  53  78 112 154 201 250 297 345
#     4  10  20  34  50  73 105 146 199 253 292 333
#     4  11  25  38  56  85 116 148 196 253 305 362
#     4  12  22  36  57  75 108 155 198 248 304 354
#     4  10  23  39  57  86 121 154 192 239 291 356
#     4  10  20  32  52  83 114 154 208 250 281 338
#
# _framework density 19.805434999999999
#
# number of rings (size 3 to 8) (size 9 to 14) (size 15 to 20)
#    0.000    1.429    1.429    5.143    4.000    1.714 
#    0.000    0.714    0.000    0.000    0.000    2.000 
#    0.000    5.714    0.000    0.000    0.000    0.000 
#
# Total GULP energy -312540.585114 kJ/mol
# GULP energy per Si atom -5581.081877 kJ/mol
# Density = 1.976036 g / cm^3
# Si number density = 19.805435 Si / 1000 Ang^3
#
#
#
# Elastic Constant Matrix: (Units=GPa)
#
#
# Indices 1 2 3 4 5 6 
#
# 1 21.8115 0.0649 19.3971 0.0000 0.0000 0.0000
# 2 0.0649 54.3953 12.4780 0.0000 0.0000 0.0000
# 3 19.3971 12.4780 132.3267 0.0000 0.0000 0.0000
# 4 0.0000 0.0000 0.0000 8.6291 0.0000 0.0000
# 5 0.0000 0.0000 0.0000 0.0000 -38.8734 0.0000
# 6 0.0000 0.0000 0.0000 0.0000 0.0000 16.7647
#
#
#
# Elastic Compliance Matrix: (Units=1/GPa)
#
#
# Indices 1 2 3 4 5 6 
#
# 1 0.052883 0.001753 -0.007917 0.000000 0.000000 0.000000
# 2 0.001753 0.018849 -0.002034 0.000000 0.000000 0.000000
# 3 -0.007917 -0.002034 0.008909 0.000000 0.000000 0.000000
# 4 0.000000 0.000000 0.000000 0.115887 0.000000 0.000000
# 5 0.000000 0.000000 0.000000 0.000000 -0.025725 0.000000
# 6 0.000000 0.000000 0.000000 0.000000 0.000000 0.059649
#
#
# Mechanical properties :
#
#
# Convention : Reuss Voigt Hill
#
# Bulk Modulus (GPa) = 15.56563 30.26816 22.91689
# Shear Modulus (GPa) = 18.63831 9.07697 13.85764
#
# Velocity S-wave (km/s) = 3.07101 2.14313 2.64803
# Velocity P-wave (km/s) = 4.52230 4.63033 4.57663
#
# Compressibility (1/GPa) = 0.06424411
#
# Stress axis : x y z
#
# Youngs Moduli (GPa) = 18.90965 53.05455 112.24077
#
# Poissons Ratio (x) = -0.09301 0.88863
# Poissons Ratio (y) = -0.03315 0.22833
# Poissons Ratio (z) = 0.14971 0.10793
#
# Static dielectric constant tensor:
#      x y z
#    x 1.744460 0.000000 0.000000 
#    y 0.000000 1.759240 0.000000 
#    z 0.000000 0.000000 1.756300 
# 
# From -- ./inp_files/32463.got.cif
#   From: 2010.05.17/outbox.cif.g08.bks.cpg/sg66_17_cif.got.tgz:32463.got - 2010.06.03 17:51:23.
