data_PCOD9496572
_publ_section_title
;
Structure prediction by ZEFSAII (Michael W. Deem and Ramdas Pophale) SiO2 
 PCOD9496572
Probable space group: C C C M
;
_chemical_formula_sum "Si O2"
_cell_formula_units_Z 104
_cell_length_a 19.302311
_cell_length_b 17.298559
_cell_length_c 15.308744
_cell_angle_alpha 90.000000
_cell_angle_beta 90.000000
_cell_angle_gamma 90.000000
_cell_volume 5111.622775
_symmetry_space_group_name_H-M "C C C M"
_symmetry_group_IT_number 66
_symmetry_cell_setting 'orthorhombic'
loop_
_space_group_symop_operation_xyz
x,y,z
-x,-y,z
x,-y,1/2-z
-x,y,1/2-z
-x,-y,-z
x,y,-z
-x,y,1/2+z
x,-y,1/2+z
1/2+x,1/2+y,z
1/2-x,1/2-y,z
1/2+x,1/2-y,1/2-z
1/2-x,1/2+y,1/2-z
1/2-x,1/2-y,-z
1/2+x,1/2+y,-z
1/2-x,1/2+y,1/2+z
1/2+x,1/2-y,1/2+z
loop_
_atom_site_type_symbol
_atom_site_label
_atom_site_fract_x
_atom_site_fract_y
_atom_site_fract_z
Si Si1 0.720184 0.404079 0.822095
Si Si2 0.632630 0.088257 0.728462
Si Si3 0.457413 0.774620 0.325656
Si Si4 0.189216 0.188164 0.500000
Si Si5 0.263799 0.940485 0.594538
Si Si6 0.641720 0.362017 0.351238
Si Si7 0.454822 0.577490 0.500000
Si Si8 0.032772 0.757549 0.000000
O O1 0.799043 0.386356 0.785754
O O2 0.728220 0.494450 0.845433
O O3 0.663179 0.384579 0.748024
O O4 0.699265 0.361144 0.911168
O O5 0.572515 0.150258 0.723369
O O6 0.662666 0.081762 0.631065
O O7 0.612459 0.000000 0.750000
O O8 0.500000 0.730484 0.250000
O O9 0.392983 0.721180 0.351394
O O10 0.503873 0.783414 0.412292
O O11 0.250000 0.250000 0.500000
O O12 0.115064 0.230914 0.500000
O O13 0.268257 0.974906 0.500000
O O14 0.214718 0.866901 0.599633
O O15 0.592089 0.415948 0.411841
O O16 0.500000 0.500000 0.500000
O O17 0.501453 0.655043 0.500000
#
# Coordination Sequence:
#
# PCOD9496572 Si02
#       8
#    16  16  16   8  16  16   8   8
#     4  10  22  39  64  97 130 168 223 281 326 384
#     4   9  22  41  66  97 123 165 220 262 340 394
#     4  11  24  44  66  86 138 167 209 276 317 402
#     4  12  26  40  71  93 128 171 228 281 344 394
#     4  10  19  38  63  93 133 166 212 275 313 385
#     4  10  21  39  61  92 129 173 217 261 327 379
#     4  10  22  40  65  92 134 181 227 262 309 409
#     4  10  26  44  60 102 128 176 223 263 339 384
#
# _framework density 20.345790000000001
#
# number of rings (size 3 to 8) (size 9 to 14) (size 15 to 20)
#    0.000    1.846    1.538    2.308    7.538    2.154 
#    5.538    0.769    0.000    0.923    0.000    0.000 
#    0.000    0.000    0.000    0.000    0.000    0.000 
#
# Total GULP energy -289718.914035 kJ/mol
# GULP energy per Si atom -5571.517578 kJ/mol
# Density = 2.029948 g / cm^3
# Si number density = 20.345790 Si / 1000 Ang^3
#
#
#
# Elastic Constant Matrix: (Units=GPa)
#
#
# Indices 1 2 3 4 5 6 
#
# 1 100.8788 41.2818 38.5856 0.0000 0.0000 0.0000
# 2 41.2818 47.9176 17.5205 0.0000 0.0000 0.0000
# 3 38.5856 17.5205 153.5034 0.0000 0.0000 0.0000
# 4 0.0000 0.0000 0.0000 24.2703 0.0000 0.0000
# 5 0.0000 0.0000 0.0000 0.0000 12.0045 0.0000
# 6 0.0000 0.0000 0.0000 0.0000 0.0000 29.3902
#
#
#
# Elastic Compliance Matrix: (Units=1/GPa)
#
#
# Indices 1 2 3 4 5 6 
#
# 1 0.016244 -0.013046 -0.002594 0.000000 0.000000 0.000000
# 2 -0.013046 0.032255 -0.000402 0.000000 0.000000 0.000000
# 3 -0.002594 -0.000402 0.007213 0.000000 0.000000 0.000000
# 4 0.000000 0.000000 0.000000 0.041203 0.000000 0.000000
# 5 0.000000 0.000000 0.000000 0.000000 0.083302 0.000000
# 6 0.000000 0.000000 0.000000 0.000000 0.000000 0.034025
#
#
# Mechanical properties :
#
#
# Convention : Reuss Voigt Hill
#
# Bulk Modulus (GPa) = 42.32391 55.23063 48.77727
# Shear Modulus (GPa) = 19.66947 26.79379 23.23163
#
# Velocity S-wave (km/s) = 3.11265 3.63288 3.38278
# Velocity P-wave (km/s) = 5.81081 6.69343 6.26768
#
# Compressibility (1/GPa) = 0.02362731
#
# Stress axis : x y z
#
# Youngs Moduli (GPa) = 61.56220 31.00262 138.64806
#
# Poissons Ratio (x) = 0.40445 0.35967
# Poissons Ratio (y) = 0.80312 0.05577
# Poissons Ratio (z) = 0.15970 0.01247
#
# Static dielectric constant tensor:
#      x y z
#    x 1.735970 0.000000 0.000000 
#    y 0.000000 1.744160 0.000000 
#    z 0.000000 0.000000 2.524280 
# 
# From -- ./inp_files/31396.got.cif
#   From: 2010.05.17/outbox.cif.g08.bks.cpg/sg66_16_cif.got.tgz:31396.got - 2010.06.03 17:51:23.
