data_PCOD9496939
_publ_section_title
;
Structure prediction by ZEFSAII (Michael W. Deem and Ramdas Pophale) SiO2 
 PCOD9496939
Probable space group: C C C M
;
_chemical_formula_sum "Si O2"
_cell_formula_units_Z 76
_cell_length_a 19.477879
_cell_length_b 14.366247
_cell_length_c 14.268462
_cell_angle_alpha 90.000000
_cell_angle_beta 90.000000
_cell_angle_gamma 90.000000
_cell_volume 3992.658407
_symmetry_space_group_name_H-M "C C C M"
_symmetry_group_IT_number 66
_symmetry_cell_setting 'orthorhombic'
loop_
_space_group_symop_operation_xyz
x,y,z
-x,-y,z
x,-y,1/2-z
-x,y,1/2-z
-x,-y,-z
x,y,-z
-x,y,1/2+z
x,-y,1/2+z
1/2+x,1/2+y,z
1/2-x,1/2-y,z
1/2+x,1/2-y,1/2-z
1/2-x,1/2+y,1/2-z
1/2-x,1/2-y,-z
1/2+x,1/2+y,-z
1/2-x,1/2+y,1/2+z
1/2+x,1/2-y,1/2+z
loop_
_atom_site_type_symbol
_atom_site_label
_atom_site_fract_x
_atom_site_fract_y
_atom_site_fract_z
Si Si1 0.147861 0.418464 0.500000
Si Si2 0.157884 0.392432 0.286409
Si Si3 0.000000 0.500000 0.500000
Si Si4 0.801265 0.102393 0.703505
Si Si5 0.738750 0.104776 0.500000
Si Si6 0.928495 0.234760 0.296211
Si Si7 0.091320 0.693876 0.500000
O O1 0.161879 0.377537 0.397487
O O2 0.195397 0.509734 0.500000
O O3 0.066630 0.434369 0.500000
O O4 0.149900 0.500000 0.250000
O O5 0.229866 0.359247 0.244649
O O6 0.095251 0.333991 0.245830
O O7 0.946604 0.406416 0.500000
O O8 0.785343 0.103997 0.592505
O O9 0.867761 0.162686 0.725126
O O10 0.808639 0.000000 0.750000
O O11 0.675265 0.179260 0.500000
O O12 0.930670 0.251439 0.407197
O O13 0.000000 0.206902 0.250000
#
# Coordination Sequence:
#
# PCOD9496939 Si02
#       7
#     8  16   4  16   8  16   8
#     4  11  19  35  58  94 128 166 202 252 332 396
#     4  11  21  38  63  94 128 162 210 269 329 389
#     4  10  20  34  58  92 140 164 188 248 334 420
#     4  11  23  42  66  92 125 165 229 279 314 370
#     4  11  19  39  69  97 117 160 224 275 314 372
#     4  12  26  41  62  95 133 175 213 262 330 396
#     4  11  22  40  66  98 134 171 216 265 330 414
#
# _framework density 19.034936999999999
#
# number of rings (size 3 to 8) (size 9 to 14) (size 15 to 20)
#    0.000    0.842    6.316    3.789    0.000    1.684 
#    0.000    5.263    0.000    2.526    0.000    0.000 
#    0.000    0.000    0.000    0.000    0.000    0.000 
#
# Total GULP energy -211561.411132 kJ/mol
# GULP energy per Si atom -5567.405556 kJ/mol
# Density = 1.899161 g / cm^3
# Si number density = 19.034937 Si / 1000 Ang^3
#
#
#
# Elastic Constant Matrix: (Units=GPa)
#
#
# Indices 1 2 3 4 5 6 
#
# 1 124.5213 22.0958 28.6106 0.0000 0.0000 0.0000
# 2 22.0958 39.8987 7.1020 0.0000 0.0000 0.0000
# 3 28.6106 7.1020 157.1450 0.0000 0.0000 0.0000
# 4 0.0000 0.0000 0.0000 -7.8298 0.0000 0.0000
# 5 0.0000 0.0000 0.0000 0.0000 8.3253 0.0000
# 6 0.0000 0.0000 0.0000 0.0000 0.0000 23.4161
#
#
#
# Elastic Compliance Matrix: (Units=1/GPa)
#
#
# Indices 1 2 3 4 5 6 
#
# 1 0.009227 -0.004850 -0.001461 0.000000 0.000000 0.000000
# 2 -0.004850 0.027816 -0.000374 0.000000 0.000000 0.000000
# 3 -0.001461 -0.000374 0.006646 0.000000 0.000000 0.000000
# 4 0.000000 0.000000 0.000000 -0.127716 0.000000 0.000000
# 5 0.000000 0.000000 0.000000 0.000000 0.120115 0.000000
# 6 0.000000 0.000000 0.000000 0.000000 0.000000 0.042706
#
#
# Mechanical properties :
#
#
# Convention : Reuss Voigt Hill
#
# Bulk Modulus (GPa) = 32.98168 48.57576 40.77872
# Shear Modulus (GPa) = 48.89031 22.36609 35.62820
#
# Velocity S-wave (km/s) = 5.07349 3.43155 4.33104
# Velocity P-wave (km/s) = 7.18922 6.42459 6.81763
#
# Compressibility (1/GPa) = 0.03031986
#
# Stress axis : x y z
#
# Youngs Moduli (GPa) = 108.37804 35.95066 150.45730
#
# Poissons Ratio (x) = 0.17436 0.21978
# Poissons Ratio (y) = 0.52562 0.05629
# Poissons Ratio (z) = 0.15831 0.01345
#
# Static dielectric constant tensor:
#      x y z
#    x 1.630790 0.000000 0.000000 
#    y 0.000000 1.693940 0.000000 
#    z 0.000000 0.000000 1.674030 
# 
# From -- ./inp_files/31056.got.cif
#   From: 2010.05.17/outbox.cif.g08.bks.cpg/sg66_16_cif.got.tgz:31056.got - 2010.06.03 17:51:23.
