data_PCOD9496268
_publ_section_title
;
Structure prediction by ZEFSAII (Michael W. Deem and Ramdas Pophale) SiO2 
 PCOD9496268
Probable space group: C C C M
;
_chemical_formula_sum "Si O2"
_cell_formula_units_Z 112
_cell_length_a 15.799845
_cell_length_b 25.839689
_cell_length_c 13.806982
_cell_angle_alpha 90.000000
_cell_angle_beta 90.000000
_cell_angle_gamma 90.000000
_cell_volume 5636.881011
_symmetry_space_group_name_H-M "C C C M"
_symmetry_group_IT_number 66
_symmetry_cell_setting 'orthorhombic'
loop_
_space_group_symop_operation_xyz
x,y,z
-x,-y,z
x,-y,1/2-z
-x,y,1/2-z
-x,-y,-z
x,y,-z
-x,y,1/2+z
x,-y,1/2+z
1/2+x,1/2+y,z
1/2-x,1/2-y,z
1/2+x,1/2-y,1/2-z
1/2-x,1/2+y,1/2-z
1/2-x,1/2-y,-z
1/2+x,1/2+y,-z
1/2-x,1/2+y,1/2+z
1/2+x,1/2-y,1/2+z
loop_
_atom_site_type_symbol
_atom_site_label
_atom_site_fract_x
_atom_site_fract_y
_atom_site_fract_z
Si Si1 0.861607 0.970050 0.389594
Si Si2 0.449089 0.629304 0.883235
Si Si3 0.207021 0.389284 0.606619
Si Si4 0.247013 0.066952 0.887469
Si Si5 0.296694 0.699160 0.802153
Si Si6 0.635156 0.329605 0.389456
Si Si7 0.406022 0.061301 0.255131
O O1 0.889050 0.983803 0.500000
O O2 0.931098 0.929855 0.346743
O O3 0.783104 0.930248 0.394010
O O4 0.819035 0.022701 0.349846
O O5 0.377748 0.671359 0.852992
O O6 0.541851 0.650564 0.859565
O O7 0.444730 0.625107 0.000000
O O8 0.200099 0.366254 0.500000
O O9 0.226968 0.345395 0.684212
O O10 0.127523 0.421193 0.640846
O O11 0.195427 0.120201 0.887613
O O12 0.331921 0.072202 0.823862
O O13 0.267579 0.053540 0.000000
O O14 0.250000 0.750000 0.841284
O O15 0.327788 0.707780 0.692402
O O16 0.631833 0.309807 0.500000
O O17 0.500000 0.084265 0.250000
O O18 0.412735 0.000000 0.250000
#
# Coordination Sequence:
#
# PCOD9496268 Si02
#       7
#    16  16  16  16  16  16  16
#     4   8  15  29  53  83 119 156 186 222 266 333
#     4   9  19  36  58  90 124 153 190 235 291 351
#     4  10  20  37  58  81 112 148 192 244 295 341
#     4  10  19  34  57  85 120 161 197 227 277 349
#     4  11  22  38  62  84 110 150 199 247 295 353
#     4  10  21  37  60  89 123 157 190 237 292 355
#     4  11  22  35  55  84 117 154 200 241 282 345
#
# _framework density 19.869143999999999
#
# number of rings (size 3 to 8) (size 9 to 14) (size 15 to 20)
#    0.000    2.143    2.857    1.714    0.000    2.571 
#    0.000    5.714    0.000    1.714    0.000    0.000 
#    0.000    0.000    0.000    0.000    0.000    0.000 
#
# Total GULP energy -311801.871395 kJ/mol
# GULP energy per Si atom -5567.890561 kJ/mol
# Density = 1.982392 g / cm^3
# Si number density = 19.869144 Si / 1000 Ang^3
#
#
#
# Elastic Constant Matrix: (Units=GPa)
#
#
# Indices 1 2 3 4 5 6 
#
# 1 94.8752 12.9448 22.0428 0.0000 0.0000 0.0000
# 2 12.9448 25.9049 -2.5046 0.0000 0.0000 0.0000
# 3 22.0428 -2.5046 58.2652 0.0000 0.0000 0.0000
# 4 0.0000 0.0000 0.0000 15.4840 0.0000 0.0000
# 5 0.0000 0.0000 0.0000 0.0000 -140.5494 0.0000
# 6 0.0000 0.0000 0.0000 0.0000 0.0000 14.8613
#
#
#
# Elastic Compliance Matrix: (Units=1/GPa)
#
#
# Indices 1 2 3 4 5 6 
#
# 1 0.012649 -0.006812 -0.005078 0.000000 0.000000 0.000000
# 2 -0.006812 0.042432 0.004401 0.000000 0.000000 0.000000
# 3 -0.005078 0.004401 0.019273 0.000000 0.000000 0.000000
# 4 0.000000 0.000000 0.000000 0.064583 0.000000 0.000000
# 5 0.000000 0.000000 0.000000 0.000000 -0.007115 0.000000
# 6 0.000000 0.000000 0.000000 0.000000 0.000000 0.067289
#
#
# Mechanical properties :
#
#
# Convention : Reuss Voigt Hill
#
# Bulk Modulus (GPa) = 16.84163 27.11235 21.97699
# Shear Modulus (GPa) = 21.37827 -12.27000 4.55414
#
# Velocity S-wave (km/s) = 3.28373 -2.48773 1.51560
# Velocity P-wave (km/s) = 4.78245 2.32880 3.76133
#
# Compressibility (1/GPa) = 0.05937668
#
# Stress axis : x y z
#
# Youngs Moduli (GPa) = 79.05466 23.56692 51.88520
#
# Poissons Ratio (x) = 0.16054 0.26349
# Poissons Ratio (y) = 0.53852 -0.22835
# Poissons Ratio (z) = 0.40147 -0.10372
#
# Static dielectric constant tensor:
#      x y z
#    x 1.724010 0.000000 0.000000 
#    y 0.000000 1.687980 0.000000 
#    z 0.000000 0.000000 1.810620 
# 
# From -- ./inp_files/28896.got.cif
#   From: 2010.05.17/outbox.cif.g08.bks.cpg/sg66_15_cif.got.tgz:28896.got - 2010.06.03 17:51:23.
