data_PCOD9496559
_publ_section_title
;
Structure prediction by ZEFSAII (Michael W. Deem and Ramdas Pophale) SiO2 
 PCOD9496559
Probable space group: C C C M
;
_chemical_formula_sum "Si O2"
_cell_formula_units_Z 64
_cell_length_a 16.865596
_cell_length_b 7.509375
_cell_length_c 26.389360
_cell_angle_alpha 90.000000
_cell_angle_beta 90.000000
_cell_angle_gamma 90.000000
_cell_volume 3342.214686
_symmetry_space_group_name_H-M "C C C M"
_symmetry_group_IT_number 66
_symmetry_cell_setting 'orthorhombic'
loop_
_space_group_symop_operation_xyz
x,y,z
-x,-y,z
x,-y,1/2-z
-x,y,1/2-z
-x,-y,-z
x,y,-z
-x,y,1/2+z
x,-y,1/2+z
1/2+x,1/2+y,z
1/2-x,1/2-y,z
1/2+x,1/2-y,1/2-z
1/2-x,1/2+y,1/2-z
1/2-x,1/2-y,-z
1/2+x,1/2+y,-z
1/2-x,1/2+y,1/2+z
1/2+x,1/2-y,1/2+z
loop_
_atom_site_type_symbol
_atom_site_label
_atom_site_fract_x
_atom_site_fract_y
_atom_site_fract_z
Si Si1 0.654613 0.728399 0.557094
Si Si2 0.171304 0.148713 0.901961
Si Si3 0.089982 0.484006 0.864096
Si Si4 0.745185 0.960127 0.307583
O O1 0.632088 0.779525 0.500000
O O2 0.750000 0.750000 0.562104
O O3 0.641431 0.519022 0.566459
O O4 0.613288 0.855000 0.598035
O O5 0.250000 0.250000 0.923199
O O6 0.106128 0.298874 0.893068
O O7 0.201487 0.064353 0.848466
O O8 0.154702 0.485776 0.819403
O O9 0.000000 0.500000 0.847361
O O10 0.750000 0.750000 0.316514
O O11 0.767643 0.000000 0.250000
#
# Coordination Sequence:
#
# PCOD9496559 Si02
#       4
#    16  16  16  16
#     4  11  21  38  63  89 118 157 205 251 288 348
#     4  10  19  38  60  88 114 153 200 241 292 344
#     4  11  23  39  58  87 127 156 190 248 302 352
#     4  11  20  39  64  87 115 153 202 245 290 352
#
# _framework density 19.148979000000001
#
# number of rings (size 3 to 8) (size 9 to 14) (size 15 to 20)
#    0.000    1.250    7.500    2.250    0.000    3.500 
#    0.000    1.250    0.000    0.000    0.000    0.000 
#    0.000    0.000    0.000    0.000    0.000    0.000 
#
# Total GULP energy -178682.066318 kJ/mol
# GULP energy per Si atom -5583.814572 kJ/mol
# Density = 1.910539 g / cm^3
# Si number density = 19.148979 Si / 1000 Ang^3
#
#
#
# Elastic Constant Matrix: (Units=GPa)
#
#
# Indices 1 2 3 4 5 6 
#
# 1 48.2866 -3.6079 -8.7561 0.0000 0.0000 0.0000
# 2 -3.6079 119.1933 -11.2028 0.0000 0.0000 0.0000
# 3 -8.7561 -11.2028 62.4979 0.0000 0.0000 0.0000
# 4 0.0000 0.0000 0.0000 22.0692 0.0000 0.0000
# 5 0.0000 0.0000 0.0000 0.0000 9.2957 0.0000
# 6 0.0000 0.0000 0.0000 0.0000 0.0000 15.6575
#
#
#
# Elastic Compliance Matrix: (Units=1/GPa)
#
#
# Indices 1 2 3 4 5 6 
#
# 1 0.021353 0.000943 0.003161 0.000000 0.000000 0.000000
# 2 0.000943 0.008575 0.001669 0.000000 0.000000 0.000000
# 3 0.003161 0.001669 0.016743 0.000000 0.000000 0.000000
# 4 0.000000 0.000000 0.000000 0.045312 0.000000 0.000000
# 5 0.000000 0.000000 0.000000 0.000000 0.107577 0.000000
# 6 0.000000 0.000000 0.000000 0.000000 0.000000 0.063867
#
#
# Mechanical properties :
#
#
# Convention : Reuss Voigt Hill
#
# Bulk Modulus (GPa) = 17.17681 20.31603 18.74642
# Shear Modulus (GPa) = 18.43070 26.30744 22.36907
#
# Velocity S-wave (km/s) = 3.10577 3.71054 3.42154
# Velocity P-wave (km/s) = 4.67447 5.38424 5.04186
#
# Compressibility (1/GPa) = 0.05821801
#
# Stress axis : x y z
#
# Youngs Moduli (GPa) = 46.83109 116.61559 59.72796
#
# Poissons Ratio (x) = -0.11002 -0.18878
# Poissons Ratio (y) = -0.04418 -0.09970
# Poissons Ratio (z) = -0.14802 -0.19466
#
# Static dielectric constant tensor:
#      x y z
#    x 1.649630 0.000000 0.000000 
#    y 0.000000 1.696990 0.000000 
#    z 0.000000 0.000000 1.672380 
# 
# From -- ./inp_files/69779.got.cif
#   From: 2010.05.17/outbox.cif.g08.bks.cpg/sg66_35_cif.got.tgz:69779.got - 2010.06.03 17:51:23.
