data_PCOD9496500
_publ_section_title
;
Structure prediction by ZEFSAII (Michael W. Deem and Ramdas Pophale) SiO2 
 PCOD9496500
Probable space group: C C C M
;
_chemical_formula_sum "Si O2"
_cell_formula_units_Z 88
_cell_length_a 10.174738
_cell_length_b 16.128372
_cell_length_c 22.449541
_cell_angle_alpha 90.000000
_cell_angle_beta 90.000000
_cell_angle_gamma 90.000000
_cell_volume 3684.013667
_symmetry_space_group_name_H-M "C C C M"
_symmetry_group_IT_number 66
_symmetry_cell_setting 'orthorhombic'
loop_
_space_group_symop_operation_xyz
x,y,z
-x,-y,z
x,-y,1/2-z
-x,y,1/2-z
-x,-y,-z
x,y,-z
-x,y,1/2+z
x,-y,1/2+z
1/2+x,1/2+y,z
1/2-x,1/2-y,z
1/2+x,1/2-y,1/2-z
1/2-x,1/2+y,1/2-z
1/2-x,1/2-y,-z
1/2+x,1/2+y,-z
1/2-x,1/2+y,1/2+z
1/2+x,1/2-y,1/2+z
loop_
_atom_site_type_symbol
_atom_site_label
_atom_site_fract_x
_atom_site_fract_y
_atom_site_fract_z
Si Si1 0.140972 0.125147 0.219300
Si Si2 0.557017 0.090732 0.932031
Si Si3 0.193199 0.013911 0.374972
Si Si4 0.970533 0.258100 0.628647
Si Si5 0.470965 0.394488 0.936286
Si Si6 0.250000 0.250000 0.692185
O O1 0.192565 0.043542 0.184224
O O2 0.237116 0.166257 0.267884
O O3 0.000000 0.107023 0.250000
O O4 0.114663 0.204578 0.175429
O O5 0.458170 0.148222 0.893559
O O6 0.500000 0.000000 0.938175
O O7 0.687462 0.072224 0.893232
O O8 0.583137 0.122550 0.000000
O O9 0.162641 0.944547 0.425745
O O10 0.066248 0.073723 0.383477
O O11 0.955445 0.202026 0.570547
O O12 0.118207 0.254382 0.654066
O O13 0.530745 0.413520 0.000000
#
# Coordination Sequence:
#
# PCOD9496500 Si02
#       6
#    16  16  16  16  16   8
#     4   9  21  39  63  87 118 158 207 259 307 363
#     4  11  24  40  59  88 130 168 202 244 297 370
#     4  10  20  36  59  90 121 154 196 251 305 361
#     4  10  21  39  60  88 117 156 205 245 307 364
#     4  10  19  36  63  90 118 149 195 254 310 362
#     4  10  20  38  63  82 115 154 194 260 300 354
#
# _framework density 23.886989
#
# number of rings (size 3 to 8) (size 9 to 14) (size 15 to 20)
#    0.000    2.000    0.000    3.818    2.545    1.455 
#    0.000   28.182    0.000    5.455    0.000    0.000 
#    0.000    0.000    0.000    0.000    0.000    0.000 
#
# Total GULP energy -245376.530317 kJ/mol
# GULP energy per Si atom -5576.739325 kJ/mol
# Density = 2.383262 g / cm^3
# Si number density = 23.886989 Si / 1000 Ang^3
#
#
#
# Elastic Constant Matrix: (Units=GPa)
#
#
# Indices 1 2 3 4 5 6 
#
# 1 32.9556 3.0382 2.6634 0.0000 0.0000 0.0000
# 2 3.0382 123.9971 31.3761 0.0000 0.0000 0.0000
# 3 2.6634 31.3761 114.7120 0.0000 0.0000 0.0000
# 4 0.0000 0.0000 0.0000 20.4118 0.0000 0.0000
# 5 0.0000 0.0000 0.0000 0.0000 11.2879 0.0000
# 6 0.0000 0.0000 0.0000 0.0000 0.0000 27.0803
#
#
#
# Elastic Compliance Matrix: (Units=1/GPa)
#
#
# Indices 1 2 3 4 5 6 
#
# 1 0.030444 -0.000609 -0.000540 0.000000 0.000000 0.000000
# 2 -0.000609 0.008677 -0.002359 0.000000 0.000000 0.000000
# 3 -0.000540 -0.002359 0.009375 0.000000 0.000000 0.000000
# 4 0.000000 0.000000 0.000000 0.048991 0.000000 0.000000
# 5 0.000000 0.000000 0.000000 0.000000 0.088591 0.000000
# 6 0.000000 0.000000 0.000000 0.000000 0.000000 0.036927
#
#
# Mechanical properties :
#
#
# Convention : Reuss Voigt Hill
#
# Bulk Modulus (GPa) = 24.10887 38.42446 31.26666
# Shear Modulus (GPa) = 20.50460 27.39513 23.94987
#
# Velocity S-wave (km/s) = 2.93303 3.39021 3.16987
# Velocity P-wave (km/s) = 4.64596 5.60764 5.14930
#
# Compressibility (1/GPa) = 0.04147850
#
# Stress axis : x y z
#
# Youngs Moduli (GPa) = 32.84753 115.25291 106.66348
#
# Poissons Ratio (x) = 0.07022 0.05762
# Poissons Ratio (y) = 0.02001 0.25163
# Poissons Ratio (z) = 0.01774 0.27189
#
# Static dielectric constant tensor:
#      x y z
#    x 2.029440 0.000000 0.000000 
#    y 0.000000 1.958670 0.000000 
#    z 0.000000 0.000000 1.988460 
# 
# From -- ./inp_files/56755.got.cif
#   From: 2010.05.17/outbox.cif.g08.bks.cpg/sg66_29_cif.got.tgz:56755.got - 2010.06.03 17:51:23.
