data_PCOD9496731
_publ_section_title
;
Structure prediction by ZEFSAII (Michael W. Deem and Ramdas Pophale) SiO2 
 PCOD9496731
Probable space group: C C C M
;
_chemical_formula_sum "Si O2"
_cell_formula_units_Z 80
_cell_length_a 28.791287
_cell_length_b 18.003362
_cell_length_c 8.815902
_cell_angle_alpha 90.000000
_cell_angle_beta 90.000000
_cell_angle_gamma 90.000000
_cell_volume 4569.634310
_symmetry_space_group_name_H-M "C C C M"
_symmetry_group_IT_number 66
_symmetry_cell_setting 'orthorhombic'
loop_
_space_group_symop_operation_xyz
x,y,z
-x,-y,z
x,-y,1/2-z
-x,y,1/2-z
-x,-y,-z
x,y,-z
-x,y,1/2+z
x,-y,1/2+z
1/2+x,1/2+y,z
1/2-x,1/2-y,z
1/2+x,1/2-y,1/2-z
1/2-x,1/2+y,1/2-z
1/2-x,1/2-y,-z
1/2+x,1/2+y,-z
1/2-x,1/2+y,1/2+z
1/2+x,1/2-y,1/2+z
loop_
_atom_site_type_symbol
_atom_site_label
_atom_site_fract_x
_atom_site_fract_y
_atom_site_fract_z
Si Si1 0.786159 0.681050 0.827231
Si Si2 0.051601 0.258922 0.681643
Si Si3 0.448181 0.926817 0.180654
Si Si4 0.858605 0.200838 0.317212
Si Si5 0.712305 0.418379 0.819789
O O1 0.750000 0.750000 0.833272
O O2 0.832587 0.721964 0.772969
O O3 0.761393 0.619323 0.726689
O O4 0.792064 0.653548 0.000000
O O5 0.049498 0.250802 0.500000
O O6 0.068487 0.343678 0.715428
O O7 0.089439 0.204597 0.754268
O O8 0.000000 0.249760 0.750000
O O9 0.500000 0.926182 0.250000
O O10 0.424120 0.000000 0.250000
O O11 0.450522 0.935409 0.000000
O O12 0.857689 0.196647 0.500000
O O13 0.827981 0.134140 0.249610
O O14 0.709241 0.500000 0.750000
O O15 0.707891 0.420586 0.000000
#
# Coordination Sequence:
#
# PCOD9496731 Si02
#       5
#    16  16  16  16  16
#     4   8  16  32  52  75 103 133 165 204 254 309
#     4  10  20  33  50  74 103 139 183 226 267 312
#     4   9  16  26  42  63  88 119 158 203 250 298
#     4  10  20  35  55  78 106 139 175 217 264 313
#     4  11  21  34  55  81 109 139 173 213 259 314
#
# _framework density 17.506872000000001
#
# number of rings (size 3 to 8) (size 9 to 14) (size 15 to 20)
#    0.000    2.400    0.000    5.400    0.000    6.800 
#    0.000    1.000    0.000    3.000    0.000    4.200 
#    0.000    0.000    0.000    0.000    0.000    0.000 
#
# Total GULP energy -222876.704440 kJ/mol
# GULP energy per Si atom -5571.917611 kJ/mol
# Density = 1.746703 g / cm^3
# Si number density = 17.506872 Si / 1000 Ang^3
#
#
#
# Elastic Constant Matrix: (Units=GPa)
#
#
# Indices 1 2 3 4 5 6 
#
# 1 96.8725 49.2338 42.4570 0.0000 0.0000 0.0000
# 2 49.2338 104.5448 63.6772 0.0000 0.0000 0.0000
# 3 42.4570 63.6772 89.0952 0.0000 0.0000 0.0000
# 4 0.0000 0.0000 0.0000 27.6389 0.0000 0.0000
# 5 0.0000 0.0000 0.0000 0.0000 -5.6680 0.0000
# 6 0.0000 0.0000 0.0000 0.0000 0.0000 19.9215
#
#
#
# Elastic Compliance Matrix: (Units=1/GPa)
#
#
# Indices 1 2 3 4 5 6 
#
# 1 0.014165 -0.004532 -0.003511 0.000000 0.000000 0.000000
# 2 -0.004532 0.018390 -0.010983 0.000000 0.000000 0.000000
# 3 -0.003511 -0.010983 0.020747 0.000000 0.000000 0.000000
# 4 0.000000 0.000000 0.000000 0.036181 0.000000 0.000000
# 5 0.000000 0.000000 0.000000 0.000000 -0.176429 0.000000
# 6 0.000000 0.000000 0.000000 0.000000 0.000000 0.050197
#
#
# Mechanical properties :
#
#
# Convention : Reuss Voigt Hill
#
# Bulk Modulus (GPa) = 65.58067 66.80537 66.19302
# Shear Modulus (GPa) = 782.90604 17.38812 400.14708
#
# Velocity S-wave (km/s) = 21.17003 3.15495 15.13479
# Velocity P-wave (km/s) = 25.20122 7.17733 18.52856
#
# Compressibility (1/GPa) = 0.01524840
#
# Stress axis : x y z
#
# Youngs Moduli (GPa) = 70.59615 54.37851 48.20003
#
# Poissons Ratio (x) = 0.24647 0.16922
# Poissons Ratio (y) = 0.31997 0.52940
# Poissons Ratio (z) = 0.24785 0.59726
#
# Static dielectric constant tensor:
#      x y z
#    x 1.597520 0.000000 0.000000 
#    y 0.000000 1.613920 0.000000 
#    z 0.000000 0.000000 1.583280 
# 
# From -- ./inp_files/6721.got.cif
#   From: 2010.05.17/outbox.cif.g08.bks.cpg/sg66_4_cif.got.tgz:6721.got - 2010.06.03 17:51:23.
