data_PCOD9496004
_publ_section_title
;
Structure prediction by ZEFSAII (Michael W. Deem and Ramdas Pophale) SiO2 
 PCOD9496004
Probable space group: C C C M
;
_chemical_formula_sum "Si O2"
_cell_formula_units_Z 112
_cell_length_a 26.052232
_cell_length_b 12.913655
_cell_length_c 15.016892
_cell_angle_alpha 90.000000
_cell_angle_beta 90.000000
_cell_angle_gamma 90.000000
_cell_volume 5052.126008
_symmetry_space_group_name_H-M "C C C M"
_symmetry_group_IT_number 66
_symmetry_cell_setting 'orthorhombic'
loop_
_space_group_symop_operation_xyz
x,y,z
-x,-y,z
x,-y,1/2-z
-x,y,1/2-z
-x,-y,-z
x,y,-z
-x,y,1/2+z
x,-y,1/2+z
1/2+x,1/2+y,z
1/2-x,1/2-y,z
1/2+x,1/2-y,1/2-z
1/2-x,1/2+y,1/2-z
1/2-x,1/2-y,-z
1/2+x,1/2+y,-z
1/2-x,1/2+y,1/2+z
1/2+x,1/2-y,1/2+z
loop_
_atom_site_type_symbol
_atom_site_label
_atom_site_fract_x
_atom_site_fract_y
_atom_site_fract_z
Si Si1 0.039408 0.593543 0.103199
Si Si2 0.501761 0.683244 0.647679
Si Si3 0.610871 0.382055 0.640687
Si Si4 0.303702 0.787484 0.105957
Si Si5 0.611207 0.614524 0.643828
Si Si6 0.804629 0.289395 0.604269
Si Si7 0.352535 0.003856 0.390687
O O1 0.014173 0.694344 0.146536
O O2 0.091972 0.545595 0.140282
O O3 0.000000 0.500000 0.104771
O O4 0.049051 0.623934 0.000000
O O5 0.500000 0.647223 0.750000
O O6 0.446236 0.652865 0.609593
O O7 0.553548 0.634260 0.608767
O O8 0.625349 0.498918 0.613999
O O9 0.609672 0.382002 0.748521
O O10 0.653474 0.300850 0.611256
O O11 0.250000 0.750000 0.144479
O O12 0.349481 0.705494 0.119486
O O13 0.315788 0.902816 0.136829
O O14 0.298176 0.796853 0.000000
O O15 0.794873 0.312472 0.500000
O O16 0.750000 0.250000 0.641745
O O17 0.831077 0.393867 0.641425
O O18 0.356304 0.997711 0.500000
#
# Coordination Sequence:
#
# PCOD9496004 Si02
#       7
#    16  16  16  16  16  16  16
#     4  10  19  32  54  80 112 149 183 225 280 335
#     4  10  20  36  57  82 112 148 188 231 280 340
#     4  10  22  38  58  83 115 152 190 232 280 338
#     4  10  21  36  60  87 112 145 188 234 284 338
#     4  10  21  39  59  83 115 150 187 232 287 337
#     4  10  22  39  60  84 114 152 194 236 282 339
#     4   9  18  35  55  81 114 145 180 229 284 332
#
# _framework density 22.168883999999998
#
# number of rings (size 3 to 8) (size 9 to 14) (size 15 to 20)
#    0.000    2.143    1.429    1.286    2.000    4.857 
#    0.000    0.714    0.000    2.571    0.000    0.000 
#    0.000    0.000    0.000    0.000    0.000    0.000 
#
# Total GULP energy -312630.270231 kJ/mol
# GULP energy per Si atom -5582.683397 kJ/mol
# Density = 2.211843 g / cm^3
# Si number density = 22.168884 Si / 1000 Ang^3
#
#
#
# Elastic Constant Matrix: (Units=GPa)
#
#
# Indices 1 2 3 4 5 6 
#
# 1 100.5930 42.4341 -11.1566 0.0000 0.0000 0.0000
# 2 42.4341 159.7574 -13.4350 0.0000 0.0000 0.0000
# 3 -11.1566 -13.4350 46.8214 0.0000 0.0000 0.0000
# 4 0.0000 0.0000 0.0000 14.2446 0.0000 0.0000
# 5 0.0000 0.0000 0.0000 0.0000 11.8970 0.0000
# 6 0.0000 0.0000 0.0000 0.0000 0.0000 28.9992
#
#
#
# Elastic Compliance Matrix: (Units=1/GPa)
#
#
# Indices 1 2 3 4 5 6 
#
# 1 0.011356 -0.002858 0.001886 0.000000 0.000000 0.000000
# 2 -0.002858 0.007133 0.001366 0.000000 0.000000 0.000000
# 3 0.001886 0.001366 0.022199 0.000000 0.000000 0.000000
# 4 0.000000 0.000000 0.000000 0.070202 0.000000 0.000000
# 5 0.000000 0.000000 0.000000 0.000000 0.084055 0.000000
# 6 0.000000 0.000000 0.000000 0.000000 0.000000 0.034484
#
#
# Mechanical properties :
#
#
# Convention : Reuss Voigt Hill
#
# Bulk Modulus (GPa) = 24.11011 38.09522 31.10266
# Shear Modulus (GPa) = 20.62144 30.31677 25.46911
#
# Velocity S-wave (km/s) = 3.05322 3.70203 3.39317
# Velocity P-wave (km/s) = 4.82999 5.95775 5.42327
#
# Compressibility (1/GPa) = 0.04147638
#
# Stress axis : x y z
#
# Youngs Moduli (GPa) = 88.06171 140.18556 45.04698
#
# Poissons Ratio (x) = 0.40060 -0.08495
# Poissons Ratio (y) = 0.25165 -0.06153
# Poissons Ratio (z) = -0.16607 -0.19149
#
# Static dielectric constant tensor:
#      x y z
#    x 1.915870 0.000000 0.000000 
#    y 0.000000 1.784200 0.000000 
#    z 0.000000 0.000000 1.877120 
# 
# From -- ./inp_files/49009.got.cif
#   From: 2010.05.17/outbox.cif.g08.bks.cpg/sg66_25_cif.got.tgz:49009.got - 2010.06.03 17:51:23.
