data_PCOD9496752
_publ_section_title
;
Structure prediction by ZEFSAII (Michael W. Deem and Ramdas Pophale) SiO2 
 PCOD9496752
Probable space group: C C C M
;
_chemical_formula_sum "Si O2"
_cell_formula_units_Z 68
_cell_length_a 28.721691
_cell_length_b 15.255058
_cell_length_c 9.538325
_cell_angle_alpha 90.000000
_cell_angle_beta 90.000000
_cell_angle_gamma 90.000000
_cell_volume 4179.227229
_symmetry_space_group_name_H-M "C C C M"
_symmetry_group_IT_number 66
_symmetry_cell_setting 'orthorhombic'
loop_
_space_group_symop_operation_xyz
x,y,z
-x,-y,z
x,-y,1/2-z
-x,y,1/2-z
-x,-y,-z
x,y,-z
-x,y,1/2+z
x,-y,1/2+z
1/2+x,1/2+y,z
1/2-x,1/2-y,z
1/2+x,1/2-y,1/2-z
1/2-x,1/2+y,1/2-z
1/2-x,1/2-y,-z
1/2+x,1/2+y,-z
1/2-x,1/2+y,1/2+z
1/2+x,1/2-y,1/2+z
loop_
_atom_site_type_symbol
_atom_site_label
_atom_site_fract_x
_atom_site_fract_y
_atom_site_fract_z
Si Si1 0.500000 0.000000 0.750000
Si Si2 0.866294 0.272281 0.832418
Si Si3 0.786738 0.412694 0.166311
Si Si4 0.956571 0.327577 0.660811
Si Si5 0.678355 0.587729 0.332930
O O1 0.532390 0.067672 0.665293
O O2 0.821637 0.333556 0.803344
O O3 0.909629 0.305210 0.742274
O O4 0.852506 0.172329 0.799486
O O5 0.876163 0.278605 0.000000
O O6 0.799924 0.500000 0.250000
O O7 0.732766 0.391842 0.199286
O O8 0.789264 0.430159 0.000000
O O9 0.955839 0.298617 0.500000
O O10 0.000000 0.289493 0.750000
O O11 0.665523 0.500000 0.250000
O O12 0.675387 0.572393 0.500000
#
# Coordination Sequence:
#
# PCOD9496752 Si02
#       5
#     4  16  16  16  16
#     4   8  22  36  54  72 104 136 166 200 250 308
#     4  10  20  33  52  76 104 138 175 213 256 306
#     4   9  18  31  48  73 105 140 175 210 252 303
#     4  10  21  35  53  75 103 134 167 205 249 302
#     4   9  18  34  53  73 101 138 177 217 259 301
#
# _framework density 16.270949999999999
#
# number of rings (size 3 to 8) (size 9 to 14) (size 15 to 20)
#    0.706    1.882    0.000    1.765    1.647    4.706 
#    0.000    0.000    0.000    7.765    0.000    4.941 
#    0.000    0.000    0.000    0.000    0.000    0.000 
#
# Total GULP energy -189337.352888 kJ/mol
# GULP energy per Si atom -5568.745673 kJ/mol
# Density = 1.623392 g / cm^3
# Si number density = 16.270950 Si / 1000 Ang^3
#
#
#
# Elastic Constant Matrix: (Units=GPa)
#
#
# Indices 1 2 3 4 5 6 
#
# 1 77.6640 64.3669 50.9682 0.0000 0.0000 0.0000
# 2 64.3669 107.2317 53.7131 0.0000 0.0000 0.0000
# 3 50.9682 53.7131 66.4530 0.0000 0.0000 0.0000
# 4 0.0000 0.0000 0.0000 24.5429 0.0000 0.0000
# 5 0.0000 0.0000 0.0000 0.0000 57.8849 0.0000
# 6 0.0000 0.0000 0.0000 0.0000 0.0000 22.9590
#
#
#
# Elastic Compliance Matrix: (Units=1/GPa)
#
#
# Indices 1 2 3 4 5 6 
#
# 1 0.033157 -0.012038 -0.015700 0.000000 0.000000 0.000000
# 2 -0.012038 0.020041 -0.006966 0.000000 0.000000 0.000000
# 3 -0.015700 -0.006966 0.032720 0.000000 0.000000 0.000000
# 4 0.000000 0.000000 0.000000 0.040745 0.000000 0.000000
# 5 0.000000 0.000000 0.000000 0.000000 0.017276 0.000000
# 6 0.000000 0.000000 0.000000 0.000000 0.000000 0.043556
#
#
# Mechanical properties :
#
#
# Convention : Reuss Voigt Hill
#
# Bulk Modulus (GPa) = 60.57093 65.49389 63.03241
# Shear Modulus (GPa) = 19.05452 26.56406 22.80929
#
# Velocity S-wave (km/s) = 3.42581 4.04494 3.74818
# Velocity P-wave (km/s) = 7.27705 7.88383 7.58651
#
# Compressibility (1/GPa) = 0.01650957
#
# Stress axis : x y z
#
# Youngs Moduli (GPa) = 30.15995 49.89815 30.56234
#
# Poissons Ratio (x) = 0.60069 0.47983
# Poissons Ratio (y) = 0.36307 0.21288
# Poissons Ratio (z) = 0.47351 0.34757
#
# Static dielectric constant tensor:
#      x y z
#    x 1.535500 0.000000 0.000000 
#    y 0.000000 1.526120 0.000000 
#    z 0.000000 0.000000 1.540480 
# 
# From -- ./inp_files/9935.got.cif
#   From: 2010.05.17/outbox.cif.g08.bks.cpg/sg66_5_cif.got.tgz:9935.got - 2010.06.03 17:51:23.
