data_PCOD9496812
_publ_section_title
;
Structure prediction by ZEFSAII (Michael W. Deem and Ramdas Pophale) SiO2 
 PCOD9496812
Probable space group: C C C M
;
_chemical_formula_sum "Si O2"
_cell_formula_units_Z 80
_cell_length_a 18.326849
_cell_length_b 27.883537
_cell_length_c 8.740162
_cell_angle_alpha 90.000000
_cell_angle_beta 90.000000
_cell_angle_gamma 90.000000
_cell_volume 4466.374618
_symmetry_space_group_name_H-M "C C C M"
_symmetry_group_IT_number 66
_symmetry_cell_setting 'orthorhombic'
loop_
_space_group_symop_operation_xyz
x,y,z
-x,-y,z
x,-y,1/2-z
-x,y,1/2-z
-x,-y,-z
x,y,-z
-x,y,1/2+z
x,-y,1/2+z
1/2+x,1/2+y,z
1/2-x,1/2-y,z
1/2+x,1/2-y,1/2-z
1/2-x,1/2+y,1/2-z
1/2-x,1/2-y,-z
1/2+x,1/2+y,-z
1/2-x,1/2+y,1/2+z
1/2+x,1/2-y,1/2+z
loop_
_atom_site_type_symbol
_atom_site_label
_atom_site_fract_x
_atom_site_fract_y
_atom_site_fract_z
Si Si1 0.626815 0.814527 0.317509
Si Si2 0.423449 0.713633 0.683144
Si Si3 0.221286 0.154873 0.184379
Si Si4 0.266864 0.049494 0.816853
Si Si5 0.075383 0.585229 0.316645
O O1 0.620729 0.816186 0.500000
O O2 0.593346 0.765726 0.253231
O O3 0.711245 0.818779 0.265557
O O4 0.587498 0.860814 0.245027
O O5 0.500000 0.695985 0.750000
O O6 0.428105 0.717634 0.500000
O O7 0.355412 0.679230 0.720846
O O8 0.226113 0.098682 0.227067
O O9 0.233083 0.158190 0.000000
O O10 0.351466 0.057140 0.768944
O O11 0.238119 0.000000 0.750000
O O12 0.265420 0.046579 0.000000
O O13 0.072285 0.586176 0.500000
O O14 0.000000 0.565822 0.250000
#
# Coordination Sequence:
#
# PCOD9496812 Si02
#       5
#    16  16  16  16  16
#     4  11  21  33  52  78 107 139 176 211 246 295
#     4  11  22  36  54  76 106 139 171 209 254 302
#     4   9  20  38  56  75 103 138 171 208 255 303
#     4   9  19  35  54  75  98 128 168 212 259 308
#     4  10  20  34  50  72 105 141 176 211 251 298
#
# _framework density 17.911618000000001
#
# number of rings (size 3 to 8) (size 9 to 14) (size 15 to 20)
#    0.000    2.000    0.000    5.400    0.000    8.400 
#    0.000    2.000    0.000    0.600    0.000    4.200 
#    0.000    0.000    0.000    0.000    0.000    0.000 
#
# Total GULP energy -223434.068815 kJ/mol
# GULP energy per Si atom -5585.851720 kJ/mol
# Density = 1.787085 g / cm^3
# Si number density = 17.911618 Si / 1000 Ang^3
#
#
#
# Elastic Constant Matrix: (Units=GPa)
#
#
# Indices 1 2 3 4 5 6 
#
# 1 69.3889 15.0513 19.2974 0.0000 0.0000 0.0000
# 2 15.0513 65.5272 11.6955 0.0000 0.0000 0.0000
# 3 19.2974 11.6955 40.7597 0.0000 0.0000 0.0000
# 4 0.0000 0.0000 0.0000 23.3526 0.0000 0.0000
# 5 0.0000 0.0000 0.0000 0.0000 -146.0880 0.0000
# 6 0.0000 0.0000 0.0000 0.0000 0.0000 0.3203
#
#
#
# Elastic Compliance Matrix: (Units=1/GPa)
#
#
# Indices 1 2 3 4 5 6 
#
# 1 0.017008 -0.002603 -0.007305 0.000000 0.000000 0.000000
# 2 -0.002603 0.016483 -0.003497 0.000000 0.000000 0.000000
# 3 -0.007305 -0.003497 0.028996 0.000000 0.000000 0.000000
# 4 0.000000 0.000000 0.000000 0.042822 0.000000 0.000000
# 5 0.000000 0.000000 0.000000 0.000000 -0.006845 0.000000
# 6 0.000000 0.000000 0.000000 0.000000 0.000000 3.121798
#
#
# Mechanical properties :
#
#
# Convention : Reuss Voigt Hill
#
# Bulk Modulus (GPa) = 28.03002 29.75157 28.89079
# Shear Modulus (GPa) = 1.53423 -15.84092 -7.15334
#
# Velocity S-wave (km/s) = 0.92651 -2.97710 -2.00059
# Velocity P-wave (km/s) = 4.10215 2.19744 3.29062
#
# Compressibility (1/GPa) = 0.03567604
#
# Stress axis : x y z
#
# Youngs Moduli (GPa) = 58.79669 60.66906 34.48720
#
# Poissons Ratio (x) = 0.15790 0.25194
# Poissons Ratio (y) = 0.15303 0.12061
# Poissons Ratio (z) = 0.42953 0.21218
#
# Static dielectric constant tensor:
#      x y z
#    x 1.616220 0.000000 0.000000 
#    y 0.000000 1.600820 0.000000 
#    z 0.000000 0.000000 1.600150 
# 
# From -- ./inp_files/6666.got.cif
#   From: 2010.05.17/outbox.cif.g08.bks.cpg/sg66_4_cif.got.tgz:6666.got - 2010.06.03 17:51:23.
