data_PCOD9496599
_publ_section_title
;
Structure prediction by ZEFSAII (Michael W. Deem and Ramdas Pophale) SiO2 
 PCOD9496599
Probable space group: C C C M
;
_chemical_formula_sum "Si O2"
_cell_formula_units_Z 116
_cell_length_a 29.042267
_cell_length_b 8.183737
_cell_length_c 26.927867
_cell_angle_alpha 90.000000
_cell_angle_beta 90.000000
_cell_angle_gamma 90.000000
_cell_volume 6400.061267
_symmetry_space_group_name_H-M "C C C M"
_symmetry_group_IT_number 66
_symmetry_cell_setting 'orthorhombic'
loop_
_space_group_symop_operation_xyz
x,y,z
-x,-y,z
x,-y,1/2-z
-x,y,1/2-z
-x,-y,-z
x,y,-z
-x,y,1/2+z
x,-y,1/2+z
1/2+x,1/2+y,z
1/2-x,1/2-y,z
1/2+x,1/2-y,1/2-z
1/2-x,1/2+y,1/2-z
1/2-x,1/2-y,-z
1/2+x,1/2+y,-z
1/2-x,1/2+y,1/2+z
1/2+x,1/2-y,1/2+z
loop_
_atom_site_type_symbol
_atom_site_label
_atom_site_fract_x
_atom_site_fract_y
_atom_site_fract_z
Si Si1 0.699918 0.305558 0.690430
Si Si2 0.448908 0.309181 0.262204
Si Si3 0.101809 0.692638 0.667488
Si Si4 0.538168 0.755486 0.078980
Si Si5 0.440520 0.880542 0.056886
Si Si6 0.000000 0.000000 0.000000
Si Si7 0.700078 0.303708 0.194550
Si Si8 0.393558 0.188671 0.352185
O O1 0.750000 0.250000 0.671361
O O2 0.655073 0.242314 0.661811
O O3 0.696800 0.246719 0.747910
O O4 0.697708 0.500886 0.692633
O O5 0.449406 0.500000 0.250000
O O6 0.500000 0.243439 0.250000
O O7 0.413609 0.230913 0.223308
O O8 0.429678 0.284274 0.317403
O O9 0.067194 0.779612 0.628569
O O10 0.096936 0.500891 0.658842
O O11 0.486330 0.824031 0.085976
O O12 0.529822 0.601854 0.043319
O O13 0.561630 0.921636 0.056273
O O14 0.400638 0.798138 0.088778
O O15 0.445348 0.821056 0.000000
O O16 0.750000 0.250000 0.175696
O O17 0.657329 0.233581 0.164770
#
# Coordination Sequence:
#
# PCOD9496599 Si02
#       8
#    16  16  16  16  16   4  16  16
#     4  10  20  35  56  81 119 154 181 238 287 342
#     4  11  23  37  50  76 119 157 189 232 282 348
#     4  11  22  35  54  83 115 149 196 230 289 350
#     4  10  21  35  57  81 111 150 191 246 287 342
#     4  10  19  40  58  78 114 151 202 244 289 335
#     4  12  20  34  56  84 112 142 200 244 298 326
#     4  10  20  35  56  83 114 150 195 231 284 350
#     4  11  22  34  59  83 110 155 194 238 290 344
#
# _framework density 18.124827
#
# number of rings (size 3 to 8) (size 9 to 14) (size 15 to 20)
#    0.000    1.517    2.759    3.310    0.000    6.621 
#    0.000    0.000    0.000    0.414    0.000    0.483 
#    0.000    0.000    0.000    0.000    0.000    0.000 
#
# Total GULP energy -322994.811267 kJ/mol
# GULP energy per Si atom -5568.876056 kJ/mol
# Density = 1.808357 g / cm^3
# Si number density = 18.124827 Si / 1000 Ang^3
#
#
#
# Elastic Constant Matrix: (Units=GPa)
#
#
# Indices 1 2 3 4 5 6 
#
# 1 106.3606 19.7965 46.8806 0.0000 0.0000 0.0000
# 2 19.7965 42.8231 17.3643 0.0000 0.0000 0.0000
# 3 46.8806 17.3643 86.5926 0.0000 0.0000 0.0000
# 4 0.0000 0.0000 0.0000 16.9597 0.0000 0.0000
# 5 0.0000 0.0000 0.0000 0.0000 18.2845 0.0000
# 6 0.0000 0.0000 0.0000 0.0000 0.0000 27.4905
#
#
#
# Elastic Compliance Matrix: (Units=1/GPa)
#
#
# Indices 1 2 3 4 5 6 
#
# 1 0.012782 -0.003378 -0.006243 0.000000 0.000000 0.000000
# 2 -0.003378 0.026311 -0.003448 0.000000 0.000000 0.000000
# 3 -0.006243 -0.003448 0.015620 0.000000 0.000000 0.000000
# 4 0.000000 0.000000 0.000000 0.058963 0.000000 0.000000
# 5 0.000000 0.000000 0.000000 0.000000 0.054691 0.000000
# 6 0.000000 0.000000 0.000000 0.000000 0.000000 0.036376
#
#
# Mechanical properties :
#
#
# Convention : Reuss Voigt Hill
#
# Bulk Modulus (GPa) = 34.99333 44.87324 39.93329
# Shear Modulus (GPa) = 20.79820 22.66261 21.73040
#
# Velocity S-wave (km/s) = 3.39115 3.53988 3.46631
# Velocity P-wave (km/s) = 5.88914 6.44355 6.17257
#
# Compressibility (1/GPa) = 0.02857687
#
# Stress axis : x y z
#
# Youngs Moduli (GPa) = 78.23282 38.00657 64.02233
#
# Poissons Ratio (x) = 0.12837 0.39969
# Poissons Ratio (y) = 0.26424 0.22072
# Poissons Ratio (z) = 0.48840 0.13103
#
# Static dielectric constant tensor:
#      x y z
#    x 1.637440 0.000000 0.000000 
#    y 0.000000 1.664000 0.000000 
#    z 0.000000 0.000000 1.661280 
# 
# From -- ./inp_files/70588.got.cif
#   From: 2010.05.17/outbox.cif.g08.bks.cpg/sg66_36_cif.got.tgz:70588.got - 2010.06.03 17:51:23.
