data_PCOD9496370
_publ_section_title
;
Structure prediction by ZEFSAII (Michael W. Deem and Ramdas Pophale) SiO2 
 PCOD9496370
Probable space group: C C C M
;
_chemical_formula_sum "Si O2"
_cell_formula_units_Z 116
_cell_length_a 29.595948
_cell_length_b 24.560042
_cell_length_c 9.200179
_cell_angle_alpha 90.000000
_cell_angle_beta 90.000000
_cell_angle_gamma 90.000000
_cell_volume 6687.405189
_symmetry_space_group_name_H-M "C C C M"
_symmetry_group_IT_number 66
_symmetry_cell_setting 'orthorhombic'
loop_
_space_group_symop_operation_xyz
x,y,z
-x,-y,z
x,-y,1/2-z
-x,y,1/2-z
-x,-y,-z
x,y,-z
-x,y,1/2+z
x,-y,1/2+z
1/2+x,1/2+y,z
1/2-x,1/2-y,z
1/2+x,1/2-y,1/2-z
1/2-x,1/2+y,1/2-z
1/2-x,1/2-y,-z
1/2+x,1/2+y,-z
1/2-x,1/2+y,1/2+z
1/2+x,1/2-y,1/2+z
loop_
_atom_site_type_symbol
_atom_site_label
_atom_site_fract_x
_atom_site_fract_y
_atom_site_fract_z
Si Si1 0.365331 0.341973 0.325982
Si Si2 0.500000 0.500000 0.250000
Si Si3 0.874219 0.444377 0.668277
Si Si4 0.397074 0.222050 0.669885
Si Si5 0.185735 0.641869 0.826440
Si Si6 0.091176 0.946376 0.668451
Si Si7 0.729665 0.689272 0.825811
Si Si8 0.543461 0.860479 0.835641
O O1 0.359662 0.351044 0.500000
O O2 0.393477 0.286182 0.306709
O O3 0.390977 0.392906 0.251877
O O4 0.317229 0.327043 0.251700
O O5 0.463269 0.540375 0.326101
O O6 0.883799 0.500000 0.750000
O O7 0.860521 0.452384 0.500000
O O8 0.837580 0.411315 0.760887
O O9 0.918331 0.406441 0.668017
O O10 0.405772 0.211469 0.500000
O O11 0.349253 0.191955 0.702998
O O12 0.434898 0.192738 0.763479
O O13 0.231820 0.651401 0.741799
O O14 0.192154 0.638862 0.000000
O O15 0.104467 0.943713 0.500000
O O16 0.110497 0.000000 0.750000
O O17 0.750000 0.750000 0.796375
O O18 0.724926 0.684067 0.000000
O O19 0.500000 0.879266 0.750000
O O20 0.530894 0.848547 0.000000
#
# Coordination Sequence:
#
# PCOD9496370 Si02
#       8
#    16   4  16  16  16  16  16  16
#     4  11  22  37  59  88 120 153 193 240 288 343
#     4   8  22  40  70  88 114 156 198 244 292 356
#     4  10  21  37  57  82 109 144 188 235 283 337
#     4   9  19  35  55  80 112 149 186 229 282 339
#     4  10  19  35  58  82 112 150 189 232 279 333
#     4  10  21  39  63  89 117 152 195 240 291 347
#     4  11  22  35  56  86 120 156 193 233 279 338
#     4  10  21  36  55  78 109 146 186 233 286 341
#
# _framework density 17.346039999999999
#
# number of rings (size 3 to 8) (size 9 to 14) (size 15 to 20)
#    0.414    1.517    1.379    2.690    0.000    4.138 
#    1.241    2.069    0.000    0.000    0.000    0.000 
#    0.000    0.000    0.000    0.000    0.000    0.000 
#
# Total GULP energy -323170.698645 kJ/mol
# GULP energy per Si atom -5571.908597 kJ/mol
# Density = 1.730656 g / cm^3
# Si number density = 17.346040 Si / 1000 Ang^3
#
#
#
# Elastic Constant Matrix: (Units=GPa)
#
#
# Indices 1 2 3 4 5 6 
#
# 1 56.3530 22.4170 34.1018 0.0000 0.0000 0.0000
# 2 22.4170 91.2193 63.8606 0.0000 0.0000 0.0000
# 3 34.1018 63.8606 95.9095 0.0000 0.0000 0.0000
# 4 0.0000 0.0000 0.0000 25.9495 0.0000 0.0000
# 5 0.0000 0.0000 0.0000 0.0000 22.6824 0.0000
# 6 0.0000 0.0000 0.0000 0.0000 0.0000 14.7101
#
#
#
# Elastic Compliance Matrix: (Units=1/GPa)
#
#
# Indices 1 2 3 4 5 6 
#
# 1 0.022611 0.000134 -0.008129 0.000000 0.000000 0.000000
# 2 0.000134 0.020535 -0.013721 0.000000 0.000000 0.000000
# 3 -0.008129 -0.013721 0.022453 0.000000 0.000000 0.000000
# 4 0.000000 0.000000 0.000000 0.038536 0.000000 0.000000
# 5 0.000000 0.000000 0.000000 0.000000 0.044087 0.000000
# 6 0.000000 0.000000 0.000000 0.000000 0.000000 0.067980
#
#
# Mechanical properties :
#
#
# Convention : Reuss Voigt Hill
#
# Bulk Modulus (GPa) = 45.11045 53.80448 49.45746
# Shear Modulus (GPa) = 18.72487 20.87522 19.80005
#
# Velocity S-wave (km/s) = 3.28912 3.47285 3.38224
# Velocity P-wave (km/s) = 6.36295 6.86779 6.62018
#
# Compressibility (1/GPa) = 0.02216781
#
# Stress axis : x y z
#
# Youngs Moduli (GPa) = 44.22597 48.69631 44.53745
#
# Poissons Ratio (x) = -0.00654 0.36205
# Poissons Ratio (y) = -0.00594 0.61110
# Poissons Ratio (z) = 0.35952 0.66817
#
# Static dielectric constant tensor:
#      x y z
#    x 1.583440 0.000000 0.000000 
#    y 0.000000 1.586790 0.000000 
#    z 0.000000 0.000000 1.587550 
# 
# From -- ./inp_files/11718.got.cif
#   From: 2010.05.17/outbox.cif.g08.bks.cpg/sg66_6_cif.got.tgz:11718.got - 2010.06.03 17:51:23.
