data_PCOD9496576
_publ_section_title
;
Structure prediction by ZEFSAII (Michael W. Deem and Ramdas Pophale) SiO2 
 PCOD9496576
Probable space group: C C C M
;
_chemical_formula_sum "Si O2"
_cell_formula_units_Z 88
_cell_length_a 11.378883
_cell_length_b 11.726246
_cell_length_c 29.076849
_cell_angle_alpha 90.000000
_cell_angle_beta 90.000000
_cell_angle_gamma 90.000000
_cell_volume 3879.769940
_symmetry_space_group_name_H-M "C C C M"
_symmetry_group_IT_number 66
_symmetry_cell_setting 'orthorhombic'
loop_
_space_group_symop_operation_xyz
x,y,z
-x,-y,z
x,-y,1/2-z
-x,y,1/2-z
-x,-y,-z
x,y,-z
-x,y,1/2+z
x,-y,1/2+z
1/2+x,1/2+y,z
1/2-x,1/2-y,z
1/2+x,1/2-y,1/2-z
1/2-x,1/2+y,1/2-z
1/2-x,1/2-y,-z
1/2+x,1/2+y,-z
1/2-x,1/2+y,1/2+z
1/2+x,1/2-y,1/2+z
loop_
_atom_site_type_symbol
_atom_site_label
_atom_site_fract_x
_atom_site_fract_y
_atom_site_fract_z
Si Si1 0.250000 0.750000 0.841488
Si Si2 0.809353 0.126765 0.367275
Si Si3 0.949881 0.130445 0.000000
Si Si4 0.931983 0.617578 0.500000
Si Si5 0.613074 0.936427 0.798036
Si Si6 0.997647 0.807884 0.700592
Si Si7 0.735563 0.582089 0.424187
O O1 0.133772 0.770918 0.812014
O O2 0.242378 0.644909 0.876425
O O3 0.750000 0.250000 0.376158
O O4 0.727660 0.069166 0.328494
O O5 0.937502 0.135977 0.343472
O O6 0.798161 0.047863 0.411920
O O7 0.870720 0.132213 0.954013
O O8 0.001726 0.260866 0.000000
O O9 0.000000 0.000000 0.000000
O O10 0.847986 0.605233 0.455657
O O11 0.000000 0.500000 0.500000
O O12 0.574020 0.806452 0.791071
O O13 0.500000 0.000000 0.820096
O O14 0.633958 0.000000 0.750000
O O15 0.000000 0.869739 0.750000
#
# Coordination Sequence:
#
# PCOD9496576 Si02
#       7
#     8  16   8   8  16  16  16
#     4  12  26  43  76  96 150 198 260 297 378 468
#     4  10  25  41  65 106 150 182 254 322 374 446
#     4  11  25  47  78 110 154 181 232 315 382 464
#     4  11  25  49  80 114 148 190 249 309 373 486
#     4  10  19  38  65  93 131 191 255 298 381 439
#     4  11  25  40  63 102 143 196 252 325 377 441
#     4  11  24  47  72 106 143 195 242 290 388 461
#
# _framework density 22.681756
#
# number of rings (size 3 to 8) (size 9 to 14) (size 15 to 20)
#    0.000    1.273    3.636    1.636    6.364    5.091 
#    0.000    2.727    0.000    0.000    0.000    0.000 
#    0.000    0.000    0.000    0.000    0.000    0.000 
#
# Total GULP energy -245752.516953 kJ/mol
# GULP energy per Si atom -5585.284476 kJ/mol
# Density = 2.263013 g / cm^3
# Si number density = 22.681756 Si / 1000 Ang^3
#
#
#
# Elastic Constant Matrix: (Units=GPa)
#
#
# Indices 1 2 3 4 5 6 
#
# 1 92.6178 28.1432 30.2033 0.0000 0.0000 0.0000
# 2 28.1432 163.6650 41.1614 0.0000 0.0000 0.0000
# 3 30.2033 41.1614 95.5440 0.0000 0.0000 0.0000
# 4 0.0000 0.0000 0.0000 44.5231 0.0000 0.0000
# 5 0.0000 0.0000 0.0000 0.0000 -62.7069 0.0000
# 6 0.0000 0.0000 0.0000 0.0000 0.0000 24.8066
#
#
#
# Elastic Compliance Matrix: (Units=1/GPa)
#
#
# Indices 1 2 3 4 5 6 
#
# 1 0.012270 -0.001272 -0.003331 0.000000 0.000000 0.000000
# 2 -0.001272 0.006984 -0.002607 0.000000 0.000000 0.000000
# 3 -0.003331 -0.002607 0.012642 0.000000 0.000000 0.000000
# 4 0.000000 0.000000 0.000000 0.022460 0.000000 0.000000
# 5 0.000000 0.000000 0.000000 0.000000 -0.015947 0.000000
# 6 0.000000 0.000000 0.000000 0.000000 0.000000 0.040312
#
#
# Mechanical properties :
#
#
# Convention : Reuss Voigt Hill
#
# Bulk Modulus (GPa) = 57.21736 61.20473 59.21105
# Shear Modulus (GPa) = 50.52222 18.14581 34.33402
#
# Velocity S-wave (km/s) = 4.72469 2.83153 3.89489
# Velocity P-wave (km/s) = 7.41920 6.14270 6.81092
#
# Compressibility (1/GPa) = 0.01747721
#
# Stress axis : x y z
#
# Youngs Moduli (GPa) = 81.50108 143.17598 79.09957
#
# Poissons Ratio (x) = 0.18215 0.26345
# Poissons Ratio (y) = 0.10369 0.20620
# Poissons Ratio (z) = 0.27145 0.37323
#
# Static dielectric constant tensor:
#      x y z
#    x 1.841390 0.000000 0.000000 
#    y 0.000000 1.941690 0.000000 
#    z 0.000000 0.000000 1.853430 
# 
# From -- ./inp_files/68922.got.cif
#   From: 2010.05.17/outbox.cif.g08.bks.cpg/sg66_35_cif.got.tgz:68922.got - 2010.06.03 17:51:23.
