data_PCOD9496508
_publ_section_title
;
Structure prediction by ZEFSAII (Michael W. Deem and Ramdas Pophale) SiO2 
 PCOD9496508
Probable space group: C C C M
;
_chemical_formula_sum "Si O2"
_cell_formula_units_Z 96
_cell_length_a 31.066808
_cell_length_b 9.131078
_cell_length_c 19.043068
_cell_angle_alpha 90.000000
_cell_angle_beta 90.000000
_cell_angle_gamma 90.000000
_cell_volume 5402.012742
_symmetry_space_group_name_H-M "C C C M"
_symmetry_group_IT_number 66
_symmetry_cell_setting 'orthorhombic'
loop_
_space_group_symop_operation_xyz
x,y,z
-x,-y,z
x,-y,1/2-z
-x,y,1/2-z
-x,-y,-z
x,y,-z
-x,y,1/2+z
x,-y,1/2+z
1/2+x,1/2+y,z
1/2-x,1/2-y,z
1/2+x,1/2-y,1/2-z
1/2-x,1/2+y,1/2-z
1/2-x,1/2-y,-z
1/2+x,1/2+y,-z
1/2-x,1/2+y,1/2+z
1/2+x,1/2-y,1/2+z
loop_
_atom_site_type_symbol
_atom_site_label
_atom_site_fract_x
_atom_site_fract_y
_atom_site_fract_z
Si Si1 0.989952 0.830974 0.667178
Si Si2 0.437746 0.813778 0.581427
Si Si3 0.109835 0.204450 0.683712
Si Si4 0.627250 0.632354 0.839143
Si Si5 0.137454 0.451464 0.417849
Si Si6 0.699552 0.220306 0.418805
O O1 0.939898 0.793770 0.660176
O O2 0.000000 0.827188 0.750000
O O3 0.020112 0.714836 0.627613
O O4 0.000000 0.000000 0.644303
O O5 0.449496 0.814955 0.500000
O O6 0.406698 0.678540 0.601415
O O7 0.405956 0.951413 0.594358
O O8 0.113658 0.218883 0.768180
O O9 0.135737 0.321047 0.637824
O O10 0.125536 0.039509 0.671704
O O11 0.673607 0.680745 0.864896
O O12 0.136902 0.404539 0.500000
O O13 0.178835 0.558313 0.408645
O O14 0.688604 0.257599 0.500000
O O15 0.750000 0.250000 0.410459
#
# Coordination Sequence:
#
# PCOD9496508 Si02
#       6
#    16  16  16  16  16  16
#     4  11  19  36  54  77 112 154 201 243 274 334
#     4  10  20  35  53  78 110 148 197 240 278 334
#     4  11  21  35  57  81 116 151 189 239 291 329
#     4  10  19  37  56  83 111 148 189 231 281 346
#     4   9  21  38  56  84 119 147 185 243 295 340
#     4   9  19  39  64  84 109 147 185 228 286 354
#
# _framework density 17.771153999999999
#
# number of rings (size 3 to 8) (size 9 to 14) (size 15 to 20)
#    0.000    2.000    3.333    2.500    0.000    5.667 
#    0.000    6.667    0.000    3.000    0.000    0.000 
#    0.000    0.000    0.000    0.000    0.000    0.000 
#
# Total GULP energy -267525.870592 kJ/mol
# GULP energy per Si atom -5573.455637 kJ/mol
# Density = 1.773071 g / cm^3
# Si number density = 17.771154 Si / 1000 Ang^3
#
#
#
# Elastic Constant Matrix: (Units=GPa)
#
#
# Indices 1 2 3 4 5 6 
#
# 1 104.1788 30.6174 47.0713 0.0000 0.0000 0.0000
# 2 30.6174 58.5279 45.3936 0.0000 0.0000 0.0000
# 3 47.0713 45.3936 62.0445 0.0000 0.0000 0.0000
# 4 0.0000 0.0000 0.0000 43.9294 0.0000 0.0000
# 5 0.0000 0.0000 0.0000 0.0000 28.5240 0.0000
# 6 0.0000 0.0000 0.0000 0.0000 0.0000 12.6306
#
#
#
# Elastic Compliance Matrix: (Units=1/GPa)
#
#
# Indices 1 2 3 4 5 6 
#
# 1 0.014730 0.002223 -0.012802 0.000000 0.000000 0.000000
# 2 0.002223 0.039835 -0.030832 0.000000 0.000000 0.000000
# 3 -0.012802 -0.030832 0.048387 0.000000 0.000000 0.000000
# 4 0.000000 0.000000 0.000000 0.022764 0.000000 0.000000
# 5 0.000000 0.000000 0.000000 0.000000 0.035058 0.000000
# 6 0.000000 0.000000 0.000000 0.000000 0.000000 0.079173
#
#
# Mechanical properties :
#
#
# Convention : Reuss Voigt Hill
#
# Bulk Modulus (GPa) = 49.67128 52.32398 50.99763
# Shear Modulus (GPa) = 15.17557 23.79473 19.48515
#
# Velocity S-wave (km/s) = 2.92540 3.66314 3.31486
# Velocity P-wave (km/s) = 6.27868 6.88466 6.58864
#
# Compressibility (1/GPa) = 0.02013236
#
# Stress axis : x y z
#
# Youngs Moduli (GPa) = 67.89050 25.10332 20.66677
#
# Poissons Ratio (x) = -0.05581 0.26457
# Poissons Ratio (y) = -0.15094 0.63719
# Poissons Ratio (z) = 0.86910 0.77397
#
# Static dielectric constant tensor:
#      x y z
#    x 1.613040 0.000000 0.000000 
#    y 0.000000 1.619090 0.000000 
#    z 0.000000 0.000000 1.614460 
# 
# From -- ./inp_files/52966.got.cif
#   From: 2010.05.17/outbox.cif.g08.bks.cpg/sg66_27_cif.got.tgz:52966.got - 2010.06.03 17:51:23.
