data_PCOD9496887
_publ_section_title
;
Structure prediction by ZEFSAII (Michael W. Deem and Ramdas Pophale) SiO2 
 PCOD9496887
Probable space group: C C C M
;
_chemical_formula_sum "Si O2"
_cell_formula_units_Z 48
_cell_length_a 15.703637
_cell_length_b 9.146024
_cell_length_c 18.907614
_cell_angle_alpha 90.000000
_cell_angle_beta 90.000000
_cell_angle_gamma 90.000000
_cell_volume 2715.621960
_symmetry_space_group_name_H-M "C C C M"
_symmetry_group_IT_number 66
_symmetry_cell_setting 'orthorhombic'
loop_
_space_group_symop_operation_xyz
x,y,z
-x,-y,z
x,-y,1/2-z
-x,y,1/2-z
-x,-y,-z
x,y,-z
-x,y,1/2+z
x,-y,1/2+z
1/2+x,1/2+y,z
1/2-x,1/2-y,z
1/2+x,1/2-y,1/2-z
1/2-x,1/2+y,1/2-z
1/2-x,1/2-y,-z
1/2+x,1/2+y,-z
1/2-x,1/2+y,1/2+z
1/2+x,1/2-y,1/2+z
loop_
_atom_site_type_symbol
_atom_site_label
_atom_site_fract_x
_atom_site_fract_y
_atom_site_fract_z
Si Si1 0.516453 0.671515 0.917092
Si Si2 0.915318 0.603847 0.667824
Si Si3 0.843460 0.685538 0.180360
O O1 0.500000 0.500000 0.907486
O O2 0.439177 0.770871 0.887218
O O3 0.598063 0.719904 0.871573
O O4 0.528924 0.701425 0.000000
O O5 0.888515 0.674981 0.742449
O O6 0.843750 0.482238 0.652033
O O7 0.000000 0.500000 0.671660
O O8 0.750000 0.750000 0.186906
#
# Coordination Sequence:
#
# PCOD9496887 Si02
#       3
#    16  16  16
#     4  10  21  36  54  77 105 140 180 217 259 315
#     4   9  19  37  56  77 104 140 182 215 258 322
#     4  10  20  34  55  81 107 134 171 220 268 314
#
# _framework density 17.675509999999999
#
# number of rings (size 3 to 8) (size 9 to 14) (size 15 to 20)
#    0.000    2.333    0.000    7.000    0.000   14.667 
#    0.000    0.000    0.000    5.000    0.000    0.000 
#    0.000    0.000    0.000    0.000    0.000    0.000 
#
# Total GULP energy -133658.565266 kJ/mol
# GULP energy per Si atom -5569.106886 kJ/mol
# Density = 1.763528 g / cm^3
# Si number density = 17.675510 Si / 1000 Ang^3
#
#
#
# Elastic Constant Matrix: (Units=GPa)
#
#
# Indices 1 2 3 4 5 6 
#
# 1 84.6022 57.2929 51.4229 0.0000 0.0000 0.0000
# 2 57.2929 117.6072 84.8840 0.0000 0.0000 0.0000
# 3 51.4229 84.8840 116.8167 0.0000 0.0000 0.0000
# 4 0.0000 0.0000 0.0000 27.1730 0.0000 0.0000
# 5 0.0000 0.0000 0.0000 0.0000 8.5192 0.0000
# 6 0.0000 0.0000 0.0000 0.0000 0.0000 33.8903
#
#
#
# Elastic Compliance Matrix: (Units=1/GPa)
#
#
# Indices 1 2 3 4 5 6 
#
# 1 0.018226 -0.006494 -0.003304 0.000000 0.000000 0.000000
# 2 -0.006494 0.020194 -0.011815 0.000000 0.000000 0.000000
# 3 -0.003304 -0.011815 0.018601 0.000000 0.000000 0.000000
# 4 0.000000 0.000000 0.000000 0.036801 0.000000 0.000000
# 5 0.000000 0.000000 0.000000 0.000000 0.117382 0.000000
# 6 0.000000 0.000000 0.000000 0.000000 0.000000 0.029507
#
#
# Mechanical properties :
#
#
# Convention : Reuss Voigt Hill
#
# Bulk Modulus (GPa) = 72.49755 78.46954 75.48355
# Shear Modulus (GPa) = 17.32880 22.27825 19.80353
#
# Velocity S-wave (km/s) = 3.13451 3.55407 3.35086
# Velocity P-wave (km/s) = 7.36241 7.83152 7.60058
#
# Compressibility (1/GPa) = 0.01379357
#
# Stress axis : x y z
#
# Youngs Moduli (GPa) = 54.86578 49.51879 53.76179
#
# Poissons Ratio (x) = 0.32158 0.17765
# Poissons Ratio (y) = 0.35630 0.63522
# Poissons Ratio (z) = 0.18130 0.58508
#
# Static dielectric constant tensor:
#      x y z
#    x 1.627130 0.000000 0.000000 
#    y 0.000000 1.637030 0.000000 
#    z 0.000000 0.000000 1.596030 
# 
# From -- ./inp_files/23634.got.cif
#   From: 2010.05.17/outbox.cif.g08.bks.cpg/sg66_12_cif.got.tgz:23634.got - 2010.06.03 17:51:23.
