data_PCOD9496989
_publ_section_title
;
Structure prediction by ZEFSAII (Michael W. Deem and Ramdas Pophale) SiO2 
 PCOD9496989
Probable space group: C C C M
;
_chemical_formula_sum "Si O2"
_cell_formula_units_Z 56
_cell_length_a 5.111073
_cell_length_b 14.568264
_cell_length_c 33.899611
_cell_angle_alpha 90.000000
_cell_angle_beta 90.000000
_cell_angle_gamma 90.000000
_cell_volume 2524.146756
_symmetry_space_group_name_H-M "C C C M"
_symmetry_group_IT_number 66
_symmetry_cell_setting 'orthorhombic'
loop_
_space_group_symop_operation_xyz
x,y,z
-x,-y,z
x,-y,1/2-z
-x,y,1/2-z
-x,-y,-z
x,y,-z
-x,y,1/2+z
x,-y,1/2+z
1/2+x,1/2+y,z
1/2-x,1/2-y,z
1/2+x,1/2-y,1/2-z
1/2-x,1/2+y,1/2-z
1/2-x,1/2-y,-z
1/2+x,1/2+y,-z
1/2-x,1/2+y,1/2+z
1/2+x,1/2-y,1/2+z
loop_
_atom_site_type_symbol
_atom_site_label
_atom_site_fract_x
_atom_site_fract_y
_atom_site_fract_z
Si Si1 0.483981 0.890184 0.165939
Si Si2 0.748239 0.065235 0.456277
Si Si3 0.978742 0.887935 0.121079
Si Si4 0.500000 0.189447 0.750000
O O1 0.769560 0.857117 0.153308
O O2 0.422566 0.866164 0.210877
O O3 0.264057 0.856769 0.134985
O O4 0.500000 0.000000 0.162838
O O5 0.689305 0.104562 0.500000
O O6 0.844871 0.131711 0.421313
O O7 0.500000 0.000000 0.444934
O O8 0.000000 0.000000 0.460762
O O9 0.000000 0.000000 0.121673
O O10 0.750000 0.250000 0.739545
#
# Coordination Sequence:
#
# PCOD9496989 Si02
#       4
#    16  16  16   8
#     4  10  20  35  55  75 100 134 172 210 252 306
#     4   9  15  23  38  65 104 142 168 199 250 302
#     4   9  16  28  47  72 100 133 171 206 244 297
#     4  12  25  40  55  76 104 130 166 216 269 316
#
# _framework density 22.185714000000001
#
# number of rings (size 3 to 8) (size 9 to 14) (size 15 to 20)
#    0.000    2.286    0.000    6.429    0.000    0.000 
#    0.000    5.714    0.000    0.000    0.000    0.000 
#    0.000   22.857    0.000    0.000    0.000    0.000 
#
# Total GULP energy -156082.035445 kJ/mol
# GULP energy per Si atom -5574.358409 kJ/mol
# Density = 2.213522 g / cm^3
# Si number density = 22.185714 Si / 1000 Ang^3
#
#
#
# Elastic Constant Matrix: (Units=GPa)
#
#
# Indices 1 2 3 4 5 6 
#
# 1 141.8825 8.2672 26.5884 0.0000 0.0000 0.0000
# 2 8.2672 51.4074 11.1322 0.0000 0.0000 0.0000
# 3 26.5884 11.1322 166.6721 0.0000 0.0000 0.0000
# 4 0.0000 0.0000 0.0000 -12.4459 0.0000 0.0000
# 5 0.0000 0.0000 0.0000 0.0000 38.1148 0.0000
# 6 0.0000 0.0000 0.0000 0.0000 0.0000 3.4970
#
#
#
# Elastic Compliance Matrix: (Units=1/GPa)
#
#
# Indices 1 2 3 4 5 6 
#
# 1 0.007309 -0.000937 -0.001103 0.000000 0.000000 0.000000
# 2 -0.000937 0.019858 -0.001177 0.000000 0.000000 0.000000
# 3 -0.001103 -0.001177 0.006254 0.000000 0.000000 0.000000
# 4 0.000000 0.000000 0.000000 -0.080348 0.000000 0.000000
# 5 0.000000 0.000000 0.000000 0.000000 0.026237 0.000000
# 6 0.000000 0.000000 0.000000 0.000000 0.000000 0.285959
#
#
# Mechanical properties :
#
#
# Convention : Reuss Voigt Hill
#
# Bulk Modulus (GPa) = 37.05364 50.21531 43.63447
# Shear Modulus (GPa) = 17.81264 26.76480 22.28872
#
# Velocity S-wave (km/s) = 2.83660 3.47709 3.17305
# Velocity P-wave (km/s) = 5.24082 6.22924 5.75629
#
# Compressibility (1/GPa) = 0.02698790
#
# Stress axis : x y z
#
# Youngs Moduli (GPa) = 136.80926 50.35778 159.88628
#
# Poissons Ratio (x) = 0.04716 0.17643
# Poissons Ratio (y) = 0.12813 0.18817
# Poissons Ratio (z) = 0.15097 0.05927
#
# Static dielectric constant tensor:
#      x y z
#    x 1.786830 0.000000 0.000000 
#    y 0.000000 1.846500 0.000000 
#    z 0.000000 0.000000 1.899580 
# 
# From -- ./inp_files/66904.got.cif
#   From: 2010.05.17/outbox.cif.g08.bks.cpg/sg66_34_cif.got.tgz:66904.got - 2010.06.03 17:51:23.
