data_PCOD9496821
_publ_section_title
;
Structure prediction by ZEFSAII (Michael W. Deem and Ramdas Pophale) SiO2 
 PCOD9496821
Probable space group: C C C M
;
_chemical_formula_sum "Si O2"
_cell_formula_units_Z 80
_cell_length_a 19.084345
_cell_length_b 27.465644
_cell_length_c 8.669252
_cell_angle_alpha 90.000000
_cell_angle_beta 90.000000
_cell_angle_gamma 90.000000
_cell_volume 4544.108295
_symmetry_space_group_name_H-M "C C C M"
_symmetry_group_IT_number 66
_symmetry_cell_setting 'orthorhombic'
loop_
_space_group_symop_operation_xyz
x,y,z
-x,-y,z
x,-y,1/2-z
-x,y,1/2-z
-x,-y,-z
x,y,-z
-x,y,1/2+z
x,-y,1/2+z
1/2+x,1/2+y,z
1/2-x,1/2-y,z
1/2+x,1/2-y,1/2-z
1/2-x,1/2+y,1/2-z
1/2-x,1/2-y,-z
1/2+x,1/2+y,-z
1/2-x,1/2+y,1/2+z
1/2+x,1/2-y,1/2+z
loop_
_atom_site_type_symbol
_atom_site_label
_atom_site_fract_x
_atom_site_fract_y
_atom_site_fract_z
Si Si1 0.713516 0.400151 0.183805
Si Si2 0.278921 0.803087 0.686354
Si Si3 0.074138 0.945347 0.684424
Si Si4 0.148177 0.551986 0.314639
Si Si5 0.075433 0.347876 0.184781
O O1 0.735333 0.345897 0.233864
O O2 0.639755 0.414605 0.257288
O O3 0.774881 0.434910 0.249912
O O4 0.710898 0.404849 0.000000
O O5 0.273732 0.809306 0.500000
O O6 0.250000 0.750000 0.725748
O O7 0.360207 0.812585 0.729137
O O8 0.071810 0.947045 0.500000
O O9 0.000000 0.926804 0.750000
O O10 0.082760 0.000000 0.750000
O O11 0.125037 0.500000 0.250000
O O12 0.151235 0.550574 0.500000
O O13 0.098873 0.597384 0.267788
O O14 0.000000 0.334978 0.250000
O O15 0.071331 0.347643 0.000000
#
# Coordination Sequence:
#
# PCOD9496821 Si02
#       5
#    16  16  16  16  16
#     4  11  21  34  53  78 106 137 175 219 265 314
#     4   9  19  38  60  79 102 136 176 218 267 317
#     4  11  21  35  53  76 107 142 179 218 264 316
#     4  10  20  34  51  75 105 140 179 215 256 305
#     4   9  19  34  53  77 105 137 171 210 258 310
#
# _framework density 17.605215999999999
#
# number of rings (size 3 to 8) (size 9 to 14) (size 15 to 20)
#    0.000    2.000    0.000    6.600    0.000    4.800 
#    0.000    3.000    0.000    2.400    0.000    0.000 
#    0.000    0.000    0.000    0.000    0.000    0.000 
#
# Total GULP energy -223341.730490 kJ/mol
# GULP energy per Si atom -5583.543262 kJ/mol
# Density = 1.756515 g / cm^3
# Si number density = 17.605216 Si / 1000 Ang^3
#
#
#
# Elastic Constant Matrix: (Units=GPa)
#
#
# Indices 1 2 3 4 5 6 
#
# 1 151.1414 54.0111 42.0666 0.0000 0.0000 0.0000
# 2 54.0111 89.2892 31.5007 0.0000 0.0000 0.0000
# 3 42.0666 31.5007 86.8360 0.0000 0.0000 0.0000
# 4 0.0000 0.0000 0.0000 37.5885 0.0000 0.0000
# 5 0.0000 0.0000 0.0000 0.0000 10.8864 0.0000
# 6 0.0000 0.0000 0.0000 0.0000 0.0000 9.6405
#
#
#
# Elastic Compliance Matrix: (Units=1/GPa)
#
#
# Indices 1 2 3 4 5 6 
#
# 1 0.008970 -0.004464 -0.002726 0.000000 0.000000 0.000000
# 2 -0.004464 0.015065 -0.003302 0.000000 0.000000 0.000000
# 3 -0.002726 -0.003302 0.014035 0.000000 0.000000 0.000000
# 4 0.000000 0.000000 0.000000 0.026604 0.000000 0.000000
# 5 0.000000 0.000000 0.000000 0.000000 0.091858 0.000000
# 6 0.000000 0.000000 0.000000 0.000000 0.000000 0.103729
#
#
# Mechanical properties :
#
#
# Convention : Reuss Voigt Hill
#
# Bulk Modulus (GPa) = 58.53287 64.71372 61.62329
# Shear Modulus (GPa) = 17.42515 24.93561 21.18038
#
# Velocity S-wave (km/s) = 3.14948 3.76756 3.47230
# Velocity P-wave (km/s) = 6.82241 7.46753 7.15225
#
# Compressibility (1/GPa) = 0.01708442
#
# Stress axis : x y z
#
# Youngs Moduli (GPa) = 111.47685 66.37832 71.25284
#
# Poissons Ratio (x) = 0.29635 0.19424
# Poissons Ratio (y) = 0.49769 0.23530
# Poissons Ratio (z) = 0.30390 0.21920
#
# Static dielectric constant tensor:
#      x y z
#    x 1.595650 0.000000 0.000000 
#    y 0.000000 1.587370 0.000000 
#    z 0.000000 0.000000 1.590970 
# 
# From -- ./inp_files/6676.got.cif
#   From: 2010.05.17/outbox.cif.g08.bks.cpg/sg66_4_cif.got.tgz:6676.got - 2010.06.03 17:51:23.
