data_PCOD9496632
_publ_section_title
;
Structure prediction by ZEFSAII (Michael W. Deem and Ramdas Pophale) SiO2 
 PCOD9496632
Probable space group: C C C M
;
_chemical_formula_sum "Si O2"
_cell_formula_units_Z 84
_cell_length_a 28.689071
_cell_length_b 19.758265
_cell_length_c 9.378939
_cell_angle_alpha 90.000000
_cell_angle_beta 90.000000
_cell_angle_gamma 90.000000
_cell_volume 5316.416565
_symmetry_space_group_name_H-M "C C C M"
_symmetry_group_IT_number 66
_symmetry_cell_setting 'orthorhombic'
loop_
_space_group_symop_operation_xyz
x,y,z
-x,-y,z
x,-y,1/2-z
-x,y,1/2-z
-x,-y,-z
x,y,-z
-x,y,1/2+z
x,-y,1/2+z
1/2+x,1/2+y,z
1/2-x,1/2-y,z
1/2+x,1/2-y,1/2-z
1/2-x,1/2+y,1/2-z
1/2-x,1/2-y,-z
1/2+x,1/2+y,-z
1/2-x,1/2+y,1/2+z
1/2+x,1/2-y,1/2+z
loop_
_atom_site_type_symbol
_atom_site_label
_atom_site_fract_x
_atom_site_fract_y
_atom_site_fract_z
Si Si1 0.637169 0.324041 0.668021
Si Si2 0.000000 0.000000 0.250000
Si Si3 0.204977 0.564298 0.161282
Si Si4 0.044353 0.135197 0.335608
Si Si5 0.705158 0.203548 0.667861
Si Si6 0.816167 0.062583 0.160987
O O1 0.632628 0.339284 0.500000
O O2 0.589856 0.341689 0.750594
O O3 0.658851 0.249410 0.681620
O O4 0.674444 0.372351 0.744000
O O5 0.966377 0.946220 0.330057
O O6 0.186458 0.500000 0.250000
O O7 0.199861 0.635399 0.242347
O O8 0.260820 0.553627 0.149411
O O9 0.186320 0.566800 0.000000
O O10 0.046327 0.155665 0.500000
O O11 0.000000 0.164220 0.250000
O O12 0.712179 0.187016 0.500000
O O13 0.750000 0.250000 0.710296
O O14 0.836439 0.000000 0.250000
O O15 0.835341 0.067893 0.000000
#
# Coordination Sequence:
#
# PCOD9496632 Si02
#       6
#    16   4  16  16  16  16
#     4  11  22  34  51  73 100 134 175 218 266 317
#     4   8  22  36  58  72  94 136 176 216 270 312
#     4  10  20  33  51  71  96 132 173 217 259 309
#     4  10  21  36  53  72  98 130 172 217 263 312
#     4  10  20  35  52  72 102 140 175 217 266 315
#     4  10  20  31  44  65  94 128 170 215 258 303
#
# _framework density 15.800115999999999
#
# number of rings (size 3 to 8) (size 9 to 14) (size 15 to 20)
#    0.571    1.333    1.905    2.571    1.333    3.429 
#    0.000    0.000    0.000    0.000    0.000    0.000 
#    0.000    0.762    0.000    8.000    0.000    3.429 
#
# Total GULP energy -233855.912839 kJ/mol
# GULP energy per Si atom -5567.997925 kJ/mol
# Density = 1.576415 g / cm^3
# Si number density = 15.800116 Si / 1000 Ang^3
#
#
#
# Elastic Constant Matrix: (Units=GPa)
#
#
# Indices 1 2 3 4 5 6 
#
# 1 41.7757 9.2590 27.3215 0.0000 0.0000 0.0000
# 2 9.2590 101.6664 75.2143 0.0000 0.0000 0.0000
# 3 27.3215 75.2143 154.5322 0.0000 0.0000 0.0000
# 4 0.0000 0.0000 0.0000 5.6538 0.0000 0.0000
# 5 0.0000 0.0000 0.0000 0.0000 -30.6931 0.0000
# 6 0.0000 0.0000 0.0000 0.0000 0.0000 14.4469
#
#
#
# Elastic Compliance Matrix: (Units=1/GPa)
#
#
# Indices 1 2 3 4 5 6 
#
# 1 0.027252 0.001692 -0.005642 0.000000 0.000000 0.000000
# 2 0.001692 0.015476 -0.007832 0.000000 0.000000 0.000000
# 3 -0.005642 -0.007832 0.011280 0.000000 0.000000 0.000000
# 4 0.000000 0.000000 0.000000 0.176871 0.000000 0.000000
# 5 0.000000 0.000000 0.000000 0.000000 -0.032581 0.000000
# 6 0.000000 0.000000 0.000000 0.000000 0.000000 0.069219
#
#
# Mechanical properties :
#
#
# Convention : Reuss Voigt Hill
#
# Bulk Modulus (GPa) = 32.84543 57.95155 45.39849
# Shear Modulus (GPa) = 16.59866 10.29350 13.44608
#
# Velocity S-wave (km/s) = 3.24472 2.55518 2.92037
# Velocity P-wave (km/s) = 5.90515 6.74261 6.33773
#
# Compressibility (1/GPa) = 0.03044563
#
# Stress axis : x y z
#
# Youngs Moduli (GPa) = 36.69442 64.61636 88.64901
#
# Poissons Ratio (x) = -0.10932 0.50013
# Poissons Ratio (y) = -0.06208 0.69427
# Poissons Ratio (z) = 0.20702 0.50605
#
# Static dielectric constant tensor:
#      x y z
#    x 1.550360 0.000000 0.000000 
#    y 0.000000 1.525480 0.000000 
#    z 0.000000 0.000000 1.551760 
# 
# From -- ./inp_files/10197.got.cif
#   From: 2010.05.17/outbox.cif.g08.bks.cpg/sg66_6_cif.got.tgz:10197.got - 2010.06.03 17:51:23.
