data_PCOD9496476
_publ_section_title
;
Structure prediction by ZEFSAII (Michael W. Deem and Ramdas Pophale) SiO2 
 PCOD9496476
Probable space group: C C C M
;
_chemical_formula_sum "Si O2"
_cell_formula_units_Z 120
_cell_length_a 24.019474
_cell_length_b 12.269665
_cell_length_c 21.654029
_cell_angle_alpha 90.000000
_cell_angle_beta 90.000000
_cell_angle_gamma 90.000000
_cell_volume 6381.678363
_symmetry_space_group_name_H-M "C C C M"
_symmetry_group_IT_number 66
_symmetry_cell_setting 'orthorhombic'
loop_
_space_group_symop_operation_xyz
x,y,z
-x,-y,z
x,-y,1/2-z
-x,y,1/2-z
-x,-y,-z
x,y,-z
-x,y,1/2+z
x,-y,1/2+z
1/2+x,1/2+y,z
1/2-x,1/2-y,z
1/2+x,1/2-y,1/2-z
1/2-x,1/2+y,1/2-z
1/2-x,1/2-y,-z
1/2+x,1/2+y,-z
1/2-x,1/2+y,1/2+z
1/2+x,1/2-y,1/2+z
loop_
_atom_site_type_symbol
_atom_site_label
_atom_site_fract_x
_atom_site_fract_y
_atom_site_fract_z
Si Si1 0.365709 0.500000 0.250000
Si Si2 0.449590 0.313175 0.702607
Si Si3 0.911423 0.134164 0.927314
Si Si4 0.784599 0.475892 0.433475
Si Si5 0.314276 0.782586 0.349606
Si Si6 0.336815 0.553744 0.385217
Si Si7 0.372144 0.126987 0.268596
Si Si8 0.311909 0.799283 0.109913
O O1 0.403234 0.398723 0.272659
O O2 0.332192 0.531147 0.311455
O O3 0.500000 0.329656 0.750000
O O4 0.454628 0.338544 0.628822
O O5 0.427969 0.189255 0.709996
O O6 0.858231 0.212883 0.912183
O O7 0.887963 0.012905 0.913440
O O8 0.927141 0.145268 0.000000
O O9 0.789184 0.423163 0.500000
O O10 0.812242 0.395766 0.385271
O O11 0.719653 0.486022 0.416773
O O12 0.810525 0.594839 0.432657
O O13 0.250000 0.750000 0.336194
O O14 0.339519 0.683898 0.389310
O O15 0.349284 0.805157 0.289141
O O16 0.329020 0.151520 0.323735
O O17 0.377230 0.000000 0.250000
O O18 0.250000 0.750000 0.111889
#
# Coordination Sequence:
#
# PCOD9496476 Si02
#       8
#     8  16  16  16  16  16  16  16
#     4  10  19  36  60  84 110 142 188 230 299 342
#     4  10  22  39  63  89 111 145 188 244 305 356
#     4  10  21  36  58  89 120 154 191 236 284 342
#     4  11  22  33  49  75 115 163 197 225 269 330
#     4  10  21  35  51  78 115 156 192 236 272 328
#     4  10  20  32  54  80 114 152 189 233 270 336
#     4  11  21  37  58  84 113 143 194 245 291 339
#     4  11  21  33  53  86 119 158 191 232 278 334
#
# _framework density 18.803830999999999
#
# number of rings (size 3 to 8) (size 9 to 14) (size 15 to 20)
#    0.000    1.600    4.000    1.400    0.000    5.867 
#    0.000    0.000    0.000    8.000    0.000    1.867 
#    0.000    0.000    0.000    0.000    0.000    0.000 
#
# Total GULP energy -334551.607741 kJ/mol
# GULP energy per Si atom -5575.860129 kJ/mol
# Density = 1.876103 g / cm^3
# Si number density = 18.803831 Si / 1000 Ang^3
#
#
#
# Elastic Constant Matrix: (Units=GPa)
#
#
# Indices 1 2 3 4 5 6 
#
# 1 27.6080 10.9240 19.8151 0.0000 0.0000 0.0000
# 2 10.9240 100.4120 -3.6793 0.0000 0.0000 0.0000
# 3 19.8151 -3.6793 100.3453 0.0000 0.0000 0.0000
# 4 0.0000 0.0000 0.0000 12.6746 0.0000 0.0000
# 5 0.0000 0.0000 0.0000 0.0000 -16.9135 0.0000
# 6 0.0000 0.0000 0.0000 0.0000 0.0000 9.4497
#
#
#
# Elastic Compliance Matrix: (Units=1/GPa)
#
#
# Indices 1 2 3 4 5 6 
#
# 1 0.044760 -0.005200 -0.009029 0.000000 0.000000 0.000000
# 2 -0.005200 0.010577 0.001415 0.000000 0.000000 0.000000
# 3 -0.009029 0.001415 0.011800 0.000000 0.000000 0.000000
# 4 0.000000 0.000000 0.000000 0.078898 0.000000 0.000000
# 5 0.000000 0.000000 0.000000 0.000000 -0.059124 0.000000
# 6 0.000000 0.000000 0.000000 0.000000 0.000000 0.105823
#
#
# Mechanical properties :
#
#
# Convention : Reuss Voigt Hill
#
# Bulk Modulus (GPa) = 24.09244 31.38722 27.73983
# Shear Modulus (GPa) = 21.53326 14.46253 17.99790
#
# Velocity S-wave (km/s) = 3.38768 2.77632 3.09712
# Velocity P-wave (km/s) = 5.30492 5.19668 5.25108
#
# Compressibility (1/GPa) = 0.04150680
#
# Stress axis : x y z
#
# Youngs Moduli (GPa) = 22.34147 94.54864 84.74221
#
# Poissons Ratio (x) = 0.49169 0.76517
# Poissons Ratio (y) = 0.11618 -0.11989
# Poissons Ratio (z) = 0.20173 -0.13376
#
# Static dielectric constant tensor:
#      x y z
#    x 1.653300 0.000000 0.000000 
#    y 0.000000 1.671270 0.000000 
#    z 0.000000 0.000000 1.697750 
# 
# From -- ./inp_files/53184.got.cif
#   From: 2010.05.17/outbox.cif.g08.bks.cpg/sg66_27_cif.got.tgz:53184.got - 2010.06.03 17:51:23.
