data_PCOD9496860
_publ_section_title
;
Structure prediction by ZEFSAII (Michael W. Deem and Ramdas Pophale) SiO2 
 PCOD9496860
Probable space group: C C C M
;
_chemical_formula_sum "Si O2"
_cell_formula_units_Z 80
_cell_length_a 29.132100
_cell_length_b 7.751453
_cell_length_c 18.394848
_cell_angle_alpha 90.000000
_cell_angle_beta 90.000000
_cell_angle_gamma 90.000000
_cell_volume 4153.852908
_symmetry_space_group_name_H-M "C C C M"
_symmetry_group_IT_number 66
_symmetry_cell_setting 'orthorhombic'
loop_
_space_group_symop_operation_xyz
x,y,z
-x,-y,z
x,-y,1/2-z
-x,y,1/2-z
-x,-y,-z
x,y,-z
-x,y,1/2+z
x,-y,1/2+z
1/2+x,1/2+y,z
1/2-x,1/2-y,z
1/2+x,1/2-y,1/2-z
1/2-x,1/2+y,1/2-z
1/2-x,1/2-y,-z
1/2+x,1/2+y,-z
1/2-x,1/2+y,1/2+z
1/2+x,1/2-y,1/2+z
loop_
_atom_site_type_symbol
_atom_site_label
_atom_site_fract_x
_atom_site_fract_y
_atom_site_fract_z
Si Si1 0.854228 0.896686 0.914292
Si Si2 0.284870 0.390272 0.685514
Si Si3 0.451449 0.399456 0.584084
Si Si4 0.547202 0.199267 0.776401
Si Si5 0.359234 0.807617 0.719110
O O1 0.853372 0.721062 0.866656
O O2 0.813670 0.008104 0.875655
O O3 0.904626 0.987586 0.906135
O O4 0.846332 0.873756 0.000000
O O5 0.259637 0.500000 0.750000
O O6 0.250000 0.250000 0.654061
O O7 0.322272 0.295404 0.735186
O O8 0.500000 0.500000 0.596782
O O9 0.452106 0.345102 0.500000
O O10 0.449010 0.237673 0.638575
O O11 0.500000 0.279832 0.750000
O O12 0.591684 0.274622 0.738452
O O13 0.546323 0.000000 0.750000
O O14 0.358683 0.000000 0.750000
#
# Coordination Sequence:
#
# PCOD9496860 Si02
#       5
#    16  16  16  16  16
#     4  10  21  37  57  86 120 152 195 249 298 351
#     4  10  20  36  61  86 114 151 197 243 290 352
#     4  10  20  35  57  84 117 157 197 244 304 358
#     4  10  20  34  53  84 116 152 199 245 289 349
#     4  10  20  36  57  83 114 153 196 237 292 349
#
# _framework density 19.259229000000001
#
# number of rings (size 3 to 8) (size 9 to 14) (size 15 to 20)
#    0.000    2.000    2.000    1.800    0.000    2.400 
#    0.000    7.000    0.000   20.400    0.000    0.000 
#    0.000    0.000    0.000    0.000    0.000    0.000 
#
# Total GULP energy -222720.242795 kJ/mol
# GULP energy per Si atom -5568.006070 kJ/mol
# Density = 1.921539 g / cm^3
# Si number density = 19.259229 Si / 1000 Ang^3
#
#
#
# Elastic Constant Matrix: (Units=GPa)
#
#
# Indices 1 2 3 4 5 6 
#
# 1 87.7314 18.6994 33.3656 0.0000 0.0000 0.0000
# 2 18.6994 74.4916 72.3373 0.0000 0.0000 0.0000
# 3 33.3656 72.3373 192.9860 0.0000 0.0000 0.0000
# 4 0.0000 0.0000 0.0000 29.0388 0.0000 0.0000
# 5 0.0000 0.0000 0.0000 0.0000 23.9656 0.0000
# 6 0.0000 0.0000 0.0000 0.0000 0.0000 -5.0458
#
#
#
# Elastic Compliance Matrix: (Units=1/GPa)
#
#
# Indices 1 2 3 4 5 6 
#
# 1 0.012322 -0.001611 -0.001527 0.000000 0.000000 0.000000
# 2 -0.001611 0.021318 -0.007712 0.000000 0.000000 0.000000
# 3 -0.001527 -0.007712 0.008336 0.000000 0.000000 0.000000
# 4 0.000000 0.000000 0.000000 0.034437 0.000000 0.000000
# 5 0.000000 0.000000 0.000000 0.000000 0.041726 0.000000
# 6 0.000000 0.000000 0.000000 0.000000 0.000000 -0.198186
#
#
# Mechanical properties :
#
#
# Convention : Reuss Voigt Hill
#
# Bulk Modulus (GPa) = 49.31565 67.11260 58.21412
# Shear Modulus (GPa) = -96.92114 24.97884 -35.97115
#
# Velocity S-wave (km/s) = -7.10167 3.60527 -4.32642
# Velocity P-wave (km/s) = 6.44850 7.22864 2.30977
#
# Compressibility (1/GPa) = 0.02027754
#
# Stress axis : x y z
#
# Youngs Moduli (GPa) = 81.15326 46.90935 119.95580
#
# Poissons Ratio (x) = 0.07556 0.18313
# Poissons Ratio (y) = 0.13071 0.92511
# Poissons Ratio (z) = 0.12390 0.36177
#
# Static dielectric constant tensor:
#      x y z
#    x 1.743370 0.000000 0.000000 
#    y 0.000000 1.694730 0.000000 
#    z 0.000000 0.000000 1.656650 
# 
# From -- ./inp_files/44127.got.cif
#   From: 2010.05.17/outbox.cif.g08.bks.cpg/sg66_23_cif.got.tgz:44127.got - 2010.06.03 17:51:23.
