data_PCOD9496708
_publ_section_title
;
Structure prediction by ZEFSAII (Michael W. Deem and Ramdas Pophale) SiO2 
 PCOD9496708
Probable space group: C C C M
;
_chemical_formula_sum "Si O2"
_cell_formula_units_Z 92
_cell_length_a 9.154298
_cell_length_b 26.603117
_cell_length_c 19.708918
_cell_angle_alpha 90.000000
_cell_angle_beta 90.000000
_cell_angle_gamma 90.000000
_cell_volume 4799.769183
_symmetry_space_group_name_H-M "C C C M"
_symmetry_group_IT_number 66
_symmetry_cell_setting 'orthorhombic'
loop_
_space_group_symop_operation_xyz
x,y,z
-x,-y,z
x,-y,1/2-z
-x,y,1/2-z
-x,-y,-z
x,y,-z
-x,y,1/2+z
x,-y,1/2+z
1/2+x,1/2+y,z
1/2-x,1/2-y,z
1/2+x,1/2-y,1/2-z
1/2-x,1/2+y,1/2-z
1/2-x,1/2-y,-z
1/2+x,1/2+y,-z
1/2-x,1/2+y,1/2+z
1/2+x,1/2-y,1/2+z
loop_
_atom_site_type_symbol
_atom_site_label
_atom_site_fract_x
_atom_site_fract_y
_atom_site_fract_z
Si Si1 0.875214 0.843703 0.000000
Si Si2 0.880882 0.917646 0.350424
Si Si3 0.000000 0.000000 0.250000
Si Si4 0.857802 0.358369 0.229819
Si Si5 0.946884 0.057108 0.000000
Si Si6 0.923408 0.249170 0.000000
Si Si7 0.575714 0.237612 0.146804
Si Si8 0.130773 0.167068 0.152104
O O1 0.809954 0.830618 0.074141
O O2 0.921655 0.901906 0.000000
O O3 0.021203 0.808501 0.000000
O O4 0.745063 0.886704 0.322771
O O5 0.865268 0.932966 0.428974
O O6 0.908362 0.964302 0.300337
O O7 0.021339 0.880581 0.345310
O O8 0.928865 0.311107 0.191734
O O9 0.754941 0.340785 0.291982
O O10 0.000000 0.390430 0.250000
O O11 0.000000 0.000000 0.000000
O O12 0.750000 0.250000 0.000000
O O13 0.971677 0.273591 0.930279
O O14 0.750000 0.250000 0.146975
O O15 0.470928 0.284050 0.167184
#
# Coordination Sequence:
#
# PCOD9496708 Si02
#       8
#     8  16   4  16   8   8  16  16
#     4   8  18  34  58  81 112 157 192 254 309 356
#     4  11  22  39  63  91 121 156 203 259 315 370
#     4  12  20  38  70  92 116 158 194 256 320 364
#     4  12  26  37  56  91 127 168 206 252 306 371
#     4  10  20  34  61  97 116 143 207 265 311 371
#     4   8  16  32  49  82 117 150 195 243 303 365
#     4  10  20  32  59  86 117 159 202 253 308 359
#     4  10  20  39  59  86 121 156 209 255 304 370
#
# _framework density 19.167589
#
# number of rings (size 3 to 8) (size 9 to 14) (size 15 to 20)
#    0.000    1.739    4.348    0.000    4.870    0.000 
#    0.000    2.174    0.000    3.130    0.000    3.652 
#    0.000    0.000    0.000    0.000    0.000    0.000 
#
# Total GULP energy -256537.378338 kJ/mol
# GULP energy per Si atom -5576.899529 kJ/mol
# Density = 1.912396 g / cm^3
# Si number density = 19.167589 Si / 1000 Ang^3
#
#
#
# Elastic Constant Matrix: (Units=GPa)
#
#
# Indices 1 2 3 4 5 6 
#
# 1 96.6853 35.6130 63.2473 0.0000 0.0000 0.0000
# 2 35.6130 96.3015 69.8260 0.0000 0.0000 0.0000
# 3 63.2473 69.8260 186.2948 0.0000 0.0000 0.0000
# 4 0.0000 0.0000 0.0000 32.4774 0.0000 0.0000
# 5 0.0000 0.0000 0.0000 0.0000 -8.1560 0.0000
# 6 0.0000 0.0000 0.0000 0.0000 0.0000 -6.2889
#
#
#
# Elastic Compliance Matrix: (Units=1/GPa)
#
#
# Indices 1 2 3 4 5 6 
#
# 1 0.013663 -0.002320 -0.003769 0.000000 0.000000 0.000000
# 2 -0.002320 0.014653 -0.004705 0.000000 0.000000 0.000000
# 3 -0.003769 -0.004705 0.008411 0.000000 0.000000 0.000000
# 4 0.000000 0.000000 0.000000 0.030791 0.000000 0.000000
# 5 0.000000 0.000000 0.000000 0.000000 -0.122609 0.000000
# 6 0.000000 0.000000 0.000000 0.000000 0.000000 -0.159009
#
#
# Mechanical properties :
#
#
# Convention : Reuss Voigt Hill
#
# Bulk Modulus (GPa) = 66.05084 79.62825 72.83954
# Shear Modulus (GPa) = -26.67132 17.64617 -4.51257
#
# Velocity S-wave (km/s) = -3.73430 3.03747 -1.53603
# Velocity P-wave (km/s) = 3.99263 7.34405 5.91084
#
# Compressibility (1/GPa) = 0.01513985
#
# Stress axis : x y z
#
# Youngs Moduli (GPa) = 73.19107 68.24467 118.89444
#
# Poissons Ratio (x) = 0.15831 0.44812
# Poissons Ratio (y) = 0.16979 0.55936
# Poissons Ratio (z) = 0.27586 0.32107
#
# Static dielectric constant tensor:
#      x y z
#    x 1.719040 0.000000 0.000000 
#    y 0.000000 1.667370 0.000000 
#    z 0.000000 0.000000 1.739840 
# 
# From -- ./inp_files/47380.got.cif
#   From: 2010.05.17/outbox.cif.g08.bks.cpg/sg66_24_cif.got.tgz:47380.got - 2010.06.03 17:51:23.
