data_PCOD9496885
_publ_section_title
;
Structure prediction by ZEFSAII (Michael W. Deem and Ramdas Pophale) SiO2 
 PCOD9496885
Probable space group: C C C M
;
_chemical_formula_sum "Si O2"
_cell_formula_units_Z 104
_cell_length_a 25.981872
_cell_length_b 21.885724
_cell_length_c 10.008426
_cell_angle_alpha 90.000000
_cell_angle_beta 90.000000
_cell_angle_gamma 90.000000
_cell_volume 5691.112090
_symmetry_space_group_name_H-M "C C C M"
_symmetry_group_IT_number 66
_symmetry_cell_setting 'orthorhombic'
loop_
_space_group_symop_operation_xyz
x,y,z
-x,-y,z
x,-y,1/2-z
-x,y,1/2-z
-x,-y,-z
x,y,-z
-x,y,1/2+z
x,-y,1/2+z
1/2+x,1/2+y,z
1/2-x,1/2-y,z
1/2+x,1/2-y,1/2-z
1/2-x,1/2+y,1/2-z
1/2-x,1/2-y,-z
1/2+x,1/2+y,-z
1/2-x,1/2+y,1/2+z
1/2+x,1/2-y,1/2+z
loop_
_atom_site_type_symbol
_atom_site_label
_atom_site_fract_x
_atom_site_fract_y
_atom_site_fract_z
Si Si1 0.948056 0.316658 0.339444
Si Si2 0.893856 0.052287 0.348048
Si Si3 0.276453 0.583609 0.355438
Si Si4 0.549584 0.676913 0.156713
Si Si5 0.689227 0.000000 0.750000
Si Si6 0.868794 0.618052 0.652099
Si Si7 0.759880 0.318020 0.154596
O O1 0.955065 0.328008 0.500000
O O2 0.929421 0.245914 0.325229
O O3 0.908242 0.361935 0.266977
O O4 0.000000 0.320638 0.250000
O O5 0.910435 0.039647 0.500000
O O6 0.831825 0.052309 0.345958
O O7 0.912451 0.120757 0.313723
O O8 0.913615 0.000000 0.250000
O O9 0.273812 0.614680 0.500000
O O10 0.229107 0.536586 0.344019
O O11 0.270177 0.632178 0.239125
O O12 0.500000 0.670792 0.250000
O O13 0.535046 0.672554 0.000000
O O14 0.654286 0.050589 0.821936
O O15 0.889791 0.621975 0.500000
O O16 0.819684 0.663138 0.660580
O O17 0.750000 0.250000 0.204684
O O18 0.743709 0.320814 0.000000
#
# Coordination Sequence:
#
# PCOD9496885 Si02
#       7
#    16  16  16  16   8  16  16
#     4  10  21  39  63  87 115 147 185 232 288 345
#     4  10  21  36  54  80 111 147 192 237 281 330
#     4  10  20  34  55  79 108 148 191 233 276 326
#     4   9  20  38  58  81 111 145 185 233 285 341
#     4  10  20  38  59  80 115 154 194 228 282 340
#     4  10  21  36  58  85 115 150 191 236 281 337
#     4   9  20  36  52  78 115 151 185 227 279 336
#
# _framework density 18.274108999999999
#
# number of rings (size 3 to 8) (size 9 to 14) (size 15 to 20)
#    0.000    2.308    0.769    0.923    2.154    6.154 
#    0.000    1.923    0.000    1.846    0.000    0.000 
#    0.000    0.000    0.000    0.000    0.000    0.000 
#
# Total GULP energy -289786.249604 kJ/mol
# GULP energy per Si atom -5572.812492 kJ/mol
# Density = 1.823252 g / cm^3
# Si number density = 18.274109 Si / 1000 Ang^3
#
#
#
# Elastic Constant Matrix: (Units=GPa)
#
#
# Indices 1 2 3 4 5 6 
#
# 1 34.3697 35.0159 30.4618 0.0000 0.0000 0.0000
# 2 35.0159 109.3265 49.2175 0.0000 0.0000 0.0000
# 3 30.4618 49.2175 90.2349 0.0000 0.0000 0.0000
# 4 0.0000 0.0000 0.0000 -14.8332 0.0000 0.0000
# 5 0.0000 0.0000 0.0000 0.0000 19.8736 0.0000
# 6 0.0000 0.0000 0.0000 0.0000 0.0000 13.2213
#
#
#
# Elastic Compliance Matrix: (Units=1/GPa)
#
#
# Indices 1 2 3 4 5 6 
#
# 1 0.050047 -0.011165 -0.010805 0.000000 0.000000 0.000000
# 2 -0.011165 0.014615 -0.004202 0.000000 0.000000 0.000000
# 3 -0.010805 -0.004202 0.017022 0.000000 0.000000 0.000000
# 4 0.000000 0.000000 0.000000 -0.067416 0.000000 0.000000
# 5 0.000000 0.000000 0.000000 0.000000 0.050318 0.000000
# 6 0.000000 0.000000 0.000000 0.000000 0.000000 0.075635
#
#
# Mechanical properties :
#
#
# Convention : Reuss Voigt Hill
#
# Bulk Modulus (GPa) = 34.08481 51.48019 42.78250
# Shear Modulus (GPa) = 24.71021 11.60140 18.15581
#
# Velocity S-wave (km/s) = 3.68121 2.52237 3.15544
# Velocity P-wave (km/s) = 6.06308 6.05932 6.06120
#
# Compressibility (1/GPa) = 0.02933858
#
# Stress axis : x y z
#
# Youngs Moduli (GPa) = 19.98120 68.42392 58.74771
#
# Poissons Ratio (x) = 0.76396 0.63478
# Poissons Ratio (y) = 0.22309 0.24688
# Poissons Ratio (z) = 0.21590 0.28754
#
# Static dielectric constant tensor:
#      x y z
#    x 1.615690 0.000000 0.000000 
#    y 0.000000 1.624750 0.000000 
#    z 0.000000 0.000000 1.626730 
# 
# From -- ./inp_files/10359.got.cif
#   From: 2010.05.17/outbox.cif.g08.bks.cpg/sg66_6_cif.got.tgz:10359.got - 2010.06.03 17:51:23.
