data_PCOD9496738
_publ_section_title
;
Structure prediction by ZEFSAII (Michael W. Deem and Ramdas Pophale) SiO2 
 PCOD9496738
Probable space group: C C C M
;
_chemical_formula_sum "Si O2"
_cell_formula_units_Z 80
_cell_length_a 4.930151
_cell_length_b 22.462602
_cell_length_c 36.604214
_cell_angle_alpha 90.000000
_cell_angle_beta 90.000000
_cell_angle_gamma 90.000000
_cell_volume 4053.697797
_symmetry_space_group_name_H-M "C C C M"
_symmetry_group_IT_number 66
_symmetry_cell_setting 'orthorhombic'
loop_
_space_group_symop_operation_xyz
x,y,z
-x,-y,z
x,-y,1/2-z
-x,y,1/2-z
-x,-y,-z
x,y,-z
-x,y,1/2+z
x,-y,1/2+z
1/2+x,1/2+y,z
1/2-x,1/2-y,z
1/2+x,1/2-y,1/2-z
1/2-x,1/2+y,1/2-z
1/2-x,1/2-y,-z
1/2+x,1/2+y,-z
1/2-x,1/2+y,1/2+z
1/2+x,1/2-y,1/2+z
loop_
_atom_site_type_symbol
_atom_site_label
_atom_site_fract_x
_atom_site_fract_y
_atom_site_fract_z
Si Si1 0.870959 0.436581 0.135139
Si Si2 0.993011 0.792855 0.458786
Si Si3 0.115551 0.133209 0.110765
Si Si4 0.560685 0.879155 0.291215
Si Si5 0.562674 0.692326 0.815792
O O1 0.578672 0.422658 0.118729
O O2 0.843837 0.426648 0.178867
O O3 0.000000 0.500000 0.127357
O O4 0.077148 0.386591 0.119005
O O5 0.931000 0.814909 0.500000
O O6 0.750000 0.750000 0.446473
O O7 0.250000 0.750000 0.460823
O O8 0.060485 0.842796 0.429387
O O9 0.027131 0.183676 0.140638
O O10 0.500000 0.897762 0.250000
O O11 0.265186 0.859785 0.304559
O O12 0.778415 0.823893 0.295669
O O13 0.750000 0.750000 0.807849
#
# Coordination Sequence:
#
# PCOD9496738 Si02
#       5
#    16  16  16  16  16
#     4  10  21  37  57  78 102 139 183 228 273 309
#     4  10  20  34  56  86 116 144 172 208 259 314
#     4  10  20  35  56  80 108 139 178 221 259 315
#     4  10  21  35  51  75 103 133 176 222 266 316
#     4  10  20  33  51  74 103 140 173 207 258 320
#
# _framework density 19.735066
#
# number of rings (size 3 to 8) (size 9 to 14) (size 15 to 20)
#    0.000    2.000    0.000    3.600    0.000    5.200 
#    0.000    0.000    0.000   12.000    0.000    0.000 
#    0.000    0.000    0.000    0.000    0.000    0.000 
#
# Total GULP energy -222944.845425 kJ/mol
# GULP energy per Si atom -5573.621136 kJ/mol
# Density = 1.969015 g / cm^3
# Si number density = 19.735066 Si / 1000 Ang^3
#
#
#
# Elastic Constant Matrix: (Units=GPa)
#
#
# Indices 1 2 3 4 5 6 
#
# 1 102.4306 -0.0717 -4.6307 0.0000 0.0000 0.0000
# 2 -0.0717 28.5121 16.7926 0.0000 0.0000 0.0000
# 3 -4.6307 16.7926 97.4740 0.0000 0.0000 0.0000
# 4 0.0000 0.0000 0.0000 3.8048 0.0000 0.0000
# 5 0.0000 0.0000 0.0000 0.0000 23.0584 0.0000
# 6 0.0000 0.0000 0.0000 0.0000 0.0000 25.0675
#
#
#
# Elastic Compliance Matrix: (Units=1/GPa)
#
#
# Indices 1 2 3 4 5 6 
#
# 1 0.009786 -0.000277 0.000513 0.000000 0.000000 0.000000
# 2 -0.000277 0.039041 -0.006739 0.000000 0.000000 0.000000
# 3 0.000513 -0.006739 0.011445 0.000000 0.000000 0.000000
# 4 0.000000 0.000000 0.000000 0.262823 0.000000 0.000000
# 5 0.000000 0.000000 0.000000 0.000000 0.043368 0.000000
# 6 0.000000 0.000000 0.000000 0.000000 0.000000 0.039892
#
#
# Mechanical properties :
#
#
# Convention : Reuss Voigt Hill
#
# Bulk Modulus (GPa) = 21.15783 28.06637 24.61210
# Shear Modulus (GPa) = 11.49116 24.80790 18.14953
#
# Velocity S-wave (km/s) = 2.41565 3.54933 3.03588
# Velocity P-wave (km/s) = 4.30403 5.57220 4.97866
#
# Compressibility (1/GPa) = 0.04726383
#
# Stress axis : x y z
#
# Youngs Moduli (GPa) = 102.19008 25.61394 87.37816
#
# Poissons Ratio (x) = 0.00710 -0.04480
# Poissons Ratio (y) = 0.02834 0.58885
# Poissons Ratio (z) = -0.05239 0.17262
#
# Static dielectric constant tensor:
#      x y z
#    x 1.680260 0.000000 0.000000 
#    y 0.000000 1.720930 0.000000 
#    z 0.000000 0.000000 1.748000 
# 
# From -- ./inp_files/67192.got.cif
#   From: 2010.05.17/outbox.cif.g08.bks.cpg/sg66_34_cif.got.tgz:67192.got - 2010.06.03 17:51:23.
