data_PCOD9496196
_publ_section_title
;
Structure prediction by ZEFSAII (Michael W. Deem and Ramdas Pophale) SiO2 
 PCOD9496196
Probable space group: C C C M
;
_chemical_formula_sum "Si O2"
_cell_formula_units_Z 116
_cell_length_a 25.566945
_cell_length_b 12.803665
_cell_length_c 14.640950
_cell_angle_alpha 90.000000
_cell_angle_beta 90.000000
_cell_angle_gamma 90.000000
_cell_volume 4792.723750
_symmetry_space_group_name_H-M "C C C M"
_symmetry_group_IT_number 66
_symmetry_cell_setting 'orthorhombic'
loop_
_space_group_symop_operation_xyz
x,y,z
-x,-y,z
x,-y,1/2-z
-x,y,1/2-z
-x,-y,-z
x,y,-z
-x,y,1/2+z
x,-y,1/2+z
1/2+x,1/2+y,z
1/2-x,1/2-y,z
1/2+x,1/2-y,1/2-z
1/2-x,1/2+y,1/2-z
1/2-x,1/2-y,-z
1/2+x,1/2+y,-z
1/2-x,1/2+y,1/2+z
1/2+x,1/2-y,1/2+z
loop_
_atom_site_type_symbol
_atom_site_label
_atom_site_fract_x
_atom_site_fract_y
_atom_site_fract_z
Si Si1 0.705185 0.836933 0.099094
Si Si2 0.500000 0.500000 0.750000
Si Si3 0.951100 0.851973 0.598997
Si Si4 0.132607 0.001612 0.641787
Si Si5 0.593325 0.277947 0.402325
Si Si6 0.556468 0.833085 0.722009
Si Si7 0.219129 0.128991 0.395092
Si Si8 0.820322 0.659960 0.299702
O O1 0.750000 0.750000 0.098739
O O2 0.649580 0.776243 0.098239
O O3 0.702654 0.878707 0.202456
O O4 0.708239 0.893464 0.000000
O O5 0.473224 0.422462 0.679257
O O6 0.974204 0.872060 0.500000
O O7 0.892290 0.894657 0.598842
O O8 0.954088 0.734115 0.631445
O O9 0.192770 0.015875 0.618303
O O10 0.127030 0.000000 0.750000
O O11 0.103631 0.901050 0.603862
O O12 0.568569 0.250422 0.500000
O O13 0.565395 0.240475 0.310788
O O14 0.500000 0.886235 0.750000
O O15 0.617425 0.869998 0.702558
O O16 0.211595 0.162903 0.500000
O O17 0.192717 0.214410 0.322649
O O18 0.280566 0.116257 0.374769
#
# Coordination Sequence:
#
# PCOD9496196 Si02
#       8
#    16   4  16  16  16  16  16  16
#     4   9  16  28  48  71  91 122 167 207 253 311
#     4  12  22  40  44  66  96 140 190 220 256 298
#     4  12  23  34  49  67  97 137 179 223 259 299
#     4  12  21  35  50  71 103 136 171 214 259 311
#     4  10  20  34  50  69  98 136 173 214 258 299
#     4  11  22  38  50  73 104 137 185 223 255 312
#     4  11  21  33  52  76 102 137 179 218 264 325
#     4  10  19  34  52  70  97 136 170 223 270 304
#
# _framework density 24.203354999999998
#
# number of rings (size 3 to 8) (size 9 to 14) (size 15 to 20)
#    0.000    1.241    5.517    3.103    0.000    1.103 
#    0.000    0.000    0.000    0.000    0.000    0.000 
#    0.000    0.552    0.000    1.241    0.276    0.000 
#
# Total GULP energy -323068.315372 kJ/mol
# GULP energy per Si atom -5570.143368 kJ/mol
# Density = 2.414827 g / cm^3
# Si number density = 24.203355 Si / 1000 Ang^3
#
#
#
# Elastic Constant Matrix: (Units=GPa)
#
#
# Indices 1 2 3 4 5 6 
#
# 1 141.1821 10.4761 28.6656 0.0000 0.0000 0.0000
# 2 10.4761 38.7305 19.2856 0.0000 0.0000 0.0000
# 3 28.6656 19.2856 187.7113 0.0000 0.0000 0.0000
# 4 0.0000 0.0000 0.0000 15.5920 0.0000 0.0000
# 5 0.0000 0.0000 0.0000 0.0000 -18.1783 0.0000
# 6 0.0000 0.0000 0.0000 0.0000 0.0000 4.5019
#
#
#
# Elastic Compliance Matrix: (Units=1/GPa)
#
#
# Indices 1 2 3 4 5 6 
#
# 1 0.007393 -0.001515 -0.000973 0.000000 0.000000 0.000000
# 2 -0.001515 0.027522 -0.002596 0.000000 0.000000 0.000000
# 3 -0.000973 -0.002596 0.005743 0.000000 0.000000 0.000000
# 4 0.000000 0.000000 0.000000 0.064135 0.000000 0.000000
# 5 0.000000 0.000000 0.000000 0.000000 -0.055011 0.000000
# 6 0.000000 0.000000 0.000000 0.000000 0.000000 0.222126
#
#
# Mechanical properties :
#
#
# Convention : Reuss Voigt Hill
#
# Bulk Modulus (GPa) = 32.79923 53.83092 43.31508
# Shear Modulus (GPa) = 17.10916 20.99625 19.05270
#
# Velocity S-wave (km/s) = 2.66163 2.94852 2.80874
# Velocity P-wave (km/s) = 4.79861 5.82074 5.33422
#
# Compressibility (1/GPa) = 0.03048852
#
# Stress axis : x y z
#
# Youngs Moduli (GPa) = 135.26122 36.33449 174.13376
#
# Poissons Ratio (x) = 0.05505 0.16949
# Poissons Ratio (y) = 0.20493 0.45210
# Poissons Ratio (z) = 0.13166 0.09433
#
# Static dielectric constant tensor:
#      x y z
#    x 2.144100 0.000000 0.000000 
#    y 0.000000 2.068270 0.000000 
#    z 0.000000 0.000000 1.932340 
# 
# From -- ./inp_files/33438.got.cif
#   From: 2010.05.17/outbox.cif.g08.bks.cpg/sg66_17_cif.got.tgz:33438.got - 2010.06.03 17:51:23.
