data_PCOD9496597
_publ_section_title
;
Structure prediction by ZEFSAII (Michael W. Deem and Ramdas Pophale) SiO2 
 PCOD9496597
Probable space group: C C C M
;
_chemical_formula_sum "Si O2"
_cell_formula_units_Z 64
_cell_length_a 14.711725
_cell_length_b 19.312529
_cell_length_c 10.401468
_cell_angle_alpha 90.000000
_cell_angle_beta 90.000000
_cell_angle_gamma 90.000000
_cell_volume 2955.271492
_symmetry_space_group_name_H-M "C C C M"
_symmetry_group_IT_number 66
_symmetry_cell_setting 'orthorhombic'
loop_
_space_group_symop_operation_xyz
x,y,z
-x,-y,z
x,-y,1/2-z
-x,y,1/2-z
-x,-y,-z
x,y,-z
-x,y,1/2+z
x,-y,1/2+z
1/2+x,1/2+y,z
1/2-x,1/2-y,z
1/2+x,1/2-y,1/2-z
1/2-x,1/2+y,1/2-z
1/2-x,1/2-y,-z
1/2+x,1/2+y,-z
1/2-x,1/2+y,1/2+z
1/2+x,1/2-y,1/2+z
loop_
_atom_site_type_symbol
_atom_site_label
_atom_site_fract_x
_atom_site_fract_y
_atom_site_fract_z
Si Si1 0.586075 0.625410 0.653390
Si Si2 0.604826 0.135982 0.000000
Si Si3 0.610440 0.777397 0.731450
Si Si4 0.710710 0.500000 0.250000
Si Si5 0.332189 0.017812 0.000000
Si Si6 0.396814 0.828852 0.500000
O O1 0.500000 0.622678 0.750000
O O2 0.564372 0.619268 0.500000
O O3 0.628747 0.701160 0.678152
O O4 0.649900 0.563439 0.699542
O O5 0.646214 0.165674 0.868832
O O6 0.506746 0.174031 0.000000
O O7 0.609800 0.053301 0.000000
O O8 0.500000 0.782951 0.750000
O O9 0.643971 0.793953 0.873757
O O10 0.772015 0.518996 0.128156
O O11 0.385496 0.088996 0.000000
#
# Coordination Sequence:
#
# PCOD9496597 Si02
#       6
#    16   8  16   8   8   8
#     4  11  24  44  71  97 123 161 209 263 321 382
#     4  10  19  39  66  93 124 169 217 264 312 368
#     4   9  19  36  65  97 124 154 208 274 319 364
#     4  12  27  44  61  92 136 170 210 260 313 382
#     4  12  25  42  61  90 134 180 214 258 313 370
#     4  10  21  39  64  97 128 165 219 264 310 368
#
# _framework density 21.656216000000001
#
# number of rings (size 3 to 8) (size 9 to 14) (size 15 to 20)
#    0.000    1.500    2.500    2.250    7.000    1.000 
#    0.000   12.500    0.000    0.000    0.000    0.000 
#    0.000    0.000    0.000    0.000    0.000    0.000 
#
# Total GULP energy -178711.961547 kJ/mol
# GULP energy per Si atom -5584.748798 kJ/mol
# Density = 2.160693 g / cm^3
# Si number density = 21.656216 Si / 1000 Ang^3
#
#
#
# Elastic Constant Matrix: (Units=GPa)
#
#
# Indices 1 2 3 4 5 6 
#
# 1 18.2931 -6.6133 25.9425 0.0000 0.0000 0.0000
# 2 -6.6133 74.2512 48.7569 0.0000 0.0000 0.0000
# 3 25.9425 48.7569 233.7361 0.0000 0.0000 0.0000
# 4 0.0000 0.0000 0.0000 42.1701 0.0000 0.0000
# 5 0.0000 0.0000 0.0000 0.0000 13.3920 0.0000
# 6 0.0000 0.0000 0.0000 0.0000 0.0000 -300.9557
#
#
#
# Elastic Compliance Matrix: (Units=1/GPa)
#
#
# Indices 1 2 3 4 5 6 
#
# 1 0.076004 0.014262 -0.011411 0.000000 0.000000 0.000000
# 2 0.014262 0.018282 -0.005396 0.000000 0.000000 0.000000
# 3 -0.011411 -0.005396 0.006671 0.000000 0.000000 0.000000
# 4 0.000000 0.000000 0.000000 0.023714 0.000000 0.000000
# 5 0.000000 0.000000 0.000000 0.000000 0.074671 0.000000
# 6 0.000000 0.000000 0.000000 0.000000 0.000000 -0.003323
#
#
# Mechanical properties :
#
#
# Convention : Reuss Voigt Hill
#
# Bulk Modulus (GPa) = 10.43126 51.38363 30.90745
# Shear Modulus (GPa) = 21.45342 -31.86577 -5.20617
#
# Velocity S-wave (km/s) = 3.15085 -3.84009 -1.55217
# Velocity P-wave (km/s) = 4.25022 2.02897 3.33025
#
# Compressibility (1/GPa) = 0.09586565
#
# Stress axis : x y z
#
# Youngs Moduli (GPa) = 13.15729 54.69957 149.91353
#
# Poissons Ratio (x) = -0.78014 1.71062
# Poissons Ratio (y) = -0.18765 0.80901
# Poissons Ratio (z) = 0.15013 0.29519
#
# Static dielectric constant tensor:
#      x y z
#    x 1.826910 0.000000 0.000000 
#    y 0.000000 1.749290 0.000000 
#    z 0.000000 0.000000 1.827810 
# 
# From -- ./inp_files/6219.got.cif
#   From: 2010.05.17/outbox.cif.g08.bks.cpg/sg66_4_cif.got.tgz:6219.got - 2010.06.03 17:51:23.
