data_PCOD9496679
_publ_section_title
;
Structure prediction by ZEFSAII (Michael W. Deem and Ramdas Pophale) SiO2 
 PCOD9496679
Probable space group: C C C M
;
_chemical_formula_sum "Si O2"
_cell_formula_units_Z 80
_cell_length_a 19.639774
_cell_length_b 26.707508
_cell_length_c 8.835689
_cell_angle_alpha 90.000000
_cell_angle_beta 90.000000
_cell_angle_gamma 90.000000
_cell_volume 4634.578837
_symmetry_space_group_name_H-M "C C C M"
_symmetry_group_IT_number 66
_symmetry_cell_setting 'orthorhombic'
loop_
_space_group_symop_operation_xyz
x,y,z
-x,-y,z
x,-y,1/2-z
-x,y,1/2-z
-x,-y,-z
x,y,-z
-x,y,1/2+z
x,-y,1/2+z
1/2+x,1/2+y,z
1/2-x,1/2-y,z
1/2+x,1/2-y,1/2-z
1/2-x,1/2+y,1/2-z
1/2-x,1/2-y,-z
1/2+x,1/2+y,-z
1/2-x,1/2+y,1/2+z
1/2+x,1/2-y,1/2+z
loop_
_atom_site_type_symbol
_atom_site_label
_atom_site_fract_x
_atom_site_fract_y
_atom_site_fract_z
Si Si1 0.075026 0.446799 0.817717
Si Si2 0.332727 0.246909 0.325473
Si Si3 0.425040 0.552942 0.817931
Si Si4 0.675516 0.856572 0.819753
Si Si5 0.825588 0.856344 0.317164
O O1 0.098635 0.500000 0.750000
O O2 0.125518 0.401729 0.776527
O O3 0.000000 0.437684 0.750000
O O4 0.070866 0.450334 0.000000
O O5 0.353925 0.240709 0.500000
O O6 0.250000 0.250000 0.323424
O O7 0.351822 0.197523 0.234120
O O8 0.354003 0.301798 0.267922
O O9 0.400860 0.500000 0.750000
O O10 0.500000 0.561809 0.750000
O O11 0.374847 0.598148 0.777273
O O12 0.429305 0.549330 0.000000
O O13 0.750199 0.863586 0.748275
O O14 0.682209 0.856191 0.000000
O O15 0.819982 0.853863 0.500000
#
# Coordination Sequence:
#
# PCOD9496679 Si02
#       5
#    16  16  16  16  16
#     4  10  21  36  53  73  98 130 166 202 245 294
#     4   8  15  30  50  71  98 132 164 195 240 293
#     4  10  20  35  53  73  99 131 167 204 246 294
#     4  10  20  32  50  78 104 126 160 205 247 288
#     4   9  19  34  52  74 100 132 167 201 241 292
#
# _framework density 17.261545999999999
#
# number of rings (size 3 to 8) (size 9 to 14) (size 15 to 20)
#    0.000    2.600    0.000    4.200    0.000    9.200 
#    0.000    5.000    0.000    4.800    0.000    0.000 
#    0.000    0.000    0.000    0.000    0.000    0.000 
#
# Total GULP energy -222994.806780 kJ/mol
# GULP energy per Si atom -5574.870170 kJ/mol
# Density = 1.722226 g / cm^3
# Si number density = 17.261546 Si / 1000 Ang^3
#
#
#
# Elastic Constant Matrix: (Units=GPa)
#
#
# Indices 1 2 3 4 5 6 
#
# 1 55.7767 89.8467 29.9325 0.0000 0.0000 0.0000
# 2 89.8467 210.5667 58.0214 0.0000 0.0000 0.0000
# 3 29.9325 58.0214 43.1845 0.0000 0.0000 0.0000
# 4 0.0000 0.0000 0.0000 46.4683 0.0000 0.0000
# 5 0.0000 0.0000 0.0000 0.0000 -10.9021 0.0000
# 6 0.0000 0.0000 0.0000 0.0000 0.0000 -26.2557
#
#
#
# Elastic Compliance Matrix: (Units=1/GPa)
#
#
# Indices 1 2 3 4 5 6 
#
# 1 0.060771 -0.022744 -0.011564 0.000000 0.000000 0.000000
# 2 -0.022744 0.016053 -0.005804 0.000000 0.000000 0.000000
# 3 -0.011564 -0.005804 0.038970 0.000000 0.000000 0.000000
# 4 0.000000 0.000000 0.000000 0.021520 0.000000 0.000000
# 5 0.000000 0.000000 0.000000 0.000000 -0.091726 0.000000
# 6 0.000000 0.000000 0.000000 0.000000 0.000000 -0.038087
#
#
# Mechanical properties :
#
#
# Convention : Reuss Voigt Hill
#
# Bulk Modulus (GPa) = 28.11365 73.90322 51.00844
# Shear Modulus (GPa) = 50.21036 10.64393 30.42714
#
# Velocity S-wave (km/s) = 5.39918 2.48589 4.20302
# Velocity P-wave (km/s) = 7.42902 7.15166 7.29166
#
# Compressibility (1/GPa) = 0.03556991
#
# Stress axis : x y z
#
# Youngs Moduli (GPa) = 16.45522 62.29415 25.66104
#
# Poissons Ratio (x) = 1.41681 0.29675
# Poissons Ratio (y) = 0.37426 0.14893
# Poissons Ratio (z) = 0.19029 0.36154
#
# Static dielectric constant tensor:
#      x y z
#    x 1.553900 0.000000 0.000000 
#    y 0.000000 1.613470 0.000000 
#    z 0.000000 0.000000 1.582010 
# 
# From -- ./inp_files/6924.got.cif
#   From: 2010.05.17/outbox.cif.g08.bks.cpg/sg66_4_cif.got.tgz:6924.got - 2010.06.03 17:51:23.
