data_PCOD9496415
_publ_section_title
;
Structure prediction by ZEFSAII (Michael W. Deem and Ramdas Pophale) SiO2 
 PCOD9496415
Probable space group: C C C M
;
_chemical_formula_sum "Si O2"
_cell_formula_units_Z 64
_cell_length_a 14.856863
_cell_length_b 8.695800
_cell_length_c 25.165539
_cell_angle_alpha 90.000000
_cell_angle_beta 90.000000
_cell_angle_gamma 90.000000
_cell_volume 3251.194098
_symmetry_space_group_name_H-M "C C C M"
_symmetry_group_IT_number 66
_symmetry_cell_setting 'orthorhombic'
loop_
_space_group_symop_operation_xyz
x,y,z
-x,-y,z
x,-y,1/2-z
-x,y,1/2-z
-x,-y,-z
x,y,-z
-x,y,1/2+z
x,-y,1/2+z
1/2+x,1/2+y,z
1/2-x,1/2-y,z
1/2+x,1/2-y,1/2-z
1/2-x,1/2+y,1/2-z
1/2-x,1/2-y,-z
1/2+x,1/2+y,-z
1/2-x,1/2+y,1/2+z
1/2+x,1/2-y,1/2+z
loop_
_atom_site_type_symbol
_atom_site_label
_atom_site_fract_x
_atom_site_fract_y
_atom_site_fract_z
Si Si1 0.101157 0.433977 0.382827
Si Si2 0.600998 0.436043 0.110493
Si Si3 0.402503 0.931933 0.000000
Si Si4 0.255949 0.433127 0.190919
Si Si5 0.666596 0.625784 0.500000
O O1 0.100163 0.248430 0.380248
O O2 0.136804 0.475110 0.442593
O O3 0.168794 0.500258 0.339599
O O4 0.000000 0.500000 0.377160
O O5 0.500000 0.500000 0.107259
O O6 0.657313 0.514350 0.157246
O O7 0.653625 0.462851 0.054662
O O8 0.415024 0.748204 0.000000
O O9 0.500000 0.000000 0.000000
O O10 0.260217 0.500000 0.250000
O O11 0.250000 0.250000 0.192686
O O12 0.750000 0.750000 0.500000
#
# Coordination Sequence:
#
# PCOD9496415 Si02
#       5
#    16  16   8  16   8
#     4  10  20  39  64  93 126 163 202 252 310 370
#     4  11  22  39  63  94 128 165 206 252 305 369
#     4   8  16  31  57  88 122 156 190 233 293 358
#     4  12  26  44  63  87 118 161 212 263 314 371
#     4  10  19  35  61  92 128 168 202 245 305 366
#
# _framework density 19.685075999999999
#
# number of rings (size 3 to 8) (size 9 to 14) (size 15 to 20)
#    0.000    1.500    0.000    7.125    0.000    1.000 
#    0.000   10.000    0.000    0.000    0.000    0.000 
#    0.000    0.000    0.000    0.000    0.000    0.000 
#
# Total GULP energy -178586.262662 kJ/mol
# GULP energy per Si atom -5580.820708 kJ/mol
# Density = 1.964027 g / cm^3
# Si number density = 19.685076 Si / 1000 Ang^3
#
#
#
# Elastic Constant Matrix: (Units=GPa)
#
#
# Indices 1 2 3 4 5 6 
#
# 1 152.4810 56.5750 91.2225 0.0000 0.0000 0.0000
# 2 56.5750 127.8907 69.2596 0.0000 0.0000 0.0000
# 3 91.2225 69.2596 219.6279 0.0000 0.0000 0.0000
# 4 0.0000 0.0000 0.0000 24.4202 0.0000 0.0000
# 5 0.0000 0.0000 0.0000 0.0000 -85.6576 0.0000
# 6 0.0000 0.0000 0.0000 0.0000 0.0000 39.5071
#
#
#
# Elastic Compliance Matrix: (Units=1/GPa)
#
#
# Indices 1 2 3 4 5 6 
#
# 1 0.009320 -0.002444 -0.003100 0.000000 0.000000 0.000000
# 2 -0.002444 0.010070 -0.002161 0.000000 0.000000 0.000000
# 3 -0.003100 -0.002161 0.006522 0.000000 0.000000 0.000000
# 4 0.000000 0.000000 0.000000 0.040950 0.000000 0.000000
# 5 0.000000 0.000000 0.000000 0.000000 -0.011674 0.000000
# 6 0.000000 0.000000 0.000000 0.000000 0.000000 0.025312
#
#
# Mechanical properties :
#
#
# Convention : Reuss Voigt Hill
#
# Bulk Modulus (GPa) = 95.21266 103.79040 99.50153
# Shear Modulus (GPa) = 50.29684 14.51678 32.40681
#
# Velocity S-wave (km/s) = 5.06026 2.71855 4.06182
# Velocity P-wave (km/s) = 9.08926 7.91795 8.52375
#
# Compressibility (1/GPa) = 0.01050280
#
# Stress axis : x y z
#
# Youngs Moduli (GPa) = 107.29997 99.30151 153.32193
#
# Poissons Ratio (x) = 0.24267 0.47534
# Poissons Ratio (y) = 0.26222 0.33128
# Poissons Ratio (z) = 0.33266 0.21456
#
# Static dielectric constant tensor:
#      x y z
#    x 1.735230 0.000000 0.000000 
#    y 0.000000 1.687290 0.000000 
#    z 0.000000 0.000000 1.721870 
# 
# From -- ./inp_files/57713.got.cif
#   From: 2010.05.17/outbox.cif.g08.bks.cpg/sg66_29_cif.got.tgz:57713.got - 2010.06.03 17:51:23.
