data_PCOD9496582
_publ_section_title
;
Structure prediction by ZEFSAII (Michael W. Deem and Ramdas Pophale) SiO2 
 PCOD9496582
Probable space group: C C C M
;
_chemical_formula_sum "Si O2"
_cell_formula_units_Z 116
_cell_length_a 29.583915
_cell_length_b 9.034829
_cell_length_c 22.566704
_cell_angle_alpha 90.000000
_cell_angle_beta 90.000000
_cell_angle_gamma 90.000000
_cell_volume 6031.755316
_symmetry_space_group_name_H-M "C C C M"
_symmetry_group_IT_number 66
_symmetry_cell_setting 'orthorhombic'
loop_
_space_group_symop_operation_xyz
x,y,z
-x,-y,z
x,-y,1/2-z
-x,y,1/2-z
-x,-y,-z
x,y,-z
-x,y,1/2+z
x,-y,1/2+z
1/2+x,1/2+y,z
1/2-x,1/2-y,z
1/2+x,1/2-y,1/2-z
1/2-x,1/2+y,1/2-z
1/2-x,1/2-y,-z
1/2+x,1/2+y,-z
1/2-x,1/2+y,1/2+z
1/2+x,1/2-y,1/2+z
loop_
_atom_site_type_symbol
_atom_site_label
_atom_site_fract_x
_atom_site_fract_y
_atom_site_fract_z
Si Si1 0.706341 0.345587 0.818739
Si Si2 0.347730 0.834329 0.726622
Si Si3 0.813413 0.334639 0.068092
Si Si4 0.765076 0.594750 0.859876
Si Si5 0.000000 0.500000 0.250000
Si Si6 0.436178 0.159713 0.158006
Si Si7 0.002862 0.175744 0.932813
Si Si8 0.920183 0.393356 0.067452
O O1 0.750000 0.250000 0.799145
O O2 0.666141 0.282930 0.777698
O O3 0.697172 0.296217 0.886305
O O4 0.724112 0.513272 0.824286
O O5 0.303945 0.864644 0.686726
O O6 0.389654 0.784302 0.686587
O O7 0.360134 0.000000 0.750000
O O8 0.787481 0.477576 0.094938
O O9 0.867437 0.354082 0.070226
O O10 0.800601 0.308959 0.000000
O O11 0.750000 0.750000 0.887704
O O12 0.968836 0.603325 0.209636
O O13 0.461741 0.273817 0.116130
O O14 0.427938 0.018523 0.115842
O O15 0.954936 0.258347 0.921854
O O16 0.016787 0.218423 0.000000
O O17 0.000000 0.000000 0.931245
O O18 0.929355 0.445838 0.000000
#
# Coordination Sequence:
#
# PCOD9496582 Si02
#       8
#    16  16  16  16   4  16  16  16
#     4  10  21  38  63  86 115 162 211 252 303 379
#     4  12  21  37  63  92 121 157 209 259 306 364
#     4  10  21  39  62  90 123 160 204 261 317 371
#     4  11  24  39  63  89 122 160 209 261 310 376
#     4  12  24  32  64  92 128 168 202 250 304 368
#     4  12  22  38  64  94 128 162 207 257 310 368
#     4  10  22  42  69  95 126 166 210 258 312 378
#     4  10  19  38  67  94 121 161 214 256 301 370
#
# _framework density 19.231549000000001
#
# number of rings (size 3 to 8) (size 9 to 14) (size 15 to 20)
#    0.000    1.241    6.207    0.828    0.000    3.862 
#    2.483    0.345    6.069    0.000    0.000    0.000 
#    0.000    0.000    0.000    0.000    0.000    0.000 
#
# Total GULP energy -323828.789784 kJ/mol
# GULP energy per Si atom -5583.254996 kJ/mol
# Density = 1.918778 g / cm^3
# Si number density = 19.231549 Si / 1000 Ang^3
#
#
#
# Elastic Constant Matrix: (Units=GPa)
#
#
# Indices 1 2 3 4 5 6 
#
# 1 104.8164 58.2973 72.3115 0.0000 0.0000 0.0000
# 2 58.2973 83.3284 40.0306 0.0000 0.0000 0.0000
# 3 72.3115 40.0306 130.3182 0.0000 0.0000 0.0000
# 4 0.0000 0.0000 0.0000 27.0510 0.0000 0.0000
# 5 0.0000 0.0000 0.0000 0.0000 46.3529 0.0000
# 6 0.0000 0.0000 0.0000 0.0000 0.0000 18.1810
#
#
#
# Elastic Compliance Matrix: (Units=1/GPa)
#
#
# Indices 1 2 3 4 5 6 
#
# 1 0.021570 -0.010958 -0.008603 0.000000 0.000000 0.000000
# 2 -0.010958 0.019645 0.000046 0.000000 0.000000 0.000000
# 3 -0.008603 0.000046 0.012433 0.000000 0.000000 0.000000
# 4 0.000000 0.000000 0.000000 0.036967 0.000000 0.000000
# 5 0.000000 0.000000 0.000000 0.000000 0.021574 0.000000
# 6 0.000000 0.000000 0.000000 0.000000 0.000000 0.055003
#
#
# Mechanical properties :
#
#
# Convention : Reuss Voigt Hill
#
# Bulk Modulus (GPa) = 68.40742 73.30465 70.85603
# Shear Modulus (GPa) = 23.68613 28.17189 25.92901
#
# Velocity S-wave (km/s) = 3.51326 3.83153 3.67584
# Velocity P-wave (km/s) = 7.21838 7.60090 7.41211
#
# Compressibility (1/GPa) = 0.01461830
#
# Stress axis : x y z
#
# Youngs Moduli (GPa) = 46.36036 50.90388 80.43068
#
# Poissons Ratio (x) = 0.55780 0.69194
# Poissons Ratio (y) = 0.50801 -0.00369
# Poissons Ratio (z) = 0.39884 -0.00234
#
# Static dielectric constant tensor:
#      x y z
#    x 1.690920 0.000000 0.000000 
#    y 0.000000 1.704930 0.000000 
#    z 0.000000 0.000000 1.687580 
# 
# From -- ./inp_files/60529.got.cif
#   From: 2010.05.17/outbox.cif.g08.bks.cpg/sg66_31_cif.got.tgz:60529.got - 2010.06.03 17:51:23.
