data_PCOD9496780
_publ_section_title
;
Structure prediction by ZEFSAII (Michael W. Deem and Ramdas Pophale) SiO2 
 PCOD9496780
Probable space group: C C C M
;
_chemical_formula_sum "Si O2"
_cell_formula_units_Z 116
_cell_length_a 22.921630
_cell_length_b 29.188856
_cell_length_c 8.966241
_cell_angle_alpha 90.000000
_cell_angle_beta 90.000000
_cell_angle_gamma 90.000000
_cell_volume 5998.918749
_symmetry_space_group_name_H-M "C C C M"
_symmetry_group_IT_number 66
_symmetry_cell_setting 'orthorhombic'
loop_
_space_group_symop_operation_xyz
x,y,z
-x,-y,z
x,-y,1/2-z
-x,y,1/2-z
-x,-y,-z
x,y,-z
-x,y,1/2+z
x,-y,1/2+z
1/2+x,1/2+y,z
1/2-x,1/2-y,z
1/2+x,1/2-y,1/2-z
1/2-x,1/2+y,1/2-z
1/2-x,1/2-y,-z
1/2+x,1/2+y,-z
1/2-x,1/2+y,1/2+z
1/2+x,1/2-y,1/2+z
loop_
_atom_site_type_symbol
_atom_site_label
_atom_site_fract_x
_atom_site_fract_y
_atom_site_fract_z
Si Si1 0.360567 0.858641 0.321927
Si Si2 0.000000 0.500000 0.750000
Si Si3 0.815532 0.951120 0.178762
Si Si4 0.059997 0.906475 0.323375
Si Si5 0.884770 0.818893 0.322977
Si Si6 0.884434 0.544777 0.331462
Si Si7 0.739106 0.362154 0.821900
Si Si8 0.063347 0.720447 0.821065
O O1 0.362498 0.857848 0.500000
O O2 0.373826 0.909680 0.261821
O O3 0.296877 0.845585 0.260034
O O4 0.405920 0.823254 0.251401
O O5 0.046167 0.532346 0.834744
O O6 0.883224 0.937424 0.209626
O O7 0.777107 0.911902 0.256191
O O8 0.803051 0.000000 0.250000
O O9 0.806917 0.950815 0.000000
O O10 0.052565 0.904673 0.500000
O O11 0.076139 0.855946 0.262883
O O12 0.000000 0.922668 0.250000
O O13 0.894207 0.826111 0.500000
O O14 0.817358 0.830723 0.291689
O O15 0.901141 0.766969 0.287701
O O16 0.858069 0.500000 0.250000
O O17 0.863015 0.549961 0.500000
O O18 0.748023 0.364282 0.000000
O O19 0.000000 0.725765 0.750000
O O20 0.060056 0.715162 0.000000
#
# Coordination Sequence:
#
# PCOD9496780 Si02
#       8
#    16   4  16  16  16  16  16  16
#     4  12  26  42  61  89 123 159 199 244 295 349
#     4   8  22  36  66  88 118 152 198 236 292 344
#     4  10  21  37  57  84 116 154 197 245 299 351
#     4  10  20  33  54  83 118 156 197 244 294 353
#     4   9  20  39  64  89 116 154 198 243 294 353
#     4  10  21  38  61  88 119 155 197 242 292 349
#     4  10  21  41  65  88 116 153 198 246 296 352
#     4  11  24  42  63  91 124 157 194 239 294 351
#
# _framework density 19.336818000000001
#
# number of rings (size 3 to 8) (size 9 to 14) (size 15 to 20)
#    0.414    1.379    0.000    3.931    0.966    5.793 
#    0.000    6.897    0.000    0.000    0.000    0.000 
#    0.000    0.000    0.000    0.000    0.000    0.000 
#
# Total GULP energy -323981.191724 kJ/mol
# GULP energy per Si atom -5585.882616 kJ/mol
# Density = 1.929281 g / cm^3
# Si number density = 19.336818 Si / 1000 Ang^3
#
#
#
# Elastic Constant Matrix: (Units=GPa)
#
#
# Indices 1 2 3 4 5 6 
#
# 1 66.0306 35.7485 36.2043 0.0000 0.0000 0.0000
# 2 35.7485 120.1090 56.5380 0.0000 0.0000 0.0000
# 3 36.2043 56.5380 105.7558 0.0000 0.0000 0.0000
# 4 0.0000 0.0000 0.0000 27.2519 0.0000 0.0000
# 5 0.0000 0.0000 0.0000 0.0000 32.9398 0.0000
# 6 0.0000 0.0000 0.0000 0.0000 0.0000 13.6218
#
#
#
# Elastic Compliance Matrix: (Units=1/GPa)
#
#
# Indices 1 2 3 4 5 6 
#
# 1 0.019745 -0.003601 -0.004834 0.000000 0.000000 0.000000
# 2 -0.003601 0.011782 -0.005066 0.000000 0.000000 0.000000
# 3 -0.004834 -0.005066 0.013819 0.000000 0.000000 0.000000
# 4 0.000000 0.000000 0.000000 0.036695 0.000000 0.000000
# 5 0.000000 0.000000 0.000000 0.000000 0.030358 0.000000
# 6 0.000000 0.000000 0.000000 0.000000 0.000000 0.073412
#
#
# Mechanical properties :
#
#
# Convention : Reuss Voigt Hill
#
# Bulk Modulus (GPa) = 54.51609 60.98632 57.75121
# Shear Modulus (GPa) = 22.83852 25.65633 24.24743
#
# Velocity S-wave (km/s) = 3.44043 3.64650 3.54496
# Velocity P-wave (km/s) = 6.63597 7.02401 6.83275
#
# Compressibility (1/GPa) = 0.01834321
#
# Stress axis : x y z
#
# Youngs Moduli (GPa) = 50.64661 84.87291 72.36376
#
# Poissons Ratio (x) = 0.30564 0.34982
# Poissons Ratio (y) = 0.18238 0.36660
# Poissons Ratio (z) = 0.24483 0.42998
#
# Static dielectric constant tensor:
#      x y z
#    x 1.694640 0.000000 0.000000 
#    y 0.000000 1.645590 0.000000 
#    z 0.000000 0.000000 1.646160 
# 
# From -- ./inp_files/9463.got.cif
#   From: 2010.05.17/outbox.cif.g08.bks.cpg/sg66_5_cif.got.tgz:9463.got - 2010.06.03 17:51:23.
