data_PCOD9496116
_publ_section_title
;
Structure prediction by ZEFSAII (Michael W. Deem and Ramdas Pophale) SiO2 
 PCOD9496116
Probable space group: C C C M
;
_chemical_formula_sum "Si O2"
_cell_formula_units_Z 88
_cell_length_a 31.959108
_cell_length_b 14.178557
_cell_length_c 8.846989
_cell_angle_alpha 90.000000
_cell_angle_beta 90.000000
_cell_angle_gamma 90.000000
_cell_volume 4008.871818
_symmetry_space_group_name_H-M "C C C M"
_symmetry_group_IT_number 66
_symmetry_cell_setting 'orthorhombic'
loop_
_space_group_symop_operation_xyz
x,y,z
-x,-y,z
x,-y,1/2-z
-x,y,1/2-z
-x,-y,-z
x,y,-z
-x,y,1/2+z
x,-y,1/2+z
1/2+x,1/2+y,z
1/2-x,1/2-y,z
1/2+x,1/2-y,1/2-z
1/2-x,1/2+y,1/2-z
1/2-x,1/2-y,-z
1/2+x,1/2+y,-z
1/2-x,1/2+y,1/2+z
1/2+x,1/2-y,1/2+z
loop_
_atom_site_type_symbol
_atom_site_label
_atom_site_fract_x
_atom_site_fract_y
_atom_site_fract_z
Si Si1 0.132663 0.356357 0.680596
Si Si2 0.118530 0.865656 0.157666
Si Si3 0.688560 0.500000 0.250000
Si Si4 0.041105 0.136496 0.835038
Si Si5 0.180511 0.328923 0.000000
Si Si6 0.955666 0.633782 0.824429
Si Si7 0.220726 0.867590 0.500000
O O1 0.142670 0.385576 0.500000
O O2 0.131755 0.242785 0.673455
O O3 0.159952 0.369260 0.840881
O O4 0.085677 0.390230 0.725883
O O5 0.158339 0.931059 0.158857
O O6 0.086377 0.894942 0.283657
O O7 0.094350 0.871758 0.000000
O O8 0.714598 0.432405 0.355217
O O9 0.043565 0.251412 0.828265
O O10 0.000000 0.108205 0.750000
O O11 0.034813 0.102231 0.000000
O O12 0.183708 0.212855 0.000000
O O13 0.230473 0.342380 0.000000
O O14 0.000000 0.605412 0.750000
O O15 0.952203 0.602420 0.000000
#
# Coordination Sequence:
#
# PCOD9496116 Si02
#       7
#    16  16   8  16   8  16   8
#     4  10  19  33  55  82 116 156 201 246 296 353
#     4  10  20  31  51  75 103 142 192 238 292 344
#     4  12  22  40  59  82 108 144 183 248 296 364
#     4   9  17  27  43  65  99 141 188 244 290 328
#     4  11  22  44  62  92 117 159 196 255 307 369
#     4   9  15  24  42  72 112 156 200 241 287 339
#     4  11  26  42  66  87 118 146 201 251 317 366
#
# _framework density 21.951315000000001
#
# number of rings (size 3 to 8) (size 9 to 14) (size 15 to 20)
#    0.000    2.000    3.636    1.091    2.545    4.364 
#    1.636    1.364    0.000    2.182    0.000    0.000 
#    0.000    0.000    0.000    2.455    0.364    0.000 
#
# Total GULP energy -244964.606865 kJ/mol
# GULP energy per Si atom -5567.377429 kJ/mol
# Density = 2.190135 g / cm^3
# Si number density = 21.951315 Si / 1000 Ang^3
#
#
#
# Elastic Constant Matrix: (Units=GPa)
#
#
# Indices 1 2 3 4 5 6 
#
# 1 103.1478 -0.6331 57.9337 0.0000 0.0000 0.0000
# 2 -0.6331 46.4381 3.8838 0.0000 0.0000 0.0000
# 3 57.9337 3.8838 171.3566 0.0000 0.0000 0.0000
# 4 0.0000 0.0000 0.0000 30.1548 0.0000 0.0000
# 5 0.0000 0.0000 0.0000 0.0000 22.0238 0.0000
# 6 0.0000 0.0000 0.0000 0.0000 0.0000 -6.7114
#
#
#
# Elastic Compliance Matrix: (Units=1/GPa)
#
#
# Indices 1 2 3 4 5 6 
#
# 1 0.011979 0.000503 -0.004061 0.000000 0.000000 0.000000
# 2 0.000503 0.021596 -0.000660 0.000000 0.000000 0.000000
# 3 -0.004061 -0.000660 0.007224 0.000000 0.000000 0.000000
# 4 0.000000 0.000000 0.000000 0.033162 0.000000 0.000000
# 5 0.000000 0.000000 0.000000 0.000000 0.045405 0.000000
# 6 0.000000 0.000000 0.000000 0.000000 0.000000 -0.148999
#
#
# Mechanical properties :
#
#
# Convention : Reuss Voigt Hill
#
# Bulk Modulus (GPa) = 30.89941 49.25681 40.07811
# Shear Modulus (GPa) = -480.33697 26.41064 -226.96316
#
# Velocity S-wave (km/s) = -14.80859 3.47240 -10.17931
# Velocity P-wave (km/s) = 16.68189 6.21004 10.94808
#
# Compressibility (1/GPa) = 0.03236307
#
# Stress axis : x y z
#
# Youngs Moduli (GPa) = 83.47937 46.30475 138.43071
#
# Poissons Ratio (x) = -0.02329 0.56222
# Poissons Ratio (y) = -0.04199 0.09130
# Poissons Ratio (z) = 0.33904 0.03054
#
# Static dielectric constant tensor:
#      x y z
#    x 1.736560 0.000000 0.000000 
#    y 0.000000 1.868540 0.000000 
#    z 0.000000 0.000000 1.908580 
# 
# From -- ./inp_files/11440.got.cif
#   From: 2010.05.17/outbox.cif.g08.bks.cpg/sg66_6_cif.got.tgz:11440.got - 2010.06.03 17:51:23.
