data_PCOD9496151
_publ_section_title
;
Structure prediction by ZEFSAII (Michael W. Deem and Ramdas Pophale) SiO2 
 PCOD9496151
Probable space group: C C C M
;
_chemical_formula_sum "Si O2"
_cell_formula_units_Z 116
_cell_length_a 21.203757
_cell_length_b 30.131812
_cell_length_c 9.895412
_cell_angle_alpha 90.000000
_cell_angle_beta 90.000000
_cell_angle_gamma 90.000000
_cell_volume 6322.254126
_symmetry_space_group_name_H-M "C C C M"
_symmetry_group_IT_number 66
_symmetry_cell_setting 'orthorhombic'
loop_
_space_group_symop_operation_xyz
x,y,z
-x,-y,z
x,-y,1/2-z
-x,y,1/2-z
-x,-y,-z
x,y,-z
-x,y,1/2+z
x,-y,1/2+z
1/2+x,1/2+y,z
1/2-x,1/2-y,z
1/2+x,1/2-y,1/2-z
1/2-x,1/2+y,1/2-z
1/2-x,1/2-y,-z
1/2+x,1/2+y,-z
1/2-x,1/2+y,1/2+z
1/2+x,1/2-y,1/2+z
loop_
_atom_site_type_symbol
_atom_site_label
_atom_site_fract_x
_atom_site_fract_y
_atom_site_fract_z
Si Si1 0.394779 0.228083 0.650713
Si Si2 0.214730 0.703351 0.648358
Si Si3 0.610131 0.933148 0.846935
Si Si4 0.062817 0.828779 0.835760
Si Si5 0.000000 0.500000 0.750000
Si Si6 0.255340 0.460739 0.845867
Si Si7 0.942742 0.368036 0.153987
Si Si8 0.822269 0.133163 0.337606
O O1 0.367282 0.232234 0.500000
O O2 0.341795 0.212978 0.753094
O O3 0.424583 0.275682 0.682427
O O4 0.439536 0.185169 0.649348
O O5 0.191067 0.689642 0.500000
O O6 0.250000 0.750000 0.637223
O O7 0.265996 0.667646 0.692527
O O8 0.679344 0.954897 0.836518
O O9 0.611254 0.894448 0.733870
O O10 0.551283 0.967515 0.824658
O O11 0.604189 0.915175 0.000000
O O12 0.120025 0.854489 0.760925
O O13 0.000000 0.839582 0.750000
O O14 0.058618 0.836625 0.000000
O O15 0.275823 0.500000 0.750000
O O16 0.292400 0.415240 0.816751
O O17 0.269154 0.472590 0.000000
O O18 0.000000 0.379878 0.250000
O O19 0.947145 0.384007 0.000000
O O20 0.837944 0.138174 0.500000
#
# Coordination Sequence:
#
# PCOD9496151 Si02
#       8
#    16  16  16  16   4  16  16  16
#     4  10  22  37  54  81 117 155 195 241 292 344
#     4  10  19  33  57  85 114 153 195 235 282 340
#     4  11  23  39  59  84 115 154 200 250 300 350
#     4  11  23  39  61  88 120 157 198 242 296 360
#     4  12  22  36  64  86 118 152 208 256 298 348
#     4  10  22  40  62  88 119 154 194 245 300 357
#     4  11  23  37  53  76 108 148 194 242 291 343
#     4  10  21  39  61  88 122 158 200 247 300 356
#
# _framework density 18.347885999999999
#
# number of rings (size 3 to 8) (size 9 to 14) (size 15 to 20)
#    0.000    1.517    2.759    2.276    0.000    5.241 
#    0.000    0.000    0.000    0.414    0.000    2.897 
#    0.000    0.000    0.000    0.000    0.000    0.000 
#
# Total GULP energy -323208.982157 kJ/mol
# GULP energy per Si atom -5572.568658 kJ/mol
# Density = 1.830613 g / cm^3
# Si number density = 18.347886 Si / 1000 Ang^3
#
#
#
# Elastic Constant Matrix: (Units=GPa)
#
#
# Indices 1 2 3 4 5 6 
#
# 1 75.1401 23.5338 63.8621 0.0000 0.0000 0.0000
# 2 23.5338 96.2401 48.3211 0.0000 0.0000 0.0000
# 3 63.8621 48.3211 122.7610 0.0000 0.0000 0.0000
# 4 0.0000 0.0000 0.0000 33.4798 0.0000 0.0000
# 5 0.0000 0.0000 0.0000 0.0000 21.0315 0.0000
# 6 0.0000 0.0000 0.0000 0.0000 0.0000 18.9910
#
#
#
# Elastic Compliance Matrix: (Units=1/GPa)
#
#
# Indices 1 2 3 4 5 6 
#
# 1 0.023875 0.000496 -0.012615 0.000000 0.000000 0.000000
# 2 0.000496 0.012960 -0.005359 0.000000 0.000000 0.000000
# 3 -0.012615 -0.005359 0.016818 0.000000 0.000000 0.000000
# 4 0.000000 0.000000 0.000000 0.029869 0.000000 0.000000
# 5 0.000000 0.000000 0.000000 0.000000 0.047548 0.000000
# 6 0.000000 0.000000 0.000000 0.000000 0.000000 0.052657
#
#
# Mechanical properties :
#
#
# Convention : Reuss Voigt Hill
#
# Bulk Modulus (GPa) = 53.48811 62.84172 58.16491
# Shear Modulus (GPa) = 22.23049 25.26205 23.74627
#
# Velocity S-wave (km/s) = 3.48460 3.71460 3.60144
# Velocity P-wave (km/s) = 6.73835 7.26100 7.00455
#
# Compressibility (1/GPa) = 0.01869574
#
# Stress axis : x y z
#
# Youngs Moduli (GPa) = 41.88474 77.15856 59.45964
#
# Poissons Ratio (x) = -0.03825 0.75010
# Poissons Ratio (y) = -0.02077 0.31867
# Poissons Ratio (z) = 0.52839 0.41352
#
# Static dielectric constant tensor:
#      x y z
#    x 3.306690 0.000000 0.000000 
#    y 0.000000 1.362950 0.000000 
#    z 0.000000 0.000000 1.666120 
# 
# From -- ./inp_files/9599.got.cif
#   From: 2010.05.17/outbox.cif.g08.bks.cpg/sg66_5_cif.got.tgz:9599.got - 2010.06.03 17:51:23.
