data_PCOD9496045
_publ_section_title
;
Structure prediction by ZEFSAII (Michael W. Deem and Ramdas Pophale) SiO2 
 PCOD9496045
Probable space group: C C C M
;
_chemical_formula_sum "Si O2"
_cell_formula_units_Z 108
_cell_length_a 5.668960
_cell_length_b 29.839545
_cell_length_c 28.443585
_cell_angle_alpha 90.000000
_cell_angle_beta 90.000000
_cell_angle_gamma 90.000000
_cell_volume 4811.493715
_symmetry_space_group_name_H-M "C C C M"
_symmetry_group_IT_number 66
_symmetry_cell_setting 'orthorhombic'
loop_
_space_group_symop_operation_xyz
x,y,z
-x,-y,z
x,-y,1/2-z
-x,y,1/2-z
-x,-y,-z
x,y,-z
-x,y,1/2+z
x,-y,1/2+z
1/2+x,1/2+y,z
1/2-x,1/2-y,z
1/2+x,1/2-y,1/2-z
1/2-x,1/2+y,1/2-z
1/2-x,1/2-y,-z
1/2+x,1/2+y,-z
1/2-x,1/2+y,1/2+z
1/2+x,1/2-y,1/2+z
loop_
_atom_site_type_symbol
_atom_site_label
_atom_site_fract_x
_atom_site_fract_y
_atom_site_fract_z
Si Si1 0.630160 0.388960 0.185276
Si Si2 0.500000 0.000000 0.750000
Si Si3 0.135312 0.577169 0.691666
Si Si4 0.412639 0.178250 0.447596
Si Si5 0.912240 0.580661 0.078116
Si Si6 0.376109 0.702735 0.858324
Si Si7 0.920601 0.050262 0.909390
Si Si8 0.250000 0.250000 0.092510
O O1 0.368689 0.395873 0.205305
O O2 0.661988 0.336117 0.178290
O O3 0.608380 0.416435 0.135470
O O4 0.873661 0.406896 0.206611
O O5 0.659489 0.028589 0.714613
O O6 0.115858 0.577100 0.634904
O O7 0.315458 0.177680 0.500000
O O8 0.546709 0.131773 0.437770
O O9 0.221464 0.183276 0.407243
O O10 0.571560 0.222330 0.439509
O O11 0.651771 0.565674 0.061077
O O12 0.158087 0.553898 0.067275
O O13 0.250000 0.750000 0.847893
O O14 0.642161 0.713801 0.871687
O O15 0.000000 0.000000 0.894732
#
# Coordination Sequence:
#
# PCOD9496045 Si02
#       8
#    16   4  16  16  16  16  16   8
#     4  10  21  38  61  89 129 175 205 253 314 388
#     4  12  28  42  68 118 134 170 200 274 340 402
#     4  10  23  38  62  88 139 161 207 247 325 394
#     4  11  22  37  57  87 127 171 221 274 334 386
#     4  10  21  38  58  85 121 170 209 247 315 382
#     4  10  21  37  59  92 128 166 227 273 323 385
#     4  10  19  32  60  84 109 155 215 253 305 374
#     4  10  21  34  58  88 130 166 210 286 342 386
#
# _framework density 22.446252000000001
#
# number of rings (size 3 to 8) (size 9 to 14) (size 15 to 20)
#    0.000    1.778    2.963    2.444   10.370    4.444 
#    0.000    0.000    0.000    2.667    0.000    2.074 
#    0.000    0.000    0.000    0.000    0.000    0.000 
#
# Total GULP energy -301076.527886 kJ/mol
# GULP energy per Si atom -5575.491257 kJ/mol
# Density = 2.239516 g / cm^3
# Si number density = 22.446252 Si / 1000 Ang^3
#
#
#
# Elastic Constant Matrix: (Units=GPa)
#
#
# Indices 1 2 3 4 5 6 
#
# 1 162.1038 18.6955 11.8197 0.0000 0.0000 0.0000
# 2 18.6955 103.4633 9.2322 0.0000 0.0000 0.0000
# 3 11.8197 9.2322 32.7370 0.0000 0.0000 0.0000
# 4 0.0000 0.0000 0.0000 -9.3173 0.0000 0.0000
# 5 0.0000 0.0000 0.0000 0.0000 -21.1920 0.0000
# 6 0.0000 0.0000 0.0000 0.0000 0.0000 32.0081
#
#
#
# Elastic Compliance Matrix: (Units=1/GPa)
#
#
# Indices 1 2 3 4 5 6 
#
# 1 0.006431 -0.000980 -0.002046 0.000000 0.000000 0.000000
# 2 -0.000980 0.010064 -0.002484 0.000000 0.000000 0.000000
# 3 -0.002046 -0.002484 0.031986 0.000000 0.000000 0.000000
# 4 0.000000 0.000000 0.000000 -0.107327 0.000000 0.000000
# 5 0.000000 0.000000 0.000000 0.000000 -0.047188 0.000000
# 6 0.000000 0.000000 0.000000 0.000000 0.000000 0.031242
#
#
# Mechanical properties :
#
#
# Convention : Reuss Voigt Hill
#
# Bulk Modulus (GPa) = 26.69421 41.97765 34.33593
# Shear Modulus (GPa) = -97.49326 17.53688 -39.97819
#
# Velocity S-wave (km/s) = -6.59760 2.79818 -4.22484
# Velocity P-wave (km/s) = 6.79114 5.40201 2.91014
#
# Compressibility (1/GPa) = 0.03746130
#
# Stress axis : x y z
#
# Youngs Moduli (GPa) = 155.49639 99.36456 31.26396
#
# Poissons Ratio (x) = 0.09733 0.06396
# Poissons Ratio (y) = 0.15231 0.07767
# Poissons Ratio (z) = 0.31810 0.24687
#
# Static dielectric constant tensor:
#      x y z
#    x 2.182430 0.000000 0.000000 
#    y 0.000000 1.854950 0.000000 
#    z 0.000000 0.000000 1.836370 
# 
# From -- ./inp_files/67561.got.cif
#   From: 2010.05.17/outbox.cif.g08.bks.cpg/sg66_34_cif.got.tgz:67561.got - 2010.06.03 17:51:23.
