data_PCOD9496883
_publ_section_title
;
Structure prediction by ZEFSAII (Michael W. Deem and Ramdas Pophale) SiO2 
 PCOD9496883
Probable space group: C C C M
;
_chemical_formula_sum "Si O2"
_cell_formula_units_Z 88
_cell_length_a 11.378149
_cell_length_b 11.995893
_cell_length_c 31.919665
_cell_angle_alpha 90.000000
_cell_angle_beta 90.000000
_cell_angle_gamma 90.000000
_cell_volume 4356.748845
_symmetry_space_group_name_H-M "C C C M"
_symmetry_group_IT_number 66
_symmetry_cell_setting 'orthorhombic'
loop_
_space_group_symop_operation_xyz
x,y,z
-x,-y,z
x,-y,1/2-z
-x,y,1/2-z
-x,-y,-z
x,y,-z
-x,y,1/2+z
x,-y,1/2+z
1/2+x,1/2+y,z
1/2-x,1/2-y,z
1/2+x,1/2-y,1/2-z
1/2-x,1/2+y,1/2-z
1/2-x,1/2-y,-z
1/2+x,1/2+y,-z
1/2-x,1/2+y,1/2+z
1/2+x,1/2-y,1/2+z
loop_
_atom_site_type_symbol
_atom_site_label
_atom_site_fract_x
_atom_site_fract_y
_atom_site_fract_z
Si Si1 0.642968 0.476651 0.701926
Si Si2 0.250000 0.750000 0.332779
Si Si3 0.196135 0.043835 0.950466
Si Si4 0.042931 0.624674 0.544205
Si Si5 0.690443 0.371896 0.874037
Si Si6 0.548764 0.711564 0.106222
O O1 0.500000 0.500000 0.699701
O O2 0.674832 0.500000 0.750000
O O3 0.692614 0.352207 0.692397
O O4 0.711294 0.550780 0.666746
O O5 0.357182 0.773157 0.364779
O O6 0.317515 0.113354 0.951212
O O7 0.105592 0.126740 0.927368
O O8 0.209641 0.939686 0.918009
O O9 0.169957 0.017286 0.000000
O O10 0.015297 0.679695 0.500000
O O11 0.984809 0.692758 0.580446
O O12 0.000000 0.500000 0.543782
O O13 0.750000 0.250000 0.872500
O O14 0.550485 0.353651 0.870131
#
# Coordination Sequence:
#
# PCOD9496883 Si02
#       6
#    16   8  16  16  16  16
#     4  11  24  46  74 103 136 176 223 275 340 409
#     4  12  22  42  75 100 128 172 219 282 324 402
#     4  11  22  38  59  89 128 175 229 274 324 396
#     4  10  20  34  54  86 127 173 221 274 332 386
#     4  12  25  42  63  96 137 176 220 280 343 397
#     4  12  21  38  65  90 128 174 224 271 328 395
#
# _framework density 20.198547000000001
#
# number of rings (size 3 to 8) (size 9 to 14) (size 15 to 20)
#    0.000    0.727    5.455    2.182    1.273    4.000 
#    0.000    0.000    0.000    1.091    0.000    0.000 
#    0.000    0.000    0.000    0.000    0.000    0.000 
#
# Total GULP energy -245027.548105 kJ/mol
# GULP energy per Si atom -5568.807911 kJ/mol
# Density = 2.015257 g / cm^3
# Si number density = 20.198547 Si / 1000 Ang^3
#
#
#
# Elastic Constant Matrix: (Units=GPa)
#
#
# Indices 1 2 3 4 5 6 
#
# 1 46.8038 14.8525 25.0918 0.0000 0.0000 0.0000
# 2 14.8525 111.6109 72.9346 0.0000 0.0000 0.0000
# 3 25.0918 72.9346 157.6551 0.0000 0.0000 0.0000
# 4 0.0000 0.0000 0.0000 24.4272 0.0000 0.0000
# 5 0.0000 0.0000 0.0000 0.0000 15.1844 0.0000
# 6 0.0000 0.0000 0.0000 0.0000 0.0000 32.2802
#
#
#
# Elastic Compliance Matrix: (Units=1/GPa)
#
#
# Indices 1 2 3 4 5 6 
#
# 1 0.023433 -0.000976 -0.003278 0.000000 0.000000 0.000000
# 2 -0.000976 0.012883 -0.005804 0.000000 0.000000 0.000000
# 3 -0.003278 -0.005804 0.009550 0.000000 0.000000 0.000000
# 4 0.000000 0.000000 0.000000 0.040938 0.000000 0.000000
# 5 0.000000 0.000000 0.000000 0.000000 0.065857 0.000000
# 6 0.000000 0.000000 0.000000 0.000000 0.000000 0.030979
#
#
# Mechanical properties :
#
#
# Convention : Reuss Voigt Hill
#
# Bulk Modulus (GPa) = 38.83753 60.20307 49.52030
# Shear Modulus (GPa) = 23.54726 27.92443 25.73585
#
# Velocity S-wave (km/s) = 3.41807 3.72223 3.57339
# Velocity P-wave (km/s) = 5.90315 6.95296 6.44945
#
# Compressibility (1/GPa) = 0.02574829
#
# Stress axis : x y z
#
# Youngs Moduli (GPa) = 42.67508 77.62389 104.71342
#
# Poissons Ratio (x) = 0.07579 0.34323
# Poissons Ratio (y) = 0.04167 0.60780
# Poissons Ratio (z) = 0.13988 0.45056
#
# Static dielectric constant tensor:
#      x y z
#    x 1.740900 0.000000 0.000000 
#    y 0.000000 1.741570 0.000000 
#    z 0.000000 0.000000 1.749850 
# 
# From -- ./inp_files/68846.got.cif
#   From: 2010.05.17/outbox.cif.g08.bks.cpg/sg66_35_cif.got.tgz:68846.got - 2010.06.03 17:51:23.
