data_PCOD9496314
_publ_section_title
;
Structure prediction by ZEFSAII (Michael W. Deem and Ramdas Pophale) SiO2 
 PCOD9496314
Probable space group: C C C M
;
_chemical_formula_sum "Si O2"
_cell_formula_units_Z 112
_cell_length_a 18.328712
_cell_length_b 19.369085
_cell_length_c 17.267125
_cell_angle_alpha 90.000000
_cell_angle_beta 90.000000
_cell_angle_gamma 90.000000
_cell_volume 6130.008619
_symmetry_space_group_name_H-M "C C C M"
_symmetry_group_IT_number 66
_symmetry_cell_setting 'orthorhombic'
loop_
_space_group_symop_operation_xyz
x,y,z
-x,-y,z
x,-y,1/2-z
-x,y,1/2-z
-x,-y,-z
x,y,-z
-x,y,1/2+z
x,-y,1/2+z
1/2+x,1/2+y,z
1/2-x,1/2-y,z
1/2+x,1/2-y,1/2-z
1/2-x,1/2+y,1/2-z
1/2-x,1/2-y,-z
1/2+x,1/2+y,-z
1/2-x,1/2+y,1/2+z
1/2+x,1/2-y,1/2+z
loop_
_atom_site_type_symbol
_atom_site_label
_atom_site_fract_x
_atom_site_fract_y
_atom_site_fract_z
Si Si1 0.686865 0.548708 0.677923
Si Si2 0.416419 0.799740 0.777285
Si Si3 0.585166 0.349356 0.272750
Si Si4 0.536394 0.879306 0.588079
Si Si5 0.073507 0.955552 0.408423
Si Si6 0.598663 0.935428 0.808532
Si Si7 0.819926 0.471620 0.087576
O O1 0.708040 0.500000 0.750000
O O2 0.633642 0.604834 0.715047
O O3 0.640159 0.504239 0.616954
O O4 0.759443 0.571384 0.633789
O O5 0.500000 0.801726 0.750000
O O6 0.387392 0.728830 0.741569
O O7 0.427873 0.812870 0.868924
O O8 0.381134 0.868438 0.741685
O O9 0.500000 0.350523 0.250000
O O10 0.584024 0.386650 0.356537
O O11 0.512221 0.865611 0.500000
O O12 0.602236 0.933771 0.585573
O O13 0.471272 0.912687 0.639407
O O14 0.071885 0.941624 0.500000
O O15 0.000000 0.000000 0.388288
O O16 0.584819 0.000000 0.750000
O O17 0.663054 0.958974 0.865186
O O18 0.796386 0.484280 0.000000
#
# Coordination Sequence:
#
# PCOD9496314 Si02
#       7
#    16  16  16  16  16  16  16
#     4  10  21  34  59  82 110 148 186 239 281 347
#     4   9  20  34  56  82 113 148 193 237 281 345
#     4  10  19  38  58  85 113 150 190 234 287 351
#     4  10  21  35  54  82 114 152 190 240 291 334
#     4  10  19  34  60  88 112 141 181 235 292 344
#     4  11  20  34  59  84 111 153 199 243 280 338
#     4  11  22  34  53  83 115 146 191 244 291 336
#
# _framework density 18.270773999999999
#
# number of rings (size 3 to 8) (size 9 to 14) (size 15 to 20)
#    0.000    1.857    2.857    1.714    4.000    1.143 
#    0.000    9.286    0.000    1.714    0.000    3.000 
#    0.000    0.000    0.000    0.000    0.000    0.000 
#
# Total GULP energy -311893.095048 kJ/mol
# GULP energy per Si atom -5569.519554 kJ/mol
# Density = 1.822919 g / cm^3
# Si number density = 18.270774 Si / 1000 Ang^3
#
#
#
# Elastic Constant Matrix: (Units=GPa)
#
#
# Indices 1 2 3 4 5 6 
#
# 1 58.5507 8.8323 34.3656 0.0000 0.0000 0.0000
# 2 8.8323 115.6689 65.4504 0.0000 0.0000 0.0000
# 3 34.3656 65.4504 138.6554 0.0000 0.0000 0.0000
# 4 0.0000 0.0000 0.0000 16.9384 0.0000 0.0000
# 5 0.0000 0.0000 0.0000 0.0000 28.1400 0.0000
# 6 0.0000 0.0000 0.0000 0.0000 0.0000 4.7869
#
#
#
# Elastic Compliance Matrix: (Units=1/GPa)
#
#
# Indices 1 2 3 4 5 6 
#
# 1 0.020247 0.001765 -0.005851 0.000000 0.000000 0.000000
# 2 0.001765 0.011950 -0.006078 0.000000 0.000000 0.000000
# 3 -0.005851 -0.006078 0.011532 0.000000 0.000000 0.000000
# 4 0.000000 0.000000 0.000000 0.059038 0.000000 0.000000
# 5 0.000000 0.000000 0.000000 0.000000 0.035537 0.000000
# 6 0.000000 0.000000 0.000000 0.000000 0.000000 0.208905
#
#
# Mechanical properties :
#
#
# Convention : Reuss Voigt Hill
#
# Bulk Modulus (GPa) = 42.73609 58.90794 50.82202
# Shear Modulus (GPa) = 13.32135 23.58817 18.45476
#
# Velocity S-wave (km/s) = 2.70313 3.59699 3.18161
# Velocity P-wave (km/s) = 5.76053 7.04008 6.43220
#
# Compressibility (1/GPa) = 0.02339942
#
# Stress axis : x y z
#
# Youngs Moduli (GPa) = 49.38906 83.68258 86.71872
#
# Poissons Ratio (x) = -0.14769 0.50743
# Poissons Ratio (y) = -0.08717 0.52710
# Poissons Ratio (z) = 0.28900 0.50864
#
# Static dielectric constant tensor:
#      x y z
#    x 1.639530 0.000000 0.000000 
#    y 0.000000 1.680270 0.000000 
#    z 0.000000 0.000000 1.669830 
# 
# From -- ./inp_files/43051.got.cif
#   From: 2010.05.17/outbox.cif.g08.bks.cpg/sg66_22_cif.got.tgz:43051.got - 2010.06.03 17:51:23.
