data_PCOD9496741
_publ_section_title
;
Structure prediction by ZEFSAII (Michael W. Deem and Ramdas Pophale) SiO2 
 PCOD9496741
Probable space group: C C C M
;
_chemical_formula_sum "Si O2"
_cell_formula_units_Z 80
_cell_length_a 19.485524
_cell_length_b 26.953273
_cell_length_c 8.661190
_cell_angle_alpha 90.000000
_cell_angle_beta 90.000000
_cell_angle_gamma 90.000000
_cell_volume 4548.845277
_symmetry_space_group_name_H-M "C C C M"
_symmetry_group_IT_number 66
_symmetry_cell_setting 'orthorhombic'
loop_
_space_group_symop_operation_xyz
x,y,z
-x,-y,z
x,-y,1/2-z
-x,y,1/2-z
-x,-y,-z
x,y,-z
-x,y,1/2+z
x,-y,1/2+z
1/2+x,1/2+y,z
1/2-x,1/2-y,z
1/2+x,1/2-y,1/2-z
1/2-x,1/2+y,1/2-z
1/2-x,1/2-y,-z
1/2+x,1/2+y,-z
1/2-x,1/2+y,1/2+z
1/2+x,1/2-y,1/2+z
loop_
_atom_site_type_symbol
_atom_site_label
_atom_site_fract_x
_atom_site_fract_y
_atom_site_fract_z
Si Si1 0.825210 0.053232 0.814129
Si Si2 0.172027 0.552997 0.685471
Si Si3 0.422389 0.752213 0.814931
Si Si4 0.077032 0.142933 0.686120
Si Si5 0.922881 0.354540 0.315218
O O1 0.748269 0.060972 0.751864
O O2 0.874466 0.098022 0.763923
O O3 0.849110 0.000000 0.750000
O O4 0.823499 0.051368 0.000000
O O5 0.147336 0.500000 0.750000
O O6 0.175704 0.550320 0.500000
O O7 0.122707 0.598273 0.729672
O O8 0.500000 0.751452 0.750000
O O9 0.394369 0.697781 0.771615
O O10 0.391764 0.802627 0.746386
O O11 0.423659 0.756197 0.000000
O O12 0.072877 0.141819 0.500000
O O13 0.000000 0.137782 0.750000
O O14 0.926815 0.352037 0.500000
O O15 0.000000 0.359605 0.250000
#
# Coordination Sequence:
#
# PCOD9496741 Si02
#       5
#    16  16  16  16  16
#     4  10  20  35  53  73  99 131 167 204 246 294
#     4  10  21  36  53  73  98 130 166 202 245 294
#     4   9  16  29  49  72  99 130 162 197 242 290
#     4   9  19  33  51  76 102 130 165 204 244 289
#     4  10  20  33  51  76 102 128 162 202 244 291
#
# _framework density 17.586881999999999
#
# number of rings (size 3 to 8) (size 9 to 14) (size 15 to 20)
#    0.000    2.400    0.000    4.800    0.000    6.400 
#    0.000    5.000    0.000    6.000    0.000    0.000 
#    0.000    0.000    0.000    0.000    0.000    0.000 
#
# Total GULP energy -222992.822262 kJ/mol
# GULP energy per Si atom -5574.820557 kJ/mol
# Density = 1.754685 g / cm^3
# Si number density = 17.586882 Si / 1000 Ang^3
#
#
#
# Elastic Constant Matrix: (Units=GPa)
#
#
# Indices 1 2 3 4 5 6 
#
# 1 50.4823 85.1220 22.1922 0.0000 0.0000 0.0000
# 2 85.1220 225.4133 52.6333 0.0000 0.0000 0.0000
# 3 22.1922 52.6333 46.2489 0.0000 0.0000 0.0000
# 4 0.0000 0.0000 0.0000 37.8205 0.0000 0.0000
# 5 0.0000 0.0000 0.0000 0.0000 5.8097 0.0000
# 6 0.0000 0.0000 0.0000 0.0000 0.0000 -7.5405
#
#
#
# Elastic Compliance Matrix: (Units=1/GPa)
#
#
# Indices 1 2 3 4 5 6 
#
# 1 0.055005 -0.019895 -0.003752 0.000000 0.000000 0.000000
# 2 -0.019895 0.013238 -0.005519 0.000000 0.000000 0.000000
# 3 -0.003752 -0.005519 0.029703 0.000000 0.000000 0.000000
# 4 0.000000 0.000000 0.000000 0.026441 0.000000 0.000000
# 5 0.000000 0.000000 0.000000 0.000000 0.172125 0.000000
# 6 0.000000 0.000000 0.000000 0.000000 0.000000 -0.132618
#
#
# Mechanical properties :
#
#
# Convention : Reuss Voigt Hill
#
# Bulk Modulus (GPa) = 25.24362 71.33774 48.29068
# Shear Modulus (GPa) = 21.23759 18.03108 19.63434
#
# Velocity S-wave (km/s) = 3.47880 3.20544 3.34491
# Velocity P-wave (km/s) = 5.52457 7.37230 6.51428
#
# Compressibility (1/GPa) = 0.03961397
#
# Stress axis : x y z
#
# Youngs Moduli (GPa) = 18.18005 75.54078 33.66653
#
# Poissons Ratio (x) = 1.50291 0.12632
# Poissons Ratio (y) = 0.36170 0.18579
# Poissons Ratio (z) = 0.06821 0.41688
#
# Static dielectric constant tensor:
#      x y z
#    x 1.484920 0.000000 0.000000 
#    y 0.000000 1.644090 0.000000 
#    z 0.000000 0.000000 1.596210 
# 
# From -- ./inp_files/6672.got.cif
#   From: 2010.05.17/outbox.cif.g08.bks.cpg/sg66_4_cif.got.tgz:6672.got - 2010.06.03 17:51:23.
