data_PCOD9496888
_publ_section_title
;
Structure prediction by ZEFSAII (Michael W. Deem and Ramdas Pophale) SiO2 
 PCOD9496888
Probable space group: C C C M
;
_chemical_formula_sum "Si O2"
_cell_formula_units_Z 80
_cell_length_a 18.788687
_cell_length_b 17.551734
_cell_length_c 13.478578
_cell_angle_alpha 90.000000
_cell_angle_beta 90.000000
_cell_angle_gamma 90.000000
_cell_volume 4444.885072
_symmetry_space_group_name_H-M "C C C M"
_symmetry_group_IT_number 66
_symmetry_cell_setting 'orthorhombic'
loop_
_space_group_symop_operation_xyz
x,y,z
-x,-y,z
x,-y,1/2-z
-x,y,1/2-z
-x,-y,-z
x,y,-z
-x,y,1/2+z
x,-y,1/2+z
1/2+x,1/2+y,z
1/2-x,1/2-y,z
1/2+x,1/2-y,1/2-z
1/2-x,1/2+y,1/2-z
1/2-x,1/2-y,-z
1/2+x,1/2+y,-z
1/2-x,1/2+y,1/2+z
1/2+x,1/2-y,1/2+z
loop_
_atom_site_type_symbol
_atom_site_label
_atom_site_fract_x
_atom_site_fract_y
_atom_site_fract_z
Si Si1 0.639494 0.618173 0.702524
Si Si2 0.500000 0.878285 0.750000
Si Si3 0.789769 0.608610 0.384019
Si Si4 0.080198 0.028265 0.112454
Si Si5 0.621034 0.000000 0.250000
Si Si6 0.416742 0.770289 0.886463
O O1 0.723413 0.629735 0.686103
O O2 0.612053 0.587083 0.808176
O O3 0.623951 0.549259 0.626615
O O4 0.597044 0.693467 0.673507
O O5 0.566703 0.931937 0.778987
O O6 0.476503 0.823782 0.839107
O O7 0.770043 0.596732 0.500000
O O8 0.829766 0.535294 0.336560
O O9 0.845495 0.678282 0.383192
O O10 0.082571 0.056694 0.000000
O O11 0.000000 0.000000 0.134866
O O12 0.432368 0.750867 0.000000
#
# Coordination Sequence:
#
# PCOD9496888 Si02
#       6
#    16   8  16  16   8  16
#     4  11  20  34  56  80 108 140 180 222 266 320
#     4   9  20  34  54  79 108 142 182 223 278 316
#     4  10  20  34  55  81 107 142 181 223 272 320
#     4  10  22  37  54  79 107 141 180 220 270 321
#     4   9  18  36  54  78 109 140 180 232 267 324
#     4  10  21  35  54  80 110 142 180 223 270 325
#
# _framework density 17.998215999999999
#
# number of rings (size 3 to 8) (size 9 to 14) (size 15 to 20)
#    0.000    2.000    0.000    4.800    2.800    2.400 
#    0.000    4.000    0.000    4.800    0.000    0.000 
#    0.000    0.000    0.000    0.000    0.000    0.000 
#
# Total GULP energy -223052.210691 kJ/mol
# GULP energy per Si atom -5576.305267 kJ/mol
# Density = 1.795725 g / cm^3
# Si number density = 17.998216 Si / 1000 Ang^3
#
#
#
# Elastic Constant Matrix: (Units=GPa)
#
#
# Indices 1 2 3 4 5 6 
#
# 1 55.3273 13.3984 47.1678 0.0000 0.0000 0.0000
# 2 13.3984 107.0616 55.5411 0.0000 0.0000 0.0000
# 3 47.1678 55.5411 139.4151 0.0000 0.0000 0.0000
# 4 0.0000 0.0000 0.0000 5.7041 0.0000 0.0000
# 5 0.0000 0.0000 0.0000 0.0000 27.8611 0.0000
# 6 0.0000 0.0000 0.0000 0.0000 0.0000 11.1172
#
#
#
# Elastic Compliance Matrix: (Units=1/GPa)
#
#
# Indices 1 2 3 4 5 6 
#
# 1 0.025623 0.001627 -0.009317 0.000000 0.000000 0.000000
# 2 0.001627 0.011877 -0.005282 0.000000 0.000000 0.000000
# 3 -0.009317 -0.005282 0.012429 0.000000 0.000000 0.000000
# 4 0.000000 0.000000 0.000000 0.175313 0.000000 0.000000
# 5 0.000000 0.000000 0.000000 0.000000 0.035892 0.000000
# 6 0.000000 0.000000 0.000000 0.000000 0.000000 0.089951
#
#
# Mechanical properties :
#
#
# Convention : Reuss Voigt Hill
#
# Bulk Modulus (GPa) = 41.69270 59.33540 50.51405
# Shear Modulus (GPa) = 12.98617 21.31627 17.15122
#
# Velocity S-wave (km/s) = 2.68904 3.44518 3.09032
# Velocity P-wave (km/s) = 5.73205 6.99032 6.39222
#
# Compressibility (1/GPa) = 0.02398502
#
# Stress axis : x y z
#
# Youngs Moduli (GPa) = 39.02686 84.19610 80.45460
#
# Poissons Ratio (x) = -0.13697 0.74961
# Poissons Ratio (y) = -0.06349 0.42497
# Poissons Ratio (z) = 0.36362 0.44473
#
# Static dielectric constant tensor:
#      x y z
#    x 1.702970 0.000000 0.000000 
#    y 0.000000 1.606920 0.000000 
#    z 0.000000 0.000000 1.606380 
# 
# From -- ./inp_files/29991.got.cif
#   From: 2010.05.17/outbox.cif.g08.bks.cpg/sg66_15_cif.got.tgz:29991.got - 2010.06.03 17:51:23.
