data_PCOD9496852
_publ_section_title
;
Structure prediction by ZEFSAII (Michael W. Deem and Ramdas Pophale) SiO2 
 PCOD9496852
Probable space group: C C C M
;
_chemical_formula_sum "Si O2"
_cell_formula_units_Z 104
_cell_length_a 27.681105
_cell_length_b 21.502812
_cell_length_c 9.894655
_cell_angle_alpha 90.000000
_cell_angle_beta 90.000000
_cell_angle_gamma 90.000000
_cell_volume 5889.512349
_symmetry_space_group_name_H-M "C C C M"
_symmetry_group_IT_number 66
_symmetry_cell_setting 'orthorhombic'
loop_
_space_group_symop_operation_xyz
x,y,z
-x,-y,z
x,-y,1/2-z
-x,y,1/2-z
-x,-y,-z
x,y,-z
-x,y,1/2+z
x,-y,1/2+z
1/2+x,1/2+y,z
1/2-x,1/2-y,z
1/2+x,1/2-y,1/2-z
1/2-x,1/2+y,1/2-z
1/2-x,1/2-y,-z
1/2+x,1/2+y,-z
1/2-x,1/2+y,1/2+z
1/2+x,1/2-y,1/2+z
loop_
_atom_site_type_symbol
_atom_site_label
_atom_site_fract_x
_atom_site_fract_y
_atom_site_fract_z
Si Si1 0.859744 0.815107 0.659802
Si Si2 0.874595 0.500000 0.750000
Si Si3 0.452571 0.100861 0.342510
Si Si4 0.195225 0.726189 0.353120
Si Si5 0.046731 0.255954 0.659484
Si Si6 0.696766 0.558455 0.663864
Si Si7 0.210899 0.418628 0.150953
O O1 0.854666 0.807197 0.500000
O O2 0.829802 0.762848 0.735367
O O3 0.914658 0.797312 0.693339
O O4 0.837200 0.882072 0.692229
O O5 0.910243 0.551304 0.685304
O O6 0.836295 0.538172 0.840772
O O7 0.500000 0.089467 0.250000
O O8 0.466738 0.096342 0.500000
O O9 0.435539 0.172414 0.317510
O O10 0.172934 0.741015 0.500000
O O11 0.250000 0.750000 0.356563
O O12 0.194942 0.652610 0.335151
O O13 0.035625 0.251870 0.500000
O O14 0.000000 0.248578 0.750000
O O15 0.677679 0.500000 0.750000
O O16 0.699496 0.550051 0.500000
O O17 0.749800 0.569378 0.731340
O O18 0.233034 0.425850 0.000000
#
# Coordination Sequence:
#
# PCOD9496852 Si02
#       7
#    16   8  16  16  16  16  16
#     4  10  21  37  59  85 112 147 187 232 283 344
#     4  12  23  34  56  80 110 156 201 236 282 324
#     4  10  22  39  58  80 109 147 190 238 287 336
#     4  10  20  34  53  79 112 148 187 239 288 332
#     4   9  19  38  61  86 114 140 181 235 287 342
#     4  11  23  38  57  80 111 150 188 226 276 335
#     4  11  23  37  53  78 113 150 194 239 281 333
#
# _framework density 17.658508000000001
#
# number of rings (size 3 to 8) (size 9 to 14) (size 15 to 20)
#    0.000    1.692    2.308    2.077    0.000    4.615 
#    0.000    3.077    0.000    0.462    0.000    3.231 
#    0.000    0.000    0.000    0.000    0.000    0.000 
#
# Total GULP energy -289874.976629 kJ/mol
# GULP energy per Si atom -5574.518781 kJ/mol
# Density = 1.761832 g / cm^3
# Si number density = 17.658508 Si / 1000 Ang^3
#
#
#
# Elastic Constant Matrix: (Units=GPa)
#
#
# Indices 1 2 3 4 5 6 
#
# 1 94.8599 67.3046 51.6837 0.0000 0.0000 0.0000
# 2 67.3046 118.3980 51.0520 0.0000 0.0000 0.0000
# 3 51.6837 51.0520 57.6563 0.0000 0.0000 0.0000
# 4 0.0000 0.0000 0.0000 -8.1613 0.0000 0.0000
# 5 0.0000 0.0000 0.0000 0.0000 22.4925 0.0000
# 6 0.0000 0.0000 0.0000 0.0000 0.0000 34.3193
#
#
#
# Elastic Compliance Matrix: (Units=1/GPa)
#
#
# Indices 1 2 3 4 5 6 
#
# 1 0.023702 -0.006976 -0.015070 0.000000 0.000000 0.000000
# 2 -0.006976 0.015715 -0.007662 0.000000 0.000000 0.000000
# 3 -0.015070 -0.007662 0.037638 0.000000 0.000000 0.000000
# 4 0.000000 0.000000 0.000000 -0.122529 0.000000 0.000000
# 5 0.000000 0.000000 0.000000 0.000000 0.044459 0.000000
# 6 0.000000 0.000000 0.000000 0.000000 0.000000 0.029138
#
#
# Mechanical properties :
#
#
# Convention : Reuss Voigt Hill
#
# Bulk Modulus (GPa) = 56.69208 67.88832 62.29020
# Shear Modulus (GPa) = 53.52229 16.45502 34.98865
#
# Velocity S-wave (km/s) = 5.51139 3.05593 4.45613
# Velocity P-wave (km/s) = 8.52496 7.14004 7.86305
#
# Compressibility (1/GPa) = 0.01763915
#
# Stress axis : x y z
#
# Youngs Moduli (GPa) = 42.19061 63.63239 26.56909
#
# Poissons Ratio (x) = 0.44387 0.40040
# Poissons Ratio (y) = 0.29430 0.20358
# Poissons Ratio (z) = 0.63582 0.48757
#
# Static dielectric constant tensor:
#      x y z
#    x 1.607520 0.000000 0.000000 
#    y 0.000000 1.615740 0.000000 
#    z 0.000000 0.000000 1.618970 
# 
# From -- ./inp_files/10388.got.cif
#   From: 2010.05.17/outbox.cif.g08.bks.cpg/sg66_6_cif.got.tgz:10388.got - 2010.06.03 17:51:23.
