data_PCOD9496001
_publ_section_title
;
Structure prediction by ZEFSAII (Michael W. Deem and Ramdas Pophale) SiO2 
 PCOD9496001
Probable space group: C C C M
;
_chemical_formula_sum "Si O2"
_cell_formula_units_Z 72
_cell_length_a 9.827147
_cell_length_b 23.647512
_cell_length_c 14.118897
_cell_angle_alpha 90.000000
_cell_angle_beta 90.000000
_cell_angle_gamma 90.000000
_cell_volume 3281.056258
_symmetry_space_group_name_H-M "C C C M"
_symmetry_group_IT_number 66
_symmetry_cell_setting 'orthorhombic'
loop_
_space_group_symop_operation_xyz
x,y,z
-x,-y,z
x,-y,1/2-z
-x,y,1/2-z
-x,-y,-z
x,y,-z
-x,y,1/2+z
x,-y,1/2+z
1/2+x,1/2+y,z
1/2-x,1/2-y,z
1/2+x,1/2-y,1/2-z
1/2-x,1/2+y,1/2-z
1/2-x,1/2-y,-z
1/2+x,1/2+y,-z
1/2-x,1/2+y,1/2+z
1/2+x,1/2-y,1/2+z
loop_
_atom_site_type_symbol
_atom_site_label
_atom_site_fract_x
_atom_site_fract_y
_atom_site_fract_z
Si Si1 0.000000 0.679276 0.250000
Si Si2 0.398422 0.554066 0.887973
Si Si3 0.250000 0.750000 0.723904
Si Si4 0.102997 0.848486 0.392968
Si Si5 0.110577 0.590773 0.393440
Si Si6 0.814746 0.500000 0.250000
O O1 0.133682 0.714995 0.223941
O O2 0.159353 0.795104 0.335501
O O3 0.500000 0.500000 0.879530
O O4 0.476404 0.612367 0.862364
O O5 0.278168 0.541318 0.815088
O O6 0.359181 0.556587 0.000000
O O7 0.035136 0.641382 0.659414
O O8 0.073705 0.829075 0.500000
O O9 0.230759 0.891325 0.397442
O O10 0.062501 0.580610 0.500000
O O11 0.106749 0.538075 0.324667
#
# Coordination Sequence:
#
# PCOD9496001 Si02
#       6
#     8  16   8  16  16   8
#     4  10  24  45  68  96 125 172 224 284 340 412
#     4  10  19  32  53  93 137 173 219 278 335 392
#     4  10  21  40  67  92 124 172 232 278 334 404
#     4   9  18  33  58  91 128 167 214 273 334 394
#     4  10  22  41  63  91 129 172 218 269 336 412
#     4  12  21  33  62  96 132 184 222 272 328 410
#
# _framework density 21.944153
#
# number of rings (size 3 to 8) (size 9 to 14) (size 15 to 20)
#    0.000    2.000    2.222    1.333    0.000    4.889 
#    0.000    3.889    0.000    0.000    0.000    0.000 
#    0.000    0.000    0.000    0.000    0.000    0.000 
#
# Total GULP energy -201190.803677 kJ/mol
# GULP energy per Si atom -5588.633435 kJ/mol
# Density = 2.189421 g / cm^3
# Si number density = 21.944153 Si / 1000 Ang^3
#
#
#
# Elastic Constant Matrix: (Units=GPa)
#
#
# Indices 1 2 3 4 5 6 
#
# 1 90.3398 60.0857 47.0979 0.0000 0.0000 0.0000
# 2 60.0857 113.1830 47.5201 0.0000 0.0000 0.0000
# 3 47.0979 47.5201 131.3246 0.0000 0.0000 0.0000
# 4 0.0000 0.0000 0.0000 -21.7044 0.0000 0.0000
# 5 0.0000 0.0000 0.0000 0.0000 17.3508 0.0000
# 6 0.0000 0.0000 0.0000 0.0000 0.0000 22.6711
#
#
#
# Elastic Compliance Matrix: (Units=1/GPa)
#
#
# Indices 1 2 3 4 5 6 
#
# 1 0.018468 -0.008282 -0.003627 0.000000 0.000000 0.000000
# 2 -0.008282 0.014132 -0.002143 0.000000 0.000000 0.000000
# 3 -0.003627 -0.002143 0.009691 0.000000 0.000000 0.000000
# 4 0.000000 0.000000 0.000000 -0.046074 0.000000 0.000000
# 5 0.000000 0.000000 0.000000 0.000000 0.057634 0.000000
# 6 0.000000 0.000000 0.000000 0.000000 0.000000 0.044109
#
#
# Mechanical properties :
#
#
# Convention : Reuss Voigt Hill
#
# Bulk Modulus (GPa) = 70.48524 71.58388 71.03456
# Shear Modulus (GPa) = 38.22829 15.67307 26.95068
#
# Velocity S-wave (km/s) = 4.17834 2.67540 3.50830
# Velocity P-wave (km/s) = 7.44769 6.49888 6.98940
#
# Compressibility (1/GPa) = 0.01418737
#
# Stress axis : x y z
#
# Youngs Moduli (GPa) = 54.14713 70.76313 103.18837
#
# Poissons Ratio (x) = 0.58603 0.37423
# Poissons Ratio (y) = 0.44842 0.22118
# Poissons Ratio (z) = 0.19637 0.15168
#
# Static dielectric constant tensor:
#      x y z
#    x 1.879770 0.000000 0.000000 
#    y 0.000000 1.850330 0.000000 
#    z 0.000000 0.000000 1.788380 
# 
# From -- ./inp_files/26313.got.cif
#   From: 2010.05.17/outbox.cif.g08.bks.cpg/sg66_14_cif.got.tgz:26313.got - 2010.06.03 17:51:23.
