data_PCOD9496499
_publ_section_title
;
Structure prediction by ZEFSAII (Michael W. Deem and Ramdas Pophale) SiO2 
 PCOD9496499
Probable space group: C C C M
;
_chemical_formula_sum "Si O2"
_cell_formula_units_Z 64
_cell_length_a 13.575771
_cell_length_b 17.532119
_cell_length_c 15.028636
_cell_angle_alpha 90.000000
_cell_angle_beta 90.000000
_cell_angle_gamma 90.000000
_cell_volume 3576.996203
_symmetry_space_group_name_H-M "C C C M"
_symmetry_group_IT_number 66
_symmetry_cell_setting 'orthorhombic'
loop_
_space_group_symop_operation_xyz
x,y,z
-x,-y,z
x,-y,1/2-z
-x,y,1/2-z
-x,-y,-z
x,y,-z
-x,y,1/2+z
x,-y,1/2+z
1/2+x,1/2+y,z
1/2-x,1/2-y,z
1/2+x,1/2-y,1/2-z
1/2-x,1/2+y,1/2-z
1/2-x,1/2-y,-z
1/2+x,1/2+y,-z
1/2-x,1/2+y,1/2+z
1/2+x,1/2-y,1/2+z
loop_
_atom_site_type_symbol
_atom_site_label
_atom_site_fract_x
_atom_site_fract_y
_atom_site_fract_z
Si Si1 0.393820 0.416478 0.500000
Si Si2 0.891521 0.528258 0.893708
Si Si3 0.290818 0.565725 0.815017
Si Si4 0.743471 0.160059 0.650492
Si Si5 0.387811 0.599304 0.500000
O O1 0.343347 0.404218 0.595973
O O2 0.396792 0.508538 0.500000
O O3 0.499271 0.375133 0.500000
O O4 0.808834 0.475982 0.847838
O O5 0.858423 0.615290 0.872299
O O6 0.000000 0.500000 0.866551
O O7 0.883726 0.518898 0.000000
O O8 0.340021 0.500000 0.750000
O O9 0.268839 0.635500 0.750179
O O10 0.750000 0.250000 0.637761
O O11 0.825091 0.124584 0.584734
#
# Coordination Sequence:
#
# PCOD9496499 Si02
#       5
#     8  16  16  16   8
#     4  11  20  38  59  86 122 149 209 244 290 355
#     4  10  19  36  63  90 112 155 204 249 295 355
#     4  10  19  37  58  87 118 156 199 247 293 358
#     4  11  22  39  62  89 122 155 200 249 306 358
#     4  11  21  36  60  90 116 157 194 250 299 353
#
# _framework density 17.892108
#
# number of rings (size 3 to 8) (size 9 to 14) (size 15 to 20)
#    0.000    1.500    7.500    0.375    0.000    5.500 
#    0.000    5.625    0.000    0.000    0.000    0.000 
#    0.000    0.000    0.000    0.000    0.000    0.000 
#
# Total GULP energy -178203.872218 kJ/mol
# GULP energy per Si atom -5568.871007 kJ/mol
# Density = 1.785138 g / cm^3
# Si number density = 17.892108 Si / 1000 Ang^3
#
#
#
# Elastic Constant Matrix: (Units=GPa)
#
#
# Indices 1 2 3 4 5 6 
#
# 1 100.9038 46.1938 50.8062 0.0000 0.0000 0.0000
# 2 46.1938 91.2637 22.0653 0.0000 0.0000 0.0000
# 3 50.8062 22.0653 138.0994 0.0000 0.0000 0.0000
# 4 0.0000 0.0000 0.0000 97.0700 0.0000 0.0000
# 5 0.0000 0.0000 0.0000 0.0000 -23.5342 0.0000
# 6 0.0000 0.0000 0.0000 0.0000 0.0000 15.2932
#
#
#
# Elastic Compliance Matrix: (Units=1/GPa)
#
#
# Indices 1 2 3 4 5 6 
#
# 1 0.015223 -0.006607 -0.004545 0.000000 0.000000 0.000000
# 2 -0.006607 0.014265 0.000151 0.000000 0.000000 0.000000
# 3 -0.004545 0.000151 0.008889 0.000000 0.000000 0.000000
# 4 0.000000 0.000000 0.000000 0.010302 0.000000 0.000000
# 5 0.000000 0.000000 0.000000 0.000000 -0.042491 0.000000
# 6 0.000000 0.000000 0.000000 0.000000 0.000000 0.065388
#
#
# Mechanical properties :
#
#
# Convention : Reuss Voigt Hill
#
# Bulk Modulus (GPa) = 61.06274 63.15529 62.10902
# Shear Modulus (GPa) = 50.48702 31.84591 41.16646
#
# Velocity S-wave (km/s) = 5.31778 4.22345 4.80189
# Velocity P-wave (km/s) = 8.47982 7.69141 8.09522
#
# Compressibility (1/GPa) = 0.01637660
#
# Stress axis : x y z
#
# Youngs Moduli (GPa) = 65.68837 70.10346 112.49755
#
# Poissons Ratio (x) = 0.46314 0.51131
# Poissons Ratio (y) = 0.43397 -0.01703
# Poissons Ratio (z) = 0.29856 -0.01061
#
# Static dielectric constant tensor:
#      x y z
#    x 1.654220 0.000000 0.000000 
#    y 0.000000 1.601360 0.000000 
#    z 0.000000 0.000000 1.660720 
# 
# From -- ./inp_files/27901.got.cif
#   From: 2010.05.17/outbox.cif.g08.bks.cpg/sg66_14_cif.got.tgz:27901.got - 2010.06.03 17:51:23.
