data_PCOD9496595
_publ_section_title
;
Structure prediction by ZEFSAII (Michael W. Deem and Ramdas Pophale) SiO2 
 PCOD9496595
Probable space group: C C C M
;
_chemical_formula_sum "Si O2"
_cell_formula_units_Z 60
_cell_length_a 11.698297
_cell_length_b 8.958618
_cell_length_c 22.844113
_cell_angle_alpha 90.000000
_cell_angle_beta 90.000000
_cell_angle_gamma 90.000000
_cell_volume 2394.076157
_symmetry_space_group_name_H-M "C C C M"
_symmetry_group_IT_number 66
_symmetry_cell_setting 'orthorhombic'
loop_
_space_group_symop_operation_xyz
x,y,z
-x,-y,z
x,-y,1/2-z
-x,y,1/2-z
-x,-y,-z
x,y,-z
-x,y,1/2+z
x,-y,1/2+z
1/2+x,1/2+y,z
1/2-x,1/2-y,z
1/2+x,1/2-y,1/2-z
1/2-x,1/2+y,1/2-z
1/2-x,1/2-y,-z
1/2+x,1/2+y,-z
1/2-x,1/2+y,1/2+z
1/2+x,1/2-y,1/2+z
loop_
_atom_site_type_symbol
_atom_site_label
_atom_site_fract_x
_atom_site_fract_y
_atom_site_fract_z
Si Si1 0.290700 0.419263 0.816743
Si Si2 0.000000 0.000000 0.750000
Si Si3 0.250000 0.250000 0.342633
Si Si4 0.379354 0.414575 0.937134
Si Si5 0.453067 0.158980 0.568690
O O1 0.250000 0.250000 0.808193
O O2 0.419489 0.409219 0.792768
O O3 0.253457 0.595079 0.802427
O O4 0.292781 0.443390 0.886351
O O5 0.360600 0.228390 0.385705
O O6 0.500000 0.500000 0.931681
O O7 0.428531 0.250180 0.933292
O O8 0.329228 0.449887 0.000000
O O9 0.411982 0.157430 0.500000
O O10 0.500000 0.000000 0.588602
#
# Coordination Sequence:
#
# PCOD9496595 Si02
#       5
#    16   4   8  16  16
#     4  12  27  47  75 106 139 188 245 298 369 439
#     4  12  28  56  76  98 152 186 236 326 362 422
#     4  12  23  40  70 102 134 176 243 296 350 426
#     4  10  19  39  65  95 143 189 220 281 362 418
#     4  10  20  34  58  96 143 191 234 278 342 424
#
# _framework density 25.061858999999998
#
# number of rings (size 3 to 8) (size 9 to 14) (size 15 to 20)
#    0.000    1.067    4.000    2.000    1.867    1.600 
#    0.000    1.333    0.000    0.000    0.000    0.000 
#    0.000    0.000    0.000    0.000    0.000    0.000 
#
# Total GULP energy -167186.552004 kJ/mol
# GULP energy per Si atom -5572.885067 kJ/mol
# Density = 2.500482 g / cm^3
# Si number density = 25.061859 Si / 1000 Ang^3
#
#
#
# Elastic Constant Matrix: (Units=GPa)
#
#
# Indices 1 2 3 4 5 6 
#
# 1 62.0079 35.2353 17.4362 0.0000 0.0000 0.0000
# 2 35.2353 216.7162 39.6859 0.0000 0.0000 0.0000
# 3 17.4362 39.6859 44.5793 0.0000 0.0000 0.0000
# 4 0.0000 0.0000 0.0000 -6.2244 0.0000 0.0000
# 5 0.0000 0.0000 0.0000 0.0000 34.3757 0.0000
# 6 0.0000 0.0000 0.0000 0.0000 0.0000 45.4827
#
#
#
# Elastic Compliance Matrix: (Units=1/GPa)
#
#
# Indices 1 2 3 4 5 6 
#
# 1 0.018852 -0.002049 -0.005550 0.000000 0.000000 0.000000
# 2 -0.002049 0.005736 -0.004305 0.000000 0.000000 0.000000
# 3 -0.005550 -0.004305 0.028435 0.000000 0.000000 0.000000
# 4 0.000000 0.000000 0.000000 -0.160659 0.000000 0.000000
# 5 0.000000 0.000000 0.000000 0.000000 0.029090 0.000000
# 6 0.000000 0.000000 0.000000 0.000000 0.000000 0.021986
#
#
# Mechanical properties :
#
#
# Convention : Reuss Voigt Hill
#
# Bulk Modulus (GPa) = 34.22782 56.44645 45.33714
# Shear Modulus (GPa) = -217.24783 30.12321 -93.56231
#
# Velocity S-wave (km/s) = -9.32056 3.47068 -6.11667
# Velocity P-wave (km/s) = 10.10660 6.21551 5.63520
#
# Compressibility (1/GPa) = 0.02921600
#
# Stress axis : x y z
#
# Youngs Moduli (GPa) = 53.04569 174.34507 35.16818
#
# Poissons Ratio (x) = 0.35720 0.19517
# Poissons Ratio (y) = 0.10868 0.15139
# Poissons Ratio (z) = 0.29438 0.75052
#
# Static dielectric constant tensor:
#      x y z
#    x 1.932820 0.000000 0.000000 
#    y 0.000000 2.389950 0.000000 
#    z 0.000000 0.000000 2.246780 
# 
# From -- ./inp_files/63267.got.cif
#   From: 2010.05.17/outbox.cif.g08.bks.cpg/sg66_32_cif.got.tgz:63267.got - 2010.06.03 17:51:23.
