data_PCOD9496893
_publ_section_title
;
Structure prediction by ZEFSAII (Michael W. Deem and Ramdas Pophale) SiO2 
 PCOD9496893
Probable space group: C C C M
;
_chemical_formula_sum "Si O2"
_cell_formula_units_Z 64
_cell_length_a 19.110186
_cell_length_b 11.213073
_cell_length_c 16.002092
_cell_angle_alpha 90.000000
_cell_angle_beta 90.000000
_cell_angle_gamma 90.000000
_cell_volume 3428.990853
_symmetry_space_group_name_H-M "C C C M"
_symmetry_group_IT_number 66
_symmetry_cell_setting 'orthorhombic'
loop_
_space_group_symop_operation_xyz
x,y,z
-x,-y,z
x,-y,1/2-z
-x,y,1/2-z
-x,-y,-z
x,y,-z
-x,y,1/2+z
x,-y,1/2+z
1/2+x,1/2+y,z
1/2-x,1/2-y,z
1/2+x,1/2-y,1/2-z
1/2-x,1/2+y,1/2-z
1/2-x,1/2-y,-z
1/2+x,1/2+y,-z
1/2-x,1/2+y,1/2+z
1/2+x,1/2-y,1/2+z
loop_
_atom_site_type_symbol
_atom_site_label
_atom_site_fract_x
_atom_site_fract_y
_atom_site_fract_z
Si Si1 0.636855 0.192837 0.500000
Si Si2 0.151566 0.655224 0.189194
Si Si3 0.712648 0.442114 0.500000
Si Si4 0.576637 0.943504 0.853887
Si Si5 0.810158 0.082501 0.174354
O O1 0.660824 0.328959 0.500000
O O2 0.709295 0.115576 0.500000
O O3 0.589736 0.156099 0.577930
O O4 0.124417 0.558387 0.123166
O O5 0.105678 0.618922 0.269718
O O6 0.147653 0.793515 0.166413
O O7 0.232401 0.622429 0.204170
O O8 0.698959 0.516803 0.414748
O O9 0.500000 0.000000 0.847778
O O10 0.837942 0.000000 0.250000
#
# Coordination Sequence:
#
# PCOD9496893 Si02
#       5
#     8  16   8  16  16
#     4  11  21  37  57  88 118 155 198 247 307 356
#     4  10  20  34  55  82 115 147 196 239 297 352
#     4  11  22  36  60  87 127 156 192 253 308 362
#     4  11  21  38  59  84 116 155 204 247 292 354
#     4  11  20  35  57  85 120 153 189 253 302 365
#
# _framework density 18.664383999999998
#
# number of rings (size 3 to 8) (size 9 to 14) (size 15 to 20)
#    0.000    1.250    5.000    3.375    0.000    7.000 
#    0.000    0.000    0.000   12.000    0.000    0.000 
#    0.000    0.000    0.000    0.000    0.000    0.000 
#
# Total GULP energy -178255.667555 kJ/mol
# GULP energy per Si atom -5570.489611 kJ/mol
# Density = 1.862190 g / cm^3
# Si number density = 18.664384 Si / 1000 Ang^3
#
#
#
# Elastic Constant Matrix: (Units=GPa)
#
#
# Indices 1 2 3 4 5 6 
#
# 1 75.4720 37.8801 20.2624 0.0000 0.0000 0.0000
# 2 37.8801 155.4543 56.7149 0.0000 0.0000 0.0000
# 3 20.2624 56.7149 113.1669 0.0000 0.0000 0.0000
# 4 0.0000 0.0000 0.0000 20.1254 0.0000 0.0000
# 5 0.0000 0.0000 0.0000 0.0000 12.8302 0.0000
# 6 0.0000 0.0000 0.0000 0.0000 0.0000 27.3093
#
#
#
# Elastic Compliance Matrix: (Units=1/GPa)
#
#
# Indices 1 2 3 4 5 6 
#
# 1 0.015199 -0.003317 -0.001059 0.000000 0.000000 0.000000
# 2 -0.003317 0.008596 -0.003714 0.000000 0.000000 0.000000
# 3 -0.001059 -0.003714 0.010887 0.000000 0.000000 0.000000
# 4 0.000000 0.000000 0.000000 0.049688 0.000000 0.000000
# 5 0.000000 0.000000 0.000000 0.000000 0.077941 0.000000
# 6 0.000000 0.000000 0.000000 0.000000 0.000000 0.036618
#
#
# Mechanical properties :
#
#
# Convention : Reuss Voigt Hill
#
# Bulk Modulus (GPa) = 54.04760 63.75645 58.90202
# Shear Modulus (GPa) = 22.59603 27.33537 24.96570
#
# Velocity S-wave (km/s) = 3.48321 3.83113 3.66131
# Velocity P-wave (km/s) = 6.72291 7.33509 7.03566
#
# Compressibility (1/GPa) = 0.01850221
#
# Stress axis : x y z
#
# Youngs Moduli (GPa) = 65.79281 116.33144 91.84887
#
# Poissons Ratio (x) = 0.38591 0.09726
# Poissons Ratio (y) = 0.21826 0.34113
# Poissons Ratio (z) = 0.06967 0.43206
#
# Static dielectric constant tensor:
#      x y z
#    x 1.656000 0.000000 0.000000 
#    y 0.000000 1.668340 0.000000 
#    z 0.000000 0.000000 1.724550 
# 
# From -- ./inp_files/41241.got.cif
#   From: 2010.05.17/outbox.cif.g08.bks.cpg/sg66_21_cif.got.tgz:41241.got - 2010.06.03 17:51:23.
