data_PCOD9496978
_publ_section_title
;
Structure prediction by ZEFSAII (Michael W. Deem and Ramdas Pophale) SiO2 
 PCOD9496978
Probable space group: C C C M
;
_chemical_formula_sum "Si O2"
_cell_formula_units_Z 88
_cell_length_a 17.200166
_cell_length_b 11.971443
_cell_length_c 23.978389
_cell_angle_alpha 90.000000
_cell_angle_beta 90.000000
_cell_angle_gamma 90.000000
_cell_volume 4937.409426
_symmetry_space_group_name_H-M "C C C M"
_symmetry_group_IT_number 66
_symmetry_cell_setting 'orthorhombic'
loop_
_space_group_symop_operation_xyz
x,y,z
-x,-y,z
x,-y,1/2-z
-x,y,1/2-z
-x,-y,-z
x,y,-z
-x,y,1/2+z
x,-y,1/2+z
1/2+x,1/2+y,z
1/2-x,1/2-y,z
1/2+x,1/2-y,1/2-z
1/2-x,1/2+y,1/2-z
1/2-x,1/2-y,-z
1/2+x,1/2+y,-z
1/2-x,1/2+y,1/2+z
1/2+x,1/2-y,1/2+z
loop_
_atom_site_type_symbol
_atom_site_label
_atom_site_fract_x
_atom_site_fract_y
_atom_site_fract_z
Si Si1 0.210059 0.861214 0.880921
Si Si2 0.355115 0.278404 0.500000
Si Si3 0.698639 0.921157 0.094299
Si Si4 0.907296 0.999670 0.184873
Si Si5 0.857390 0.816503 0.099803
Si Si6 0.973740 0.870325 0.000000
Si Si7 0.093809 0.520105 0.000000
O O1 0.250000 0.750000 0.858203
O O2 0.133718 0.898508 0.847488
O O3 0.270240 0.965210 0.877146
O O4 0.185532 0.830777 0.944905
O O5 0.444273 0.311532 0.500000
O O6 0.366143 0.143898 0.500000
O O7 0.780218 0.870763 0.071581
O O8 0.661349 0.808859 0.119993
O O9 0.632560 0.959471 0.052267
O O10 0.887156 0.000000 0.250000
O O11 0.876329 0.890635 0.153356
O O12 0.000000 0.000000 0.179188
O O13 0.924727 0.833506 0.054271
O O14 0.000000 0.000000 0.000000
O O15 0.000000 0.500000 0.000000
#
# Coordination Sequence:
#
# PCOD9496978 Si02
#       7
#    16   8  16  16  16   8   8
#     4  11  21  39  60  88 116 161 196 244 301 354
#     4  12  22  33  56  83 125 157 195 238 292 371
#     4  10  20  35  53  78 113 150 192 237 287 348
#     4  10  22  41  64  88 114 150 198 253 305 357
#     4  10  20  36  58  83 114 150 192 243 300 351
#     4  12  21  32  53  89 115 155 193 242 291 365
#     4  12  22  32  48  79 123 164 194 230 291 359
#
# _framework density 17.823112999999999
#
# number of rings (size 3 to 8) (size 9 to 14) (size 15 to 20)
#    0.000    1.273    1.818    6.818    0.000    1.455 
#    6.545    0.000    0.000    0.000    0.000    2.545 
#    0.000    0.000    0.000    0.000    0.000    0.000 
#
# Total GULP energy -245023.820610 kJ/mol
# GULP energy per Si atom -5568.723196 kJ/mol
# Density = 1.778255 g / cm^3
# Si number density = 17.823113 Si / 1000 Ang^3
#
#
#
# Elastic Constant Matrix: (Units=GPa)
#
#
# Indices 1 2 3 4 5 6 
#
# 1 113.4371 42.6971 46.4295 0.0000 0.0000 0.0000
# 2 42.6971 155.1624 43.0208 0.0000 0.0000 0.0000
# 3 46.4295 43.0208 96.0971 0.0000 0.0000 0.0000
# 4 0.0000 0.0000 0.0000 1.9849 0.0000 0.0000
# 5 0.0000 0.0000 0.0000 0.0000 -35.1144 0.0000
# 6 0.0000 0.0000 0.0000 0.0000 0.0000 33.9783
#
#
#
# Elastic Compliance Matrix: (Units=1/GPa)
#
#
# Indices 1 2 3 4 5 6 
#
# 1 0.011432 -0.001843 -0.004698 0.000000 0.000000 0.000000
# 2 -0.001843 0.007655 -0.002537 0.000000 0.000000 0.000000
# 3 -0.004698 -0.002537 0.013812 0.000000 0.000000 0.000000
# 4 0.000000 0.000000 0.000000 0.503798 0.000000 0.000000
# 5 0.000000 0.000000 0.000000 0.000000 -0.028478 0.000000
# 6 0.000000 0.000000 0.000000 0.000000 0.000000 0.029431
#
#
# Mechanical properties :
#
#
# Convention : Reuss Voigt Hill
#
# Bulk Modulus (GPa) = 67.82863 69.88794 68.85828
# Shear Modulus (GPa) = 8.91711 15.67305 12.29508
#
# Velocity S-wave (km/s) = 2.23919 2.96863 2.62933
# Velocity P-wave (km/s) = 6.69511 7.14475 6.92358
#
# Compressibility (1/GPa) = 0.01474304
#
# Stress axis : x y z
#
# Youngs Moduli (GPa) = 87.47180 130.62707 72.40207
#
# Poissons Ratio (x) = 0.24077 0.34017
# Poissons Ratio (y) = 0.16123 0.18366
# Poissons Ratio (z) = 0.41097 0.33135
#
# Static dielectric constant tensor:
#      x y z
#    x 1.677230 0.000000 0.000000 
#    y 0.000000 3.526560 0.000000 
#    z 0.000000 0.000000 1.588070 
# 
# From -- ./inp_files/50950.got.cif
#   From: 2010.05.17/outbox.cif.g08.bks.cpg/sg66_26_cif.got.tgz:50950.got - 2010.06.03 17:51:23.
