data_PCOD9496581
_publ_section_title
;
Structure prediction by ZEFSAII (Michael W. Deem and Ramdas Pophale) SiO2 
 PCOD9496581
Probable space group: C C C M
;
_chemical_formula_sum "Si O2"
_cell_formula_units_Z 104
_cell_length_a 19.983905
_cell_length_b 8.982887
_cell_length_c 29.794666
_cell_angle_alpha 90.000000
_cell_angle_beta 90.000000
_cell_angle_gamma 90.000000
_cell_volume 5348.534658
_symmetry_space_group_name_H-M "C C C M"
_symmetry_group_IT_number 66
_symmetry_cell_setting 'orthorhombic'
loop_
_space_group_symop_operation_xyz
x,y,z
-x,-y,z
x,-y,1/2-z
-x,y,1/2-z
-x,-y,-z
x,y,-z
-x,y,1/2+z
x,-y,1/2+z
1/2+x,1/2+y,z
1/2-x,1/2-y,z
1/2+x,1/2-y,1/2-z
1/2-x,1/2+y,1/2-z
1/2-x,1/2-y,-z
1/2+x,1/2+y,-z
1/2-x,1/2+y,1/2+z
1/2+x,1/2-y,1/2+z
loop_
_atom_site_type_symbol
_atom_site_label
_atom_site_fract_x
_atom_site_fract_y
_atom_site_fract_z
Si Si1 0.750000 0.750000 0.833867
Si Si2 0.450738 0.138083 0.374938
Si Si3 0.325173 0.764476 0.162016
Si Si4 0.467803 0.659685 0.686715
Si Si5 0.857608 0.046726 0.376709
Si Si6 0.640230 0.165585 0.739025
Si Si7 0.064938 0.105857 0.551407
O O1 0.790931 0.864076 0.864886
O O2 0.695600 0.827605 0.800730
O O3 0.372638 0.113431 0.361995
O O4 0.478953 0.220662 0.330486
O O5 0.448848 0.252071 0.416791
O O6 0.500000 0.000000 0.383315
O O7 0.250000 0.750000 0.144314
O O8 0.356510 0.603936 0.152131
O O9 0.325280 0.785628 0.215009
O O10 0.500000 0.500000 0.696891
O O11 0.419880 0.638082 0.643195
O O12 0.420127 0.726150 0.724902
O O13 0.875027 0.989994 0.426286
O O14 0.615395 0.000000 0.750000
O O15 0.078159 0.147326 0.500000
O O16 0.000000 0.000000 0.552868
#
# Coordination Sequence:
#
# PCOD9496581 Si02
#       7
#     8  16  16  16  16  16  16
#     4  10  22  32  61  84 124 162 209 248 296 372
#     4  11  22  39  62  90 126 158 199 258 315 370
#     4  11  22  39  57  83 123 166 207 242 310 364
#     4  11  20  41  61  85 115 158 211 255 304 368
#     4  10  20  39  60  88 115 158 198 251 305 370
#     4  11  23  37  56  87 123 160 213 261 299 352
#     4  10  19  38  67  92 118 151 197 254 315 382
#
# _framework density 19.444579000000001
#
# number of rings (size 3 to 8) (size 9 to 14) (size 15 to 20)
#    0.000    1.385    5.385    1.846    0.000    4.000 
#    2.769    1.923    0.000    7.385    0.000    0.000 
#    0.000    0.000    0.000    0.000    0.000    0.000 
#
# Total GULP energy -290276.914455 kJ/mol
# GULP energy per Si atom -5582.248355 kJ/mol
# Density = 1.940032 g / cm^3
# Si number density = 19.444579 Si / 1000 Ang^3
#
#
#
# Elastic Constant Matrix: (Units=GPa)
#
#
# Indices 1 2 3 4 5 6 
#
# 1 118.8664 47.1583 41.5859 0.0000 0.0000 0.0000
# 2 47.1583 87.8066 44.2339 0.0000 0.0000 0.0000
# 3 41.5859 44.2339 111.8562 0.0000 0.0000 0.0000
# 4 0.0000 0.0000 0.0000 19.1781 0.0000 0.0000
# 5 0.0000 0.0000 0.0000 0.0000 21.5886 0.0000
# 6 0.0000 0.0000 0.0000 0.0000 0.0000 35.3762
#
#
#
# Elastic Compliance Matrix: (Units=1/GPa)
#
#
# Indices 1 2 3 4 5 6 
#
# 1 0.011112 -0.004854 -0.002212 0.000000 0.000000 0.000000
# 2 -0.004854 0.016342 -0.004658 0.000000 0.000000 0.000000
# 3 -0.002212 -0.004658 0.011604 0.000000 0.000000 0.000000
# 4 0.000000 0.000000 0.000000 0.052143 0.000000 0.000000
# 5 0.000000 0.000000 0.000000 0.000000 0.046321 0.000000
# 6 0.000000 0.000000 0.000000 0.000000 0.000000 0.028268
#
#
# Mechanical properties :
#
#
# Convention : Reuss Voigt Hill
#
# Bulk Modulus (GPa) = 64.05568 64.94282 64.49925
# Shear Modulus (GPa) = 25.71473 27.59865 26.65669
#
# Velocity S-wave (km/s) = 3.64051 3.77151 3.70659
# Velocity P-wave (km/s) = 7.11936 7.24135 7.18062
#
# Compressibility (1/GPa) = 0.01561142
#
# Stress axis : x y z
#
# Youngs Moduli (GPa) = 89.99021 61.19190 86.17442
#
# Poissons Ratio (x) = 0.29702 0.19061
# Poissons Ratio (y) = 0.43680 0.40140
# Poissons Ratio (z) = 0.19905 0.28503
#
# Static dielectric constant tensor:
#      x y z
#    x 1.804140 0.000000 0.000000 
#    y 0.000000 1.726960 0.000000 
#    z 0.000000 0.000000 1.664250 
# 
# From -- ./inp_files/70203.got.cif
#   From: 2010.05.17/outbox.cif.g08.bks.cpg/sg66_36_cif.got.tgz:70203.got - 2010.06.03 17:51:23.
