data_PCOD9496853
_publ_section_title
;
Structure prediction by ZEFSAII (Michael W. Deem and Ramdas Pophale) SiO2 
 PCOD9496853
Probable space group: C C C M
;
_chemical_formula_sum "Si O2"
_cell_formula_units_Z 80
_cell_length_a 8.598358
_cell_length_b 16.405542
_cell_length_c 29.384080
_cell_angle_alpha 90.000000
_cell_angle_beta 90.000000
_cell_angle_gamma 90.000000
_cell_volume 4144.939578
_symmetry_space_group_name_H-M "C C C M"
_symmetry_group_IT_number 66
_symmetry_cell_setting 'orthorhombic'
loop_
_space_group_symop_operation_xyz
x,y,z
-x,-y,z
x,-y,1/2-z
-x,y,1/2-z
-x,-y,-z
x,y,-z
-x,y,1/2+z
x,-y,1/2+z
1/2+x,1/2+y,z
1/2-x,1/2-y,z
1/2+x,1/2-y,1/2-z
1/2-x,1/2+y,1/2-z
1/2-x,1/2-y,-z
1/2+x,1/2+y,-z
1/2-x,1/2+y,1/2+z
1/2+x,1/2-y,1/2+z
loop_
_atom_site_type_symbol
_atom_site_label
_atom_site_fract_x
_atom_site_fract_y
_atom_site_fract_z
Si Si1 0.932506 0.269451 0.199385
Si Si2 0.952133 0.405819 0.632743
Si Si3 0.545575 0.592313 0.551484
Si Si4 0.860196 0.827279 0.869279
Si Si5 0.359566 0.171288 0.552373
O O1 0.750000 0.250000 0.199293
O O2 0.966637 0.354111 0.173038
O O3 0.000000 0.273667 0.250000
O O4 0.027483 0.200001 0.171612
O O5 0.008931 0.356828 0.587339
O O6 0.000000 0.500000 0.630804
O O7 0.766441 0.397588 0.639593
O O8 0.500000 0.500000 0.560199
O O9 0.499141 0.614815 0.500000
O O10 0.462836 0.649368 0.587699
O O11 0.730808 0.600268 0.553836
O O12 0.750000 0.750000 0.877958
O O13 0.412649 0.182636 0.500000
O O14 0.250000 0.250000 0.564195
#
# Coordination Sequence:
#
# PCOD9496853 Si02
#       5
#    16  16  16  16  16
#     4  11  23  43  66  85 111 147 190 238 293 358
#     4  11  22  36  58  88 120 152 189 241 296 345
#     4  10  20  34  53  79 114 154 192 233 282 335
#     4  10  21  36  57  85 113 146 192 233 282 341
#     4  10  20  35  55  80 114 159 204 240 284 343
#
# _framework density 19.300644999999999
#
# number of rings (size 3 to 8) (size 9 to 14) (size 15 to 20)
#    0.000    1.600    0.000    7.200    0.000    2.000 
#    0.000    0.000    0.000    4.200    0.000    0.000 
#    0.000    0.000    0.000    0.000    0.000    0.000 
#
# Total GULP energy -223276.315798 kJ/mol
# GULP energy per Si atom -5581.907895 kJ/mol
# Density = 1.925672 g / cm^3
# Si number density = 19.300645 Si / 1000 Ang^3
#
#
#
# Elastic Constant Matrix: (Units=GPa)
#
#
# Indices 1 2 3 4 5 6 
#
# 1 125.0470 42.9648 64.4638 0.0000 0.0000 0.0000
# 2 42.9648 77.3036 49.8054 0.0000 0.0000 0.0000
# 3 64.4638 49.8054 144.3682 0.0000 0.0000 0.0000
# 4 0.0000 0.0000 0.0000 20.8420 0.0000 0.0000
# 5 0.0000 0.0000 0.0000 0.0000 41.3329 0.0000
# 6 0.0000 0.0000 0.0000 0.0000 0.0000 26.9129
#
#
#
# Elastic Compliance Matrix: (Units=1/GPa)
#
#
# Indices 1 2 3 4 5 6 
#
# 1 0.011221 -0.003868 -0.003676 0.000000 0.000000 0.000000
# 2 -0.003868 0.017967 -0.004471 0.000000 0.000000 0.000000
# 3 -0.003676 -0.004471 0.010111 0.000000 0.000000 0.000000
# 4 0.000000 0.000000 0.000000 0.047980 0.000000 0.000000
# 5 0.000000 0.000000 0.000000 0.000000 0.024194 0.000000
# 6 0.000000 0.000000 0.000000 0.000000 0.000000 0.037157
#
#
# Mechanical properties :
#
#
# Convention : Reuss Voigt Hill
#
# Bulk Modulus (GPa) = 65.49733 73.46520 69.48127
# Shear Modulus (GPa) = 28.12959 30.44987 29.28973
#
# Velocity S-wave (km/s) = 3.82179 3.97629 3.89980
# Velocity P-wave (km/s) = 7.31326 7.69593 7.50703
#
# Compressibility (1/GPa) = 0.01526780
#
# Stress axis : x y z
#
# Youngs Moduli (GPa) = 89.11776 55.65903 98.90612
#
# Poissons Ratio (x) = 0.21530 0.36358
# Poissons Ratio (y) = 0.34473 0.44221
# Poissons Ratio (z) = 0.32760 0.24885
#
# Static dielectric constant tensor:
#      x y z
#    x 1.686680 0.000000 0.000000 
#    y 0.000000 1.708850 0.000000 
#    z 0.000000 0.000000 1.670560 
# 
# From -- ./inp_files/62364.got.cif
#   From: 2010.05.17/outbox.cif.g08.bks.cpg/sg66_32_cif.got.tgz:62364.got - 2010.06.03 17:51:23.
