data_PCOD9496343
_publ_section_title
;
Structure prediction by ZEFSAII (Michael W. Deem and Ramdas Pophale) SiO2 
 PCOD9496343
Probable space group: C C C M
;
_chemical_formula_sum "Si O2"
_cell_formula_units_Z 96
_cell_length_a 26.278893
_cell_length_b 11.641935
_cell_length_c 16.496258
_cell_angle_alpha 90.000000
_cell_angle_beta 90.000000
_cell_angle_gamma 90.000000
_cell_volume 5046.818392
_symmetry_space_group_name_H-M "C C C M"
_symmetry_group_IT_number 66
_symmetry_cell_setting 'orthorhombic'
loop_
_space_group_symop_operation_xyz
x,y,z
-x,-y,z
x,-y,1/2-z
-x,y,1/2-z
-x,-y,-z
x,y,-z
-x,y,1/2+z
x,-y,1/2+z
1/2+x,1/2+y,z
1/2-x,1/2-y,z
1/2+x,1/2-y,1/2-z
1/2-x,1/2+y,1/2-z
1/2-x,1/2-y,-z
1/2+x,1/2+y,-z
1/2-x,1/2+y,1/2+z
1/2+x,1/2-y,1/2+z
loop_
_atom_site_type_symbol
_atom_site_label
_atom_site_fract_x
_atom_site_fract_y
_atom_site_fract_z
Si Si1 0.676401 0.963379 0.841665
Si Si2 0.653102 0.574562 0.331365
Si Si3 0.219719 0.100358 0.907251
Si Si4 0.443550 0.458767 0.098075
Si Si5 0.379393 0.755273 0.403503
Si Si6 0.190728 0.284497 0.592338
O O1 0.730136 0.896841 0.853633
O O2 0.630637 0.879344 0.866318
O O3 0.671332 0.000000 0.750000
O O4 0.681930 0.080225 0.893281
O O5 0.662942 0.500000 0.250000
O O6 0.693391 0.522809 0.395432
O O7 0.597121 0.542754 0.361119
O O8 0.662364 0.709908 0.338027
O O9 0.172902 0.184384 0.888329
O O10 0.235534 0.118223 0.000000
O O11 0.500000 0.500000 0.119006
O O12 0.425042 0.330023 0.122904
O O13 0.438163 0.464073 0.000000
O O14 0.383863 0.769047 0.500000
O O15 0.173562 0.256966 0.500000
O O16 0.250000 0.250000 0.598693
#
# Coordination Sequence:
#
# PCOD9496343 Si02
#       6
#    16  16  16  16  16  16
#     4  12  24  32  51  80 121 163 203 242 288 349
#     4  11  22  35  57  84 116 147 190 249 296 345
#     4  10  19  35  55  76 110 157 202 241 286 343
#     4   9  19  38  65  88 107 137 183 243 306 365
#     4   9  19  35  57  81 112 149 196 248 302 361
#     4  11  23  37  54  77 118 169 209 239 284 356
#
# _framework density 19.021885999999999
#
# number of rings (size 3 to 8) (size 9 to 14) (size 15 to 20)
#    0.000    1.667    1.667    5.000    4.667    1.667 
#    0.000    0.000    0.000    1.000    0.000    5.833 
#    0.000    0.000    0.000    0.000    0.000    0.000 
#
# Total GULP energy -267789.466732 kJ/mol
# GULP energy per Si atom -5578.947224 kJ/mol
# Density = 1.897859 g / cm^3
# Si number density = 19.021886 Si / 1000 Ang^3
#
#
#
# Elastic Constant Matrix: (Units=GPa)
#
#
# Indices 1 2 3 4 5 6 
#
# 1 95.5538 47.5791 34.2438 0.0000 0.0000 0.0000
# 2 47.5791 101.4446 41.7614 0.0000 0.0000 0.0000
# 3 34.2438 41.7614 63.2691 0.0000 0.0000 0.0000
# 4 0.0000 0.0000 0.0000 73.2371 0.0000 0.0000
# 5 0.0000 0.0000 0.0000 0.0000 3.2790 0.0000
# 6 0.0000 0.0000 0.0000 0.0000 0.0000 17.9761
#
#
#
# Elastic Compliance Matrix: (Units=1/GPa)
#
#
# Indices 1 2 3 4 5 6 
#
# 1 0.014582 -0.004930 -0.004639 0.000000 0.000000 0.000000
# 2 -0.004930 0.015202 -0.007366 0.000000 0.000000 0.000000
# 3 -0.004639 -0.007366 0.023178 0.000000 0.000000 0.000000
# 4 0.000000 0.000000 0.000000 0.013654 0.000000 0.000000
# 5 0.000000 0.000000 0.000000 0.000000 0.304970 0.000000
# 6 0.000000 0.000000 0.000000 0.000000 0.000000 0.055629
#
#
# Mechanical properties :
#
#
# Convention : Reuss Voigt Hill
#
# Bulk Modulus (GPa) = 52.37343 56.38179 54.37761
# Shear Modulus (GPa) = 10.69634 28.01065 19.35350
#
# Velocity S-wave (km/s) = 2.37390 3.84154 3.19318
# Velocity P-wave (km/s) = 5.92510 7.02719 6.49955
#
# Compressibility (1/GPa) = 0.01909365
#
# Stress axis : x y z
#
# Youngs Moduli (GPa) = 68.57612 65.78028 43.14399
#
# Poissons Ratio (x) = 0.32428 0.20013
# Poissons Ratio (y) = 0.33807 0.31780
# Poissons Ratio (z) = 0.31810 0.48454
#
# Static dielectric constant tensor:
#      x y z
#    x 1.629190 0.000000 0.000000 
#    y 0.000000 1.742890 0.000000 
#    z 0.000000 0.000000 1.770950 
# 
# From -- ./inp_files/43574.got.cif
#   From: 2010.05.17/outbox.cif.g08.bks.cpg/sg66_22_cif.got.tgz:43574.got - 2010.06.03 17:51:23.
