data_PCOD9496776
_publ_section_title
;
Structure prediction by ZEFSAII (Michael W. Deem and Ramdas Pophale) SiO2 
 PCOD9496776
Probable space group: C C C M
;
_chemical_formula_sum "Si O2"
_cell_formula_units_Z 96
_cell_length_a 8.409377
_cell_length_b 24.836915
_cell_length_c 22.464936
_cell_angle_alpha 90.000000
_cell_angle_beta 90.000000
_cell_angle_gamma 90.000000
_cell_volume 4692.093518
_symmetry_space_group_name_H-M "C C C M"
_symmetry_group_IT_number 66
_symmetry_cell_setting 'orthorhombic'
loop_
_space_group_symop_operation_xyz
x,y,z
-x,-y,z
x,-y,1/2-z
-x,y,1/2-z
-x,-y,-z
x,y,-z
-x,y,1/2+z
x,-y,1/2+z
1/2+x,1/2+y,z
1/2-x,1/2-y,z
1/2+x,1/2-y,1/2-z
1/2-x,1/2+y,1/2-z
1/2-x,1/2-y,-z
1/2+x,1/2+y,-z
1/2-x,1/2+y,1/2+z
1/2+x,1/2-y,1/2+z
loop_
_atom_site_type_symbol
_atom_site_label
_atom_site_fract_x
_atom_site_fract_y
_atom_site_fract_z
Si Si1 0.307202 0.090259 0.394340
Si Si2 0.185236 0.015226 0.064326
Si Si3 0.365779 0.301808 0.433837
Si Si4 0.671165 0.588442 0.271947
Si Si5 0.396288 0.055249 0.833458
Si Si6 0.103835 0.789280 0.196004
O O1 0.291827 0.039183 0.436674
O O2 0.238898 0.144299 0.422673
O O3 0.199252 0.070391 0.338937
O O4 0.478568 0.096539 0.363271
O O5 0.255410 0.048431 0.118812
O O6 0.201990 0.042965 0.000000
O O7 0.000000 0.000000 0.070672
O O8 0.442354 0.305912 0.500000
O O9 0.250000 0.250000 0.436369
O O10 0.464435 0.297094 0.371386
O O11 0.500000 0.569159 0.250000
O O12 0.812197 0.571243 0.227992
O O13 0.662133 0.652988 0.279290
O O14 0.500000 0.000000 0.827844
O O15 0.250000 0.750000 0.188081
O O16 0.000000 0.766725 0.250000
#
# Coordination Sequence:
#
# PCOD9496776 Si02
#       6
#    16  16  16  16  16  16
#     4  10  20  33  54  79 104 137 176 223 272 319
#     4  10  21  36  53  74 102 139 179 218 268 328
#     4   9  18  33  54  81 110 141 178 220 271 327
#     4  10  20  35  53  76 108 142 177 219 273 330
#     4  10  22  36  53  78 108 140 180 228 276 324
#     4   9  19  34  56  83 110 144 183 226 274 327
#
# _framework density 20.459951
#
# number of rings (size 3 to 8) (size 9 to 14) (size 15 to 20)
#    0.000    2.333    0.000    2.000    0.000   12.333 
#    0.000    4.167    0.000    0.500    0.000    0.000 
#    0.000    0.000    0.000    0.000    0.000    0.000 
#
# Total GULP energy -267424.419521 kJ/mol
# GULP energy per Si atom -5571.342073 kJ/mol
# Density = 2.041338 g / cm^3
# Si number density = 20.459951 Si / 1000 Ang^3
#
#
#
# Elastic Constant Matrix: (Units=GPa)
#
#
# Indices 1 2 3 4 5 6 
#
# 1 59.0607 -5.1514 39.8314 0.0000 0.0000 0.0000
# 2 -5.1514 26.1776 15.8176 0.0000 0.0000 0.0000
# 3 39.8314 15.8176 180.8606 0.0000 0.0000 0.0000
# 4 0.0000 0.0000 0.0000 20.4887 0.0000 0.0000
# 5 0.0000 0.0000 0.0000 0.0000 0.8451 0.0000
# 6 0.0000 0.0000 0.0000 0.0000 0.0000 12.9705
#
#
#
# Elastic Compliance Matrix: (Units=1/GPa)
#
#
# Indices 1 2 3 4 5 6 
#
# 1 0.021150 0.007366 -0.005302 0.000000 0.000000 0.000000
# 2 0.007366 0.042897 -0.005374 0.000000 0.000000 0.000000
# 3 -0.005302 -0.005374 0.007167 0.000000 0.000000 0.000000
# 4 0.000000 0.000000 0.000000 0.048807 0.000000 0.000000
# 5 0.000000 0.000000 0.000000 0.000000 1.183321 0.000000
# 6 0.000000 0.000000 0.000000 0.000000 0.000000 0.077098
#
#
# Mechanical properties :
#
#
# Convention : Reuss Voigt Hill
#
# Bulk Modulus (GPa) = 15.48141 40.78823 28.13482
# Shear Modulus (GPa) = 3.54965 21.23429 12.39197
#
# Velocity S-wave (km/s) = 1.31859 3.22506 2.46371
# Velocity P-wave (km/s) = 3.14664 5.81781 4.67698
#
# Compressibility (1/GPa) = 0.06459359
#
# Stress axis : x y z
#
# Youngs Moduli (GPa) = 47.28132 23.31157 139.53227
#
# Poissons Ratio (x) = -0.17171 0.73982
# Poissons Ratio (y) = -0.34826 0.74983
# Poissons Ratio (z) = 0.25069 0.12527
#
# Static dielectric constant tensor:
#      x y z
#    x 1.759750 0.000000 0.000000 
#    y 0.000000 1.750980 0.000000 
#    z 0.000000 0.000000 1.829520 
# 
# From -- ./inp_files/47290.got.cif
#   From: 2010.05.17/outbox.cif.g08.bks.cpg/sg66_24_cif.got.tgz:47290.got - 2010.06.03 17:51:23.
