data_PCOD9496063
_publ_section_title
;
Structure prediction by ZEFSAII (Michael W. Deem and Ramdas Pophale) SiO2 
 PCOD9496063
Probable space group: C C C M
;
_chemical_formula_sum "Si O2"
_cell_formula_units_Z 96
_cell_length_a 20.726519
_cell_length_b 8.214345
_cell_length_c 27.428811
_cell_angle_alpha 90.000000
_cell_angle_beta 90.000000
_cell_angle_gamma 90.000000
_cell_volume 4669.886120
_symmetry_space_group_name_H-M "C C C M"
_symmetry_group_IT_number 66
_symmetry_cell_setting 'orthorhombic'
loop_
_space_group_symop_operation_xyz
x,y,z
-x,-y,z
x,-y,1/2-z
-x,y,1/2-z
-x,-y,-z
x,y,-z
-x,y,1/2+z
x,-y,1/2+z
1/2+x,1/2+y,z
1/2-x,1/2-y,z
1/2+x,1/2-y,1/2-z
1/2-x,1/2+y,1/2-z
1/2-x,1/2-y,-z
1/2+x,1/2+y,-z
1/2-x,1/2+y,1/2+z
1/2+x,1/2-y,1/2+z
loop_
_atom_site_type_symbol
_atom_site_label
_atom_site_fract_x
_atom_site_fract_y
_atom_site_fract_z
Si Si1 0.322831 0.229703 0.846756
Si Si2 0.140785 0.833788 0.556357
Si Si3 0.140936 0.783845 0.056662
Si Si4 0.821260 0.052826 0.805590
Si Si5 0.503723 0.815118 0.058440
Si Si6 0.323091 0.118953 0.345195
O O1 0.250000 0.250000 0.825941
O O2 0.318951 0.232077 0.905089
O O3 0.355167 0.399247 0.831249
O O4 0.353759 0.057214 0.834143
O O5 0.150164 0.787617 0.500000
O O6 0.066820 0.789100 0.571017
O O7 0.156755 0.025056 0.560815
O O8 0.173400 0.674085 0.098293
O O9 0.064513 0.769279 0.067242
O O10 0.152712 0.733377 0.000000
O O11 0.751142 0.083909 0.830141
O O12 0.851559 0.230465 0.814404
O O13 0.813815 0.000000 0.750000
O O14 0.500000 0.000000 0.078461
O O15 0.508483 0.830244 0.000000
#
# Coordination Sequence:
#
# PCOD9496063 Si02
#       6
#    16  16  16  16  16  16
#     4  10  21  35  53  79 110 142 190 231 275 336
#     4  10  19  33  51  77 115 155 191 228 270 324
#     4  10  19  34  53  80 118 152 184 229 275 328
#     4  10  22  38  56  78 108 135 182 239 284 329
#     4   9  17  29  50  77 107 148 193 228 268 321
#     4  10  21  34  57  82 107 143 185 224 278 338
#
# _framework density 20.557245000000002
#
# number of rings (size 3 to 8) (size 9 to 14) (size 15 to 20)
#    0.000    2.167    1.667    1.500    7.000    4.333 
#    0.000    4.167    0.000    0.000    0.000    2.333 
#    5.000    0.000    0.000    0.000    0.000    0.000 
#
# Total GULP energy -267269.483389 kJ/mol
# GULP energy per Si atom -5568.114237 kJ/mol
# Density = 2.051046 g / cm^3
# Si number density = 20.557245 Si / 1000 Ang^3
#
#
#
# Elastic Constant Matrix: (Units=GPa)
#
#
# Indices 1 2 3 4 5 6 
#
# 1 21.5272 7.6828 21.1993 0.0000 0.0000 0.0000
# 2 7.6828 175.8852 41.0457 0.0000 0.0000 0.0000
# 3 21.1993 41.0457 99.4883 0.0000 0.0000 0.0000
# 4 0.0000 0.0000 0.0000 8.4695 0.0000 0.0000
# 5 0.0000 0.0000 0.0000 0.0000 -5.4164 0.0000
# 6 0.0000 0.0000 0.0000 0.0000 0.0000 14.0579
#
#
#
# Elastic Compliance Matrix: (Units=1/GPa)
#
#
# Indices 1 2 3 4 5 6 
#
# 1 0.058813 0.000393 -0.012695 0.000000 0.000000 0.000000
# 2 0.000393 0.006294 -0.002680 0.000000 0.000000 0.000000
# 3 -0.012695 -0.002680 0.013862 0.000000 0.000000 0.000000
# 4 0.000000 0.000000 0.000000 0.118071 0.000000 0.000000
# 5 0.000000 0.000000 0.000000 0.000000 -0.184624 0.000000
# 6 0.000000 0.000000 0.000000 0.000000 0.000000 0.071134
#
#
# Mechanical properties :
#
#
# Convention : Reuss Voigt Hill
#
# Bulk Modulus (GPa) = 20.40543 48.52848 34.46695
# Shear Modulus (GPa) = 38.50622 18.55374 28.52998
#
# Velocity S-wave (km/s) = 4.33265 3.00749 3.72940
# Velocity P-wave (km/s) = 5.91412 5.97643 5.94536
#
# Compressibility (1/GPa) = 0.04900657
#
# Stress axis : x y z
#
# Youngs Moduli (GPa) = 17.00291 158.88463 72.13810
#
# Poissons Ratio (x) = -0.06251 0.91576
# Poissons Ratio (y) = -0.00669 0.19337
# Poissons Ratio (z) = 0.21584 0.42589
#
# Static dielectric constant tensor:
#      x y z
#    x 1.754630 0.000000 0.000000 
#    y 0.000000 1.868980 0.000000 
#    z 0.000000 0.000000 1.760810 
# 
# From -- ./inp_files/59825.got.cif
#   From: 2010.05.17/outbox.cif.g08.bks.cpg/sg66_30_cif.got.tgz:59825.got - 2010.06.03 17:51:23.
