data_PCOD9496215
_publ_section_title
;
Structure prediction by ZEFSAII (Michael W. Deem and Ramdas Pophale) SiO2 
 PCOD9496215
Probable space group: C C C M
;
_chemical_formula_sum "Si O2"
_cell_formula_units_Z 96
_cell_length_a 20.099560
_cell_length_b 26.088849
_cell_length_c 10.279557
_cell_angle_alpha 90.000000
_cell_angle_beta 90.000000
_cell_angle_gamma 90.000000
_cell_volume 5390.336388
_symmetry_space_group_name_H-M "C C C M"
_symmetry_group_IT_number 66
_symmetry_cell_setting 'orthorhombic'
loop_
_space_group_symop_operation_xyz
x,y,z
-x,-y,z
x,-y,1/2-z
-x,y,1/2-z
-x,-y,-z
x,y,-z
-x,y,1/2+z
x,-y,1/2+z
1/2+x,1/2+y,z
1/2-x,1/2-y,z
1/2+x,1/2-y,1/2-z
1/2-x,1/2+y,1/2-z
1/2-x,1/2-y,-z
1/2+x,1/2+y,-z
1/2-x,1/2+y,1/2+z
1/2+x,1/2-y,1/2+z
loop_
_atom_site_type_symbol
_atom_site_label
_atom_site_fract_x
_atom_site_fract_y
_atom_site_fract_z
Si Si1 0.055969 0.164097 0.148488
Si Si2 0.099528 0.718166 0.646049
Si Si3 0.947541 0.605967 0.145197
Si Si4 0.187957 0.545426 0.648484
Si Si5 0.787741 0.696562 0.647063
Si Si6 0.705635 0.370305 0.649861
O O1 0.068201 0.225613 0.160904
O O2 0.126722 0.135851 0.168302
O O3 0.000000 0.148394 0.250000
O O4 0.034558 0.154715 0.000000
O O5 0.131908 0.718324 0.500000
O O6 0.053277 0.667978 0.644980
O O7 0.147806 0.708165 0.766508
O O8 0.872483 0.585912 0.170438
O O9 0.000000 0.586951 0.250000
O O10 0.965841 0.588811 0.000000
O O11 0.182745 0.500000 0.750000
O O12 0.180773 0.526888 0.500000
O O13 0.258443 0.574741 0.657954
O O14 0.800889 0.676775 0.500000
O O15 0.750000 0.750000 0.634075
O O16 0.741557 0.661567 0.737602
O O17 0.718992 0.351797 0.500000
#
# Coordination Sequence:
#
# PCOD9496215 Si02
#       6
#    16  16  16  16  16  16
#     4  10  21  34  55  82 112 150 184 221 267 322
#     4  10  19  34  54  76 109 155 191 215 259 320
#     4  10  21  36  55  80 111 149 187 225 266 319
#     4  10  22  40  61  83 106 135 182 234 283 336
#     4  11  21  30  48  82 114 142 181 232 273 307
#     4  10  20  38  60  78 105 148 189 223 272 340
#
# _framework density 17.809650000000001
#
# number of rings (size 3 to 8) (size 9 to 14) (size 15 to 20)
#    0.000    1.833    3.333    1.000    0.000    4.333 
#    0.000    1.667    0.000    0.500    0.000    3.500 
#    0.000    0.000    0.000    0.000    0.000    0.000 
#
# Total GULP energy -267481.158462 kJ/mol
# GULP energy per Si atom -5572.524135 kJ/mol
# Density = 1.776911 g / cm^3
# Si number density = 17.809650 Si / 1000 Ang^3
#
#
#
# Elastic Constant Matrix: (Units=GPa)
#
#
# Indices 1 2 3 4 5 6 
#
# 1 80.2651 19.5769 70.0069 0.0000 0.0000 0.0000
# 2 19.5769 47.6597 27.1065 0.0000 0.0000 0.0000
# 3 70.0069 27.1065 139.7982 0.0000 0.0000 0.0000
# 4 0.0000 0.0000 0.0000 23.5220 0.0000 0.0000
# 5 0.0000 0.0000 0.0000 0.0000 36.7825 0.0000
# 6 0.0000 0.0000 0.0000 0.0000 0.0000 4.2360
#
#
#
# Elastic Compliance Matrix: (Units=1/GPa)
#
#
# Indices 1 2 3 4 5 6 
#
# 1 0.022544 -0.003191 -0.010671 0.000000 0.000000 0.000000
# 2 -0.003191 0.024035 -0.003062 0.000000 0.000000 0.000000
# 3 -0.010671 -0.003062 0.013090 0.000000 0.000000 0.000000
# 4 0.000000 0.000000 0.000000 0.042513 0.000000 0.000000
# 5 0.000000 0.000000 0.000000 0.000000 0.027187 0.000000
# 6 0.000000 0.000000 0.000000 0.000000 0.000000 0.236072
#
#
# Mechanical properties :
#
#
# Convention : Reuss Voigt Hill
#
# Bulk Modulus (GPa) = 38.72836 55.67818 47.20327
# Shear Modulus (GPa) = 12.25804 22.97695 17.61749
#
# Velocity S-wave (km/s) = 2.62636 3.59575 3.14858
# Velocity P-wave (km/s) = 5.56686 6.96922 6.30714
#
# Compressibility (1/GPa) = 0.02582087
#
# Stress axis : x y z
#
# Youngs Moduli (GPa) = 44.35787 41.60681 76.39178
#
# Poissons Ratio (x) = 0.13278 0.81514
# Poissons Ratio (y) = 0.14156 0.23392
# Poissons Ratio (z) = 0.47332 0.12740
#
# Static dielectric constant tensor:
#      x y z
#    x 1.614170 0.000000 0.000000 
#    y 0.000000 1.607610 0.000000 
#    z 0.000000 0.000000 1.638490 
# 
# From -- ./inp_files/7974.got.cif
#   From: 2010.05.17/outbox.cif.g08.bks.cpg/sg66_4_cif.got.tgz:7974.got - 2010.06.03 17:51:23.
