data_PCOD9496660
_publ_section_title
;
Structure prediction by ZEFSAII (Michael W. Deem and Ramdas Pophale) SiO2 
 PCOD9496660
Probable space group: C C C M
;
_chemical_formula_sum "Si O2"
_cell_formula_units_Z 80
_cell_length_a 19.111719
_cell_length_b 27.466099
_cell_length_c 8.827155
_cell_angle_alpha 90.000000
_cell_angle_beta 90.000000
_cell_angle_gamma 90.000000
_cell_volume 4633.588743
_symmetry_space_group_name_H-M "C C C M"
_symmetry_group_IT_number 66
_symmetry_cell_setting 'orthorhombic'
loop_
_space_group_symop_operation_xyz
x,y,z
-x,-y,z
x,-y,1/2-z
-x,y,1/2-z
-x,-y,-z
x,y,-z
-x,y,1/2+z
x,-y,1/2+z
1/2+x,1/2+y,z
1/2-x,1/2-y,z
1/2+x,1/2-y,1/2-z
1/2-x,1/2+y,1/2-z
1/2-x,1/2-y,-z
1/2+x,1/2+y,-z
1/2-x,1/2+y,1/2+z
1/2+x,1/2-y,1/2+z
loop_
_atom_site_type_symbol
_atom_site_label
_atom_site_fract_x
_atom_site_fract_y
_atom_site_fract_z
Si Si1 0.425499 0.347429 0.318443
Si Si2 0.071835 0.446029 0.181318
Si Si3 0.720361 0.697325 0.682950
Si Si4 0.280116 0.899943 0.318863
Si Si5 0.354415 0.448619 0.681668
O O1 0.500000 0.334497 0.250000
O O2 0.430645 0.346724 0.500000
O O3 0.360788 0.312449 0.275111
O O4 0.402403 0.402415 0.273615
O O5 0.079854 0.500000 0.250000
O O6 0.141334 0.416059 0.218776
O O7 0.000000 0.425319 0.250000
O O8 0.065494 0.449447 0.000000
O O9 0.725083 0.692193 0.500000
O O10 0.750000 0.750000 0.724760
O O11 0.763484 0.653850 0.758853
O O12 0.271237 0.902314 0.500000
O O13 0.222903 0.935260 0.242349
O O14 0.377447 0.500000 0.750000
O O15 0.352928 0.451325 0.500000
#
# Coordination Sequence:
#
# PCOD9496660 Si02
#       5
#    16  16  16  16  16
#     4   9  19  34  52  75 102 133 167 204 249 298
#     4  10  20  32  48  71 100 134 170 206 249 299
#     4   9  19  37  58  77  99 131 169 207 253 305
#     4  10  20  33  51  76 102 130 168 212 255 300
#     4  10  20  33  50  74 103 137 174 207 246 296
#
# _framework density 17.265236000000002
#
# number of rings (size 3 to 8) (size 9 to 14) (size 15 to 20)
#    0.000    2.400    0.000    4.200    0.000    9.600 
#    0.000    3.000    0.000    4.800    0.000    0.000 
#    0.000    0.000    0.000    0.000    0.000    0.000 
#
# Total GULP energy -223167.094638 kJ/mol
# GULP energy per Si atom -5579.177366 kJ/mol
# Density = 1.722594 g / cm^3
# Si number density = 17.265236 Si / 1000 Ang^3
#
#
#
# Elastic Constant Matrix: (Units=GPa)
#
#
# Indices 1 2 3 4 5 6 
#
# 1 145.2611 54.8380 38.3982 0.0000 0.0000 0.0000
# 2 54.8380 93.0525 25.2292 0.0000 0.0000 0.0000
# 3 38.3982 25.2292 32.7475 0.0000 0.0000 0.0000
# 4 0.0000 0.0000 0.0000 -75.3319 0.0000 0.0000
# 5 0.0000 0.0000 0.0000 0.0000 82.2700 0.0000
# 6 0.0000 0.0000 0.0000 0.0000 0.0000 10.2444
#
#
#
# Elastic Compliance Matrix: (Units=1/GPa)
#
#
# Indices 1 2 3 4 5 6 
#
# 1 0.010920 -0.003746 -0.009918 0.000000 0.000000 0.000000
# 2 -0.003746 0.014869 -0.007063 0.000000 0.000000 0.000000
# 3 -0.009918 -0.007063 0.047608 0.000000 0.000000 0.000000
# 4 0.000000 0.000000 0.000000 -0.013275 0.000000 0.000000
# 5 0.000000 0.000000 0.000000 0.000000 0.012155 0.000000
# 6 0.000000 0.000000 0.000000 0.000000 0.000000 0.097614
#
#
# Mechanical properties :
#
#
# Convention : Reuss Voigt Hill
#
# Bulk Modulus (GPa) = 31.30629 56.44352 43.87490
# Shear Modulus (GPa) = 22.52306 13.60955 18.06630
#
# Velocity S-wave (km/s) = 3.61575 2.81065 3.23832
# Velocity P-wave (km/s) = 5.96686 6.57997 6.28090
#
# Compressibility (1/GPa) = 0.03194247
#
# Stress axis : x y z
#
# Youngs Moduli (GPa) = 91.57261 67.25224 21.00499
#
# Poissons Ratio (x) = 0.25196 0.20833
# Poissons Ratio (y) = 0.34307 0.14835
# Poissons Ratio (z) = 0.90825 0.47498
#
# Static dielectric constant tensor:
#      x y z
#    x 1.585840 0.000000 0.000000 
#    y 0.000000 1.569580 0.000000 
#    z 0.000000 0.000000 1.579950 
# 
# From -- ./inp_files/6682.got.cif
#   From: 2010.05.17/outbox.cif.g08.bks.cpg/sg66_4_cif.got.tgz:6682.got - 2010.06.03 17:51:23.
