data_PCOD9496068
_publ_section_title
;
Structure prediction by ZEFSAII (Michael W. Deem and Ramdas Pophale) SiO2 
 PCOD9496068
Probable space group: C C C M
;
_chemical_formula_sum "Si O2"
_cell_formula_units_Z 72
_cell_length_a 8.444956
_cell_length_b 21.602369
_cell_length_c 17.028685
_cell_angle_alpha 90.000000
_cell_angle_beta 90.000000
_cell_angle_gamma 90.000000
_cell_volume 3106.560982
_symmetry_space_group_name_H-M "C C C M"
_symmetry_group_IT_number 66
_symmetry_cell_setting 'orthorhombic'
loop_
_space_group_symop_operation_xyz
x,y,z
-x,-y,z
x,-y,1/2-z
-x,y,1/2-z
-x,-y,-z
x,y,-z
-x,y,1/2+z
x,-y,1/2+z
1/2+x,1/2+y,z
1/2-x,1/2-y,z
1/2+x,1/2-y,1/2-z
1/2-x,1/2+y,1/2-z
1/2-x,1/2-y,-z
1/2+x,1/2+y,-z
1/2-x,1/2+y,1/2+z
1/2+x,1/2-y,1/2+z
loop_
_atom_site_type_symbol
_atom_site_label
_atom_site_fract_x
_atom_site_fract_y
_atom_site_fract_z
Si Si1 0.947315 0.407265 0.500000
Si Si2 0.566281 0.763907 0.166555
Si Si3 0.938221 0.928199 0.000000
Si Si4 0.057759 0.070996 0.168395
Si Si5 0.932290 0.587722 0.832144
Si Si6 0.935355 0.736217 0.500000
O O1 0.754254 0.417128 0.500000
O O2 0.004332 0.433062 0.584059
O O3 0.002799 0.335436 0.500000
O O4 0.500000 0.740903 0.250000
O O5 0.750000 0.750000 0.165222
O O6 0.545415 0.838127 0.167023
O O7 0.497495 0.739555 0.084183
O O8 0.996092 0.902567 0.916049
O O9 0.000000 0.000000 0.000000
O O10 0.246837 0.072876 0.168696
O O11 0.000000 0.099909 0.250000
O O12 0.000000 0.000000 0.168909
O O13 0.000000 0.565120 0.750000
O O14 0.750000 0.750000 0.500000
#
# Coordination Sequence:
#
# PCOD9496068 Si02
#       6
#     8  16   8  16  16   8
#     4   8  16  31  50  73 104 138 178 223 267 325
#     4  10  20  34  53  78 109 147 187 230 279 334
#     4   8  14  28  52  75 101 137 171 216 276 328
#     4   9  17  31  51  76 101 128 168 217 266 321
#     4   9  18  33  52  73 102 138 173 215 268 322
#     4  10  19  33  52  76 110 149 189 231 279 339
#
# _framework density 23.176755
#
# number of rings (size 3 to 8) (size 9 to 14) (size 15 to 20)
#    0.000    2.889    0.000    1.000    0.000    0.889 
#    0.000    3.333    0.000    0.000    0.000   23.333 
#    0.000    0.000    0.000    0.000    0.000    0.000 
#
# Total GULP energy -200609.820301 kJ/mol
# GULP energy per Si atom -5572.495008 kJ/mol
# Density = 2.312400 g / cm^3
# Si number density = 23.176755 Si / 1000 Ang^3
#
#
#
# Elastic Constant Matrix: (Units=GPa)
#
#
# Indices 1 2 3 4 5 6 
#
# 1 74.6140 -5.4894 85.5198 0.0000 0.0000 0.0000
# 2 -5.4894 119.6173 26.2209 0.0000 0.0000 0.0000
# 3 85.5198 26.2209 360.1649 0.0000 0.0000 0.0000
# 4 0.0000 0.0000 0.0000 -65.4568 0.0000 0.0000
# 5 0.0000 0.0000 0.0000 0.0000 48.0057 0.0000
# 6 0.0000 0.0000 0.0000 0.0000 0.0000 31.7876
#
#
#
# Elastic Compliance Matrix: (Units=1/GPa)
#
#
# Indices 1 2 3 4 5 6 
#
# 1 0.018818 0.001873 -0.004605 0.000000 0.000000 0.000000
# 2 0.001873 0.008682 -0.001077 0.000000 0.000000 0.000000
# 3 -0.004605 -0.001077 0.003948 0.000000 0.000000 0.000000
# 4 0.000000 0.000000 0.000000 -0.015277 0.000000 0.000000
# 5 0.000000 0.000000 0.000000 0.000000 0.020831 0.000000
# 6 0.000000 0.000000 0.000000 0.000000 0.000000 0.031459
#
#
# Mechanical properties :
#
#
# Convention : Reuss Voigt Hill
#
# Bulk Modulus (GPa) = 41.96211 85.21100 63.58655
# Shear Modulus (GPa) = 59.50912 32.74364 46.12638
#
# Velocity S-wave (km/s) = 5.07267 3.76277 4.46601
# Velocity P-wave (km/s) = 7.24250 7.46482 7.35450
#
# Compressibility (1/GPa) = 0.02383102
#
# Stress axis : x y z
#
# Youngs Moduli (GPa) = 53.14164 115.18110 253.27830
#
# Poissons Ratio (x) = -0.21572 1.16623
# Poissons Ratio (y) = -0.09953 0.27273
# Poissons Ratio (z) = 0.24469 0.12403
#
# Static dielectric constant tensor:
#      x y z
#    x 1.802440 0.000000 0.000000 
#    y 0.000000 -16.630790 0.000000 
#    z 0.000000 0.000000 1.925070 
# 
# From -- ./inp_files/36763.got.cif
#   From: 2010.05.17/outbox.cif.g08.bks.cpg/sg66_19_cif.got.tgz:36763.got - 2010.06.03 17:51:23.
