data_PCOD9496132
_publ_section_title
;
Structure prediction by ZEFSAII (Michael W. Deem and Ramdas Pophale) SiO2 
 PCOD9496132
Probable space group: C C C M
;
_chemical_formula_sum "Si O2"
_cell_formula_units_Z 84
_cell_length_a 12.771406
_cell_length_b 16.044237
_cell_length_c 15.595491
_cell_angle_alpha 90.000000
_cell_angle_beta 90.000000
_cell_angle_gamma 90.000000
_cell_volume 3195.632521
_symmetry_space_group_name_H-M "C C C M"
_symmetry_group_IT_number 66
_symmetry_cell_setting 'orthorhombic'
loop_
_space_group_symop_operation_xyz
x,y,z
-x,-y,z
x,-y,1/2-z
-x,y,1/2-z
-x,-y,-z
x,y,-z
-x,y,1/2+z
x,-y,1/2+z
1/2+x,1/2+y,z
1/2-x,1/2-y,z
1/2+x,1/2-y,1/2-z
1/2-x,1/2+y,1/2-z
1/2-x,1/2-y,-z
1/2+x,1/2+y,-z
1/2-x,1/2+y,1/2+z
1/2+x,1/2-y,1/2+z
loop_
_atom_site_type_symbol
_atom_site_label
_atom_site_fract_x
_atom_site_fract_y
_atom_site_fract_z
Si Si1 0.458849 0.685284 0.899628
Si Si2 0.528808 0.875866 0.398819
Si Si3 0.691874 0.115466 0.349654
Si Si4 0.393673 0.541176 0.399553
Si Si5 0.250000 0.750000 0.500000
Si Si6 0.755311 0.345134 0.159398
O O1 0.474138 0.778780 0.867617
O O2 0.568785 0.638046 0.896939
O O3 0.366118 0.632973 0.854870
O O4 0.430474 0.690157 0.000000
O O5 0.509555 0.881316 0.500000
O O6 0.428010 0.916511 0.354681
O O7 0.650975 0.894902 0.385113
O O8 0.780462 0.043856 0.358219
O O9 0.709117 0.182781 0.425206
O O10 0.713742 0.155679 0.258014
O O11 0.500000 0.500000 0.364866
O O12 0.384289 0.515994 0.500000
O O13 0.750000 0.250000 0.124175
#
# Coordination Sequence:
#
# PCOD9496132 Si02
#       6
#    16  16  16  16   4  16
#     4   9  19  35  55  78 112 154 192 238 297 358
#     4  10  19  33  56  83 116 153 190 237 306 372
#     4  12  21  34  54  83 117 154 198 243 299 357
#     4  10  21  37  58  82 112 156 205 246 287 346
#     4  12  20  32  54  80 116 158 188 236 300 362
#     4  10  21  33  51  83 117 148 189 244 300 366
#
# _framework density 26.285875999999998
#
# number of rings (size 3 to 8) (size 9 to 14) (size 15 to 20)
#    0.000    1.714    2.857    2.286    2.667    3.048 
#    0.000    1.905    0.000    1.143    0.000    8.000 
#    0.000    0.000    0.000    0.000    0.000    0.000 
#
# Total GULP energy -234294.213115 kJ/mol
# GULP energy per Si atom -5578.433646 kJ/mol
# Density = 2.622605 g / cm^3
# Si number density = 26.285876 Si / 1000 Ang^3
#
#
#
# Elastic Constant Matrix: (Units=GPa)
#
#
# Indices 1 2 3 4 5 6 
#
# 1 239.9094 38.8643 40.4857 0.0000 0.0000 0.0000
# 2 38.8643 63.5198 -18.0434 0.0000 0.0000 0.0000
# 3 40.4857 -18.0434 75.4547 0.0000 0.0000 0.0000
# 4 0.0000 0.0000 0.0000 -13.0656 0.0000 0.0000
# 5 0.0000 0.0000 0.0000 0.0000 22.9196 0.0000
# 6 0.0000 0.0000 0.0000 0.0000 0.0000 56.2103
#
#
#
# Elastic Compliance Matrix: (Units=1/GPa)
#
#
# Indices 1 2 3 4 5 6 
#
# 1 0.005606 -0.004597 -0.004107 0.000000 0.000000 0.000000
# 2 -0.004597 0.020660 0.007407 0.000000 0.000000 0.000000
# 3 -0.004107 0.007407 0.017228 0.000000 0.000000 0.000000
# 4 0.000000 0.000000 0.000000 -0.076537 0.000000 0.000000
# 5 0.000000 0.000000 0.000000 0.000000 0.043631 0.000000
# 6 0.000000 0.000000 0.000000 0.000000 0.000000 0.017790
#
#
# Mechanical properties :
#
#
# Convention : Reuss Voigt Hill
#
# Bulk Modulus (GPa) = 24.45044 55.72190 40.08617
# Shear Modulus (GPa) = 112.09635 34.38468 73.24052
#
# Velocity S-wave (km/s) = 6.53741 3.62070 5.28427
# Velocity P-wave (km/s) = 8.14282 6.22284 7.24670
#
# Compressibility (1/GPa) = 0.04089907
#
# Stress axis : x y z
#
# Youngs Moduli (GPa) = 178.38117 48.40385 58.04564
#
# Poissons Ratio (x) = 0.22250 0.23840
# Poissons Ratio (y) = 0.81996 -0.42992
# Poissons Ratio (z) = 0.73263 -0.35851
#
# Static dielectric constant tensor:
#      x y z
#    x 2.120590 0.000000 0.000000 
#    y 0.000000 2.243100 0.000000 
#    z 0.000000 0.000000 1.988320 
# 
# From -- ./inp_files/38571.got.cif
#   From: 2010.05.17/outbox.cif.g08.bks.cpg/sg66_20_cif.got.tgz:38571.got - 2010.06.03 17:51:23.
