data_PCOD9496770
_publ_section_title
;
Structure prediction by ZEFSAII (Michael W. Deem and Ramdas Pophale) SiO2 
 PCOD9496770
Probable space group: C C C M
;
_chemical_formula_sum "Si O2"
_cell_formula_units_Z 72
_cell_length_a 16.719185
_cell_length_b 24.975155
_cell_length_c 9.785581
_cell_angle_alpha 90.000000
_cell_angle_beta 90.000000
_cell_angle_gamma 90.000000
_cell_volume 4086.108662
_symmetry_space_group_name_H-M "C C C M"
_symmetry_group_IT_number 66
_symmetry_cell_setting 'orthorhombic'
loop_
_space_group_symop_operation_xyz
x,y,z
-x,-y,z
x,-y,1/2-z
-x,y,1/2-z
-x,-y,-z
x,y,-z
-x,y,1/2+z
x,-y,1/2+z
1/2+x,1/2+y,z
1/2-x,1/2-y,z
1/2+x,1/2-y,1/2-z
1/2-x,1/2+y,1/2-z
1/2-x,1/2-y,-z
1/2+x,1/2+y,-z
1/2-x,1/2+y,1/2+z
1/2+x,1/2-y,1/2+z
loop_
_atom_site_type_symbol
_atom_site_label
_atom_site_fract_x
_atom_site_fract_y
_atom_site_fract_z
Si Si1 0.116214 0.388622 0.000000
Si Si2 0.924473 0.917875 0.500000
Si Si3 0.822651 0.440430 0.773802
Si Si4 0.330736 0.385023 0.241522
Si Si5 0.043405 0.557614 0.000000
Si Si6 0.236638 0.186915 0.000000
Si Si7 0.108619 0.042746 0.000000
O O1 0.145250 0.420428 0.130658
O O2 0.172594 0.336657 0.000000
O O3 0.020475 0.393918 0.000000
O O4 0.896853 0.886335 0.362350
O O5 0.018512 0.932776 0.500000
O O6 0.887607 0.978384 0.500000
O O7 0.791801 0.500000 0.750000
O O8 0.751409 0.401408 0.816408
O O9 0.897766 0.440413 0.872472
O O10 0.310064 0.336144 0.135781
O O11 0.351425 0.432555 0.134919
O O12 0.000000 0.500000 0.000000
O O13 0.250000 0.250000 0.000000
#
# Coordination Sequence:
#
# PCOD9496770 Si02
#       7
#     8   8  16  16   8   8   8
#     4  10  21  32  51  76 100 145 195 217 267 341
#     4  11  19  32  54  88 123 148 181 235 291 359
#     4  11  19  30  47  73 112 151 181 207 253 330
#     4  10  21  34  55  82 109 150 199 237 280 358
#     4  12  21  30  46  76 119 153 171 208 266 323
#     4   9  21  43  62  75 101 150 200 253 310 342
#     4  10  20  33  53  82 126 161 175 219 298 363
#
# _framework density 17.620677000000001
#
# number of rings (size 3 to 8) (size 9 to 14) (size 15 to 20)
#    0.000    1.556    2.222    4.667    0.000    1.778 
#    0.000    0.556    0.000   21.333    0.000    0.000 
#    0.000    0.000    0.000    0.000    0.000    0.000 
#
# Total GULP energy -200554.112334 kJ/mol
# GULP energy per Si atom -5570.947565 kJ/mol
# Density = 1.758057 g / cm^3
# Si number density = 17.620677 Si / 1000 Ang^3
#
#
#
# Elastic Constant Matrix: (Units=GPa)
#
#
# Indices 1 2 3 4 5 6 
#
# 1 81.3439 30.6460 37.0721 0.0000 0.0000 0.0000
# 2 30.6460 105.8056 44.8568 0.0000 0.0000 0.0000
# 3 37.0721 44.8568 103.7583 0.0000 0.0000 0.0000
# 4 0.0000 0.0000 0.0000 8.1003 0.0000 0.0000
# 5 0.0000 0.0000 0.0000 0.0000 37.5424 0.0000
# 6 0.0000 0.0000 0.0000 0.0000 0.0000 12.5768
#
#
#
# Elastic Compliance Matrix: (Units=1/GPa)
#
#
# Indices 1 2 3 4 5 6 
#
# 1 0.015238 -0.002578 -0.004330 0.000000 0.000000 0.000000
# 2 -0.002578 0.012008 -0.004270 0.000000 0.000000 0.000000
# 3 -0.004330 -0.004270 0.013031 0.000000 0.000000 0.000000
# 4 0.000000 0.000000 0.000000 0.123453 0.000000 0.000000
# 5 0.000000 0.000000 0.000000 0.000000 0.026637 0.000000
# 6 0.000000 0.000000 0.000000 0.000000 0.000000 0.079511
#
#
# Mechanical properties :
#
#
# Convention : Reuss Voigt Hill
#
# Bulk Modulus (GPa) = 55.80062 57.33972 56.57017
# Shear Modulus (GPa) = 16.76679 23.53275 20.14977
#
# Velocity S-wave (km/s) = 3.08805 3.65844 3.38528
# Velocity P-wave (km/s) = 6.66717 7.10334 6.88871
#
# Compressibility (1/GPa) = 0.01792095
#
# Stress axis : x y z
#
# Youngs Moduli (GPa) = 65.62515 83.27484 76.73986
#
# Poissons Ratio (x) = 0.21467 0.33228
# Poissons Ratio (y) = 0.16918 0.32771
# Poissons Ratio (z) = 0.28416 0.35562
#
# Static dielectric constant tensor:
#      x y z
#    x 1.681520 0.000000 0.000000 
#    y 0.000000 1.579600 0.000000 
#    z 0.000000 0.000000 1.590500 
# 
# From -- ./inp_files/5427.got.cif
#   From: 2010.05.17/outbox.cif.g08.bks.cpg/sg66_3_cif.got.tgz:5427.got - 2010.06.03 17:51:23.
