data_PCOD9496010
_publ_section_title
;
Structure prediction by ZEFSAII (Michael W. Deem and Ramdas Pophale) SiO2 
 PCOD9496010
Probable space group: C C C M
;
_chemical_formula_sum "Si O2"
_cell_formula_units_Z 80
_cell_length_a 16.408126
_cell_length_b 8.393742
_cell_length_c 30.318761
_cell_angle_alpha 90.000000
_cell_angle_beta 90.000000
_cell_angle_gamma 90.000000
_cell_volume 4175.668833
_symmetry_space_group_name_H-M "C C C M"
_symmetry_group_IT_number 66
_symmetry_cell_setting 'orthorhombic'
loop_
_space_group_symop_operation_xyz
x,y,z
-x,-y,z
x,-y,1/2-z
-x,y,1/2-z
-x,-y,-z
x,y,-z
-x,y,1/2+z
x,-y,1/2+z
1/2+x,1/2+y,z
1/2-x,1/2-y,z
1/2+x,1/2-y,1/2-z
1/2-x,1/2+y,1/2-z
1/2-x,1/2-y,-z
1/2+x,1/2+y,-z
1/2-x,1/2+y,1/2+z
1/2+x,1/2-y,1/2+z
loop_
_atom_site_type_symbol
_atom_site_label
_atom_site_fract_x
_atom_site_fract_y
_atom_site_fract_z
Si Si1 0.174094 0.371515 0.872209
Si Si2 0.408844 0.565834 0.951947
Si Si3 0.174438 0.374693 0.449617
Si Si4 0.091901 0.936767 0.640401
Si Si5 0.764123 0.938202 0.299779
O O1 0.250000 0.250000 0.877964
O O2 0.167916 0.486386 0.914226
O O3 0.098867 0.254270 0.862071
O O4 0.196024 0.477281 0.829868
O O5 0.500000 0.500000 0.953257
O O6 0.402801 0.755776 0.947431
O O7 0.373495 0.494357 0.907250
O O8 0.371031 0.526039 0.000000
O O9 0.181266 0.433080 0.500000
O O10 0.250000 0.250000 0.441672
O O11 0.150550 0.008850 0.677683
O O12 0.000000 0.000000 0.645030
O O13 0.750000 0.750000 0.301365
O O14 0.761146 0.000000 0.250000
#
# Coordination Sequence:
#
# PCOD9496010 Si02
#       5
#    16  16  16  16  16
#     4  10  20  35  57  85 115 149 191 230 281 343
#     4   9  18  34  53  75 110 152 186 222 276 332
#     4  10  19  32  54  83 113 149 195 242 281 323
#     4  10  21  37  58  84 114 149 188 234 283 329
#     4  11  22  40  63  84 111 147 186 228 282 345
#
# _framework density 19.158608000000001
#
# number of rings (size 3 to 8) (size 9 to 14) (size 15 to 20)
#    0.000    2.000    0.000    6.000    0.000    1.600 
#    0.000    9.000    0.000   12.000    0.000    0.000 
#    0.000    0.000    0.000    0.000    0.000    0.000 
#
# Total GULP energy -223052.034245 kJ/mol
# GULP energy per Si atom -5576.300856 kJ/mol
# Density = 1.911500 g / cm^3
# Si number density = 19.158608 Si / 1000 Ang^3
#
#
#
# Elastic Constant Matrix: (Units=GPa)
#
#
# Indices 1 2 3 4 5 6 
#
# 1 70.7146 57.6647 37.1459 0.0000 0.0000 0.0000
# 2 57.6647 166.5808 102.0201 0.0000 0.0000 0.0000
# 3 37.1459 102.0201 186.7003 0.0000 0.0000 0.0000
# 4 0.0000 0.0000 0.0000 43.6498 0.0000 0.0000
# 5 0.0000 0.0000 0.0000 0.0000 -8.0230 0.0000
# 6 0.0000 0.0000 0.0000 0.0000 0.0000 37.0711
#
#
#
# Elastic Compliance Matrix: (Units=1/GPa)
#
#
# Indices 1 2 3 4 5 6 
#
# 1 0.019714 -0.006646 -0.000290 0.000000 0.000000 0.000000
# 2 -0.006646 0.011263 -0.004832 0.000000 0.000000 0.000000
# 3 -0.000290 -0.004832 0.008055 0.000000 0.000000 0.000000
# 4 0.000000 0.000000 0.000000 0.022910 0.000000 0.000000
# 5 0.000000 0.000000 0.000000 0.000000 -0.124641 0.000000
# 6 0.000000 0.000000 0.000000 0.000000 0.000000 0.026975
#
#
# Mechanical properties :
#
#
# Convention : Reuss Voigt Hill
#
# Bulk Modulus (GPa) = 64.54390 90.85078 77.69734
# Shear Modulus (GPa) = -712.03894 29.68390 -341.17752
#
# Velocity S-wave (km/s) = -19.29927 3.94048 -13.35916
# Velocity P-wave (km/s) = 21.51402 8.25993 14.04683
#
# Compressibility (1/GPa) = 0.01549333
#
# Stress axis : x y z
#
# Youngs Moduli (GPa) = 50.72608 88.78344 124.15350
#
# Poissons Ratio (x) = 0.59009 0.03606
# Poissons Ratio (y) = 0.33714 0.59995
# Poissons Ratio (z) = 0.01473 0.42903
#
# Static dielectric constant tensor:
#      x y z
#    x 1.733920 0.000000 0.000000 
#    y 0.000000 1.672860 0.000000 
#    z 0.000000 0.000000 1.674190 
# 
# From -- ./inp_files/65073.got.cif
#   From: 2010.05.17/outbox.cif.g08.bks.cpg/sg66_33_cif.got.tgz:65073.got - 2010.06.03 17:51:23.
