data_PCOD9496549
_publ_section_title
;
Structure prediction by ZEFSAII (Michael W. Deem and Ramdas Pophale) SiO2 
 PCOD9496549
Probable space group: C C C M
;
_chemical_formula_sum "Si O2"
_cell_formula_units_Z 72
_cell_length_a 12.870167
_cell_length_b 14.307648
_cell_length_c 17.880797
_cell_angle_alpha 90.000000
_cell_angle_beta 90.000000
_cell_angle_gamma 90.000000
_cell_volume 3292.602487
_symmetry_space_group_name_H-M "C C C M"
_symmetry_group_IT_number 66
_symmetry_cell_setting 'orthorhombic'
loop_
_space_group_symop_operation_xyz
x,y,z
-x,-y,z
x,-y,1/2-z
-x,y,1/2-z
-x,-y,-z
x,y,-z
-x,y,1/2+z
x,-y,1/2+z
1/2+x,1/2+y,z
1/2-x,1/2-y,z
1/2+x,1/2-y,1/2-z
1/2-x,1/2+y,1/2-z
1/2-x,1/2-y,-z
1/2+x,1/2+y,-z
1/2-x,1/2+y,1/2+z
1/2+x,1/2-y,1/2+z
loop_
_atom_site_type_symbol
_atom_site_label
_atom_site_fract_x
_atom_site_fract_y
_atom_site_fract_z
Si Si1 0.402148 0.801383 0.085117
Si Si2 0.250000 0.250000 0.198019
Si Si3 0.269894 0.545343 0.085869
Si Si4 0.877325 0.368227 0.414453
Si Si5 0.898399 0.133089 0.200990
O O1 0.296003 0.858752 0.093803
O O2 0.498507 0.873335 0.092434
O O3 0.417917 0.719636 0.144185
O O4 0.404799 0.764304 0.000000
O O5 0.163364 0.294407 0.144975
O O6 0.195357 0.170129 0.246991
O O7 0.187866 0.462223 0.097101
O O8 0.358254 0.549165 0.148492
O O9 0.307982 0.539017 0.000000
O O10 0.856457 0.337405 0.500000
O O11 0.000000 0.115147 0.250000
#
# Coordination Sequence:
#
# PCOD9496549 Si02
#       5
#    16   8  16  16  16
#     4  10  19  37  66  96 126 162 209 265 320 383
#     4  12  23  40  61  86 128 172 208 254 319 386
#     4  10  21  40  66  96 127 164 211 267 324 378
#     4  10  22  40  64  92 123 165 216 262 312 382
#     4  12  23  39  61  93 132 171 212 259 324 386
#
# _framework density 21.867201000000001
#
# number of rings (size 3 to 8) (size 9 to 14) (size 15 to 20)
#    0.000    1.333    4.444    1.667    0.000    5.333 
#    0.000    2.222    0.000    2.667    0.000    0.000 
#    0.000    0.000    0.000    0.000    0.000    0.000 
#
# Total GULP energy -201338.931971 kJ/mol
# GULP energy per Si atom -5592.748110 kJ/mol
# Density = 2.181743 g / cm^3
# Si number density = 21.867201 Si / 1000 Ang^3
#
#
#
# Elastic Constant Matrix: (Units=GPa)
#
#
# Indices 1 2 3 4 5 6 
#
# 1 98.8364 -3.7343 56.7554 0.0000 0.0000 0.0000
# 2 -3.7343 33.5421 26.9764 0.0000 0.0000 0.0000
# 3 56.7554 26.9764 123.1068 0.0000 0.0000 0.0000
# 4 0.0000 0.0000 0.0000 -35.9897 0.0000 0.0000
# 5 0.0000 0.0000 0.0000 0.0000 15.6272 0.0000
# 6 0.0000 0.0000 0.0000 0.0000 0.0000 36.2726
#
#
#
# Elastic Compliance Matrix: (Units=1/GPa)
#
#
# Indices 1 2 3 4 5 6 
#
# 1 0.015821 0.009259 -0.009323 0.000000 0.000000 0.000000
# 2 0.009259 0.041611 -0.013387 0.000000 0.000000 0.000000
# 3 -0.009323 -0.013387 0.015355 0.000000 0.000000 0.000000
# 4 0.000000 0.000000 0.000000 -0.027786 0.000000 0.000000
# 5 0.000000 0.000000 0.000000 0.000000 0.063991 0.000000
# 6 0.000000 0.000000 0.000000 0.000000 0.000000 0.027569
#
#
# Mechanical properties :
#
#
# Convention : Reuss Voigt Hill
#
# Bulk Modulus (GPa) = 21.79337 46.16447 33.97892
# Shear Modulus (GPa) = 27.97091 14.88120 21.42606
#
# Velocity S-wave (km/s) = 3.58037 2.61152 3.13361
# Velocity P-wave (km/s) = 5.20384 5.50005 5.35399
#
# Compressibility (1/GPa) = 0.04588552
#
# Stress axis : x y z
#
# Youngs Moduli (GPa) = 63.20639 24.03226 65.12678
#
# Poissons Ratio (x) = -0.22253 0.60718
# Poissons Ratio (y) = -0.58526 0.87185
# Poissons Ratio (z) = 0.58927 0.32172
#
# Static dielectric constant tensor:
#      x y z
#    x 1.789660 0.000000 0.000000 
#    y 0.000000 1.799750 0.000000 
#    z 0.000000 0.000000 1.792310 
# 
# From -- ./inp_files/38296.got.cif
#   From: 2010.05.17/outbox.cif.g08.bks.cpg/sg66_20_cif.got.tgz:38296.got - 2010.06.03 17:51:23.
