data_PCOD9496397
_publ_section_title
;
Structure prediction by ZEFSAII (Michael W. Deem and Ramdas Pophale) SiO2 
 PCOD9496397
Probable space group: C C C M
;
_chemical_formula_sum "Si O2"
_cell_formula_units_Z 96
_cell_length_a 19.130465
_cell_length_b 29.167290
_cell_length_c 9.186030
_cell_angle_alpha 90.000000
_cell_angle_beta 90.000000
_cell_angle_gamma 90.000000
_cell_volume 5125.656115
_symmetry_space_group_name_H-M "C C C M"
_symmetry_group_IT_number 66
_symmetry_cell_setting 'orthorhombic'
loop_
_space_group_symop_operation_xyz
x,y,z
-x,-y,z
x,-y,1/2-z
-x,y,1/2-z
-x,-y,-z
x,y,-z
-x,y,1/2+z
x,-y,1/2+z
1/2+x,1/2+y,z
1/2-x,1/2-y,z
1/2+x,1/2-y,1/2-z
1/2-x,1/2+y,1/2-z
1/2-x,1/2-y,-z
1/2+x,1/2+y,-z
1/2-x,1/2+y,1/2+z
1/2+x,1/2-y,1/2+z
loop_
_atom_site_type_symbol
_atom_site_label
_atom_site_fract_x
_atom_site_fract_y
_atom_site_fract_z
Si Si1 0.924384 0.720513 0.674855
Si Si2 0.684727 0.144151 0.825051
Si Si3 0.719482 0.951608 0.172144
Si Si4 0.316664 0.297819 0.333377
Si Si5 0.611979 0.454018 0.331043
Si Si6 0.559217 0.632760 0.663917
O O1 0.932446 0.728588 0.500000
O O2 0.888340 0.670765 0.695527
O O3 0.864910 0.756910 0.728898
O O4 0.000000 0.724191 0.750000
O O5 0.690474 0.094801 0.747315
O O6 0.745551 0.179948 0.772064
O O7 0.695733 0.137880 0.000000
O O8 0.804033 0.948413 0.183738
O O9 0.699474 0.000000 0.250000
O O10 0.701988 0.953148 0.000000
O O11 0.300905 0.284146 0.500000
O O12 0.369649 0.339826 0.338840
O O13 0.591738 0.500000 0.250000
O O14 0.595099 0.456583 0.500000
O O15 0.574604 0.412290 0.254196
O O16 0.500000 0.660243 0.750000
O O17 0.536755 0.623562 0.500000
#
# Coordination Sequence:
#
# PCOD9496397 Si02
#       6
#    16  16  16  16  16  16
#     4  10  21  37  58  84 116 153 189 232 282 336
#     4  10  19  35  60  86 113 148 193 235 277 331
#     4  10  20  34  56  85 116 146 182 230 284 337
#     4   9  18  34  56  81 108 146 192 233 272 322
#     4  10  20  34  51  72 100 136 179 226 278 332
#     4  11  21  33  50  72 103 142 184 230 278 326
#
# _framework density 18.729309000000001
#
# number of rings (size 3 to 8) (size 9 to 14) (size 15 to 20)
#    0.000    2.000    1.667    2.500    0.000    4.333 
#    0.000    3.333    0.000    2.500    0.000    3.500 
#    0.000    0.000    0.000    0.000    0.000    0.000 
#
# Total GULP energy -267582.024654 kJ/mol
# GULP energy per Si atom -5574.625514 kJ/mol
# Density = 1.868668 g / cm^3
# Si number density = 18.729309 Si / 1000 Ang^3
#
#
#
# Elastic Constant Matrix: (Units=GPa)
#
#
# Indices 1 2 3 4 5 6 
#
# 1 62.4411 65.8040 31.4958 0.0000 0.0000 0.0000
# 2 65.8040 132.3269 61.0064 0.0000 0.0000 0.0000
# 3 31.4958 61.0064 92.0363 0.0000 0.0000 0.0000
# 4 0.0000 0.0000 0.0000 21.7618 0.0000 0.0000
# 5 0.0000 0.0000 0.0000 0.0000 18.0522 0.0000
# 6 0.0000 0.0000 0.0000 0.0000 0.0000 -594.6948
#
#
#
# Elastic Compliance Matrix: (Units=1/GPa)
#
#
# Indices 1 2 3 4 5 6 
#
# 1 0.033674 -0.016464 -0.000610 0.000000 0.000000 0.000000
# 2 -0.016464 0.018932 -0.006915 0.000000 0.000000 0.000000
# 3 -0.000610 -0.006915 0.015658 0.000000 0.000000 0.000000
# 4 0.000000 0.000000 0.000000 0.045952 0.000000 0.000000
# 5 0.000000 0.000000 0.000000 0.000000 0.055395 0.000000
# 6 0.000000 0.000000 0.000000 0.000000 0.000000 -0.001682
#
#
# Mechanical properties :
#
#
# Convention : Reuss Voigt Hill
#
# Bulk Modulus (GPa) = 49.29776 67.04631 58.17203
# Shear Modulus (GPa) = 22.45476 -102.40963 -39.97743
#
# Velocity S-wave (km/s) = 3.46628 -7.40253 -4.62506
# Velocity P-wave (km/s) = 6.51141 6.09820 1.61406
#
# Compressibility (1/GPa) = 0.02028490
#
# Stress axis : x y z
#
# Youngs Moduli (GPa) = 29.69688 52.81947 63.86550
#
# Poissons Ratio (x) = 0.86962 0.03898
# Poissons Ratio (y) = 0.48893 0.44164
# Poissons Ratio (z) = 0.01812 0.36526
#
# Static dielectric constant tensor:
#      x y z
#    x 1.670040 0.000000 0.000000 
#    y 0.000000 1.712510 0.000000 
#    z 0.000000 0.000000 1.649060 
# 
# From -- ./inp_files/7947.got.cif
#   From: 2010.05.17/outbox.cif.g08.bks.cpg/sg66_4_cif.got.tgz:7947.got - 2010.06.03 17:51:23.
