data_PCOD9496197
_publ_section_title
;
Structure prediction by ZEFSAII (Michael W. Deem and Ramdas Pophale) SiO2 
 PCOD9496197
Probable space group: C C C M
;
_chemical_formula_sum "Si O2"
_cell_formula_units_Z 100
_cell_length_a 20.949331
_cell_length_b 31.049960
_cell_length_c 9.294188
_cell_angle_alpha 90.000000
_cell_angle_beta 90.000000
_cell_angle_gamma 90.000000
_cell_volume 6045.645207
_symmetry_space_group_name_H-M "C C C M"
_symmetry_group_IT_number 66
_symmetry_cell_setting 'orthorhombic'
loop_
_space_group_symop_operation_xyz
x,y,z
-x,-y,z
x,-y,1/2-z
-x,y,1/2-z
-x,-y,-z
x,y,-z
-x,y,1/2+z
x,-y,1/2+z
1/2+x,1/2+y,z
1/2-x,1/2-y,z
1/2+x,1/2-y,1/2-z
1/2-x,1/2+y,1/2-z
1/2-x,1/2-y,-z
1/2+x,1/2+y,-z
1/2-x,1/2+y,1/2+z
1/2+x,1/2-y,1/2+z
loop_
_atom_site_type_symbol
_atom_site_label
_atom_site_fract_x
_atom_site_fract_y
_atom_site_fract_z
Si Si1 0.595061 0.430710 0.656666
Si Si2 0.757300 0.044285 0.330382
Si Si3 0.936471 0.234634 0.670681
Si Si4 0.500000 0.500000 0.750000
Si Si5 0.894030 0.149462 0.833226
Si Si6 0.742158 0.132083 0.169572
Si Si7 0.304847 0.784829 0.328911
O O1 0.595259 0.408834 0.500000
O O2 0.665796 0.449729 0.679640
O O3 0.545631 0.469207 0.660191
O O4 0.579564 0.396018 0.778179
O O5 0.741030 0.042961 0.500000
O O6 0.731009 0.087103 0.252249
O O7 0.739754 0.000000 0.250000
O O8 0.946968 0.231398 0.500000
O O9 0.919848 0.188121 0.737310
O O10 0.874104 0.264002 0.695209
O O11 0.000000 0.250829 0.750000
O O12 0.817383 0.144491 0.816164
O O13 0.908797 0.157086 0.000000
O O14 0.704744 0.171537 0.240912
O O15 0.728832 0.127485 0.000000
O O16 0.297121 0.793349 0.500000
O O17 0.250000 0.750000 0.288833
#
# Coordination Sequence:
#
# PCOD9496197 Si02
#       7
#    16  16  16   4  16  16  16
#     4  10  22  35  48  64  88 124 168 219 269 314
#     4  10  19  34  52  71  98 131 167 213 269 321
#     4  11  23  38  56  77 107 141 176 218 268 320
#     4  12  22  36  48  66  86 124 180 226 272 316
#     4  10  21  36  53  73  99 131 173 221 269 318
#     4  10  20  33  54  81 105 134 174 222 269 319
#     4  10  20  36  57  80 106 140 180 223 269 322
#
# _framework density 16.540832000000002
#
# number of rings (size 3 to 8) (size 9 to 14) (size 15 to 20)
#    0.000    1.760    2.400    2.160    1.120    4.800 
#    0.000    0.000    0.000    0.000    0.000    0.000 
#    0.000    0.640    0.000    6.720    0.000    3.680 
#
# Total GULP energy -279170.356903 kJ/mol
# GULP energy per Si atom -5583.407138 kJ/mol
# Density = 1.650318 g / cm^3
# Si number density = 16.540832 Si / 1000 Ang^3
#
#
#
# Elastic Constant Matrix: (Units=GPa)
#
#
# Indices 1 2 3 4 5 6 
#
# 1 59.2769 43.3926 50.2875 0.0000 0.0000 0.0000
# 2 43.3926 127.0488 81.0878 0.0000 0.0000 0.0000
# 3 50.2875 81.0878 118.2665 0.0000 0.0000 0.0000
# 4 0.0000 0.0000 0.0000 31.1099 0.0000 0.0000
# 5 0.0000 0.0000 0.0000 0.0000 16.5044 0.0000
# 6 0.0000 0.0000 0.0000 0.0000 0.0000 20.6029
#
#
#
# Elastic Compliance Matrix: (Units=1/GPa)
#
#
# Indices 1 2 3 4 5 6 
#
# 1 0.027187 -0.003392 -0.009235 0.000000 0.000000 0.000000
# 2 -0.003392 0.014418 -0.008444 0.000000 0.000000 0.000000
# 3 -0.009235 -0.008444 0.018171 0.000000 0.000000 0.000000
# 4 0.000000 0.000000 0.000000 0.032144 0.000000 0.000000
# 5 0.000000 0.000000 0.000000 0.000000 0.060590 0.000000
# 6 0.000000 0.000000 0.000000 0.000000 0.000000 0.048537
#
#
# Mechanical properties :
#
#
# Convention : Reuss Voigt Hill
#
# Bulk Modulus (GPa) = 56.69907 72.68087 64.68997
# Shear Modulus (GPa) = 20.07496 22.29840 21.18668
#
# Velocity S-wave (km/s) = 3.48754 3.67561 3.58281
# Velocity P-wave (km/s) = 7.11125 7.87713 7.50397
#
# Compressibility (1/GPa) = 0.01763697
#
# Stress axis : x y z
#
# Youngs Moduli (GPa) = 36.78242 69.35540 55.03155
#
# Poissons Ratio (x) = 0.23522 0.50819
# Poissons Ratio (y) = 0.12475 0.46467
# Poissons Ratio (z) = 0.33967 0.58562
#
# Static dielectric constant tensor:
#      x y z
#    x 1.549770 0.000000 0.000000 
#    y 0.000000 1.538210 0.000000 
#    z 0.000000 0.000000 1.573150 
# 
# From -- ./inp_files/8365.got.cif
#   From: 2010.05.17/outbox.cif.g08.bks.cpg/sg66_5_cif.got.tgz:8365.got - 2010.06.03 17:51:23.
