data_PCOD9496649
_publ_section_title
;
Structure prediction by ZEFSAII (Michael W. Deem and Ramdas Pophale) SiO2 
 PCOD9496649
Probable space group: C C C M
;
_chemical_formula_sum "Si O2"
_cell_formula_units_Z 112
_cell_length_a 26.553509
_cell_length_b 28.020559
_cell_length_c 7.424081
_cell_angle_alpha 90.000000
_cell_angle_beta 90.000000
_cell_angle_gamma 90.000000
_cell_volume 5523.844153
_symmetry_space_group_name_H-M "C C C M"
_symmetry_group_IT_number 66
_symmetry_cell_setting 'orthorhombic'
loop_
_space_group_symop_operation_xyz
x,y,z
-x,-y,z
x,-y,1/2-z
-x,y,1/2-z
-x,-y,-z
x,y,-z
-x,y,1/2+z
x,-y,1/2+z
1/2+x,1/2+y,z
1/2-x,1/2-y,z
1/2+x,1/2-y,1/2-z
1/2-x,1/2+y,1/2-z
1/2-x,1/2-y,-z
1/2+x,1/2+y,-z
1/2-x,1/2+y,1/2+z
1/2+x,1/2-y,1/2+z
loop_
_atom_site_type_symbol
_atom_site_label
_atom_site_fract_x
_atom_site_fract_y
_atom_site_fract_z
Si Si1 0.056189 0.166114 0.214734
Si Si2 0.160129 0.129126 0.780747
Si Si3 0.588770 0.770438 0.780294
Si Si4 0.695492 0.265191 0.718708
Si Si5 0.355860 0.944029 0.715847
Si Si6 0.443149 0.126082 0.784568
Si Si7 0.742937 0.555717 0.784510
O O1 0.102088 0.133063 0.280555
O O2 0.063408 0.220807 0.281656
O O3 0.000000 0.149109 0.250000
O O4 0.062334 0.169068 0.000000
O O5 0.183522 0.180411 0.733172
O O6 0.197259 0.087953 0.714843
O O7 0.159300 0.125870 0.000000
O O8 0.647594 0.766610 0.727730
O O9 0.564515 0.819686 0.716579
O O10 0.586587 0.770359 0.000000
O O11 0.696593 0.263268 0.500000
O O12 0.750000 0.250000 0.785038
O O13 0.354271 0.938336 0.500000
O O14 0.365779 0.000000 0.750000
O O15 0.400014 0.909657 0.784445
O O16 0.299347 0.932607 0.784113
O O17 0.500000 0.109722 0.750000
O O18 0.437144 0.128186 0.000000
O O19 0.734116 0.500000 0.750000
O O20 0.744699 0.562686 0.000000
#
# Coordination Sequence:
#
# PCOD9496649 Si02
#       7
#    16  16  16  16  16  16  16
#     4   9  16  28  45  66  93 123 151 180 214 257
#     4   8  15  26  42  66  93 118 145 181 225 264
#     4   8  15  26  40  62  92 119 147 181 216 259
#     4   8  13  20  36  64  93 118 142 175 221 267
#     4   9  19  33  49  67  87 113 147 186 229 272
#     4  10  20  32  46  66  90 118 151 187 224 263
#     4   9  17  31  50  70  92 117 146 184 229 273
#
# _framework density 20.275735999999998
#
# number of rings (size 3 to 8) (size 9 to 14) (size 15 to 20)
#    0.000    3.286    0.000    2.143    2.000    0.857 
#    0.000    2.143    0.000    0.429    0.000    3.000 
#    0.000    4.000    0.000    0.000    0.000    0.000 
#
# Total GULP energy -312263.872764 kJ/mol
# GULP energy per Si atom -5576.140585 kJ/mol
# Density = 2.022959 g / cm^3
# Si number density = 20.275736 Si / 1000 Ang^3
#
#
#
# Elastic Constant Matrix: (Units=GPa)
#
#
# Indices 1 2 3 4 5 6 
#
# 1 209.7470 98.2167 2.9997 0.0000 0.0000 0.0000
# 2 98.2167 90.6298 3.1636 0.0000 0.0000 0.0000
# 3 2.9997 3.1636 64.5006 0.0000 0.0000 0.0000
# 4 0.0000 0.0000 0.0000 -4.8656 0.0000 0.0000
# 5 0.0000 0.0000 0.0000 0.0000 12.8119 0.0000
# 6 0.0000 0.0000 0.0000 0.0000 0.0000 15.6434
#
#
#
# Elastic Compliance Matrix: (Units=1/GPa)
#
#
# Indices 1 2 3 4 5 6 
#
# 1 0.009680 -0.010493 0.000064 0.000000 0.000000 0.000000
# 2 -0.010493 0.022426 -0.000612 0.000000 0.000000 0.000000
# 3 0.000064 -0.000612 0.015531 0.000000 0.000000 0.000000
# 4 0.000000 0.000000 0.000000 -0.205523 0.000000 0.000000
# 5 0.000000 0.000000 0.000000 0.000000 0.078052 0.000000
# 6 0.000000 0.000000 0.000000 0.000000 0.000000 0.063925
#
#
# Mechanical properties :
#
#
# Convention : Reuss Voigt Hill
#
# Bulk Modulus (GPa) = 39.12863 63.73747 51.43305
# Shear Modulus (GPa) = 340.36199 22.08443 181.22321
#
# Velocity S-wave (km/s) = 12.97039 3.30389 9.46432
# Velocity P-wave (km/s) = 15.60924 6.78659 12.03549
#
# Compressibility (1/GPa) = 0.02555673
#
# Stress axis : x y z
#
# Youngs Moduli (GPa) = 103.30551 44.59061 64.38836
#
# Poissons Ratio (x) = 0.46787 -0.00415
# Poissons Ratio (y) = 1.08395 0.03941
# Poissons Ratio (z) = -0.00666 0.02729
#
# Static dielectric constant tensor:
#      x y z
#    x 1.740100 0.000000 0.000000 
#    y 0.000000 1.684570 0.000000 
#    z 0.000000 0.000000 1.810410 
# 
# From -- ./inp_files/19934.got.cif
#   From: 2010.05.17/outbox.cif.g08.bks.cpg/sg66_10_cif.got.tgz:19934.got - 2010.06.03 17:51:23.
