data_PCOD9496087
_publ_section_title
;
Structure prediction by ZEFSAII (Michael W. Deem and Ramdas Pophale) SiO2 
 PCOD9496087
Probable space group: C C C M
;
_chemical_formula_sum "Si O2"
_cell_formula_units_Z 72
_cell_length_a 5.235167
_cell_length_b 29.281538
_cell_length_c 25.124527
_cell_angle_alpha 90.000000
_cell_angle_beta 90.000000
_cell_angle_gamma 90.000000
_cell_volume 3851.432746
_symmetry_space_group_name_H-M "C C C M"
_symmetry_group_IT_number 66
_symmetry_cell_setting 'orthorhombic'
loop_
_space_group_symop_operation_xyz
x,y,z
-x,-y,z
x,-y,1/2-z
-x,y,1/2-z
-x,-y,-z
x,y,-z
-x,y,1/2+z
x,-y,1/2+z
1/2+x,1/2+y,z
1/2-x,1/2-y,z
1/2+x,1/2-y,1/2-z
1/2-x,1/2+y,1/2-z
1/2-x,1/2-y,-z
1/2+x,1/2+y,-z
1/2-x,1/2+y,1/2+z
1/2+x,1/2-y,1/2+z
loop_
_atom_site_type_symbol
_atom_site_label
_atom_site_fract_x
_atom_site_fract_y
_atom_site_fract_z
Si Si1 0.500000 0.000000 0.350610
Si Si2 0.430034 0.902860 0.310772
Si Si3 0.669314 0.544677 0.557915
Si Si4 0.496711 0.719288 0.561854
Si Si5 0.440744 0.626881 0.873535
O O1 0.389850 0.958208 0.316363
O O2 0.666048 0.971136 0.392148
O O3 0.500000 0.893045 0.250000
O O4 0.666019 0.883125 0.346155
O O5 0.167238 0.881326 0.331605
O O6 0.500000 0.500000 0.551141
O O7 0.795191 0.553576 0.500000
O O8 0.526339 0.589480 0.578955
O O9 0.464611 0.704342 0.500000
O O10 0.750000 0.750000 0.564566
O O11 0.533380 0.676222 0.600051
O O12 0.250000 0.750000 0.575557
#
# Coordination Sequence:
#
# PCOD9496087 Si02
#       5
#     8  16  16  16  16
#     4  10  20  36  52  82 116 162 202 238 286 334
#     4  11  23  38  59  82 115 156 204 249 285 333
#     4  10  19  33  53  83 123 155 187 225 282 357
#     4  10  21  39  64  93 120 149 188 235 290 353
#     4  11  22  39  60  87 117 155 194 238 297 344
#
# _framework density 18.69434
#
# number of rings (size 3 to 8) (size 9 to 14) (size 15 to 20)
#    0.000    1.556    2.222    3.333    0.000    0.000 
#    0.000    4.444    0.000   13.333    0.000    0.000 
#    0.000    0.000    0.000    0.000    0.000    0.000 
#
# Total GULP energy -200505.146602 kJ/mol
# GULP energy per Si atom -5569.587406 kJ/mol
# Density = 1.865179 g / cm^3
# Si number density = 18.694340 Si / 1000 Ang^3
#
#
#
# Elastic Constant Matrix: (Units=GPa)
#
#
# Indices 1 2 3 4 5 6 
#
# 1 70.2789 22.8445 -2.4222 0.0000 0.0000 0.0000
# 2 22.8445 115.4035 43.5847 0.0000 0.0000 0.0000
# 3 -2.4222 43.5847 57.0000 0.0000 0.0000 0.0000
# 4 0.0000 0.0000 0.0000 24.3867 0.0000 0.0000
# 5 0.0000 0.0000 0.0000 0.0000 26.0881 0.0000
# 6 0.0000 0.0000 0.0000 0.0000 0.0000 22.8612
#
#
#
# Elastic Compliance Matrix: (Units=1/GPa)
#
#
# Indices 1 2 3 4 5 6 
#
# 1 0.015938 -0.004796 0.004344 0.000000 0.000000 0.000000
# 2 -0.004796 0.013627 -0.010623 0.000000 0.000000 0.000000
# 3 0.004344 -0.010623 0.025852 0.000000 0.000000 0.000000
# 4 0.000000 0.000000 0.000000 0.041006 0.000000 0.000000
# 5 0.000000 0.000000 0.000000 0.000000 0.038332 0.000000
# 6 0.000000 0.000000 0.000000 0.000000 0.000000 0.043742
#
#
# Mechanical properties :
#
#
# Convention : Reuss Voigt Hill
#
# Bulk Modulus (GPa) = 30.06048 41.18850 35.62449
# Shear Modulus (GPa) = 23.61453 26.57888 25.09670
#
# Velocity S-wave (km/s) = 3.55800 3.77471 3.66796
# Velocity P-wave (km/s) = 5.74404 6.40924 6.08574
#
# Compressibility (1/GPa) = 0.03326627
#
# Stress axis : x y z
#
# Youngs Moduli (GPa) = 62.74488 73.38542 38.68240
#
# Poissons Ratio (x) = 0.35192 -0.16804
# Poissons Ratio (y) = 0.30090 0.41094
# Poissons Ratio (z) = -0.27257 0.77960
#
# Static dielectric constant tensor:
#      x y z
#    x 1.656210 0.000000 0.000000 
#    y 0.000000 1.666790 0.000000 
#    z 0.000000 0.000000 1.773280 
# 
# From -- ./inp_files/54246.got.cif
#   From: 2010.05.17/outbox.cif.g08.bks.cpg/sg66_28_cif.got.tgz:54246.got - 2010.06.03 17:51:23.
