data_PCOD9496969
_publ_section_title
;
Structure prediction by ZEFSAII (Michael W. Deem and Ramdas Pophale) SiO2 
 PCOD9496969
Probable space group: C C C M
;
_chemical_formula_sum "Si O2"
_cell_formula_units_Z 104
_cell_length_a 21.001507
_cell_length_b 18.358444
_cell_length_c 13.967235
_cell_angle_alpha 90.000000
_cell_angle_beta 90.000000
_cell_angle_gamma 90.000000
_cell_volume 5385.137153
_symmetry_space_group_name_H-M "C C C M"
_symmetry_group_IT_number 66
_symmetry_cell_setting 'orthorhombic'
loop_
_space_group_symop_operation_xyz
x,y,z
-x,-y,z
x,-y,1/2-z
-x,y,1/2-z
-x,-y,-z
x,y,-z
-x,y,1/2+z
x,-y,1/2+z
1/2+x,1/2+y,z
1/2-x,1/2-y,z
1/2+x,1/2-y,1/2-z
1/2-x,1/2+y,1/2-z
1/2-x,1/2-y,-z
1/2+x,1/2+y,-z
1/2-x,1/2+y,1/2+z
1/2+x,1/2-y,1/2+z
loop_
_atom_site_type_symbol
_atom_site_label
_atom_site_fract_x
_atom_site_fract_y
_atom_site_fract_z
Si Si1 0.000000 0.148835 0.250000
Si Si2 0.820362 0.586521 0.615842
Si Si3 0.203687 0.017045 0.112365
Si Si4 0.141616 0.106385 0.718863
Si Si5 0.839360 0.747265 0.610020
Si Si6 0.535424 0.072754 0.882980
Si Si7 0.007781 0.274288 0.393180
O O1 0.934502 0.106520 0.234218
O O2 0.015015 0.205434 0.164942
O O3 0.821470 0.588194 0.500000
O O4 0.770682 0.522625 0.639166
O O5 0.806170 0.671418 0.641178
O O6 0.891734 0.571381 0.651108
O O7 0.180184 0.078465 0.187369
O O8 0.155673 0.950467 0.133739
O O9 0.204327 0.037651 0.000000
O O10 0.163722 0.185415 0.682162
O O11 0.820789 0.766369 0.500000
O O12 0.915112 0.729926 0.605072
O O13 0.496350 0.144841 0.854519
O O14 0.500000 0.000000 0.856563
O O15 0.538193 0.076560 0.000000
O O16 0.982632 0.269483 0.500000
#
# Coordination Sequence:
#
# PCOD9496969 Si02
#       7
#     8  16  16  16  16  16  16
#     4  10  20  35  53  72 106 134 174 226 272 313
#     4   8  15  29  53  81 108 136 168 220 271 306
#     4  10  21  36  53  77 109 140 178 220 264 315
#     4  10  21  35  54  78 104 139 173 219 274 321
#     4   8  14  29  55  84 104 127 170 218 267 314
#     4   8  13  25  51  82 106 133 170 208 259 321
#     4   8  15  28  49  76 105 134 166 210 263 315
#
# _framework density 19.312414
#
# number of rings (size 3 to 8) (size 9 to 14) (size 15 to 20)
#    0.000    3.231    0.000    2.308    0.000    3.077 
#    0.000    3.462   23.692    0.000    0.000    9.692 
#    0.000    0.000    0.000    0.000    0.000    0.000 
#
# Total GULP energy -289568.476617 kJ/mol
# GULP energy per Si atom -5568.624550 kJ/mol
# Density = 1.926846 g / cm^3
# Si number density = 19.312414 Si / 1000 Ang^3
#
#
#
# Elastic Constant Matrix: (Units=GPa)
#
#
# Indices 1 2 3 4 5 6 
#
# 1 71.5150 25.7517 2.6021 0.0000 0.0000 0.0000
# 2 25.7517 105.6813 36.4045 0.0000 0.0000 0.0000
# 3 2.6021 36.4045 85.2390 0.0000 0.0000 0.0000
# 4 0.0000 0.0000 0.0000 48.5242 0.0000 0.0000
# 5 0.0000 0.0000 0.0000 0.0000 16.3425 0.0000
# 6 0.0000 0.0000 0.0000 0.0000 0.0000 3.5569
#
#
#
# Elastic Compliance Matrix: (Units=1/GPa)
#
#
# Indices 1 2 3 4 5 6 
#
# 1 0.015456 -0.004225 0.001333 0.000000 0.000000 0.000000
# 2 -0.004225 0.012250 -0.005103 0.000000 0.000000 0.000000
# 3 0.001333 -0.005103 0.013870 0.000000 0.000000 0.000000
# 4 0.000000 0.000000 0.000000 0.020608 0.000000 0.000000
# 5 0.000000 0.000000 0.000000 0.000000 0.061190 0.000000
# 6 0.000000 0.000000 0.000000 0.000000 0.000000 0.281140
#
#
# Mechanical properties :
#
#
# Convention : Reuss Voigt Hill
#
# Bulk Modulus (GPa) = 39.08451 43.55019 41.31735
# Shear Modulus (GPa) = 11.65410 26.86322 19.25866
#
# Velocity S-wave (km/s) = 2.45919 3.73363 3.16130
# Velocity P-wave (km/s) = 5.32404 6.41763 5.89625
#
# Compressibility (1/GPa) = 0.02558559
#
# Stress axis : x y z
#
# Youngs Moduli (GPa) = 64.69952 81.63420 72.09626
#
# Poissons Ratio (x) = 0.34493 -0.09609
# Poissons Ratio (y) = 0.27338 0.36789
# Poissons Ratio (z) = -0.08623 0.41656
#
# Static dielectric constant tensor:
#      x y z
#    x 1.723030 0.000000 0.000000 
#    y 0.000000 1.718990 0.000000 
#    z 0.000000 0.000000 1.747320 
# 
# From -- ./inp_files/31526.got.cif
#   From: 2010.05.17/outbox.cif.g08.bks.cpg/sg66_16_cif.got.tgz:31526.got - 2010.06.03 17:51:23.
