data_PCOD9496999
_publ_section_title
;
Structure prediction by ZEFSAII (Michael W. Deem and Ramdas Pophale) SiO2 
 PCOD9496999
Probable space group: C C C M
;
_chemical_formula_sum "Si O2"
_cell_formula_units_Z 80
_cell_length_a 29.485242
_cell_length_b 8.320079
_cell_length_c 17.228011
_cell_angle_alpha 90.000000
_cell_angle_beta 90.000000
_cell_angle_gamma 90.000000
_cell_volume 4226.367781
_symmetry_space_group_name_H-M "C C C M"
_symmetry_group_IT_number 66
_symmetry_cell_setting 'orthorhombic'
loop_
_space_group_symop_operation_xyz
x,y,z
-x,-y,z
x,-y,1/2-z
-x,y,1/2-z
-x,-y,-z
x,y,-z
-x,y,1/2+z
x,-y,1/2+z
1/2+x,1/2+y,z
1/2-x,1/2-y,z
1/2+x,1/2-y,1/2-z
1/2-x,1/2+y,1/2-z
1/2-x,1/2-y,-z
1/2+x,1/2+y,-z
1/2-x,1/2+y,1/2+z
1/2+x,1/2-y,1/2+z
loop_
_atom_site_type_symbol
_atom_site_label
_atom_site_fract_x
_atom_site_fract_y
_atom_site_fract_z
Si Si1 0.207241 0.863667 0.816983
Si Si2 0.626688 0.885512 0.678727
Si Si3 0.293762 0.658875 0.590901
Si Si4 0.389975 0.196448 0.908439
Si Si5 0.446765 0.687101 0.265462
O O1 0.250000 0.750000 0.802289
O O2 0.164180 0.750642 0.829590
O O3 0.201558 0.000000 0.750000
O O4 0.213587 0.972652 0.892781
O O5 0.580986 0.798949 0.706487
O O6 0.641595 0.000000 0.750000
O O7 0.617985 0.007236 0.608187
O O8 0.295064 0.694578 0.500000
O O9 0.250000 0.750000 0.624575
O O10 0.343041 0.717598 0.618984
O O11 0.429297 0.260700 0.851119
O O12 0.397779 0.226473 0.000000
O O13 0.435653 0.500000 0.250000
O O14 0.500000 0.708375 0.250000
#
# Coordination Sequence:
#
# PCOD9496999 Si02
#       5
#    16  16  16  16  16
#     4  12  22  33  53  81 112 149 195 242 281 331
#     4  10  20  35  55  79 110 147 185 230 288 344
#     4  10  21  37  55  77 112 153 187 227 283 337
#     4  10  21  38  60  87 117 149 192 243 288 341
#     4  10  21  40  62  83 111 151 190 230 290 355
#
# _framework density 18.928784
#
# number of rings (size 3 to 8) (size 9 to 14) (size 15 to 20)
#    0.000    1.600    0.000    6.600    0.000    4.800 
#    0.000    5.000    0.000    0.000    0.000    0.000 
#    0.000    0.000    0.000    0.000    0.000    0.000 
#
# Total GULP energy -223220.099219 kJ/mol
# GULP energy per Si atom -5580.502480 kJ/mol
# Density = 1.888570 g / cm^3
# Si number density = 18.928784 Si / 1000 Ang^3
#
#
#
# Elastic Constant Matrix: (Units=GPa)
#
#
# Indices 1 2 3 4 5 6 
#
# 1 112.3308 63.5652 53.1038 0.0000 0.0000 0.0000
# 2 63.5652 127.2332 24.3269 0.0000 0.0000 0.0000
# 3 53.1038 24.3269 59.0591 0.0000 0.0000 0.0000
# 4 0.0000 0.0000 0.0000 22.1996 0.0000 0.0000
# 5 0.0000 0.0000 0.0000 0.0000 15.4556 0.0000
# 6 0.0000 0.0000 0.0000 0.0000 0.0000 41.8754
#
#
#
# Elastic Compliance Matrix: (Units=1/GPa)
#
#
# Indices 1 2 3 4 5 6 
#
# 1 0.020099 -0.007149 -0.015128 0.000000 0.000000 0.000000
# 2 -0.007149 0.011074 0.001867 0.000000 0.000000 0.000000
# 3 -0.015128 0.001867 0.029766 0.000000 0.000000 0.000000
# 4 0.000000 0.000000 0.000000 0.045046 0.000000 0.000000
# 5 0.000000 0.000000 0.000000 0.000000 0.064701 0.000000
# 6 0.000000 0.000000 0.000000 0.000000 0.000000 0.023880
#
#
# Mechanical properties :
#
#
# Convention : Reuss Voigt Hill
#
# Bulk Modulus (GPa) = 49.70486 64.51276 57.10881
# Shear Modulus (GPa) = 20.65314 26.41462 23.53388
#
# Velocity S-wave (km/s) = 3.30676 3.73966 3.52985
# Velocity P-wave (km/s) = 6.39495 7.26653 6.84463
#
# Compressibility (1/GPa) = 0.02011876
#
# Stress axis : x y z
#
# Youngs Moduli (GPa) = 49.75273 90.29862 33.59567
#
# Poissons Ratio (x) = 0.64556 0.50823
# Poissons Ratio (y) = 0.35569 -0.06271
# Poissons Ratio (z) = 0.75265 -0.16855
#
# Static dielectric constant tensor:
#      x y z
#    x 1.670260 0.000000 0.000000 
#    y 0.000000 1.663850 0.000000 
#    z 0.000000 0.000000 1.704770 
# 
# From -- ./inp_files/44116.got.cif
#   From: 2010.05.17/outbox.cif.g08.bks.cpg/sg66_23_cif.got.tgz:44116.got - 2010.06.03 17:51:23.
