data_PCOD9496390
_publ_section_title
;
Structure prediction by ZEFSAII (Michael W. Deem and Ramdas Pophale) SiO2 
 PCOD9496390
Probable space group: C C C M
;
_chemical_formula_sum "Si O2"
_cell_formula_units_Z 104
_cell_length_a 19.592251
_cell_length_b 9.250755
_cell_length_c 28.211291
_cell_angle_alpha 90.000000
_cell_angle_beta 90.000000
_cell_angle_gamma 90.000000
_cell_volume 5113.102228
_symmetry_space_group_name_H-M "C C C M"
_symmetry_group_IT_number 66
_symmetry_cell_setting 'orthorhombic'
loop_
_space_group_symop_operation_xyz
x,y,z
-x,-y,z
x,-y,1/2-z
-x,y,1/2-z
-x,-y,-z
x,y,-z
-x,y,1/2+z
x,-y,1/2+z
1/2+x,1/2+y,z
1/2-x,1/2-y,z
1/2+x,1/2-y,1/2-z
1/2-x,1/2+y,1/2-z
1/2-x,1/2-y,-z
1/2+x,1/2+y,-z
1/2-x,1/2+y,1/2+z
1/2+x,1/2-y,1/2+z
loop_
_atom_site_type_symbol
_atom_site_label
_atom_site_fract_x
_atom_site_fract_y
_atom_site_fract_z
Si Si1 0.373219 0.524748 0.554918
Si Si2 0.676147 0.180661 0.290372
Si Si3 0.394432 0.227488 0.118818
Si Si4 0.787560 0.551131 0.054272
Si Si5 0.379670 0.195172 0.418336
Si Si6 0.500000 0.000000 0.093987
Si Si7 0.678643 0.840618 0.684959
O O1 0.386023 0.557240 0.500000
O O2 0.413696 0.632878 0.588684
O O3 0.292528 0.552396 0.564990
O O4 0.386737 0.357722 0.565009
O O5 0.750000 0.250000 0.289099
O O6 0.632078 0.261863 0.329368
O O7 0.648577 0.195720 0.236888
O O8 0.686311 0.014833 0.308651
O O9 0.333869 0.146540 0.089263
O O10 0.455389 0.113891 0.122886
O O11 0.814740 0.387827 0.059905
O O12 0.797743 0.599413 0.000000
O O13 0.444528 0.097356 0.432966
O O14 0.366884 0.188948 0.361396
O O15 0.750000 0.750000 0.679177
#
# Coordination Sequence:
#
# PCOD9496390 Si02
#       7
#    16  16  16  16  16   8  16
#     4  11  23  38  62  91 117 149 195 251 308 362
#     4  10  20  35  59  94 125 152 190 237 299 359
#     4  11  22  39  59  84 121 160 198 243 295 342
#     4  10  19  35  59  89 119 147 188 239 304 369
#     4  11  22  39  59  84 121 160 198 243 295 342
#     4  10  24  44  58  80 114 160 216 244 282 350
#     4  10  20  35  59  94 125 152 190 237 299 359
#
# _framework density 20.339901999999999
#
# number of rings (size 3 to 8) (size 9 to 14) (size 15 to 20)
#    0.000    1.538    3.077    3.692    2.154    3.077 
#    0.000   16.154    0.000    0.000    0.000    2.154 
#    0.000    0.000    0.000    0.000    0.000    0.000 
#
# Total GULP energy -290298.973092 kJ/mol
# GULP energy per Si atom -5582.672559 kJ/mol
# Density = 2.029361 g / cm^3
# Si number density = 20.339902 Si / 1000 Ang^3
#
#
#
# Elastic Constant Matrix: (Units=GPa)
#
#
# Indices 1 2 3 4 5 6 
#
# 1 45.0931 10.2137 27.0613 0.0000 0.0000 0.0000
# 2 10.2137 93.7704 35.1908 0.0000 0.0000 0.0000
# 3 27.0613 35.1908 99.4477 0.0000 0.0000 0.0000
# 4 0.0000 0.0000 0.0000 -6.7184 0.0000 0.0000
# 5 0.0000 0.0000 0.0000 0.0000 -25.2108 0.0000
# 6 0.0000 0.0000 0.0000 0.0000 0.0000 15.3083
#
#
#
# Elastic Compliance Matrix: (Units=1/GPa)
#
#
# Indices 1 2 3 4 5 6 
#
# 1 0.026508 -0.000208 -0.007140 0.000000 0.000000 0.000000
# 2 -0.000208 0.012299 -0.004296 0.000000 0.000000 0.000000
# 3 -0.007140 -0.004296 0.013518 0.000000 0.000000 0.000000
# 4 0.000000 0.000000 0.000000 -0.148845 0.000000 0.000000
# 5 0.000000 0.000000 0.000000 0.000000 -0.039666 0.000000
# 6 0.000000 0.000000 0.000000 0.000000 0.000000 0.065324
#
#
# Mechanical properties :
#
#
# Convention : Reuss Voigt Hill
#
# Bulk Modulus (GPa) = 34.43621 42.58253 38.50937
# Shear Modulus (GPa) = -131.94386 7.73217 -62.10584
#
# Velocity S-wave (km/s) = -8.06290 1.95185 -5.53175
# Velocity P-wave (km/s) = 8.34945 5.10495 4.67187
#
# Compressibility (1/GPa) = 0.02903920
#
# Stress axis : x y z
#
# Youngs Moduli (GPa) = 37.72424 81.30690 73.97309
#
# Poissons Ratio (x) = 0.01690 0.52815
# Poissons Ratio (y) = 0.00784 0.31776
# Poissons Ratio (z) = 0.26934 0.34926
#
# Static dielectric constant tensor:
#      x y z
#    x 1.739560 0.000000 0.000000 
#    y 0.000000 1.757040 0.000000 
#    z 0.000000 0.000000 1.724790 
# 
# From -- ./inp_files/70208.got.cif
#   From: 2010.05.17/outbox.cif.g08.bks.cpg/sg66_36_cif.got.tgz:70208.got - 2010.06.03 17:51:23.
