data_PCOD9496922
_publ_section_title
;
Structure prediction by ZEFSAII (Michael W. Deem and Ramdas Pophale) SiO2 
 PCOD9496922
Probable space group: C C C M
;
_chemical_formula_sum "Si O2"
_cell_formula_units_Z 80
_cell_length_a 12.457147
_cell_length_b 10.889592
_cell_length_c 31.033539
_cell_angle_alpha 90.000000
_cell_angle_beta 90.000000
_cell_angle_gamma 90.000000
_cell_volume 4209.800372
_symmetry_space_group_name_H-M "C C C M"
_symmetry_group_IT_number 66
_symmetry_cell_setting 'orthorhombic'
loop_
_space_group_symop_operation_xyz
x,y,z
-x,-y,z
x,-y,1/2-z
-x,y,1/2-z
-x,-y,-z
x,y,-z
-x,y,1/2+z
x,-y,1/2+z
1/2+x,1/2+y,z
1/2-x,1/2-y,z
1/2+x,1/2-y,1/2-z
1/2-x,1/2+y,1/2-z
1/2-x,1/2-y,-z
1/2+x,1/2+y,-z
1/2-x,1/2+y,1/2+z
1/2+x,1/2-y,1/2+z
loop_
_atom_site_type_symbol
_atom_site_label
_atom_site_fract_x
_atom_site_fract_y
_atom_site_fract_z
Si Si1 0.964850 0.196100 0.083354
Si Si2 0.657523 0.547938 0.052023
Si Si3 0.002280 0.860109 0.323693
Si Si4 0.171373 0.138990 0.247380
Si Si5 0.386332 0.049626 0.551734
O O1 0.975781 0.217939 0.134505
O O2 0.896414 0.306964 0.063305
O O3 0.086424 0.165799 0.066522
O O4 0.900957 0.072740 0.070702
O O5 0.781647 0.527595 0.066032
O O6 0.653043 0.545344 0.000000
O O7 0.915617 0.854063 0.285634
O O8 0.113588 0.841655 0.298702
O O9 0.000000 0.000000 0.340070
O O10 0.250000 0.250000 0.254368
O O11 0.216256 0.000000 0.250000
O O12 0.385884 0.039867 0.500000
O O13 0.500000 0.000000 0.568544
#
# Coordination Sequence:
#
# PCOD9496922 Si02
#       5
#    16  16  16  16  16
#     4  11  19  35  57  84 109 142 194 247 281 333
#     4  10  20  34  57  81 106 145 195 239 286 334
#     4   9  18  37  56  81 111 143 183 227 284 347
#     4   9  19  37  60  82 111 150 185 224 287 350
#     4  10  22  38  52  76 117 158 191 234 295 353
#
# _framework density 19.003276
#
# number of rings (size 3 to 8) (size 9 to 14) (size 15 to 20)
#    0.000    2.200    2.000    4.200    0.000    4.000 
#    3.600    5.000    0.000    0.000    0.000    0.000 
#    0.000    0.000    0.000    0.000    0.000    0.000 
#
# Total GULP energy -222712.768746 kJ/mol
# GULP energy per Si atom -5567.819219 kJ/mol
# Density = 1.896002 g / cm^3
# Si number density = 19.003276 Si / 1000 Ang^3
#
#
#
# Elastic Constant Matrix: (Units=GPa)
#
#
# Indices 1 2 3 4 5 6 
#
# 1 94.4366 27.0343 13.2649 0.0000 0.0000 0.0000
# 2 27.0343 44.3048 -3.6629 0.0000 0.0000 0.0000
# 3 13.2649 -3.6629 51.3754 0.0000 0.0000 0.0000
# 4 0.0000 0.0000 0.0000 11.1156 0.0000 0.0000
# 5 0.0000 0.0000 0.0000 0.0000 55.7725 0.0000
# 6 0.0000 0.0000 0.0000 0.0000 0.0000 23.1177
#
#
#
# Elastic Compliance Matrix: (Units=1/GPa)
#
#
# Indices 1 2 3 4 5 6 
#
# 1 0.013654 -0.008674 -0.004144 0.000000 0.000000 0.000000
# 2 -0.008674 0.028215 0.004251 0.000000 0.000000 0.000000
# 3 -0.004144 0.004251 0.020838 0.000000 0.000000 0.000000
# 4 0.000000 0.000000 0.000000 0.089964 0.000000 0.000000
# 5 0.000000 0.000000 0.000000 0.000000 0.017930 0.000000
# 6 0.000000 0.000000 0.000000 0.000000 0.000000 0.043257
#
#
# Mechanical properties :
#
#
# Convention : Reuss Voigt Hill
#
# Bulk Modulus (GPa) = 21.94258 29.26549 25.60403
# Shear Modulus (GPa) = 20.31008 28.23319 24.27164
#
# Velocity S-wave (km/s) = 3.27275 3.85866 3.57772
# Velocity P-wave (km/s) = 5.08458 5.94020 5.52897
#
# Compressibility (1/GPa) = 0.04557350
#
# Stress axis : x y z
#
# Youngs Moduli (GPa) = 73.23654 35.44162 47.99007
#
# Poissons Ratio (x) = 0.30743 0.19887
# Poissons Ratio (y) = 0.63528 -0.20402
# Poissons Ratio (z) = 0.30349 -0.15067
#
# Static dielectric constant tensor:
#      x y z
#    x 1.714200 0.000000 0.000000 
#    y 0.000000 1.665140 0.000000 
#    z 0.000000 0.000000 1.651070 
# 
# From -- ./inp_files/68757.got.cif
#   From: 2010.05.17/outbox.cif.g08.bks.cpg/sg66_35_cif.got.tgz:68757.got - 2010.06.03 17:51:23.
