data_PCOD9496705
_publ_section_title
;
Structure prediction by ZEFSAII (Michael W. Deem and Ramdas Pophale) SiO2 
 PCOD9496705
Probable space group: C C C M
;
_chemical_formula_sum "Si O2"
_cell_formula_units_Z 64
_cell_length_a 27.805128
_cell_length_b 8.913248
_cell_length_c 9.406864
_cell_angle_alpha 90.000000
_cell_angle_beta 90.000000
_cell_angle_gamma 90.000000
_cell_volume 2331.340747
_symmetry_space_group_name_H-M "C C C M"
_symmetry_group_IT_number 66
_symmetry_cell_setting 'orthorhombic'
loop_
_space_group_symop_operation_xyz
x,y,z
-x,-y,z
x,-y,1/2-z
-x,y,1/2-z
-x,-y,-z
x,y,-z
-x,y,1/2+z
x,-y,1/2+z
1/2+x,1/2+y,z
1/2-x,1/2-y,z
1/2+x,1/2-y,1/2-z
1/2-x,1/2+y,1/2-z
1/2-x,1/2-y,-z
1/2+x,1/2+y,-z
1/2-x,1/2+y,1/2+z
1/2+x,1/2-y,1/2+z
loop_
_atom_site_type_symbol
_atom_site_label
_atom_site_fract_x
_atom_site_fract_y
_atom_site_fract_z
Si Si1 0.877393 0.845005 0.000000
Si Si2 0.000000 0.749536 0.750000
Si Si3 0.072002 0.500000 0.250000
Si Si4 0.750000 0.250000 0.746786
Si Si5 0.057326 0.908675 0.000000
Si Si6 0.818975 0.000000 0.250000
Si Si7 0.128818 0.340869 0.500000
Si Si8 0.809137 0.587730 0.000000
O O1 0.851424 0.912463 0.138522
O O2 0.930497 0.915505 0.000000
O O3 0.860973 0.672808 0.000000
O O4 0.038099 0.630127 0.683750
O O5 0.028893 0.848735 0.863196
O O6 0.104123 0.411422 0.361155
O O7 0.714576 0.369921 0.818213
O O8 0.781467 0.352624 0.637852
O O9 0.109769 0.827881 0.000000
O O10 0.181878 0.410394 0.500000
#
# Coordination Sequence:
#
# PCOD9496705 Si02
#       8
#     8   8   8   8   8   8   8   8
#     4  10  23  40  60  87 125 158 190 242 299 348
#     4   9  18  34  58  85 116 147 192 243 302 351
#     4   9  18  33  54  85 116 146 188 255 300 333
#     4   9  20  37  60  86 122 162 196 238 294 348
#     4  10  21  38  62  90 115 152 200 250 295 349
#     4  10  22  41  62  88 122 158 196 246 292 345
#     4  10  20  32  57  87 113 150 200 244 290 344
#     4   9  20  39  57  82 123 166 194 233 298 357
#
# _framework density 27.452013999999998
#
# number of rings (size 3 to 8) (size 9 to 14) (size 15 to 20)
#    0.000    2.500    0.000    1.500    0.000   14.500 
#    0.000    1.250    0.000   18.750    0.000    0.000 
#    0.000    0.000    0.000    0.000    0.000    0.000 
#
# Total GULP energy -179315.352502 kJ/mol
# GULP energy per Si atom -5603.604766 kJ/mol
# Density = 2.738953 g / cm^3
# Si number density = 27.452014 Si / 1000 Ang^3
#
#
#
# Elastic Constant Matrix: (Units=GPa)
#
#
# Indices 1 2 3 4 5 6 
#
# 1 91.0212 40.9729 5.1205 0.0000 0.0000 0.0000
# 2 40.9729 153.9941 17.3843 0.0000 0.0000 0.0000
# 3 5.1205 17.3843 63.1774 0.0000 0.0000 0.0000
# 4 0.0000 0.0000 0.0000 -30.1370 0.0000 0.0000
# 5 0.0000 0.0000 0.0000 0.0000 25.7399 0.0000
# 6 0.0000 0.0000 0.0000 0.0000 0.0000 71.5180
#
#
#
# Elastic Compliance Matrix: (Units=1/GPa)
#
#
# Indices 1 2 3 4 5 6 
#
# 1 0.012482 -0.003310 -0.000101 0.000000 0.000000 0.000000
# 2 -0.003310 0.007580 -0.001817 0.000000 0.000000 0.000000
# 3 -0.000101 -0.001817 0.016337 0.000000 0.000000 0.000000
# 4 0.000000 0.000000 0.000000 -0.033182 0.000000 0.000000
# 5 0.000000 0.000000 0.000000 0.000000 0.038850 0.000000
# 6 0.000000 0.000000 0.000000 0.000000 0.000000 0.013982
#
#
# Mechanical properties :
#
#
# Convention : Reuss Voigt Hill
#
# Bulk Modulus (GPa) = 38.54721 48.34978 43.44850
# Shear Modulus (GPa) = 66.53137 29.73850 48.13493
#
# Velocity S-wave (km/s) = 4.92830 3.29491 4.19193
# Velocity P-wave (km/s) = 6.81589 5.66797 6.26826
#
# Compressibility (1/GPa) = 0.02594222
#
# Stress axis : x y z
#
# Youngs Moduli (GPa) = 80.11561 131.93456 61.21182
#
# Poissons Ratio (x) = 0.43666 0.00618
# Poissons Ratio (y) = 0.26516 0.11125
# Poissons Ratio (z) = 0.00809 0.23978
#
# Static dielectric constant tensor:
#      x y z
#    x 2.194110 0.000000 0.000000 
#    y 0.000000 2.110240 0.000000 
#    z 0.000000 0.000000 2.074730 
# 
# From -- ./inp_files/13655.got.cif
#   From: 2010.05.17/outbox.cif.g08.bks.cpg/sg66_7_cif.got.tgz:13655.got - 2010.06.03 17:51:23.
