data_PCOD9496901
_publ_section_title
;
Structure prediction by ZEFSAII (Michael W. Deem and Ramdas Pophale) SiO2 
 PCOD9496901
Probable space group: C C C M
;
_chemical_formula_sum "Si O2"
_cell_formula_units_Z 64
_cell_length_a 16.310601
_cell_length_b 8.527734
_cell_length_c 24.610146
_cell_angle_alpha 90.000000
_cell_angle_beta 90.000000
_cell_angle_gamma 90.000000
_cell_volume 3423.085913
_symmetry_space_group_name_H-M "C C C M"
_symmetry_group_IT_number 66
_symmetry_cell_setting 'orthorhombic'
loop_
_space_group_symop_operation_xyz
x,y,z
-x,-y,z
x,-y,1/2-z
-x,y,1/2-z
-x,-y,-z
x,y,-z
-x,y,1/2+z
x,-y,1/2+z
1/2+x,1/2+y,z
1/2-x,1/2-y,z
1/2+x,1/2-y,1/2-z
1/2-x,1/2+y,1/2-z
1/2-x,1/2-y,-z
1/2+x,1/2+y,-z
1/2-x,1/2+y,1/2+z
1/2+x,1/2-y,1/2+z
loop_
_atom_site_type_symbol
_atom_site_label
_atom_site_fract_x
_atom_site_fract_y
_atom_site_fract_z
Si Si1 0.988039 0.685392 0.813405
Si Si2 0.156581 0.801463 0.384595
Si Si3 0.845113 0.698977 0.500000
Si Si4 0.341999 0.823752 0.500000
Si Si5 0.422277 0.612983 0.098601
O O1 0.899617 0.735576 0.836623
O O2 0.000000 0.500000 0.821552
O O3 0.000000 0.720548 0.750000
O O4 0.050542 0.785259 0.849929
O O5 0.250000 0.750000 0.378980
O O6 0.122753 0.736905 0.442794
O O7 0.148502 0.988561 0.387419
O O8 0.750000 0.750000 0.500000
O O9 0.845319 0.510871 0.500000
O O10 0.891500 0.773574 0.448537
O O11 0.250000 0.750000 0.500000
O O12 0.500000 0.500000 0.084025
#
# Coordination Sequence:
#
# PCOD9496901 Si02
#       5
#    16  16   8   8  16
#     4  10  22  41  60  83 116 153 195 241 289 343
#     4  10  20  38  60  86 118 151 190 239 287 340
#     4  12  21  34  58  89 121 155 194 234 284 347
#     4  10  20  34  55  85 121 149 183 238 291 333
#     4  10  22  38  60  86 119 154 192 235 291 350
#
# _framework density 18.696580999999998
#
# number of rings (size 3 to 8) (size 9 to 14) (size 15 to 20)
#    0.000    1.750    0.000    5.625    0.000    7.500 
#    0.000   12.500    0.000    0.000    0.000    0.000 
#    0.000    0.000    0.000    0.000    0.000    0.000 
#
# Total GULP energy -178678.140688 kJ/mol
# GULP energy per Si atom -5583.691896 kJ/mol
# Density = 1.865403 g / cm^3
# Si number density = 18.696581 Si / 1000 Ang^3
#
#
#
# Elastic Constant Matrix: (Units=GPa)
#
#
# Indices 1 2 3 4 5 6 
#
# 1 75.2245 56.2129 71.4941 0.0000 0.0000 0.0000
# 2 56.2129 171.5372 97.6262 0.0000 0.0000 0.0000
# 3 71.4941 97.6262 168.8212 0.0000 0.0000 0.0000
# 4 0.0000 0.0000 0.0000 28.9064 0.0000 0.0000
# 5 0.0000 0.0000 0.0000 0.0000 24.1294 0.0000
# 6 0.0000 0.0000 0.0000 0.0000 0.0000 38.1755
#
#
#
# Elastic Compliance Matrix: (Units=1/GPa)
#
#
# Indices 1 2 3 4 5 6 
#
# 1 0.023242 -0.003003 -0.008106 0.000000 0.000000 0.000000
# 2 -0.003003 0.009077 -0.003978 0.000000 0.000000 0.000000
# 3 -0.008106 -0.003978 0.011656 0.000000 0.000000 0.000000
# 4 0.000000 0.000000 0.000000 0.034594 0.000000 0.000000
# 5 0.000000 0.000000 0.000000 0.000000 0.041443 0.000000
# 6 0.000000 0.000000 0.000000 0.000000 0.000000 0.026195
#
#
# Mechanical properties :
#
#
# Convention : Reuss Voigt Hill
#
# Bulk Modulus (GPa) = 72.45160 96.24991 84.35076
# Shear Modulus (GPa) = 27.62705 30.92556 29.27631
#
# Velocity S-wave (km/s) = 3.84819 4.07145 3.96139
# Velocity P-wave (km/s) = 7.65377 8.58452 8.13247
#
# Compressibility (1/GPa) = 0.01380232
#
# Stress axis : x y z
#
# Youngs Moduli (GPa) = 43.02624 110.16287 85.78952
#
# Poissons Ratio (x) = 0.33081 0.69541
# Poissons Ratio (y) = 0.12921 0.34124
# Poissons Ratio (z) = 0.34877 0.43819
#
# Static dielectric constant tensor:
#      x y z
#    x 1.665550 0.000000 0.000000 
#    y 0.000000 1.639280 0.000000 
#    z 0.000000 0.000000 1.731480 
# 
# From -- ./inp_files/46641.got.cif
#   From: 2010.05.17/outbox.cif.g08.bks.cpg/sg66_24_cif.got.tgz:46641.got - 2010.06.03 17:51:23.
