data_PCOD9496791
_publ_section_title
;
Structure prediction by ZEFSAII (Michael W. Deem and Ramdas Pophale) SiO2 
 PCOD9496791
Probable space group: C C C M
;
_chemical_formula_sum "Si O2"
_cell_formula_units_Z 104
_cell_length_a 24.771027
_cell_length_b 9.067225
_cell_length_c 22.696084
_cell_angle_alpha 90.000000
_cell_angle_beta 90.000000
_cell_angle_gamma 90.000000
_cell_volume 5097.642038
_symmetry_space_group_name_H-M "C C C M"
_symmetry_group_IT_number 66
_symmetry_cell_setting 'orthorhombic'
loop_
_space_group_symop_operation_xyz
x,y,z
-x,-y,z
x,-y,1/2-z
-x,y,1/2-z
-x,-y,-z
x,y,-z
-x,y,1/2+z
x,-y,1/2+z
1/2+x,1/2+y,z
1/2-x,1/2-y,z
1/2+x,1/2-y,1/2-z
1/2-x,1/2+y,1/2-z
1/2-x,1/2-y,-z
1/2+x,1/2+y,-z
1/2-x,1/2+y,1/2+z
1/2+x,1/2-y,1/2+z
loop_
_atom_site_type_symbol
_atom_site_label
_atom_site_fract_x
_atom_site_fract_y
_atom_site_fract_z
Si Si1 0.391511 0.110299 0.400727
Si Si2 0.070438 0.703978 0.624018
Si Si3 0.880616 0.195639 0.500000
Si Si4 0.693276 0.420732 0.000000
Si Si5 0.184478 0.529209 0.500000
Si Si6 0.307437 0.312885 0.632323
Si Si7 0.966537 0.865775 0.399009
Si Si8 0.380637 0.538340 0.682310
O O1 0.354765 0.196543 0.353569
O O2 0.429975 0.237754 0.428664
O O3 0.424636 0.971639 0.376077
O O4 0.348368 0.037444 0.444989
O O5 0.086238 0.759834 0.557942
O O6 0.011031 0.768042 0.634972
O O7 0.111302 0.790310 0.666923
O O8 0.827390 0.297551 0.500000
O O9 0.857941 0.030764 0.500000
O O10 0.691423 0.332981 0.061247
O O11 0.752597 0.494510 0.000000
O O12 0.250000 0.250000 0.650075
O O13 0.324496 0.468840 0.659689
O O14 0.926346 0.954288 0.356159
O O15 0.000000 0.000000 0.430068
O O16 0.387727 0.500000 0.750000
#
# Coordination Sequence:
#
# PCOD9496791 Si02
#       8
#    16  16   8   8   8  16  16  16
#     4  10  20  35  55  86 124 154 199 246 303 361
#     4  10  20  38  59  88 121 159 193 249 311 365
#     4  10  21  34  56  92 127 151 195 252 308 375
#     4  12  19  36  62  89 121 164 207 240 310 368
#     4  10  20  33  55  89 120 163 200 248 301 360
#     4  11  21  37  60  89 122 158 203 247 298 371
#     4   9  20  37  58  84 114 154 199 246 299 365
#     4  10  22  42  64  85 115 157 203 256 299 355
#
# _framework density 20.401589999999999
#
# number of rings (size 3 to 8) (size 9 to 14) (size 15 to 20)
#    0.000    1.846    3.077    1.385    0.000    3.385 
#    0.000   12.308    0.000    7.385    0.000    0.000 
#    0.000    0.000    0.000    0.000    0.000    0.000 
#
# Total GULP energy -289782.007733 kJ/mol
# GULP energy per Si atom -5572.730918 kJ/mol
# Density = 2.035515 g / cm^3
# Si number density = 20.401590 Si / 1000 Ang^3
#
#
#
# Elastic Constant Matrix: (Units=GPa)
#
#
# Indices 1 2 3 4 5 6 
#
# 1 82.0873 37.7371 -12.1569 0.0000 0.0000 0.0000
# 2 37.7371 126.7041 5.7090 0.0000 0.0000 0.0000
# 3 -12.1569 5.7090 60.1435 0.0000 0.0000 0.0000
# 4 0.0000 0.0000 0.0000 6.5560 0.0000 0.0000
# 5 0.0000 0.0000 0.0000 0.0000 0.7972 0.0000
# 6 0.0000 0.0000 0.0000 0.0000 0.0000 39.4929
#
#
#
# Elastic Compliance Matrix: (Units=1/GPa)
#
#
# Indices 1 2 3 4 5 6 
#
# 1 0.014784 -0.004557 0.003421 0.000000 0.000000 0.000000
# 2 -0.004557 0.009331 -0.001807 0.000000 0.000000 0.000000
# 3 0.003421 -0.001807 0.017490 0.000000 0.000000 0.000000
# 4 0.000000 0.000000 0.000000 0.152531 0.000000 0.000000
# 5 0.000000 0.000000 0.000000 0.000000 1.254392 0.000000
# 6 0.000000 0.000000 0.000000 0.000000 0.000000 0.025321
#
#
# Mechanical properties :
#
#
# Convention : Reuss Voigt Hill
#
# Bulk Modulus (GPa) = 27.99692 36.83480 32.41586
# Shear Modulus (GPa) = 3.35201 25.21227 14.28214
#
# Velocity S-wave (km/s) = 1.28319 3.51921 2.64872
# Velocity P-wave (km/s) = 3.99351 5.88279 5.02769
#
# Compressibility (1/GPa) = 0.03571821
#
# Stress axis : x y z
#
# Youngs Moduli (GPa) = 67.64129 107.16785 57.17591
#
# Poissons Ratio (x) = 0.48840 -0.19559
# Poissons Ratio (y) = 0.30826 0.10331
# Poissons Ratio (z) = -0.23139 0.19364
#
# Static dielectric constant tensor:
#      x y z
#    x 1.759750 0.000000 0.000000 
#    y 0.000000 1.788540 0.000000 
#    z 0.000000 0.000000 1.718130 
# 
# From -- ./inp_files/66088.got.cif
#   From: 2010.05.17/outbox.cif.g08.bks.cpg/sg66_34_cif.got.tgz:66088.got - 2010.06.03 17:51:23.
