data_PCOD9496671
_publ_section_title
;
Structure prediction by ZEFSAII (Michael W. Deem and Ramdas Pophale) SiO2 
 PCOD9496671
Probable space group: C C C M
;
_chemical_formula_sum "Si O2"
_cell_formula_units_Z 80
_cell_length_a 17.251121
_cell_length_b 9.951063
_cell_length_c 26.609375
_cell_angle_alpha 90.000000
_cell_angle_beta 90.000000
_cell_angle_gamma 90.000000
_cell_volume 4567.951362
_symmetry_space_group_name_H-M "C C C M"
_symmetry_group_IT_number 66
_symmetry_cell_setting 'orthorhombic'
loop_
_space_group_symop_operation_xyz
x,y,z
-x,-y,z
x,-y,1/2-z
-x,y,1/2-z
-x,-y,-z
x,y,-z
-x,y,1/2+z
x,-y,1/2+z
1/2+x,1/2+y,z
1/2-x,1/2-y,z
1/2+x,1/2-y,1/2-z
1/2-x,1/2+y,1/2-z
1/2-x,1/2-y,-z
1/2+x,1/2+y,-z
1/2-x,1/2+y,1/2+z
1/2+x,1/2-y,1/2+z
loop_
_atom_site_type_symbol
_atom_site_label
_atom_site_fract_x
_atom_site_fract_y
_atom_site_fract_z
Si Si1 0.841447 0.039234 0.941233
Si Si2 0.330872 0.028903 0.058510
Si Si3 0.449880 0.207761 0.440649
Si Si4 0.940354 0.895594 0.787809
Si Si5 0.108300 0.228906 0.114936
O O1 0.749068 0.051882 0.934557
O O2 0.869773 0.911925 0.910275
O O3 0.889665 0.172237 0.929505
O O4 0.855031 0.009933 0.000000
O O5 0.334997 0.154728 0.095630
O O6 0.403702 0.930957 0.066269
O O7 0.332576 0.075286 0.000000
O O8 0.471824 0.216171 0.500000
O O9 0.524560 0.226321 0.406294
O O10 0.896385 0.802381 0.825936
O O11 0.000000 0.820648 0.750000
O O12 0.896384 0.000000 0.750000
O O13 0.000000 0.000000 0.816093
#
# Coordination Sequence:
#
# PCOD9496671 Si02
#       5
#    16  16  16  16  16
#     4  10  20  32  49  77 113 149 180 206 241 313
#     4  10  21  34  46  75 125 156 163 198 263 318
#     4  10  20  32  49  75 112 151 181 205 240 309
#     4   6  16  32  49  75  95 126 160 221 277 324
#     4  12  18  30  56  83  96 131 184 230 263 295
#
# _framework density 17.513321000000001
#
# number of rings (size 3 to 8) (size 9 to 14) (size 15 to 20)
#    1.200    1.200    0.000    5.400    0.000    7.200 
#    0.000    0.000    0.000    2.400   10.400    0.000 
#    0.000    0.000    0.000    0.000    0.000    0.000 
#
# Total GULP energy -222673.471269 kJ/mol
# GULP energy per Si atom -5566.836782 kJ/mol
# Density = 1.747346 g / cm^3
# Si number density = 17.513321 Si / 1000 Ang^3
#
#
#
# Elastic Constant Matrix: (Units=GPa)
#
#
# Indices 1 2 3 4 5 6 
#
# 1 45.3631 0.4091 19.3993 0.0000 0.0000 0.0000
# 2 0.4091 54.7618 24.3570 0.0000 0.0000 0.0000
# 3 19.3993 24.3570 43.4351 0.0000 0.0000 0.0000
# 4 0.0000 0.0000 0.0000 23.8061 0.0000 0.0000
# 5 0.0000 0.0000 0.0000 0.0000 -120.1843 0.0000
# 6 0.0000 0.0000 0.0000 0.0000 0.0000 27.2649
#
#
#
# Elastic Compliance Matrix: (Units=1/GPa)
#
#
# Indices 1 2 3 4 5 6 
#
# 1 0.029384 0.007484 -0.017321 0.000000 0.000000 0.000000
# 2 0.007484 0.026235 -0.018055 0.000000 0.000000 0.000000
# 3 -0.017321 -0.018055 0.040883 0.000000 0.000000 0.000000
# 4 0.000000 0.000000 0.000000 0.042006 0.000000 0.000000
# 5 0.000000 0.000000 0.000000 0.000000 -0.008321 0.000000
# 6 0.000000 0.000000 0.000000 0.000000 0.000000 0.036677
#
#
# Mechanical properties :
#
#
# Convention : Reuss Voigt Hill
#
# Bulk Modulus (GPa) = 24.55758 25.76564 25.16161
# Shear Modulus (GPa) = 21.16663 -7.19634 6.98514
#
# Velocity S-wave (km/s) = 3.48027 -2.02928 1.99928
# Velocity P-wave (km/s) = 5.49567 3.04193 4.44160
#
# Compressibility (1/GPa) = 0.04072063
#
# Stress axis : x y z
#
# Youngs Moduli (GPa) = 34.03209 38.11649 24.45986
#
# Poissons Ratio (x) = -0.28528 0.42366
# Poissons Ratio (y) = -0.25471 0.44162
# Poissons Ratio (z) = 0.58946 0.68818
#
# Static dielectric constant tensor:
#      x y z
#    x 1.631920 0.000000 0.000000 
#    y 0.000000 1.600690 0.000000 
#    z 0.000000 0.000000 1.595050 
# 
# From -- ./inp_files/65078.got.cif
#   From: 2010.05.17/outbox.cif.g08.bks.cpg/sg66_33_cif.got.tgz:65078.got - 2010.06.03 17:51:23.
