data_PCOD9496429
_publ_section_title
;
Structure prediction by ZEFSAII (Michael W. Deem and Ramdas Pophale) SiO2 
 PCOD9496429
Probable space group: C C C M
;
_chemical_formula_sum "Si O2"
_cell_formula_units_Z 112
_cell_length_a 12.077070
_cell_length_b 30.429168
_cell_length_c 15.144544
_cell_angle_alpha 90.000000
_cell_angle_beta 90.000000
_cell_angle_gamma 90.000000
_cell_volume 5565.547105
_symmetry_space_group_name_H-M "C C C M"
_symmetry_group_IT_number 66
_symmetry_cell_setting 'orthorhombic'
loop_
_space_group_symop_operation_xyz
x,y,z
-x,-y,z
x,-y,1/2-z
-x,y,1/2-z
-x,-y,-z
x,y,-z
-x,y,1/2+z
x,-y,1/2+z
1/2+x,1/2+y,z
1/2-x,1/2-y,z
1/2+x,1/2-y,1/2-z
1/2-x,1/2+y,1/2-z
1/2-x,1/2-y,-z
1/2+x,1/2+y,-z
1/2-x,1/2+y,1/2+z
1/2+x,1/2-y,1/2+z
loop_
_atom_site_type_symbol
_atom_site_label
_atom_site_fract_x
_atom_site_fract_y
_atom_site_fract_z
Si Si1 0.131547 0.091944 0.251820
Si Si2 0.378513 0.803888 0.901266
Si Si3 0.220568 0.545064 0.895262
Si Si4 0.488441 0.101382 0.394222
Si Si5 0.284297 0.059264 0.896071
Si Si6 0.424241 0.230722 0.829965
Si Si7 0.723425 0.689874 0.235491
O O1 0.182971 0.064783 0.333944
O O2 0.179987 0.071620 0.162373
O O3 0.175964 0.141948 0.250940
O O4 0.000000 0.091176 0.250000
O O5 0.442222 0.849773 0.879874
O O6 0.479892 0.768782 0.902218
O O7 0.284270 0.796980 0.827630
O O8 0.330888 0.807054 0.000000
O O9 0.108171 0.568818 0.864820
O O10 0.201467 0.493082 0.887011
O O11 0.239433 0.554603 0.000000
O O12 0.496879 0.096235 0.500000
O O13 0.608529 0.086294 0.361215
O O14 0.268533 0.068971 0.000000
O O15 0.500000 0.214419 0.750000
O O16 0.370146 0.276439 0.798713
O O17 0.321721 0.197044 0.837063
#
# Coordination Sequence:
#
# PCOD9496429 Si02
#       7
#    16  16  16  16  16  16  16
#     4  12  25  39  59  85 119 170 222 259 300 375
#     4  10  19  35  63  94 121 154 203 261 317 378
#     4  10  21  39  62  89 122 158 203 265 326 376
#     4   9  17  34  62  94 123 150 191 257 328 379
#     4  10  22  39  59  87 124 163 205 258 319 379
#     4   9  19  36  58  84 115 152 187 243 316 377
#     4  10  20  38  59  82 119 160 202 249 312 378
#
# _framework density 20.123808
#
# number of rings (size 3 to 8) (size 9 to 14) (size 15 to 20)
#    0.000    2.000    1.429    2.143    0.000    4.000 
#    0.000   10.714    0.000    5.143    0.000    0.000 
#    0.000    0.000    0.000    0.000    0.000    0.000 
#
# Total GULP energy -312178.084831 kJ/mol
# GULP energy per Si atom -5574.608658 kJ/mol
# Density = 2.007801 g / cm^3
# Si number density = 20.123808 Si / 1000 Ang^3
#
#
#
# Elastic Constant Matrix: (Units=GPa)
#
#
# Indices 1 2 3 4 5 6 
#
# 1 98.3744 30.2891 23.6808 0.0000 0.0000 0.0000
# 2 30.2891 64.2606 33.8208 0.0000 0.0000 0.0000
# 3 23.6808 33.8208 68.5602 0.0000 0.0000 0.0000
# 4 0.0000 0.0000 0.0000 22.7792 0.0000 0.0000
# 5 0.0000 0.0000 0.0000 0.0000 33.5008 0.0000
# 6 0.0000 0.0000 0.0000 0.0000 0.0000 20.2926
#
#
#
# Elastic Compliance Matrix: (Units=1/GPa)
#
#
# Indices 1 2 3 4 5 6 
#
# 1 0.012060 -0.004717 -0.001839 0.000000 0.000000 0.000000
# 2 -0.004717 0.022863 -0.009649 0.000000 0.000000 0.000000
# 3 -0.001839 -0.009649 0.019981 0.000000 0.000000 0.000000
# 4 0.000000 0.000000 0.000000 0.043900 0.000000 0.000000
# 5 0.000000 0.000000 0.000000 0.000000 0.029850 0.000000
# 6 0.000000 0.000000 0.000000 0.000000 0.000000 0.049279
#
#
# Mechanical properties :
#
#
# Convention : Reuss Voigt Hill
#
# Bulk Modulus (GPa) = 44.45514 45.19740 44.82627
# Shear Modulus (GPa) = 22.95250 24.87483 23.91367
#
# Velocity S-wave (km/s) = 3.38089 3.51962 3.45095
# Velocity P-wave (km/s) = 6.11386 6.24703 6.18081
#
# Compressibility (1/GPa) = 0.02249459
#
# Stress axis : x y z
#
# Youngs Moduli (GPa) = 82.91768 43.73809 50.04788
#
# Poissons Ratio (x) = 0.20630 0.09203
# Poissons Ratio (y) = 0.39110 0.48293
# Poissons Ratio (z) = 0.15247 0.42204
#
# Static dielectric constant tensor:
#      x y z
#    x 1.729670 0.000000 0.000000 
#    y 0.000000 1.760520 0.000000 
#    z 0.000000 0.000000 1.838460 
# 
# From -- ./inp_files/26969.got.cif
#   From: 2010.05.17/outbox.cif.g08.bks.cpg/sg66_14_cif.got.tgz:26969.got - 2010.06.03 17:51:23.
