data_PCOD9496605
_publ_section_title
;
Structure prediction by ZEFSAII (Michael W. Deem and Ramdas Pophale) SiO2 
 PCOD9496605
Probable space group: C C C M
;
_chemical_formula_sum "Si O2"
_cell_formula_units_Z 60
_cell_length_a 7.051353
_cell_length_b 25.035589
_cell_length_c 16.658341
_cell_angle_alpha 90.000000
_cell_angle_beta 90.000000
_cell_angle_gamma 90.000000
_cell_volume 2940.776490
_symmetry_space_group_name_H-M "C C C M"
_symmetry_group_IT_number 66
_symmetry_cell_setting 'orthorhombic'
loop_
_space_group_symop_operation_xyz
x,y,z
-x,-y,z
x,-y,1/2-z
-x,y,1/2-z
-x,-y,-z
x,y,-z
-x,y,1/2+z
x,-y,1/2+z
1/2+x,1/2+y,z
1/2-x,1/2-y,z
1/2+x,1/2-y,1/2-z
1/2-x,1/2+y,1/2-z
1/2-x,1/2-y,-z
1/2+x,1/2+y,-z
1/2-x,1/2+y,1/2+z
1/2+x,1/2-y,1/2+z
loop_
_atom_site_type_symbol
_atom_site_label
_atom_site_fract_x
_atom_site_fract_y
_atom_site_fract_z
Si Si1 0.735356 0.485781 0.500000
Si Si2 0.591490 0.204074 0.000000
Si Si3 0.500000 0.500000 0.750000
Si Si4 0.664690 0.401311 0.000000
Si Si5 0.840580 0.912965 0.867107
Si Si6 0.371079 0.803490 0.329624
O O1 0.500000 0.500000 0.500000
O O2 0.796528 0.546242 0.500000
O O3 0.785980 0.448344 0.573415
O O4 0.750000 0.250000 0.000000
O O5 0.704492 0.149274 0.000000
O O6 0.473461 0.205285 0.083569
O O7 0.383145 0.457708 0.801627
O O8 0.527722 0.400440 0.078646
O O9 0.751990 0.857765 0.838180
O O10 0.500000 0.809810 0.250000
O O11 0.250000 0.750000 0.316223
#
# Coordination Sequence:
#
# PCOD9496605 Si02
#       6
#     8   8   4   8  16  16
#     4   8  15  37  57  94 120 166 207 251 322 396
#     4  12  25  45  70  97 129 179 224 278 345 392
#     4  12  20  34  74  96 132 182 214 266 336 410
#     4  10  19  40  68  96 126 175 221 269 330 403
#     4  10  21  39  66  94 131 171 225 263 329 401
#     4  12  28  46  66  99 134 177 226 283 333 393
#
# _framework density 20.402774999999998
#
# number of rings (size 3 to 8) (size 9 to 14) (size 15 to 20)
#    0.000    1.600    4.000    4.400    5.600    0.000 
#    0.000    6.000    0.000    0.000    0.000    0.000 
#    0.000    0.000    0.000    0.000    0.000    0.000 
#
# Total GULP energy -167158.695752 kJ/mol
# GULP energy per Si atom -5571.956525 kJ/mol
# Density = 2.035634 g / cm^3
# Si number density = 20.402775 Si / 1000 Ang^3
#
#
#
# Elastic Constant Matrix: (Units=GPa)
#
#
# Indices 1 2 3 4 5 6 
#
# 1 57.4967 59.0055 48.5326 0.0000 0.0000 0.0000
# 2 59.0055 245.8431 74.6265 0.0000 0.0000 0.0000
# 3 48.5326 74.6265 161.5784 0.0000 0.0000 0.0000
# 4 0.0000 0.0000 0.0000 11.3830 0.0000 0.0000
# 5 0.0000 0.0000 0.0000 0.0000 30.5248 0.0000
# 6 0.0000 0.0000 0.0000 0.0000 0.0000 38.1138
#
#
#
# Elastic Compliance Matrix: (Units=1/GPa)
#
#
# Indices 1 2 3 4 5 6 
#
# 1 0.027333 -0.004732 -0.006025 0.000000 0.000000 0.000000
# 2 -0.004732 0.005550 -0.001142 0.000000 0.000000 0.000000
# 3 -0.006025 -0.001142 0.008526 0.000000 0.000000 0.000000
# 4 0.000000 0.000000 0.000000 0.087851 0.000000 0.000000
# 5 0.000000 0.000000 0.000000 0.000000 0.032760 0.000000
# 6 0.000000 0.000000 0.000000 0.000000 0.000000 0.026237
#
#
# Mechanical properties :
#
#
# Convention : Reuss Voigt Hill
#
# Bulk Modulus (GPa) = 56.77715 92.13859 74.45787
# Shear Modulus (GPa) = 22.94366 34.85454 28.89910
#
# Velocity S-wave (km/s) = 3.35705 4.13767 3.76763
# Velocity P-wave (km/s) = 6.55095 8.25136 7.44983
#
# Compressibility (1/GPa) = 0.01761272
#
# Stress axis : x y z
#
# Youngs Moduli (GPa) = 36.58523 180.18147 117.28761
#
# Poissons Ratio (x) = 0.85254 0.70662
# Poissons Ratio (y) = 0.17311 0.13395
# Poissons Ratio (z) = 0.22042 0.20579
#
# Static dielectric constant tensor:
#      x y z
#    x 1.794580 0.000000 0.000000 
#    y 0.000000 1.702540 0.000000 
#    z 0.000000 0.000000 1.708170 
# 
# From -- ./inp_files/24099.got.cif
#   From: 2010.05.17/outbox.cif.g08.bks.cpg/sg66_13_cif.got.tgz:24099.got - 2010.06.03 17:51:23.
