data_PCOD9496778
_publ_section_title
;
Structure prediction by ZEFSAII (Michael W. Deem and Ramdas Pophale) SiO2 
 PCOD9496778
Probable space group: C C C M
;
_chemical_formula_sum "Si O2"
_cell_formula_units_Z 64
_cell_length_a 4.989592
_cell_length_b 19.271418
_cell_length_c 29.235527
_cell_angle_alpha 90.000000
_cell_angle_beta 90.000000
_cell_angle_gamma 90.000000
_cell_volume 2811.186334
_symmetry_space_group_name_H-M "C C C M"
_symmetry_group_IT_number 66
_symmetry_cell_setting 'orthorhombic'
loop_
_space_group_symop_operation_xyz
x,y,z
-x,-y,z
x,-y,1/2-z
-x,y,1/2-z
-x,-y,-z
x,y,-z
-x,y,1/2+z
x,-y,1/2+z
1/2+x,1/2+y,z
1/2-x,1/2-y,z
1/2+x,1/2-y,1/2-z
1/2-x,1/2+y,1/2-z
1/2-x,1/2-y,-z
1/2+x,1/2+y,-z
1/2-x,1/2+y,1/2+z
1/2+x,1/2-y,1/2+z
loop_
_atom_site_type_symbol
_atom_site_label
_atom_site_fract_x
_atom_site_fract_y
_atom_site_fract_z
Si Si1 0.623355 0.854120 0.109487
Si Si2 0.134957 0.171996 0.447741
Si Si3 0.589060 0.576928 0.815280
Si Si4 0.439735 0.163812 0.704473
O O1 0.351476 0.869872 0.082487
O O2 0.782673 0.917007 0.134033
O O3 0.536809 0.808726 0.154461
O O4 0.844418 0.825478 0.075164
O O5 0.119643 0.147423 0.500000
O O6 0.250000 0.250000 0.447716
O O7 0.500000 0.500000 0.805234
O O8 0.349989 0.631599 0.806338
O O9 0.841884 0.602952 0.786843
O O10 0.500000 0.208693 0.750000
#
# Coordination Sequence:
#
# PCOD9496778 Si02
#       4
#    16  16  16  16
#     4  10  20  37  55  83 117 145 169 237 281 323
#     4  11  22  38  62  87 104 132 185 241 292 335
#     4  10  20  33  54  82 114 152 186 222 266 321
#     4  10  20  33  54  83 114 152 187 223 266 317
#
# _framework density 22.766189000000001
#
# number of rings (size 3 to 8) (size 9 to 14) (size 15 to 20)
#    1.500    0.250    2.500    3.000    0.000    5.000 
#    0.000    0.000    0.000    7.500    0.000    0.000 
#    0.000    0.000    0.000    0.000    0.000    0.000 
#
# Total GULP energy -178218.175693 kJ/mol
# GULP energy per Si atom -5569.317990 kJ/mol
# Density = 2.271437 g / cm^3
# Si number density = 22.766189 Si / 1000 Ang^3
#
#
#
# Elastic Constant Matrix: (Units=GPa)
#
#
# Indices 1 2 3 4 5 6 
#
# 1 192.2343 23.5205 68.9341 0.0000 0.0000 0.0000
# 2 23.5205 31.5331 -2.2423 0.0000 0.0000 0.0000
# 3 68.9341 -2.2423 198.1957 0.0000 0.0000 0.0000
# 4 0.0000 0.0000 0.0000 7.2577 0.0000 0.0000
# 5 0.0000 0.0000 0.0000 0.0000 31.7024 0.0000
# 6 0.0000 0.0000 0.0000 0.0000 0.0000 31.0420
#
#
#
# Elastic Compliance Matrix: (Units=1/GPa)
#
#
# Indices 1 2 3 4 5 6 
#
# 1 0.006688 -0.005158 -0.002385 0.000000 0.000000 0.000000
# 2 -0.005158 0.035717 0.002198 0.000000 0.000000 0.000000
# 3 -0.002385 0.002198 0.005900 0.000000 0.000000 0.000000
# 4 0.000000 0.000000 0.000000 0.137784 0.000000 0.000000
# 5 0.000000 0.000000 0.000000 0.000000 0.031543 0.000000
# 6 0.000000 0.000000 0.000000 0.000000 0.000000 0.032214
#
#
# Mechanical properties :
#
#
# Convention : Reuss Voigt Hill
#
# Bulk Modulus (GPa) = 26.58502 66.93199 46.75851
# Shear Modulus (GPa) = 18.31005 36.11714 27.21360
#
# Velocity S-wave (km/s) = 2.83903 3.98733 3.46114
# Velocity P-wave (km/s) = 4.73810 7.11772 6.04614
#
# Compressibility (1/GPa) = 0.03761516
#
# Stress axis : x y z
#
# Youngs Moduli (GPa) = 149.51665 27.99820 169.49829
#
# Poissons Ratio (x) = 0.14442 0.40418
# Poissons Ratio (y) = 0.77125 -0.37259
# Poissons Ratio (z) = 0.35653 -0.06155
#
# Static dielectric constant tensor:
#      x y z
#    x 1.805720 0.000000 0.000000 
#    y 0.000000 1.887800 0.000000 
#    z 0.000000 0.000000 2.020440 
# 
# From -- ./inp_files/54115.got.cif
#   From: 2010.05.17/outbox.cif.g08.bks.cpg/sg66_28_cif.got.tgz:54115.got - 2010.06.03 17:51:23.
