data_PCOD9496179
_publ_section_title
;
Structure prediction by ZEFSAII (Michael W. Deem and Ramdas Pophale) SiO2 
 PCOD9496179
Probable space group: C C C M
;
_chemical_formula_sum "Si O2"
_cell_formula_units_Z 68
_cell_length_a 21.179295
_cell_length_b 8.866605
_cell_length_c 15.009066
_cell_angle_alpha 90.000000
_cell_angle_beta 90.000000
_cell_angle_gamma 90.000000
_cell_volume 2818.529134
_symmetry_space_group_name_H-M "C C C M"
_symmetry_group_IT_number 66
_symmetry_cell_setting 'orthorhombic'
loop_
_space_group_symop_operation_xyz
x,y,z
-x,-y,z
x,-y,1/2-z
-x,y,1/2-z
-x,-y,-z
x,y,-z
-x,y,1/2+z
x,-y,1/2+z
1/2+x,1/2+y,z
1/2-x,1/2-y,z
1/2+x,1/2-y,1/2-z
1/2-x,1/2+y,1/2-z
1/2-x,1/2-y,-z
1/2+x,1/2+y,-z
1/2-x,1/2+y,1/2+z
1/2+x,1/2-y,1/2+z
loop_
_atom_site_type_symbol
_atom_site_label
_atom_site_fract_x
_atom_site_fract_y
_atom_site_fract_z
Si Si1 0.193991 0.849639 0.102082
Si Si2 0.575589 0.101348 0.603295
Si Si3 0.681146 0.320322 0.394754
Si Si4 0.000000 0.000000 0.250000
Si Si5 0.558410 0.229854 0.139595
O O1 0.250000 0.750000 0.143865
O O2 0.126065 0.771034 0.098123
O O3 0.184360 0.013315 0.143842
O O4 0.215777 0.880385 0.000000
O O5 0.589917 0.055546 0.500000
O O6 0.629291 0.207810 0.643736
O O7 0.511501 0.199875 0.598016
O O8 0.569595 0.948252 0.659446
O O9 0.662597 0.332190 0.500000
O O10 0.750000 0.250000 0.390314
O O11 0.956782 0.120289 0.196813
#
# Coordination Sequence:
#
# PCOD9496179 Si02
#       5
#    16  16  16   4  16
#     4  10  19  33  60  95 126 154 189 249 323 376
#     4  10  20  36  63  93 119 151 194 258 331 379
#     4   9  17  29  48  82 125 157 182 222 292 377
#     4  12  28  42  58  80 116 174 224 252 292 362
#     4  11  22  39  58  83 119 157 205 253 296 367
#
# _framework density 24.126059000000001
#
# number of rings (size 3 to 8) (size 9 to 14) (size 15 to 20)
#    0.000    1.882    0.000    5.647    0.000    5.647 
#    0.000    7.647    0.000   11.294    0.000    0.000 
#    0.000    0.000    0.000    0.000    0.000    0.000 
#
# Total GULP energy -189318.181530 kJ/mol
# GULP energy per Si atom -5568.181810 kJ/mol
# Density = 2.407115 g / cm^3
# Si number density = 24.126059 Si / 1000 Ang^3
#
#
#
# Elastic Constant Matrix: (Units=GPa)
#
#
# Indices 1 2 3 4 5 6 
#
# 1 136.9230 91.0735 4.9926 0.0000 0.0000 0.0000
# 2 91.0735 234.2327 50.9135 0.0000 0.0000 0.0000
# 3 4.9926 50.9135 57.9718 0.0000 0.0000 0.0000
# 4 0.0000 0.0000 0.0000 -276.5812 0.0000 0.0000
# 5 0.0000 0.0000 0.0000 0.0000 -0.0774 0.0000
# 6 0.0000 0.0000 0.0000 0.0000 0.0000 51.1329
#
#
#
# Elastic Compliance Matrix: (Units=1/GPa)
#
#
# Indices 1 2 3 4 5 6 
#
# 1 0.010326 -0.004723 0.003259 0.000000 0.000000 0.000000
# 2 -0.004723 0.007437 -0.006125 0.000000 0.000000 0.000000
# 3 0.003259 -0.006125 0.022348 0.000000 0.000000 0.000000
# 4 0.000000 0.000000 0.000000 -0.003616 0.000000 0.000000
# 5 0.000000 0.000000 0.000000 0.000000-12.927332 0.000000
# 6 0.000000 0.000000 0.000000 0.000000 0.000000 0.019557
#
#
# Mechanical properties :
#
#
# Convention : Reuss Voigt Hill
#
# Bulk Modulus (GPa) = 40.10726 80.34298 60.22512
# Shear Modulus (GPa) = -0.38917 -26.29527 -13.34222
#
# Velocity S-wave (km/s) = -0.40207 -3.30496 -2.35419
# Velocity P-wave (km/s) = 4.05519 4.33704 4.19848
#
# Compressibility (1/GPa) = 0.02493314
#
# Stress axis : x y z
#
# Youngs Moduli (GPa) = 96.84010 134.46073 44.74634
#
# Poissons Ratio (x) = 0.63512 -0.14583
# Poissons Ratio (y) = 0.45742 0.27406
# Poissons Ratio (z) = -0.31560 0.82355
#
# Static dielectric constant tensor:
#      x y z
#    x 1.904520 0.000000 0.000000 
#    y 0.000000 1.912360 0.000000 
#    z 0.000000 0.000000 2.016210 
# 
# From -- ./inp_files/42487.got.cif
#   From: 2010.05.17/outbox.cif.g08.bks.cpg/sg66_22_cif.got.tgz:42487.got - 2010.06.03 17:51:23.
