data_PCOD9496012
_publ_section_title
;
Structure prediction by ZEFSAII (Michael W. Deem and Ramdas Pophale) SiO2 
 PCOD9496012
Probable space group: C C C M
;
_chemical_formula_sum "Si O2"
_cell_formula_units_Z 64
_cell_length_a 24.781621
_cell_length_b 9.307667
_cell_length_c 15.180088
_cell_angle_alpha 90.000000
_cell_angle_beta 90.000000
_cell_angle_gamma 90.000000
_cell_volume 3501.425071
_symmetry_space_group_name_H-M "C C C M"
_symmetry_group_IT_number 66
_symmetry_cell_setting 'orthorhombic'
loop_
_space_group_symop_operation_xyz
x,y,z
-x,-y,z
x,-y,1/2-z
-x,y,1/2-z
-x,-y,-z
x,y,-z
-x,y,1/2+z
x,-y,1/2+z
1/2+x,1/2+y,z
1/2-x,1/2-y,z
1/2+x,1/2-y,1/2-z
1/2-x,1/2+y,1/2-z
1/2-x,1/2-y,-z
1/2+x,1/2+y,-z
1/2-x,1/2+y,1/2+z
1/2+x,1/2-y,1/2+z
loop_
_atom_site_type_symbol
_atom_site_label
_atom_site_fract_x
_atom_site_fract_y
_atom_site_fract_z
Si Si1 0.556881 0.078063 0.000000
Si Si2 0.751211 0.413893 0.393389
Si Si3 0.654455 0.381850 0.897907
Si Si4 0.862083 0.432479 0.841025
Si Si5 0.943552 0.078582 0.000000
O O1 0.593429 0.041446 0.915773
O O2 0.500000 0.000000 0.000000
O O3 0.548169 0.249962 0.000000
O O4 0.749989 0.409557 0.500000
O O5 0.750000 0.250000 0.360768
O O6 0.699282 0.507471 0.366268
O O7 0.805744 0.491481 0.364684
O O8 0.648791 0.238753 0.841133
O O9 0.669697 0.334750 0.000000
O O10 0.595879 0.452708 0.916575
O O11 0.880947 0.500000 0.750000
O O12 0.000000 0.000000 0.000000
#
# Coordination Sequence:
#
# PCOD9496012 Si02
#       5
#     8  16  16  16   8
#     4  10  22  39  58  81 113 148 194 244 293 336
#     4  10  19  32  54  85 118 151 194 235 284 348
#     4   8  17  34  56  82 116 152 188 233 290 344
#     4  11  21  36  58  83 113 154 193 234 291 350
#     4   8  16  31  56  85 105 144 192 232 289 346
#
# _framework density 18.278272999999999
#
# number of rings (size 3 to 8) (size 9 to 14) (size 15 to 20)
#    0.750    1.750    2.500    0.750    0.000    6.500 
#    0.000    0.000    0.000    0.000    0.000    1.750 
#    0.000    0.000    0.000    0.000    0.000    0.000 
#
# Total GULP energy -178349.505453 kJ/mol
# GULP energy per Si atom -5573.422045 kJ/mol
# Density = 1.823667 g / cm^3
# Si number density = 18.278273 Si / 1000 Ang^3
#
#
#
# Elastic Constant Matrix: (Units=GPa)
#
#
# Indices 1 2 3 4 5 6 
#
# 1 191.1024 89.6006 48.3804 0.0000 0.0000 0.0000
# 2 89.6006 98.7059 52.4180 0.0000 0.0000 0.0000
# 3 48.3804 52.4180 80.3541 0.0000 0.0000 0.0000
# 4 0.0000 0.0000 0.0000 7.7173 0.0000 0.0000
# 5 0.0000 0.0000 0.0000 0.0000 -8.6440 0.0000
# 6 0.0000 0.0000 0.0000 0.0000 0.0000 42.5692
#
#
#
# Elastic Compliance Matrix: (Units=1/GPa)
#
#
# Indices 1 2 3 4 5 6 
#
# 1 0.009111 -0.008197 -0.000138 0.000000 0.000000 0.000000
# 2 -0.008197 0.022876 -0.009987 0.000000 0.000000 0.000000
# 3 -0.000138 -0.009987 0.019043 0.000000 0.000000 0.000000
# 4 0.000000 0.000000 0.000000 0.129579 0.000000 0.000000
# 5 0.000000 0.000000 0.000000 0.000000 -0.115687 0.000000
# 6 0.000000 0.000000 0.000000 0.000000 0.000000 0.023491
#
#
# Mechanical properties :
#
#
# Convention : Reuss Voigt Hill
#
# Bulk Modulus (GPa) = 69.51913 83.44005 76.47959
# Shear Modulus (GPa) = 38.50451 20.31272 29.40861
#
# Velocity S-wave (km/s) = 4.59472 3.33724 4.01551
# Velocity P-wave (km/s) = 8.14033 7.78450 7.96440
#
# Compressibility (1/GPa) = 0.01438453
#
# Stress axis : x y z
#
# Youngs Moduli (GPa) = 109.75510 43.71395 52.51157
#
# Poissons Ratio (x) = 0.35833 0.00727
# Poissons Ratio (y) = 0.89969 0.52446
# Poissons Ratio (z) = 0.01519 0.43659
#
# Static dielectric constant tensor:
#      x y z
#    x 1.615650 0.000000 0.000000 
#    y 0.000000 1.624200 0.000000 
#    z 0.000000 0.000000 1.668660 
# 
# From -- ./inp_files/31925.got.cif
#   From: 2010.05.17/outbox.cif.g08.bks.cpg/sg66_16_cif.got.tgz:31925.got - 2010.06.03 17:51:23.
