data_PCOD9496178
_publ_section_title
;
Structure prediction by ZEFSAII (Michael W. Deem and Ramdas Pophale) SiO2 
 PCOD9496178
Probable space group: C C C M
;
_chemical_formula_sum "Si O2"
_cell_formula_units_Z 84
_cell_length_a 13.895328
_cell_length_b 12.163488
_cell_length_c 21.608090
_cell_angle_alpha 90.000000
_cell_angle_beta 90.000000
_cell_angle_gamma 90.000000
_cell_volume 3652.105493
_symmetry_space_group_name_H-M "C C C M"
_symmetry_group_IT_number 66
_symmetry_cell_setting 'orthorhombic'
loop_
_space_group_symop_operation_xyz
x,y,z
-x,-y,z
x,-y,1/2-z
-x,y,1/2-z
-x,-y,-z
x,y,-z
-x,y,1/2+z
x,-y,1/2+z
1/2+x,1/2+y,z
1/2-x,1/2-y,z
1/2+x,1/2-y,1/2-z
1/2-x,1/2+y,1/2-z
1/2-x,1/2-y,-z
1/2+x,1/2+y,-z
1/2-x,1/2+y,1/2+z
1/2+x,1/2-y,1/2+z
loop_
_atom_site_type_symbol
_atom_site_label
_atom_site_fract_x
_atom_site_fract_y
_atom_site_fract_z
Si Si1 0.657629 0.616134 0.728755
Si Si2 0.000000 0.301677 0.750000
Si Si3 0.413010 0.811033 0.500000
Si Si4 0.250000 0.750000 0.327691
Si Si5 0.750000 0.250000 0.000000
Si Si6 0.237418 0.435112 0.601669
Si Si7 0.806268 0.090126 0.500000
Si Si8 0.917060 0.617476 0.126326
O O1 0.613789 0.500000 0.750000
O O2 0.585356 0.718329 0.730993
O O3 0.732821 0.646803 0.782998
O O4 0.709469 0.604795 0.663416
O O5 0.974112 0.371983 0.689822
O O6 0.303888 0.862552 0.500000
O O7 0.389071 0.681592 0.500000
O O8 0.465981 0.854791 0.438826
O O9 0.159633 0.718641 0.368431
O O10 0.783030 0.337570 0.054470
O O11 0.307503 0.516243 0.561860
O O12 0.143726 0.506212 0.619759
#
# Coordination Sequence:
#
# PCOD9496178 Si02
#       8
#    16   8   8   8   4  16   8  16
#     4  11  21  37  61  94 132 180 223 289 342 408
#     4  10  25  38  60  99 146 174 225 285 352 404
#     4   9  16  28  56  83 119 161 221 268 334 397
#     4  10  19  33  60  91 125 166 228 282 336 401
#     4  10  22  38  66 106 126 168 222 314 334 396
#     4  10  19  36  63  90 129 169 231 272 352 406
#     4   8  16  28  53  88 114 160 215 286 318 403
#     4  10  19  37  60  93 128 176 220 282 341 420
#
# _framework density 23.000430999999999
#
# number of rings (size 3 to 8) (size 9 to 14) (size 15 to 20)
#    0.000    2.095    1.905    3.714    2.667    0.000 
#    0.000    1.905    0.000   22.857    0.000    0.000 
#    0.000    0.000    0.000    0.000    0.000    0.286 
#
# Total GULP energy -234261.850572 kJ/mol
# GULP energy per Si atom -5577.663109 kJ/mol
# Density = 2.294808 g / cm^3
# Si number density = 23.000431 Si / 1000 Ang^3
#
#
#
# Elastic Constant Matrix: (Units=GPa)
#
#
# Indices 1 2 3 4 5 6 
#
# 1 40.4480 37.7789 50.8735 0.0000 0.0000 0.0000
# 2 37.7789 125.4439 78.4700 0.0000 0.0000 0.0000
# 3 50.8735 78.4700 233.3188 0.0000 0.0000 0.0000
# 4 0.0000 0.0000 0.0000 143.1079 0.0000 0.0000
# 5 0.0000 0.0000 0.0000 0.0000 16.1951 0.0000
# 6 0.0000 0.0000 0.0000 0.0000 0.0000 24.8689
#
#
#
# Elastic Compliance Matrix: (Units=1/GPa)
#
#
# Indices 1 2 3 4 5 6 
#
# 1 0.039932 -0.008333 -0.005905 0.000000 0.000000 0.000000
# 2 -0.008333 0.011834 -0.002163 0.000000 0.000000 0.000000
# 3 -0.005905 -0.002163 0.006301 0.000000 0.000000 0.000000
# 4 0.000000 0.000000 0.000000 0.006988 0.000000 0.000000
# 5 0.000000 0.000000 0.000000 0.000000 0.061747 0.000000
# 6 0.000000 0.000000 0.000000 0.000000 0.000000 0.040211
#
#
# Mechanical properties :
#
#
# Convention : Reuss Voigt Hill
#
# Bulk Modulus (GPa) = 39.57755 81.49506 60.53630
# Shear Modulus (GPa) = 24.01119 52.30692 38.15905
#
# Velocity S-wave (km/s) = 3.23452 4.77400 4.07757
# Velocity P-wave (km/s) = 5.58517 8.11770 6.96747
#
# Compressibility (1/GPa) = 0.02526685
#
# Stress axis : x y z
#
# Youngs Moduli (GPa) = 25.04243 84.49977 158.70538
#
# Poissons Ratio (x) = 0.70410 0.93708
# Poissons Ratio (y) = 0.20867 0.34333
# Poissons Ratio (z) = 0.14786 0.18280
#
# Static dielectric constant tensor:
#      x y z
#    x 1.931880 0.000000 0.000000 
#    y 0.000000 1.881350 0.000000 
#    z 0.000000 0.000000 1.888330 
# 
# From -- ./inp_files/50884.got.cif
#   From: 2010.05.17/outbox.cif.g08.bks.cpg/sg66_26_cif.got.tgz:50884.got - 2010.06.03 17:51:23.
