data_PCOD9496239
_publ_section_title
;
Structure prediction by ZEFSAII (Michael W. Deem and Ramdas Pophale) SiO2 
 PCOD9496239
Probable space group: C C C M
;
_chemical_formula_sum "Si O2"
_cell_formula_units_Z 96
_cell_length_a 8.937322
_cell_length_b 18.918668
_cell_length_c 28.301517
_cell_angle_alpha 90.000000
_cell_angle_beta 90.000000
_cell_angle_gamma 90.000000
_cell_volume 4785.283542
_symmetry_space_group_name_H-M "C C C M"
_symmetry_group_IT_number 66
_symmetry_cell_setting 'orthorhombic'
loop_
_space_group_symop_operation_xyz
x,y,z
-x,-y,z
x,-y,1/2-z
-x,y,1/2-z
-x,-y,-z
x,y,-z
-x,y,1/2+z
x,-y,1/2+z
1/2+x,1/2+y,z
1/2-x,1/2-y,z
1/2+x,1/2-y,1/2-z
1/2-x,1/2+y,1/2-z
1/2-x,1/2-y,-z
1/2+x,1/2+y,-z
1/2-x,1/2+y,1/2+z
1/2+x,1/2-y,1/2+z
loop_
_atom_site_type_symbol
_atom_site_label
_atom_site_fract_x
_atom_site_fract_y
_atom_site_fract_z
Si Si1 0.656268 0.819228 0.278118
Si Si2 0.880123 0.660793 0.384746
Si Si3 0.462766 0.676458 0.889882
Si Si4 0.869438 0.942123 0.945652
Si Si5 0.107226 0.559380 0.621657
Si Si6 0.201567 0.833517 0.685220
O O1 0.500000 0.805084 0.250000
O O2 0.750000 0.750000 0.292608
O O3 0.618243 0.853769 0.327917
O O4 0.767395 0.853454 0.239596
O O5 0.707434 0.652631 0.397288
O O6 0.946236 0.738877 0.393760
O O7 0.991431 0.606314 0.408333
O O8 0.568104 0.632682 0.925296
O O9 0.537748 0.662139 0.838285
O O10 0.735589 0.968465 0.912486
O O11 0.824963 0.934126 0.000000
O O12 0.000000 0.000000 0.942559
O O13 0.192897 0.613655 0.656072
O O14 0.000000 0.500000 0.643963
O O15 0.250000 0.750000 0.680886
#
# Coordination Sequence:
#
# PCOD9496239 Si02
#       6
#    16  16  16  16  16  16
#     4  11  19  30  52  85 123 165 213 255 290 339
#     4  11  20  35  55  92 125 162 209 251 306 360
#     4  10  20  36  60  85 124 161 197 262 300 369
#     4  10  23  44  67  89 115 155 204 256 324 394
#     4  11  22  38  62  89 123 163 204 256 317 376
#     4  10  19  34  55  83 125 163 212 250 296 353
#
# _framework density 20.061506000000001
#
# number of rings (size 3 to 8) (size 9 to 14) (size 15 to 20)
#    0.000    1.500    5.000    2.000    0.000    0.333 
#    0.000    5.833    0.000    0.000    0.000    3.500 
#    0.000    0.000    0.000    0.000    0.000    0.000 
#
# Total GULP energy -267372.605442 kJ/mol
# GULP energy per Si atom -5570.262613 kJ/mol
# Density = 2.001585 g / cm^3
# Si number density = 20.061506 Si / 1000 Ang^3
#
#
#
# Elastic Constant Matrix: (Units=GPa)
#
#
# Indices 1 2 3 4 5 6 
#
# 1 56.0620 17.1084 -15.1763 0.0000 0.0000 0.0000
# 2 17.1084 71.5002 11.4866 0.0000 0.0000 0.0000
# 3 -15.1763 11.4866 51.2749 0.0000 0.0000 0.0000
# 4 0.0000 0.0000 0.0000 13.5825 0.0000 0.0000
# 5 0.0000 0.0000 0.0000 0.0000 15.4259 0.0000
# 6 0.0000 0.0000 0.0000 0.0000 0.0000 39.3114
#
#
#
# Elastic Compliance Matrix: (Units=1/GPa)
#
#
# Indices 1 2 3 4 5 6 
#
# 1 0.021993 -0.006544 0.007976 0.000000 0.000000 0.000000
# 2 -0.006544 0.016455 -0.005623 0.000000 0.000000 0.000000
# 3 0.007976 -0.005623 0.023123 0.000000 0.000000 0.000000
# 4 0.000000 0.000000 0.000000 0.073624 0.000000 0.000000
# 5 0.000000 0.000000 0.000000 0.000000 0.064826 0.000000
# 6 0.000000 0.000000 0.000000 0.000000 0.000000 0.025438
#
#
# Mechanical properties :
#
#
# Convention : Reuss Voigt Hill
#
# Bulk Modulus (GPa) = 18.80096 22.85272 20.82684
# Shear Modulus (GPa) = 19.87502 24.69184 22.28343
#
# Velocity S-wave (km/s) = 3.15096 3.51209 3.33642
# Velocity P-wave (km/s) = 4.75711 5.27849 5.02457
#
# Compressibility (1/GPa) = 0.05318878
#
# Stress axis : x y z
#
# Youngs Moduli (GPa) = 45.46815 60.77128 43.24692
#
# Poissons Ratio (x) = 0.39768 -0.34492
# Poissons Ratio (y) = 0.29754 0.24318
# Poissons Ratio (z) = -0.36263 0.34173
#
# Static dielectric constant tensor:
#      x y z
#    x 1.767330 0.000000 0.000000 
#    y 0.000000 1.749110 0.000000 
#    z 0.000000 0.000000 1.716670 
# 
# From -- ./inp_files/62576.got.cif
#   From: 2010.05.17/outbox.cif.g08.bks.cpg/sg66_32_cif.got.tgz:62576.got - 2010.06.03 17:51:23.
