data_PCOD9496517
_publ_section_title
;
Structure prediction by ZEFSAII (Michael W. Deem and Ramdas Pophale) SiO2 
 PCOD9496517
Probable space group: C C C M
;
_chemical_formula_sum "Si O2"
_cell_formula_units_Z 96
_cell_length_a 29.793160
_cell_length_b 20.620022
_cell_length_c 8.404056
_cell_angle_alpha 90.000000
_cell_angle_beta 90.000000
_cell_angle_gamma 90.000000
_cell_volume 5162.910908
_symmetry_space_group_name_H-M "C C C M"
_symmetry_group_IT_number 66
_symmetry_cell_setting 'orthorhombic'
loop_
_space_group_symop_operation_xyz
x,y,z
-x,-y,z
x,-y,1/2-z
-x,y,1/2-z
-x,-y,-z
x,y,-z
-x,y,1/2+z
x,-y,1/2+z
1/2+x,1/2+y,z
1/2-x,1/2-y,z
1/2+x,1/2-y,1/2-z
1/2-x,1/2+y,1/2-z
1/2-x,1/2-y,-z
1/2+x,1/2+y,-z
1/2-x,1/2+y,1/2+z
1/2+x,1/2-y,1/2+z
loop_
_atom_site_type_symbol
_atom_site_label
_atom_site_fract_x
_atom_site_fract_y
_atom_site_fract_z
Si Si1 0.948895 0.828738 0.192046
Si Si2 0.130278 0.926178 0.692722
Si Si3 0.304235 0.794344 0.184656
Si Si4 0.217517 0.153993 0.813008
Si Si5 0.949016 0.432565 0.809469
Si Si6 0.598678 0.194223 0.688856
O O1 0.913021 0.883671 0.244520
O O2 0.928170 0.758971 0.240755
O O3 0.000000 0.837350 0.250000
O O4 0.950017 0.829778 0.000000
O O5 0.130623 0.924913 0.500000
O O6 0.176926 0.891684 0.745862
O O7 0.127712 0.000000 0.750000
O O8 0.266202 0.846611 0.230556
O O9 0.297405 0.728394 0.284792
O O10 0.354455 0.814268 0.221870
O O11 0.299017 0.777962 0.000000
O O12 0.223364 0.142153 0.000000
O O13 0.927552 0.500000 0.750000
O O14 0.928664 0.369667 0.728323
O O15 0.000000 0.434014 0.750000
O O16 0.946987 0.428594 0.000000
O O17 0.606864 0.200595 0.500000
#
# Coordination Sequence:
#
# PCOD9496517 Si02
#       6
#    16  16  16  16  16  16
#     4  10  22  39  58  84 116 152 198 247 298 353
#     4  10  22  40  60  84 115 156 200 245 298 358
#     4  11  21  33  56  90 118 143 187 238 287 345
#     4  10  19  37  59  81 113 152 190 231 289 351
#     4  11  22  38  58  84 115 154 197 238 288 348
#     4  11  21  38  60  85 119 157 195 242 296 351
#
# _framework density 18.594161
#
# number of rings (size 3 to 8) (size 9 to 14) (size 15 to 20)
#    0.000    1.500    1.667    6.000    0.000    5.000 
#    0.000    2.500    0.000    2.000    0.000    0.000 
#    0.000    0.000    0.000    0.000    0.000    0.000 
#
# Total GULP energy -267875.237181 kJ/mol
# GULP energy per Si atom -5580.734108 kJ/mol
# Density = 1.855184 g / cm^3
# Si number density = 18.594161 Si / 1000 Ang^3
#
#
#
# Elastic Constant Matrix: (Units=GPa)
#
#
# Indices 1 2 3 4 5 6 
#
# 1 148.0947 75.9667 8.2616 0.0000 0.0000 0.0000
# 2 75.9667 133.7618 1.9200 0.0000 0.0000 0.0000
# 3 8.2616 1.9200 31.1808 0.0000 0.0000 0.0000
# 4 0.0000 0.0000 0.0000 24.6486 0.0000 0.0000
# 5 0.0000 0.0000 0.0000 0.0000 29.9651 0.0000
# 6 0.0000 0.0000 0.0000 0.0000 0.0000 36.2514
#
#
#
# Elastic Compliance Matrix: (Units=1/GPa)
#
#
# Indices 1 2 3 4 5 6 
#
# 1 0.009680 -0.005466 -0.002228 0.000000 0.000000 0.000000
# 2 -0.005466 0.010569 0.000797 0.000000 0.000000 0.000000
# 3 -0.002228 0.000797 0.032612 0.000000 0.000000 0.000000
# 4 0.000000 0.000000 0.000000 0.040570 0.000000 0.000000
# 5 0.000000 0.000000 0.000000 0.000000 0.033372 0.000000
# 6 0.000000 0.000000 0.000000 0.000000 0.000000 0.027585
#
#
# Mechanical properties :
#
#
# Convention : Reuss Voigt Hill
#
# Bulk Modulus (GPa) = 25.59638 53.92600 39.76119
# Shear Modulus (GPa) = 27.59304 33.29897 30.44601
#
# Velocity S-wave (km/s) = 3.85640 4.23641 4.05086
# Velocity P-wave (km/s) = 5.79869 7.27970 6.58099
#
# Compressibility (1/GPa) = 0.03906802
#
# Stress axis : x y z
#
# Youngs Moduli (GPa) = 103.30054 94.61906 30.66326
#
# Poissons Ratio (x) = 0.51717 0.06833
# Poissons Ratio (y) = 0.56462 -0.02445
# Poissons Ratio (z) = 0.23019 -0.07545
#
# Static dielectric constant tensor:
#      x y z
#    x 1.666960 0.000000 0.000000 
#    y 0.000000 1.639620 0.000000 
#    z 0.000000 0.000000 1.641330 
# 
# From -- ./inp_files/7990.got.cif
#   From: 2010.05.17/outbox.cif.g08.bks.cpg/sg66_4_cif.got.tgz:7990.got - 2010.06.03 17:51:23.
