data_PCOD9496510
_publ_section_title
;
Structure prediction by ZEFSAII (Michael W. Deem and Ramdas Pophale) SiO2 
 PCOD9496510
Probable space group: C C C M
;
_chemical_formula_sum "Si O2"
_cell_formula_units_Z 104
_cell_length_a 23.044281
_cell_length_b 9.943640
_cell_length_c 24.241442
_cell_angle_alpha 90.000000
_cell_angle_beta 90.000000
_cell_angle_gamma 90.000000
_cell_volume 5554.781818
_symmetry_space_group_name_H-M "C C C M"
_symmetry_group_IT_number 66
_symmetry_cell_setting 'orthorhombic'
loop_
_space_group_symop_operation_xyz
x,y,z
-x,-y,z
x,-y,1/2-z
-x,y,1/2-z
-x,-y,-z
x,y,-z
-x,y,1/2+z
x,-y,1/2+z
1/2+x,1/2+y,z
1/2-x,1/2-y,z
1/2+x,1/2-y,1/2-z
1/2-x,1/2+y,1/2-z
1/2-x,1/2-y,-z
1/2+x,1/2+y,-z
1/2-x,1/2+y,1/2+z
1/2+x,1/2-y,1/2+z
loop_
_atom_site_type_symbol
_atom_site_label
_atom_site_fract_x
_atom_site_fract_y
_atom_site_fract_z
Si Si1 0.811989 0.824117 0.125097
Si Si2 0.816281 0.228728 0.745691
Si Si3 0.000000 0.000000 0.875882
Si Si4 0.622639 0.440062 0.934476
Si Si5 0.623761 0.087658 0.337688
Si Si6 0.493918 0.223887 0.815659
Si Si7 0.623641 0.212948 0.852937
O O1 0.750000 0.750000 0.117296
O O2 0.856597 0.700294 0.118531
O O3 0.815930 0.864551 0.190748
O O4 0.832917 0.947135 0.088477
O O5 0.750000 0.250000 0.762051
O O6 0.844452 0.361897 0.718079
O O7 0.853445 0.203431 0.799920
O O8 0.980720 0.873652 0.838145
O O9 0.057136 0.968506 0.912085
O O10 0.638032 0.297337 0.906793
O O11 0.623286 0.437558 0.000000
O O12 0.555886 0.116276 0.329188
O O13 0.645218 0.939956 0.352077
O O14 0.500000 0.227036 0.750000
O O15 0.555089 0.194226 0.843921
#
# Coordination Sequence:
#
# PCOD9496510 Si02
#       7
#    16  16   8  16  16  16  16
#     4   9  20  39  64  89 115 155 205 248 297 367
#     4   9  19  36  59  89 117 153 194 240 302 373
#     4  10  20  38  60  86 118 163 203 258 300 362
#     4  11  24  42  60  85 120 166 214 259 300 350
#     4  10  19  37  57  91 124 156 188 238 308 373
#     4  11  19  31  59  93 129 154 190 241 312 382
#     4  11  23  34  59  91 128 157 191 249 312 372
#
# _framework density 18.722607
#
# number of rings (size 3 to 8) (size 9 to 14) (size 15 to 20)
#    0.923    0.923    3.077    1.385    0.000    2.769 
#    2.769    0.769    0.000    5.077    0.000    0.000 
#    0.000    0.000    0.000    0.000    0.000    0.000 
#
# Total GULP energy -289518.638000 kJ/mol
# GULP energy per Si atom -5567.666115 kJ/mol
# Density = 1.867999 g / cm^3
# Si number density = 18.722607 Si / 1000 Ang^3
#
#
#
# Elastic Constant Matrix: (Units=GPa)
#
#
# Indices 1 2 3 4 5 6 
#
# 1 87.2660 13.7288 18.8424 0.0000 0.0000 0.0000
# 2 13.7288 81.7742 48.6985 0.0000 0.0000 0.0000
# 3 18.8424 48.6985 84.1659 0.0000 0.0000 0.0000
# 4 0.0000 0.0000 0.0000 10.1255 0.0000 0.0000
# 5 0.0000 0.0000 0.0000 0.0000 -0.1843 0.0000
# 6 0.0000 0.0000 0.0000 0.0000 0.0000 12.0531
#
#
#
# Elastic Compliance Matrix: (Units=1/GPa)
#
#
# Indices 1 2 3 4 5 6 
#
# 1 0.012063 -0.000636 -0.002332 0.000000 0.000000 0.000000
# 2 -0.000636 0.018691 -0.010672 0.000000 0.000000 0.000000
# 3 -0.002332 -0.010672 0.018579 0.000000 0.000000 0.000000
# 4 0.000000 0.000000 0.000000 0.098761 0.000000 0.000000
# 5 0.000000 0.000000 0.000000 0.000000 -5.427130 0.000000
# 6 0.000000 0.000000 0.000000 0.000000 0.000000 0.082966
#
#
# Mechanical properties :
#
#
# Convention : Reuss Voigt Hill
#
# Bulk Modulus (GPa) = 45.35006 46.19397 45.77201
# Shear Modulus (GPa) = -0.96872 15.86127 7.44628
#
# Velocity S-wave (km/s) = -0.72009 2.91378 1.99644
# Velocity P-wave (km/s) = 4.85626 6.00388 5.46030
#
# Compressibility (1/GPa) = 0.02205069
#
# Stress axis : x y z
#
# Youngs Moduli (GPa) = 82.89860 53.50097 53.82557
#
# Poissons Ratio (x) = 0.03404 0.12555
# Poissons Ratio (y) = 0.05274 0.57445
# Poissons Ratio (z) = 0.19336 0.57098
#
# Static dielectric constant tensor:
#      x y z
#    x 1.707560 0.000000 0.000000 
#    y 0.000000 1.703230 0.000000 
#    z 0.000000 0.000000 1.627670 
# 
# From -- ./inp_files/66059.got.cif
#   From: 2010.05.17/outbox.cif.g08.bks.cpg/sg66_34_cif.got.tgz:66059.got - 2010.06.03 17:51:23.
