data_PCOD9496785
_publ_section_title
;
Structure prediction by ZEFSAII (Michael W. Deem and Ramdas Pophale) SiO2 
 PCOD9496785
Probable space group: C C C M
;
_chemical_formula_sum "Si O2"
_cell_formula_units_Z 96
_cell_length_a 18.218760
_cell_length_b 11.501105
_cell_length_c 22.674289
_cell_angle_alpha 90.000000
_cell_angle_beta 90.000000
_cell_angle_gamma 90.000000
_cell_volume 4751.076911
_symmetry_space_group_name_H-M "C C C M"
_symmetry_group_IT_number 66
_symmetry_cell_setting 'orthorhombic'
loop_
_space_group_symop_operation_xyz
x,y,z
-x,-y,z
x,-y,1/2-z
-x,y,1/2-z
-x,-y,-z
x,y,-z
-x,y,1/2+z
x,-y,1/2+z
1/2+x,1/2+y,z
1/2-x,1/2-y,z
1/2+x,1/2-y,1/2-z
1/2-x,1/2+y,1/2-z
1/2-x,1/2-y,-z
1/2+x,1/2+y,-z
1/2-x,1/2+y,1/2+z
1/2+x,1/2-y,1/2+z
loop_
_atom_site_type_symbol
_atom_site_label
_atom_site_fract_x
_atom_site_fract_y
_atom_site_fract_z
Si Si1 0.912539 0.471013 0.683704
Si Si2 0.058369 0.157865 0.587774
Si Si3 0.664414 0.728143 0.174054
Si Si4 0.077617 0.571963 0.935929
Si Si5 0.075441 0.867493 0.773031
Si Si6 0.890408 0.084907 0.564004
O O1 0.884556 0.500000 0.750000
O O2 0.888376 0.340350 0.667757
O O3 0.884255 0.540855 0.626218
O O4 0.000000 0.500000 0.686067
O O5 0.067684 0.289285 0.566831
O O6 0.071262 0.147554 0.657758
O O7 0.975451 0.122309 0.571438
O O8 0.109715 0.055052 0.563711
O O9 0.750000 0.750000 0.170406
O O10 0.644045 0.684443 0.239253
O O11 0.646301 0.637537 0.122064
O O12 0.000000 0.500000 0.935391
O O13 0.112063 0.542584 0.000000
O O14 0.000000 0.809713 0.750000
O O15 0.073598 0.000000 0.750000
O O16 0.863504 0.127923 0.500000
#
# Coordination Sequence:
#
# PCOD9496785 Si02
#       6
#    16  16  16  16  16  16
#     4  10  22  39  63  92 123 166 218 273 327 394
#     4  11  19  36  64  95 127 159 218 285 329 382
#     4  12  26  41  62  97 134 171 220 275 345 405
#     4  10  20  33  54  89 127 163 204 260 327 390
#     4  11  20  38  65  93 124 164 213 275 339 399
#     4  11  21  36  61  95 132 171 215 266 329 402
#
# _framework density 20.205945
#
# number of rings (size 3 to 8) (size 9 to 14) (size 15 to 20)
#    0.000    1.167    3.333    6.000    2.333    3.000 
#    0.000    0.000    0.000    0.000    0.000    2.333 
#    0.000    0.000    0.000    0.000    0.000    0.000 
#
# Total GULP energy -267499.130855 kJ/mol
# GULP energy per Si atom -5572.898559 kJ/mol
# Density = 2.015996 g / cm^3
# Si number density = 20.205945 Si / 1000 Ang^3
#
#
#
# Elastic Constant Matrix: (Units=GPa)
#
#
# Indices 1 2 3 4 5 6 
#
# 1 50.9184 17.2125 7.7161 0.0000 0.0000 0.0000
# 2 17.2125 113.5572 26.9054 0.0000 0.0000 0.0000
# 3 7.7161 26.9054 206.1044 0.0000 0.0000 0.0000
# 4 0.0000 0.0000 0.0000 100.8881 0.0000 0.0000
# 5 0.0000 0.0000 0.0000 0.0000 501.8666 0.0000
# 6 0.0000 0.0000 0.0000 0.0000 0.0000 8.8128
#
#
#
# Elastic Compliance Matrix: (Units=1/GPa)
#
#
# Indices 1 2 3 4 5 6 
#
# 1 0.020728 -0.003052 -0.000378 0.000000 0.000000 0.000000
# 2 -0.003052 0.009537 -0.001131 0.000000 0.000000 0.000000
# 3 -0.000378 -0.001131 0.005014 0.000000 0.000000 0.000000
# 4 0.000000 0.000000 0.000000 0.009912 0.000000 0.000000
# 5 0.000000 0.000000 0.000000 0.000000 0.001993 0.000000
# 6 0.000000 0.000000 0.000000 0.000000 0.000000 0.113471
#
#
# Mechanical properties :
#
#
# Convention : Reuss Voigt Hill
#
# Bulk Modulus (GPa) = 38.23022 52.69424 45.46223
# Shear Modulus (GPa) = 28.01208 143.56325 85.78766
#
# Velocity S-wave (km/s) = 3.72738 8.43826 6.52295
# Velocity P-wave (km/s) = 6.12257 11.00337 8.90393
#
# Compressibility (1/GPa) = 0.02615732
#
# Stress axis : x y z
#
# Youngs Moduli (GPa) = 48.24319 104.85807 199.45572
#
# Poissons Ratio (x) = 0.32007 0.07530
# Poissons Ratio (y) = 0.14726 0.22552
# Poissons Ratio (z) = 0.01821 0.11856
#
# Static dielectric constant tensor:
#      x y z
#    x 1.751170 0.000000 0.000000 
#    y 0.000000 1.835230 0.000000 
#    z 0.000000 0.000000 1.768250 
# 
# From -- ./inp_files/58769.got.cif
#   From: 2010.05.17/outbox.cif.g08.bks.cpg/sg66_30_cif.got.tgz:58769.got - 2010.06.03 17:51:23.
