data_PCOD9496934
_publ_section_title
;
Structure prediction by ZEFSAII (Michael W. Deem and Ramdas Pophale) SiO2 
 PCOD9496934
Probable space group: C C C M
;
_chemical_formula_sum "Si O2"
_cell_formula_units_Z 72
_cell_length_a 24.143876
_cell_length_b 13.984171
_cell_length_c 9.630913
_cell_angle_alpha 90.000000
_cell_angle_beta 90.000000
_cell_angle_gamma 90.000000
_cell_volume 3251.705290
_symmetry_space_group_name_H-M "C C C M"
_symmetry_group_IT_number 66
_symmetry_cell_setting 'orthorhombic'
loop_
_space_group_symop_operation_xyz
x,y,z
-x,-y,z
x,-y,1/2-z
-x,y,1/2-z
-x,-y,-z
x,y,-z
-x,y,1/2+z
x,-y,1/2+z
1/2+x,1/2+y,z
1/2-x,1/2-y,z
1/2+x,1/2-y,1/2-z
1/2-x,1/2+y,1/2-z
1/2-x,1/2-y,-z
1/2+x,1/2+y,-z
1/2-x,1/2+y,1/2+z
1/2+x,1/2-y,1/2+z
loop_
_atom_site_type_symbol
_atom_site_label
_atom_site_fract_x
_atom_site_fract_y
_atom_site_fract_z
Si Si1 0.263405 0.526696 0.000000
Si Si2 0.185876 0.778019 0.000000
Si Si3 0.184800 0.500000 0.750000
Si Si4 0.445606 0.433136 0.500000
Si Si5 0.597024 0.286603 0.774076
Si Si6 0.576232 0.090261 0.339375
Si Si7 0.360729 0.392853 0.000000
O O1 0.224777 0.540462 0.867175
O O2 0.309396 0.607891 0.000000
O O3 0.296735 0.426853 0.000000
O O4 0.250000 0.750000 0.000000
O O5 0.148385 0.751353 0.130913
O O6 0.143083 0.573779 0.674669
O O7 0.500000 0.500000 0.500000
O O8 0.437585 0.362747 0.633191
O O9 0.398125 0.512611 0.500000
O O10 0.564031 0.192396 0.727772
O O11 0.622258 0.335369 0.637405
O O12 0.559959 0.085895 0.500000
O O13 0.556135 0.000000 0.250000
#
# Coordination Sequence:
#
# PCOD9496934 Si02
#       7
#     8   8   8   8  16  16   8
#     4  12  20  34  53  85 133 189 234 294 338 391
#     4  11  23  36  57  87 136 196 249 289 335 397
#     4  10  20  34  58  86 135 183 242 282 336 394
#     4  11  27  48  71  97 130 177 223 291 373 442
#     4  11  23  42  66  98 132 176 244 290 350 430
#     4  10  21  39  63  94 134 183 238 284 337 407
#     4  12  24  40  63  97 132 173 233 297 358 416
#
# _framework density 22.142226000000001
#
# number of rings (size 3 to 8) (size 9 to 14) (size 15 to 20)
#    0.667    0.444    4.444    3.333    3.111    1.778 
#    0.000    1.667    0.000    0.000    0.000    4.667 
#    0.000    0.000    0.000    0.000    0.000    0.000 
#
# Total GULP energy -201039.207812 kJ/mol
# GULP energy per Si atom -5584.422439 kJ/mol
# Density = 2.209183 g / cm^3
# Si number density = 22.142226 Si / 1000 Ang^3
#
#
#
# Elastic Constant Matrix: (Units=GPa)
#
#
# Indices 1 2 3 4 5 6 
#
# 1 112.6868 34.4711 39.9364 0.0000 0.0000 0.0000
# 2 34.4711 134.5898 71.8528 0.0000 0.0000 0.0000
# 3 39.9364 71.8528 192.4383 0.0000 0.0000 0.0000
# 4 0.0000 0.0000 0.0000-1351.0383 0.0000 0.0000
# 5 0.0000 0.0000 0.0000 0.0000 -12.4449 0.0000
# 6 0.0000 0.0000 0.0000 0.0000 0.0000 -14.3489
#
#
#
# Elastic Compliance Matrix: (Units=1/GPa)
#
#
# Indices 1 2 3 4 5 6 
#
# 1 0.009916 -0.001800 -0.001386 0.000000 0.000000 0.000000
# 2 -0.001800 0.009606 -0.003213 0.000000 0.000000 0.000000
# 3 -0.001386 -0.003213 0.006684 0.000000 0.000000 0.000000
# 4 0.000000 0.000000 0.000000 -0.000740 0.000000 0.000000
# 5 0.000000 0.000000 0.000000 0.000000 -0.080354 0.000000
# 6 0.000000 0.000000 0.000000 0.000000 0.000000 -0.069692
#
#
# Mechanical properties :
#
#
# Convention : Reuss Voigt Hill
#
# Bulk Modulus (GPa) = 74.58105 81.35950 77.97027
# Shear Modulus (GPa) = -46.59281 -256.00277 -151.29779
#
# Velocity S-wave (km/s) = -4.59219 -10.76422 -8.27516
# Velocity P-wave (km/s) = 2.37450 10.84746 7.48429
#
# Compressibility (1/GPa) = 0.01340823
#
# Stress axis : x y z
#
# Youngs Moduli (GPa) = 100.84865 104.09674 149.61397
#
# Poissons Ratio (x) = 0.18735 0.20734
# Poissons Ratio (y) = 0.18151 0.48076
# Poissons Ratio (z) = 0.13976 0.33450
#
# Static dielectric constant tensor:
#      x y z
#    x 1.808980 0.000000 0.000000 
#    y 0.000000 1.846090 0.000000 
#    z 0.000000 0.000000 1.799170 
# 
# From -- ./inp_files/10014.got.cif
#   From: 2010.05.17/outbox.cif.g08.bks.cpg/sg66_6_cif.got.tgz:10014.got - 2010.06.03 17:51:23.
