data_PCOD9496709
_publ_section_title
;
Structure prediction by ZEFSAII (Michael W. Deem and Ramdas Pophale) SiO2 
 PCOD9496709
Probable space group: C C C M
;
_chemical_formula_sum "Si O2"
_cell_formula_units_Z 64
_cell_length_a 15.805408
_cell_length_b 11.675940
_cell_length_c 19.640791
_cell_angle_alpha 90.000000
_cell_angle_beta 90.000000
_cell_angle_gamma 90.000000
_cell_volume 3624.570405
_symmetry_space_group_name_H-M "C C C M"
_symmetry_group_IT_number 66
_symmetry_cell_setting 'orthorhombic'
loop_
_space_group_symop_operation_xyz
x,y,z
-x,-y,z
x,-y,1/2-z
-x,y,1/2-z
-x,-y,-z
x,y,-z
-x,y,1/2+z
x,-y,1/2+z
1/2+x,1/2+y,z
1/2-x,1/2-y,z
1/2+x,1/2-y,1/2-z
1/2-x,1/2+y,1/2-z
1/2-x,1/2-y,-z
1/2+x,1/2+y,-z
1/2-x,1/2+y,1/2+z
1/2+x,1/2-y,1/2+z
loop_
_atom_site_type_symbol
_atom_site_label
_atom_site_fract_x
_atom_site_fract_y
_atom_site_fract_z
Si Si1 0.950680 0.621184 0.334358
Si Si2 0.727260 0.436194 0.678628
Si Si3 0.718205 0.879016 0.419620
Si Si4 0.613913 0.221095 0.689578
O O1 0.875671 0.609490 0.387970
O O2 0.908908 0.672714 0.265230
O O3 0.000000 0.500000 0.324919
O O4 0.027610 0.706153 0.352182
O O5 0.741116 0.500000 0.750000
O O6 0.722804 0.531235 0.620349
O O7 0.649764 0.348997 0.688037
O O8 0.810330 0.359626 0.664124
O O9 0.717928 0.900052 0.500000
O O10 0.750000 0.750000 0.406721
#
# Coordination Sequence:
#
# PCOD9496709 Si02
#       4
#    16  16  16  16
#     4  11  19  37  60  90 121 147 195 252 295 347
#     4  11  19  36  59  87 116 154 193 241 298 350
#     4  11  24  41  60  85 120 162 202 240 293 358
#     4  10  20  32  59  92 116 142 192 251 298 341
#
# _framework density 17.657264999999999
#
# number of rings (size 3 to 8) (size 9 to 14) (size 15 to 20)
#    0.000    1.250    5.000    3.000    0.000    0.500 
#    0.000   12.500    0.000    3.000    0.000    0.000 
#    0.000    0.000    0.000    0.000    0.000    0.000 
#
# Total GULP energy -178437.143949 kJ/mol
# GULP energy per Si atom -5576.160748 kJ/mol
# Density = 1.761708 g / cm^3
# Si number density = 17.657265 Si / 1000 Ang^3
#
#
#
# Elastic Constant Matrix: (Units=GPa)
#
#
# Indices 1 2 3 4 5 6 
#
# 1 87.8474 51.6213 27.6488 0.0000 0.0000 0.0000
# 2 51.6213 126.9373 66.6637 0.0000 0.0000 0.0000
# 3 27.6488 66.6637 81.2715 0.0000 0.0000 0.0000
# 4 0.0000 0.0000 0.0000 24.3023 0.0000 0.0000
# 5 0.0000 0.0000 0.0000 0.0000 1.6080 0.0000
# 6 0.0000 0.0000 0.0000 0.0000 0.0000 38.5204
#
#
#
# Elastic Compliance Matrix: (Units=1/GPa)
#
#
# Indices 1 2 3 4 5 6 
#
# 1 0.014959 -0.005992 -0.000174 0.000000 0.000000 0.000000
# 2 -0.005992 0.016240 -0.011282 0.000000 0.000000 0.000000
# 3 -0.000174 -0.011282 0.021618 0.000000 0.000000 0.000000
# 4 0.000000 0.000000 0.000000 0.041148 0.000000 0.000000
# 5 0.000000 0.000000 0.000000 0.000000 0.621888 0.000000
# 6 0.000000 0.000000 0.000000 0.000000 0.000000 0.025960
#
#
# Mechanical properties :
#
#
# Convention : Reuss Voigt Hill
#
# Bulk Modulus (GPa) = 55.80321 65.32486 60.56403
# Shear Modulus (GPa) = 6.38828 22.89431 14.64129
#
# Velocity S-wave (km/s) = 1.90415 3.60473 2.88270
# Velocity P-wave (km/s) = 6.04206 7.37576 6.74197
#
# Compressibility (1/GPa) = 0.01792012
#
# Stress axis : x y z
#
# Youngs Moduli (GPa) = 66.84848 61.57726 46.25740
#
# Poissons Ratio (x) = 0.36896 0.00806
# Poissons Ratio (y) = 0.40055 0.52189
# Poissons Ratio (z) = 0.01165 0.69474
#
# Static dielectric constant tensor:
#      x y z
#    x 1.635260 0.000000 0.000000 
#    y 0.000000 1.636550 0.000000 
#    z 0.000000 0.000000 1.591230 
# 
# From -- ./inp_files/38192.got.cif
#   From: 2010.05.17/outbox.cif.g08.bks.cpg/sg66_20_cif.got.tgz:38192.got - 2010.06.03 17:51:23.
