data_PCOD9496687
_publ_section_title
;
Structure prediction by ZEFSAII (Michael W. Deem and Ramdas Pophale) SiO2 
 PCOD9496687
Probable space group: C C C M
;
_chemical_formula_sum "Si O2"
_cell_formula_units_Z 80
_cell_length_a 17.896423
_cell_length_b 16.421535
_cell_length_c 14.579199
_cell_angle_alpha 90.000000
_cell_angle_beta 90.000000
_cell_angle_gamma 90.000000
_cell_volume 4284.633217
_symmetry_space_group_name_H-M "C C C M"
_symmetry_group_IT_number 66
_symmetry_cell_setting 'orthorhombic'
loop_
_space_group_symop_operation_xyz
x,y,z
-x,-y,z
x,-y,1/2-z
-x,y,1/2-z
-x,-y,-z
x,y,-z
-x,y,1/2+z
x,-y,1/2+z
1/2+x,1/2+y,z
1/2-x,1/2-y,z
1/2+x,1/2-y,1/2-z
1/2-x,1/2+y,1/2-z
1/2-x,1/2-y,-z
1/2+x,1/2+y,-z
1/2-x,1/2+y,1/2+z
1/2+x,1/2-y,1/2+z
loop_
_atom_site_type_symbol
_atom_site_label
_atom_site_fract_x
_atom_site_fract_y
_atom_site_fract_z
Si Si1 0.210198 0.325565 0.284585
Si Si2 0.560909 0.933401 0.890133
Si Si3 0.807053 0.146188 0.392555
Si Si4 0.429446 0.240124 0.198060
Si Si5 0.778195 0.509614 0.392762
O O1 0.250000 0.250000 0.333646
O O2 0.244384 0.329120 0.181627
O O3 0.125249 0.299364 0.273912
O O4 0.225905 0.410005 0.332900
O O5 0.547684 0.840845 0.858220
O O6 0.500000 0.000000 0.857552
O O7 0.644904 0.962765 0.865218
O O8 0.557896 0.932931 0.000000
O O9 0.792427 0.166013 0.500000
O O10 0.881576 0.193162 0.359195
O O11 0.794727 0.048448 0.385906
O O12 0.500000 0.277077 0.250000
O O13 0.787072 0.530357 0.500000
#
# Coordination Sequence:
#
# PCOD9496687 Si02
#       5
#    16  16  16  16  16
#     4  10  21  35  57  86 114 152 200 249 305 362
#     4  10  20  32  51  82 120 158 190 231 300 377
#     4  10  21  37  61  87 115 157 209 255 293 355
#     4  11  22  34  53  84 123 157 195 247 313 360
#     4  10  20  35  57  85 116 155 201 247 297 359
#
# _framework density 18.671375999999999
#
# number of rings (size 3 to 8) (size 9 to 14) (size 15 to 20)
#    0.000    1.800    2.000    2.400    0.000    6.000 
#    0.000    1.000    0.000   12.000    0.000   18.200 
#    0.000    0.000    0.000    0.000    0.000    0.000 
#
# Total GULP energy -222778.146172 kJ/mol
# GULP energy per Si atom -5569.453654 kJ/mol
# Density = 1.862888 g / cm^3
# Si number density = 18.671376 Si / 1000 Ang^3
#
#
#
# Elastic Constant Matrix: (Units=GPa)
#
#
# Indices 1 2 3 4 5 6 
#
# 1 97.3518 56.5244 44.4545 0.0000 0.0000 0.0000
# 2 56.5244 117.6120 59.8936 0.0000 0.0000 0.0000
# 3 44.4545 59.8936 75.2117 0.0000 0.0000 0.0000
# 4 0.0000 0.0000 0.0000 -33.5602 0.0000 0.0000
# 5 0.0000 0.0000 0.0000 0.0000 24.1431 0.0000
# 6 0.0000 0.0000 0.0000 0.0000 0.0000 33.1315
#
#
#
# Elastic Compliance Matrix: (Units=1/GPa)
#
#
# Indices 1 2 3 4 5 6 
#
# 1 0.015457 -0.004670 -0.005417 0.000000 0.000000 0.000000
# 2 -0.004670 0.015714 -0.009753 0.000000 0.000000 0.000000
# 3 -0.005417 -0.009753 0.024264 0.000000 0.000000 0.000000
# 4 0.000000 0.000000 0.000000 -0.029797 0.000000 0.000000
# 5 0.000000 0.000000 0.000000 0.000000 0.041420 0.000000
# 6 0.000000 0.000000 0.000000 0.000000 0.000000 0.030183
#
#
# Mechanical properties :
#
#
# Convention : Reuss Voigt Hill
#
# Bulk Modulus (GPa) = 63.47329 67.99116 65.73223
# Shear Modulus (GPa) = 35.16846 13.36307 24.26576
#
# Velocity S-wave (km/s) = 4.34470 2.67816 3.60894
# Velocity P-wave (km/s) = 7.69658 6.78654 7.25584
#
# Compressibility (1/GPa) = 0.01575466
#
# Stress axis : x y z
#
# Youngs Moduli (GPa) = 64.69446 63.63872 41.21273
#
# Poissons Ratio (x) = 0.29720 0.22326
# Poissons Ratio (y) = 0.30213 0.40195
# Poissons Ratio (z) = 0.35046 0.62067
#
# Static dielectric constant tensor:
#      x y z
#    x 1.667820 0.000000 0.000000 
#    y 0.000000 1.699820 0.000000 
#    z 0.000000 0.000000 1.664170 
# 
# From -- ./inp_files/29948.got.cif
#   From: 2010.05.17/outbox.cif.g08.bks.cpg/sg66_15_cif.got.tgz:29948.got - 2010.06.03 17:51:23.
