data_PCOD9496114
_publ_section_title
;
Structure prediction by ZEFSAII (Michael W. Deem and Ramdas Pophale) SiO2 
 PCOD9496114
Probable space group: C C C M
;
_chemical_formula_sum "Si O2"
_cell_formula_units_Z 64
_cell_length_a 34.893546
_cell_length_b 4.960124
_cell_length_c 17.086694
_cell_angle_alpha 90.000000
_cell_angle_beta 90.000000
_cell_angle_gamma 90.000000
_cell_volume 2957.302032
_symmetry_space_group_name_H-M "C C C M"
_symmetry_group_IT_number 66
_symmetry_cell_setting 'orthorhombic'
loop_
_space_group_symop_operation_xyz
x,y,z
-x,-y,z
x,-y,1/2-z
-x,y,1/2-z
-x,-y,-z
x,y,-z
-x,y,1/2+z
x,-y,1/2+z
1/2+x,1/2+y,z
1/2-x,1/2-y,z
1/2+x,1/2-y,1/2-z
1/2-x,1/2+y,1/2-z
1/2-x,1/2-y,-z
1/2+x,1/2+y,-z
1/2-x,1/2+y,1/2+z
1/2+x,1/2-y,1/2+z
loop_
_atom_site_type_symbol
_atom_site_label
_atom_site_fract_x
_atom_site_fract_y
_atom_site_fract_z
Si Si1 0.785984 0.411690 0.590617
Si Si2 0.836903 0.104952 0.090838
Si Si3 0.579494 0.394830 0.162668
Si Si4 0.043819 0.598461 0.589055
O O1 0.774506 0.474126 0.500000
O O2 0.750000 0.250000 0.626622
O O3 0.804622 0.686231 0.622397
O O4 0.819494 0.192348 0.590271
O O5 0.876406 0.097461 0.136658
O O6 0.844361 0.184613 0.000000
O O7 0.575048 0.500000 0.250000
O O8 0.553100 0.592891 0.109816
O O9 0.566341 0.090627 0.148792
O O10 0.057077 0.548912 0.500000
O O11 0.000000 0.500000 0.593694
#
# Coordination Sequence:
#
# PCOD9496114 Si02
#       4
#    16  16  16  16
#     4   9  17  30  52  83 113 144 191 247 293 337
#     4  10  19  33  55  81 114 154 194 239 290 350
#     4  12  25  40  61  91 126 162 202 251 308 369
#     4  11  24  43  66  90 119 158 205 255 307 368
#
# _framework density 21.641347
#
# number of rings (size 3 to 8) (size 9 to 14) (size 15 to 20)
#    0.000    1.500    0.000    6.000    0.000   10.000 
#    0.000    0.000    0.000    3.000    0.000    0.000 
#    0.000    0.000    0.000    0.000    0.000    0.250 
#
# Total GULP energy -178775.377870 kJ/mol
# GULP energy per Si atom -5586.730558 kJ/mol
# Density = 2.159209 g / cm^3
# Si number density = 21.641347 Si / 1000 Ang^3
#
#
#
# Elastic Constant Matrix: (Units=GPa)
#
#
# Indices 1 2 3 4 5 6 
#
# 1 47.1572 -4.9993 7.6849 0.0000 0.0000 0.0000
# 2 -4.9993 93.8382 -7.7833 0.0000 0.0000 0.0000
# 3 7.6849 -7.7833 60.4459 0.0000 0.0000 0.0000
# 4 0.0000 0.0000 0.0000 28.5335 0.0000 0.0000
# 5 0.0000 0.0000 0.0000 0.0000 -186.6925 0.0000
# 6 0.0000 0.0000 0.0000 0.0000 0.0000 38.1908
#
#
#
# Elastic Compliance Matrix: (Units=1/GPa)
#
#
# Indices 1 2 3 4 5 6 
#
# 1 0.021736 0.000939 -0.002643 0.000000 0.000000 0.000000
# 2 0.000939 0.010812 0.001273 0.000000 0.000000 0.000000
# 3 -0.002643 0.001273 0.017044 0.000000 0.000000 0.000000
# 4 0.000000 0.000000 0.000000 0.035047 0.000000 0.000000
# 5 0.000000 0.000000 0.000000 0.000000 -0.005356 0.000000
# 6 0.000000 0.000000 0.000000 0.000000 0.000000 0.026184
#
#
# Mechanical properties :
#
#
# Convention : Reuss Voigt Hill
#
# Bulk Modulus (GPa) = 20.52126 21.24954 20.88540
# Shear Modulus (GPa) = 40.79263 -10.22437 15.28413
#
# Velocity S-wave (km/s) = 4.34630 -2.17594 2.66041
# Velocity P-wave (km/s) = 5.88983 1.87812 4.37135
#
# Compressibility (1/GPa) = 0.04872995
#
# Stress axis : x y z
#
# Youngs Moduli (GPa) = 46.00693 92.48782 58.67309
#
# Poissons Ratio (x) = -0.08683 0.15505
# Poissons Ratio (y) = -0.04319 -0.07468
# Poissons Ratio (z) = 0.12158 -0.11773
#
# Static dielectric constant tensor:
#      x y z
#    x 1.786180 0.000000 0.000000 
#    y 0.000000 1.756320 0.000000 
#    z 0.000000 0.000000 1.776770 
# 
# From -- ./inp_files/44479.got.cif
#   From: 2010.05.17/outbox.cif.g08.bks.cpg/sg66_23_cif.got.tgz:44479.got - 2010.06.03 17:51:23.
