data_PCOD9496760
_publ_section_title
;
Structure prediction by ZEFSAII (Michael W. Deem and Ramdas Pophale) SiO2 
 PCOD9496760
Probable space group: C C C M
;
_chemical_formula_sum "Si O2"
_cell_formula_units_Z 80
_cell_length_a 12.042941
_cell_length_b 26.055748
_cell_length_c 13.895626
_cell_angle_alpha 90.000000
_cell_angle_beta 90.000000
_cell_angle_gamma 90.000000
_cell_volume 4360.278411
_symmetry_space_group_name_H-M "C C C M"
_symmetry_group_IT_number 66
_symmetry_cell_setting 'orthorhombic'
loop_
_space_group_symop_operation_xyz
x,y,z
-x,-y,z
x,-y,1/2-z
-x,y,1/2-z
-x,-y,-z
x,y,-z
-x,y,1/2+z
x,-y,1/2+z
1/2+x,1/2+y,z
1/2-x,1/2-y,z
1/2+x,1/2-y,1/2-z
1/2-x,1/2+y,1/2-z
1/2-x,1/2-y,-z
1/2+x,1/2+y,-z
1/2-x,1/2+y,1/2+z
1/2+x,1/2-y,1/2+z
loop_
_atom_site_type_symbol
_atom_site_label
_atom_site_fract_x
_atom_site_fract_y
_atom_site_fract_z
Si Si1 0.802001 0.910580 0.385364
Si Si2 0.871005 0.393110 0.272602
Si Si3 0.545891 0.383266 0.383564
Si Si4 0.223726 0.968458 0.614425
Si Si5 0.259842 0.691017 0.384010
O O1 0.790651 0.902139 0.500000
O O2 0.700387 0.888722 0.324934
O O3 0.919524 0.887596 0.350315
O O4 0.800328 0.972031 0.369042
O O5 0.825926 0.443907 0.327686
O O6 0.833954 0.345212 0.338368
O O7 0.000000 0.395299 0.250000
O O8 0.538803 0.383203 0.500000
O O9 0.617468 0.433755 0.358819
O O10 0.621850 0.334744 0.356996
O O11 0.243248 0.961589 0.500000
O O12 0.250970 0.688526 0.500000
O O13 0.250000 0.750000 0.354115
#
# Coordination Sequence:
#
# PCOD9496760 Si02
#       5
#    16  16  16  16  16
#     4  10  20  33  52  81 115 149 179 224 285 336
#     4  11  23  37  51  78 112 150 191 236 272 333
#     4   8  15  31  55  82 109 137 179 233 280 331
#     4   9  18  33  54  78 109 148 189 228 275 332
#     4   9  19  39  64  84 103 138 187 238 294 345
#
# _framework density 18.347452000000001
#
# number of rings (size 3 to 8) (size 9 to 14) (size 15 to 20)
#    0.000    2.600    0.000    3.000    0.000    8.800 
#    3.600    6.000    0.000    0.600    0.000    0.000 
#    0.000    0.000    0.000    0.000    0.000    0.000 
#
# Total GULP energy -223257.972409 kJ/mol
# GULP energy per Si atom -5581.449310 kJ/mol
# Density = 1.830569 g / cm^3
# Si number density = 18.347452 Si / 1000 Ang^3
#
#
#
# Elastic Constant Matrix: (Units=GPa)
#
#
# Indices 1 2 3 4 5 6 
#
# 1 186.4843 45.9263 51.1707 0.0000 0.0000 0.0000
# 2 45.9263 74.4974 35.6700 0.0000 0.0000 0.0000
# 3 51.1707 35.6700 72.3385 0.0000 0.0000 0.0000
# 4 0.0000 0.0000 0.0000 24.4539 0.0000 0.0000
# 5 0.0000 0.0000 0.0000 0.0000 22.5546 0.0000
# 6 0.0000 0.0000 0.0000 0.0000 0.0000 8.4561
#
#
#
# Elastic Compliance Matrix: (Units=1/GPa)
#
#
# Indices 1 2 3 4 5 6 
#
# 1 0.007005 -0.002547 -0.003699 0.000000 0.000000 0.000000
# 2 -0.002547 0.018498 -0.007320 0.000000 0.000000 0.000000
# 3 -0.003699 -0.007320 0.020050 0.000000 0.000000 0.000000
# 4 0.000000 0.000000 0.000000 0.040893 0.000000 0.000000
# 5 0.000000 0.000000 0.000000 0.000000 0.044337 0.000000
# 6 0.000000 0.000000 0.000000 0.000000 0.000000 0.118258
#
#
# Mechanical properties :
#
#
# Convention : Reuss Voigt Hill
#
# Bulk Modulus (GPa) = 54.28536 66.53935 60.41235
# Shear Modulus (GPa) = 17.71084 24.46312 21.08698
#
# Velocity S-wave (km/s) = 3.11030 3.65543 3.39383
# Velocity P-wave (km/s) = 6.52306 7.35943 6.95383
#
# Compressibility (1/GPa) = 0.01842117
#
# Stress axis : x y z
#
# Youngs Moduli (GPa) = 142.76198 54.05903 49.87587
#
# Poissons Ratio (x) = 0.13770 0.18449
# Poissons Ratio (y) = 0.36364 0.36507
# Poissons Ratio (z) = 0.52807 0.39569
#
# Static dielectric constant tensor:
#      x y z
#    x 1.610680 0.000000 0.000000 
#    y 0.000000 1.611410 0.000000 
#    z 0.000000 0.000000 1.692920 
# 
# From -- ./inp_files/26357.got.cif
#   From: 2010.05.17/outbox.cif.g08.bks.cpg/sg66_14_cif.got.tgz:26357.got - 2010.06.03 17:51:23.
