data_PCOD9496902
_publ_section_title
;
Structure prediction by ZEFSAII (Michael W. Deem and Ramdas Pophale) SiO2 
 PCOD9496902
Probable space group: C C C M
;
_chemical_formula_sum "Si O2"
_cell_formula_units_Z 84
_cell_length_a 24.206224
_cell_length_b 9.268275
_cell_length_c 20.802409
_cell_angle_alpha 90.000000
_cell_angle_beta 90.000000
_cell_angle_gamma 90.000000
_cell_volume 4667.019226
_symmetry_space_group_name_H-M "C C C M"
_symmetry_group_IT_number 66
_symmetry_cell_setting 'orthorhombic'
loop_
_space_group_symop_operation_xyz
x,y,z
-x,-y,z
x,-y,1/2-z
-x,y,1/2-z
-x,-y,-z
x,y,-z
-x,y,1/2+z
x,-y,1/2+z
1/2+x,1/2+y,z
1/2-x,1/2-y,z
1/2+x,1/2-y,1/2-z
1/2-x,1/2+y,1/2-z
1/2-x,1/2-y,-z
1/2+x,1/2+y,-z
1/2-x,1/2+y,1/2+z
1/2+x,1/2-y,1/2+z
loop_
_atom_site_type_symbol
_atom_site_label
_atom_site_fract_x
_atom_site_fract_y
_atom_site_fract_z
Si Si1 0.482556 0.834808 0.075283
Si Si2 0.500000 0.500000 0.250000
Si Si3 0.916577 0.871951 0.924102
Si Si4 0.085671 0.845237 0.160639
Si Si5 0.288046 0.607526 0.189523
Si Si6 0.208447 0.881538 0.575797
O O1 0.534822 0.735768 0.095634
O O2 0.432451 0.796439 0.122263
O O3 0.500000 0.000000 0.079514
O O4 0.469554 0.804034 0.000000
O O5 0.541101 0.393203 0.212757
O O6 0.853755 0.824017 0.911025
O O7 0.920510 0.025799 0.890912
O O8 0.922474 0.889574 0.000000
O O9 0.147426 0.845412 0.187929
O O10 0.278967 0.500000 0.250000
O O11 0.250000 0.750000 0.192179
O O12 0.279709 0.513017 0.124351
O O13 0.210826 0.924626 0.500000
O O14 0.250000 0.750000 0.585928
#
# Coordination Sequence:
#
# PCOD9496902 Si02
#       6
#    16   4  16  16  16  16
#     4  10  20  34  55  87 121 149 183 239 307 360
#     4  12  20  36  60  84 104 148 198 244 268 328
#     4   9  17  32  56  81 108 147 191 233 281 344
#     4  11  21  37  60  82 111 149 197 237 282 346
#     4  11  24  41  60  87 117 157 200 247 300 359
#     4   9  19  36  59  85 114 153 198 244 295 349
#
# _framework density 17.998640000000002
#
# number of rings (size 3 to 8) (size 9 to 14) (size 15 to 20)
#    0.000    1.905    2.857    1.143    0.000    4.190 
#    0.000    4.286    0.000    0.000    0.000    0.000 
#    0.000    0.000    0.000    0.000    0.000    0.000 
#
# Total GULP energy -234212.149551 kJ/mol
# GULP energy per Si atom -5576.479751 kJ/mol
# Density = 1.795767 g / cm^3
# Si number density = 17.998640 Si / 1000 Ang^3
#
#
#
# Elastic Constant Matrix: (Units=GPa)
#
#
# Indices 1 2 3 4 5 6 
#
# 1 108.2801 55.1799 49.4677 0.0000 0.0000 0.0000
# 2 55.1799 71.0242 44.1461 0.0000 0.0000 0.0000
# 3 49.4677 44.1461 63.4328 0.0000 0.0000 0.0000
# 4 0.0000 0.0000 0.0000 33.8808 0.0000 0.0000
# 5 0.0000 0.0000 0.0000 0.0000 24.8438 0.0000
# 6 0.0000 0.0000 0.0000 0.0000 0.0000 20.5774
#
#
#
# Elastic Compliance Matrix: (Units=1/GPa)
#
#
# Indices 1 2 3 4 5 6 
#
# 1 0.016944 -0.008726 -0.007141 0.000000 0.000000 0.000000
# 2 -0.008726 0.029307 -0.013592 0.000000 0.000000 0.000000
# 3 -0.007141 -0.013592 0.030793 0.000000 0.000000 0.000000
# 4 0.000000 0.000000 0.000000 0.029515 0.000000 0.000000
# 5 0.000000 0.000000 0.000000 0.000000 0.040251 0.000000
# 6 0.000000 0.000000 0.000000 0.000000 0.000000 0.048597
#
#
# Mechanical properties :
#
#
# Convention : Reuss Voigt Hill
#
# Bulk Modulus (GPa) = 55.16592 60.03604 57.60098
# Shear Modulus (GPa) = 19.20364 22.12329 20.66347
#
# Velocity S-wave (km/s) = 3.26996 3.50975 3.39197
# Velocity P-wave (km/s) = 6.70623 7.06065 6.88572
#
# Compressibility (1/GPa) = 0.01812713
#
# Stress axis : x y z
#
# Youngs Moduli (GPa) = 59.01635 34.12183 32.47492
#
# Poissons Ratio (x) = 0.29773 0.23192
# Poissons Ratio (y) = 0.51495 0.44138
# Poissons Ratio (z) = 0.42146 0.46377
#
# Static dielectric constant tensor:
#      x y z
#    x 1.641070 0.000000 0.000000 
#    y 0.000000 1.581610 0.000000 
#    z 0.000000 0.000000 1.645620 
# 
# From -- ./inp_files/52331.got.cif
#   From: 2010.05.17/outbox.cif.g08.bks.cpg/sg66_27_cif.got.tgz:52331.got - 2010.06.03 17:51:23.
