data_PCOD9496251
_publ_section_title
;
Structure prediction by ZEFSAII (Michael W. Deem and Ramdas Pophale) SiO2 
 PCOD9496251
Probable space group: C C C M
;
_chemical_formula_sum "Si O2"
_cell_formula_units_Z 48
_cell_length_a 5.202795
_cell_length_b 13.478063
_cell_length_c 26.464726
_cell_angle_alpha 90.000000
_cell_angle_beta 90.000000
_cell_angle_gamma 90.000000
_cell_volume 1855.801828
_symmetry_space_group_name_H-M "C C C M"
_symmetry_group_IT_number 66
_symmetry_cell_setting 'orthorhombic'
loop_
_space_group_symop_operation_xyz
x,y,z
-x,-y,z
x,-y,1/2-z
-x,y,1/2-z
-x,-y,-z
x,y,-z
-x,y,1/2+z
x,-y,1/2+z
1/2+x,1/2+y,z
1/2-x,1/2-y,z
1/2+x,1/2-y,1/2-z
1/2-x,1/2+y,1/2-z
1/2-x,1/2-y,-z
1/2+x,1/2+y,-z
1/2-x,1/2+y,1/2+z
1/2+x,1/2-y,1/2+z
loop_
_atom_site_type_symbol
_atom_site_label
_atom_site_fract_x
_atom_site_fract_y
_atom_site_fract_z
Si Si1 0.499000 0.680730 0.055503
Si Si2 0.843720 0.386002 0.802623
Si Si3 0.841231 0.894002 0.840929
O O1 0.250000 0.750000 0.061690
O O2 0.539517 0.610354 0.103529
O O3 0.750000 0.750000 0.054274
O O4 0.477124 0.631681 0.000000
O O5 0.556613 0.342431 0.805308
O O6 0.747094 0.497808 0.818987
O O7 0.000000 0.382043 0.750000
O O8 0.055861 0.347518 0.841995
#
# Coordination Sequence:
#
# PCOD9496251 Si02
#       3
#    16  16  16
#     4  10  21  38  59  81 110 151 193 234 282 335
#     4  10  20  34  56  84 113 147 183 228 288 345
#     4  10  19  34  56  83 110 146 188 227 278 342
#
# _framework density 25.864833999999998
#
# number of rings (size 3 to 8) (size 9 to 14) (size 15 to 20)
#    0.000    2.000    0.000    5.000    0.000    5.333 
#    0.000    6.667    0.000   28.000    0.000    0.000 
#    0.000    0.000    0.000    0.000    0.000    0.000 
#
# Total GULP energy -133783.064900 kJ/mol
# GULP energy per Si atom -5574.294371 kJ/mol
# Density = 2.580596 g / cm^3
# Si number density = 25.864834 Si / 1000 Ang^3
#
#
#
# Elastic Constant Matrix: (Units=GPa)
#
#
# Indices 1 2 3 4 5 6 
#
# 1 295.2737 27.2587 67.6859 0.0000 0.0000 0.0000
# 2 27.2587 85.9703 30.8065 0.0000 0.0000 0.0000
# 3 67.6859 30.8065 230.7004 0.0000 0.0000 0.0000
# 4 0.0000 0.0000 0.0000 37.0940 0.0000 0.0000
# 5 0.0000 0.0000 0.0000 0.0000 69.8936 0.0000
# 6 0.0000 0.0000 0.0000 0.0000 0.0000 22.8219
#
#
#
# Elastic Compliance Matrix: (Units=1/GPa)
#
#
# Indices 1 2 3 4 5 6 
#
# 1 0.003685 -0.000820 -0.000972 0.000000 0.000000 0.000000
# 2 -0.000820 0.012399 -0.001415 0.000000 0.000000 0.000000
# 3 -0.000972 -0.001415 0.004809 0.000000 0.000000 0.000000
# 4 0.000000 0.000000 0.000000 0.026959 0.000000 0.000000
# 5 0.000000 0.000000 0.000000 0.000000 0.014307 0.000000
# 6 0.000000 0.000000 0.000000 0.000000 0.000000 0.043818
#
#
# Mechanical properties :
#
#
# Convention : Reuss Voigt Hill
#
# Bulk Modulus (GPa) = 69.06590 95.93853 82.50221
# Shear Modulus (GPa) = 42.65603 58.37478 50.51540
#
# Velocity S-wave (km/s) = 4.06543 4.75586 4.42413
# Velocity P-wave (km/s) = 6.98552 8.20551 7.61997
#
# Compressibility (1/GPa) = 0.01447892
#
# Stress axis : x y z
#
# Youngs Moduli (GPa) = 271.35955 80.65121 207.95796
#
# Poissons Ratio (x) = 0.06616 0.20206
# Poissons Ratio (y) = 0.22259 0.29427
# Poissons Ratio (z) = 0.26367 0.11413
#
# Static dielectric constant tensor:
#      x y z
#    x 2.505260 0.000000 0.000000 
#    y 0.000000 2.794600 0.000000 
#    z 0.000000 0.000000 2.109540 
# 
# From -- ./inp_files/60883.got.cif
#   From: 2010.05.17/outbox.cif.g08.bks.cpg/sg66_31_cif.got.tgz:60883.got - 2010.06.03 17:51:23.
