data_PCOD9496455
_publ_section_title
;
Structure prediction by ZEFSAII (Michael W. Deem and Ramdas Pophale) SiO2 
 PCOD9496455
Probable space group: C C C M
;
_chemical_formula_sum "Si O2"
_cell_formula_units_Z 104
_cell_length_a 21.206125
_cell_length_b 28.438129
_cell_length_c 9.440430
_cell_angle_alpha 90.000000
_cell_angle_beta 90.000000
_cell_angle_gamma 90.000000
_cell_volume 5693.169490
_symmetry_space_group_name_H-M "C C C M"
_symmetry_group_IT_number 66
_symmetry_cell_setting 'orthorhombic'
loop_
_space_group_symop_operation_xyz
x,y,z
-x,-y,z
x,-y,1/2-z
-x,y,1/2-z
-x,-y,-z
x,y,-z
-x,y,1/2+z
x,-y,1/2+z
1/2+x,1/2+y,z
1/2-x,1/2-y,z
1/2+x,1/2-y,1/2-z
1/2-x,1/2+y,1/2-z
1/2-x,1/2-y,-z
1/2+x,1/2+y,-z
1/2-x,1/2+y,1/2+z
1/2+x,1/2-y,1/2+z
loop_
_atom_site_type_symbol
_atom_site_label
_atom_site_fract_x
_atom_site_fract_y
_atom_site_fract_z
Si Si1 0.395812 0.812415 0.159264
Si Si2 0.345236 0.363548 0.167350
Si Si3 0.063895 0.048279 0.169219
Si Si4 0.606720 0.953394 0.838827
Si Si5 0.064565 0.794515 0.169059
Si Si6 0.000000 0.384018 0.250000
Si Si7 0.198693 0.626798 0.329992
O O1 0.420310 0.760496 0.194134
O O2 0.453752 0.849186 0.165819
O O3 0.342399 0.831512 0.263470
O O4 0.370305 0.811504 0.000000
O O5 0.382800 0.412399 0.183633
O O6 0.379965 0.325461 0.263945
O O7 0.272022 0.369688 0.205550
O O8 0.349026 0.350334 0.000000
O O9 0.000000 0.064168 0.250000
O O10 0.081328 0.000000 0.250000
O O11 0.052991 0.040952 0.000000
O O12 0.546794 0.918483 0.833846
O O13 0.665216 0.921906 0.783714
O O14 0.595338 0.000000 0.750000
O O15 0.619316 0.967122 0.000000
O O16 0.000000 0.806635 0.250000
O O17 0.058313 0.802013 0.000000
O O18 0.192502 0.628401 0.500000
#
# Coordination Sequence:
#
# PCOD9496455 Si02
#       7
#    16  16  16  16  16   8  16
#     4  10  21  37  58  84 112 146 191 237 280 333
#     4  10  22  40  59  82 114 151 190 232 281 339
#     4  10  20  35  57  83 111 142 182 228 278 336
#     4  10  21  35  55  82 112 148 190 237 285 338
#     4  11  23  38  59  88 117 147 187 235 287 339
#     4  10  19  36  58  80 114 152 191 232 286 340
#     4   9  21  40  58  78 110 153 193 230 281 343
#
# _framework density 18.267503999999999
#
# number of rings (size 3 to 8) (size 9 to 14) (size 15 to 20)
#    0.000    2.000    0.769    2.538    0.000    9.846 
#    0.000    3.077    0.000    0.000    0.000    0.000 
#    0.000    0.000    0.000    0.000    0.000    0.000 
#
# Total GULP energy -290154.409910 kJ/mol
# GULP energy per Si atom -5579.892498 kJ/mol
# Density = 1.822593 g / cm^3
# Si number density = 18.267504 Si / 1000 Ang^3
#
#
#
# Elastic Constant Matrix: (Units=GPa)
#
#
# Indices 1 2 3 4 5 6 
#
# 1 137.0451 67.2883 53.4013 0.0000 0.0000 0.0000
# 2 67.2883 92.8276 49.5608 0.0000 0.0000 0.0000
# 3 53.4013 49.5608 72.1632 0.0000 0.0000 0.0000
# 4 0.0000 0.0000 0.0000 17.1976 0.0000 0.0000
# 5 0.0000 0.0000 0.0000 0.0000 24.0824 0.0000
# 6 0.0000 0.0000 0.0000 0.0000 0.0000 15.1023
#
#
#
# Elastic Compliance Matrix: (Units=1/GPa)
#
#
# Indices 1 2 3 4 5 6 
#
# 1 0.012257 -0.006382 -0.004687 0.000000 0.000000 0.000000
# 2 -0.006382 0.020333 -0.009242 0.000000 0.000000 0.000000
# 3 -0.004687 -0.009242 0.023673 0.000000 0.000000 0.000000
# 4 0.000000 0.000000 0.000000 0.058148 0.000000 0.000000
# 5 0.000000 0.000000 0.000000 0.000000 0.041524 0.000000
# 6 0.000000 0.000000 0.000000 0.000000 0.000000 0.066215
#
#
# Mechanical properties :
#
#
# Convention : Reuss Voigt Hill
#
# Bulk Modulus (GPa) = 63.93353 71.39297 67.66325
# Shear Modulus (GPa) = 18.65778 20.06217 19.35997
#
# Velocity S-wave (km/s) = 3.19935 3.31757 3.25899
# Velocity P-wave (km/s) = 6.98013 7.33770 7.16115
#
# Compressibility (1/GPa) = 0.01564125
#
# Stress axis : x y z
#
# Youngs Moduli (GPa) = 81.58711 49.18080 42.24266
#
# Poissons Ratio (x) = 0.31389 0.19798
# Poissons Ratio (y) = 0.52072 0.39039
# Poissons Ratio (z) = 0.38238 0.45451
#
# Static dielectric constant tensor:
#      x y z
#    x 1.615360 0.000000 0.000000 
#    y 0.000000 1.615850 0.000000 
#    z 0.000000 0.000000 1.633340 
# 
# From -- ./inp_files/8319.got.cif
#   From: 2010.05.17/outbox.cif.g08.bks.cpg/sg66_5_cif.got.tgz:8319.got - 2010.06.03 17:51:23.
