data_PCOD9496881
_publ_section_title
;
Structure prediction by ZEFSAII (Michael W. Deem and Ramdas Pophale) SiO2 
 PCOD9496881
Probable space group: C C C M
;
_chemical_formula_sum "Si O2"
_cell_formula_units_Z 88
_cell_length_a 26.108268
_cell_length_b 9.418592
_cell_length_c 16.510310
_cell_angle_alpha 90.000000
_cell_angle_beta 90.000000
_cell_angle_gamma 90.000000
_cell_volume 4059.936809
_symmetry_space_group_name_H-M "C C C M"
_symmetry_group_IT_number 66
_symmetry_cell_setting 'orthorhombic'
loop_
_space_group_symop_operation_xyz
x,y,z
-x,-y,z
x,-y,1/2-z
-x,y,1/2-z
-x,-y,-z
x,y,-z
-x,y,1/2+z
x,-y,1/2+z
1/2+x,1/2+y,z
1/2-x,1/2-y,z
1/2+x,1/2-y,1/2-z
1/2-x,1/2+y,1/2-z
1/2-x,1/2-y,-z
1/2+x,1/2+y,-z
1/2-x,1/2+y,1/2+z
1/2+x,1/2-y,1/2+z
loop_
_atom_site_type_symbol
_atom_site_label
_atom_site_fract_x
_atom_site_fract_y
_atom_site_fract_z
Si Si1 0.484998 0.152099 0.593668
Si Si2 0.807256 0.741547 0.382236
Si Si3 0.330689 0.060141 0.162382
Si Si4 0.750000 0.750000 0.776344
Si Si5 0.905200 0.798681 0.906543
Si Si6 0.409791 0.389003 0.592227
O O1 0.467929 0.120999 0.500000
O O2 0.537994 0.236064 0.592102
O O3 0.442304 0.258474 0.629679
O O4 0.500000 0.000000 0.631515
O O5 0.750000 0.750000 0.415817
O O6 0.827494 0.580837 0.391253
O O7 0.796110 0.779662 0.286957
O O8 0.851053 0.842827 0.412289
O O9 0.272869 0.122071 0.172042
O O10 0.367305 0.185255 0.133627
O O11 0.346901 0.000000 0.250000
O O12 0.909923 0.955574 0.868861
O O13 0.887457 0.815393 0.000000
O O14 0.431036 0.405619 0.500000
#
# Coordination Sequence:
#
# PCOD9496881 Si02
#       6
#    16  16  16   8  16  16
#     4   9  17  32  56  83 114 151 187 228 282 344
#     4   9  20  34  54  80 104 149 191 239 284 341
#     4  10  20  37  59  83 110 148 200 237 293 356
#     4   8  20  36  58  74 102 146 198 244 284 346
#     4  10  21  35  57  87 118 151 192 244 295 350
#     4  10  20  34  54  85 122 154 190 237 291 346
#
# _framework density 21.675212999999999
#
# number of rings (size 3 to 8) (size 9 to 14) (size 15 to 20)
#    0.545    2.000    0.000    1.636    2.545    4.727 
#    0.000    0.455    0.000   12.545    0.000   15.273 
#    0.000    0.000    0.000    0.000    0.000    0.000 
#
# Total GULP energy -245044.533793 kJ/mol
# GULP energy per Si atom -5569.193950 kJ/mol
# Density = 2.162588 g / cm^3
# Si number density = 21.675213 Si / 1000 Ang^3
#
#
#
# Elastic Constant Matrix: (Units=GPa)
#
#
# Indices 1 2 3 4 5 6 
#
# 1 94.5280 65.8180 6.1698 0.0000 0.0000 0.0000
# 2 65.8180 170.7073 10.2972 0.0000 0.0000 0.0000
# 3 6.1698 10.2972 16.5455 0.0000 0.0000 0.0000
# 4 0.0000 0.0000 0.0000 9.8871 0.0000 0.0000
# 5 0.0000 0.0000 0.0000 0.0000 0.7670 0.0000
# 6 0.0000 0.0000 0.0000 0.0000 0.0000 53.3139
#
#
#
# Elastic Compliance Matrix: (Units=1/GPa)
#
#
# Indices 1 2 3 4 5 6 
#
# 1 0.014525 -0.005479 -0.002006 0.000000 0.000000 0.000000
# 2 -0.005479 0.008153 -0.003031 0.000000 0.000000 0.000000
# 3 -0.002006 -0.003031 0.063074 0.000000 0.000000 0.000000
# 4 0.000000 0.000000 0.000000 0.101142 0.000000 0.000000
# 5 0.000000 0.000000 0.000000 0.000000 1.303746 0.000000
# 6 0.000000 0.000000 0.000000 0.000000 0.000000 0.018757
#
#
# Mechanical properties :
#
#
# Convention : Reuss Voigt Hill
#
# Bulk Modulus (GPa) = 15.45143 49.59454 32.52299
# Shear Modulus (GPa) = 3.22164 26.09333 14.65749
#
# Velocity S-wave (km/s) = 1.22047 3.47339 2.60327
# Velocity P-wave (km/s) = 3.02162 6.24631 4.90645
#
# Compressibility (1/GPa) = 0.06471892
#
# Stress axis : x y z
#
# Youngs Moduli (GPa) = 68.84732 122.64853 15.85441
#
# Poissons Ratio (x) = 0.67202 0.03181
# Poissons Ratio (y) = 0.37723 0.04806
# Poissons Ratio (z) = 0.13813 0.37176
#
# Static dielectric constant tensor:
#      x y z
#    x 1.761930 0.000000 0.000000 
#    y 0.000000 1.845450 0.000000 
#    z 0.000000 0.000000 1.873530 
# 
# From -- ./inp_files/44678.got.cif
#   From: 2010.05.17/outbox.cif.g08.bks.cpg/sg66_23_cif.got.tgz:44678.got - 2010.06.03 17:51:23.
