data_PCOD9496505
_publ_section_title
;
Structure prediction by ZEFSAII (Michael W. Deem and Ramdas Pophale) SiO2 
 PCOD9496505
Probable space group: C C C M
;
_chemical_formula_sum "Si O2"
_cell_formula_units_Z 40
_cell_length_a 5.332605
_cell_length_b 13.878934
_cell_length_c 21.248641
_cell_angle_alpha 90.000000
_cell_angle_beta 90.000000
_cell_angle_gamma 90.000000
_cell_volume 1572.630467
_symmetry_space_group_name_H-M "C C C M"
_symmetry_group_IT_number 66
_symmetry_cell_setting 'orthorhombic'
loop_
_space_group_symop_operation_xyz
x,y,z
-x,-y,z
x,-y,1/2-z
-x,y,1/2-z
-x,-y,-z
x,y,-z
-x,y,1/2+z
x,-y,1/2+z
1/2+x,1/2+y,z
1/2-x,1/2-y,z
1/2+x,1/2-y,1/2-z
1/2-x,1/2+y,1/2-z
1/2-x,1/2-y,-z
1/2+x,1/2+y,-z
1/2-x,1/2+y,1/2+z
1/2+x,1/2-y,1/2+z
loop_
_atom_site_type_symbol
_atom_site_label
_atom_site_fract_x
_atom_site_fract_y
_atom_site_fract_z
Si Si1 0.308465 0.608768 0.378958
Si Si2 0.805977 0.391634 0.927522
Si Si3 0.000000 0.813363 0.750000
O O1 0.251338 0.499325 0.401019
O O2 0.527565 0.651124 0.422787
O O3 0.415469 0.622378 0.309325
O O4 0.030666 0.651892 0.386457
O O5 0.885662 0.394323 0.000000
O O6 0.750000 0.750000 0.736028
#
# Coordination Sequence:
#
# PCOD9496505 Si02
#       3
#    16  16   8
#     4  10  20  36  60  88 119 154 197 246 307 359
#     4  10  19  36  67  97 119 141 182 261 334 371
#     4  12  26  43  58  79 124 180 220 242 272 348
#
# _framework density 25.435089999999999
#
# number of rings (size 3 to 8) (size 9 to 14) (size 15 to 20)
#    0.000    1.600    0.000    8.400    0.000    3.200 
#    0.000    8.000    0.000   40.800    0.000    0.000 
#    0.000    0.000    0.000    0.000    0.000    0.000 
#
# Total GULP energy -111701.110072 kJ/mol
# GULP energy per Si atom -5585.055504 kJ/mol
# Density = 2.537720 g / cm^3
# Si number density = 25.435090 Si / 1000 Ang^3
#
#
#
# Elastic Constant Matrix: (Units=GPa)
#
#
# Indices 1 2 3 4 5 6 
#
# 1 265.5336 1.8076 55.6739 0.0000 0.0000 0.0000
# 2 1.8076 91.2006 11.3069 0.0000 0.0000 0.0000
# 3 55.6739 11.3069 199.5921 0.0000 0.0000 0.0000
# 4 0.0000 0.0000 0.0000 39.1759 0.0000 0.0000
# 5 0.0000 0.0000 0.0000 0.0000 54.8310 0.0000
# 6 0.0000 0.0000 0.0000 0.0000 0.0000 9.7081
#
#
#
# Elastic Compliance Matrix: (Units=1/GPa)
#
#
# Indices 1 2 3 4 5 6 
#
# 1 0.004000 0.000059 -0.001119 0.000000 0.000000 0.000000
# 2 0.000059 0.011043 -0.000642 0.000000 0.000000 0.000000
# 3 -0.001119 -0.000642 0.005359 0.000000 0.000000 0.000000
# 4 0.000000 0.000000 0.000000 0.025526 0.000000 0.000000
# 5 0.000000 0.000000 0.000000 0.000000 0.018238 0.000000
# 6 0.000000 0.000000 0.000000 0.000000 0.000000 0.103007
#
#
# Mechanical properties :
#
#
# Convention : Reuss Voigt Hill
#
# Bulk Modulus (GPa) = 58.82876 77.10036 67.96456
# Shear Modulus (GPa) = 28.36988 53.24552 40.80770
#
# Velocity S-wave (km/s) = 3.34336 4.58032 4.00982
# Velocity P-wave (km/s) = 6.17116 7.63877 6.94385
#
# Compressibility (1/GPa) = 0.01699849
#
# Stress axis : x y z
#
# Youngs Moduli (GPa) = 249.98400 90.55280 186.60951
#
# Poissons Ratio (x) = -0.00539 0.20885
# Poissons Ratio (y) = -0.01487 0.11984
# Poissons Ratio (z) = 0.27978 0.05815
#
# Static dielectric constant tensor:
#      x y z
#    x 2.502580 0.000000 0.000000 
#    y 0.000000 2.502260 0.000000 
#    z 0.000000 0.000000 1.933570 
# 
# From -- ./inp_files/34369.got.cif
#   From: 2010.05.17/outbox.cif.g08.bks.cpg/sg66_18_cif.got.tgz:34369.got - 2010.06.03 17:51:23.
