data_PCOD9496158
_publ_section_title
;
Structure prediction by ZEFSAII (Michael W. Deem and Ramdas Pophale) SiO2 
 PCOD9496158
Probable space group: C C C M
;
_chemical_formula_sum "Si O2"
_cell_formula_units_Z 96
_cell_length_a 19.947936
_cell_length_b 16.083280
_cell_length_c 13.807016
_cell_angle_alpha 90.000000
_cell_angle_beta 90.000000
_cell_angle_gamma 90.000000
_cell_volume 4429.680644
_symmetry_space_group_name_H-M "C C C M"
_symmetry_group_IT_number 66
_symmetry_cell_setting 'orthorhombic'
loop_
_space_group_symop_operation_xyz
x,y,z
-x,-y,z
x,-y,1/2-z
-x,y,1/2-z
-x,-y,-z
x,y,-z
-x,y,1/2+z
x,-y,1/2+z
1/2+x,1/2+y,z
1/2-x,1/2-y,z
1/2+x,1/2-y,1/2-z
1/2-x,1/2+y,1/2-z
1/2-x,1/2-y,-z
1/2+x,1/2+y,-z
1/2-x,1/2+y,1/2+z
1/2+x,1/2-y,1/2+z
loop_
_atom_site_type_symbol
_atom_site_label
_atom_site_fract_x
_atom_site_fract_y
_atom_site_fract_z
Si Si1 0.799921 0.814367 0.737504
Si Si2 0.922876 0.752430 0.617320
Si Si3 0.291042 0.939998 0.885707
Si Si4 0.554665 0.068279 0.882761
Si Si5 0.671723 0.554779 0.887460
Si Si6 0.946404 0.933565 0.383627
O O1 0.750000 0.750000 0.788677
O O2 0.850944 0.765063 0.668038
O O3 0.751684 0.873076 0.673547
O O4 0.839109 0.869002 0.816252
O O5 0.914644 0.751557 0.500000
O O6 0.956538 0.665045 0.645074
O O7 0.958333 0.838921 0.646140
O O8 0.368050 0.949673 0.854691
O O9 0.248355 0.024676 0.877076
O O10 0.290334 0.916802 0.000000
O O11 0.500000 0.000000 0.851827
O O12 0.553439 0.066150 0.000000
O O13 0.625422 0.475204 0.862037
O O14 0.658059 0.574880 0.000000
O O15 0.949870 0.930925 0.500000
O O16 0.000000 0.000000 0.350332
#
# Coordination Sequence:
#
# PCOD9496158 Si02
#       6
#    16  16  16  16  16  16
#     4  12  22  34  58  91 124 159 209 261 321 374
#     4  10  19  33  57  92 128 158 200 255 313 376
#     4  10  19  34  60  91 122 159 205 260 317 372
#     4   9  18  33  56  91 130 164 199 245 309 380
#     4  10  22  39  58  84 120 162 211 259 314 381
#     4   9  18  35  60  88 118 157 199 250 312 370
#
# _framework density 21.671993000000001
#
# number of rings (size 3 to 8) (size 9 to 14) (size 15 to 20)
#    0.000    2.000    3.333    1.000    0.000    1.000 
#    0.000    3.333    0.000    8.000    0.000    0.000 
#    0.000    0.667    0.000    0.000    0.000    0.000 
#
# Total GULP energy -267924.778728 kJ/mol
# GULP energy per Si atom -5581.766224 kJ/mol
# Density = 2.162267 g / cm^3
# Si number density = 21.671993 Si / 1000 Ang^3
#
#
#
# Elastic Constant Matrix: (Units=GPa)
#
#
# Indices 1 2 3 4 5 6 
#
# 1 109.8611 73.6701 16.0009 0.0000 0.0000 0.0000
# 2 73.6701 161.8327 47.0213 0.0000 0.0000 0.0000
# 3 16.0009 47.0213 88.9137 0.0000 0.0000 0.0000
# 4 0.0000 0.0000 0.0000 19.0129 0.0000 0.0000
# 5 0.0000 0.0000 0.0000 0.0000 -11.7602 0.0000
# 6 0.0000 0.0000 0.0000 0.0000 0.0000 44.3884
#
#
#
# Elastic Compliance Matrix: (Units=1/GPa)
#
#
# Indices 1 2 3 4 5 6 
#
# 1 0.013169 -0.006270 0.000946 0.000000 0.000000 0.000000
# 2 -0.006270 0.010286 -0.004311 0.000000 0.000000 0.000000
# 3 0.000946 -0.004311 0.013357 0.000000 0.000000 0.000000
# 4 0.000000 0.000000 0.000000 0.052596 0.000000 0.000000
# 5 0.000000 0.000000 0.000000 0.000000 -0.085032 0.000000
# 6 0.000000 0.000000 0.000000 0.000000 0.000000 0.022528
#
#
# Mechanical properties :
#
#
# Convention : Reuss Voigt Hill
#
# Bulk Modulus (GPa) = 57.00885 70.44356 63.72620
# Shear Modulus (GPa) = 96.11457 25.25588 60.68522
#
# Velocity S-wave (km/s) = 6.66678 3.41745 5.29740
# Velocity P-wave (km/s) = 9.25331 6.93880 8.17835
#
# Compressibility (1/GPa) = 0.01754114
#
# Stress axis : x y z
#
# Youngs Moduli (GPa) = 75.93652 97.21966 74.86879
#
# Poissons Ratio (x) = 0.60953 -0.07081
# Poissons Ratio (y) = 0.47609 0.32279
# Poissons Ratio (z) = -0.07182 0.41915
#
# Static dielectric constant tensor:
#      x y z
#    x 1.820980 0.000000 0.000000 
#    y 0.000000 1.864940 0.000000 
#    z 0.000000 0.000000 1.784800 
# 
# From -- ./inp_files/28374.got.cif
#   From: 2010.05.17/outbox.cif.g08.bks.cpg/sg66_15_cif.got.tgz:28374.got - 2010.06.03 17:51:23.
