data_PCOD9496380
_publ_section_title
;
Structure prediction by ZEFSAII (Michael W. Deem and Ramdas Pophale) SiO2 
 PCOD9496380
Probable space group: C C C M
;
_chemical_formula_sum "Si O2"
_cell_formula_units_Z 96
_cell_length_a 27.210753
_cell_length_b 9.006015
_cell_length_c 20.217423
_cell_angle_alpha 90.000000
_cell_angle_beta 90.000000
_cell_angle_gamma 90.000000
_cell_volume 4954.490772
_symmetry_space_group_name_H-M "C C C M"
_symmetry_group_IT_number 66
_symmetry_cell_setting 'orthorhombic'
loop_
_space_group_symop_operation_xyz
x,y,z
-x,-y,z
x,-y,1/2-z
-x,y,1/2-z
-x,-y,-z
x,y,-z
-x,y,1/2+z
x,-y,1/2+z
1/2+x,1/2+y,z
1/2-x,1/2-y,z
1/2+x,1/2-y,1/2-z
1/2-x,1/2+y,1/2-z
1/2-x,1/2-y,-z
1/2+x,1/2+y,-z
1/2-x,1/2+y,1/2+z
1/2+x,1/2-y,1/2+z
loop_
_atom_site_type_symbol
_atom_site_label
_atom_site_fract_x
_atom_site_fract_y
_atom_site_fract_z
Si Si1 0.915522 0.645767 0.837468
Si Si2 0.791373 0.853244 0.705432
Si Si3 0.753543 0.996792 0.074724
Si Si4 0.393440 0.184834 0.317310
Si Si5 0.332041 0.768915 0.426120
Si Si6 0.508471 0.666457 0.329937
O O1 0.908162 0.661073 0.759223
O O2 0.901654 0.474534 0.852087
O O3 0.874708 0.743972 0.873429
O O4 0.969439 0.709302 0.853968
O O5 0.750000 0.750000 0.740688
O O6 0.839900 0.759157 0.686836
O O7 0.801891 0.000000 0.750000
O O8 0.766514 0.903289 0.636762
O O9 0.701958 0.913026 0.085571
O O10 0.795150 0.869109 0.075099
O O11 0.753257 0.061430 0.000000
O O12 0.435642 0.291236 0.345002
O O13 0.353012 0.780823 0.500000
O O14 0.500000 0.500000 0.354757
O O15 0.500000 0.662704 0.250000
#
# Coordination Sequence:
#
# PCOD9496380 Si02
#       6
#    16  16  16  16  16  16
#     4  10  19  35  59  79 117 145 188 241 283 353
#     4  12  27  37  57  88 125 157 196 250 307 357
#     4   9  20  38  58  81 116 158 205 244 287 361
#     4  10  22  35  54  85 116 154 186 232 304 346
#     4   9  18  34  60  85 107 153 200 238 290 347
#     4   9  19  33  56  84 111 145 191 231 286 353
#
# _framework density 19.376359999999998
#
# number of rings (size 3 to 8) (size 9 to 14) (size 15 to 20)
#    0.000    2.167    0.000    3.500   14.000    2.333 
#    0.000    0.833    0.000    3.500    0.000    0.000 
#    0.000    0.000    0.000    0.000    0.000    0.000 
#
# Total GULP energy -267585.572158 kJ/mol
# GULP energy per Si atom -5574.699420 kJ/mol
# Density = 1.933226 g / cm^3
# Si number density = 19.376360 Si / 1000 Ang^3
#
#
#
# Elastic Constant Matrix: (Units=GPa)
#
#
# Indices 1 2 3 4 5 6 
#
# 1 109.8710 42.8106 3.6578 0.0000 0.0000 0.0000
# 2 42.8106 103.0927 11.4997 0.0000 0.0000 0.0000
# 3 3.6578 11.4997 29.6995 0.0000 0.0000 0.0000
# 4 0.0000 0.0000 0.0000 18.3845 0.0000 0.0000
# 5 0.0000 0.0000 0.0000 0.0000 -11.7176 0.0000
# 6 0.0000 0.0000 0.0000 0.0000 0.0000 24.9404
#
#
#
# Elastic Compliance Matrix: (Units=1/GPa)
#
#
# Indices 1 2 3 4 5 6 
#
# 1 0.010864 -0.004559 0.000427 0.000000 0.000000 0.000000
# 2 -0.004559 0.012051 -0.004105 0.000000 0.000000 0.000000
# 3 0.000427 -0.004105 0.035207 0.000000 0.000000 0.000000
# 4 0.000000 0.000000 0.000000 0.054394 0.000000 0.000000
# 5 0.000000 0.000000 0.000000 0.000000 -0.085342 0.000000
# 6 0.000000 0.000000 0.000000 0.000000 0.000000 0.040096
#
#
# Mechanical properties :
#
#
# Convention : Reuss Voigt Hill
#
# Bulk Modulus (GPa) = 24.00999 39.84436 31.92717
# Shear Modulus (GPa) = 51.21617 18.63446 34.92531
#
# Velocity S-wave (km/s) = 5.14681 3.10451 4.25016
# Velocity P-wave (km/s) = 6.90926 5.78435 6.37168
#
# Compressibility (1/GPa) = 0.04164933
#
# Stress axis : x y z
#
# Youngs Moduli (GPa) = 92.04935 82.98030 28.40314
#
# Poissons Ratio (x) = 0.37830 -0.01214
# Poissons Ratio (y) = 0.41965 0.11659
# Poissons Ratio (z) = -0.03933 0.34061
#
# Static dielectric constant tensor:
#      x y z
#    x 1.670490 0.000000 0.000000 
#    y 0.000000 1.739910 0.000000 
#    z 0.000000 0.000000 1.680050 
# 
# From -- ./inp_files/47333.got.cif
#   From: 2010.05.17/outbox.cif.g08.bks.cpg/sg66_24_cif.got.tgz:47333.got - 2010.06.03 17:51:23.
