data_PCOD9496094
_publ_section_title
;
Structure prediction by ZEFSAII (Michael W. Deem and Ramdas Pophale) SiO2 
 PCOD9496094
Probable space group: C C C M
;
_chemical_formula_sum "Si O2"
_cell_formula_units_Z 112
_cell_length_a 17.481152
_cell_length_b 20.918885
_cell_length_c 15.500253
_cell_angle_alpha 90.000000
_cell_angle_beta 90.000000
_cell_angle_gamma 90.000000
_cell_volume 5668.228748
_symmetry_space_group_name_H-M "C C C M"
_symmetry_group_IT_number 66
_symmetry_cell_setting 'orthorhombic'
loop_
_space_group_symop_operation_xyz
x,y,z
-x,-y,z
x,-y,1/2-z
-x,y,1/2-z
-x,-y,-z
x,y,-z
-x,y,1/2+z
x,-y,1/2+z
1/2+x,1/2+y,z
1/2-x,1/2-y,z
1/2+x,1/2-y,1/2-z
1/2-x,1/2+y,1/2-z
1/2-x,1/2-y,-z
1/2+x,1/2+y,-z
1/2-x,1/2+y,1/2+z
1/2+x,1/2-y,1/2+z
loop_
_atom_site_type_symbol
_atom_site_label
_atom_site_fract_x
_atom_site_fract_y
_atom_site_fract_z
Si Si1 0.832458 0.210528 0.278857
Si Si2 0.119300 0.245021 0.592488
Si Si3 0.719975 0.424070 0.261013
Si Si4 0.565527 0.038316 0.097067
Si Si5 0.036354 0.697826 0.344414
Si Si6 0.306073 0.122559 0.598750
Si Si7 0.349265 0.090695 0.095457
O O1 0.750000 0.250000 0.284846
O O2 0.862780 0.210220 0.180632
O O3 0.831290 0.134471 0.298789
O O4 0.894811 0.250897 0.332376
O O5 0.127104 0.211130 0.500000
O O6 0.180748 0.302503 0.594489
O O7 0.033671 0.274277 0.599894
O O8 0.699634 0.500000 0.250000
O O9 0.744438 0.401573 0.165417
O O10 0.792035 0.412972 0.324529
O O11 0.611875 0.096662 0.133922
O O12 0.500000 0.000000 0.145632
O O13 0.626914 0.982632 0.087432
O O14 0.537841 0.056768 0.000000
O O15 0.077806 0.635090 0.382067
O O16 0.000000 0.685620 0.250000
O O17 0.295978 0.100158 0.500000
O O18 0.319752 0.111250 0.000000
#
# Coordination Sequence:
#
# PCOD9496094 Si02
#       7
#    16  16  16  16  16  16  16
#     4  11  21  38  58  84 118 151 197 243 285 342
#     4  10  20  35  61  90 114 144 186 241 305 351
#     4  12  23  38  56  80 114 160 198 231 285 345
#     4   9  17  28  43  69 107 148 186 219 255 315
#     4  10  20  37  59  80 114 150 189 241 294 342
#     4  10  19  33  54  81 113 149 188 234 281 339
#     4  11  21  34  53  80 115 154 192 228 274 341
#
# _framework density 19.759257999999999
#
# number of rings (size 3 to 8) (size 9 to 14) (size 15 to 20)
#    0.000    1.571    4.286    2.143    0.000    3.143 
#    0.000    2.857    0.000    3.857    0.000    1.000 
#    0.000    0.000    0.000    0.000    0.000    0.000 
#
# Total GULP energy -311743.938540 kJ/mol
# GULP energy per Si atom -5566.856045 kJ/mol
# Density = 1.971429 g / cm^3
# Si number density = 19.759258 Si / 1000 Ang^3
#
#
#
# Elastic Constant Matrix: (Units=GPa)
#
#
# Indices 1 2 3 4 5 6 
#
# 1 43.5904 35.7944 7.3012 0.0000 0.0000 0.0000
# 2 35.7944 93.3629 6.2808 0.0000 0.0000 0.0000
# 3 7.3012 6.2808 69.2604 0.0000 0.0000 0.0000
# 4 0.0000 0.0000 0.0000 15.0326 0.0000 0.0000
# 5 0.0000 0.0000 0.0000 0.0000 11.3201 0.0000
# 6 0.0000 0.0000 0.0000 0.0000 0.0000 34.4434
#
#
#
# Elastic Compliance Matrix: (Units=1/GPa)
#
#
# Indices 1 2 3 4 5 6 
#
# 1 0.033876 -0.012826 -0.002408 0.000000 0.000000 0.000000
# 2 -0.012826 0.015633 -0.000066 0.000000 0.000000 0.000000
# 3 -0.002408 -0.000066 0.014698 0.000000 0.000000 0.000000
# 4 0.000000 0.000000 0.000000 0.066522 0.000000 0.000000
# 5 0.000000 0.000000 0.000000 0.000000 0.088338 0.000000
# 6 0.000000 0.000000 0.000000 0.000000 0.000000 0.029033
#
#
# Mechanical properties :
#
#
# Convention : Reuss Voigt Hill
#
# Bulk Modulus (GPa) = 29.75479 33.88516 31.81998
# Shear Modulus (GPa) = 17.24722 22.61503 19.93113
#
# Velocity S-wave (km/s) = 2.95764 3.38676 3.17945
# Velocity P-wave (km/s) = 5.17251 5.69910 5.44218
#
# Compressibility (1/GPa) = 0.03360803
#
# Stress axis : x y z
#
# Youngs Moduli (GPa) = 29.51937 63.96902 68.03623
#
# Poissons Ratio (x) = 0.82045 0.16383
# Poissons Ratio (y) = 0.37861 0.00446
# Poissons Ratio (z) = 0.07108 0.00420
#
# Static dielectric constant tensor:
#      x y z
#    x 1.773660 0.000000 0.000000 
#    y 0.000000 1.746550 0.000000 
#    z 0.000000 0.000000 1.762440 
# 
# From -- ./inp_files/42010.got.cif
#   From: 2010.05.17/outbox.cif.g08.bks.cpg/sg66_22_cif.got.tgz:42010.got - 2010.06.03 17:51:23.
