data_PCOD9496916
_publ_section_title
;
Structure prediction by ZEFSAII (Michael W. Deem and Ramdas Pophale) SiO2 
 PCOD9496916
Probable space group: C C C M
;
_chemical_formula_sum "Si O2"
_cell_formula_units_Z 112
_cell_length_a 33.264853
_cell_length_b 10.788619
_cell_length_c 14.985987
_cell_angle_alpha 90.000000
_cell_angle_beta 90.000000
_cell_angle_gamma 90.000000
_cell_volume 5378.198366
_symmetry_space_group_name_H-M "C C C M"
_symmetry_group_IT_number 66
_symmetry_cell_setting 'orthorhombic'
loop_
_space_group_symop_operation_xyz
x,y,z
-x,-y,z
x,-y,1/2-z
-x,y,1/2-z
-x,-y,-z
x,y,-z
-x,y,1/2+z
x,-y,1/2+z
1/2+x,1/2+y,z
1/2-x,1/2-y,z
1/2+x,1/2-y,1/2-z
1/2-x,1/2+y,1/2-z
1/2-x,1/2-y,-z
1/2+x,1/2+y,-z
1/2-x,1/2+y,1/2+z
1/2+x,1/2-y,1/2+z
loop_
_atom_site_type_symbol
_atom_site_label
_atom_site_fract_x
_atom_site_fract_y
_atom_site_fract_z
Si Si1 0.275258 0.989743 0.144880
Si Si2 0.629651 0.694177 0.770010
Si Si3 0.641990 0.091908 0.593872
Si Si4 0.181636 0.244504 0.400471
Si Si5 0.939533 0.514285 0.394851
Si Si6 0.044477 0.712038 0.741215
Si Si7 0.810492 0.952613 0.100980
O O1 0.283639 0.844157 0.122182
O O2 0.281048 0.000000 0.250000
O O3 0.312926 0.048594 0.095466
O O4 0.235871 0.073276 0.124830
O O5 0.636727 0.815920 0.826963
O O6 0.647944 0.730511 0.674942
O O7 0.581097 0.689174 0.764698
O O8 0.656639 0.593381 0.826097
O O9 0.631594 0.153903 0.500000
O O10 0.609024 0.986154 0.605328
O O11 0.166763 0.274881 0.500000
O O12 0.194841 0.101312 0.401826
O O13 0.952041 0.518449 0.500000
O O14 0.952344 0.386570 0.342634
O O15 0.951652 0.626042 0.329988
O O16 0.000000 0.767666 0.750000
O O17 0.820687 0.911264 0.000000
#
# Coordination Sequence:
#
# PCOD9496916 Si02
#       7
#    16  16  16  16  16  16  16
#     4  12  22  37  60  91 127 158 204 255 312 373
#     4  11  22  41  60  85 125 163 209 257 311 378
#     4  10  20  34  56  86 124 168 203 245 306 373
#     4  11  23  41  64  88 116 158 208 261 316 373
#     4   9  18  33  55  86 128 170 206 254 321 386
#     4  10  21  34  56  88 122 163 211 262 319 387
#     4  11  25  42  62  86 117 164 215 262 310 364
#
# _framework density 20.824816999999999
#
# number of rings (size 3 to 8) (size 9 to 14) (size 15 to 20)
#    0.000    1.429    1.429    5.143    2.000    5.143 
#    0.000    1.429    0.000    1.714    0.000    2.000 
#    0.000    0.000    0.000    0.000    0.000    0.000 
#
# Total GULP energy -311798.504536 kJ/mol
# GULP energy per Si atom -5567.830438 kJ/mol
# Density = 2.077742 g / cm^3
# Si number density = 20.824817 Si / 1000 Ang^3
#
#
#
# Elastic Constant Matrix: (Units=GPa)
#
#
# Indices 1 2 3 4 5 6 
#
# 1 166.8216 29.2242 39.1092 0.0000 0.0000 0.0000
# 2 29.2242 42.1150 19.8551 0.0000 0.0000 0.0000
# 3 39.1092 19.8551 169.6317 0.0000 0.0000 0.0000
# 4 0.0000 0.0000 0.0000 33.7112 0.0000 0.0000
# 5 0.0000 0.0000 0.0000 0.0000 10.3872 0.0000
# 6 0.0000 0.0000 0.0000 0.0000 0.0000 25.1238
#
#
#
# Elastic Compliance Matrix: (Units=1/GPa)
#
#
# Indices 1 2 3 4 5 6 
#
# 1 0.007016 -0.004345 -0.001109 0.000000 0.000000 0.000000
# 2 -0.004345 0.027823 -0.002255 0.000000 0.000000 0.000000
# 3 -0.001109 -0.002255 0.006415 0.000000 0.000000 0.000000
# 4 0.000000 0.000000 0.000000 0.029664 0.000000 0.000000
# 5 0.000000 0.000000 0.000000 0.000000 0.096272 0.000000
# 6 0.000000 0.000000 0.000000 0.000000 0.000000 0.039803
#
#
# Mechanical properties :
#
#
# Convention : Reuss Voigt Hill
#
# Bulk Modulus (GPa) = 38.70713 61.66060 50.18387
# Shear Modulus (GPa) = 21.64297 33.20310 27.42304
#
# Velocity S-wave (km/s) = 3.22730 3.99733 3.63277
# Velocity P-wave (km/s) = 5.70216 7.13991 6.46115
#
# Compressibility (1/GPa) = 0.02583503
#
# Stress axis : x y z
#
# Youngs Moduli (GPa) = 142.53887 35.94167 155.89217
#
# Poissons Ratio (x) = 0.15618 0.17286
# Poissons Ratio (y) = 0.61940 0.35150
# Poissons Ratio (z) = 0.15805 0.08104
#
# Static dielectric constant tensor:
#      x y z
#    x 1.891760 0.000000 0.000000 
#    y 0.000000 1.792190 0.000000 
#    z 0.000000 0.000000 1.766270 
# 
# From -- ./inp_files/33786.got.cif
#   From: 2010.05.17/outbox.cif.g08.bks.cpg/sg66_17_cif.got.tgz:33786.got - 2010.06.03 17:51:23.
