data_PCOD9496090
_publ_section_title
;
Structure prediction by ZEFSAII (Michael W. Deem and Ramdas Pophale) SiO2 
 PCOD9496090
Probable space group: C C C M
;
_chemical_formula_sum "Si O2"
_cell_formula_units_Z 80
_cell_length_a 27.180119
_cell_length_b 5.163442
_cell_length_c 25.956848
_cell_angle_alpha 90.000000
_cell_angle_beta 90.000000
_cell_angle_gamma 90.000000
_cell_volume 3642.861088
_symmetry_space_group_name_H-M "C C C M"
_symmetry_group_IT_number 66
_symmetry_cell_setting 'orthorhombic'
loop_
_space_group_symop_operation_xyz
x,y,z
-x,-y,z
x,-y,1/2-z
-x,y,1/2-z
-x,-y,-z
x,y,-z
-x,y,1/2+z
x,-y,1/2+z
1/2+x,1/2+y,z
1/2-x,1/2-y,z
1/2+x,1/2-y,1/2-z
1/2-x,1/2+y,1/2-z
1/2-x,1/2-y,-z
1/2+x,1/2+y,-z
1/2-x,1/2+y,1/2+z
1/2+x,1/2-y,1/2+z
loop_
_atom_site_type_symbol
_atom_site_label
_atom_site_fract_x
_atom_site_fract_y
_atom_site_fract_z
Si Si1 0.860916 0.696526 0.108554
Si Si2 0.573186 0.409532 0.000000
Si Si3 0.425219 0.292661 0.390130
Si Si4 0.860529 0.593598 0.000000
Si Si5 0.283990 0.002233 0.809777
Si Si6 0.445401 0.744504 0.773728
O O1 0.906839 0.501289 0.103955
O O2 0.829325 0.564637 0.153211
O O3 0.881592 0.988423 0.114793
O O4 0.833893 0.661080 0.053450
O O5 0.548853 0.358368 0.055519
O O6 0.594212 0.699921 0.000000
O O7 0.618893 0.200444 0.000000
O O8 0.450746 0.288435 0.334657
O O9 0.250000 0.750000 0.820644
O O10 0.299234 0.000000 0.750000
O O11 0.250000 0.250000 0.816726
O O12 0.417707 0.500000 0.750000
O O13 0.500000 0.746243 0.750000
O O14 0.421523 0.000000 0.750000
#
# Coordination Sequence:
#
# PCOD9496090 Si02
#       6
#    16   8  16   8  16  16
#     4  10  19  33  54  78 103 132 176 221 264 313
#     4   8  16  30  50  75 103 132 168 216 268 308
#     4  10  19  33  55  80 103 134 176 223 264 312
#     4   8  16  30  48  75 105 128 160 222 272 302
#     4  10  21  36  50  68 101 141 175 213 262 314
#     4  10  21  36  53  75 110 144 169 209 270 325
#
# _framework density 21.960761000000002
#
# number of rings (size 3 to 8) (size 9 to 14) (size 15 to 20)
#    0.000    2.400    0.000    2.400    0.000    2.400 
#    0.000    1.000    0.000    4.800    0.000    0.000 
#    0.000    0.000    0.000    0.000    0.000    0.000 
#
# Total GULP energy -222789.959116 kJ/mol
# GULP energy per Si atom -5569.748978 kJ/mol
# Density = 2.191078 g / cm^3
# Si number density = 21.960761 Si / 1000 Ang^3
#
#
#
# Elastic Constant Matrix: (Units=GPa)
#
#
# Indices 1 2 3 4 5 6 
#
# 1 24.8797 7.0037 25.6834 0.0000 0.0000 0.0000
# 2 7.0037 160.2190 23.5579 0.0000 0.0000 0.0000
# 3 25.6834 23.5579 202.0129 0.0000 0.0000 0.0000
# 4 0.0000 0.0000 0.0000 34.8031 0.0000 0.0000
# 5 0.0000 0.0000 0.0000 0.0000 209.6912 0.0000
# 6 0.0000 0.0000 0.0000 0.0000 0.0000 -15.1127
#
#
#
# Elastic Compliance Matrix: (Units=1/GPa)
#
#
# Indices 1 2 3 4 5 6 
#
# 1 0.046485 -0.001183 -0.005772 0.000000 0.000000 0.000000
# 2 -0.001183 0.006380 -0.000594 0.000000 0.000000 0.000000
# 3 -0.005772 -0.000594 0.005753 0.000000 0.000000 0.000000
# 4 0.000000 0.000000 0.000000 0.028733 0.000000 0.000000
# 5 0.000000 0.000000 0.000000 0.000000 0.004769 0.000000
# 6 0.000000 0.000000 0.000000 0.000000 0.000000 -0.066169
#
#
# Mechanical properties :
#
#
# Convention : Reuss Voigt Hill
#
# Bulk Modulus (GPa) = 22.97749 55.51128 39.24438
# Shear Modulus (GPa) = 89.99902 67.93408 78.96655
#
# Velocity S-wave (km/s) = 6.40864 5.56790 6.00301
# Velocity P-wave (km/s) = 8.07754 8.16503 8.12140
#
# Compressibility (1/GPa) = 0.04352086
#
# Stress axis : x y z
#
# Youngs Moduli (GPa) = 21.51231 156.72836 173.81509
#
# Poissons Ratio (x) = 0.18546 1.00326
# Poissons Ratio (y) = 0.02546 0.10318
# Poissons Ratio (z) = 0.12417 0.09304
#
# Static dielectric constant tensor:
#      x y z
#    x 1.562360 0.000000 0.000000 
#    y 0.000000 1.747890 0.000000 
#    z 0.000000 0.000000 2.211080 
# 
# From -- ./inp_files/60369.got.cif
#   From: 2010.05.17/outbox.cif.g08.bks.cpg/sg66_31_cif.got.tgz:60369.got - 2010.06.03 17:51:23.
