data_PCOD9496278
_publ_section_title
;
Structure prediction by ZEFSAII (Michael W. Deem and Ramdas Pophale) SiO2 
 PCOD9496278
Probable space group: C C C M
;
_chemical_formula_sum "Si O2"
_cell_formula_units_Z 64
_cell_length_a 16.955339
_cell_length_b 8.557578
_cell_length_c 24.330896
_cell_angle_alpha 90.000000
_cell_angle_beta 90.000000
_cell_angle_gamma 90.000000
_cell_volume 3530.331161
_symmetry_space_group_name_H-M "C C C M"
_symmetry_group_IT_number 66
_symmetry_cell_setting 'orthorhombic'
loop_
_space_group_symop_operation_xyz
x,y,z
-x,-y,z
x,-y,1/2-z
-x,y,1/2-z
-x,-y,-z
x,y,-z
-x,y,1/2+z
x,-y,1/2+z
1/2+x,1/2+y,z
1/2-x,1/2-y,z
1/2+x,1/2-y,1/2-z
1/2-x,1/2+y,1/2-z
1/2-x,1/2-y,-z
1/2+x,1/2+y,-z
1/2-x,1/2+y,1/2+z
1/2+x,1/2-y,1/2+z
loop_
_atom_site_type_symbol
_atom_site_label
_atom_site_fract_x
_atom_site_fract_y
_atom_site_fract_z
Si Si1 0.142944 0.912930 0.000000
Si Si2 0.733064 0.566721 0.688750
Si Si3 0.666602 0.946870 0.500000
Si Si4 0.172269 0.355322 0.893768
Si Si5 0.088685 0.954648 0.382990
O O1 0.237776 0.933030 0.000000
O O2 0.130389 0.726124 0.000000
O O3 0.108301 0.991078 0.054718
O O4 0.728927 0.500000 0.750000
O O5 0.750000 0.750000 0.689142
O O6 0.798557 0.469593 0.654464
O O7 0.651608 0.537242 0.656635
O O8 0.646456 0.043243 0.554345
O O9 0.250000 0.250000 0.908425
O O10 0.106457 0.229693 0.878034
O O11 0.000000 0.000000 0.369691
#
# Coordination Sequence:
#
# PCOD9496278 Si02
#       5
#     8  16   8  16  16
#     4  11  20  33  56  85 118 150 188 238 285 342
#     4  11  22  40  63  86 110 145 197 242 283 340
#     4  11  18  32  58  86 112 147 200 236 279 332
#     4  10  19  34  58  84 112 150 191 235 279 339
#     4  11  23  38  57  85 120 153 186 233 293 345
#
# _framework density 18.128610999999999
#
# number of rings (size 3 to 8) (size 9 to 14) (size 15 to 20)
#    0.000    1.250    5.000    5.250    0.000    0.500 
#    0.000    6.250    0.000    1.500    0.000    0.000 
#    0.000    0.000    0.000    0.000    0.000    0.000 
#
# Total GULP energy -178794.627901 kJ/mol
# GULP energy per Si atom -5587.332122 kJ/mol
# Density = 1.808735 g / cm^3
# Si number density = 18.128611 Si / 1000 Ang^3
#
#
#
# Elastic Constant Matrix: (Units=GPa)
#
#
# Indices 1 2 3 4 5 6 
#
# 1 94.9701 64.9961 50.2069 0.0000 0.0000 0.0000
# 2 64.9961 174.7526 78.6120 0.0000 0.0000 0.0000
# 3 50.2069 78.6120 163.0714 0.0000 0.0000 0.0000
# 4 0.0000 0.0000 0.0000 29.3776 0.0000 0.0000
# 5 0.0000 0.0000 0.0000 0.0000 0.9187 0.0000
# 6 0.0000 0.0000 0.0000 0.0000 0.0000 23.1712
#
#
#
# Elastic Compliance Matrix: (Units=1/GPa)
#
#
# Indices 1 2 3 4 5 6 
#
# 1 0.014847 -0.004426 -0.002438 0.000000 0.000000 0.000000
# 2 -0.004426 0.008626 -0.002796 0.000000 0.000000 0.000000
# 3 -0.002438 -0.002796 0.008231 0.000000 0.000000 0.000000
# 4 0.000000 0.000000 0.000000 0.034040 0.000000 0.000000
# 5 0.000000 0.000000 0.000000 0.000000 1.088462 0.000000
# 6 0.000000 0.000000 0.000000 0.000000 0.000000 0.043157
#
#
# Mechanical properties :
#
#
# Convention : Reuss Voigt Hill
#
# Bulk Modulus (GPa) = 80.73897 91.15823 85.94860
# Shear Modulus (GPa) = 4.09565 26.62546 15.36055
#
# Velocity S-wave (km/s) = 1.50470 3.83652 2.91402
# Velocity P-wave (km/s) = 6.90306 8.36771 7.67042
#
# Compressibility (1/GPa) = 0.01238559
#
# Stress axis : x y z
#
# Youngs Moduli (GPa) = 67.35311 115.92774 121.49753
#
# Poissons Ratio (x) = 0.51304 0.29618
# Poissons Ratio (y) = 0.29807 0.33969
# Poissons Ratio (z) = 0.16419 0.32412
#
# Static dielectric constant tensor:
#      x y z
#    x 1.607690 0.000000 0.000000 
#    y 0.000000 1.625210 0.000000 
#    z 0.000000 0.000000 1.601290 
# 
# From -- ./inp_files/46649.got.cif
#   From: 2010.05.17/outbox.cif.g08.bks.cpg/sg66_24_cif.got.tgz:46649.got - 2010.06.03 17:51:23.
