data_PCOD9496758
_publ_section_title
;
Structure prediction by ZEFSAII (Michael W. Deem and Ramdas Pophale) SiO2 
 PCOD9496758
Probable space group: C C C M
;
_chemical_formula_sum "Si O2"
_cell_formula_units_Z 64
_cell_length_a 23.672207
_cell_length_b 8.857351
_cell_length_c 16.786827
_cell_angle_alpha 90.000000
_cell_angle_beta 90.000000
_cell_angle_gamma 90.000000
_cell_volume 3519.745156
_symmetry_space_group_name_H-M "C C C M"
_symmetry_group_IT_number 66
_symmetry_cell_setting 'orthorhombic'
loop_
_space_group_symop_operation_xyz
x,y,z
-x,-y,z
x,-y,1/2-z
-x,y,1/2-z
-x,-y,-z
x,y,-z
-x,y,1/2+z
x,-y,1/2+z
1/2+x,1/2+y,z
1/2-x,1/2-y,z
1/2+x,1/2-y,1/2-z
1/2-x,1/2+y,1/2-z
1/2-x,1/2-y,-z
1/2+x,1/2+y,-z
1/2-x,1/2+y,1/2+z
1/2+x,1/2-y,1/2+z
loop_
_atom_site_type_symbol
_atom_site_label
_atom_site_fract_x
_atom_site_fract_y
_atom_site_fract_z
Si Si1 0.917913 0.391849 0.173892
Si Si2 0.992570 0.173354 0.405774
Si Si3 0.628208 0.179185 0.590198
Si Si4 0.691217 0.180335 0.253213
O O1 0.931716 0.500000 0.250000
O O2 0.894633 0.509723 0.108484
O O3 0.864800 0.289031 0.201085
O O4 0.968940 0.290584 0.143051
O O5 0.007728 0.185088 0.500000
O O6 0.927252 0.218616 0.398502
O O7 0.000000 0.000000 0.380514
O O8 0.648352 0.191531 0.500000
O O9 0.674380 0.219756 0.656300
O O10 0.750000 0.250000 0.227274
O O11 0.697385 0.000000 0.250000
#
# Coordination Sequence:
#
# PCOD9496758 Si02
#       4
#    16  16  16  16
#     4   9  19  34  52  74 103 137 176 208 250 312
#     4  10  20  33  52  81 111 135 165 212 264 307
#     4   9  18  33  53  75 100 135 173 206 249 309
#     4   9  20  35  51  71  97 130 171 214 255 301
#
# _framework density 18.183135
#
# number of rings (size 3 to 8) (size 9 to 14) (size 15 to 20)
#    0.000    3.250    0.000    1.500    0.000   12.500 
#    0.000    8.750    0.000   18.750    0.000    0.000 
#    0.000    0.000    0.000    0.000    0.000    0.000 
#
# Total GULP energy -178385.279659 kJ/mol
# GULP energy per Si atom -5574.539989 kJ/mol
# Density = 1.814175 g / cm^3
# Si number density = 18.183135 Si / 1000 Ang^3
#
#
#
# Elastic Constant Matrix: (Units=GPa)
#
#
# Indices 1 2 3 4 5 6 
#
# 1 62.8862 15.1520 23.6713 0.0000 0.0000 0.0000
# 2 15.1520 39.0650 14.8784 0.0000 0.0000 0.0000
# 3 23.6713 14.8784 51.1810 0.0000 0.0000 0.0000
# 4 0.0000 0.0000 0.0000 15.4834 0.0000 0.0000
# 5 0.0000 0.0000 0.0000 0.0000 16.1937 0.0000
# 6 0.0000 0.0000 0.0000 0.0000 0.0000 30.4917
#
#
#
# Elastic Compliance Matrix: (Units=1/GPa)
#
#
# Indices 1 2 3 4 5 6 
#
# 1 0.020012 -0.004764 -0.007871 0.000000 0.000000 0.000000
# 2 -0.004764 0.029920 -0.006494 0.000000 0.000000 0.000000
# 3 -0.007871 -0.006494 0.025067 0.000000 0.000000 0.000000
# 4 0.000000 0.000000 0.000000 0.064585 0.000000 0.000000
# 5 0.000000 0.000000 0.000000 0.000000 0.061752 0.000000
# 6 0.000000 0.000000 0.000000 0.000000 0.000000 0.032796
#
#
# Mechanical properties :
#
#
# Convention : Reuss Voigt Hill
#
# Bulk Modulus (GPa) = 27.21827 28.94840 28.08334
# Shear Modulus (GPa) = 17.56619 19.06244 18.31431
#
# Velocity S-wave (km/s) = 3.11154 3.24135 3.17711
# Velocity P-wave (km/s) = 5.28303 5.47389 5.37931
#
# Compressibility (1/GPa) = 0.03674002
#
# Stress axis : x y z
#
# Youngs Moduli (GPa) = 49.96909 33.42275 39.89378
#
# Poissons Ratio (x) = 0.15924 0.31399
# Poissons Ratio (y) = 0.23808 0.25908
# Poissons Ratio (z) = 0.39329 0.21705
#
# Static dielectric constant tensor:
#      x y z
#    x 1.626600 0.000000 0.000000 
#    y 0.000000 1.620460 0.000000 
#    z 0.000000 0.000000 1.659880 
# 
# From -- ./inp_files/31908.got.cif
#   From: 2010.05.17/outbox.cif.g08.bks.cpg/sg66_16_cif.got.tgz:31908.got - 2010.06.03 17:51:23.
