data_PCOD9496858
_publ_section_title
;
Structure prediction by ZEFSAII (Michael W. Deem and Ramdas Pophale) SiO2 
 PCOD9496858
Probable space group: C C C M
;
_chemical_formula_sum "Si O2"
_cell_formula_units_Z 88
_cell_length_a 5.164418
_cell_length_b 37.951556
_cell_length_c 25.539382
_cell_angle_alpha 90.000000
_cell_angle_beta 90.000000
_cell_angle_gamma 90.000000
_cell_volume 5005.660104
_symmetry_space_group_name_H-M "C C C M"
_symmetry_group_IT_number 66
_symmetry_cell_setting 'orthorhombic'
loop_
_space_group_symop_operation_xyz
x,y,z
-x,-y,z
x,-y,1/2-z
-x,y,1/2-z
-x,-y,-z
x,y,-z
-x,y,1/2+z
x,-y,1/2+z
1/2+x,1/2+y,z
1/2-x,1/2-y,z
1/2+x,1/2-y,1/2-z
1/2-x,1/2+y,1/2-z
1/2-x,1/2-y,-z
1/2+x,1/2+y,-z
1/2-x,1/2+y,1/2+z
1/2+x,1/2-y,1/2+z
loop_
_atom_site_type_symbol
_atom_site_label
_atom_site_fract_x
_atom_site_fract_y
_atom_site_fract_z
Si Si1 0.750000 0.750000 0.215599
Si Si2 0.934986 0.156291 0.871649
Si Si3 0.082853 0.674314 0.689813
Si Si4 0.993928 0.773351 0.437988
Si Si5 0.513076 0.585451 0.437724
Si Si6 0.528049 0.960405 0.062409
O O1 0.500000 0.738195 0.250000
O O2 0.853218 0.716095 0.185122
O O3 0.654106 0.162834 0.846642
O O4 0.001537 0.190225 0.907117
O O5 0.947814 0.121395 0.906469
O O6 0.155299 0.154910 0.827070
O O7 0.000000 0.669015 0.750000
O O8 0.961576 0.780776 0.500000
O O9 0.750000 0.750000 0.420321
O O10 0.250000 0.750000 0.431811
O O11 0.481397 0.593089 0.500000
O O12 0.265415 0.563313 0.418119
O O13 0.763320 0.560823 0.431577
O O14 0.500000 0.000000 0.083918
O O15 0.579445 0.964288 0.000000
#
# Coordination Sequence:
#
# PCOD9496858 Si02
#       6
#     8  16  16  16  16  16
#     4  10  20  38  56  74  95 128 173 234 298 332
#     4  12  23  36  57  78 107 143 180 222 276 329
#     4  11  24  39  55  77 104 134 179 237 285 337
#     4  10  22  38  53  73 102 139 184 223 255 305
#     4  10  20  34  53  82 116 147 180 214 257 318
#     4   9  17  31  53  80 114 150 177 208 255 313
#
# _framework density 17.580100999999999
#
# number of rings (size 3 to 8) (size 9 to 14) (size 15 to 20)
#    0.000    1.636    0.000    6.000    3.818    2.182 
#    0.000    7.273    0.000    0.000    0.000    0.000 
#    0.000   50.909    0.000    0.000    0.000    0.000 
#
# Total GULP energy -245787.899270 kJ/mol
# GULP energy per Si atom -5586.088620 kJ/mol
# Density = 1.754009 g / cm^3
# Si number density = 17.580101 Si / 1000 Ang^3
#
#
#
# Elastic Constant Matrix: (Units=GPa)
#
#
# Indices 1 2 3 4 5 6 
#
# 1 112.3565 50.9683 30.1553 0.0000 0.0000 0.0000
# 2 50.9683 154.0906 64.4606 0.0000 0.0000 0.0000
# 3 30.1553 64.4606 64.4040 0.0000 0.0000 0.0000
# 4 0.0000 0.0000 0.0000 7.8038 0.0000 0.0000
# 5 0.0000 0.0000 0.0000 0.0000 15.6194 0.0000
# 6 0.0000 0.0000 0.0000 0.0000 0.0000 24.4766
#
#
#
# Elastic Compliance Matrix: (Units=1/GPa)
#
#
# Indices 1 2 3 4 5 6 
#
# 1 0.010705 -0.002484 -0.002526 0.000000 0.000000 0.000000
# 2 -0.002484 0.011741 -0.010588 0.000000 0.000000 0.000000
# 3 -0.002526 -0.010588 0.027307 0.000000 0.000000 0.000000
# 4 0.000000 0.000000 0.000000 0.128143 0.000000 0.000000
# 5 0.000000 0.000000 0.000000 0.000000 0.064023 0.000000
# 6 0.000000 0.000000 0.000000 0.000000 0.000000 0.040855
#
#
# Mechanical properties :
#
#
# Convention : Reuss Voigt Hill
#
# Bulk Modulus (GPa) = 53.88914 69.11327 61.50120
# Shear Modulus (GPa) = 15.61744 21.93107 18.77426
#
# Velocity S-wave (km/s) = 2.98377 3.53582 3.27146
# Velocity P-wave (km/s) = 6.52614 7.48786 7.02348
#
# Compressibility (1/GPa) = 0.01855662
#
# Stress axis : x y z
#
# Youngs Moduli (GPa) = 93.41343 85.17494 36.62104
#
# Poissons Ratio (x) = 0.21159 0.09250
# Poissons Ratio (y) = 0.23206 0.38773
# Poissons Ratio (z) = 0.23596 0.90181
#
# Static dielectric constant tensor:
#      x y z
#    x 1.609320 0.000000 0.000000 
#    y 0.000000 1.576190 0.000000 
#    z 0.000000 0.000000 1.613500 
# 
# From -- ./inp_files/54443.got.cif
#   From: 2010.05.17/outbox.cif.g08.bks.cpg/sg66_28_cif.got.tgz:54443.got - 2010.06.03 17:51:23.
