data_PCOD9496075
_publ_section_title
;
Structure prediction by ZEFSAII (Michael W. Deem and Ramdas Pophale) SiO2 
 PCOD9496075
Probable space group: C C C M
;
_chemical_formula_sum "Si O2"
_cell_formula_units_Z 80
_cell_length_a 19.003083
_cell_length_b 27.289418
_cell_length_c 8.765736
_cell_angle_alpha 90.000000
_cell_angle_beta 90.000000
_cell_angle_gamma 90.000000
_cell_volume 4545.762332
_symmetry_space_group_name_H-M "C C C M"
_symmetry_group_IT_number 66
_symmetry_cell_setting 'orthorhombic'
loop_
_space_group_symop_operation_xyz
x,y,z
-x,-y,z
x,-y,1/2-z
-x,y,1/2-z
-x,-y,-z
x,y,-z
-x,y,1/2+z
x,-y,1/2+z
1/2+x,1/2+y,z
1/2-x,1/2-y,z
1/2+x,1/2-y,1/2-z
1/2-x,1/2+y,1/2-z
1/2-x,1/2-y,-z
1/2+x,1/2+y,-z
1/2-x,1/2+y,1/2+z
1/2+x,1/2-y,1/2+z
loop_
_atom_site_type_symbol
_atom_site_label
_atom_site_fract_x
_atom_site_fract_y
_atom_site_fract_z
Si Si1 0.788068 0.200474 0.182573
Si Si2 0.574061 0.945283 0.182553
Si Si3 0.924064 0.846499 0.181992
Si Si4 0.213677 0.597619 0.182077
Si Si5 0.352156 0.448606 0.817007
O O1 0.750000 0.250000 0.234671
O O2 0.862877 0.189213 0.258571
O O3 0.739389 0.153045 0.211831
O O4 0.798493 0.203639 0.000000
O O5 0.500000 0.926694 0.250000
O O6 0.640170 0.914119 0.238783
O O7 0.583436 0.000000 0.250000
O O8 0.570728 0.947590 0.000000
O O9 0.900080 0.901877 0.226168
O O10 0.000000 0.835362 0.250000
O O11 0.926757 0.844476 0.000000
O O12 0.275021 0.563052 0.249100
O O13 0.208418 0.590242 0.000000
O O14 0.377890 0.500000 0.750000
O O15 0.348136 0.451182 0.000000
#
# Coordination Sequence:
#
# PCOD9496075 Si02
#       5
#    16  16  16  16  16
#     4   9  19  37  60  82 104 133 171 215 262 310
#     4  11  21  34  51  73 103 137 174 212 256 307
#     4  10  21  36  55  79 108 140 174 213 257 306
#     4  10  19  33  53  76 103 134 170 213 259 307
#     4  10  20  33  50  75 105 139 177 213 252 300
#
# _framework density 17.598808999999999
#
# number of rings (size 3 to 8) (size 9 to 14) (size 15 to 20)
#    0.000    2.000    0.000    4.800    0.000    4.000 
#    0.000    3.000    0.000    0.000    0.000    0.000 
#    0.000    0.000    0.000    0.000    0.000    0.000 
#
# Total GULP energy -223383.285306 kJ/mol
# GULP energy per Si atom -5584.582133 kJ/mol
# Density = 1.755875 g / cm^3
# Si number density = 17.598809 Si / 1000 Ang^3
#
#
#
# Elastic Constant Matrix: (Units=GPa)
#
#
# Indices 1 2 3 4 5 6 
#
# 1 157.4759 54.9242 60.3956 0.0000 0.0000 0.0000
# 2 54.9242 91.3828 38.0683 0.0000 0.0000 0.0000
# 3 60.3956 38.0683 82.0047 0.0000 0.0000 0.0000
# 4 0.0000 0.0000 0.0000 15.5034 0.0000 0.0000
# 5 0.0000 0.0000 0.0000 0.0000 26.8345 0.0000
# 6 0.0000 0.0000 0.0000 0.0000 0.0000 10.0954
#
#
#
# Elastic Compliance Matrix: (Units=1/GPa)
#
#
# Indices 1 2 3 4 5 6 
#
# 1 0.009691 -0.003535 -0.005496 0.000000 0.000000 0.000000
# 2 -0.003535 0.014856 -0.004293 0.000000 0.000000 0.000000
# 3 -0.005496 -0.004293 0.018235 0.000000 0.000000 0.000000
# 4 0.000000 0.000000 0.000000 0.064502 0.000000 0.000000
# 5 0.000000 0.000000 0.000000 0.000000 0.037265 0.000000
# 6 0.000000 0.000000 0.000000 0.000000 0.000000 0.099055
#
#
# Mechanical properties :
#
#
# Convention : Reuss Voigt Hill
#
# Bulk Modulus (GPa) = 61.98189 70.84884 66.41537
# Shear Modulus (GPa) = 18.14017 22.31834 20.22926
#
# Velocity S-wave (km/s) = 3.21403 3.56501 3.39406
# Velocity P-wave (km/s) = 7.00494 7.56907 7.29246
#
# Compressibility (1/GPa) = 0.01613374
#
# Stress axis : x y z
#
# Youngs Moduli (GPa) = 103.18754 67.31280 54.83859
#
# Poissons Ratio (x) = 0.23795 0.30141
# Poissons Ratio (y) = 0.36477 0.23542
# Poissons Ratio (z) = 0.56716 0.28897
#
# Static dielectric constant tensor:
#      x y z
#    x 1.581140 0.000000 0.000000 
#    y 0.000000 1.596950 0.000000 
#    z 0.000000 0.000000 1.584240 
# 
# From -- ./inp_files/6675.got.cif
#   From: 2010.05.17/outbox.cif.g08.bks.cpg/sg66_4_cif.got.tgz:6675.got - 2010.06.03 17:51:23.
