data_PCOD9496819
_publ_section_title
;
Structure prediction by ZEFSAII (Michael W. Deem and Ramdas Pophale) SiO2 
 PCOD9496819
Probable space group: C C C M
;
_chemical_formula_sum "Si O2"
_cell_formula_units_Z 80
_cell_length_a 18.265364
_cell_length_b 28.067615
_cell_length_c 8.880901
_cell_angle_alpha 90.000000
_cell_angle_beta 90.000000
_cell_angle_gamma 90.000000
_cell_volume 4552.928928
_symmetry_space_group_name_H-M "C C C M"
_symmetry_group_IT_number 66
_symmetry_cell_setting 'orthorhombic'
loop_
_space_group_symop_operation_xyz
x,y,z
-x,-y,z
x,-y,1/2-z
-x,y,1/2-z
-x,-y,-z
x,y,-z
-x,y,1/2+z
x,-y,1/2+z
1/2+x,1/2+y,z
1/2-x,1/2-y,z
1/2+x,1/2-y,1/2-z
1/2-x,1/2+y,1/2-z
1/2-x,1/2-y,-z
1/2+x,1/2+y,-z
1/2-x,1/2+y,1/2+z
1/2+x,1/2-y,1/2+z
loop_
_atom_site_type_symbol
_atom_site_label
_atom_site_fract_x
_atom_site_fract_y
_atom_site_fract_z
Si Si1 0.736909 0.447346 0.320128
Si Si2 0.071898 0.053002 0.179277
Si Si3 0.301886 0.857927 0.177902
Si Si4 0.190192 0.207479 0.829896
Si Si5 0.080168 0.286435 0.181200
O O1 0.743901 0.500000 0.250000
O O2 0.745157 0.450105 0.500000
O O3 0.653660 0.428761 0.289242
O O4 0.792933 0.410053 0.248871
O O5 0.000000 0.077422 0.250000
O O6 0.073548 0.000000 0.250000
O O7 0.062530 0.050076 0.000000
O O8 0.226876 0.830030 0.219638
O O9 0.366906 0.827271 0.252564
O O10 0.311889 0.860081 0.000000
O O11 0.250000 0.250000 0.839762
O O12 0.116997 0.235028 0.782556
O O13 0.182285 0.187457 0.000000
O O14 0.000000 0.290233 0.250000
O O15 0.079359 0.290237 0.000000
#
# Coordination Sequence:
#
# PCOD9496819 Si02
#       5
#    16  16  16  16  16
#     4  10  20  34  51  73 102 138 181 226 269 312
#     4   9  16  26  43  64  88 119 156 201 250 298
#     4  11  21  33  53  79 106 139 178 217 260 312
#     4   8  16  32  52  74 102 134 165 204 255 306
#     4  10  20  35  56  81 109 139 172 213 262 315
#
# _framework density 17.571107000000001
#
# number of rings (size 3 to 8) (size 9 to 14) (size 15 to 20)
#    0.000    2.400    0.000    5.400    0.000    6.800 
#    0.000    1.000    0.000    0.600    0.000    4.200 
#    0.000    0.000    0.000    0.000    0.000    0.000 
#
# Total GULP energy -222937.192892 kJ/mol
# GULP energy per Si atom -5573.429822 kJ/mol
# Density = 1.753111 g / cm^3
# Si number density = 17.571107 Si / 1000 Ang^3
#
#
#
# Elastic Constant Matrix: (Units=GPa)
#
#
# Indices 1 2 3 4 5 6 
#
# 1 112.1796 45.3877 50.1780 0.0000 0.0000 0.0000
# 2 45.3877 65.0989 41.1112 0.0000 0.0000 0.0000
# 3 50.1780 41.1112 92.5586 0.0000 0.0000 0.0000
# 4 0.0000 0.0000 0.0000 20.9343 0.0000 0.0000
# 5 0.0000 0.0000 0.0000 0.0000 28.5965 0.0000
# 6 0.0000 0.0000 0.0000 0.0000 0.0000 19.7995
#
#
#
# Elastic Compliance Matrix: (Units=1/GPa)
#
#
# Indices 1 2 3 4 5 6 
#
# 1 0.013590 -0.006702 -0.004390 0.000000 0.000000 0.000000
# 2 -0.006702 0.024655 -0.007318 0.000000 0.000000 0.000000
# 3 -0.004390 -0.007318 0.016434 0.000000 0.000000 0.000000
# 4 0.000000 0.000000 0.000000 0.047768 0.000000 0.000000
# 5 0.000000 0.000000 0.000000 0.000000 0.034969 0.000000
# 6 0.000000 0.000000 0.000000 0.000000 0.000000 0.050506
#
#
# Mechanical properties :
#
#
# Convention : Reuss Voigt Hill
#
# Bulk Modulus (GPa) = 55.99450 60.35455 58.17452
# Shear Modulus (GPa) = 21.67342 22.74340 22.20841
#
# Velocity S-wave (km/s) = 3.51589 3.60163 3.55902
# Velocity P-wave (km/s) = 6.95834 7.19159 7.07593
#
# Compressibility (1/GPa) = 0.01785890
#
# Stress axis : x y z
#
# Youngs Moduli (GPa) = 73.58411 40.55909 60.84837
#
# Poissons Ratio (x) = 0.27184 0.26715
# Poissons Ratio (y) = 0.49319 0.44526
# Poissons Ratio (z) = 0.32306 0.29679
#
# Static dielectric constant tensor:
#      x y z
#    x 1.625810 0.000000 0.000000 
#    y 0.000000 1.600230 0.000000 
#    z 0.000000 0.000000 1.583900 
# 
# From -- ./inp_files/6661.got.cif
#   From: 2010.05.17/outbox.cif.g08.bks.cpg/sg66_4_cif.got.tgz:6661.got - 2010.06.03 17:51:23.
