data_PCOD9496194
_publ_section_title
;
Structure prediction by ZEFSAII (Michael W. Deem and Ramdas Pophale) SiO2 
 PCOD9496194
Probable space group: C C C M
;
_chemical_formula_sum "Si O2"
_cell_formula_units_Z 100
_cell_length_a 21.193346
_cell_length_b 31.574665
_cell_length_c 8.919634
_cell_angle_alpha 90.000000
_cell_angle_beta 90.000000
_cell_angle_gamma 90.000000
_cell_volume 5968.776460
_symmetry_space_group_name_H-M "C C C M"
_symmetry_group_IT_number 66
_symmetry_cell_setting 'orthorhombic'
loop_
_space_group_symop_operation_xyz
x,y,z
-x,-y,z
x,-y,1/2-z
-x,y,1/2-z
-x,-y,-z
x,y,-z
-x,y,1/2+z
x,-y,1/2+z
1/2+x,1/2+y,z
1/2-x,1/2-y,z
1/2+x,1/2-y,1/2-z
1/2-x,1/2+y,1/2-z
1/2-x,1/2-y,-z
1/2+x,1/2+y,-z
1/2-x,1/2+y,1/2+z
1/2+x,1/2-y,1/2+z
loop_
_atom_site_type_symbol
_atom_site_label
_atom_site_fract_x
_atom_site_fract_y
_atom_site_fract_z
Si Si1 0.253227 0.633931 0.318962
Si Si2 0.191686 0.217927 0.680502
Si Si3 0.903491 0.432181 0.834891
Si Si4 0.500000 0.000000 0.250000
Si Si5 0.106643 0.350498 0.177972
Si Si6 0.739361 0.955353 0.679923
Si Si7 0.066126 0.741704 0.318396
O O1 0.258435 0.633489 0.500000
O O2 0.292971 0.671702 0.246559
O O3 0.180306 0.645121 0.278182
O O4 0.267771 0.587378 0.252521
O O5 0.186158 0.216661 0.500000
O O6 0.250000 0.250000 0.717360
O O7 0.127338 0.234420 0.755110
O O8 0.953794 0.469220 0.838350
O O9 0.924225 0.393981 0.730074
O O10 0.835780 0.450619 0.786310
O O11 0.894280 0.413679 0.000000
O O12 0.076155 0.307207 0.233098
O O13 0.104901 0.348647 0.000000
O O14 0.747385 0.955667 0.500000
O O15 0.760953 0.000000 0.750000
O O16 0.064956 0.743766 0.500000
O O17 0.000000 0.757088 0.250000
#
# Coordination Sequence:
#
# PCOD9496194 Si02
#       7
#    16  16  16   4  16  16  16
#     4  10  19  34  56  80 104 137 178 225 276 329
#     4  11  22  36  57  84 111 143 184 231 276 333
#     4  10  22  34  47  63  87 123 169 220 269 319
#     4  12  22  36  44  66  86 128 176 230 276 324
#     4   9  20  36  53  72  98 131 173 222 274 324
#     4  10  19  34  51  72  99 131 168 216 273 326
#     4  11  23  39  56  79 110 146 182 225 276 330
#
# _framework density 16.753852999999999
#
# number of rings (size 3 to 8) (size 9 to 14) (size 15 to 20)
#    0.000    1.760    2.400    2.160    1.120    4.480 
#    0.000    0.000    0.000    0.000    0.000    0.000 
#    0.000    0.640    0.000    6.400    0.000    3.840 
#
# Total GULP energy -278935.064147 kJ/mol
# GULP energy per Si atom -5578.701283 kJ/mol
# Density = 1.671572 g / cm^3
# Si number density = 16.753853 Si / 1000 Ang^3
#
#
#
# Elastic Constant Matrix: (Units=GPa)
#
#
# Indices 1 2 3 4 5 6 
#
# 1 83.7823 54.4835 38.8644 0.0000 0.0000 0.0000
# 2 54.4835 135.3960 51.3132 0.0000 0.0000 0.0000
# 3 38.8644 51.3132 62.9270 0.0000 0.0000 0.0000
# 4 0.0000 0.0000 0.0000 20.2588 0.0000 0.0000
# 5 0.0000 0.0000 0.0000 0.0000 31.3384 0.0000
# 6 0.0000 0.0000 0.0000 0.0000 0.0000 23.0289
#
#
#
# Elastic Compliance Matrix: (Units=1/GPa)
#
#
# Indices 1 2 3 4 5 6 
#
# 1 0.018441 -0.004493 -0.007726 0.000000 0.000000 0.000000
# 2 -0.004493 0.011784 -0.006834 0.000000 0.000000 0.000000
# 3 -0.007726 -0.006834 0.026236 0.000000 0.000000 0.000000
# 4 0.000000 0.000000 0.000000 0.049361 0.000000 0.000000
# 5 0.000000 0.000000 0.000000 0.000000 0.031910 0.000000
# 6 0.000000 0.000000 0.000000 0.000000 0.000000 0.043424
#
#
# Mechanical properties :
#
#
# Convention : Reuss Voigt Hill
#
# Bulk Modulus (GPa) = 54.48059 63.49192 58.98625
# Shear Modulus (GPa) = 22.18484 24.08816 23.13650
#
# Velocity S-wave (km/s) = 3.64285 3.79591 3.72017
# Velocity P-wave (km/s) = 7.09103 7.56248 7.33054
#
# Compressibility (1/GPa) = 0.01835516
#
# Stress axis : x y z
#
# Youngs Moduli (GPa) = 54.22658 84.86335 38.11588
#
# Poissons Ratio (x) = 0.38127 0.29448
# Poissons Ratio (y) = 0.24363 0.26049
# Poissons Ratio (z) = 0.41895 0.57996
#
# Static dielectric constant tensor:
#      x y z
#    x 1.560630 0.000000 0.000000 
#    y 0.000000 1.573500 0.000000 
#    z 0.000000 0.000000 1.584040 
# 
# From -- ./inp_files/8137.got.cif
#   From: 2010.05.17/outbox.cif.g08.bks.cpg/sg66_5_cif.got.tgz:8137.got - 2010.06.03 17:51:23.
