data_PCOD9496973
_publ_section_title
;
Structure prediction by ZEFSAII (Michael W. Deem and Ramdas Pophale) SiO2 
 PCOD9496973
Probable space group: C C C M
;
_chemical_formula_sum "Si O2"
_cell_formula_units_Z 112
_cell_length_a 12.025235
_cell_length_b 28.971622
_cell_length_c 14.008467
_cell_angle_alpha 90.000000
_cell_angle_beta 90.000000
_cell_angle_gamma 90.000000
_cell_volume 4880.417703
_symmetry_space_group_name_H-M "C C C M"
_symmetry_group_IT_number 66
_symmetry_cell_setting 'orthorhombic'
loop_
_space_group_symop_operation_xyz
x,y,z
-x,-y,z
x,-y,1/2-z
-x,y,1/2-z
-x,-y,-z
x,y,-z
-x,y,1/2+z
x,-y,1/2+z
1/2+x,1/2+y,z
1/2-x,1/2-y,z
1/2+x,1/2-y,1/2-z
1/2-x,1/2+y,1/2-z
1/2-x,1/2-y,-z
1/2+x,1/2+y,-z
1/2-x,1/2+y,1/2+z
1/2+x,1/2-y,1/2+z
loop_
_atom_site_type_symbol
_atom_site_label
_atom_site_fract_x
_atom_site_fract_y
_atom_site_fract_z
Si Si1 0.973089 0.721152 0.389205
Si Si2 0.718413 0.804452 0.894389
Si Si3 0.474764 0.678299 0.888354
Si Si4 0.503058 0.575993 0.388019
Si Si5 0.761861 0.966163 0.106505
Si Si6 0.232163 0.665857 0.188015
Si Si7 0.245221 0.063654 0.314387
O O1 0.937447 0.725484 0.500000
O O2 0.011154 0.771645 0.352948
O O3 0.870947 0.699152 0.333285
O O4 0.084922 0.691486 0.388742
O O5 0.750000 0.750000 0.890855
O O6 0.760464 0.829651 0.800216
O O7 0.754079 0.821263 0.000000
O O8 0.523413 0.628914 0.858407
O O9 0.343361 0.678610 0.868179
O O10 0.496094 0.679423 0.000000
O O11 0.540438 0.576780 0.500000
O O12 0.395758 0.543113 0.386911
O O13 0.610230 0.564066 0.324865
O O14 0.720458 0.942930 0.204040
O O15 0.727212 0.019405 0.121611
O O16 0.729269 0.950215 0.000000
O O17 0.208689 0.613330 0.157169
#
# Coordination Sequence:
#
# PCOD9496973 Si02
#       7
#    16  16  16  16  16  16  16
#     4  10  20  35  56  81 112 150 190 235 283 332
#     4  10  22  38  55  78 110 149 192 235 280 336
#     4   9  18  32  52  82 115 148 190 233 276 332
#     4   9  17  30  50  75 107 149 191 234 284 338
#     4  10  20  35  53  73 104 146 188 236 295 347
#     4  11  21  34  54  80 113 151 190 232 279 334
#     4  10  21  33  49  77 107 140 188 239 284 342
#
# _framework density 22.948854999999998
#
# number of rings (size 3 to 8) (size 9 to 14) (size 15 to 20)
#    0.000    2.143    0.000    3.429    0.000    6.857 
#    0.000    5.714    0.000    0.000    0.000    8.000 
#    0.000   13.714    0.000    0.000    0.000    0.000 
#
# Total GULP energy -312633.507423 kJ/mol
# GULP energy per Si atom -5582.741204 kJ/mol
# Density = 2.289662 g / cm^3
# Si number density = 22.948855 Si / 1000 Ang^3
#
#
#
# Elastic Constant Matrix: (Units=GPa)
#
#
# Indices 1 2 3 4 5 6 
#
# 1 54.9877 15.7384 15.4038 0.0000 0.0000 0.0000
# 2 15.7384 88.6703 9.5969 0.0000 0.0000 0.0000
# 3 15.4038 9.5969 125.2344 0.0000 0.0000 0.0000
# 4 0.0000 0.0000 0.0000 1.8146 0.0000 0.0000
# 5 0.0000 0.0000 0.0000 0.0000 8.5798 0.0000
# 6 0.0000 0.0000 0.0000 0.0000 0.0000 -12.1259
#
#
#
# Elastic Compliance Matrix: (Units=1/GPa)
#
#
# Indices 1 2 3 4 5 6 
#
# 1 0.019731 -0.003266 -0.002177 0.000000 0.000000 0.000000
# 2 -0.003266 0.011913 -0.000511 0.000000 0.000000 0.000000
# 3 -0.002177 -0.000511 0.008292 0.000000 0.000000 0.000000
# 4 0.000000 0.000000 0.000000 0.551085 0.000000 0.000000
# 5 0.000000 0.000000 0.000000 0.000000 0.116552 0.000000
# 6 0.000000 0.000000 0.000000 0.000000 0.000000 -0.082468
#
#
# Mechanical properties :
#
#
# Convention : Reuss Voigt Hill
#
# Bulk Modulus (GPa) = 35.67987 38.93007 37.30497
# Shear Modulus (GPa) = 7.73569 14.86393 11.29981
#
# Velocity S-wave (km/s) = 1.83798 2.54775 2.22140
# Velocity P-wave (km/s) = 4.48169 5.06511 4.78231
#
# Compressibility (1/GPa) = 0.02802701
#
# Stress axis : x y z
#
# Youngs Moduli (GPa) = 50.68288 83.94307 120.59953
#
# Poissons Ratio (x) = 0.27420 0.26249
# Poissons Ratio (y) = 0.16555 0.06164
# Poissons Ratio (z) = 0.11031 0.04291
#
# Static dielectric constant tensor:
#      x y z
#    x 1.802330 0.000000 0.000000 
#    y 0.000000 1.880620 0.000000 
#    z 0.000000 0.000000 1.904580 
# 
# From -- ./inp_files/27041.got.cif
#   From: 2010.05.17/outbox.cif.g08.bks.cpg/sg66_14_cif.got.tgz:27041.got - 2010.06.03 17:51:23.
