data_PCOD9496680
_publ_section_title
;
Structure prediction by ZEFSAII (Michael W. Deem and Ramdas Pophale) SiO2 
 PCOD9496680
Probable space group: C C C M
;
_chemical_formula_sum "Si O2"
_cell_formula_units_Z 56
_cell_length_a 23.253085
_cell_length_b 5.041702
_cell_length_c 26.281547
_cell_angle_alpha 90.000000
_cell_angle_beta 90.000000
_cell_angle_gamma 90.000000
_cell_volume 3081.120452
_symmetry_space_group_name_H-M "C C C M"
_symmetry_group_IT_number 66
_symmetry_cell_setting 'orthorhombic'
loop_
_space_group_symop_operation_xyz
x,y,z
-x,-y,z
x,-y,1/2-z
-x,y,1/2-z
-x,-y,-z
x,y,-z
-x,y,1/2+z
x,-y,1/2+z
1/2+x,1/2+y,z
1/2-x,1/2-y,z
1/2+x,1/2-y,1/2-z
1/2-x,1/2+y,1/2-z
1/2-x,1/2-y,-z
1/2+x,1/2+y,-z
1/2-x,1/2+y,1/2+z
1/2+x,1/2-y,1/2+z
loop_
_atom_site_type_symbol
_atom_site_label
_atom_site_fract_x
_atom_site_fract_y
_atom_site_fract_z
Si Si1 0.366352 0.175777 0.089008
Si Si2 0.041396 0.250604 0.000000
Si Si3 0.180484 0.800786 0.857192
Si Si4 0.210234 0.000000 0.750000
Si Si5 0.710774 0.998084 0.500000
O O1 0.420748 0.239137 0.052270
O O2 0.339821 0.453767 0.107602
O O3 0.360145 0.958334 0.134248
O O4 0.327016 0.016261 0.049444
O O5 0.000000 0.500000 0.000000
O O6 0.000000 0.000000 0.000000
O O7 0.250000 0.750000 0.864513
O O8 0.176002 0.900073 0.798981
O O9 0.250000 0.750000 0.733741
O O10 0.750000 0.250000 0.500000
O O11 0.750000 0.750000 0.500000
#
# Coordination Sequence:
#
# PCOD9496680 Si02
#       5
#    16   8  16   8   8
#     4  11  22  34  54  79 104 146 187 218 273 328
#     4  11  24  43  59  78 107 140 190 248 288 334
#     4  11  20  34  53  82 119 149 179 215 256 325
#     4  10  20  32  50  78 117 160 185 208 254 314
#     4  11  20  29  44  72 108 138 166 206 255 318
#
# _framework density 18.175205999999999
#
# number of rings (size 3 to 8) (size 9 to 14) (size 15 to 20)
#    0.000    1.143    0.000   10.286    0.000    4.571 
#    0.000    2.143    0.000    0.000    0.000   15.000 
#    0.000    0.000    0.000    0.000    0.000    0.000 
#
# Total GULP energy -156030.427418 kJ/mol
# GULP energy per Si atom -5572.515265 kJ/mol
# Density = 1.813384 g / cm^3
# Si number density = 18.175206 Si / 1000 Ang^3
#
#
#
# Elastic Constant Matrix: (Units=GPa)
#
#
# Indices 1 2 3 4 5 6 
#
# 1 93.7020 62.8111 54.3116 0.0000 0.0000 0.0000
# 2 62.8111 172.3719 45.4613 0.0000 0.0000 0.0000
# 3 54.3116 45.4613 109.4301 0.0000 0.0000 0.0000
# 4 0.0000 0.0000 0.0000 -3.3087 0.0000 0.0000
# 5 0.0000 0.0000 0.0000 0.0000 21.2762 0.0000
# 6 0.0000 0.0000 0.0000 0.0000 0.0000 38.0084
#
#
#
# Elastic Compliance Matrix: (Units=1/GPa)
#
#
# Indices 1 2 3 4 5 6 
#
# 1 0.017796 -0.004667 -0.006894 0.000000 0.000000 0.000000
# 2 -0.004667 0.007739 -0.000899 0.000000 0.000000 0.000000
# 3 -0.006894 -0.000899 0.012933 0.000000 0.000000 0.000000
# 4 0.000000 0.000000 0.000000 -0.302231 0.000000 0.000000
# 5 0.000000 0.000000 0.000000 0.000000 0.047001 0.000000
# 6 0.000000 0.000000 0.000000 0.000000 0.000000 0.026310
#
#
# Mechanical properties :
#
#
# Convention : Reuss Voigt Hill
#
# Bulk Modulus (GPa) = 73.80293 77.85244 75.82769
# Shear Modulus (GPa) = -31.05267 25.38982 -2.83142
#
# Velocity S-wave (km/s) = -4.13791 3.74163 -1.24949
# Velocity P-wave (km/s) = 4.22668 7.84817 6.30312
#
# Compressibility (1/GPa) = 0.01354960
#
# Stress axis : x y z
#
# Youngs Moduli (GPa) = 56.19235 129.21611 77.32056
#
# Poissons Ratio (x) = 0.60300 0.53303
# Poissons Ratio (y) = 0.26223 0.06951
# Poissons Ratio (z) = 0.38737 0.11616
#
# Static dielectric constant tensor:
#      x y z
#    x 1.622590 0.000000 0.000000 
#    y 0.000000 1.646220 0.000000 
#    z 0.000000 0.000000 1.458150 
# 
# From -- ./inp_files/59142.got.cif
#   From: 2010.05.17/outbox.cif.g08.bks.cpg/sg66_30_cif.got.tgz:59142.got - 2010.06.03 17:51:23.
