data_PCOD9496480
_publ_section_title
;
Structure prediction by ZEFSAII (Michael W. Deem and Ramdas Pophale) SiO2 
 PCOD9496480
Probable space group: C C C M
;
_chemical_formula_sum "Si O2"
_cell_formula_units_Z 64
_cell_length_a 14.400674
_cell_length_b 33.328645
_cell_length_c 5.536810
_cell_angle_alpha 90.000000
_cell_angle_beta 90.000000
_cell_angle_gamma 90.000000
_cell_volume 2657.419375
_symmetry_space_group_name_H-M "C C C M"
_symmetry_group_IT_number 66
_symmetry_cell_setting 'orthorhombic'
loop_
_space_group_symop_operation_xyz
x,y,z
-x,-y,z
x,-y,1/2-z
-x,y,1/2-z
-x,-y,-z
x,y,-z
-x,y,1/2+z
x,-y,1/2+z
1/2+x,1/2+y,z
1/2-x,1/2-y,z
1/2+x,1/2-y,1/2-z
1/2-x,1/2+y,1/2-z
1/2-x,1/2-y,-z
1/2+x,1/2+y,-z
1/2-x,1/2+y,1/2+z
1/2+x,1/2-y,1/2+z
loop_
_atom_site_type_symbol
_atom_site_label
_atom_site_fract_x
_atom_site_fract_y
_atom_site_fract_z
Si Si1 0.556834 0.555676 0.500000
Si Si2 0.941180 0.148940 0.000000
Si Si3 0.856686 0.266106 0.500000
Si Si4 0.002874 0.416110 0.000000
Si Si5 0.180217 0.640999 0.500000
Si Si6 0.755989 0.478823 0.000000
Si Si7 0.143868 0.233492 0.500000
Si Si8 0.304517 0.886174 0.000000
O O1 0.500000 0.550373 0.750000
O O2 0.590681 0.602311 0.500000
O O3 0.644428 0.526383 0.500000
O O4 0.869862 0.185917 0.000000
O O5 0.000000 0.153116 0.750000
O O6 0.750000 0.250000 0.500000
O O7 0.855088 0.313922 0.500000
O O8 0.897113 0.250137 0.750368
O O9 0.918248 0.383586 0.000000
O O10 0.000000 0.439555 0.750000
O O11 0.097978 0.391456 0.000000
O O12 0.231661 0.632608 0.751255
O O13 0.783739 0.500000 0.750000
O O14 0.792193 0.433642 0.000000
O O15 0.250000 0.250000 0.500000
#
# Coordination Sequence:
#
# PCOD9496480 Si02
#       8
#     8   8   8   8   8   8   8   8
#     4  10  23  43  68  93 117 157 206 245 297 376
#     4  10  21  40  62  86 118 161 210 255 296 349
#     4  10  21  34  53  85 120 154 201 256 309 349
#     4   8  16  32  56  80 108 148 197 244 280 321
#     4  10  19  36  60  85 116 163 214 255 289 348
#     4  12  26  42  64  97 130 156 185 242 318 381
#     4  10  21  38  57  83 121 160 199 244 302 356
#     4  10  21  39  62  87 119 156 200 249 296 356
#
# _framework density 24.083514999999998
#
# number of rings (size 3 to 8) (size 9 to 14) (size 15 to 20)
#    0.000    2.000    0.000    3.000    0.000    5.500 
#    0.000   13.750    0.000   20.250    0.000    0.000 
#    0.000    0.000    0.000    0.000    0.000    0.000 
#
# Total GULP energy -178815.288342 kJ/mol
# GULP energy per Si atom -5587.977761 kJ/mol
# Density = 2.402870 g / cm^3
# Si number density = 24.083515 Si / 1000 Ang^3
#
#
#
# Elastic Constant Matrix: (Units=GPa)
#
#
# Indices 1 2 3 4 5 6 
#
# 1 63.2426 5.0366 17.8157 0.0000 0.0000 0.0000
# 2 5.0366 120.5030 66.1627 0.0000 0.0000 0.0000
# 3 17.8157 66.1627 313.3350 0.0000 0.0000 0.0000
# 4 0.0000 0.0000 0.0000 31.7159 0.0000 0.0000
# 5 0.0000 0.0000 0.0000 0.0000 -2.7062 0.0000
# 6 0.0000 0.0000 0.0000 0.0000 0.0000 29.3053
#
#
#
# Elastic Compliance Matrix: (Units=1/GPa)
#
#
# Indices 1 2 3 4 5 6 
#
# 1 0.016073 -0.000192 -0.000873 0.000000 0.000000 0.000000
# 2 -0.000192 0.009389 -0.001972 0.000000 0.000000 0.000000
# 3 -0.000873 -0.001972 0.003657 0.000000 0.000000 0.000000
# 4 0.000000 0.000000 0.000000 0.031530 0.000000 0.000000
# 5 0.000000 0.000000 0.000000 0.000000 -0.369524 0.000000
# 6 0.000000 0.000000 0.000000 0.000000 0.000000 0.034123
#
#
# Mechanical properties :
#
#
# Convention : Reuss Voigt Hill
#
# Bulk Modulus (GPa) = 43.39240 75.01229 59.20234
# Shear Modulus (GPa) = -19.15751 38.86738 9.85494
#
# Velocity S-wave (km/s) = -2.82345 4.02164 2.02506
# Velocity P-wave (km/s) = 2.72533 7.26493 5.48665
#
# Compressibility (1/GPa) = 0.02304551
#
# Stress axis : x y z
#
# Youngs Moduli (GPa) = 62.21434 106.50624 273.41444
#
# Poissons Ratio (x) = 0.02048 0.23877
# Poissons Ratio (y) = 0.01197 0.53907
# Poissons Ratio (z) = 0.05433 0.20999
#
# Static dielectric constant tensor:
#      x y z
#    x 1.960490 0.000000 0.000000 
#    y 0.000000 1.816030 0.000000 
#    z 0.000000 0.000000 2.082210 
# 
# From -- ./inp_files/1013.got.cif
#   From: 2010.05.17/outbox.cif.g08.bks.cpg/sg66_1_cif.got.tgz:1013.got - 2010.06.03 17:51:23.
