data_PCOD9496154
_publ_section_title
;
Structure prediction by ZEFSAII (Michael W. Deem and Ramdas Pophale) SiO2 
 PCOD9496154
Probable space group: C C C M
;
_chemical_formula_sum "Si O2"
_cell_formula_units_Z 112
_cell_length_a 15.988217
_cell_length_b 12.477125
_cell_length_c 28.034397
_cell_angle_alpha 90.000000
_cell_angle_beta 90.000000
_cell_angle_gamma 90.000000
_cell_volume 5592.497251
_symmetry_space_group_name_H-M "C C C M"
_symmetry_group_IT_number 66
_symmetry_cell_setting 'orthorhombic'
loop_
_space_group_symop_operation_xyz
x,y,z
-x,-y,z
x,-y,1/2-z
-x,y,1/2-z
-x,-y,-z
x,y,-z
-x,y,1/2+z
x,-y,1/2+z
1/2+x,1/2+y,z
1/2-x,1/2-y,z
1/2+x,1/2-y,1/2-z
1/2-x,1/2+y,1/2-z
1/2-x,1/2-y,-z
1/2+x,1/2+y,-z
1/2-x,1/2+y,1/2+z
1/2+x,1/2-y,1/2+z
loop_
_atom_site_type_symbol
_atom_site_label
_atom_site_fract_x
_atom_site_fract_y
_atom_site_fract_z
Si Si1 0.023915 0.624135 0.302412
Si Si2 0.598233 0.479414 0.443850
Si Si3 0.361670 0.228283 0.946471
Si Si4 0.293618 0.856834 0.346825
Si Si5 0.035956 0.611205 0.053324
Si Si6 0.377277 0.787449 0.864738
Si Si7 0.710066 0.574286 0.363410
O O1 0.119580 0.630452 0.318805
O O2 0.000000 0.500000 0.302527
O O3 0.000000 0.666474 0.250000
O O4 0.962776 0.680757 0.339409
O O5 0.500000 0.500000 0.428821
O O6 0.601523 0.504706 0.500000
O O7 0.625734 0.354997 0.437701
O O8 0.666929 0.546086 0.414295
O O9 0.315854 0.167035 0.902998
O O10 0.454592 0.183349 0.948401
O O11 0.327489 0.207457 0.000000
O O12 0.250000 0.750000 0.328674
O O13 0.231555 0.957808 0.341843
O O14 0.103301 0.683127 0.080299
O O15 0.000000 0.500000 0.075897
O O16 0.065650 0.582694 0.000000
O O17 0.352994 0.668739 0.847793
O O18 0.298904 0.866087 0.856981
#
# Coordination Sequence:
#
# PCOD9496154 Si02
#       7
#    16  16  16  16  16  16  16
#     4  11  24  47  74  96 123 171 219 263 334 416
#     4  10  21  37  56  86 132 184 231 265 317 388
#     4  10  20  34  57  87 124 175 223 262 304 374
#     4  12  23  41  66 101 134 168 222 276 326 391
#     4  10  19  33  57  87 122 169 218 261 309 377
#     4  11  22  41  65  92 132 165 215 269 327 408
#     4  11  24  37  61  96 127 170 209 272 334 373
#
# _framework density 20.026831999999999
#
# number of rings (size 3 to 8) (size 9 to 14) (size 15 to 20)
#    0.000    1.286    4.286    2.143    0.000    3.143 
#    2.571    1.429    0.000    0.857    0.000    0.000 
#    0.000    0.000    0.000    0.000    0.000    0.000 
#
# Total GULP energy -311876.215187 kJ/mol
# GULP energy per Si atom -5569.218128 kJ/mol
# Density = 1.998125 g / cm^3
# Si number density = 20.026832 Si / 1000 Ang^3
#
#
#
# Elastic Constant Matrix: (Units=GPa)
#
#
# Indices 1 2 3 4 5 6 
#
# 1 82.9752 37.6790 16.0630 0.0000 0.0000 0.0000
# 2 37.6790 112.8052 14.1742 0.0000 0.0000 0.0000
# 3 16.0630 14.1742 51.0123 0.0000 0.0000 0.0000
# 4 0.0000 0.0000 0.0000 -2.6594 0.0000 0.0000
# 5 0.0000 0.0000 0.0000 0.0000 -18.1156 0.0000
# 6 0.0000 0.0000 0.0000 0.0000 0.0000 30.7576
#
#
#
# Elastic Compliance Matrix: (Units=1/GPa)
#
#
# Indices 1 2 3 4 5 6 
#
# 1 0.014753 -0.004501 -0.003395 0.000000 0.000000 0.000000
# 2 -0.004501 0.010559 -0.001517 0.000000 0.000000 0.000000
# 3 -0.003395 -0.001517 0.021093 0.000000 0.000000 0.000000
# 4 0.000000 0.000000 0.000000 -0.376029 0.000000 0.000000
# 5 0.000000 0.000000 0.000000 0.000000 -0.055201 0.000000
# 6 0.000000 0.000000 0.000000 0.000000 0.000000 0.032512
#
#
# Mechanical properties :
#
#
# Convention : Reuss Voigt Hill
#
# Bulk Modulus (GPa) = 36.25777 42.51389 39.38583
# Shear Modulus (GPa) = -15.41809 13.92163 -0.74823
#
# Velocity S-wave (km/s) = -2.77767 2.63943 -0.61190
# Velocity P-wave (km/s) = 2.80297 5.52841 4.38292
#
# Compressibility (1/GPa) = 0.02758030
#
# Stress axis : x y z
#
# Youngs Moduli (GPa) = 67.78296 94.70706 47.40808
#
# Poissons Ratio (x) = 0.42630 0.16094
# Poissons Ratio (y) = 0.30510 0.07189
# Poissons Ratio (z) = 0.23011 0.14362
#
# Static dielectric constant tensor:
#      x y z
#    x 1.632720 0.000000 0.000000 
#    y 0.000000 1.763930 0.000000 
#    z 0.000000 0.000000 1.788020 
# 
# From -- ./inp_files/69562.got.cif
#   From: 2010.05.17/outbox.cif.g08.bks.cpg/sg66_35_cif.got.tgz:69562.got - 2010.06.03 17:51:23.
