data_PCOD9496313
_publ_section_title
;
Structure prediction by ZEFSAII (Michael W. Deem and Ramdas Pophale) SiO2 
 PCOD9496313
Probable space group: C C C M
;
_chemical_formula_sum "Si O2"
_cell_formula_units_Z 88
_cell_length_a 18.325049
_cell_length_b 15.435076
_cell_length_c 18.123076
_cell_angle_alpha 90.000000
_cell_angle_beta 90.000000
_cell_angle_gamma 90.000000
_cell_volume 5126.085297
_symmetry_space_group_name_H-M "C C C M"
_symmetry_group_IT_number 66
_symmetry_cell_setting 'orthorhombic'
loop_
_space_group_symop_operation_xyz
x,y,z
-x,-y,z
x,-y,1/2-z
-x,y,1/2-z
-x,-y,-z
x,y,-z
-x,y,1/2+z
x,-y,1/2+z
1/2+x,1/2+y,z
1/2-x,1/2-y,z
1/2+x,1/2-y,1/2-z
1/2-x,1/2+y,1/2-z
1/2-x,1/2-y,-z
1/2+x,1/2+y,-z
1/2-x,1/2+y,1/2+z
1/2+x,1/2-y,1/2+z
loop_
_atom_site_type_symbol
_atom_site_label
_atom_site_fract_x
_atom_site_fract_y
_atom_site_fract_z
Si Si1 0.377575 0.168402 0.088347
Si Si2 0.727092 0.586369 0.291445
Si Si3 0.457388 0.173408 0.412382
Si Si4 0.113842 0.482657 0.333226
Si Si5 0.326620 0.302258 0.413689
Si Si6 0.750000 0.250000 0.683357
O O1 0.459956 0.201603 0.102707
O O2 0.318034 0.224206 0.131809
O O3 0.375907 0.070799 0.121052
O O4 0.365031 0.167516 0.000000
O O5 0.701337 0.500000 0.250000
O O6 0.807236 0.562897 0.323099
O O7 0.678510 0.616750 0.359690
O O8 0.733666 0.667060 0.235217
O O9 0.451104 0.158855 0.500000
O O10 0.439749 0.083687 0.372627
O O11 0.394663 0.241813 0.392324
O O12 0.088638 0.500000 0.250000
O O13 0.333176 0.324953 0.500000
O O14 0.250000 0.250000 0.405197
#
# Coordination Sequence:
#
# PCOD9496313 Si02
#       6
#    16  16  16  16  16   8
#     4  11  24  38  57  85 118 157 193 234 292 353
#     4  11  21  38  58  88 119 152 193 245 281 336
#     4  10  21  37  57  87 121 148 189 245 290 344
#     4  11  20  36  54  87 123 151 183 233 298 358
#     4  10  19  34  60  85 113 154 194 232 285 343
#     4  12  21  42  59  78 118 162 198 234 285 344
#
# _framework density 17.167095
#
# number of rings (size 3 to 8) (size 9 to 14) (size 15 to 20)
#    0.000    1.273    6.364    1.364    0.000    3.636 
#    0.000    0.000    0.000    2.182    0.000    3.818 
#    0.000    0.000    0.000    0.000    0.000    0.000 
#
# Total GULP energy -245664.453344 kJ/mol
# GULP energy per Si atom -5583.283031 kJ/mol
# Density = 1.712802 g / cm^3
# Si number density = 17.167095 Si / 1000 Ang^3
#
#
#
# Elastic Constant Matrix: (Units=GPa)
#
#
# Indices 1 2 3 4 5 6 
#
# 1 114.5068 53.2804 50.0568 0.0000 0.0000 0.0000
# 2 53.2804 106.1579 55.1207 0.0000 0.0000 0.0000
# 3 50.0568 55.1207 64.3833 0.0000 0.0000 0.0000
# 4 0.0000 0.0000 0.0000 40.4680 0.0000 0.0000
# 5 0.0000 0.0000 0.0000 0.0000 20.0020 0.0000
# 6 0.0000 0.0000 0.0000 0.0000 0.0000 25.1381
#
#
#
# Elastic Compliance Matrix: (Units=1/GPa)
#
#
# Indices 1 2 3 4 5 6 
#
# 1 0.013560 -0.002397 -0.008490 0.000000 0.000000 0.000000
# 2 -0.002397 0.017382 -0.013018 0.000000 0.000000 0.000000
# 3 -0.008490 -0.013018 0.033278 0.000000 0.000000 0.000000
# 4 0.000000 0.000000 0.000000 0.024711 0.000000 0.000000
# 5 0.000000 0.000000 0.000000 0.000000 0.049995 0.000000
# 6 0.000000 0.000000 0.000000 0.000000 0.000000 0.039780
#
#
# Mechanical properties :
#
#
# Convention : Reuss Voigt Hill
#
# Bulk Modulus (GPa) = 60.93964 66.88487 63.91226
# Shear Modulus (GPa) = 21.55289 25.56096 23.55693
#
# Velocity S-wave (km/s) = 3.54712 3.86288 3.70836
# Velocity P-wave (km/s) = 7.23540 7.67733 7.45964
#
# Compressibility (1/GPa) = 0.01640968
#
# Stress axis : x y z
#
# Youngs Moduli (GPa) = 73.74556 57.52941 30.04995
#
# Poissons Ratio (x) = 0.13792 0.25513
# Poissons Ratio (y) = 0.17679 0.39118
# Poissons Ratio (z) = 0.62612 0.74890
#
# Static dielectric constant tensor:
#      x y z
#    x 1.597010 0.000000 0.000000 
#    y 0.000000 1.569730 0.000000 
#    z 0.000000 0.000000 1.586500 
# 
# From -- ./inp_files/40312.got.cif
#   From: 2010.05.17/outbox.cif.g08.bks.cpg/sg66_21_cif.got.tgz:40312.got - 2010.06.03 17:51:23.
