data_PCOD9496734
_publ_section_title
;
Structure prediction by ZEFSAII (Michael W. Deem and Ramdas Pophale) SiO2 
 PCOD9496734
Probable space group: C C C M
;
_chemical_formula_sum "Si O2"
_cell_formula_units_Z 80
_cell_length_a 14.592713
_cell_length_b 35.444516
_cell_length_c 8.371086
_cell_angle_alpha 90.000000
_cell_angle_beta 90.000000
_cell_angle_gamma 90.000000
_cell_volume 4329.790619
_symmetry_space_group_name_H-M "C C C M"
_symmetry_group_IT_number 66
_symmetry_cell_setting 'orthorhombic'
loop_
_space_group_symop_operation_xyz
x,y,z
-x,-y,z
x,-y,1/2-z
-x,y,1/2-z
-x,-y,-z
x,y,-z
-x,y,1/2+z
x,-y,1/2+z
1/2+x,1/2+y,z
1/2-x,1/2-y,z
1/2+x,1/2-y,1/2-z
1/2-x,1/2+y,1/2-z
1/2-x,1/2-y,-z
1/2+x,1/2+y,-z
1/2-x,1/2+y,1/2+z
1/2+x,1/2-y,1/2+z
loop_
_atom_site_type_symbol
_atom_site_label
_atom_site_fract_x
_atom_site_fract_y
_atom_site_fract_z
Si Si1 0.398319 0.542154 0.189182
Si Si2 0.396361 0.849029 0.692883
Si Si3 0.894363 0.265825 0.307031
Si Si4 0.780340 0.889008 0.806708
Si Si5 0.894948 0.183904 0.306577
O O1 0.378105 0.500000 0.250000
O O2 0.500000 0.552747 0.250000
O O3 0.325539 0.572903 0.245667
O O4 0.401439 0.541245 0.000000
O O5 0.500000 0.854478 0.750000
O O6 0.397561 0.848694 0.500000
O O7 0.361475 0.807202 0.745286
O O8 0.323603 0.880329 0.744898
O O9 0.889802 0.265869 0.500000
O O10 0.856022 0.225082 0.254733
O O11 0.000000 0.265075 0.250000
O O12 0.839559 0.852684 0.752750
O O13 0.782638 0.889786 0.000000
O O14 0.893661 0.183782 0.500000
O O15 0.000000 0.181218 0.250000
#
# Coordination Sequence:
#
# PCOD9496734 Si02
#       5
#    16  16  16  16  16
#     4  11  22  38  60  84 110 138 164 196 240 299
#     4   9  18  32  50  70  98 135 178 223 262 299
#     4   8  14  26  43  64  91 130 174 214 255 298
#     4  10  20  33  50  76 105 135 171 213 257 304
#     4   9  17  28  44  67  99 134 170 210 254 302
#
# _framework density 18.476645000000001
#
# number of rings (size 3 to 8) (size 9 to 14) (size 15 to 20)
#    0.000    2.600    0.000    3.000    0.000    4.000 
#    0.000    4.000    0.000    0.600    0.000   19.600 
#    0.000    0.000    0.000    0.000    0.000    0.000 
#
# Total GULP energy -223006.887180 kJ/mol
# GULP energy per Si atom -5575.172180 kJ/mol
# Density = 1.843459 g / cm^3
# Si number density = 18.476645 Si / 1000 Ang^3
#
#
#
# Elastic Constant Matrix: (Units=GPa)
#
#
# Indices 1 2 3 4 5 6 
#
# 1 108.5708 86.5177 24.3873 0.0000 0.0000 0.0000
# 2 86.5177 123.6561 30.7230 0.0000 0.0000 0.0000
# 3 24.3873 30.7230 34.8095 0.0000 0.0000 0.0000
# 4 0.0000 0.0000 0.0000 21.6390 0.0000 0.0000
# 5 0.0000 0.0000 0.0000 0.0000 14.8186 0.0000
# 6 0.0000 0.0000 0.0000 0.0000 0.0000 32.3860
#
#
#
# Elastic Compliance Matrix: (Units=1/GPa)
#
#
# Indices 1 2 3 4 5 6 
#
# 1 0.020951 -0.014105 -0.002229 0.000000 0.000000 0.000000
# 2 -0.014105 0.019854 -0.007642 0.000000 0.000000 0.000000
# 3 -0.002229 -0.007642 0.037034 0.000000 0.000000 0.000000
# 4 0.000000 0.000000 0.000000 0.046213 0.000000 0.000000
# 5 0.000000 0.000000 0.000000 0.000000 0.067483 0.000000
# 6 0.000000 0.000000 0.000000 0.000000 0.000000 0.030878
#
#
# Mechanical properties :
#
#
# Convention : Reuss Voigt Hill
#
# Bulk Modulus (GPa) = 33.45822 61.14361 47.30091
# Shear Modulus (GPa) = 17.83631 22.12929 19.98280
#
# Velocity S-wave (km/s) = 3.11037 3.46452 3.29221
# Velocity P-wave (km/s) = 5.57197 7.01200 6.33305
#
# Compressibility (1/GPa) = 0.02988802
#
# Stress axis : x y z
#
# Youngs Moduli (GPa) = 47.72985 50.36688 27.00217
#
# Poissons Ratio (x) = 0.71042 0.06019
# Poissons Ratio (y) = 0.67323 0.20634
# Poissons Ratio (z) = 0.10640 0.38489
#
# Static dielectric constant tensor:
#      x y z
#    x 1.636920 0.000000 0.000000 
#    y 0.000000 1.660190 0.000000 
#    z 0.000000 0.000000 1.660290 
# 
# From -- ./inp_files/6904.got.cif
#   From: 2010.05.17/outbox.cif.g08.bks.cpg/sg66_4_cif.got.tgz:6904.got - 2010.06.03 17:51:23.
