data_PCOD9496118
_publ_section_title
;
Structure prediction by ZEFSAII (Michael W. Deem and Ramdas Pophale) SiO2 
 PCOD9496118
Probable space group: C C C M
;
_chemical_formula_sum "Si O2"
_cell_formula_units_Z 96
_cell_length_a 21.118693
_cell_length_b 24.920847
_cell_length_c 9.291947
_cell_angle_alpha 90.000000
_cell_angle_beta 90.000000
_cell_angle_gamma 90.000000
_cell_volume 4890.311910
_symmetry_space_group_name_H-M "C C C M"
_symmetry_group_IT_number 66
_symmetry_cell_setting 'orthorhombic'
loop_
_space_group_symop_operation_xyz
x,y,z
-x,-y,z
x,-y,1/2-z
-x,y,1/2-z
-x,-y,-z
x,y,-z
-x,y,1/2+z
x,-y,1/2+z
1/2+x,1/2+y,z
1/2-x,1/2-y,z
1/2+x,1/2-y,1/2-z
1/2-x,1/2+y,1/2-z
1/2-x,1/2-y,-z
1/2+x,1/2+y,-z
1/2-x,1/2+y,1/2+z
1/2+x,1/2-y,1/2+z
loop_
_atom_site_type_symbol
_atom_site_label
_atom_site_fract_x
_atom_site_fract_y
_atom_site_fract_z
Si Si1 0.563696 0.826279 0.325892
Si Si2 0.560912 0.444427 0.667995
Si Si3 0.743094 0.946597 0.335528
Si Si4 0.909572 0.552907 0.664133
Si Si5 0.174633 0.243052 0.328956
Si Si6 0.178043 0.135641 0.833475
O O1 0.500000 0.804849 0.250000
O O2 0.556839 0.825586 0.500000
O O3 0.571397 0.888504 0.278986
O O4 0.627298 0.792143 0.292743
O O5 0.574584 0.500000 0.750000
O O6 0.500000 0.421081 0.750000
O O7 0.547137 0.453930 0.500000
O O8 0.619872 0.405298 0.675498
O O9 0.766378 0.948457 0.500000
O O10 0.667057 0.946780 0.338024
O O11 0.766997 0.893266 0.257233
O O12 0.763695 0.000000 0.250000
O O13 0.929021 0.500000 0.750000
O O14 0.932145 0.548491 0.500000
O O15 0.167381 0.233105 0.500000
O O16 0.250000 0.250000 0.303018
O O17 0.157469 0.191164 0.236900
O O18 0.196568 0.142450 0.000000
#
# Coordination Sequence:
#
# PCOD9496118 Si02
#       6
#    16  16  16  16  16  16
#     4  10  22  40  61  86 117 152 191 237 290 346
#     4  10  21  36  54  77 108 145 185 229 280 337
#     4  10  19  33  55  83 116 152 190 234 284 338
#     4   9  19  36  58  85 116 150 188 229 276 335
#     4  10  22  42  65  85 110 151 199 244 292 345
#     4  11  23  36  54  83 113 144 186 235 288 345
#
# _framework density 19.630648999999998
#
# number of rings (size 3 to 8) (size 9 to 14) (size 15 to 20)
#    0.000    2.000    0.000    3.500    0.000   10.000 
#    0.000    6.667    0.000    0.000    0.000    0.000 
#    0.000    0.000    0.000    0.000    0.000    0.000 
#
# Total GULP energy -267988.642555 kJ/mol
# GULP energy per Si atom -5583.096720 kJ/mol
# Density = 1.958597 g / cm^3
# Si number density = 19.630649 Si / 1000 Ang^3
#
#
#
# Elastic Constant Matrix: (Units=GPa)
#
#
# Indices 1 2 3 4 5 6 
#
# 1 85.0761 39.5566 44.0978 0.0000 0.0000 0.0000
# 2 39.5566 110.3272 54.3209 0.0000 0.0000 0.0000
# 3 44.0978 54.3209 85.9636 0.0000 0.0000 0.0000
# 4 0.0000 0.0000 0.0000 31.6010 0.0000 0.0000
# 5 0.0000 0.0000 0.0000 0.0000 24.5817 0.0000
# 6 0.0000 0.0000 0.0000 0.0000 0.0000 13.1149
#
#
#
# Elastic Compliance Matrix: (Units=1/GPa)
#
#
# Indices 1 2 3 4 5 6 
#
# 1 0.016486 -0.002536 -0.006855 0.000000 0.000000 0.000000
# 2 -0.002536 0.013548 -0.007260 0.000000 0.000000 0.000000
# 3 -0.006855 -0.007260 0.019737 0.000000 0.000000 0.000000
# 4 0.000000 0.000000 0.000000 0.031645 0.000000 0.000000
# 5 0.000000 0.000000 0.000000 0.000000 0.040681 0.000000
# 6 0.000000 0.000000 0.000000 0.000000 0.000000 0.076249
#
#
# Mechanical properties :
#
#
# Convention : Reuss Voigt Hill
#
# Bulk Modulus (GPa) = 60.71817 61.92417 61.32117
# Shear Modulus (GPa) = 21.08492 23.41896 22.25194
#
# Velocity S-wave (km/s) = 3.28087 3.45770 3.37045
# Velocity P-wave (km/s) = 6.73421 6.89594 6.81556
#
# Compressibility (1/GPa) = 0.01646953
#
# Stress axis : x y z
#
# Youngs Moduli (GPa) = 60.65629 73.81306 50.66680
#
# Poissons Ratio (x) = 0.18719 0.34730
# Poissons Ratio (y) = 0.15382 0.36784
# Poissons Ratio (z) = 0.41578 0.53588
#
# Static dielectric constant tensor:
#      x y z
#    x 1.709790 0.000000 0.000000 
#    y 0.000000 1.677240 0.000000 
#    z 0.000000 0.000000 1.688380 
# 
# From -- ./inp_files/9121.got.cif
#   From: 2010.05.17/outbox.cif.g08.bks.cpg/sg66_5_cif.got.tgz:9121.got - 2010.06.03 17:51:23.
