data_PCOD9496252
_publ_section_title
;
Structure prediction by ZEFSAII (Michael W. Deem and Ramdas Pophale) SiO2 
 PCOD9496252
Probable space group: C C C M
;
_chemical_formula_sum "Si O2"
_cell_formula_units_Z 112
_cell_length_a 15.984255
_cell_length_b 19.945001
_cell_length_c 18.475409
_cell_angle_alpha 90.000000
_cell_angle_beta 90.000000
_cell_angle_gamma 90.000000
_cell_volume 5890.070908
_symmetry_space_group_name_H-M "C C C M"
_symmetry_group_IT_number 66
_symmetry_cell_setting 'orthorhombic'
loop_
_space_group_symop_operation_xyz
x,y,z
-x,-y,z
x,-y,1/2-z
-x,y,1/2-z
-x,-y,-z
x,y,-z
-x,y,1/2+z
x,-y,1/2+z
1/2+x,1/2+y,z
1/2-x,1/2-y,z
1/2+x,1/2-y,1/2-z
1/2-x,1/2+y,1/2-z
1/2-x,1/2-y,-z
1/2+x,1/2+y,-z
1/2-x,1/2+y,1/2+z
1/2+x,1/2-y,1/2+z
loop_
_atom_site_type_symbol
_atom_site_label
_atom_site_fract_x
_atom_site_fract_y
_atom_site_fract_z
Si Si1 0.681482 0.309276 0.917416
Si Si2 0.909647 0.243794 0.215660
Si Si3 0.913808 0.659056 0.085653
Si Si4 0.241350 0.089498 0.086292
Si Si5 0.557842 0.895949 0.683573
Si Si6 0.291782 0.057927 0.413298
Si Si7 0.335257 0.285829 0.859456
O O1 0.750000 0.250000 0.911954
O O2 0.610458 0.291098 0.859952
O O3 0.731466 0.378170 0.903632
O O4 0.649886 0.310322 0.000000
O O5 0.904538 0.324591 0.210362
O O6 0.842257 0.219013 0.273648
O O7 0.000000 0.227898 0.250000
O O8 0.830603 0.619921 0.111540
O O9 0.905820 0.736686 0.108895
O O10 0.992705 0.625113 0.121727
O O11 0.918008 0.654479 0.000000
O O12 0.169897 0.137367 0.117652
O O13 0.242761 0.010969 0.101812
O O14 0.238590 0.097683 0.000000
O O15 0.500000 0.922690 0.750000
O O16 0.630524 0.936872 0.642739
O O17 0.317258 0.057032 0.500000
O O18 0.250000 0.250000 0.886278
#
# Coordination Sequence:
#
# PCOD9496252 Si02
#       7
#    16  16  16  16  16  16  16
#     4  10  20  35  59  86 111 149 198 243 285 345
#     4  11  21  36  55  84 116 147 185 242 301 342
#     4  10  19  34  56  83 113 148 191 233 278 343
#     4   9  20  37  57  84 115 150 192 236 285 343
#     4  11  21  34  53  84 121 156 189 234 293 355
#     4  10  21  38  60  85 118 155 196 245 294 350
#     4  10  19  34  59  82 110 150 190 237 285 338
#
# _framework density 19.015049999999999
#
# number of rings (size 3 to 8) (size 9 to 14) (size 15 to 20)
#    0.000    1.857    4.286    1.286    0.000    2.857 
#    0.000    5.714    0.000    1.714    0.000    3.000 
#    0.000    0.000    0.000    0.000    0.000    0.000 
#
# Total GULP energy -312342.029934 kJ/mol
# GULP energy per Si atom -5577.536249 kJ/mol
# Density = 1.897177 g / cm^3
# Si number density = 19.015050 Si / 1000 Ang^3
#
#
#
# Elastic Constant Matrix: (Units=GPa)
#
#
# Indices 1 2 3 4 5 6 
#
# 1 28.2471 11.0756 19.8519 0.0000 0.0000 0.0000
# 2 11.0756 116.1322 26.1202 0.0000 0.0000 0.0000
# 3 19.8519 26.1202 77.3376 0.0000 0.0000 0.0000
# 4 0.0000 0.0000 0.0000 -90.0270 0.0000 0.0000
# 5 0.0000 0.0000 0.0000 0.0000 42.9519 0.0000
# 6 0.0000 0.0000 0.0000 0.0000 0.0000 7.8859
#
#
#
# Elastic Compliance Matrix: (Units=1/GPa)
#
#
# Indices 1 2 3 4 5 6 
#
# 1 0.043529 -0.001773 -0.010575 0.000000 0.000000 0.000000
# 2 -0.001773 0.009391 -0.002717 0.000000 0.000000 0.000000
# 3 -0.010575 -0.002717 0.016562 0.000000 0.000000 0.000000
# 4 0.000000 0.000000 0.000000 -0.011108 0.000000 0.000000
# 5 0.000000 0.000000 0.000000 0.000000 0.023282 0.000000
# 6 0.000000 0.000000 0.000000 0.000000 0.000000 0.126808
#
#
# Mechanical properties :
#
#
# Convention : Reuss Voigt Hill
#
# Bulk Modulus (GPa) = 25.41065 37.31247 31.36156
# Shear Modulus (GPa) = 19.86410 3.14013 11.50212
#
# Velocity S-wave (km/s) = 3.23561 1.28646 2.46213
# Velocity P-wave (km/s) = 5.22985 4.67673 4.96101
#
# Compressibility (1/GPa) = 0.03935358
#
# Stress axis : x y z
#
# Youngs Moduli (GPa) = 22.97329 106.48512 60.37816
#
# Poissons Ratio (x) = 0.18879 0.63848
# Poissons Ratio (y) = 0.04073 0.16403
# Poissons Ratio (z) = 0.24294 0.28928
#
# Static dielectric constant tensor:
#      x y z
#    x 1.706480 0.000000 0.000000 
#    y 0.000000 1.670360 0.000000 
#    z 0.000000 0.000000 1.687150 
# 
# From -- ./inp_files/41974.got.cif
#   From: 2010.05.17/outbox.cif.g08.bks.cpg/sg66_21_cif.got.tgz:41974.got - 2010.06.03 17:51:23.
