data_PCOD9496337
_publ_section_title
;
Structure prediction by ZEFSAII (Michael W. Deem and Ramdas Pophale) SiO2 
 PCOD9496337
Probable space group: C C C M
;
_chemical_formula_sum "Si O2"
_cell_formula_units_Z 80
_cell_length_a 6.540810
_cell_length_b 22.946017
_cell_length_c 27.789035
_cell_angle_alpha 90.000000
_cell_angle_beta 90.000000
_cell_angle_gamma 90.000000
_cell_volume 4170.732253
_symmetry_space_group_name_H-M "C C C M"
_symmetry_group_IT_number 66
_symmetry_cell_setting 'orthorhombic'
loop_
_space_group_symop_operation_xyz
x,y,z
-x,-y,z
x,-y,1/2-z
-x,y,1/2-z
-x,-y,-z
x,y,-z
-x,y,1/2+z
x,-y,1/2+z
1/2+x,1/2+y,z
1/2-x,1/2-y,z
1/2+x,1/2-y,1/2-z
1/2-x,1/2+y,1/2-z
1/2-x,1/2-y,-z
1/2+x,1/2+y,-z
1/2-x,1/2+y,1/2+z
1/2+x,1/2-y,1/2+z
loop_
_atom_site_type_symbol
_atom_site_label
_atom_site_fract_x
_atom_site_fract_y
_atom_site_fract_z
Si Si1 0.872905 0.581465 0.443182
Si Si2 0.876407 0.880311 0.365823
Si Si3 0.982260 0.415905 0.303724
Si Si4 0.851163 0.813239 0.796353
Si Si5 0.755384 0.541175 0.892653
O O1 0.852711 0.581199 0.500000
O O2 0.745994 0.630414 0.415082
O O3 0.788509 0.519632 0.421023
O O4 0.107430 0.584181 0.425723
O O5 0.700983 0.900410 0.327854
O O6 0.005758 0.828997 0.341854
O O7 0.038004 0.931089 0.380088
O O8 0.835499 0.359197 0.297850
O O9 0.861510 0.457071 0.340568
O O10 0.000000 0.438558 0.250000
O O11 0.750000 0.750000 0.796783
O O12 0.000000 0.819946 0.750000
#
# Coordination Sequence:
#
# PCOD9496337 Si02
#       5
#    16  16  16  16  16
#     4  10  20  37  59  82 113 155 205 253 295 343
#     4  10  21  35  54  84 120 150 192 243 295 350
#     4  10  19  35  53  77 121 155 188 234 291 359
#     4  11  22  35  59  86 112 150 193 238 293 359
#     4   9  19  32  53  82 114 149 202 245 287 347
#
# _framework density 19.181284000000002
#
# number of rings (size 3 to 8) (size 9 to 14) (size 15 to 20)
#    0.000    2.000    2.000    2.400    0.000    2.400 
#    0.000    8.000    4.400    0.600    0.000   12.600 
#    0.000    0.000    0.000    0.000    0.000    0.000 
#
# Total GULP energy -222791.791626 kJ/mol
# GULP energy per Si atom -5569.794791 kJ/mol
# Density = 1.913763 g / cm^3
# Si number density = 19.181284 Si / 1000 Ang^3
#
#
#
# Elastic Constant Matrix: (Units=GPa)
#
#
# Indices 1 2 3 4 5 6 
#
# 1 151.3242 37.7388 61.4548 0.0000 0.0000 0.0000
# 2 37.7388 60.3942 30.4188 0.0000 0.0000 0.0000
# 3 61.4548 30.4188 194.2335 0.0000 0.0000 0.0000
# 4 0.0000 0.0000 0.0000 17.3758 0.0000 0.0000
# 5 0.0000 0.0000 0.0000 0.0000 14.5285 0.0000
# 6 0.0000 0.0000 0.0000 0.0000 0.0000 33.7611
#
#
#
# Elastic Compliance Matrix: (Units=1/GPa)
#
#
# Indices 1 2 3 4 5 6 
#
# 1 0.008498 -0.004295 -0.002016 0.000000 0.000000 0.000000
# 2 -0.004295 0.020146 -0.001796 0.000000 0.000000 0.000000
# 3 -0.002016 -0.001796 0.006068 0.000000 0.000000 0.000000
# 4 0.000000 0.000000 0.000000 0.057551 0.000000 0.000000
# 5 0.000000 0.000000 0.000000 0.000000 0.068830 0.000000
# 6 0.000000 0.000000 0.000000 0.000000 0.000000 0.029620
#
#
# Mechanical properties :
#
#
# Convention : Reuss Voigt Hill
#
# Bulk Modulus (GPa) = 54.06077 73.90851 63.98464
# Shear Modulus (GPa) = 23.46381 31.55571 27.50976
#
# Velocity S-wave (km/s) = 3.50132 4.06042 3.79119
# Velocity P-wave (km/s) = 6.67764 7.78447 7.25220
#
# Compressibility (1/GPa) = 0.01849770
#
# Stress axis : x y z
#
# Youngs Moduli (GPa) = 117.67169 49.63683 164.80801
#
# Poissons Ratio (x) = 0.21318 0.33229
# Poissons Ratio (y) = 0.50538 0.29603
# Poissons Ratio (z) = 0.23725 0.08916
#
# Static dielectric constant tensor:
#      x y z
#    x 1.778310 0.000000 0.000000 
#    y 0.000000 1.710870 0.000000 
#    z 0.000000 0.000000 1.663570 
# 
# From -- ./inp_files/67355.got.cif
#   From: 2010.05.17/outbox.cif.g08.bks.cpg/sg66_34_cif.got.tgz:67355.got - 2010.06.03 17:51:23.
