data_PCOD9496563
_publ_section_title
;
Structure prediction by ZEFSAII (Michael W. Deem and Ramdas Pophale) SiO2 
 PCOD9496563
Probable space group: C C C M
;
_chemical_formula_sum "Si O2"
_cell_formula_units_Z 112
_cell_length_a 21.118374
_cell_length_b 16.102577
_cell_length_c 15.474827
_cell_angle_alpha 90.000000
_cell_angle_beta 90.000000
_cell_angle_gamma 90.000000
_cell_volume 5262.373437
_symmetry_space_group_name_H-M "C C C M"
_symmetry_group_IT_number 66
_symmetry_cell_setting 'orthorhombic'
loop_
_space_group_symop_operation_xyz
x,y,z
-x,-y,z
x,-y,1/2-z
-x,y,1/2-z
-x,-y,-z
x,y,-z
-x,y,1/2+z
x,-y,1/2+z
1/2+x,1/2+y,z
1/2-x,1/2-y,z
1/2+x,1/2-y,1/2-z
1/2-x,1/2+y,1/2-z
1/2-x,1/2-y,-z
1/2+x,1/2+y,-z
1/2-x,1/2+y,1/2+z
1/2+x,1/2-y,1/2+z
loop_
_atom_site_type_symbol
_atom_site_label
_atom_site_fract_x
_atom_site_fract_y
_atom_site_fract_z
Si Si1 0.934096 0.625166 0.202239
Si Si2 0.096216 0.906539 0.273157
Si Si3 0.821012 0.336263 0.830346
Si Si4 0.028235 0.216333 0.902068
Si Si5 0.734897 0.586970 0.802083
Si Si6 0.618915 0.314797 0.094847
Si Si7 0.845125 0.516049 0.902227
O O1 0.883023 0.662134 0.268945
O O2 0.945023 0.695915 0.130175
O O3 0.901740 0.544892 0.159950
O O4 0.000000 0.609741 0.250000
O O5 0.047824 0.852175 0.329899
O O6 0.162275 0.902419 0.326403
O O7 0.116740 0.871376 0.179504
O O8 0.075687 0.000000 0.250000
O O9 0.762268 0.345476 0.764866
O O10 0.829517 0.256607 0.889674
O O11 0.825313 0.421485 0.884152
O O12 0.952173 0.222418 0.905403
O O13 0.049344 0.195382 0.000000
O O14 0.737708 0.500000 0.750000
O O15 0.785419 0.574346 0.877959
O O16 0.628832 0.354536 0.000000
O O17 0.864576 0.526592 0.000000
#
# Coordination Sequence:
#
# PCOD9496563 Si02
#       7
#    16  16  16  16  16  16  16
#     4  11  19  37  58  83 122 168 205 247 300 361
#     4  11  23  43  65  89 121 160 204 259 327 375
#     4  10  19  38  61  84 123 166 200 244 307 360
#     4  11  23  40  62  90 124 164 208 258 315 370
#     4   8  19  38  62  86 117 163 204 243 304 371
#     4  11  23  40  62  91 122 158 207 258 309 374
#     4  10  21  36  58  92 126 162 210 256 297 363
#
# _framework density 21.283172
#
# number of rings (size 3 to 8) (size 9 to 14) (size 15 to 20)
#    0.000    1.714    2.857    2.571    0.000    4.000 
#    0.000    9.286    0.000    2.571    0.000    0.000 
#    0.000    0.000    0.000    0.000    0.000    0.000 
#
# Total GULP energy -312721.815660 kJ/mol
# GULP energy per Si atom -5584.318137 kJ/mol
# Density = 2.123473 g / cm^3
# Si number density = 21.283172 Si / 1000 Ang^3
#
#
#
# Elastic Constant Matrix: (Units=GPa)
#
#
# Indices 1 2 3 4 5 6 
#
# 1 75.9272 1.0110 3.7227 0.0000 0.0000 0.0000
# 2 1.0110 85.6709 39.1550 0.0000 0.0000 0.0000
# 3 3.7227 39.1550 116.0717 0.0000 0.0000 0.0000
# 4 0.0000 0.0000 0.0000 16.4037 0.0000 0.0000
# 5 0.0000 0.0000 0.0000 0.0000 18.0355 0.0000
# 6 0.0000 0.0000 0.0000 0.0000 0.0000 18.8299
#
#
#
# Elastic Compliance Matrix: (Units=1/GPa)
#
#
# Indices 1 2 3 4 5 6 
#
# 1 0.013191 0.000045 -0.000438 0.000000 0.000000 0.000000
# 2 0.000045 0.013800 -0.004657 0.000000 0.000000 0.000000
# 3 -0.000438 -0.004657 0.010200 0.000000 0.000000 0.000000
# 4 0.000000 0.000000 0.000000 0.060962 0.000000 0.000000
# 5 0.000000 0.000000 0.000000 0.000000 0.055446 0.000000
# 6 0.000000 0.000000 0.000000 0.000000 0.000000 0.053107
#
#
# Mechanical properties :
#
#
# Convention : Reuss Voigt Hill
#
# Bulk Modulus (GPa) = 36.91202 40.60523 38.75862
# Shear Modulus (GPa) = 22.13977 26.23925 24.18951
#
# Velocity S-wave (km/s) = 3.22879 3.51503 3.37494
# Velocity P-wave (km/s) = 5.59294 5.96606 5.78251
#
# Compressibility (1/GPa) = 0.02709145
#
# Stress axis : x y z
#
# Youngs Moduli (GPa) = 75.80694 72.46179 98.03629
#
# Poissons Ratio (x) = -0.00323 0.04295
# Poissons Ratio (y) = -0.00338 0.45653
# Poissons Ratio (z) = 0.03321 0.33744
#
# Static dielectric constant tensor:
#      x y z
#    x 1.806340 0.000000 0.000000 
#    y 0.000000 1.789290 0.000000 
#    z 0.000000 0.000000 1.764370 
# 
# From -- ./inp_files/32482.got.cif
#   From: 2010.05.17/outbox.cif.g08.bks.cpg/sg66_17_cif.got.tgz:32482.got - 2010.06.03 17:51:23.
