data_PCOD9496189
_publ_section_title
;
Structure prediction by ZEFSAII (Michael W. Deem and Ramdas Pophale) SiO2 
 PCOD9496189
Probable space group: C C C M
;
_chemical_formula_sum "Si O2"
_cell_formula_units_Z 116
_cell_length_a 11.006648
_cell_length_b 26.358283
_cell_length_c 18.397798
_cell_angle_alpha 90.000000
_cell_angle_beta 90.000000
_cell_angle_gamma 90.000000
_cell_volume 5337.501873
_symmetry_space_group_name_H-M "C C C M"
_symmetry_group_IT_number 66
_symmetry_cell_setting 'orthorhombic'
loop_
_space_group_symop_operation_xyz
x,y,z
-x,-y,z
x,-y,1/2-z
-x,y,1/2-z
-x,-y,-z
x,y,-z
-x,y,1/2+z
x,-y,1/2+z
1/2+x,1/2+y,z
1/2-x,1/2-y,z
1/2+x,1/2-y,1/2-z
1/2-x,1/2+y,1/2-z
1/2-x,1/2-y,-z
1/2+x,1/2+y,-z
1/2-x,1/2+y,1/2+z
1/2+x,1/2-y,1/2+z
loop_
_atom_site_type_symbol
_atom_site_label
_atom_site_fract_x
_atom_site_fract_y
_atom_site_fract_z
Si Si1 0.302558 0.858830 0.414330
Si Si2 0.389592 0.133622 0.306070
Si Si3 0.207089 0.055062 0.746570
Si Si4 0.044955 0.709948 0.086017
Si Si5 0.041621 0.178202 0.912025
Si Si6 0.000000 0.000000 0.500000
Si Si7 0.994540 0.928496 0.636864
Si Si8 0.480116 0.940887 0.413323
O O1 0.279377 0.863639 0.500000
O O2 0.419335 0.822320 0.406465
O O3 0.180975 0.832032 0.386446
O O4 0.349893 0.915328 0.393418
O O5 0.500000 0.143978 0.250000
O O6 0.285807 0.105777 0.260848
O O7 0.366446 0.182686 0.356391
O O8 0.427608 0.090562 0.364444
O O9 0.107088 0.063382 0.809033
O O10 0.125968 0.050437 0.673935
O O11 0.272783 0.000000 0.750000
O O12 0.012902 0.767303 0.106623
O O13 0.080919 0.707144 0.000000
O O14 0.972392 0.130641 0.878754
O O15 0.038063 0.176344 0.000000
O O16 0.978887 0.042963 0.563056
O O17 0.498756 0.932100 0.500000
O O18 0.500000 0.000000 0.400150
#
# Coordination Sequence:
#
# PCOD9496189 Si02
#       8
#    16  16  16  16  16   4  16  16
#     4   8  15  29  53  89 129 165 207 265 335 387
#     4  11  25  40  64  89 128 180 221 266 339 428
#     4  11  25  46  65  89 137 181 213 273 351 410
#     4   9  19  40  61  91 134 172 218 284 340 396
#     4  10  19  33  66  99 125 166 226 282 339 399
#     4  12  20  46  72 108 130 162 240 292 338 404
#     4  11  23  44  68 100 132 173 222 287 341 405
#     4   9  19  36  54  88 131 171 221 279 336 404
#
# _framework density 21.733013
#
# number of rings (size 3 to 8) (size 9 to 14) (size 15 to 20)
#    0.000    2.069    2.069    2.069    5.793    1.655 
#    4.966    0.690    0.000    1.655    0.000    0.000 
#    0.000    0.000    0.000    0.000    0.000    0.000 
#
# Total GULP energy -323098.765069 kJ/mol
# GULP energy per Si atom -5570.668363 kJ/mol
# Density = 2.168355 g / cm^3
# Si number density = 21.733013 Si / 1000 Ang^3
#
#
#
# Elastic Constant Matrix: (Units=GPa)
#
#
# Indices 1 2 3 4 5 6 
#
# 1 34.2772 15.9548 15.5071 0.0000 0.0000 0.0000
# 2 15.9548 183.9164 41.3213 0.0000 0.0000 0.0000
# 3 15.5071 41.3213 95.7333 0.0000 0.0000 0.0000
# 4 0.0000 0.0000 0.0000 26.2632 0.0000 0.0000
# 5 0.0000 0.0000 0.0000 0.0000 6.6972 0.0000
# 6 0.0000 0.0000 0.0000 0.0000 0.0000 20.5219
#
#
#
# Elastic Compliance Matrix: (Units=1/GPa)
#
#
# Indices 1 2 3 4 5 6 
#
# 1 0.032001 -0.001785 -0.004413 0.000000 0.000000 0.000000
# 2 -0.001785 0.006121 -0.002353 0.000000 0.000000 0.000000
# 3 -0.004413 -0.002353 0.012176 0.000000 0.000000 0.000000
# 4 0.000000 0.000000 0.000000 0.038076 0.000000 0.000000
# 5 0.000000 0.000000 0.000000 0.000000 0.149315 0.000000
# 6 0.000000 0.000000 0.000000 0.000000 0.000000 0.048728
#
#
# Mechanical properties :
#
#
# Convention : Reuss Voigt Hill
#
# Bulk Modulus (GPa) = 30.12359 51.05482 40.58921
# Shear Modulus (GPa) = 15.89396 26.77272 21.33334
#
# Velocity S-wave (km/s) = 2.70724 3.51364 3.13646
# Velocity P-wave (km/s) = 4.86447 6.32485 5.64211
#
# Compressibility (1/GPa) = 0.03319657
#
# Stress axis : x y z
#
# Youngs Moduli (GPa) = 31.24880 163.38065 82.12800
#
# Poissons Ratio (x) = 0.29156 0.36246
# Poissons Ratio (y) = 0.05576 0.19323
# Poissons Ratio (z) = 0.13791 0.38440
#
# Static dielectric constant tensor:
#      x y z
#    x 1.836550 0.000000 0.000000 
#    y 0.000000 1.807930 0.000000 
#    z 0.000000 0.000000 1.822730 
# 
# From -- ./inp_files/39137.got.cif
#   From: 2010.05.17/outbox.cif.g08.bks.cpg/sg66_20_cif.got.tgz:39137.got - 2010.06.03 17:51:23.
