data_PCOD9496120
_publ_section_title
;
Structure prediction by ZEFSAII (Michael W. Deem and Ramdas Pophale) SiO2 
 PCOD9496120
Probable space group: C C C M
;
_chemical_formula_sum "Si O2"
_cell_formula_units_Z 80
_cell_length_a 16.796377
_cell_length_b 8.750865
_cell_length_c 29.305336
_cell_angle_alpha 90.000000
_cell_angle_beta 90.000000
_cell_angle_gamma 90.000000
_cell_volume 4307.381150
_symmetry_space_group_name_H-M "C C C M"
_symmetry_group_IT_number 66
_symmetry_cell_setting 'orthorhombic'
loop_
_space_group_symop_operation_xyz
x,y,z
-x,-y,z
x,-y,1/2-z
-x,y,1/2-z
-x,-y,-z
x,y,-z
-x,y,1/2+z
x,-y,1/2+z
1/2+x,1/2+y,z
1/2-x,1/2-y,z
1/2+x,1/2-y,1/2-z
1/2-x,1/2+y,1/2-z
1/2-x,1/2-y,-z
1/2+x,1/2+y,-z
1/2-x,1/2+y,1/2+z
1/2+x,1/2-y,1/2+z
loop_
_atom_site_type_symbol
_atom_site_label
_atom_site_fract_x
_atom_site_fract_y
_atom_site_fract_z
Si Si1 0.587543 0.949952 0.644594
Si Si2 0.835755 0.056431 0.551809
Si Si3 0.143457 0.590738 0.447859
Si Si4 0.763680 0.570028 0.800330
Si Si5 0.830326 0.850810 0.365270
O O1 0.605643 0.771264 0.651589
O O2 0.500000 0.000000 0.657789
O O3 0.602565 0.992915 0.591441
O O4 0.654234 0.038363 0.673287
O O5 0.856243 0.012967 0.500000
O O6 0.867745 0.227640 0.560322
O O7 0.739112 0.065922 0.554771
O O8 0.859877 0.935079 0.589471
O O9 0.119145 0.555376 0.500000
O O10 0.766894 0.500000 0.750000
O O11 0.750000 0.750000 0.798802
O O12 0.696827 0.478603 0.829158
O O13 0.750000 0.750000 0.374701
#
# Coordination Sequence:
#
# PCOD9496120 Si02
#       5
#    16  16  16  16  16
#     4  11  23  37  55  84 120 151 183 232 285 333
#     4   9  16  29  53  81 107 143 196 243 273 322
#     4   9  17  31  52  78 112 151 188 231 284 332
#     4  11  22  41  66  86 109 142 185 234 281 344
#     4  10  19  33  55  84 111 144 191 227 277 336
#
# _framework density 18.572769999999998
#
# number of rings (size 3 to 8) (size 9 to 14) (size 15 to 20)
#    0.000    2.000    4.000    4.200    0.000    2.000 
#    0.000    4.000    0.000    3.600    0.000    0.000 
#    0.000    0.000    0.000    0.000    0.000    0.000 
#
# Total GULP energy -223274.834501 kJ/mol
# GULP energy per Si atom -5581.870863 kJ/mol
# Density = 1.853050 g / cm^3
# Si number density = 18.572770 Si / 1000 Ang^3
#
#
#
# Elastic Constant Matrix: (Units=GPa)
#
#
# Indices 1 2 3 4 5 6 
#
# 1 63.5227 47.4915 26.2439 0.0000 0.0000 0.0000
# 2 47.4915 142.8055 67.0666 0.0000 0.0000 0.0000
# 3 26.2439 67.0666 99.8830 0.0000 0.0000 0.0000
# 4 0.0000 0.0000 0.0000 40.0070 0.0000 0.0000
# 5 0.0000 0.0000 0.0000 0.0000 4.2419 0.0000
# 6 0.0000 0.0000 0.0000 0.0000 0.0000 16.6253
#
#
#
# Elastic Compliance Matrix: (Units=1/GPa)
#
#
# Indices 1 2 3 4 5 6 
#
# 1 0.021052 -0.006431 -0.001213 0.000000 0.000000 0.000000
# 2 -0.006431 0.012193 -0.006497 0.000000 0.000000 0.000000
# 3 -0.001213 -0.006497 0.014693 0.000000 0.000000 0.000000
# 4 0.000000 0.000000 0.000000 0.024996 0.000000 0.000000
# 5 0.000000 0.000000 0.000000 0.000000 0.235745 0.000000
# 6 0.000000 0.000000 0.000000 0.000000 0.000000 0.060149
#
#
# Mechanical properties :
#
#
# Convention : Reuss Voigt Hill
#
# Bulk Modulus (GPa) = 50.87839 65.31280 58.09559
# Shear Modulus (GPa) = 12.38663 23.20211 17.79437
#
# Velocity S-wave (km/s) = 2.58529 3.53831 3.09866
# Velocity P-wave (km/s) = 6.03035 7.20660 6.64456
#
# Compressibility (1/GPa) = 0.01965471
#
# Stress axis : x y z
#
# Youngs Moduli (GPa) = 47.50191 82.01758 68.06079
#
# Poissons Ratio (x) = 0.52748 0.08255
# Poissons Ratio (y) = 0.30550 0.44218
# Poissons Ratio (z) = 0.05762 0.53286
#
# Static dielectric constant tensor:
#      x y z
#    x 1.629740 0.000000 0.000000 
#    y 0.000000 1.644330 0.000000 
#    z 0.000000 0.000000 1.644570 
# 
# From -- ./inp_files/62384.got.cif
#   From: 2010.05.17/outbox.cif.g08.bks.cpg/sg66_32_cif.got.tgz:62384.got - 2010.06.03 17:51:23.
