data_PCOD9496104
_publ_section_title
;
Structure prediction by ZEFSAII (Michael W. Deem and Ramdas Pophale) SiO2 
 PCOD9496104
Probable space group: C C C M
;
_chemical_formula_sum "Si O2"
_cell_formula_units_Z 88
_cell_length_a 12.398959
_cell_length_b 23.240760
_cell_length_c 15.277001
_cell_angle_alpha 90.000000
_cell_angle_beta 90.000000
_cell_angle_gamma 90.000000
_cell_volume 4402.239405
_symmetry_space_group_name_H-M "C C C M"
_symmetry_group_IT_number 66
_symmetry_cell_setting 'orthorhombic'
loop_
_space_group_symop_operation_xyz
x,y,z
-x,-y,z
x,-y,1/2-z
-x,y,1/2-z
-x,-y,-z
x,y,-z
-x,y,1/2+z
x,-y,1/2+z
1/2+x,1/2+y,z
1/2-x,1/2-y,z
1/2+x,1/2-y,1/2-z
1/2-x,1/2+y,1/2-z
1/2-x,1/2-y,-z
1/2+x,1/2+y,-z
1/2-x,1/2+y,1/2+z
1/2+x,1/2-y,1/2+z
loop_
_atom_site_type_symbol
_atom_site_label
_atom_site_fract_x
_atom_site_fract_y
_atom_site_fract_z
Si Si1 0.711841 0.363264 0.101801
Si Si2 0.501676 0.431487 0.645204
Si Si3 0.334207 0.613493 0.500000
Si Si4 0.562715 0.128551 0.164514
Si Si5 0.426712 0.733686 0.500000
Si Si6 0.592017 0.131444 0.500000
Si Si7 0.427162 0.733916 0.169011
O O1 0.607394 0.403626 0.107317
O O2 0.817475 0.393098 0.142636
O O3 0.676507 0.305898 0.154783
O O4 0.735449 0.348383 0.000000
O O5 0.500000 0.500000 0.634833
O O6 0.500000 0.419237 0.750000
O O7 0.601348 0.408114 0.586482
O O8 0.341980 0.682776 0.500000
O O9 0.207115 0.599879 0.500000
O O10 0.500000 0.107550 0.250000
O O11 0.481840 0.119424 0.084109
O O12 0.584786 0.197380 0.176060
O O13 0.389417 0.799377 0.500000
O O14 0.502077 0.724651 0.416849
O O15 0.500000 0.714614 0.250000
#
# Coordination Sequence:
#
# PCOD9496104 Si02
#       7
#    16  16   8  16   8   8  16
#     4  12  21  37  64  86 119 158 199 252 300 355
#     4  11  25  43  65  93 116 146 197 261 319 353
#     4  12  22  39  63  88 122 160 197 248 302 360
#     4  10  23  37  54  87 125 167 203 235 283 358
#     4  10  19  34  52  87 127 162 202 233 285 357
#     4  10  23  37  55  88 131 169 199 234 287 354
#     4  10  19  33  54  86 123 159 203 243 290 348
#
# _framework density 19.989826999999998
#
# number of rings (size 3 to 8) (size 9 to 14) (size 15 to 20)
#    0.000    1.273    4.545    1.636    2.545    0.727 
#    0.000    5.455    0.000    2.182    0.000    0.000 
#    0.000    0.000    0.000    0.000    0.000    0.000 
#
# Total GULP energy -245575.025326 kJ/mol
# GULP energy per Si atom -5581.250576 kJ/mol
# Density = 1.994433 g / cm^3
# Si number density = 19.989827 Si / 1000 Ang^3
#
#
#
# Elastic Constant Matrix: (Units=GPa)
#
#
# Indices 1 2 3 4 5 6 
#
# 1 178.1932 13.1587 65.4301 0.0000 0.0000 0.0000
# 2 13.1587 29.2026 4.8808 0.0000 0.0000 0.0000
# 3 65.4301 4.8808 155.0377 0.0000 0.0000 0.0000
# 4 0.0000 0.0000 0.0000 34.8025 0.0000 0.0000
# 5 0.0000 0.0000 0.0000 0.0000 -54.8114 0.0000
# 6 0.0000 0.0000 0.0000 0.0000 0.0000 9.7886
#
#
#
# Elastic Compliance Matrix: (Units=1/GPa)
#
#
# Indices 1 2 3 4 5 6 
#
# 1 0.006833 -0.002611 -0.002802 0.000000 0.000000 0.000000
# 2 -0.002611 0.035422 -0.000013 0.000000 0.000000 0.000000
# 3 -0.002802 -0.000013 0.007633 0.000000 0.000000 0.000000
# 4 0.000000 0.000000 0.000000 0.028734 0.000000 0.000000
# 5 0.000000 0.000000 0.000000 0.000000 -0.018244 0.000000
# 6 0.000000 0.000000 0.000000 0.000000 0.000000 0.102159
#
#
# Mechanical properties :
#
#
# Convention : Reuss Voigt Hill
#
# Bulk Modulus (GPa) = 25.61684 58.81918 42.21801
# Shear Modulus (GPa) = 26.82391 16.55354 21.68872
#
# Velocity S-wave (km/s) = 3.66714 2.88079 3.29749
# Velocity P-wave (km/s) = 5.54737 6.36818 5.97189
#
# Compressibility (1/GPa) = 0.03903682
#
# Stress axis : x y z
#
# Youngs Moduli (GPa) = 146.33930 28.23085 131.01251
#
# Poissons Ratio (x) = 0.07371 0.36706
# Poissons Ratio (y) = 0.38208 0.00174
# Poissons Ratio (z) = 0.41000 0.00037
#
# Static dielectric constant tensor:
#      x y z
#    x 1.717060 0.000000 0.000000 
#    y 0.000000 1.717760 0.000000 
#    z 0.000000 0.000000 1.711460 
# 
# From -- ./inp_files/26802.got.cif
#   From: 2010.05.17/outbox.cif.g08.bks.cpg/sg66_14_cif.got.tgz:26802.got - 2010.06.03 17:51:23.
