data_PCOD9496264
_publ_section_title
;
Structure prediction by ZEFSAII (Michael W. Deem and Ramdas Pophale) SiO2 
 PCOD9496264
Probable space group: C C C M
;
_chemical_formula_sum "Si O2"
_cell_formula_units_Z 116
_cell_length_a 28.579855
_cell_length_b 23.424848
_cell_length_c 9.149447
_cell_angle_alpha 90.000000
_cell_angle_beta 90.000000
_cell_angle_gamma 90.000000
_cell_volume 6125.360425
_symmetry_space_group_name_H-M "C C C M"
_symmetry_group_IT_number 66
_symmetry_cell_setting 'orthorhombic'
loop_
_space_group_symop_operation_xyz
x,y,z
-x,-y,z
x,-y,1/2-z
-x,y,1/2-z
-x,-y,-z
x,y,-z
-x,y,1/2+z
x,-y,1/2+z
1/2+x,1/2+y,z
1/2-x,1/2-y,z
1/2+x,1/2-y,1/2-z
1/2-x,1/2+y,1/2-z
1/2-x,1/2-y,-z
1/2+x,1/2+y,-z
1/2-x,1/2+y,1/2+z
1/2+x,1/2-y,1/2+z
loop_
_atom_site_type_symbol
_atom_site_label
_atom_site_fract_x
_atom_site_fract_y
_atom_site_fract_z
Si Si1 0.804101 0.258645 0.825311
Si Si2 0.758196 0.940463 0.326238
Si Si3 0.500000 0.000000 0.750000
Si Si4 0.614587 0.319183 0.824227
Si Si5 0.073856 0.598469 0.668258
Si Si6 0.951441 0.284694 0.175543
Si Si7 0.869152 0.059056 0.825398
Si Si8 0.176892 0.626387 0.673482
O O1 0.750000 0.250000 0.787817
O O2 0.832456 0.200918 0.796338
O O3 0.828064 0.309902 0.737164
O O4 0.807435 0.270973 0.000000
O O5 0.751112 0.942333 0.500000
O O6 0.813440 0.931485 0.300315
O O7 0.722604 0.896328 0.255413
O O8 0.746266 0.000000 0.250000
O O9 0.462226 0.954689 0.681291
O O10 0.583338 0.265917 0.776449
O O11 0.606087 0.383164 0.769558
O O12 0.609445 0.322383 0.000000
O O13 0.071321 0.618222 0.500000
O O14 0.060321 0.651399 0.770809
O O15 0.129381 0.589515 0.700230
O O16 0.000000 0.270153 0.250000
O O17 0.953440 0.285240 0.000000
O O18 0.882913 0.000000 0.750000
O O19 0.875557 0.053592 0.000000
O O20 0.184450 0.627484 0.500000
#
# Coordination Sequence:
#
# PCOD9496264 Si02
#       8
#    16  16   4  16  16  16  16  16
#     4  10  19  34  57  83 112 152 198 238 287 355
#     4  10  20  35  55  79 111 154 198 239 284 343
#     4  12  26  44  68  86 110 152 204 252 314 356
#     4   9  18  34  57  85 113 150 191 233 288 351
#     4  11  25  43  61  85 114 147 194 249 302 357
#     4  11  22  39  64  88 116 150 190 240 295 351
#     4   9  18  35  58  85 117 150 193 236 278 338
#     4  11  23  37  53  80 117 151 190 246 301 350
#
# _framework density 18.937662
#
# number of rings (size 3 to 8) (size 9 to 14) (size 15 to 20)
#    0.000    1.793    2.069    2.276    0.966    4.138 
#    0.000    2.069    0.000    0.414    0.000    2.897 
#    0.000    0.000    0.000    0.000    0.000    0.000 
#
# Total GULP energy -323217.399330 kJ/mol
# GULP energy per Si atom -5572.713782 kJ/mol
# Density = 1.889456 g / cm^3
# Si number density = 18.937662 Si / 1000 Ang^3
#
#
#
# Elastic Constant Matrix: (Units=GPa)
#
#
# Indices 1 2 3 4 5 6 
#
# 1 54.0077 25.5079 24.9656 0.0000 0.0000 0.0000
# 2 25.5079 127.3472 31.1257 0.0000 0.0000 0.0000
# 3 24.9656 31.1257 45.6206 0.0000 0.0000 0.0000
# 4 0.0000 0.0000 0.0000 23.2119 0.0000 0.0000
# 5 0.0000 0.0000 0.0000 0.0000 21.4098 0.0000
# 6 0.0000 0.0000 0.0000 0.0000 0.0000 35.3056
#
#
#
# Elastic Compliance Matrix: (Units=1/GPa)
#
#
# Indices 1 2 3 4 5 6 
#
# 1 0.025209 -0.002013 -0.012422 0.000000 0.000000 0.000000
# 2 -0.002013 0.009585 -0.005438 0.000000 0.000000 0.000000
# 3 -0.012422 -0.005438 0.032428 0.000000 0.000000 0.000000
# 4 0.000000 0.000000 0.000000 0.043081 0.000000 0.000000
# 5 0.000000 0.000000 0.000000 0.000000 0.046708 0.000000
# 6 0.000000 0.000000 0.000000 0.000000 0.000000 0.028324
#
#
# Mechanical properties :
#
#
# Convention : Reuss Voigt Hill
#
# Bulk Modulus (GPa) = 36.39569 43.35267 39.87418
# Shear Modulus (GPa) = 21.34572 25.67720 23.51146
#
# Velocity S-wave (km/s) = 3.36096 3.68622 3.52734
# Velocity P-wave (km/s) = 5.85848 6.40778 6.13928
#
# Compressibility (1/GPa) = 0.02747578
#
# Stress axis : x y z
#
# Youngs Moduli (GPa) = 39.66857 104.33092 30.83784
#
# Poissons Ratio (x) = 0.21005 0.38306
# Poissons Ratio (y) = 0.07986 0.16769
# Poissons Ratio (z) = 0.49275 0.56733
#
# Static dielectric constant tensor:
#      x y z
#    x 1.689120 0.000000 0.000000 
#    y 0.000000 1.625350 0.000000 
#    z 0.000000 0.000000 1.632200 
# 
# From -- ./inp_files/10598.got.cif
#   From: 2010.05.17/outbox.cif.g08.bks.cpg/sg66_6_cif.got.tgz:10598.got - 2010.06.03 17:51:23.
