data_PCOD9496386
_publ_section_title
;
Structure prediction by ZEFSAII (Michael W. Deem and Ramdas Pophale) SiO2 
 PCOD9496386
Probable space group: C C C M
;
_chemical_formula_sum "Si O2"
_cell_formula_units_Z 80
_cell_length_a 9.895825
_cell_length_b 17.209665
_cell_length_c 21.611091
_cell_angle_alpha 90.000000
_cell_angle_beta 90.000000
_cell_angle_gamma 90.000000
_cell_volume 3680.451636
_symmetry_space_group_name_H-M "C C C M"
_symmetry_group_IT_number 66
_symmetry_cell_setting 'orthorhombic'
loop_
_space_group_symop_operation_xyz
x,y,z
-x,-y,z
x,-y,1/2-z
-x,y,1/2-z
-x,-y,-z
x,y,-z
-x,y,1/2+z
x,-y,1/2+z
1/2+x,1/2+y,z
1/2-x,1/2-y,z
1/2+x,1/2-y,1/2-z
1/2-x,1/2+y,1/2-z
1/2-x,1/2-y,-z
1/2+x,1/2+y,-z
1/2-x,1/2+y,1/2+z
1/2+x,1/2-y,1/2+z
loop_
_atom_site_type_symbol
_atom_site_label
_atom_site_fract_x
_atom_site_fract_y
_atom_site_fract_z
Si Si1 0.470757 0.865949 0.428590
Si Si2 0.250000 0.250000 0.331318
Si Si3 0.500000 0.734097 0.750000
Si Si4 0.699235 0.443919 0.426554
Si Si5 0.396037 0.708623 0.624080
Si Si6 0.278975 0.611495 0.927175
O O1 0.434011 0.852380 0.500000
O O2 0.346290 0.915293 0.401536
O O3 0.484455 0.780397 0.400116
O O4 0.616645 0.904769 0.427132
O O5 0.373914 0.224947 0.285401
O O6 0.295063 0.320616 0.376618
O O7 0.429647 0.688490 0.694458
O O8 0.710719 0.454518 0.500000
O O9 0.603977 0.370204 0.414278
O O10 0.658429 0.529694 0.405469
O O11 0.250000 0.750000 0.620208
O O12 0.312363 0.631620 0.000000
#
# Coordination Sequence:
#
# PCOD9496386 Si02
#       6
#    16   8   8  16  16  16
#     4   9  16  30  58  91 122 157 199 253 313 371
#     4  12  25  44  64  88 121 168 216 258 308 370
#     4  12  24  42  65  83 118 168 218 260 296 371
#     4   9  18  33  58  95 128 155 195 258 324 381
#     4  10  19  35  59  86 122 160 202 249 310 371
#     4  10  20  37  62  91 124 159 205 264 322 374
#
# _framework density 21.736462
#
# number of rings (size 3 to 8) (size 9 to 14) (size 15 to 20)
#    0.000    2.000    3.000    1.500    0.000    4.800 
#    0.000    3.000    0.000    7.200    0.000    0.000 
#    0.000    0.000    0.000    0.000    0.000    0.000 
#
# Total GULP energy -222861.255450 kJ/mol
# GULP energy per Si atom -5571.531386 kJ/mol
# Density = 2.168699 g / cm^3
# Si number density = 21.736462 Si / 1000 Ang^3
#
#
#
# Elastic Constant Matrix: (Units=GPa)
#
#
# Indices 1 2 3 4 5 6 
#
# 1 59.5823 32.6154 13.4214 0.0000 0.0000 0.0000
# 2 32.6154 159.0813 44.5080 0.0000 0.0000 0.0000
# 3 13.4214 44.5080 58.8844 0.0000 0.0000 0.0000
# 4 0.0000 0.0000 0.0000 5.9018 0.0000 0.0000
# 5 0.0000 0.0000 0.0000 0.0000 31.9270 0.0000
# 6 0.0000 0.0000 0.0000 0.0000 0.0000 30.8918
#
#
#
# Elastic Compliance Matrix: (Units=1/GPa)
#
#
# Indices 1 2 3 4 5 6 
#
# 1 0.019048 -0.003412 -0.001762 0.000000 0.000000 0.000000
# 2 -0.003412 0.008583 -0.005710 0.000000 0.000000 0.000000
# 3 -0.001762 -0.005710 0.021700 0.000000 0.000000 0.000000
# 4 0.000000 0.000000 0.000000 0.169439 0.000000 0.000000
# 5 0.000000 0.000000 0.000000 0.000000 0.031321 0.000000
# 6 0.000000 0.000000 0.000000 0.000000 0.000000 0.032371
#
#
# Mechanical properties :
#
#
# Convention : Reuss Voigt Hill
#
# Bulk Modulus (GPa) = 36.28141 50.95971 43.62056
# Shear Modulus (GPa) = 15.95305 26.21101 21.08203
#
# Velocity S-wave (km/s) = 2.71205 3.47631 3.11769
# Velocity P-wave (km/s) = 5.15119 6.29350 5.75078
#
# Compressibility (1/GPa) = 0.02756232
#
# Stress axis : x y z
#
# Youngs Moduli (GPa) = 52.49783 116.50649 46.08295
#
# Poissons Ratio (x) = 0.39755 0.08122
# Poissons Ratio (y) = 0.17914 0.26313
# Poissons Ratio (z) = 0.09253 0.66524
#
# Static dielectric constant tensor:
#      x y z
#    x 1.971010 0.000000 0.000000 
#    y 0.000000 1.783400 0.000000 
#    z 0.000000 0.000000 1.759940 
# 
# From -- ./inp_files/48469.got.cif
#   From: 2010.05.17/outbox.cif.g08.bks.cpg/sg66_25_cif.got.tgz:48469.got - 2010.06.03 17:51:23.
