data_PCOD9496763
_publ_section_title
;
Structure prediction by ZEFSAII (Michael W. Deem and Ramdas Pophale) SiO2 
 PCOD9496763
Probable space group: C C C M
;
_chemical_formula_sum "Si O2"
_cell_formula_units_Z 80
_cell_length_a 26.912528
_cell_length_b 17.090991
_cell_length_c 10.232863
_cell_angle_alpha 90.000000
_cell_angle_beta 90.000000
_cell_angle_gamma 90.000000
_cell_volume 4706.725817
_symmetry_space_group_name_H-M "C C C M"
_symmetry_group_IT_number 66
_symmetry_cell_setting 'orthorhombic'
loop_
_space_group_symop_operation_xyz
x,y,z
-x,-y,z
x,-y,1/2-z
-x,y,1/2-z
-x,-y,-z
x,y,-z
-x,y,1/2+z
x,-y,1/2+z
1/2+x,1/2+y,z
1/2-x,1/2-y,z
1/2+x,1/2-y,1/2-z
1/2-x,1/2+y,1/2-z
1/2-x,1/2-y,-z
1/2+x,1/2+y,-z
1/2-x,1/2+y,1/2+z
1/2+x,1/2-y,1/2+z
loop_
_atom_site_type_symbol
_atom_site_label
_atom_site_fract_x
_atom_site_fract_y
_atom_site_fract_z
Si Si1 0.043579 0.342624 0.150903
Si Si2 0.692463 0.763024 0.155881
Si Si3 0.596328 0.318563 0.263683
Si Si4 0.553591 0.607402 0.500000
Si Si5 0.564227 0.422120 0.500000
Si Si6 0.853599 0.568627 0.150122
O O1 0.065317 0.257443 0.188784
O O2 0.089317 0.402692 0.161424
O O3 0.000000 0.362766 0.250000
O O4 0.026847 0.340503 0.000000
O O5 0.750000 0.750000 0.185862
O O6 0.653471 0.709920 0.234794
O O7 0.678243 0.853469 0.176580
O O8 0.684218 0.747398 0.000000
O O9 0.574978 0.349486 0.127430
O O10 0.588806 0.385335 0.371767
O O11 0.567798 0.515664 0.500000
O O12 0.493573 0.604957 0.500000
O O13 0.842932 0.500000 0.250000
O O14 0.845069 0.544493 0.000000
#
# Coordination Sequence:
#
# PCOD9496763 Si02
#       6
#    16  16  16   8   8  16
#     4  10  20  33  53  78 107 145 186 221 262 323
#     4   9  18  38  66  82 102 147 192 227 275 336
#     4  11  20  36  55  81 109 145 192 232 271 335
#     4  11  24  32  53  82 117 153 184 229 294 324
#     4  11  20  38  53  76 115 159 190 227 272 344
#     4   9  19  36  55  81 110 139 178 220 270 325
#
# _framework density 16.996953999999999
#
# number of rings (size 3 to 8) (size 9 to 14) (size 15 to 20)
#    0.000    2.000    2.000    3.600    1.400    2.800 
#    5.400    4.500    0.000    0.000    0.000    0.000 
#    0.000    0.000    0.000    0.000    0.000    0.000 
#
# Total GULP energy -223283.562672 kJ/mol
# GULP energy per Si atom -5582.089067 kJ/mol
# Density = 1.695827 g / cm^3
# Si number density = 16.996954 Si / 1000 Ang^3
#
#
#
# Elastic Constant Matrix: (Units=GPa)
#
#
# Indices 1 2 3 4 5 6 
#
# 1 108.1127 45.2955 57.4768 0.0000 0.0000 0.0000
# 2 45.2955 78.4856 58.5002 0.0000 0.0000 0.0000
# 3 57.4768 58.5002 122.3264 0.0000 0.0000 0.0000
# 4 0.0000 0.0000 0.0000 28.2431 0.0000 0.0000
# 5 0.0000 0.0000 0.0000 0.0000 13.9004 0.0000
# 6 0.0000 0.0000 0.0000 0.0000 0.0000 9.3157
#
#
#
# Elastic Compliance Matrix: (Units=1/GPa)
#
#
# Indices 1 2 3 4 5 6 
#
# 1 0.013364 -0.004712 -0.004026 0.000000 0.000000 0.000000
# 2 -0.004712 0.021460 -0.008049 0.000000 0.000000 0.000000
# 3 -0.004026 -0.008049 0.013916 0.000000 0.000000 0.000000
# 4 0.000000 0.000000 0.000000 0.035407 0.000000 0.000000
# 5 0.000000 0.000000 0.000000 0.000000 0.071940 0.000000
# 6 0.000000 0.000000 0.000000 0.000000 0.000000 0.107346
#
#
# Mechanical properties :
#
#
# Convention : Reuss Voigt Hill
#
# Bulk Modulus (GPa) = 65.93554 70.16329 68.04941
# Shear Modulus (GPa) = 16.55296 20.13532 18.34414
#
# Velocity S-wave (km/s) = 3.12409 3.44560 3.28877
# Velocity P-wave (km/s) = 7.20347 7.56301 7.38543
#
# Compressibility (1/GPa) = 0.01516633
#
# Stress axis : x y z
#
# Youngs Moduli (GPa) = 74.82755 46.59892 71.86154
#
# Poissons Ratio (x) = 0.21957 0.28931
# Poissons Ratio (y) = 0.35258 0.57840
# Poissons Ratio (z) = 0.30125 0.37506
#
# Static dielectric constant tensor:
#      x y z
#    x 1.568710 0.000000 0.000000 
#    y 0.000000 1.559100 0.000000 
#    z 0.000000 0.000000 1.557500 
# 
# From -- ./inp_files/6766.got.cif
#   From: 2010.05.17/outbox.cif.g08.bks.cpg/sg66_4_cif.got.tgz:6766.got - 2010.06.03 17:51:23.
