data_PCOD9496457
_publ_section_title
;
Structure prediction by ZEFSAII (Michael W. Deem and Ramdas Pophale) SiO2 
 PCOD9496457
Probable space group: C C C M
;
_chemical_formula_sum "Si O2"
_cell_formula_units_Z 88
_cell_length_a 7.889046
_cell_length_b 18.989576
_cell_length_c 30.888155
_cell_angle_alpha 90.000000
_cell_angle_beta 90.000000
_cell_angle_gamma 90.000000
_cell_volume 4627.343337
_symmetry_space_group_name_H-M "C C C M"
_symmetry_group_IT_number 66
_symmetry_cell_setting 'orthorhombic'
loop_
_space_group_symop_operation_xyz
x,y,z
-x,-y,z
x,-y,1/2-z
-x,y,1/2-z
-x,-y,-z
x,y,-z
-x,y,1/2+z
x,-y,1/2+z
1/2+x,1/2+y,z
1/2-x,1/2-y,z
1/2+x,1/2-y,1/2-z
1/2-x,1/2+y,1/2-z
1/2-x,1/2-y,-z
1/2+x,1/2+y,-z
1/2-x,1/2+y,1/2+z
1/2+x,1/2-y,1/2+z
loop_
_atom_site_type_symbol
_atom_site_label
_atom_site_fract_x
_atom_site_fract_y
_atom_site_fract_z
Si Si1 0.957061 0.171359 0.359038
Si Si2 0.833292 0.386839 0.130437
Si Si3 0.938302 0.283282 0.796887
Si Si4 0.925456 0.608925 0.951497
Si Si5 0.312933 0.469823 0.887558
Si Si6 0.750000 0.750000 0.070267
O O1 0.847178 0.100169 0.359408
O O2 0.892298 0.218199 0.398411
O O3 0.150489 0.150617 0.368980
O O4 0.951120 0.219125 0.316498
O O5 0.935279 0.346262 0.167912
O O6 0.790799 0.469283 0.136791
O O7 0.926716 0.382585 0.084210
O O8 0.750000 0.250000 0.793365
O O9 0.000000 0.305914 0.750000
O O10 0.793701 0.554203 0.929493
O O11 0.829724 0.683865 0.953740
O O12 0.979074 0.588923 0.000000
O O13 0.500000 0.500000 0.898802
#
# Coordination Sequence:
#
# PCOD9496457 Si02
#       6
#    16  16  16  16  16   8
#     4   9  19  37  60  83 112 153 189 233 290 347
#     4  10  20  38  57  86 118 149 190 241 287 343
#     4  10  21  35  61  90 114 145 192 240 287 346
#     4  11  22  35  57  84 115 154 198 239 286 344
#     4   9  20  37  59  80 115 156 188 236 296 343
#     4  10  19  36  58  82 114 152 188 236 293 338
#
# _framework density 19.017389999999999
#
# number of rings (size 3 to 8) (size 9 to 14) (size 15 to 20)
#    0.000    2.182    1.818    0.818    1.273    1.818 
#    0.000    9.091    0.000   26.727    0.000    0.000 
#    0.000    0.000    0.000    0.000    0.000    0.000 
#
# Total GULP energy -245380.764549 kJ/mol
# GULP energy per Si atom -5576.835558 kJ/mol
# Density = 1.897411 g / cm^3
# Si number density = 19.017390 Si / 1000 Ang^3
#
#
#
# Elastic Constant Matrix: (Units=GPa)
#
#
# Indices 1 2 3 4 5 6 
#
# 1 54.7949 32.5411 44.7426 0.0000 0.0000 0.0000
# 2 32.5411 128.0820 67.2317 0.0000 0.0000 0.0000
# 3 44.7426 67.2317 142.2157 0.0000 0.0000 0.0000
# 4 0.0000 0.0000 0.0000 40.1402 0.0000 0.0000
# 5 0.0000 0.0000 0.0000 0.0000 -37.3381 0.0000
# 6 0.0000 0.0000 0.0000 0.0000 0.0000 23.2121
#
#
#
# Elastic Compliance Matrix: (Units=1/GPa)
#
#
# Indices 1 2 3 4 5 6 
#
# 1 0.025399 -0.003004 -0.006571 0.000000 0.000000 0.000000
# 2 -0.003004 0.010740 -0.004132 0.000000 0.000000 0.000000
# 3 -0.006571 -0.004132 0.011052 0.000000 0.000000 0.000000
# 4 0.000000 0.000000 0.000000 0.024913 0.000000 0.000000
# 5 0.000000 0.000000 0.000000 0.000000 -0.026782 0.000000
# 6 0.000000 0.000000 0.000000 0.000000 0.000000 0.043081
#
#
# Mechanical properties :
#
#
# Convention : Reuss Voigt Hill
#
# Bulk Modulus (GPa) = 50.56243 68.23594 59.39918
# Shear Modulus (GPa) = 40.84690 17.24133 29.04412
#
# Velocity S-wave (km/s) = 4.63954 3.01426 3.91223
# Velocity P-wave (km/s) = 7.43947 6.93347 7.19092
#
# Compressibility (1/GPa) = 0.01977753
#
# Stress axis : x y z
#
# Youngs Moduli (GPa) = 39.37135 93.11289 90.47978
#
# Poissons Ratio (x) = 0.27971 0.59452
# Poissons Ratio (y) = 0.11827 0.37387
# Poissons Ratio (z) = 0.25870 0.38475
#
# Static dielectric constant tensor:
#      x y z
#    x 1.676170 0.000000 0.000000 
#    y 0.000000 1.697570 0.000000 
#    z 0.000000 0.000000 1.625370 
# 
# From -- ./inp_files/68176.got.cif
#   From: 2010.05.17/outbox.cif.g08.bks.cpg/sg66_35_cif.got.tgz:68176.got - 2010.06.03 17:51:23.
