data_PCOD9496540
_publ_section_title
;
Structure prediction by ZEFSAII (Michael W. Deem and Ramdas Pophale) SiO2 
 PCOD9496540
Probable space group: C C C M
;
_chemical_formula_sum "Si O2"
_cell_formula_units_Z 88
_cell_length_a 22.062346
_cell_length_b 12.153745
_cell_length_c 14.916776
_cell_angle_alpha 90.000000
_cell_angle_beta 90.000000
_cell_angle_gamma 90.000000
_cell_volume 3999.786217
_symmetry_space_group_name_H-M "C C C M"
_symmetry_group_IT_number 66
_symmetry_cell_setting 'orthorhombic'
loop_
_space_group_symop_operation_xyz
x,y,z
-x,-y,z
x,-y,1/2-z
-x,y,1/2-z
-x,-y,-z
x,y,-z
-x,y,1/2+z
x,-y,1/2+z
1/2+x,1/2+y,z
1/2-x,1/2-y,z
1/2+x,1/2-y,1/2-z
1/2-x,1/2+y,1/2-z
1/2-x,1/2-y,-z
1/2+x,1/2+y,-z
1/2-x,1/2+y,1/2+z
1/2+x,1/2-y,1/2+z
loop_
_atom_site_type_symbol
_atom_site_label
_atom_site_fract_x
_atom_site_fract_y
_atom_site_fract_z
Si Si1 0.984372 0.316574 0.845518
Si Si2 0.913496 0.475475 0.605000
Si Si3 0.333333 0.415045 0.825733
Si Si4 0.953837 0.160318 0.000000
Si Si5 0.408789 0.424439 0.000000
Si Si6 0.250000 0.750000 0.776859
Si Si7 0.783013 0.546025 0.394819
O O1 0.047634 0.365387 0.883205
O O2 0.000000 0.265885 0.750000
O O3 0.943170 0.425953 0.837932
O O4 0.950445 0.235475 0.912255
O O5 0.920868 0.507638 0.500000
O O6 0.842597 0.473542 0.625261
O O7 0.358888 0.500000 0.750000
O O8 0.377575 0.387715 0.907597
O O9 0.302640 0.309567 0.779803
O O10 0.276717 0.479743 0.869178
O O11 0.022257 0.114528 0.000000
O O12 0.908849 0.057923 0.000000
O O13 0.218946 0.656861 0.837777
O O14 0.783427 0.571595 0.500000
#
# Coordination Sequence:
#
# PCOD9496540 Si02
#       7
#    16  16  16   8   8   8  16
#     4  11  22  39  64  93 127 166 204 260 323 383
#     4  10  19  37  63  95 134 161 200 255 325 392
#     4  10  23  44  66  95 132 167 214 270 321 383
#     4  11  26  45  63  89 119 163 226 268 303 386
#     4  11  26  47  65  83 125 173 214 271 323 356
#     4  10  23  39  62 100 138 162 226 264 310 402
#     4  10  21  39  66  96 131 176 210 264 329 385
#
# _framework density 22.001176999999998
#
# number of rings (size 3 to 8) (size 9 to 14) (size 15 to 20)
#    0.000    1.636    2.727    1.909    0.000   12.000 
#    0.000    1.818    0.000    0.000    0.000    0.000 
#    0.000    0.000    0.000    0.000    0.000    0.000 
#
# Total GULP energy -246105.001644 kJ/mol
# GULP energy per Si atom -5593.295492 kJ/mol
# Density = 2.195110 g / cm^3
# Si number density = 22.001177 Si / 1000 Ang^3
#
#
#
# Elastic Constant Matrix: (Units=GPa)
#
#
# Indices 1 2 3 4 5 6 
#
# 1 51.8307 -9.4925 2.8152 0.0000 0.0000 0.0000
# 2 -9.4925 67.0129 12.3280 0.0000 0.0000 0.0000
# 3 2.8152 12.3280 104.1677 0.0000 0.0000 0.0000
# 4 0.0000 0.0000 0.0000 192.8679 0.0000 0.0000
# 5 0.0000 0.0000 0.0000 0.0000 -49.3060 0.0000
# 6 0.0000 0.0000 0.0000 0.0000 0.0000 15.2975
#
#
#
# Elastic Compliance Matrix: (Units=1/GPa)
#
#
# Indices 1 2 3 4 5 6 
#
# 1 0.019888 0.002981 -0.000890 0.000000 0.000000 0.000000
# 2 0.002981 0.015701 -0.001939 0.000000 0.000000 0.000000
# 3 -0.000890 -0.001939 0.009853 0.000000 0.000000 0.000000
# 4 0.000000 0.000000 0.000000 0.005185 0.000000 0.000000
# 5 0.000000 0.000000 0.000000 0.000000 -0.020282 0.000000
# 6 0.000000 0.000000 0.000000 0.000000 0.000000 0.065370
#
#
# Mechanical properties :
#
#
# Convention : Reuss Voigt Hill
#
# Bulk Modulus (GPa) = 21.85962 26.03476 23.94719
# Shear Modulus (GPa) = 45.18288 46.26259 45.72273
#
# Velocity S-wave (km/s) = 4.53665 4.59053 4.56367
# Velocity P-wave (km/s) = 6.11545 6.32110 6.21913
#
# Compressibility (1/GPa) = 0.04574644
#
# Stress axis : x y z
#
# Youngs Moduli (GPa) = 50.28191 63.68852 101.48762
#
# Poissons Ratio (x) = -0.18985 0.09035
# Poissons Ratio (y) = -0.14989 0.19676
# Poissons Ratio (z) = 0.04476 0.12348
#
# Static dielectric constant tensor:
#      x y z
#    x 1.786180 0.000000 0.000000 
#    y 0.000000 1.797680 0.000000 
#    z 0.000000 0.000000 1.831750 
# 
# From -- ./inp_files/32245.got.cif
#   From: 2010.05.17/outbox.cif.g08.bks.cpg/sg66_17_cif.got.tgz:32245.got - 2010.06.03 17:51:23.
