data_PCOD9496084
_publ_section_title
;
Structure prediction by ZEFSAII (Michael W. Deem and Ramdas Pophale) SiO2 
 PCOD9496084
Probable space group: C C C M
;
_chemical_formula_sum "Si O2"
_cell_formula_units_Z 88
_cell_length_a 17.522822
_cell_length_b 21.115449
_cell_length_c 10.458380
_cell_angle_alpha 90.000000
_cell_angle_beta 90.000000
_cell_angle_gamma 90.000000
_cell_volume 3869.624176
_symmetry_space_group_name_H-M "C C C M"
_symmetry_group_IT_number 66
_symmetry_cell_setting 'orthorhombic'
loop_
_space_group_symop_operation_xyz
x,y,z
-x,-y,z
x,-y,1/2-z
-x,y,1/2-z
-x,-y,-z
x,y,-z
-x,y,1/2+z
x,-y,1/2+z
1/2+x,1/2+y,z
1/2-x,1/2-y,z
1/2+x,1/2-y,1/2-z
1/2-x,1/2+y,1/2-z
1/2-x,1/2-y,-z
1/2+x,1/2+y,-z
1/2-x,1/2+y,1/2+z
1/2+x,1/2-y,1/2+z
loop_
_atom_site_type_symbol
_atom_site_label
_atom_site_fract_x
_atom_site_fract_y
_atom_site_fract_z
Si Si1 0.332358 0.233664 0.780240
Si Si2 0.621606 0.914731 0.500000
Si Si3 0.554600 0.237599 0.500000
Si Si4 0.828564 0.418409 0.280985
Si Si5 0.046835 0.933572 0.862508
Si Si6 0.191175 0.000000 0.250000
Si Si7 0.945184 0.416570 0.500000
Si Si8 0.378593 0.239140 0.500000
O O1 0.250000 0.250000 0.833477
O O2 0.331082 0.157477 0.780558
O O3 0.341774 0.258972 0.635046
O O4 0.399256 0.256698 0.873188
O O5 0.659475 0.935672 0.367748
O O6 0.533278 0.934894 0.500000
O O7 0.624307 0.837863 0.500000
O O8 0.554211 0.160473 0.500000
O O9 0.467208 0.256766 0.500000
O O10 0.748552 0.450685 0.319593
O O11 0.897889 0.436279 0.374675
O O12 0.000000 0.899184 0.750000
O O13 0.132568 0.955549 0.829009
O O14 0.044959 0.901643 0.000000
O O15 0.000000 0.000000 0.874312
#
# Coordination Sequence:
#
# PCOD9496084 Si02
#       8
#    16   8   8  16  16   8   8   8
#     4  10  19  33  53  79 103 132 167 214 259 301
#     4   9  18  34  51  71 101 140 178 210 241 295
#     4   9  17  31  54  76 100 135 176 207 247 305
#     4  10  21  33  51  77 103 135 172 207 257 294
#     4   8  16  32  54  75  94 128 171 207 250 304
#     4  10  21  32  51  78 108 134 166 212 249 306
#     4   9  18  34  51  71 101 140 178 210 241 295
#     4   9  17  31  54  76 100 135 176 207 247 305
#
# _framework density 22.741226999999999
#
# number of rings (size 3 to 8) (size 9 to 14) (size 15 to 20)
#    0.000    2.909    0.000    1.636    2.545    4.364 
#    0.000    2.727    0.000    8.727    0.000    0.000 
#    0.000    0.000    0.000    0.000    0.000    0.000 
#
# Total GULP energy -245465.916596 kJ/mol
# GULP energy per Si atom -5578.770832 kJ/mol
# Density = 2.268947 g / cm^3
# Si number density = 22.741227 Si / 1000 Ang^3
#
#
#
# Elastic Constant Matrix: (Units=GPa)
#
#
# Indices 1 2 3 4 5 6 
#
# 1 134.3199 -5.8263 44.7216 0.0000 0.0000 0.0000
# 2 -5.8263 21.8526 10.5715 0.0000 0.0000 0.0000
# 3 44.7216 10.5715 148.5951 0.0000 0.0000 0.0000
# 4 0.0000 0.0000 0.0000 -5.9454 0.0000 0.0000
# 5 0.0000 0.0000 0.0000 0.0000 124.1703 0.0000
# 6 0.0000 0.0000 0.0000 0.0000 0.0000 7.4907
#
#
#
# Elastic Compliance Matrix: (Units=1/GPa)
#
#
# Indices 1 2 3 4 5 6 
#
# 1 0.008546 0.003648 -0.002832 0.000000 0.000000 0.000000
# 2 0.003648 0.048950 -0.004580 0.000000 0.000000 0.000000
# 3 -0.002832 -0.004580 0.007908 0.000000 0.000000 0.000000
# 4 0.000000 0.000000 0.000000 -0.168197 0.000000 0.000000
# 5 0.000000 0.000000 0.000000 0.000000 0.008053 0.000000
# 6 0.000000 0.000000 0.000000 0.000000 0.000000 0.133499
#
#
# Mechanical properties :
#
#
# Convention : Reuss Voigt Hill
#
# Bulk Modulus (GPa) = 17.27833 44.85570 31.06702
# Shear Modulus (GPa) = 76.24465 42.16317 59.20391
#
# Velocity S-wave (km/s) = 5.79654 4.31053 5.10786
# Velocity P-wave (km/s) = 7.23976 6.67394 6.96260
#
# Compressibility (1/GPa) = 0.05787595
#
# Stress axis : x y z
#
# Youngs Moduli (GPa) = 117.01481 20.42915 126.45813
#
# Poissons Ratio (x) = -0.07453 0.35807
# Poissons Ratio (y) = -0.42691 0.57923
# Poissons Ratio (z) = 0.33133 0.09357
#
# Static dielectric constant tensor:
#      x y z
#    x 1.783760 0.000000 0.000000 
#    y 0.000000 1.889450 0.000000 
#    z 0.000000 0.000000 1.899110 
# 
# From -- ./inp_files/16504.got.cif
#   From: 2010.05.17/outbox.cif.g08.bks.cpg/sg66_9_cif.got.tgz:16504.got - 2010.06.03 17:51:23.
