data_PCOD9496833
_publ_section_title
;
Structure prediction by ZEFSAII (Michael W. Deem and Ramdas Pophale) SiO2 
 PCOD9496833
Probable space group: C C C M
;
_chemical_formula_sum "Si O2"
_cell_formula_units_Z 68
_cell_length_a 21.963587
_cell_length_b 16.672871
_cell_length_c 10.719464
_cell_angle_alpha 90.000000
_cell_angle_beta 90.000000
_cell_angle_gamma 90.000000
_cell_volume 3925.425404
_symmetry_space_group_name_H-M "C C C M"
_symmetry_group_IT_number 66
_symmetry_cell_setting 'orthorhombic'
loop_
_space_group_symop_operation_xyz
x,y,z
-x,-y,z
x,-y,1/2-z
-x,y,1/2-z
-x,-y,-z
x,y,-z
-x,y,1/2+z
x,-y,1/2+z
1/2+x,1/2+y,z
1/2-x,1/2-y,z
1/2+x,1/2-y,1/2-z
1/2-x,1/2+y,1/2-z
1/2-x,1/2-y,-z
1/2+x,1/2+y,-z
1/2-x,1/2+y,1/2+z
1/2+x,1/2-y,1/2+z
loop_
_atom_site_type_symbol
_atom_site_label
_atom_site_fract_x
_atom_site_fract_y
_atom_site_fract_z
Si Si1 0.591370 0.366718 0.647887
Si Si2 0.845576 0.437252 0.643496
Si Si3 0.000000 0.000000 0.750000
Si Si4 0.045547 0.311751 0.856550
Si Si5 0.226685 0.837262 0.349004
O O1 0.597817 0.371300 0.500000
O O2 0.546779 0.438733 0.683816
O O3 0.562044 0.280103 0.674713
O O4 0.660468 0.363977 0.700211
O O5 0.862782 0.500000 0.750000
O O6 0.845455 0.468643 0.500000
O O7 0.893164 0.363953 0.645407
O O8 0.779115 0.401895 0.674072
O O9 0.000000 0.341770 0.750000
O O10 0.021749 0.315140 0.000000
O O11 0.222023 0.829824 0.500000
O O12 0.250000 0.750000 0.303613
#
# Coordination Sequence:
#
# PCOD9496833 Si02
#       5
#    16  16   4  16  16
#     4  10  20  34  52  78 111 144 187 227 274 337
#     4  10  21  36  58  84 113 144 187 238 283 328
#     4  12  22  32  52  82 114 144 180 224 298 340
#     4  10  20  37  58  81 108 148 188 227 275 336
#     4   9  16  32  57  79 101 142 191 231 267 325
#
# _framework density 17.322963000000001
#
# number of rings (size 3 to 8) (size 9 to 14) (size 15 to 20)
#    0.000    2.118    3.529    0.353    1.647    1.412 
#    0.000    2.353    0.000    2.118    0.000    0.000 
#    0.000    0.000    0.000    0.000    0.000    0.000 
#
# Total GULP energy -189288.110056 kJ/mol
# GULP energy per Si atom -5567.297355 kJ/mol
# Density = 1.728353 g / cm^3
# Si number density = 17.322963 Si / 1000 Ang^3
#
#
#
# Elastic Constant Matrix: (Units=GPa)
#
#
# Indices 1 2 3 4 5 6 
#
# 1 109.1939 22.2769 27.8283 0.0000 0.0000 0.0000
# 2 22.2769 83.3356 24.1906 0.0000 0.0000 0.0000
# 3 27.8283 24.1906 39.9436 0.0000 0.0000 0.0000
# 4 0.0000 0.0000 0.0000 16.3775 0.0000 0.0000
# 5 0.0000 0.0000 0.0000 0.0000 22.9739 0.0000
# 6 0.0000 0.0000 0.0000 0.0000 0.0000 67.8983
#
#
#
# Elastic Compliance Matrix: (Units=1/GPa)
#
#
# Indices 1 2 3 4 5 6 
#
# 1 0.011188 -0.000883 -0.007260 0.000000 0.000000 0.000000
# 2 -0.000883 0.014629 -0.008244 0.000000 0.000000 0.000000
# 3 -0.007260 -0.008244 0.035086 0.000000 0.000000 0.000000
# 4 0.000000 0.000000 0.000000 0.061059 0.000000 0.000000
# 5 0.000000 0.000000 0.000000 0.000000 0.043528 0.000000
# 6 0.000000 0.000000 0.000000 0.000000 0.000000 0.014728
#
#
# Mechanical properties :
#
#
# Convention : Reuss Voigt Hill
#
# Bulk Modulus (GPa) = 35.55105 42.34052 38.94579
# Shear Modulus (GPa) = 22.48517 31.99511 27.24014
#
# Velocity S-wave (km/s) = 3.60668 4.30231 3.96976
# Velocity P-wave (km/s) = 6.15721 7.01247 6.59871
#
# Compressibility (1/GPa) = 0.02812856
#
# Stress axis : x y z
#
# Youngs Moduli (GPa) = 89.37801 68.35787 28.50155
#
# Poissons Ratio (x) = 0.06039 0.20692
# Poissons Ratio (y) = 0.07896 0.23497
# Poissons Ratio (z) = 0.64887 0.56354
#
# Static dielectric constant tensor:
#      x y z
#    x 1.631890 0.000000 0.000000 
#    y 0.000000 1.604970 0.000000 
#    z 0.000000 0.000000 1.577130 
# 
# From -- ./inp_files/6266.got.cif
#   From: 2010.05.17/outbox.cif.g08.bks.cpg/sg66_4_cif.got.tgz:6266.got - 2010.06.03 17:51:23.
