data_PCOD9496707
_publ_section_title
;
Structure prediction by ZEFSAII (Michael W. Deem and Ramdas Pophale) SiO2 
 PCOD9496707
Probable space group: C C C M
;
_chemical_formula_sum "Si O2"
_cell_formula_units_Z 80
_cell_length_a 10.420688
_cell_length_b 12.874531
_cell_length_c 27.710174
_cell_angle_alpha 90.000000
_cell_angle_beta 90.000000
_cell_angle_gamma 90.000000
_cell_volume 3717.637697
_symmetry_space_group_name_H-M "C C C M"
_symmetry_group_IT_number 66
_symmetry_cell_setting 'orthorhombic'
loop_
_space_group_symop_operation_xyz
x,y,z
-x,-y,z
x,-y,1/2-z
-x,y,1/2-z
-x,-y,-z
x,y,-z
-x,y,1/2+z
x,-y,1/2+z
1/2+x,1/2+y,z
1/2-x,1/2-y,z
1/2+x,1/2-y,1/2-z
1/2-x,1/2+y,1/2-z
1/2-x,1/2-y,-z
1/2+x,1/2+y,-z
1/2-x,1/2+y,1/2+z
1/2+x,1/2-y,1/2+z
loop_
_atom_site_type_symbol
_atom_site_label
_atom_site_fract_x
_atom_site_fract_y
_atom_site_fract_z
Si Si1 0.725472 0.534465 0.802393
Si Si2 0.385558 0.584359 0.105237
Si Si3 0.843588 0.028074 0.000000
Si Si4 0.358495 0.839622 0.500000
Si Si5 0.000000 0.500000 0.837226
Si Si6 0.992328 0.309710 0.600357
Si Si7 0.750000 0.750000 0.839476
O O1 0.679967 0.500000 0.750000
O O2 0.680430 0.460514 0.846337
O O3 0.688199 0.654602 0.810783
O O4 0.880280 0.533639 0.805039
O O5 0.500000 0.500000 0.100222
O O6 0.320400 0.581812 0.052032
O O7 0.433150 0.702706 0.109593
O O8 0.736505 0.937882 0.000000
O O9 0.000000 0.000000 0.000000
O O10 0.250000 0.750000 0.500000
O O11 0.453133 0.830383 0.545512
O O12 0.950430 0.408604 0.872516
O O13 0.855302 0.298151 0.626010
#
# Coordination Sequence:
#
# PCOD9496707 Si02
#       7
#    16  16   8   8   8  16   8
#     4  11  24  43  67  93 130 171 223 277 340 409
#     4  11  21  39  63 101 129 163 223 287 332 382
#     4  10  20  32  58  97 132 168 216 283 322 382
#     4  12  20  35  64  95 132 182 235 268 337 411
#     4  10  25  43  62  90 130 179 220 262 347 430
#     4  11  22  39  64  92 133 176 222 280 334 407
#     4  10  20  41  62  88 122 173 220 266 326 412
#
# _framework density 21.519041999999999
#
# number of rings (size 3 to 8) (size 9 to 14) (size 15 to 20)
#    0.000    1.200    3.000    5.700    0.000    3.200 
#    0.000    3.000    0.000    3.600    0.000    0.000 
#    0.000    0.000    0.000    0.000    0.000    0.000 
#
# Total GULP energy -223054.114794 kJ/mol
# GULP energy per Si atom -5576.352870 kJ/mol
# Density = 2.147006 g / cm^3
# Si number density = 21.519042 Si / 1000 Ang^3
#
#
#
# Elastic Constant Matrix: (Units=GPa)
#
#
# Indices 1 2 3 4 5 6 
#
# 1 28.5960 -3.3973 16.4065 0.0000 0.0000 0.0000
# 2 -3.3973 123.4933 43.7545 0.0000 0.0000 0.0000
# 3 16.4065 43.7545 175.6399 0.0000 0.0000 0.0000
# 4 0.0000 0.0000 0.0000 26.8803 0.0000 0.0000
# 5 0.0000 0.0000 0.0000 0.0000 23.8893 0.0000
# 6 0.0000 0.0000 0.0000 0.0000 0.0000 38.5384
#
#
#
# Elastic Compliance Matrix: (Units=1/GPa)
#
#
# Indices 1 2 3 4 5 6 
#
# 1 0.037642 0.002502 -0.004139 0.000000 0.000000 0.000000
# 2 0.002502 0.009048 -0.002488 0.000000 0.000000 0.000000
# 3 -0.004139 -0.002488 0.006700 0.000000 0.000000 0.000000
# 4 0.000000 0.000000 0.000000 0.037202 0.000000 0.000000
# 5 0.000000 0.000000 0.000000 0.000000 0.041860 0.000000
# 6 0.000000 0.000000 0.000000 0.000000 0.000000 0.025948
#
#
# Mechanical properties :
#
#
# Convention : Reuss Voigt Hill
#
# Bulk Modulus (GPa) = 22.15335 49.02851 35.59093
# Shear Modulus (GPa) = 27.51846 35.92598 31.72222
#
# Velocity S-wave (km/s) = 3.57990 4.09038 3.84363
# Velocity P-wave (km/s) = 5.23495 6.71874 6.02272
#
# Compressibility (1/GPa) = 0.04513991
#
# Stress axis : x y z
#
# Youngs Moduli (GPa) = 26.56595 110.52363 149.25702
#
# Poissons Ratio (x) = -0.27655 0.61785
# Poissons Ratio (y) = -0.06647 0.37130
# Poissons Ratio (z) = 0.10997 0.27495
#
# Static dielectric constant tensor:
#      x y z
#    x 1.812210 0.000000 0.000000 
#    y 0.000000 1.846040 0.000000 
#    z 0.000000 0.000000 1.857780 
# 
# From -- ./inp_files/68825.got.cif
#   From: 2010.05.17/outbox.cif.g08.bks.cpg/sg66_35_cif.got.tgz:68825.got - 2010.06.03 17:51:23.
