data_PCOD9496985
_publ_section_title
;
Structure prediction by ZEFSAII (Michael W. Deem and Ramdas Pophale) SiO2 
 PCOD9496985
Probable space group: C C C M
;
_chemical_formula_sum "Si O2"
_cell_formula_units_Z 96
_cell_length_a 26.587491
_cell_length_b 13.531691
_cell_length_c 15.828562
_cell_angle_alpha 90.000000
_cell_angle_beta 90.000000
_cell_angle_gamma 90.000000
_cell_volume 5694.700517
_symmetry_space_group_name_H-M "C C C M"
_symmetry_group_IT_number 66
_symmetry_cell_setting 'orthorhombic'
loop_
_space_group_symop_operation_xyz
x,y,z
-x,-y,z
x,-y,1/2-z
-x,y,1/2-z
-x,-y,-z
x,y,-z
-x,y,1/2+z
x,-y,1/2+z
1/2+x,1/2+y,z
1/2-x,1/2-y,z
1/2+x,1/2-y,1/2-z
1/2-x,1/2+y,1/2-z
1/2-x,1/2-y,-z
1/2+x,1/2+y,-z
1/2-x,1/2+y,1/2+z
1/2+x,1/2-y,1/2+z
loop_
_atom_site_type_symbol
_atom_site_label
_atom_site_fract_x
_atom_site_fract_y
_atom_site_fract_z
Si Si1 0.535175 0.732377 0.167177
Si Si2 0.851151 0.880816 0.402777
Si Si3 0.307969 0.723688 0.259731
Si Si4 0.064071 0.719535 0.090559
Si Si5 0.106246 0.616347 0.751757
Si Si6 0.872153 0.886928 0.899486
O O1 0.500000 0.710750 0.250000
O O2 0.493909 0.752726 0.096868
O O3 0.568957 0.829912 0.185013
O O4 0.574631 0.648290 0.140484
O O5 0.832150 0.866044 0.500000
O O6 0.817058 0.839898 0.326265
O O7 0.902305 0.817120 0.395244
O O8 0.863633 0.995858 0.392337
O O9 0.250000 0.750000 0.269675
O O10 0.341914 0.822482 0.251398
O O11 0.330423 0.665987 0.340798
O O12 0.078740 0.642583 0.161223
O O13 0.077550 0.678573 0.000000
O O14 0.113154 0.500000 0.750000
O O15 0.870081 0.861328 0.000000
#
# Coordination Sequence:
#
# PCOD9496985 Si02
#       6
#    16  16  16  16  16  16
#     4   9  18  31  49  74 105 141 174 208 247 298
#     4   9  19  35  55  79 106 134 168 215 265 315
#     4  10  21  36  56  77 100 133 173 219 269 320
#     4   9  17  31  50  73 100 130 168 207 244 293
#     4   9  19  35  49  67  98 133 168 210 255 297
#     4  10  20  35  54  79 111 140 169 211 266 324
#
# _framework density 16.857779000000001
#
# number of rings (size 3 to 8) (size 9 to 14) (size 15 to 20)
#    0.000    2.667    0.000    2.000    0.000    5.667 
#    0.000   11.667    0.000    0.000    0.000    0.000 
#    0.000    0.000    0.000    0.000    0.000    0.000 
#
# Total GULP energy -267241.891852 kJ/mol
# GULP energy per Si atom -5567.539414 kJ/mol
# Density = 1.681941 g / cm^3
# Si number density = 16.857779 Si / 1000 Ang^3
#
#
#
# Elastic Constant Matrix: (Units=GPa)
#
#
# Indices 1 2 3 4 5 6 
#
# 1 107.9580 31.9295 42.0311 0.0000 0.0000 0.0000
# 2 31.9295 101.1194 55.0337 0.0000 0.0000 0.0000
# 3 42.0311 55.0337 98.6094 0.0000 0.0000 0.0000
# 4 0.0000 0.0000 0.0000 9.4828 0.0000 0.0000
# 5 0.0000 0.0000 0.0000 0.0000 12.0363 0.0000
# 6 0.0000 0.0000 0.0000 0.0000 0.0000 2.6455
#
#
#
# Elastic Compliance Matrix: (Units=1/GPa)
#
#
# Indices 1 2 3 4 5 6 
#
# 1 0.011233 -0.001352 -0.004034 0.000000 0.000000 0.000000
# 2 -0.001352 0.014366 -0.007442 0.000000 0.000000 0.000000
# 3 -0.004034 -0.007442 0.016013 0.000000 0.000000 0.000000
# 4 0.000000 0.000000 0.000000 0.105454 0.000000 0.000000
# 5 0.000000 0.000000 0.000000 0.000000 0.083082 0.000000
# 6 0.000000 0.000000 0.000000 0.000000 0.000000 0.378000
#
#
# Mechanical properties :
#
#
# Convention : Reuss Voigt Hill
#
# Bulk Modulus (GPa) = 62.66091 62.85280 62.75686
# Shear Modulus (GPa) = 7.82323 16.74575 12.28449
#
# Velocity S-wave (km/s) = 2.15657 3.15517 2.70240
# Velocity P-wave (km/s) = 6.59182 7.11608 6.85896
#
# Compressibility (1/GPa) = 0.01595891
#
# Stress axis : x y z
#
# Youngs Moduli (GPa) = 89.02331 69.60809 62.44775
#
# Poissons Ratio (x) = 0.09409 0.25189
# Poissons Ratio (y) = 0.12033 0.46471
# Poissons Ratio (z) = 0.35908 0.51799
#
# Static dielectric constant tensor:
#      x y z
#    x 1.552640 0.000000 0.000000 
#    y 0.000000 1.549790 0.000000 
#    z 0.000000 0.000000 1.625400 
# 
# From -- ./inp_files/43555.got.cif
#   From: 2010.05.17/outbox.cif.g08.bks.cpg/sg66_22_cif.got.tgz:43555.got - 2010.06.03 17:51:23.
