data_PCOD9496554
_publ_section_title
;
Structure prediction by ZEFSAII (Michael W. Deem and Ramdas Pophale) SiO2 
 PCOD9496554
Probable space group: C C C M
;
_chemical_formula_sum "Si O2"
_cell_formula_units_Z 88
_cell_length_a 20.547802
_cell_length_b 11.973713
_cell_length_c 18.193714
_cell_angle_alpha 90.000000
_cell_angle_beta 90.000000
_cell_angle_gamma 90.000000
_cell_volume 4476.262841
_symmetry_space_group_name_H-M "C C C M"
_symmetry_group_IT_number 66
_symmetry_cell_setting 'orthorhombic'
loop_
_space_group_symop_operation_xyz
x,y,z
-x,-y,z
x,-y,1/2-z
-x,y,1/2-z
-x,-y,-z
x,y,-z
-x,y,1/2+z
x,-y,1/2+z
1/2+x,1/2+y,z
1/2-x,1/2-y,z
1/2+x,1/2-y,1/2-z
1/2-x,1/2+y,1/2-z
1/2-x,1/2-y,-z
1/2+x,1/2+y,-z
1/2-x,1/2+y,1/2+z
1/2+x,1/2-y,1/2+z
loop_
_atom_site_type_symbol
_atom_site_label
_atom_site_fract_x
_atom_site_fract_y
_atom_site_fract_z
Si Si1 0.013891 0.730802 0.500000
Si Si2 0.368602 0.525652 0.000000
Si Si3 0.325662 0.719954 0.889152
Si Si4 0.149611 0.868689 0.269337
Si Si5 0.250000 0.250000 0.124537
Si Si6 0.339793 0.141310 0.000000
Si Si7 0.543907 0.396316 0.380056
Si Si8 0.612744 0.110866 0.000000
O O1 0.089339 0.698145 0.500000
O O2 0.002309 0.809659 0.428907
O O3 0.965196 0.627015 0.500000
O O4 0.339074 0.608919 0.063741
O O5 0.403201 0.447157 0.063596
O O6 0.250000 0.750000 0.890696
O O7 0.346824 0.698955 0.805986
O O8 0.362576 0.820404 0.929477
O O9 0.207401 0.830184 0.323642
O O10 0.082630 0.845949 0.312454
O O11 0.153790 0.000000 0.250000
O O12 0.297916 0.180812 0.070481
O O13 0.355757 0.010556 0.000000
O O14 0.500000 0.500000 0.356248
#
# Coordination Sequence:
#
# PCOD9496554 Si02
#       8
#     8   8  16  16   8   8  16   8
#     4  11  22  44  66  96 135 163 228 276 321 399
#     4  10  19  38  57  93 124 168 215 265 330 377
#     4  11  23  40  61  96 133 170 222 271 325 393
#     4  12  25  41  66  99 138 173 210 272 339 398
#     4  11  26  46  66 103 136 168 230 275 330 394
#     4  11  25  45  73  95 122 185 220 280 329 386
#     4  11  22  39  65  97 135 173 213 273 339 391
#     4  11  25  43  68  93 128 179 228 270 323 396
#
# _framework density 19.659255000000002
#
# number of rings (size 3 to 8) (size 9 to 14) (size 15 to 20)
#    0.000    0.909    4.545    4.636    2.545    1.818 
#    0.000    0.000    0.000    0.000    4.727    0.000 
#    0.000    0.000    0.000    0.000    0.000    0.000 
#
# Total GULP energy -245027.767076 kJ/mol
# GULP energy per Si atom -5568.812888 kJ/mol
# Density = 1.961451 g / cm^3
# Si number density = 19.659255 Si / 1000 Ang^3
#
#
#
# Elastic Constant Matrix: (Units=GPa)
#
#
# Indices 1 2 3 4 5 6 
#
# 1 94.1524 39.1509 56.1067 0.0000 0.0000 0.0000
# 2 39.1509 93.7595 29.1367 0.0000 0.0000 0.0000
# 3 56.1067 29.1367 126.9877 0.0000 0.0000 0.0000
# 4 0.0000 0.0000 0.0000 32.5177 0.0000 0.0000
# 5 0.0000 0.0000 0.0000 0.0000 52.0886 0.0000
# 6 0.0000 0.0000 0.0000 0.0000 0.0000 41.8216
#
#
#
# Elastic Compliance Matrix: (Units=1/GPa)
#
#
# Indices 1 2 3 4 5 6 
#
# 1 0.016278 -0.004912 -0.006065 0.000000 0.000000 0.000000
# 2 -0.004912 0.012967 -0.000805 0.000000 0.000000 0.000000
# 3 -0.006065 -0.000805 0.010739 0.000000 0.000000 0.000000
# 4 0.000000 0.000000 0.000000 0.030752 0.000000 0.000000
# 5 0.000000 0.000000 0.000000 0.000000 0.019198 0.000000
# 6 0.000000 0.000000 0.000000 0.000000 0.000000 0.023911
#
#
# Mechanical properties :
#
#
# Convention : Reuss Voigt Hill
#
# Bulk Modulus (GPa) = 60.90213 62.63200 61.76707
# Shear Modulus (GPa) = 34.99368 37.98596 36.48982
#
# Velocity S-wave (km/s) = 4.22359 4.40047 4.31294
# Velocity P-wave (km/s) = 7.40480 7.59913 7.50260
#
# Compressibility (1/GPa) = 0.01641979
#
# Stress axis : x y z
#
# Youngs Moduli (GPa) = 61.43286 77.11926 93.11793
#
# Poissons Ratio (x) = 0.37884 0.56475
# Poissons Ratio (y) = 0.30178 0.07494
# Poissons Ratio (z) = 0.37259 0.06206
#
# Static dielectric constant tensor:
#      x y z
#    x 1.732080 0.000000 0.000000 
#    y 0.000000 1.689190 0.000000 
#    z 0.000000 0.000000 1.677820 
# 
# From -- ./inp_files/42842.got.cif
#   From: 2010.05.17/outbox.cif.g08.bks.cpg/sg66_22_cif.got.tgz:42842.got - 2010.06.03 17:51:23.
