data_PCOD9496962
_publ_section_title
;
Structure prediction by ZEFSAII (Michael W. Deem and Ramdas Pophale) SiO2 
 PCOD9496962
Probable space group: C C C M
;
_chemical_formula_sum "Si O2"
_cell_formula_units_Z 100
_cell_length_a 21.156937
_cell_length_b 31.732657
_cell_length_c 9.076290
_cell_angle_alpha 90.000000
_cell_angle_beta 90.000000
_cell_angle_gamma 90.000000
_cell_volume 6093.510924
_symmetry_space_group_name_H-M "C C C M"
_symmetry_group_IT_number 66
_symmetry_cell_setting 'orthorhombic'
loop_
_space_group_symop_operation_xyz
x,y,z
-x,-y,z
x,-y,1/2-z
-x,y,1/2-z
-x,-y,-z
x,y,-z
-x,y,1/2+z
x,-y,1/2+z
1/2+x,1/2+y,z
1/2-x,1/2-y,z
1/2+x,1/2-y,1/2-z
1/2-x,1/2+y,1/2-z
1/2-x,1/2-y,-z
1/2+x,1/2+y,-z
1/2-x,1/2+y,1/2+z
1/2+x,1/2-y,1/2+z
loop_
_atom_site_type_symbol
_atom_site_label
_atom_site_fract_x
_atom_site_fract_y
_atom_site_fract_z
Si Si1 0.253100 0.636337 0.327109
Si Si2 0.195282 0.217463 0.676835
Si Si3 0.900259 0.434184 0.833859
Si Si4 0.500000 0.000000 0.250000
Si Si5 0.101920 0.350229 0.174027
Si Si6 0.729643 0.957504 0.822797
Si Si7 0.064530 0.737175 0.177108
O O1 0.267319 0.640425 0.500000
O O2 0.291145 0.671325 0.239117
O O3 0.178237 0.646401 0.309084
O O4 0.262627 0.587228 0.285945
O O5 0.199500 0.216084 0.500000
O O6 0.250000 0.250000 0.729384
O O7 0.126341 0.235330 0.715347
O O8 0.954070 0.469184 0.838103
O O9 0.923150 0.392475 0.750182
O O10 0.840930 0.451692 0.741709
O O11 0.879799 0.423604 0.000000
O O12 0.077212 0.309111 0.256253
O O13 0.087346 0.348919 0.000000
O O14 0.756362 0.000000 0.750000
O O15 0.726880 0.961366 0.000000
O O16 0.000000 0.753426 0.250000
O O17 0.058888 0.735048 0.000000
#
# Coordination Sequence:
#
# PCOD9496962 Si02
#       7
#    16  16  16   4  16  16  16
#     4   9  19  33  53  79 104 133 171 217 264 315
#     4  10  20  35  55  80 106 136 178 224 263 315
#     4  11  23  36  50  65  89 125 168 218 267 313
#     4  12  26  36  48  66  90 124 178 220 272 312
#     4  10  21  37  54  74 100 130 172 220 267 318
#     4  10  20  35  52  74 100 128 165 209 262 314
#     4  11  23  38  55  77 107 140 176 217 266 316
#
# _framework density 16.410900000000002
#
# number of rings (size 3 to 8) (size 9 to 14) (size 15 to 20)
#    0.000    1.760    2.400    3.120    1.120    6.720 
#    0.000    0.000    0.000    0.000    0.000    0.000 
#    0.000    0.640    0.000    7.040    0.000    5.120 
#
# Total GULP energy -279075.465295 kJ/mol
# GULP energy per Si atom -5581.509306 kJ/mol
# Density = 1.637355 g / cm^3
# Si number density = 16.410900 Si / 1000 Ang^3
#
#
#
# Elastic Constant Matrix: (Units=GPa)
#
#
# Indices 1 2 3 4 5 6 
#
# 1 74.8989 60.2718 41.3959 0.0000 0.0000 0.0000
# 2 60.2718 137.8177 52.9910 0.0000 0.0000 0.0000
# 3 41.3959 52.9910 74.3579 0.0000 0.0000 0.0000
# 4 0.0000 0.0000 0.0000 52.3489 0.0000 0.0000
# 5 0.0000 0.0000 0.0000 0.0000 23.7530 0.0000
# 6 0.0000 0.0000 0.0000 0.0000 0.0000 22.6808
#
#
#
# Elastic Compliance Matrix: (Units=1/GPa)
#
#
# Indices 1 2 3 4 5 6 
#
# 1 0.023591 -0.007255 -0.007963 0.000000 0.000000 0.000000
# 2 -0.007255 0.012226 -0.004674 0.000000 0.000000 0.000000
# 3 -0.007963 -0.004674 0.021212 0.000000 0.000000 0.000000
# 4 0.000000 0.000000 0.000000 0.019103 0.000000 0.000000
# 5 0.000000 0.000000 0.000000 0.000000 0.042100 0.000000
# 6 0.000000 0.000000 0.000000 0.000000 0.000000 0.044090
#
#
# Mechanical properties :
#
#
# Convention : Reuss Voigt Hill
#
# Bulk Modulus (GPa) = 57.98676 66.26574 62.12625
# Shear Modulus (GPa) = 24.05545 28.58426 26.31986
#
# Velocity S-wave (km/s) = 3.83276 4.17800 4.00910
# Velocity P-wave (km/s) = 7.41604 7.98380 7.70515
#
# Compressibility (1/GPa) = 0.01724532
#
# Stress axis : x y z
#
# Youngs Moduli (GPa) = 42.38982 81.79344 47.14284
#
# Poissons Ratio (x) = 0.59343 0.37539
# Poissons Ratio (y) = 0.30755 0.22033
# Poissons Ratio (z) = 0.33754 0.38228
#
# Static dielectric constant tensor:
#      x y z
#    x 1.546570 0.000000 0.000000 
#    y 0.000000 1.567490 0.000000 
#    z 0.000000 0.000000 1.553790 
# 
# From -- ./inp_files/8375.got.cif
#   From: 2010.05.17/outbox.cif.g08.bks.cpg/sg66_5_cif.got.tgz:8375.got - 2010.06.03 17:51:23.
