data_PCOD9496283
_publ_section_title
;
Structure prediction by ZEFSAII (Michael W. Deem and Ramdas Pophale) SiO2 
 PCOD9496283
Probable space group: C C C M
;
_chemical_formula_sum "Si O2"
_cell_formula_units_Z 112
_cell_length_a 13.104277
_cell_length_b 25.454664
_cell_length_c 16.126026
_cell_angle_alpha 90.000000
_cell_angle_beta 90.000000
_cell_angle_gamma 90.000000
_cell_volume 5379.077347
_symmetry_space_group_name_H-M "C C C M"
_symmetry_group_IT_number 66
_symmetry_cell_setting 'orthorhombic'
loop_
_space_group_symop_operation_xyz
x,y,z
-x,-y,z
x,-y,1/2-z
-x,y,1/2-z
-x,-y,-z
x,y,-z
-x,y,1/2+z
x,-y,1/2+z
1/2+x,1/2+y,z
1/2-x,1/2-y,z
1/2+x,1/2-y,1/2-z
1/2-x,1/2+y,1/2-z
1/2-x,1/2-y,-z
1/2+x,1/2+y,-z
1/2-x,1/2+y,1/2+z
1/2+x,1/2-y,1/2+z
loop_
_atom_site_type_symbol
_atom_site_label
_atom_site_fract_x
_atom_site_fract_y
_atom_site_fract_z
Si Si1 0.936990 0.757222 0.591908
Si Si2 0.202919 0.387358 0.092117
Si Si3 0.258280 0.555190 0.759217
Si Si4 0.003539 0.648623 0.846888
Si Si5 0.666995 0.292468 0.382653
Si Si6 0.407239 0.958529 0.095134
Si Si7 0.883563 0.160062 0.783212
O O1 0.900325 0.746261 0.500000
O O2 0.936700 0.703020 0.642908
O O3 0.882841 0.806734 0.633143
O O4 0.055803 0.774337 0.590954
O O5 0.213484 0.427255 0.169037
O O6 0.302272 0.350637 0.088045
O O7 0.111081 0.348355 0.117814
O O8 0.183972 0.409717 0.000000
O O9 0.317065 0.500000 0.750000
O O10 0.173794 0.541958 0.829368
O O11 0.325113 0.605074 0.786637
O O12 0.049373 0.600458 0.897769
O O13 0.000000 0.634772 0.750000
O O14 0.750000 0.250000 0.407777
O O15 0.666441 0.301128 0.283975
O O16 0.500000 0.000000 0.109345
O O17 0.369718 0.966792 0.000000
O O18 0.000000 0.152209 0.750000
#
# Coordination Sequence:
#
# PCOD9496283 Si02
#       7
#    16  16  16  16  16  16  16
#     4  11  22  36  58  89 126 166 212 263 321 391
#     4  11  22  36  58  91 124 155 204 265 317 372
#     4  11  24  42  67  91 119 168 219 271 327 393
#     4  12  22  36  58  87 126 173 210 255 313 389
#     4  10  19  34  58  86 120 159 201 253 314 370
#     4  11  25  43  63  92 131 170 217 274 331 392
#     4   9  22  41  60  88 124 164 208 267 328 384
#
# _framework density 20.821415999999999
#
# number of rings (size 3 to 8) (size 9 to 14) (size 15 to 20)
#    0.000    1.286    2.857    3.857    0.000    3.143 
#    0.000    0.000    0.000    2.571    0.000    7.000 
#    0.000    0.000    0.000    0.000    0.000    0.000 
#
# Total GULP energy -312622.412146 kJ/mol
# GULP energy per Si atom -5582.543074 kJ/mol
# Density = 2.077403 g / cm^3
# Si number density = 20.821416 Si / 1000 Ang^3
#
#
#
# Elastic Constant Matrix: (Units=GPa)
#
#
# Indices 1 2 3 4 5 6 
#
# 1 27.5128 27.4480 21.7590 0.0000 0.0000 0.0000
# 2 27.4480 135.1399 41.2850 0.0000 0.0000 0.0000
# 3 21.7590 41.2850 141.7540 0.0000 0.0000 0.0000
# 4 0.0000 0.0000 0.0000 9.0384 0.0000 0.0000
# 5 0.0000 0.0000 0.0000 0.0000 1.7912 0.0000
# 6 0.0000 0.0000 0.0000 0.0000 0.0000 27.2286
#
#
#
# Elastic Compliance Matrix: (Units=1/GPa)
#
#
# Indices 1 2 3 4 5 6 
#
# 1 0.048655 -0.008343 -0.005039 0.000000 0.000000 0.000000
# 2 -0.008343 0.009553 -0.001502 0.000000 0.000000 0.000000
# 3 -0.005039 -0.001502 0.008265 0.000000 0.000000 0.000000
# 4 0.000000 0.000000 0.000000 0.110639 0.000000 0.000000
# 5 0.000000 0.000000 0.000000 0.000000 0.558272 0.000000
# 6 0.000000 0.000000 0.000000 0.000000 0.000000 0.036726
#
#
# Mechanical properties :
#
#
# Convention : Reuss Voigt Hill
#
# Bulk Modulus (GPa) = 27.24291 53.93231 40.58761
# Shear Modulus (GPa) = 6.14166 21.87262 14.00714
#
# Velocity S-wave (km/s) = 1.71933 3.24464 2.59651
# Velocity P-wave (km/s) = 4.12964 6.32420 5.34085
#
# Compressibility (1/GPa) = 0.03670679
#
# Stress axis : x y z
#
# Youngs Moduli (GPa) = 20.55291 104.67913 120.98862
#
# Poissons Ratio (x) = 0.87333 0.60962
# Poissons Ratio (y) = 0.17147 0.18168
# Poissons Ratio (z) = 0.10356 0.15719
#
# Static dielectric constant tensor:
#      x y z
#    x 1.789480 0.000000 0.000000 
#    y 0.000000 1.728220 0.000000 
#    z 0.000000 0.000000 1.781070 
# 
# From -- ./inp_files/28657.got.cif
#   From: 2010.05.17/outbox.cif.g08.bks.cpg/sg66_15_cif.got.tgz:28657.got - 2010.06.03 17:51:23.
