data_PCOD9496473
_publ_section_title
;
Structure prediction by ZEFSAII (Michael W. Deem and Ramdas Pophale) SiO2 
 PCOD9496473
Probable space group: C C C M
;
_chemical_formula_sum "Si O2"
_cell_formula_units_Z 112
_cell_length_a 12.399600
_cell_length_b 23.227555
_cell_length_c 18.541068
_cell_angle_alpha 90.000000
_cell_angle_beta 90.000000
_cell_angle_gamma 90.000000
_cell_volume 5340.057326
_symmetry_space_group_name_H-M "C C C M"
_symmetry_group_IT_number 66
_symmetry_cell_setting 'orthorhombic'
loop_
_space_group_symop_operation_xyz
x,y,z
-x,-y,z
x,-y,1/2-z
-x,y,1/2-z
-x,-y,-z
x,y,-z
-x,y,1/2+z
x,-y,1/2+z
1/2+x,1/2+y,z
1/2-x,1/2-y,z
1/2+x,1/2-y,1/2-z
1/2-x,1/2+y,1/2-z
1/2-x,1/2-y,-z
1/2+x,1/2+y,-z
1/2-x,1/2+y,1/2+z
1/2+x,1/2-y,1/2+z
loop_
_atom_site_type_symbol
_atom_site_label
_atom_site_fract_x
_atom_site_fract_y
_atom_site_fract_z
Si Si1 0.495523 0.154761 0.670923
Si Si2 0.303485 0.191671 0.121378
Si Si3 0.232749 0.684355 0.793915
Si Si4 0.108440 0.120213 0.921842
Si Si5 0.104501 0.528623 0.329665
Si Si6 0.318775 0.506897 0.083869
Si Si7 0.065344 0.896960 0.180998
O O1 0.500000 0.184328 0.750000
O O2 0.568033 0.187283 0.612163
O O3 0.366528 0.153625 0.662990
O O4 0.562489 0.094487 0.678434
O O5 0.250000 0.250000 0.094567
O O6 0.288730 0.188499 0.207965
O O7 0.230083 0.141516 0.089313
O O8 0.250000 0.750000 0.819792
O O9 0.338485 0.645578 0.798757
O O10 0.025506 0.139213 0.861539
O O11 0.110866 0.051207 0.918074
O O12 0.070388 0.138882 0.000000
O O13 0.119164 0.500000 0.250000
O O14 0.209121 0.513106 0.375706
O O15 0.000000 0.500000 0.365225
O O16 0.379275 0.554847 0.130888
O O17 0.300729 0.524262 0.000000
O O18 0.000000 0.921160 0.250000
#
# Coordination Sequence:
#
# PCOD9496473 Si02
#       7
#    16  16  16  16  16  16  16
#     4  10  19  36  59  95 133 160 206 275 332 382
#     4  10  21  38  64  95 128 166 219 268 334 399
#     4  10  23  40  65 101 132 167 214 286 344 387
#     4  11  24  43  64  92 135 176 218 272 335 396
#     4  11  21  35  65  97 129 172 221 272 321 393
#     4  11  26  44  63  95 141 177 216 274 342 401
#     4  12  25  41  69  99 127 174 227 277 328 405
#
# _framework density 20.973558000000001
#
# number of rings (size 3 to 8) (size 9 to 14) (size 15 to 20)
#    0.000    1.286    4.286    1.714    6.000    2.857 
#    0.000    0.000    0.000    2.571    0.000    0.000 
#    0.000    0.000    0.000    0.000    0.000    0.000 
#
# Total GULP energy -312163.542550 kJ/mol
# GULP energy per Si atom -5574.348974 kJ/mol
# Density = 2.092582 g / cm^3
# Si number density = 20.973558 Si / 1000 Ang^3
#
#
#
# Elastic Constant Matrix: (Units=GPa)
#
#
# Indices 1 2 3 4 5 6 
#
# 1 137.1311 23.5462 49.0320 0.0000 0.0000 0.0000
# 2 23.5462 87.9375 20.9645 0.0000 0.0000 0.0000
# 3 49.0320 20.9645 83.0235 0.0000 0.0000 0.0000
# 4 0.0000 0.0000 0.0000 -257.2164 0.0000 0.0000
# 5 0.0000 0.0000 0.0000 0.0000 -1.3851 0.0000
# 6 0.0000 0.0000 0.0000 0.0000 0.0000 24.8833
#
#
#
# Elastic Compliance Matrix: (Units=1/GPa)
#
#
# Indices 1 2 3 4 5 6 
#
# 1 0.009375 -0.001267 -0.005217 0.000000 0.000000 0.000000
# 2 -0.001267 0.012271 -0.002351 0.000000 0.000000 0.000000
# 3 -0.005217 -0.002351 0.015719 0.000000 0.000000 0.000000
# 4 0.000000 0.000000 0.000000 -0.003888 0.000000 0.000000
# 5 0.000000 0.000000 0.000000 0.000000 -0.721982 0.000000
# 6 0.000000 0.000000 0.000000 0.000000 0.000000 0.040188
#
#
# Mechanical properties :
#
#
# Convention : Reuss Voigt Hill
#
# Bulk Modulus (GPa) = 50.76798 55.01974 52.89386
# Shear Modulus (GPa) = -8.01176 -32.44033 -20.22605
#
# Velocity S-wave (km/s) = -1.95659 -3.93711 -3.10878
# Velocity P-wave (km/s) = 4.37652 2.37109 3.51966
#
# Compressibility (1/GPa) = 0.01969745
#
# Stress axis : x y z
#
# Youngs Moduli (GPa) = 106.66534 81.49134 63.61583
#
# Poissons Ratio (x) = 0.10321 0.33188
# Poissons Ratio (y) = 0.13510 0.14954
# Poissons Ratio (z) = 0.55647 0.19156
#
# Static dielectric constant tensor:
#      x y z
#    x 1.833150 0.000000 0.000000 
#    y 0.000000 1.827670 0.000000 
#    z 0.000000 0.000000 1.768780 
# 
# From -- ./inp_files/49001.got.cif
#   From: 2010.05.17/outbox.cif.g08.bks.cpg/sg66_25_cif.got.tgz:49001.got - 2010.06.03 17:51:23.
