data_PCOD9496159
_publ_section_title
;
Structure prediction by ZEFSAII (Michael W. Deem and Ramdas Pophale) SiO2 
 PCOD9496159
Probable space group: C C C M
;
_chemical_formula_sum "Si O2"
_cell_formula_units_Z 72
_cell_length_a 13.327760
_cell_length_b 9.476988
_cell_length_c 26.731884
_cell_angle_alpha 90.000000
_cell_angle_beta 90.000000
_cell_angle_gamma 90.000000
_cell_volume 3376.424649
_symmetry_space_group_name_H-M "C C C M"
_symmetry_group_IT_number 66
_symmetry_cell_setting 'orthorhombic'
loop_
_space_group_symop_operation_xyz
x,y,z
-x,-y,z
x,-y,1/2-z
-x,y,1/2-z
-x,-y,-z
x,y,-z
-x,y,1/2+z
x,-y,1/2+z
1/2+x,1/2+y,z
1/2-x,1/2-y,z
1/2+x,1/2-y,1/2-z
1/2-x,1/2+y,1/2-z
1/2-x,1/2-y,-z
1/2+x,1/2+y,-z
1/2-x,1/2+y,1/2+z
1/2+x,1/2-y,1/2+z
loop_
_atom_site_type_symbol
_atom_site_label
_atom_site_fract_x
_atom_site_fract_y
_atom_site_fract_z
Si Si1 0.976928 0.669259 0.000000
Si Si2 0.670957 0.373526 0.000000
Si Si3 0.960436 0.761430 0.891017
Si Si4 0.787043 0.595830 0.294610
Si Si5 0.500000 0.000000 0.177036
Si Si6 0.156315 0.955870 0.890041
O O1 0.000000 0.500000 0.000000
O O2 0.930168 0.707758 0.946487
O O3 0.067430 0.785504 0.000000
O O4 0.750000 0.250000 0.000000
O O5 0.683751 0.459076 0.051212
O O6 0.954267 0.626337 0.856007
O O7 0.073610 0.828663 0.887950
O O8 0.893408 0.894977 0.876912
O O9 0.745331 0.500000 0.250000
O O10 0.750000 0.750000 0.281754
O O11 0.906522 0.573376 0.295676
O O12 0.743604 0.568203 0.350222
#
# Coordination Sequence:
#
# PCOD9496159 Si02
#       6
#     8   8  16  16   8  16
#     4  10  19  33  57  97 140 181 226 279 339 406
#     4  10  21  35  67  98 135 187 225 279 346 418
#     4  10  21  39  66 102 139 184 229 286 345 420
#     4  12  28  50  73 103 138 184 233 293 354 419
#     4  12  25  45  72 100 138 177 234 288 353 414
#     4  10  22  43  68 101 142 179 233 285 351 417
#
# _framework density 21.324331000000001
#
# number of rings (size 3 to 8) (size 9 to 14) (size 15 to 20)
#    0.000    1.333    3.333    1.667    6.222    2.667 
#    0.000    2.222    0.000    4.000    0.000    0.000 
#    0.000    0.000    0.000    0.000    0.000    0.000 
#
# Total GULP energy -200867.973708 kJ/mol
# GULP energy per Si atom -5579.665936 kJ/mol
# Density = 2.127580 g / cm^3
# Si number density = 21.324331 Si / 1000 Ang^3
#
#
#
# Elastic Constant Matrix: (Units=GPa)
#
#
# Indices 1 2 3 4 5 6 
#
# 1 67.8100 31.6295 29.4318 0.0000 0.0000 0.0000
# 2 31.6295 144.2378 51.4149 0.0000 0.0000 0.0000
# 3 29.4318 51.4149 95.4618 0.0000 0.0000 0.0000
# 4 0.0000 0.0000 0.0000 17.7970 0.0000 0.0000
# 5 0.0000 0.0000 0.0000 0.0000 -56.5910 0.0000
# 6 0.0000 0.0000 0.0000 0.0000 0.0000 23.0347
#
#
#
# Elastic Compliance Matrix: (Units=1/GPa)
#
#
# Indices 1 2 3 4 5 6 
#
# 1 0.017668 -0.002392 -0.004159 0.000000 0.000000 0.000000
# 2 -0.002392 0.008904 -0.004058 0.000000 0.000000 0.000000
# 3 -0.004159 -0.004058 0.013943 0.000000 0.000000 0.000000
# 4 0.000000 0.000000 0.000000 0.056189 0.000000 0.000000
# 5 0.000000 0.000000 0.000000 0.000000 -0.017671 0.000000
# 6 0.000000 0.000000 0.000000 0.000000 0.000000 0.043413
#
#
# Mechanical properties :
#
#
# Convention : Reuss Voigt Hill
#
# Bulk Modulus (GPa) = 51.82081 59.16244 55.49162
# Shear Modulus (GPa) = 33.31175 9.85037 21.58106
#
# Velocity S-wave (km/s) = 3.95669 2.15159 3.18471
# Velocity P-wave (km/s) = 6.72517 5.82896 6.29304
#
# Compressibility (1/GPa) = 0.01929727
#
# Stress axis : x y z
#
# Youngs Moduli (GPa) = 56.59992 112.30791 71.71863
#
# Poissons Ratio (x) = 0.26862 0.29827
# Poissons Ratio (y) = 0.13538 0.29105
# Poissons Ratio (z) = 0.23540 0.45577
#
# Static dielectric constant tensor:
#      x y z
#    x 1.787220 0.000000 0.000000 
#    y 0.000000 1.710120 0.000000 
#    z 0.000000 0.000000 1.671330 
# 
# From -- ./inp_files/62210.got.cif
#   From: 2010.05.17/outbox.cif.g08.bks.cpg/sg66_32_cif.got.tgz:62210.got - 2010.06.03 17:51:23.
