data_PCOD9496147
_publ_section_title
;
Structure prediction by ZEFSAII (Michael W. Deem and Ramdas Pophale) SiO2 
 PCOD9496147
Probable space group: C C C M
;
_chemical_formula_sum "Si O2"
_cell_formula_units_Z 80
_cell_length_a 26.209585
_cell_length_b 10.246877
_cell_length_c 14.194634
_cell_angle_alpha 90.000000
_cell_angle_beta 90.000000
_cell_angle_gamma 90.000000
_cell_volume 3812.201663
_symmetry_space_group_name_H-M "C C C M"
_symmetry_group_IT_number 66
_symmetry_cell_setting 'orthorhombic'
loop_
_space_group_symop_operation_xyz
x,y,z
-x,-y,z
x,-y,1/2-z
-x,y,1/2-z
-x,-y,-z
x,y,-z
-x,y,1/2+z
x,-y,1/2+z
1/2+x,1/2+y,z
1/2-x,1/2-y,z
1/2+x,1/2-y,1/2-z
1/2-x,1/2+y,1/2-z
1/2-x,1/2-y,-z
1/2+x,1/2+y,-z
1/2-x,1/2+y,1/2+z
1/2+x,1/2-y,1/2+z
loop_
_atom_site_type_symbol
_atom_site_label
_atom_site_fract_x
_atom_site_fract_y
_atom_site_fract_z
Si Si1 0.333269 0.182861 0.801720
Si Si2 0.572629 0.479225 0.896577
Si Si3 0.054183 0.221386 0.229743
Si Si4 0.704356 0.918659 0.606284
Si Si5 0.187533 0.963479 0.359062
O O1 0.394183 0.199950 0.789728
O O2 0.308623 0.172896 0.696306
O O3 0.309812 0.306374 0.856953
O O4 0.322526 0.053050 0.860907
O O5 0.549942 0.613148 0.853444
O O6 0.564276 0.365535 0.822076
O O7 0.633438 0.499876 0.901307
O O8 0.553478 0.449051 0.000000
O O9 0.000000 0.289715 0.250000
O O10 0.689659 0.875673 0.500000
O O11 0.763821 0.959294 0.603997
O O12 0.183635 0.000000 0.250000
#
# Coordination Sequence:
#
# PCOD9496147 Si02
#       5
#    16  16  16  16  16
#     4  10  22  40  60  80 119 152 193 242 279 343
#     4  10  19  33  56  89 122 148 181 230 290 356
#     4  10  21  37  57  82 113 152 193 240 292 335
#     4  11  24  39  60  86 116 158 196 234 280 332
#     4  11  19  37  60  88 122 151 182 227 285 352
#
# _framework density 20.985247000000001
#
# number of rings (size 3 to 8) (size 9 to 14) (size 15 to 20)
#    0.000    1.600    6.000    2.400    0.000    7.200 
#    0.000    3.000    0.000    1.200    0.000    0.000 
#    0.000    0.000    0.000    0.000    0.000    0.000 
#
# Total GULP energy -223341.588557 kJ/mol
# GULP energy per Si atom -5583.539714 kJ/mol
# Density = 2.093748 g / cm^3
# Si number density = 20.985247 Si / 1000 Ang^3
#
#
#
# Elastic Constant Matrix: (Units=GPa)
#
#
# Indices 1 2 3 4 5 6 
#
# 1 126.0182 5.2435 -10.2628 0.0000 0.0000 0.0000
# 2 5.2435 26.9521 -15.3683 0.0000 0.0000 0.0000
# 3 -10.2628 -15.3683 107.3219 0.0000 0.0000 0.0000
# 4 0.0000 0.0000 0.0000 -6.0797 0.0000 0.0000
# 5 0.0000 0.0000 0.0000 0.0000 38.0350 0.0000
# 6 0.0000 0.0000 0.0000 0.0000 0.0000 57.0531
#
#
#
# Elastic Compliance Matrix: (Units=1/GPa)
#
#
# Indices 1 2 3 4 5 6 
#
# 1 0.008035 -0.001225 0.000593 0.000000 0.000000 0.000000
# 2 -0.001225 0.040589 0.005695 0.000000 0.000000 0.000000
# 3 0.000593 0.005695 0.010190 0.000000 0.000000 0.000000
# 4 0.000000 0.000000 0.000000 -0.164483 0.000000 0.000000
# 5 0.000000 0.000000 0.000000 0.000000 0.026292 0.000000
# 6 0.000000 0.000000 0.000000 0.000000 0.000000 0.017528
#
#
# Mechanical properties :
#
#
# Convention : Reuss Voigt Hill
#
# Bulk Modulus (GPa) = 14.50556 24.39076 19.44816
# Shear Modulus (GPa) = -102.04749 36.51367 -32.76691
#
# Velocity S-wave (km/s) = -6.98096 4.17582 -3.95578
# Velocity P-wave (km/s) = 7.61913 5.90745 3.40243
#
# Compressibility (1/GPa) = 0.06893907
#
# Stress axis : x y z
#
# Youngs Moduli (GPa) = 124.46136 24.63744 98.13562
#
# Poissons Ratio (x) = 0.03018 -0.05818
# Poissons Ratio (y) = 0.15247 -0.55889
# Poissons Ratio (z) = -0.07379 -0.14031
#
# Static dielectric constant tensor:
#      x y z
#    x 1.808260 0.000000 0.000000 
#    y 0.000000 1.785270 0.000000 
#    z 0.000000 0.000000 1.740880 
# 
# From -- ./inp_files/26696.got.cif
#   From: 2010.05.17/outbox.cif.g08.bks.cpg/sg66_14_cif.got.tgz:26696.got - 2010.06.03 17:51:23.
