data_PCOD9496612
_publ_section_title
;
Structure prediction by ZEFSAII (Michael W. Deem and Ramdas Pophale) SiO2 
 PCOD9496612
Probable space group: C C C M
;
_chemical_formula_sum "Si O2"
_cell_formula_units_Z 112
_cell_length_a 14.689471
_cell_length_b 12.456759
_cell_length_c 29.527751
_cell_angle_alpha 90.000000
_cell_angle_beta 90.000000
_cell_angle_gamma 90.000000
_cell_volume 5403.082369
_symmetry_space_group_name_H-M "C C C M"
_symmetry_group_IT_number 66
_symmetry_cell_setting 'orthorhombic'
loop_
_space_group_symop_operation_xyz
x,y,z
-x,-y,z
x,-y,1/2-z
-x,y,1/2-z
-x,-y,-z
x,y,-z
-x,y,1/2+z
x,-y,1/2+z
1/2+x,1/2+y,z
1/2-x,1/2-y,z
1/2+x,1/2-y,1/2-z
1/2-x,1/2+y,1/2-z
1/2-x,1/2-y,-z
1/2+x,1/2+y,-z
1/2-x,1/2+y,1/2+z
1/2+x,1/2-y,1/2+z
loop_
_atom_site_type_symbol
_atom_site_label
_atom_site_fract_x
_atom_site_fract_y
_atom_site_fract_z
Si Si1 0.942759 0.898504 0.320364
Si Si2 0.967322 0.154834 0.076035
Si Si3 0.489322 0.121232 0.103386
Si Si4 0.714598 0.133537 0.374643
Si Si5 0.758592 0.539959 0.299793
Si Si6 0.650602 0.460270 0.550084
Si Si7 0.445312 0.159917 0.294122
O O1 0.977309 0.876660 0.371173
O O2 0.835042 0.920098 0.321681
O O3 0.954721 0.788118 0.294141
O O4 0.000000 0.000000 0.303082
O O5 0.958802 0.283642 0.076810
O O6 0.059254 0.112430 0.052809
O O7 0.884823 0.082208 0.057765
O O8 0.383138 0.149164 0.102758
O O9 0.518439 0.123504 0.156528
O O10 0.500000 0.000000 0.086346
O O11 0.750000 0.250000 0.360366
O O12 0.782558 0.079230 0.410639
O O13 0.705900 0.055998 0.331536
O O14 0.733808 0.500000 0.250000
O O15 0.840121 0.624325 0.293641
O O16 0.691032 0.449774 0.500000
O O17 0.500000 0.119087 0.250000
#
# Coordination Sequence:
#
# PCOD9496612 Si02
#       7
#    16  16  16  16  16  16  16
#     4  11  23  42  66  98 135 178 223 290 343 404
#     4  10  19  41  67  98 132 166 223 276 343 408
#     4  11  23  41  67  96 133 188 219 277 352 407
#     4  12  24  43  67 102 141 177 228 291 347 408
#     4  12  26  42  67  97 141 182 238 282 343 409
#     4  11  22  42  73 104 134 175 230 288 346 414
#     4  11  26  42  65  95 135 184 240 284 336 410
#
# _framework density 20.728909000000002
#
# number of rings (size 3 to 8) (size 9 to 14) (size 15 to 20)
#    0.000    0.857    5.714    2.143    4.000    1.429 
#    0.000    0.714    0.000    4.714    0.000    0.000 
#    0.000    0.000    0.000    0.000    0.000    0.000 
#
# Total GULP energy -312934.278717 kJ/mol
# GULP energy per Si atom -5588.112120 kJ/mol
# Density = 2.068173 g / cm^3
# Si number density = 20.728909 Si / 1000 Ang^3
#
#
#
# Elastic Constant Matrix: (Units=GPa)
#
#
# Indices 1 2 3 4 5 6 
#
# 1 68.8659 10.2437 -1.1306 0.0000 0.0000 0.0000
# 2 10.2437 157.0154 20.1627 0.0000 0.0000 0.0000
# 3 -1.1306 20.1627 74.6817 0.0000 0.0000 0.0000
# 4 0.0000 0.0000 0.0000 3.3593 0.0000 0.0000
# 5 0.0000 0.0000 0.0000 0.0000 7.8157 0.0000
# 6 0.0000 0.0000 0.0000 0.0000 0.0000 27.2131
#
#
#
# Elastic Compliance Matrix: (Units=1/GPa)
#
#
# Indices 1 2 3 4 5 6 
#
# 1 0.014681 -0.001022 0.000498 0.000000 0.000000 0.000000
# 2 -0.001022 0.006669 -0.001816 0.000000 0.000000 0.000000
# 3 0.000498 -0.001816 0.013888 0.000000 0.000000 0.000000
# 4 0.000000 0.000000 0.000000 0.297677 0.000000 0.000000
# 5 0.000000 0.000000 0.000000 0.000000 0.127947 0.000000
# 6 0.000000 0.000000 0.000000 0.000000 0.000000 0.036747
#
#
# Mechanical properties :
#
#
# Convention : Reuss Voigt Hill
#
# Bulk Modulus (GPa) = 32.72393 39.90162 36.31277
# Shear Modulus (GPa) = 9.75659 25.76346 17.76002
#
# Velocity S-wave (km/s) = 2.17186 3.52927 2.93025
# Velocity P-wave (km/s) = 4.70215 5.99155 5.38558
#
# Compressibility (1/GPa) = 0.03055868
#
# Stress axis : x y z
#
# Youngs Moduli (GPa) = 68.11465 149.95555 72.00486
#
# Poissons Ratio (x) = 0.15322 -0.03587
# Poissons Ratio (y) = 0.06960 0.13075
# Poissons Ratio (z) = -0.03393 0.27230
#
# Static dielectric constant tensor:
#      x y z
#    x 1.787230 0.000000 0.000000 
#    y 0.000000 2.450380 0.000000 
#    z 0.000000 0.000000 1.709150 
# 
# From -- ./inp_files/69537.got.cif
#   From: 2010.05.17/outbox.cif.g08.bks.cpg/sg66_35_cif.got.tgz:69537.got - 2010.06.03 17:51:23.
