data_PCOD9496975
_publ_section_title
;
Structure prediction by ZEFSAII (Michael W. Deem and Ramdas Pophale) SiO2 
 PCOD9496975
Probable space group: C C C M
;
_chemical_formula_sum "Si O2"
_cell_formula_units_Z 112
_cell_length_a 26.167855
_cell_length_b 15.615664
_cell_length_c 13.783740
_cell_angle_alpha 90.000000
_cell_angle_beta 90.000000
_cell_angle_gamma 90.000000
_cell_volume 5632.428053
_symmetry_space_group_name_H-M "C C C M"
_symmetry_group_IT_number 66
_symmetry_cell_setting 'orthorhombic'
loop_
_space_group_symop_operation_xyz
x,y,z
-x,-y,z
x,-y,1/2-z
-x,y,1/2-z
-x,-y,-z
x,y,-z
-x,y,1/2+z
x,-y,1/2+z
1/2+x,1/2+y,z
1/2-x,1/2-y,z
1/2+x,1/2-y,1/2-z
1/2-x,1/2+y,1/2-z
1/2-x,1/2-y,-z
1/2+x,1/2+y,-z
1/2-x,1/2+y,1/2+z
1/2+x,1/2-y,1/2+z
loop_
_atom_site_type_symbol
_atom_site_label
_atom_site_fract_x
_atom_site_fract_y
_atom_site_fract_z
Si Si1 0.366561 0.257224 0.240226
Si Si2 0.207304 0.514488 0.386735
Si Si3 0.217445 0.837942 0.615033
Si Si4 0.708411 0.175927 0.107959
Si Si5 0.055506 0.285155 0.615864
Si Si6 0.944292 0.655827 0.115890
Si Si7 0.591002 0.022492 0.882897
O O1 0.331890 0.325935 0.183611
O O2 0.328786 0.200671 0.305928
O O3 0.411377 0.279075 0.318026
O O4 0.395004 0.201276 0.159471
O O5 0.202306 0.537693 0.500000
O O6 0.245151 0.586520 0.348163
O O7 0.230164 0.419119 0.379659
O O8 0.148797 0.502814 0.353521
O O9 0.204339 0.851052 0.500000
O O10 0.250000 0.750000 0.620214
O O11 0.750000 0.250000 0.105942
O O12 0.682821 0.174646 0.000000
O O13 0.061607 0.271268 0.500000
O O14 0.075151 0.381399 0.642484
O O15 0.995492 0.291828 0.638645
O O16 0.944626 0.556479 0.148258
O O17 0.940555 0.654483 0.000000
O O18 0.589585 0.023596 0.000000
#
# Coordination Sequence:
#
# PCOD9496975 Si02
#       7
#    16  16  16  16  16  16  16
#     4  12  21  34  51  78 111 148 192 241 286 341
#     4   9  17  34  58  80 108 153 197 237 288 348
#     4  10  21  37  55  77 109 150 198 243 287 340
#     4  10  21  38  59  84 114 151 194 241 298 361
#     4  10  20  35  53  74 107 150 196 241 291 349
#     4  10  21  34  50  74 108 151 197 242 289 343
#     4   9  16  31  53  75 103 144 189 234 283 342
#
# _framework density 19.884851999999999
#
# number of rings (size 3 to 8) (size 9 to 14) (size 15 to 20)
#    0.000    2.000    1.429    3.000    0.000    4.571 
#    2.571    3.571    0.000    0.000    0.000    2.000 
#    0.000    9.143    0.000   42.286    0.000    0.571 
#
# Total GULP energy -312558.650406 kJ/mol
# GULP energy per Si atom -5581.404472 kJ/mol
# Density = 1.983959 g / cm^3
# Si number density = 19.884852 Si / 1000 Ang^3
#
#
#
# Elastic Constant Matrix: (Units=GPa)
#
#
# Indices 1 2 3 4 5 6 
#
# 1 87.9989 32.0625 24.2536 0.0000 0.0000 0.0000
# 2 32.0625 53.7408 2.9802 0.0000 0.0000 0.0000
# 3 24.2536 2.9802 109.2115 0.0000 0.0000 0.0000
# 4 0.0000 0.0000 0.0000 -4.4069 0.0000 0.0000
# 5 0.0000 0.0000 0.0000 0.0000 32.7311 0.0000
# 6 0.0000 0.0000 0.0000 0.0000 0.0000 27.4433
#
#
#
# Elastic Compliance Matrix: (Units=1/GPa)
#
#
# Indices 1 2 3 4 5 6 
#
# 1 0.015567 -0.009110 -0.003209 0.000000 0.000000 0.000000
# 2 -0.009110 0.023967 0.001369 0.000000 0.000000 0.000000
# 3 -0.003209 0.001369 0.009832 0.000000 0.000000 0.000000
# 4 0.000000 0.000000 0.000000 -0.226915 0.000000 0.000000
# 5 0.000000 0.000000 0.000000 0.000000 0.030552 0.000000
# 6 0.000000 0.000000 0.000000 0.000000 0.000000 0.036439
#
#
# Mechanical properties :
#
#
# Convention : Reuss Voigt Hill
#
# Bulk Modulus (GPa) = 36.40673 41.06042 38.73358
# Shear Modulus (GPa) = -62.88984 23.93050 -19.47967
#
# Velocity S-wave (km/s) = -5.62989 3.47285 -3.13329
# Velocity P-wave (km/s) = 4.89003 6.06422 2.53599
#
# Compressibility (1/GPa) = 0.02746745
#
# Stress axis : x y z
#
# Youngs Moduli (GPa) = 64.23755 41.72425 101.71141
#
# Poissons Ratio (x) = 0.38009 0.32635
# Poissons Ratio (y) = 0.58518 -0.13925
# Poissons Ratio (z) = 0.20611 -0.05712
#
# Static dielectric constant tensor:
#      x y z
#    x 1.745010 0.000000 0.000000 
#    y 0.000000 1.678790 0.000000 
#    z 0.000000 0.000000 1.815240 
# 
# From -- ./inp_files/33296.got.cif
#   From: 2010.05.17/outbox.cif.g08.bks.cpg/sg66_17_cif.got.tgz:33296.got - 2010.06.03 17:51:23.
