data_PCOD9496299
_publ_section_title
;
Structure prediction by ZEFSAII (Michael W. Deem and Ramdas Pophale) SiO2 
 PCOD9496299
Probable space group: C C C M
;
_chemical_formula_sum "Si O2"
_cell_formula_units_Z 112
_cell_length_a 14.946052
_cell_length_b 13.642717
_cell_length_c 33.108735
_cell_angle_alpha 90.000000
_cell_angle_beta 90.000000
_cell_angle_gamma 90.000000
_cell_volume 6751.028588
_symmetry_space_group_name_H-M "C C C M"
_symmetry_group_IT_number 66
_symmetry_cell_setting 'orthorhombic'
loop_
_space_group_symop_operation_xyz
x,y,z
-x,-y,z
x,-y,1/2-z
-x,y,1/2-z
-x,-y,-z
x,y,-z
-x,y,1/2+z
x,-y,1/2+z
1/2+x,1/2+y,z
1/2-x,1/2-y,z
1/2+x,1/2-y,1/2-z
1/2-x,1/2+y,1/2-z
1/2-x,1/2-y,-z
1/2+x,1/2+y,-z
1/2-x,1/2+y,1/2+z
1/2+x,1/2-y,1/2+z
loop_
_atom_site_type_symbol
_atom_site_label
_atom_site_fract_x
_atom_site_fract_y
_atom_site_fract_z
Si Si1 0.931317 0.087352 0.591856
Si Si2 0.768355 0.016172 0.644361
Si Si3 0.145431 0.266934 0.952600
Si Si4 0.984308 0.232627 0.335850
Si Si5 0.321560 0.662679 0.715896
Si Si6 0.924009 0.581173 0.113402
Si Si7 0.674840 0.668598 0.306401
O O1 0.838005 0.044824 0.609131
O O2 0.907194 0.166405 0.557573
O O3 0.971404 0.151972 0.628693
O O4 0.000000 0.000000 0.581518
O O5 0.787111 0.086687 0.682561
O O6 0.666708 0.031134 0.630105
O O7 0.794610 0.910067 0.660731
O O8 0.250000 0.250000 0.941144
O O9 0.104633 0.353753 0.925400
O O10 0.141393 0.289211 0.000000
O O11 0.913924 0.205859 0.301083
O O12 0.960995 0.338476 0.354551
O O13 0.082890 0.219784 0.318882
O O14 0.250000 0.750000 0.716697
O O15 0.333378 0.623761 0.761337
O O16 0.000000 0.500000 0.105455
O O17 0.750000 0.750000 0.304240
#
# Coordination Sequence:
#
# PCOD9496299 Si02
#       7
#    16  16  16  16  16  16  16
#     4  10  19  34  59  84 109 147 181 228 280 327
#     4  11  20  36  54  82 108 145 192 235 271 345
#     4  10  21  38  62  91 117 146 188 229 278 347
#     4  10  20  35  53  80 107 144 196 229 273 342
#     4  10  20  34  55  72 106 147 189 239 289 320
#     4  11  22  37  62  85 113 154 186 232 289 338
#     4  11  22  34  50  76 110 148 184 238 290 331
#
# _framework density 16.590064000000002
#
# number of rings (size 3 to 8) (size 9 to 14) (size 15 to 20)
#    0.000    1.571    4.286    1.714    0.000    0.571 
#    0.000    1.429    0.000    0.000    0.000    1.000 
#    0.000    0.000    0.000    0.000    0.000    0.000 
#
# Total GULP energy -312411.806247 kJ/mol
# GULP energy per Si atom -5578.782254 kJ/mol
# Density = 1.655230 g / cm^3
# Si number density = 16.590064 Si / 1000 Ang^3
#
#
#
# Elastic Constant Matrix: (Units=GPa)
#
#
# Indices 1 2 3 4 5 6 
#
# 1 155.6371 56.4289 47.9362 0.0000 0.0000 0.0000
# 2 56.4289 73.1892 32.3461 0.0000 0.0000 0.0000
# 3 47.9362 32.3461 69.0455 0.0000 0.0000 0.0000
# 4 0.0000 0.0000 0.0000 12.6632 0.0000 0.0000
# 5 0.0000 0.0000 0.0000 0.0000 19.0910 0.0000
# 6 0.0000 0.0000 0.0000 0.0000 0.0000 32.3222
#
#
#
# Elastic Compliance Matrix: (Units=1/GPa)
#
#
# Indices 1 2 3 4 5 6 
#
# 1 0.009759 -0.005712 -0.004099 0.000000 0.000000 0.000000
# 2 -0.005712 0.020575 -0.005673 0.000000 0.000000 0.000000
# 3 -0.004099 -0.005673 0.019987 0.000000 0.000000 0.000000
# 4 0.000000 0.000000 0.000000 0.078969 0.000000 0.000000
# 5 0.000000 0.000000 0.000000 0.000000 0.052381 0.000000
# 6 0.000000 0.000000 0.000000 0.000000 0.000000 0.030939
#
#
# Mechanical properties :
#
#
# Convention : Reuss Voigt Hill
#
# Bulk Modulus (GPa) = 51.67561 63.47714 57.57638
# Shear Modulus (GPa) = 19.99781 23.55932 21.77856
#
# Velocity S-wave (km/s) = 3.47567 3.77249 3.62712
# Velocity P-wave (km/s) = 6.87918 7.57105 7.23339
#
# Compressibility (1/GPa) = 0.01935149
#
# Stress axis : x y z
#
# Youngs Moduli (GPa) = 102.47058 48.60369 50.03348
#
# Poissons Ratio (x) = 0.27765 0.20510
# Poissons Ratio (y) = 0.58536 0.28382
# Poissons Ratio (z) = 0.42004 0.27571
#
# Static dielectric constant tensor:
#      x y z
#    x 1.543540 0.000000 0.000000 
#    y 0.000000 1.566690 0.000000 
#    z 0.000000 0.000000 1.543080 
# 
# From -- ./inp_files/69555.got.cif
#   From: 2010.05.17/outbox.cif.g08.bks.cpg/sg66_35_cif.got.tgz:69555.got - 2010.06.03 17:51:23.
