data_PCOD9496050
_publ_section_title
;
Structure prediction by ZEFSAII (Michael W. Deem and Ramdas Pophale) SiO2 
 PCOD9496050
Probable space group: C C C M
;
_chemical_formula_sum "Si O2"
_cell_formula_units_Z 112
_cell_length_a 20.469257
_cell_length_b 12.701722
_cell_length_c 26.415242
_cell_angle_alpha 90.000000
_cell_angle_beta 90.000000
_cell_angle_gamma 90.000000
_cell_volume 6867.825877
_symmetry_space_group_name_H-M "C C C M"
_symmetry_group_IT_number 66
_symmetry_cell_setting 'orthorhombic'
loop_
_space_group_symop_operation_xyz
x,y,z
-x,-y,z
x,-y,1/2-z
-x,y,1/2-z
-x,-y,-z
x,y,-z
-x,y,1/2+z
x,-y,1/2+z
1/2+x,1/2+y,z
1/2-x,1/2-y,z
1/2+x,1/2-y,1/2-z
1/2-x,1/2+y,1/2-z
1/2-x,1/2-y,-z
1/2+x,1/2+y,-z
1/2-x,1/2+y,1/2+z
1/2+x,1/2-y,1/2+z
loop_
_atom_site_type_symbol
_atom_site_label
_atom_site_fract_x
_atom_site_fract_y
_atom_site_fract_z
Si Si1 0.087638 0.597632 0.158168
Si Si2 0.645985 0.178464 0.739323
Si Si3 0.261832 0.425014 0.939661
Si Si4 0.557758 0.851591 0.856317
Si Si5 0.717288 0.610877 0.734705
Si Si6 0.644109 0.759846 0.939741
Si Si7 0.228430 0.365514 0.620559
O O1 0.109119 0.614505 0.216532
O O2 0.074146 0.476330 0.144337
O O3 0.149992 0.633430 0.125859
O O4 0.019819 0.658203 0.150159
O O5 0.600332 0.188308 0.691001
O O6 0.667890 0.293521 0.757905
O O7 0.716994 0.124347 0.730788
O O8 0.323715 0.352186 0.924799
O O9 0.199266 0.349500 0.930448
O O10 0.252860 0.535469 0.911872
O O11 0.265685 0.441552 0.000000
O O12 0.583194 0.793775 0.906234
O O13 0.687679 0.500000 0.750000
O O14 0.743095 0.618107 0.677312
O O15 0.631506 0.757791 0.000000
O O16 0.250000 0.250000 0.602427
#
# Coordination Sequence:
#
# PCOD9496050 Si02
#       7
#    16  16  16  16  16  16  16
#     4  10  20  35  47  81 108 137 175 208 263 316
#     4  10  19  33  48  75 107 136 174 215 253 316
#     4   9  19  34  56  80 106 137 175 225 273 311
#     4  11  20  31  57  75 106 146 171 209 264 327
#     4  10  20  30  48  76 105 133 170 218 261 304
#     4   9  19  35  53  82 110 132 175 228 266 309
#     4  11  19  36  55  74 111 137 171 227 262 306
#
# _framework density 16.307926999999999
#
# number of rings (size 3 to 8) (size 9 to 14) (size 15 to 20)
#    0.000    2.000    4.286    3.429    2.000    2.571 
#    0.000    2.143    0.000    4.286    0.000    2.000 
#    0.000    0.000    0.000    0.000    0.000    0.000 
#
# Total GULP energy -312187.602155 kJ/mol
# GULP energy per Si atom -5574.778610 kJ/mol
# Density = 1.627081 g / cm^3
# Si number density = 16.307927 Si / 1000 Ang^3
#
#
#
# Elastic Constant Matrix: (Units=GPa)
#
#
# Indices 1 2 3 4 5 6 
#
# 1 90.2790 35.9511 39.9144 0.0000 0.0000 0.0000
# 2 35.9511 107.1567 37.4502 0.0000 0.0000 0.0000
# 3 39.9144 37.4502 46.1706 0.0000 0.0000 0.0000
# 4 0.0000 0.0000 0.0000 14.7383 0.0000 0.0000
# 5 0.0000 0.0000 0.0000 0.0000 11.8142 0.0000
# 6 0.0000 0.0000 0.0000 0.0000 0.0000 20.4472
#
#
#
# Elastic Compliance Matrix: (Units=1/GPa)
#
#
# Indices 1 2 3 4 5 6 
#
# 1 0.017984 -0.000837 -0.014867 0.000000 0.000000 0.000000
# 2 -0.000837 0.013063 -0.009872 0.000000 0.000000 0.000000
# 3 -0.014867 -0.009872 0.042519 0.000000 0.000000 0.000000
# 4 0.000000 0.000000 0.000000 0.067850 0.000000 0.000000
# 5 0.000000 0.000000 0.000000 0.000000 0.084644 0.000000
# 6 0.000000 0.000000 0.000000 0.000000 0.000000 0.048906
#
#
# Mechanical properties :
#
#
# Convention : Reuss Voigt Hill
#
# Bulk Modulus (GPa) = 44.61867 52.24863 48.43365
# Shear Modulus (GPa) = 14.98841 18.08598 16.53720
#
# Velocity S-wave (km/s) = 3.03493 3.33382 3.18788
# Velocity P-wave (km/s) = 6.30084 6.85037 6.58134
#
# Compressibility (1/GPa) = 0.02241214
#
# Stress axis : x y z
#
# Youngs Moduli (GPa) = 55.60648 76.55057 23.51880
#
# Poissons Ratio (x) = 0.06411 0.34966
# Poissons Ratio (y) = 0.04657 0.23218
# Poissons Ratio (z) = 0.82673 0.75571
#
# Static dielectric constant tensor:
#      x y z
#    x 1.543630 0.000000 0.000000 
#    y 0.000000 1.569100 0.000000 
#    z 0.000000 0.000000 1.550840 
# 
# From -- ./inp_files/59541.got.cif
#   From: 2010.05.17/outbox.cif.g08.bks.cpg/sg66_30_cif.got.tgz:59541.got - 2010.06.03 17:51:23.
