data_PCOD9496529
_publ_section_title
;
Structure prediction by ZEFSAII (Michael W. Deem and Ramdas Pophale) SiO2 
 PCOD9496529
Probable space group: C C C M
;
_chemical_formula_sum "Si O2"
_cell_formula_units_Z 92
_cell_length_a 17.013679
_cell_length_b 9.155053
_cell_length_c 27.652042
_cell_angle_alpha 90.000000
_cell_angle_beta 90.000000
_cell_angle_gamma 90.000000
_cell_volume 4307.113391
_symmetry_space_group_name_H-M "C C C M"
_symmetry_group_IT_number 66
_symmetry_cell_setting 'orthorhombic'
loop_
_space_group_symop_operation_xyz
x,y,z
-x,-y,z
x,-y,1/2-z
-x,y,1/2-z
-x,-y,-z
x,y,-z
-x,y,1/2+z
x,-y,1/2+z
1/2+x,1/2+y,z
1/2-x,1/2-y,z
1/2+x,1/2-y,1/2-z
1/2-x,1/2+y,1/2-z
1/2-x,1/2-y,-z
1/2+x,1/2+y,-z
1/2-x,1/2+y,1/2+z
1/2+x,1/2-y,1/2+z
loop_
_atom_site_type_symbol
_atom_site_label
_atom_site_fract_x
_atom_site_fract_y
_atom_site_fract_z
Si Si1 0.063252 0.808522 0.167599
Si Si2 0.803366 0.959613 0.394565
Si Si3 0.416913 0.291698 0.104407
Si Si4 0.792408 0.005276 0.000000
Si Si5 0.925116 0.213573 0.500000
Si Si6 0.393891 0.044601 0.500000
Si Si7 0.617513 0.947870 0.391224
Si Si8 0.000000 0.000000 0.750000
O O1 0.137806 0.874915 0.139795
O O2 0.076514 0.638054 0.152876
O O3 0.978735 0.841015 0.143863
O O4 0.054428 0.888089 0.218930
O O5 0.816573 0.916493 0.450668
O O6 0.711718 0.938508 0.384961
O O7 0.833917 0.126154 0.390767
O O8 0.404236 0.118705 0.107105
O O9 0.453058 0.336699 0.052211
O O10 0.698776 0.000341 0.000000
O O11 0.835110 0.847671 0.000000
O O12 0.935840 0.387079 0.500000
O O13 0.405163 0.109609 0.445761
#
# Coordination Sequence:
#
# PCOD9496529 Si02
#       8
#    16  16  16   8   8   8  16   4
#     4  12  24  43  66  84 114 166 208 268 333 377
#     4  10  19  37  63  96 134 171 201 240 299 367
#     4  10  19  37  61  97 132 173 202 239 296 370
#     4   8  15  26  52  92 134 172 203 225 274 369
#     4   8  15  26  52  88 136 172 205 227 270 361
#     4   8  15  30  50  93 144 174 182 230 296 361
#     4  10  21  36  66 100 134 165 207 242 294 373
#     4  12  28  52  70  74 116 164 216 276 376 382
#
# _framework density 21.360014
#
# number of rings (size 3 to 8) (size 9 to 14) (size 15 to 20)
#    0.000    2.087    1.739    1.826    0.000    6.261 
#    0.000    9.565    7.652    0.000    0.000    0.000 
#    0.000    0.000    0.000    0.000    0.000    0.000 
#
# Total GULP energy -256364.393693 kJ/mol
# GULP energy per Si atom -5573.138993 kJ/mol
# Density = 2.131140 g / cm^3
# Si number density = 21.360014 Si / 1000 Ang^3
#
#
#
# Elastic Constant Matrix: (Units=GPa)
#
#
# Indices 1 2 3 4 5 6 
#
# 1 99.9925 14.0187 31.7079 0.0000 0.0000 0.0000
# 2 14.0187 95.3876 26.8231 0.0000 0.0000 0.0000
# 3 31.7079 26.8231 88.8482 0.0000 0.0000 0.0000
# 4 0.0000 0.0000 0.0000 38.6547 0.0000 0.0000
# 5 0.0000 0.0000 0.0000 0.0000 35.8453 0.0000
# 6 0.0000 0.0000 0.0000 0.0000 0.0000 39.2563
#
#
#
# Elastic Compliance Matrix: (Units=1/GPa)
#
#
# Indices 1 2 3 4 5 6 
#
# 1 0.011306 -0.000576 -0.003861 0.000000 0.000000 0.000000
# 2 -0.000576 0.011485 -0.003262 0.000000 0.000000 0.000000
# 3 -0.003861 -0.003262 0.013618 0.000000 0.000000 0.000000
# 4 0.000000 0.000000 0.000000 0.025870 0.000000 0.000000
# 5 0.000000 0.000000 0.000000 0.000000 0.027898 0.000000
# 6 0.000000 0.000000 0.000000 0.000000 0.000000 0.025474
#
#
# Mechanical properties :
#
#
# Convention : Reuss Voigt Hill
#
# Bulk Modulus (GPa) = 47.59277 47.70309 47.64793
# Shear Modulus (GPa) = 36.21833 36.86316 36.54074
#
# Velocity S-wave (km/s) = 4.12225 4.15878 4.14056
# Velocity P-wave (km/s) = 6.70723 6.74107 6.72417
#
# Compressibility (1/GPa) = 0.02101159
#
# Stress axis : x y z
#
# Youngs Moduli (GPa) = 88.45026 87.06680 73.43336
#
# Poissons Ratio (x) = 0.05014 0.28352
# Poissons Ratio (y) = 0.05094 0.23953
# Poissons Ratio (z) = 0.34150 0.28401
#
# Static dielectric constant tensor:
#      x y z
#    x 1.778040 0.000000 0.000000 
#    y 0.000000 1.896200 0.000000 
#    z 0.000000 0.000000 1.780010 
# 
# From -- ./inp_files/65715.got.cif
#   From: 2010.05.17/outbox.cif.g08.bks.cpg/sg66_33_cif.got.tgz:65715.got - 2010.06.03 17:51:23.
