data_PCOD9496325
_publ_section_title
;
Structure prediction by ZEFSAII (Michael W. Deem and Ramdas Pophale) SiO2 
 PCOD9496325
Probable space group: C C C M
;
_chemical_formula_sum "Si O2"
_cell_formula_units_Z 112
_cell_length_a 16.876531
_cell_length_b 23.234683
_cell_length_c 14.241584
_cell_angle_alpha 90.000000
_cell_angle_beta 90.000000
_cell_angle_gamma 90.000000
_cell_volume 5584.421994
_symmetry_space_group_name_H-M "C C C M"
_symmetry_group_IT_number 66
_symmetry_cell_setting 'orthorhombic'
loop_
_space_group_symop_operation_xyz
x,y,z
-x,-y,z
x,-y,1/2-z
-x,y,1/2-z
-x,-y,-z
x,y,-z
-x,y,1/2+z
x,-y,1/2+z
1/2+x,1/2+y,z
1/2-x,1/2-y,z
1/2+x,1/2-y,1/2-z
1/2-x,1/2+y,1/2-z
1/2-x,1/2-y,-z
1/2+x,1/2+y,-z
1/2-x,1/2+y,1/2+z
1/2+x,1/2-y,1/2+z
loop_
_atom_site_type_symbol
_atom_site_label
_atom_site_fract_x
_atom_site_fract_y
_atom_site_fract_z
Si Si1 0.188286 0.109497 0.390242
Si Si2 0.886729 0.161733 0.709455
Si Si3 0.084508 0.708115 0.283723
Si Si4 0.717574 0.135496 0.386558
Si Si5 0.682053 0.797623 0.597930
Si Si6 0.228821 0.014340 0.893509
Si Si7 0.951832 0.056243 0.393414
O O1 0.159552 0.105145 0.500000
O O2 0.131445 0.143250 0.317828
O O3 0.270360 0.143476 0.395048
O O4 0.211413 0.047298 0.347788
O O5 0.921046 0.224836 0.687338
O O6 0.798670 0.159555 0.660803
O O7 0.945511 0.114064 0.666156
O O8 0.140101 0.669956 0.351712
O O9 0.131976 0.712208 0.187651
O O10 0.000000 0.684116 0.250000
O O11 0.724926 0.138735 0.500000
O O12 0.717315 0.067288 0.359726
O O13 0.636192 0.794637 0.500000
O O14 0.750000 0.750000 0.595729
O O15 0.140275 0.039275 0.898578
O O16 0.256157 0.000819 0.000000
O O17 0.980166 0.067243 0.500000
O O18 0.000000 0.000000 0.358947
#
# Coordination Sequence:
#
# PCOD9496325 Si02
#       7
#    16  16  16  16  16  16  16
#     4  10  19  34  62  90 114 148 200 259 303 350
#     4  11  21  37  61  90 120 162 213 251 294 370
#     4  12  25  39  55  87 127 159 202 258 315 372
#     4  10  21  40  63  86 120 161 207 257 303 364
#     4  10  19  38  62  82 112 156 203 254 303 355
#     4   8  17  34  58  88 112 148 202 245 290 358
#     4   9  19  36  55  81 124 164 197 244 300 363
#
# _framework density 20.055789999999998
#
# number of rings (size 3 to 8) (size 9 to 14) (size 15 to 20)
#    0.000    2.000    2.857    1.714    0.000    5.714 
#    0.000    0.714    0.000    3.000    0.000    4.000 
#    0.000    0.000    0.000    0.000    0.000    0.000 
#
# Total GULP energy -312105.199279 kJ/mol
# GULP energy per Si atom -5573.307130 kJ/mol
# Density = 2.001014 g / cm^3
# Si number density = 20.055790 Si / 1000 Ang^3
#
#
#
# Elastic Constant Matrix: (Units=GPa)
#
#
# Indices 1 2 3 4 5 6 
#
# 1 71.8984 30.0209 20.5463 0.0000 0.0000 0.0000
# 2 30.0209 105.4080 10.9105 0.0000 0.0000 0.0000
# 3 20.5463 10.9105 98.7159 0.0000 0.0000 0.0000
# 4 0.0000 0.0000 0.0000 21.9023 0.0000 0.0000
# 5 0.0000 0.0000 0.0000 0.0000 7.5116 0.0000
# 6 0.0000 0.0000 0.0000 0.0000 0.0000 28.7748
#
#
#
# Elastic Compliance Matrix: (Units=1/GPa)
#
#
# Indices 1 2 3 4 5 6 
#
# 1 0.016603 -0.004421 -0.002967 0.000000 0.000000 0.000000
# 2 -0.004421 0.010774 -0.000271 0.000000 0.000000 0.000000
# 3 -0.002967 -0.000271 0.010778 0.000000 0.000000 0.000000
# 4 0.000000 0.000000 0.000000 0.045657 0.000000 0.000000
# 5 0.000000 0.000000 0.000000 0.000000 0.133127 0.000000
# 6 0.000000 0.000000 0.000000 0.000000 0.000000 0.034753
#
#
# Mechanical properties :
#
#
# Convention : Reuss Voigt Hill
#
# Bulk Modulus (GPa) = 43.78962 44.33087 44.06025
# Shear Modulus (GPa) = 18.20688 25.94071 22.07379
#
# Velocity S-wave (km/s) = 3.01626 3.60033 3.32116
# Velocity P-wave (km/s) = 5.83196 6.27972 6.05998
#
# Compressibility (1/GPa) = 0.02283646
#
# Stress axis : x y z
#
# Youngs Moduli (GPa) = 60.23186 92.81431 92.78588
#
# Poissons Ratio (x) = 0.41037 0.27529
# Poissons Ratio (y) = 0.26631 0.02510
# Poissons Ratio (z) = 0.17870 0.02511
#
# Static dielectric constant tensor:
#      x y z
#    x 1.685300 0.000000 0.000000 
#    y 0.000000 1.796700 0.000000 
#    z 0.000000 0.000000 1.805350 
# 
# From -- ./inp_files/28685.got.cif
#   From: 2010.05.17/outbox.cif.g08.bks.cpg/sg66_15_cif.got.tgz:28685.got - 2010.06.03 17:51:23.
