data_PCOD9496488
_publ_section_title
;
Structure prediction by ZEFSAII (Michael W. Deem and Ramdas Pophale) SiO2 
 PCOD9496488
Probable space group: C C C M
;
_chemical_formula_sum "Si O2"
_cell_formula_units_Z 80
_cell_length_a 9.900664
_cell_length_b 24.104721
_cell_length_c 17.833503
_cell_angle_alpha 90.000000
_cell_angle_beta 90.000000
_cell_angle_gamma 90.000000
_cell_volume 4256.014416
_symmetry_space_group_name_H-M "C C C M"
_symmetry_group_IT_number 66
_symmetry_cell_setting 'orthorhombic'
loop_
_space_group_symop_operation_xyz
x,y,z
-x,-y,z
x,-y,1/2-z
-x,y,1/2-z
-x,-y,-z
x,y,-z
-x,y,1/2+z
x,-y,1/2+z
1/2+x,1/2+y,z
1/2-x,1/2-y,z
1/2+x,1/2-y,1/2-z
1/2-x,1/2+y,1/2-z
1/2-x,1/2-y,-z
1/2+x,1/2+y,-z
1/2-x,1/2+y,1/2+z
1/2+x,1/2-y,1/2+z
loop_
_atom_site_type_symbol
_atom_site_label
_atom_site_fract_x
_atom_site_fract_y
_atom_site_fract_z
Si Si1 0.603944 0.048101 0.589983
Si Si2 0.342365 0.488570 0.664090
Si Si3 0.491545 0.836014 0.914697
Si Si4 0.592362 0.731845 0.678785
Si Si5 0.820387 0.128022 0.085065
O O1 0.589892 0.050224 0.500000
O O2 0.569976 0.110234 0.616611
O O3 0.500000 0.000000 0.616904
O O4 0.751017 0.028044 0.613130
O O5 0.500000 0.500000 0.656827
O O6 0.302080 0.500000 0.750000
O O7 0.323760 0.425885 0.636785
O O8 0.484097 0.782413 0.862685
O O9 0.336200 0.855178 0.920380
O O10 0.538124 0.823236 0.000000
O O11 0.500000 0.717531 0.750000
O O12 0.750000 0.750000 0.695547
O O13 0.604080 0.679476 0.623230
O O14 0.868530 0.116570 0.000000
#
# Coordination Sequence:
#
# PCOD9496488 Si02
#       5
#    16  16  16  16  16
#     4  10  19  36  61  87 118 153 195 250 300 357
#     4  11  25  39  56  86 123 162 197 248 303 370
#     4   9  18  36  62  91 117 149 202 254 297 357
#     4  10  22  38  62  89 119 160 199 253 305 363
#     4  10  20  39  64  85 116 161 208 246 291 364
#
# _framework density 18.796928999999999
#
# number of rings (size 3 to 8) (size 9 to 14) (size 15 to 20)
#    0.000    2.000    2.000    1.200    2.800    7.600 
#    0.000    0.000    0.000    1.200    0.000    0.000 
#    0.000    0.000    0.000    0.000    0.000    0.000 
#
# Total GULP energy -223088.828419 kJ/mol
# GULP energy per Si atom -5577.220710 kJ/mol
# Density = 1.875415 g / cm^3
# Si number density = 18.796929 Si / 1000 Ang^3
#
#
#
# Elastic Constant Matrix: (Units=GPa)
#
#
# Indices 1 2 3 4 5 6 
#
# 1 26.6889 22.9493 16.5847 0.0000 0.0000 0.0000
# 2 22.9493 139.4580 52.3519 0.0000 0.0000 0.0000
# 3 16.5847 52.3519 60.9604 0.0000 0.0000 0.0000
# 4 0.0000 0.0000 0.0000 34.3998 0.0000 0.0000
# 5 0.0000 0.0000 0.0000 0.0000 15.2285 0.0000
# 6 0.0000 0.0000 0.0000 0.0000 0.0000 26.0421
#
#
#
# Elastic Compliance Matrix: (Units=1/GPa)
#
#
# Indices 1 2 3 4 5 6 
#
# 1 0.046784 -0.004310 -0.009026 0.000000 0.000000 0.000000
# 2 -0.004310 0.010979 -0.008256 0.000000 0.000000 0.000000
# 3 -0.009026 -0.008256 0.025950 0.000000 0.000000 0.000000
# 4 0.000000 0.000000 0.000000 0.029070 0.000000 0.000000
# 5 0.000000 0.000000 0.000000 0.000000 0.065666 0.000000
# 6 0.000000 0.000000 0.000000 0.000000 0.000000 0.038399
#
#
# Mechanical properties :
#
#
# Convention : Reuss Voigt Hill
#
# Bulk Modulus (GPa) = 24.67438 45.65323 35.16381
# Shear Modulus (GPa) = 18.27858 24.14883 21.21371
#
# Velocity S-wave (km/s) = 3.12175 3.58819 3.36307
# Velocity P-wave (km/s) = 5.11362 6.44260 5.81620
#
# Compressibility (1/GPa) = 0.04052787
#
# Stress axis : x y z
#
# Youngs Moduli (GPa) = 21.37472 91.08075 38.53562
#
# Poissons Ratio (x) = 0.39260 0.34783
# Poissons Ratio (y) = 0.09213 0.31816
# Poissons Ratio (z) = 0.19293 0.75198
#
# Static dielectric constant tensor:
#      x y z
#    x 1.639940 0.000000 0.000000 
#    y 0.000000 1.626090 0.000000 
#    z 0.000000 0.000000 1.677670 
# 
# From -- ./inp_files/32077.got.cif
#   From: 2010.05.17/outbox.cif.g08.bks.cpg/sg66_17_cif.got.tgz:32077.got - 2010.06.03 17:51:23.
