data_PCOD9496523
_publ_section_title
;
Structure prediction by ZEFSAII (Michael W. Deem and Ramdas Pophale) SiO2 
 PCOD9496523
Probable space group: C C C M
;
_chemical_formula_sum "Si O2"
_cell_formula_units_Z 64
_cell_length_a 17.315787
_cell_length_b 7.485533
_cell_length_c 27.020818
_cell_angle_alpha 90.000000
_cell_angle_beta 90.000000
_cell_angle_gamma 90.000000
_cell_volume 3502.381551
_symmetry_space_group_name_H-M "C C C M"
_symmetry_group_IT_number 66
_symmetry_cell_setting 'orthorhombic'
loop_
_space_group_symop_operation_xyz
x,y,z
-x,-y,z
x,-y,1/2-z
-x,y,1/2-z
-x,-y,-z
x,y,-z
-x,y,1/2+z
x,-y,1/2+z
1/2+x,1/2+y,z
1/2-x,1/2-y,z
1/2+x,1/2-y,1/2-z
1/2-x,1/2+y,1/2-z
1/2-x,1/2-y,-z
1/2+x,1/2+y,-z
1/2-x,1/2+y,1/2+z
1/2+x,1/2-y,1/2+z
loop_
_atom_site_type_symbol
_atom_site_label
_atom_site_fract_x
_atom_site_fract_y
_atom_site_fract_z
Si Si1 0.074535 0.605619 0.397774
Si Si2 0.486149 0.712376 0.193767
Si Si3 0.339152 0.234426 0.367501
Si Si4 0.407428 0.477445 0.943067
O O1 0.139852 0.458961 0.389534
O O2 0.104969 0.771264 0.429107
O O3 0.000000 0.500000 0.420026
O O4 0.040500 0.687587 0.346208
O O5 0.500000 0.500000 0.189954
O O6 0.500000 0.769151 0.250000
O O7 0.398094 0.745572 0.177993
O O8 0.250000 0.250000 0.354813
O O9 0.364355 0.386831 0.406680
O O10 0.500000 0.500000 0.936556
O O11 0.388069 0.514301 0.000000
#
# Coordination Sequence:
#
# PCOD9496523 Si02
#       4
#    16  16  16  16
#     4  10  19  37  61  85 114 157 201 239 295 351
#     4  10  19  39  65  85 114 157 200 239 288 364
#     4  11  23  39  59  90 127 152 193 253 304 344
#     4  11  21  38  62  88 119 158 211 248 288 354
#
# _framework density 18.273278999999999
#
# number of rings (size 3 to 8) (size 9 to 14) (size 15 to 20)
#    0.000    1.500    7.500    0.000    0.000    7.500 
#    0.000    6.250    0.000    0.000    0.000    0.000 
#    0.000    0.000    0.000    0.000    0.000    0.000 
#
# Total GULP energy -178630.214530 kJ/mol
# GULP energy per Si atom -5582.194204 kJ/mol
# Density = 1.823169 g / cm^3
# Si number density = 18.273279 Si / 1000 Ang^3
#
#
#
# Elastic Constant Matrix: (Units=GPa)
#
#
# Indices 1 2 3 4 5 6 
#
# 1 102.7003 28.6895 36.5672 0.0000 0.0000 0.0000
# 2 28.6895 113.8575 16.9002 0.0000 0.0000 0.0000
# 3 36.5672 16.9002 97.9445 0.0000 0.0000 0.0000
# 4 0.0000 0.0000 0.0000 4.1066 0.0000 0.0000
# 5 0.0000 0.0000 0.0000 0.0000 9.5358 0.0000
# 6 0.0000 0.0000 0.0000 0.0000 0.0000 15.4542
#
#
#
# Elastic Compliance Matrix: (Units=1/GPa)
#
#
# Indices 1 2 3 4 5 6 
#
# 1 0.011830 -0.002386 -0.004005 0.000000 0.000000 0.000000
# 2 -0.002386 0.009495 -0.000747 0.000000 0.000000 0.000000
# 3 -0.004005 -0.000747 0.011834 0.000000 0.000000 0.000000
# 4 0.000000 0.000000 0.000000 0.243511 0.000000 0.000000
# 5 0.000000 0.000000 0.000000 0.000000 0.104868 0.000000
# 6 0.000000 0.000000 0.000000 0.000000 0.000000 0.064707
#
#
# Mechanical properties :
#
#
# Convention : Reuss Voigt Hill
#
# Bulk Modulus (GPa) = 52.96150 53.20177 53.08164
# Shear Modulus (GPa) = 10.71086 21.30901 16.00994
#
# Velocity S-wave (km/s) = 2.42368 3.41857 2.96318
# Velocity P-wave (km/s) = 6.07275 6.69028 6.38898
#
# Compressibility (1/GPa) = 0.01888164
#
# Stress axis : x y z
#
# Youngs Moduli (GPa) = 84.53354 105.31681 84.50223
#
# Poissons Ratio (x) = 0.25132 0.33841
# Poissons Ratio (y) = 0.20173 0.06316
# Poissons Ratio (z) = 0.33854 0.07872
#
# Static dielectric constant tensor:
#      x y z
#    x 1.606600 0.000000 0.000000 
#    y 0.000000 1.669290 0.000000 
#    z 0.000000 0.000000 1.644130 
# 
# From -- ./inp_files/69389.got.cif
#   From: 2010.05.17/outbox.cif.g08.bks.cpg/sg66_35_cif.got.tgz:69389.got - 2010.06.03 17:51:23.
