data_PCOD9496125
_publ_section_title
;
Structure prediction by ZEFSAII (Michael W. Deem and Ramdas Pophale) SiO2 
 PCOD9496125
Probable space group: C C C M
;
_chemical_formula_sum "Si O2"
_cell_formula_units_Z 112
_cell_length_a 14.169252
_cell_length_b 14.066636
_cell_length_c 25.322386
_cell_angle_alpha 90.000000
_cell_angle_beta 90.000000
_cell_angle_gamma 90.000000
_cell_volume 5047.098707
_symmetry_space_group_name_H-M "C C C M"
_symmetry_group_IT_number 66
_symmetry_cell_setting 'orthorhombic'
loop_
_space_group_symop_operation_xyz
x,y,z
-x,-y,z
x,-y,1/2-z
-x,y,1/2-z
-x,-y,-z
x,y,-z
-x,y,1/2+z
x,-y,1/2+z
1/2+x,1/2+y,z
1/2-x,1/2-y,z
1/2+x,1/2-y,1/2-z
1/2-x,1/2+y,1/2-z
1/2-x,1/2-y,-z
1/2+x,1/2+y,-z
1/2-x,1/2+y,1/2+z
1/2+x,1/2-y,1/2+z
loop_
_atom_site_type_symbol
_atom_site_label
_atom_site_fract_x
_atom_site_fract_y
_atom_site_fract_z
Si Si1 0.189675 0.661840 0.938813
Si Si2 0.470269 0.349740 0.080668
Si Si3 0.977534 0.636708 0.940119
Si Si4 0.561387 0.707991 0.198093
Si Si5 0.298727 0.454010 0.804907
Si Si6 0.916501 0.427527 0.331552
Si Si7 0.148066 0.973353 0.916632
O O1 0.250000 0.750000 0.914970
O O2 0.085328 0.642206 0.917922
O O3 0.253809 0.568867 0.935509
O O4 0.172189 0.687339 0.000000
O O5 0.449176 0.246926 0.058367
O O6 0.480782 0.333827 0.143731
O O7 0.388352 0.423610 0.065999
O O8 0.568721 0.398284 0.065232
O O9 0.918809 0.583301 0.895490
O O10 0.972686 0.599389 0.000000
O O11 0.500000 0.685869 0.250000
O O12 0.662092 0.653789 0.198111
O O13 0.567446 0.821431 0.191090
O O14 0.326046 0.500000 0.750000
O O15 0.186689 0.458976 0.813390
O O16 0.344896 0.511255 0.853516
O O17 0.000000 0.500000 0.316473
#
# Coordination Sequence:
#
# PCOD9496125 Si02
#       7
#    16  16  16  16  16  16  16
#     4  10  19  33  55  86 121 155 204 266 323 389
#     4   9  19  34  58  90 122 159 208 261 322 394
#     4  10  21  40  63  87 122 169 215 267 331 391
#     4  10  22  41  66  92 127 169 214 269 331 393
#     4  11  24  41  64  94 129 170 218 271 324 399
#     4  11  25  43  63  93 131 173 221 274 325 395
#     4  10  19  35  57  87 126 163 201 260 327 388
#
# _framework density 22.190967000000001
#
# number of rings (size 3 to 8) (size 9 to 14) (size 15 to 20)
#    0.000    1.857    1.429    2.143    2.000    2.286 
#    0.000    2.143    0.000   11.143    0.000    0.000 
#    0.000    0.000    0.000    0.000    0.000    0.000 
#
# Total GULP energy -312823.069236 kJ/mol
# GULP energy per Si atom -5586.126236 kJ/mol
# Density = 2.214046 g / cm^3
# Si number density = 22.190967 Si / 1000 Ang^3
#
#
#
# Elastic Constant Matrix: (Units=GPa)
#
#
# Indices 1 2 3 4 5 6 
#
# 1 59.8016 28.3283 5.5232 0.0000 0.0000 0.0000
# 2 28.3283 117.1568 4.7561 0.0000 0.0000 0.0000
# 3 5.5232 4.7561 94.6326 0.0000 0.0000 0.0000
# 4 0.0000 0.0000 0.0000 1.8632 0.0000 0.0000
# 5 0.0000 0.0000 0.0000 0.0000 130.2519 0.0000
# 6 0.0000 0.0000 0.0000 0.0000 0.0000 35.4477
#
#
#
# Elastic Compliance Matrix: (Units=1/GPa)
#
#
# Indices 1 2 3 4 5 6 
#
# 1 0.018958 -0.004548 -0.000878 0.000000 0.000000 0.000000
# 2 -0.004548 0.009644 -0.000219 0.000000 0.000000 0.000000
# 3 -0.000878 -0.000219 0.010629 0.000000 0.000000 0.000000
# 4 0.000000 0.000000 0.000000 0.536711 0.000000 0.000000
# 5 0.000000 0.000000 0.000000 0.000000 0.007677 0.000000
# 6 0.000000 0.000000 0.000000 0.000000 0.000000 0.028211
#
#
# Mechanical properties :
#
#
# Convention : Reuss Voigt Hill
#
# Bulk Modulus (GPa) = 35.79035 38.75623 37.27329
# Shear Modulus (GPa) = 7.90596 49.04479 28.47538
#
# Velocity S-wave (km/s) = 1.88956 4.70630 3.58606
# Velocity P-wave (km/s) = 4.57427 6.85821 5.82919
#
# Compressibility (1/GPa) = 0.02794049
#
# Stress axis : x y z
#
# Youngs Moduli (GPa) = 52.74933 103.68886 94.07840
#
# Poissons Ratio (x) = 0.47161 0.08259
# Poissons Ratio (y) = 0.23992 0.02063
# Poissons Ratio (z) = 0.04631 0.02273
#
# Static dielectric constant tensor:
#      x y z
#    x 1.803080 0.000000 0.000000 
#    y 0.000000 1.823780 0.000000 
#    z 0.000000 0.000000 1.826600 
# 
# From -- ./inp_files/64652.got.cif
#   From: 2010.05.17/outbox.cif.g08.bks.cpg/sg66_33_cif.got.tgz:64652.got - 2010.06.03 17:51:23.
