data_PCOD9496261
_publ_section_title
;
Structure prediction by ZEFSAII (Michael W. Deem and Ramdas Pophale) SiO2 
 PCOD9496261
Probable space group: C C C M
;
_chemical_formula_sum "Si O2"
_cell_formula_units_Z 80
_cell_length_a 29.321573
_cell_length_b 8.208937
_cell_length_c 14.417370
_cell_angle_alpha 90.000000
_cell_angle_beta 90.000000
_cell_angle_gamma 90.000000
_cell_volume 3470.245756
_symmetry_space_group_name_H-M "C C C M"
_symmetry_group_IT_number 66
_symmetry_cell_setting 'orthorhombic'
loop_
_space_group_symop_operation_xyz
x,y,z
-x,-y,z
x,-y,1/2-z
-x,y,1/2-z
-x,-y,-z
x,y,-z
-x,y,1/2+z
x,-y,1/2+z
1/2+x,1/2+y,z
1/2-x,1/2-y,z
1/2+x,1/2-y,1/2-z
1/2-x,1/2+y,1/2-z
1/2-x,1/2-y,-z
1/2+x,1/2+y,-z
1/2-x,1/2+y,1/2+z
1/2+x,1/2-y,1/2+z
loop_
_atom_site_type_symbol
_atom_site_label
_atom_site_fract_x
_atom_site_fract_y
_atom_site_fract_z
Si Si1 0.148368 0.435857 0.605675
Si Si2 0.642866 0.580252 0.386205
Si Si3 0.548439 0.433719 0.611861
Si Si4 0.197328 0.759557 0.386313
Si Si5 0.450548 0.051568 0.143504
O O1 0.165778 0.427482 0.500000
O O2 0.157492 0.258429 0.647634
O O3 0.170750 0.598123 0.646616
O O4 0.093956 0.465334 0.602398
O O5 0.643220 0.585070 0.500000
O O6 0.591095 0.541496 0.357081
O O7 0.673615 0.427813 0.357319
O O8 0.500000 0.500000 0.645075
O O9 0.548156 0.441330 0.500000
O O10 0.554777 0.245111 0.635899
O O11 0.194935 0.760601 0.500000
O O12 0.250000 0.750000 0.359551
O O13 0.500000 0.000000 0.104572
O O14 0.450585 0.000000 0.250000
#
# Coordination Sequence:
#
# PCOD9496261 Si02
#       5
#    16  16  16  16  16
#     4  10  19  34  57  81 110 147 189 237 282 336
#     4   9  17  30  50  81 111 139 182 226 276 335
#     4  10  19  34  58  84 112 148 192 243 289 339
#     4   9  17  30  51  82 116 144 176 232 292 333
#     4  11  23  37  52  80 116 150 189 229 285 353
#
# _framework density 23.053122999999999
#
# number of rings (size 3 to 8) (size 9 to 14) (size 15 to 20)
#    0.000    2.200    2.000    1.800    0.000    4.000 
#    0.000   11.000    0.000    0.000    5.200    0.000 
#    0.000    0.000    0.000    0.000    0.000    0.000 
#
# Total GULP energy -223702.931500 kJ/mol
# GULP energy per Si atom -5592.573287 kJ/mol
# Density = 2.300065 g / cm^3
# Si number density = 23.053123 Si / 1000 Ang^3
#
#
#
# Elastic Constant Matrix: (Units=GPa)
#
#
# Indices 1 2 3 4 5 6 
#
# 1 143.0062 91.2739 1.3390 0.0000 0.0000 0.0000
# 2 91.2739 237.5363 13.9649 0.0000 0.0000 0.0000
# 3 1.3390 13.9649 75.3261 0.0000 0.0000 0.0000
# 4 0.0000 0.0000 0.0000 6.2989 0.0000 0.0000
# 5 0.0000 0.0000 0.0000 0.0000 -9.6161 0.0000
# 6 0.0000 0.0000 0.0000 0.0000 0.0000 31.9068
#
#
#
# Elastic Compliance Matrix: (Units=1/GPa)
#
#
# Indices 1 2 3 4 5 6 
#
# 1 0.009284 -0.003597 0.000502 0.000000 0.000000 0.000000
# 2 -0.003597 0.005650 -0.000983 0.000000 0.000000 0.000000
# 3 0.000502 -0.000983 0.013449 0.000000 0.000000 0.000000
# 4 0.000000 0.000000 0.000000 0.158757 0.000000 0.000000
# 5 0.000000 0.000000 0.000000 0.000000 -0.103993 0.000000
# 6 0.000000 0.000000 0.000000 0.000000 0.000000 0.031341
#
#
# Mechanical properties :
#
#
# Convention : Reuss Voigt Hill
#
# Bulk Modulus (GPa) = 49.44250 74.33602 61.88926
# Shear Modulus (GPa) = 38.64368 29.00397 33.82382
#
# Velocity S-wave (km/s) = 4.09869 3.55087 3.83458
# Velocity P-wave (km/s) = 6.62516 7.00907 6.81982
#
# Compressibility (1/GPa) = 0.02022551
#
# Stress axis : x y z
#
# Youngs Moduli (GPa) = 107.71629 176.99841 74.35482
#
# Poissons Ratio (x) = 0.63662 -0.03731
# Poissons Ratio (y) = 0.38743 0.07313
# Poissons Ratio (z) = -0.05405 0.17408
#
# Static dielectric constant tensor:
#      x y z
#    x 1.822350 0.000000 0.000000 
#    y 0.000000 1.819450 0.000000 
#    z 0.000000 0.000000 1.562680 
# 
# From -- ./inp_files/44613.got.cif
#   From: 2010.05.17/outbox.cif.g08.bks.cpg/sg66_23_cif.got.tgz:44613.got - 2010.06.03 17:51:23.
