data_PCOD9496867
_publ_section_title
;
Structure prediction by ZEFSAII (Michael W. Deem and Ramdas Pophale) SiO2 
 PCOD9496867
Probable space group: C C C M
;
_chemical_formula_sum "Si O2"
_cell_formula_units_Z 96
_cell_length_a 28.063190
_cell_length_b 20.989012
_cell_length_c 8.588254
_cell_angle_alpha 90.000000
_cell_angle_beta 90.000000
_cell_angle_gamma 90.000000
_cell_volume 5058.641619
_symmetry_space_group_name_H-M "C C C M"
_symmetry_group_IT_number 66
_symmetry_cell_setting 'orthorhombic'
loop_
_space_group_symop_operation_xyz
x,y,z
-x,-y,z
x,-y,1/2-z
-x,y,1/2-z
-x,-y,-z
x,y,-z
-x,y,1/2+z
x,-y,1/2+z
1/2+x,1/2+y,z
1/2-x,1/2-y,z
1/2+x,1/2-y,1/2-z
1/2-x,1/2+y,1/2-z
1/2-x,1/2-y,-z
1/2+x,1/2+y,-z
1/2-x,1/2+y,1/2+z
1/2+x,1/2-y,1/2+z
loop_
_atom_site_type_symbol
_atom_site_label
_atom_site_fract_x
_atom_site_fract_y
_atom_site_fract_z
Si Si1 0.948174 0.302506 0.314757
Si Si2 0.903943 0.430290 0.186925
Si Si3 0.725901 0.684030 0.690077
Si Si4 0.793099 0.569174 0.312320
Si Si5 0.446659 0.431701 0.686656
Si Si6 0.616224 0.689722 0.688484
O O1 0.949456 0.302383 0.500000
O O2 0.934674 0.372702 0.253977
O O3 0.909213 0.252098 0.255130
O O4 0.000000 0.283930 0.250000
O O5 0.917729 0.500000 0.250000
O O6 0.848331 0.419338 0.232708
O O7 0.906945 0.430134 0.000000
O O8 0.726233 0.682863 0.500000
O O9 0.750000 0.750000 0.739031
O O10 0.757777 0.624499 0.742569
O O11 0.670961 0.682752 0.738729
O O12 0.779068 0.500000 0.250000
O O13 0.791994 0.567951 0.500000
O O14 0.429681 0.500000 0.750000
O O15 0.500000 0.421704 0.750000
O O16 0.448438 0.434587 0.500000
O O17 0.413420 0.373030 0.733604
O O18 0.615413 0.694610 0.500000
#
# Coordination Sequence:
#
# PCOD9496867 Si02
#       6
#    16  16  16  16  16  16
#     4  12  25  40  59  83 111 145 185 230 282 336
#     4  10  20  37  60  86 116 149 187 229 275 328
#     4   9  17  32  55  80 107 143 185 224 266 319
#     4   9  18  33  56  83 112 148 185 225 272 324
#     4  10  20  34  54  78 106 140 179 222 270 324
#     4  10  21  37  57  82 111 146 188 231 275 327
#
# _framework density 18.977426000000001
#
# number of rings (size 3 to 8) (size 9 to 14) (size 15 to 20)
#    0.000    2.000    0.000    4.500    0.000    7.000 
#    0.000    2.500    0.000    2.000    0.000    0.000 
#    0.000    0.000    0.000    0.000    0.000    0.000 
#
# Total GULP energy -268168.034889 kJ/mol
# GULP energy per Si atom -5586.834060 kJ/mol
# Density = 1.893423 g / cm^3
# Si number density = 18.977426 Si / 1000 Ang^3
#
#
#
# Elastic Constant Matrix: (Units=GPa)
#
#
# Indices 1 2 3 4 5 6 
#
# 1 40.6169 17.7158 7.4884 0.0000 0.0000 0.0000
# 2 17.7158 80.2709 14.4642 0.0000 0.0000 0.0000
# 3 7.4884 14.4642 33.6479 0.0000 0.0000 0.0000
# 4 0.0000 0.0000 0.0000 28.4357 0.0000 0.0000
# 5 0.0000 0.0000 0.0000 0.0000 11.1728 0.0000
# 6 0.0000 0.0000 0.0000 0.0000 0.0000 43.1705
#
#
#
# Elastic Compliance Matrix: (Units=1/GPa)
#
#
# Indices 1 2 3 4 5 6 
#
# 1 0.027691 -0.005421 -0.003832 0.000000 0.000000 0.000000
# 2 -0.005421 0.014565 -0.005055 0.000000 0.000000 0.000000
# 3 -0.003832 -0.005055 0.032745 0.000000 0.000000 0.000000
# 4 0.000000 0.000000 0.000000 0.035167 0.000000 0.000000
# 5 0.000000 0.000000 0.000000 0.000000 0.089503 0.000000
# 6 0.000000 0.000000 0.000000 0.000000 0.000000 0.023164
#
#
# Mechanical properties :
#
#
# Convention : Reuss Voigt Hill
#
# Bulk Modulus (GPa) = 21.55840 25.98583 23.77211
# Shear Modulus (GPa) = 18.73270 24.21365 21.47317
#
# Velocity S-wave (km/s) = 3.14523 3.57588 3.36744
# Velocity P-wave (km/s) = 4.95728 5.54724 5.26054
#
# Compressibility (1/GPa) = 0.04638563
#
# Stress axis : x y z
#
# Youngs Moduli (GPa) = 36.11250 68.65774 30.53879
#
# Poissons Ratio (x) = 0.37218 0.11704
# Poissons Ratio (y) = 0.19576 0.15436
# Poissons Ratio (z) = 0.13840 0.34704
#
# Static dielectric constant tensor:
#      x y z
#    x 1.645630 0.000000 0.000000 
#    y 0.000000 1.635730 0.000000 
#    z 0.000000 0.000000 1.648710 
# 
# From -- ./inp_files/8056.got.cif
#   From: 2010.05.17/outbox.cif.g08.bks.cpg/sg66_5_cif.got.tgz:8056.got - 2010.06.03 17:51:23.
