data_PCOD9496036
_publ_section_title
;
Structure prediction by ZEFSAII (Michael W. Deem and Ramdas Pophale) SiO2 
 PCOD9496036
Probable space group: C C C M
;
_chemical_formula_sum "Si O2"
_cell_formula_units_Z 64
_cell_length_a 9.179934
_cell_length_b 19.407424
_cell_length_c 14.140437
_cell_angle_alpha 90.000000
_cell_angle_beta 90.000000
_cell_angle_gamma 90.000000
_cell_volume 2519.244297
_symmetry_space_group_name_H-M "C C C M"
_symmetry_group_IT_number 66
_symmetry_cell_setting 'orthorhombic'
loop_
_space_group_symop_operation_xyz
x,y,z
-x,-y,z
x,-y,1/2-z
-x,y,1/2-z
-x,-y,-z
x,y,-z
-x,y,1/2+z
x,-y,1/2+z
1/2+x,1/2+y,z
1/2-x,1/2-y,z
1/2+x,1/2-y,1/2-z
1/2-x,1/2+y,1/2-z
1/2-x,1/2-y,-z
1/2+x,1/2+y,-z
1/2-x,1/2+y,1/2+z
1/2+x,1/2-y,1/2+z
loop_
_atom_site_type_symbol
_atom_site_label
_atom_site_fract_x
_atom_site_fract_y
_atom_site_fract_z
Si Si1 0.482313 0.879644 0.101865
Si Si2 0.694253 0.560947 0.891123
Si Si3 0.680139 0.592615 0.321735
Si Si4 0.920008 0.231940 0.848857
O O1 0.633447 0.919203 0.111708
O O2 0.355409 0.894854 0.175675
O O3 0.497288 0.796202 0.100468
O O4 0.419434 0.900615 0.000000
O O5 0.641694 0.592992 0.790257
O O6 0.662011 0.480819 0.870811
O O7 0.650832 0.578275 0.000000
O O8 0.598965 0.652876 0.380122
O O9 0.750000 0.250000 0.838227
O O10 0.000000 0.230751 0.750000
#
# Coordination Sequence:
#
# PCOD9496036 Si02
#       4
#    16  16  16  16
#     4  10  19  32  56  89 123 159 203 256 310 365
#     4  10  20  35  56  85 121 163 207 250 306 375
#     4  10  20  34  56  83 118 160 204 256 309 363
#     4  10  21  38  61  88 123 164 207 254 310 370
#
# _framework density 25.404444999999999
#
# number of rings (size 3 to 8) (size 9 to 14) (size 15 to 20)
#    0.000    2.000    0.000    5.250    0.000    9.500 
#    0.000    3.750    0.000   12.000    0.000    0.000 
#    0.000    0.000    0.000    0.000    0.000    0.000 
#
# Total GULP energy -178484.604762 kJ/mol
# GULP energy per Si atom -5577.643899 kJ/mol
# Density = 2.534662 g / cm^3
# Si number density = 25.404445 Si / 1000 Ang^3
#
#
#
# Elastic Constant Matrix: (Units=GPa)
#
#
# Indices 1 2 3 4 5 6 
#
# 1 81.5488 64.0918 38.0447 0.0000 0.0000 0.0000
# 2 64.0918 131.5014 36.9652 0.0000 0.0000 0.0000
# 3 38.0447 36.9652 174.2608 0.0000 0.0000 0.0000
# 4 0.0000 0.0000 0.0000 71.8897 0.0000 0.0000
# 5 0.0000 0.0000 0.0000 0.000023356.6378 0.0000
# 6 0.0000 0.0000 0.0000 0.0000 0.0000 42.8872
#
#
#
# Elastic Compliance Matrix: (Units=1/GPa)
#
#
# Indices 1 2 3 4 5 6 
#
# 1 0.020893 -0.009465 -0.002554 0.000000 0.000000 0.000000
# 2 -0.009465 0.012375 -0.000559 0.000000 0.000000 0.000000
# 3 -0.002554 -0.000559 0.006415 0.000000 0.000000 0.000000
# 4 0.000000 0.000000 0.000000 0.013910 0.000000 0.000000
# 5 0.000000 0.000000 0.000000 0.000000 0.000043 0.000000
# 6 0.000000 0.000000 0.000000 0.000000 0.000000 0.023317
#
#
# Mechanical properties :
#
#
# Convention : Reuss Voigt Hill
#
# Bulk Modulus (GPa) = 68.83441 73.94605 71.39023
# Shear Modulus (GPa) = 46.75142 4710.83022 2378.79082
#
# Velocity S-wave (km/s) = 4.29451 43.10868 30.63333
# Velocity P-wave (km/s) = 7.19337 50.06977 35.76819
#
# Compressibility (1/GPa) = 0.01452762
#
# Stress axis : x y z
#
# Youngs Moduli (GPa) = 47.86348 80.81068 155.89675
#
# Poissons Ratio (x) = 0.76487 0.39809
# Poissons Ratio (y) = 0.45303 0.08708
# Poissons Ratio (z) = 0.12222 0.04514
#
# Static dielectric constant tensor:
#      x y z
#    x 1.994860 0.000000 0.000000 
#    y 0.000000 2.076350 0.000000 
#    z 0.000000 0.000000 1.930470 
# 
# From -- ./inp_files/25995.got.cif
#   From: 2010.05.17/outbox.cif.g08.bks.cpg/sg66_13_cif.got.tgz:25995.got - 2010.06.03 17:51:23.
