data_PCOD9496218
_publ_section_title
;
Structure prediction by ZEFSAII (Michael W. Deem and Ramdas Pophale) SiO2 
 PCOD9496218
Probable space group: C C C M
;
_chemical_formula_sum "Si O2"
_cell_formula_units_Z 96
_cell_length_a 30.408533
_cell_length_b 20.298846
_cell_length_c 8.791094
_cell_angle_alpha 90.000000
_cell_angle_beta 90.000000
_cell_angle_gamma 90.000000
_cell_volume 5426.374229
_symmetry_space_group_name_H-M "C C C M"
_symmetry_group_IT_number 66
_symmetry_cell_setting 'orthorhombic'
loop_
_space_group_symop_operation_xyz
x,y,z
-x,-y,z
x,-y,1/2-z
-x,y,1/2-z
-x,-y,-z
x,y,-z
-x,y,1/2+z
x,-y,1/2+z
1/2+x,1/2+y,z
1/2-x,1/2-y,z
1/2+x,1/2-y,1/2-z
1/2-x,1/2+y,1/2-z
1/2-x,1/2-y,-z
1/2+x,1/2+y,-z
1/2-x,1/2+y,1/2+z
1/2+x,1/2-y,1/2+z
loop_
_atom_site_type_symbol
_atom_site_label
_atom_site_fract_x
_atom_site_fract_y
_atom_site_fract_z
Si Si1 0.336232 0.431242 0.182164
Si Si2 0.126326 0.792194 0.682853
Si Si3 0.232690 0.570185 0.682641
Si Si4 0.450620 0.065486 0.318564
Si Si5 0.048925 0.711592 0.817835
Si Si6 0.205934 0.707930 0.817701
O O1 0.352174 0.500000 0.250000
O O2 0.362601 0.366787 0.231651
O O3 0.284674 0.423328 0.223575
O O4 0.338086 0.435109 0.000000
O O5 0.126407 0.789678 0.500000
O O6 0.080714 0.765462 0.747168
O O7 0.164908 0.745976 0.746550
O O8 0.217536 0.500000 0.750000
O O9 0.228757 0.569722 0.500000
O O10 0.209819 0.634403 0.751717
O O11 0.500000 0.067221 0.250000
O O12 0.453216 0.058547 0.500000
O O13 0.432274 0.137915 0.282479
O O14 0.428685 0.000000 0.250000
O O15 0.000000 0.715978 0.750000
O O16 0.046803 0.717183 0.000000
O O17 0.250000 0.750000 0.780517
O O18 0.201816 0.705232 0.000000
#
# Coordination Sequence:
#
# PCOD9496218 Si02
#       6
#    16  16  16  16  16  16
#     4   9  19  33  53  80 109 141 180 223 271 327
#     4  11  22  37  57  83 112 146 185 229 279 332
#     4  10  19  34  54  78 111 149 188 229 274 329
#     4   9  16  27  47  73 101 131 170 214 261 312
#     4  10  21  37  56  81 110 144 184 231 280 334
#     4  11  22  35  54  81 112 147 185 227 274 327
#
# _framework density 17.691371
#
# number of rings (size 3 to 8) (size 9 to 14) (size 15 to 20)
#    0.000    2.000    1.667    3.000    0.000    4.667 
#    0.000    0.833    0.000    2.500    0.000    3.500 
#    0.000    0.000    0.000    0.000    0.000    0.000 
#
# Total GULP energy -267883.754917 kJ/mol
# GULP energy per Si atom -5580.911561 kJ/mol
# Density = 1.765110 g / cm^3
# Si number density = 17.691371 Si / 1000 Ang^3
#
#
#
# Elastic Constant Matrix: (Units=GPa)
#
#
# Indices 1 2 3 4 5 6 
#
# 1 62.6953 59.6636 28.8144 0.0000 0.0000 0.0000
# 2 59.6636 189.8854 53.9384 0.0000 0.0000 0.0000
# 3 28.8144 53.9384 57.6574 0.0000 0.0000 0.0000
# 4 0.0000 0.0000 0.0000 35.0977 0.0000 0.0000
# 5 0.0000 0.0000 0.0000 0.0000 22.4341 0.0000
# 6 0.0000 0.0000 0.0000 0.0000 0.0000 -2.7074
#
#
#
# Elastic Compliance Matrix: (Units=1/GPa)
#
#
# Indices 1 2 3 4 5 6 
#
# 1 0.024617 -0.005775 -0.006900 0.000000 0.000000 0.000000
# 2 -0.005775 0.008527 -0.005091 0.000000 0.000000 0.000000
# 3 -0.006900 -0.005091 0.025555 0.000000 0.000000 0.000000
# 4 0.000000 0.000000 0.000000 0.028492 0.000000 0.000000
# 5 0.000000 0.000000 0.000000 0.000000 0.044575 0.000000
# 6 0.000000 0.000000 0.000000 0.000000 0.000000 -0.369356
#
#
# Mechanical properties :
#
#
# Convention : Reuss Voigt Hill
#
# Bulk Modulus (GPa) = 43.16490 66.11899 54.64194
# Shear Modulus (GPa) = -25.72856 22.15299 -1.78778
#
# Velocity S-wave (km/s) = -3.81767 3.54247 -1.00635
# Velocity P-wave (km/s) = 2.24032 7.36117 5.44086
#
# Compressibility (1/GPa) = 0.02316697
#
# Stress axis : x y z
#
# Youngs Moduli (GPa) = 40.62234 117.27490 39.13177
#
# Poissons Ratio (x) = 0.67725 0.27001
# Poissons Ratio (y) = 0.23459 0.19922
# Poissons Ratio (z) = 0.28029 0.59704
#
# Static dielectric constant tensor:
#      x y z
#    x 1.590670 0.000000 0.000000 
#    y 0.000000 1.622660 0.000000 
#    z 0.000000 0.000000 1.588410 
# 
# From -- ./inp_files/10231.got.cif
#   From: 2010.05.17/outbox.cif.g08.bks.cpg/sg66_6_cif.got.tgz:10231.got - 2010.06.03 17:51:23.
