data_PCOD9496786
_publ_section_title
;
Structure prediction by ZEFSAII (Michael W. Deem and Ramdas Pophale) SiO2 
 PCOD9496786
Probable space group: C C C M
;
_chemical_formula_sum "Si O2"
_cell_formula_units_Z 60
_cell_length_a 14.592858
_cell_length_b 15.791588
_cell_length_c 14.121619
_cell_angle_alpha 90.000000
_cell_angle_beta 90.000000
_cell_angle_gamma 90.000000
_cell_volume 3254.248036
_symmetry_space_group_name_H-M "C C C M"
_symmetry_group_IT_number 66
_symmetry_cell_setting 'orthorhombic'
loop_
_space_group_symop_operation_xyz
x,y,z
-x,-y,z
x,-y,1/2-z
-x,y,1/2-z
-x,-y,-z
x,y,-z
-x,y,1/2+z
x,-y,1/2+z
1/2+x,1/2+y,z
1/2-x,1/2-y,z
1/2+x,1/2-y,1/2-z
1/2-x,1/2+y,1/2-z
1/2-x,1/2-y,-z
1/2+x,1/2+y,-z
1/2-x,1/2+y,1/2+z
1/2+x,1/2-y,1/2+z
loop_
_atom_site_type_symbol
_atom_site_label
_atom_site_fract_x
_atom_site_fract_y
_atom_site_fract_z
Si Si1 0.000000 0.500000 0.750000
Si Si2 0.750000 0.250000 0.323326
Si Si3 0.851412 0.419037 0.390489
Si Si4 0.599335 0.360657 0.761691
Si Si5 0.656289 0.502807 0.890749
O O1 0.067653 0.556460 0.682561
O O2 0.803331 0.326023 0.377951
O O3 0.675789 0.293268 0.257661
O O4 0.881924 0.426362 0.500000
O O5 0.765376 0.483602 0.375289
O O6 0.500000 0.322124 0.750000
O O7 0.620732 0.412208 0.856557
O O8 0.607840 0.429533 0.677073
O O9 0.636877 0.519186 0.000000
#
# Coordination Sequence:
#
# PCOD9496786 Si02
#       5
#     4   8  16  16  16
#     4  12  22  36  64  90 114 150 202 256 276 338
#     4  10  21  38  55  78 122 154 189 236 285 342
#     4  10  21  37  59  84 114 154 193 235 290 344
#     4  10  20  33  55  83 110 145 189 232 286 338
#     4   9  18  36  58  81 109 144 185 234 286 345
#
# _framework density 18.437439000000001
#
# number of rings (size 3 to 8) (size 9 to 14) (size 15 to 20)
#    0.000    2.133    0.000    5.600    1.867    3.200 
#    0.000    0.667    0.000    0.000    0.000    0.000 
#    0.000    0.000    0.000    0.000    0.000    0.000 
#
# Total GULP energy -167185.891947 kJ/mol
# GULP energy per Si atom -5572.863065 kJ/mol
# Density = 1.839547 g / cm^3
# Si number density = 18.437439 Si / 1000 Ang^3
#
#
#
# Elastic Constant Matrix: (Units=GPa)
#
#
# Indices 1 2 3 4 5 6 
#
# 1 100.0126 37.9001 32.2052 0.0000 0.0000 0.0000
# 2 37.9001 58.0967 5.2081 0.0000 0.0000 0.0000
# 3 32.2052 5.2081 76.1410 0.0000 0.0000 0.0000
# 4 0.0000 0.0000 0.0000 10.7758 0.0000 0.0000
# 5 0.0000 0.0000 0.0000 0.0000 25.3439 0.0000
# 6 0.0000 0.0000 0.0000 0.0000 0.0000 -6.2043
#
#
#
# Elastic Compliance Matrix: (Units=1/GPa)
#
#
# Indices 1 2 3 4 5 6 
#
# 1 0.015547 -0.009612 -0.005918 0.000000 0.000000 0.000000
# 2 -0.009612 0.023261 0.002474 0.000000 0.000000 0.000000
# 3 -0.005918 0.002474 0.015468 0.000000 0.000000 0.000000
# 4 0.000000 0.000000 0.000000 0.092801 0.000000 0.000000
# 5 0.000000 0.000000 0.000000 0.000000 0.039457 0.000000
# 6 0.000000 0.000000 0.000000 0.000000 0.000000 -0.161179
#
#
# Mechanical properties :
#
#
# Convention : Reuss Voigt Hill
#
# Bulk Modulus (GPa) = 35.50606 42.76413 39.13509
# Shear Modulus (GPa) = 82.16318 16.57887 49.37103
#
# Velocity S-wave (km/s) = 6.68281 3.00191 5.18032
# Velocity P-wave (km/s) = 8.87953 5.93800 7.55334
#
# Compressibility (1/GPa) = 0.02816421
#
# Stress axis : x y z
#
# Youngs Moduli (GPa) = 64.32147 42.99007 64.65144
#
# Poissons Ratio (x) = 0.41321 0.38263
# Poissons Ratio (y) = 0.61824 -0.15997
# Poissons Ratio (z) = 0.38068 -0.10637
#
# Static dielectric constant tensor:
#      x y z
#    x 1.681680 0.000000 0.000000 
#    y 0.000000 1.657820 0.000000 
#    z 0.000000 0.000000 1.620600 
# 
# From -- ./inp_files/25681.got.cif
#   From: 2010.05.17/outbox.cif.g08.bks.cpg/sg66_13_cif.got.tgz:25681.got - 2010.06.03 17:51:23.
