data_PCOD9496764
_publ_section_title
;
Structure prediction by ZEFSAII (Michael W. Deem and Ramdas Pophale) SiO2 
 PCOD9496764
Probable space group: C C C M
;
_chemical_formula_sum "Si O2"
_cell_formula_units_Z 96
_cell_length_a 20.173418
_cell_length_b 30.287043
_cell_length_c 8.891590
_cell_angle_alpha 90.000000
_cell_angle_beta 90.000000
_cell_angle_gamma 90.000000
_cell_volume 5432.700835
_symmetry_space_group_name_H-M "C C C M"
_symmetry_group_IT_number 66
_symmetry_cell_setting 'orthorhombic'
loop_
_space_group_symop_operation_xyz
x,y,z
-x,-y,z
x,-y,1/2-z
-x,y,1/2-z
-x,-y,-z
x,y,-z
-x,y,1/2+z
x,-y,1/2+z
1/2+x,1/2+y,z
1/2-x,1/2-y,z
1/2+x,1/2-y,1/2-z
1/2-x,1/2+y,1/2-z
1/2-x,1/2-y,-z
1/2+x,1/2+y,-z
1/2-x,1/2+y,1/2+z
1/2+x,1/2-y,1/2+z
loop_
_atom_site_type_symbol
_atom_site_label
_atom_site_fract_x
_atom_site_fract_y
_atom_site_fract_z
Si Si1 0.929822 0.336598 0.820333
Si Si2 0.929975 0.768050 0.321049
Si Si3 0.065430 0.950696 0.179618
Si Si4 0.287255 0.451175 0.680034
Si Si5 0.298913 0.123973 0.820233
Si Si6 0.793705 0.792429 0.180270
O O1 0.921240 0.284298 0.785464
O O2 0.869342 0.363192 0.749458
O O3 0.000000 0.350153 0.750000
O O4 0.930900 0.341376 0.000000
O O5 0.933144 0.772969 0.500000
O O6 0.865386 0.791818 0.256285
O O7 0.000000 0.782180 0.250000
O O8 0.138531 0.932194 0.213252
O O9 0.000000 0.928603 0.250000
O O10 0.067485 0.000000 0.250000
O O11 0.057680 0.953602 0.000000
O O12 0.283272 0.500000 0.750000
O O13 0.281157 0.453980 0.500000
O O14 0.232263 0.419787 0.749969
O O15 0.248503 0.164101 0.785617
O O16 0.304276 0.120202 0.000000
O O17 0.750000 0.750000 0.228692
O O18 0.802500 0.789246 0.000000
#
# Coordination Sequence:
#
# PCOD9496764 Si02
#       6
#    16  16  16  16  16  16
#     4  10  20  34  54  81 111 143 182 227 271 324
#     4  10  20  33  53  78 109 148 188 228 274 326
#     4   9  16  27  47  73 100 131 169 215 263 313
#     4  10  21  37  56  80 110 144 185 232 280 331
#     4  11  22  36  57  83 111 146 184 227 278 330
#     4  10  20  35  54  78 111 146 182 225 272 325
#
# _framework density 17.670769
#
# number of rings (size 3 to 8) (size 9 to 14) (size 15 to 20)
#    0.000    2.000    1.667    3.000    0.000    5.000 
#    0.000    0.833    0.000    2.500    0.000    3.500 
#    0.000    0.000    0.000    0.000    0.000    0.000 
#
# Total GULP energy -267927.072069 kJ/mol
# GULP energy per Si atom -5581.814001 kJ/mol
# Density = 1.763055 g / cm^3
# Si number density = 17.670769 Si / 1000 Ang^3
#
#
#
# Elastic Constant Matrix: (Units=GPa)
#
#
# Indices 1 2 3 4 5 6 
#
# 1 182.4360 51.5659 70.8700 0.0000 0.0000 0.0000
# 2 51.5659 52.8540 37.5761 0.0000 0.0000 0.0000
# 3 70.8700 37.5761 60.1586 0.0000 0.0000 0.0000
# 4 0.0000 0.0000 0.0000 9.1780 0.0000 0.0000
# 5 0.0000 0.0000 0.0000 0.0000 35.2564 0.0000
# 6 0.0000 0.0000 0.0000 0.0000 0.0000 23.5976
#
#
#
# Elastic Compliance Matrix: (Units=1/GPa)
#
#
# Indices 1 2 3 4 5 6 
#
# 1 0.010295 -0.002557 -0.010531 0.000000 0.000000 0.000000
# 2 -0.002557 0.034668 -0.018642 0.000000 0.000000 0.000000
# 3 -0.010531 -0.018642 0.040672 0.000000 0.000000 0.000000
# 4 0.000000 0.000000 0.000000 0.108956 0.000000 0.000000
# 5 0.000000 0.000000 0.000000 0.000000 0.028364 0.000000
# 6 0.000000 0.000000 0.000000 0.000000 0.000000 0.042377
#
#
# Mechanical properties :
#
#
# Convention : Reuss Voigt Hill
#
# Bulk Modulus (GPa) = 45.09347 68.38583 56.73965
# Shear Modulus (GPa) = 14.87281 22.63550 18.75416
#
# Velocity S-wave (km/s) = 2.90429 3.58293 3.26131
# Velocity P-wave (km/s) = 6.06800 7.47666 6.80886
#
# Compressibility (1/GPa) = 0.02217616
#
# Stress axis : x y z
#
# Youngs Moduli (GPa) = 97.13415 28.84488 24.58679
#
# Poissons Ratio (x) = 0.07377 0.25892
# Poissons Ratio (y) = 0.24842 0.45834
# Poissons Ratio (z) = 1.02289 0.53771
#
# Static dielectric constant tensor:
#      x y z
#    x 1.605000 0.000000 0.000000 
#    y 0.000000 1.590510 0.000000 
#    z 0.000000 0.000000 1.584730 
# 
# From -- ./inp_files/7992.got.cif
#   From: 2010.05.17/outbox.cif.g08.bks.cpg/sg66_4_cif.got.tgz:7992.got - 2010.06.03 17:51:23.
