data_PCOD9496558
_publ_section_title
;
Structure prediction by ZEFSAII (Michael W. Deem and Ramdas Pophale) SiO2 
 PCOD9496558
Probable space group: C C C M
;
_chemical_formula_sum "Si O2"
_cell_formula_units_Z 88
_cell_length_a 5.709119
_cell_length_b 32.344296
_cell_length_c 25.298106
_cell_angle_alpha 90.000000
_cell_angle_beta 90.000000
_cell_angle_gamma 90.000000
_cell_volume 4671.483360
_symmetry_space_group_name_H-M "C C C M"
_symmetry_group_IT_number 66
_symmetry_cell_setting 'orthorhombic'
loop_
_space_group_symop_operation_xyz
x,y,z
-x,-y,z
x,-y,1/2-z
-x,y,1/2-z
-x,-y,-z
x,y,-z
-x,y,1/2+z
x,-y,1/2+z
1/2+x,1/2+y,z
1/2-x,1/2-y,z
1/2+x,1/2-y,1/2-z
1/2-x,1/2+y,1/2-z
1/2-x,1/2-y,-z
1/2+x,1/2+y,-z
1/2-x,1/2+y,1/2+z
1/2+x,1/2-y,1/2+z
loop_
_atom_site_type_symbol
_atom_site_label
_atom_site_fract_x
_atom_site_fract_y
_atom_site_fract_z
Si Si1 0.862490 0.660666 0.806388
Si Si2 0.734832 0.593119 0.500000
Si Si3 0.183001 0.467126 0.113906
Si Si4 0.522371 0.580786 0.809950
Si Si5 0.872089 0.386367 0.886661
Si Si6 0.750000 0.750000 0.780976
Si Si7 0.239260 0.456278 0.000000
O O1 0.685805 0.621875 0.806721
O O2 0.748017 0.705770 0.809908
O O3 0.000000 0.658420 0.750000
O O4 0.021376 0.653540 0.858237
O O5 0.754401 0.617603 0.555803
O O6 0.476528 0.571801 0.500000
O O7 0.975759 0.564777 0.500000
O O8 0.381249 0.456599 0.155022
O O9 0.000000 0.500000 0.135198
O O10 0.067318 0.421880 0.106313
O O11 0.252724 0.480966 0.054999
O O12 0.500000 0.566998 0.750000
O O13 0.296152 0.595466 0.841589
O O14 0.500000 0.750399 0.750000
#
# Coordination Sequence:
#
# PCOD9496558 Si02
#       7
#    16   8  16  16  16   8   8
#     4  10  20  35  60  87 121 150 191 245 304 367
#     4  10  20  38  59  87 117 152 206 250 299 355
#     4  10  22  37  54  80 115 152 203 256 308 354
#     4  11  20  35  58  78 111 158 200 243 304 367
#     4  10  21  37  57  83 114 158 198 247 299 361
#     4  10  22  36  58  97 128 153 190 248 304 364
#     4  10  19  38  60  86 112 145 199 267 311 346
#
# _framework density 18.837700000000002
#
# number of rings (size 3 to 8) (size 9 to 14) (size 15 to 20)
#    0.000    1.818    3.636    0.818    2.545    0.727 
#    0.000    4.545    0.000    0.545    0.000    1.273 
#    0.000    0.000    0.000    0.000    0.000    0.000 
#
# Total GULP energy -245026.960792 kJ/mol
# GULP energy per Si atom -5568.794563 kJ/mol
# Density = 1.879482 g / cm^3
# Si number density = 18.837700 Si / 1000 Ang^3
#
#
#
# Elastic Constant Matrix: (Units=GPa)
#
#
# Indices 1 2 3 4 5 6 
#
# 1 73.4417 17.4099 20.1244 0.0000 0.0000 0.0000
# 2 17.4099 79.0041 12.5541 0.0000 0.0000 0.0000
# 3 20.1244 12.5541 117.8601 0.0000 0.0000 0.0000
# 4 0.0000 0.0000 0.0000 -6.8046 0.0000 0.0000
# 5 0.0000 0.0000 0.0000 0.0000 1359.3205 0.0000
# 6 0.0000 0.0000 0.0000 0.0000 0.0000 30.3814
#
#
#
# Elastic Compliance Matrix: (Units=1/GPa)
#
#
# Indices 1 2 3 4 5 6 
#
# 1 0.014924 -0.002934 -0.002236 0.000000 0.000000 0.000000
# 2 -0.002934 0.013452 -0.000932 0.000000 0.000000 0.000000
# 3 -0.002236 -0.000932 0.008966 0.000000 0.000000 0.000000
# 4 0.000000 0.000000 0.000000 -0.146960 0.000000 0.000000
# 5 0.000000 0.000000 0.000000 0.000000 0.000736 0.000000
# 6 0.000000 0.000000 0.000000 0.000000 0.000000 0.032915
#
#
# Mechanical properties :
#
#
# Convention : Reuss Voigt Hill
#
# Bulk Modulus (GPa) = 39.77818 41.16474 40.47146
# Shear Modulus (GPa) = -90.27814 291.26062 100.49124
#
# Velocity S-wave (km/s) = -6.93024 12.44795 7.31175
# Velocity P-wave (km/s) = 6.54794 15.11627 9.63396
#
# Compressibility (1/GPa) = 0.02513941
#
# Stress axis : x y z
#
# Youngs Moduli (GPa) = 67.00473 74.33772 111.53656
#
# Poissons Ratio (x) = 0.21807 0.24938
# Poissons Ratio (y) = 0.19656 0.10395
# Poissons Ratio (z) = 0.14981 0.06928
#
# Static dielectric constant tensor:
#      x y z
#    x 2.316000 0.000000 0.000000 
#    y 0.000000 1.640890 0.000000 
#    z 0.000000 0.000000 1.802170 
# 
# From -- ./inp_files/54475.got.cif
#   From: 2010.05.17/outbox.cif.g08.bks.cpg/sg66_28_cif.got.tgz:54475.got - 2010.06.03 17:51:23.
