data_PCOD9496565
_publ_section_title
;
Structure prediction by ZEFSAII (Michael W. Deem and Ramdas Pophale) SiO2 
 PCOD9496565
Probable space group: C C C M
;
_chemical_formula_sum "Si O2"
_cell_formula_units_Z 80
_cell_length_a 11.998183
_cell_length_b 15.685755
_cell_length_c 20.745316
_cell_angle_alpha 90.000000
_cell_angle_beta 90.000000
_cell_angle_gamma 90.000000
_cell_volume 3904.280067
_symmetry_space_group_name_H-M "C C C M"
_symmetry_group_IT_number 66
_symmetry_cell_setting 'orthorhombic'
loop_
_space_group_symop_operation_xyz
x,y,z
-x,-y,z
x,-y,1/2-z
-x,y,1/2-z
-x,-y,-z
x,y,-z
-x,y,1/2+z
x,-y,1/2+z
1/2+x,1/2+y,z
1/2-x,1/2-y,z
1/2+x,1/2-y,1/2-z
1/2-x,1/2+y,1/2-z
1/2-x,1/2-y,-z
1/2+x,1/2+y,-z
1/2-x,1/2+y,1/2+z
1/2+x,1/2-y,1/2+z
loop_
_atom_site_type_symbol
_atom_site_label
_atom_site_fract_x
_atom_site_fract_y
_atom_site_fract_z
Si Si1 0.403303 0.301983 0.078215
Si Si2 0.750000 0.250000 0.115186
Si Si3 0.118360 0.091166 0.573165
Si Si4 0.768727 0.558675 0.922470
Si Si5 0.500000 0.000000 0.639322
Si Si6 0.526122 0.187780 0.821651
O O1 0.499944 0.371937 0.094800
O O2 0.286178 0.348922 0.091847
O O3 0.440734 0.224330 0.124064
O O4 0.410054 0.283180 0.000000
O O5 0.796721 0.170700 0.075069
O O6 0.647193 0.219194 0.157451
O O7 0.098007 0.065014 0.500000
O O8 0.181759 0.012096 0.604672
O O9 0.890599 0.529717 0.900068
O O10 0.770396 0.554729 0.000000
O O11 0.528509 0.914482 0.677632
O O12 0.500000 0.219025 0.750000
#
# Coordination Sequence:
#
# PCOD9496565 Si02
#       6
#    16   8  16  16   8  16
#     4   9  20  38  64  93 125 161 209 261 315 366
#     4  10  19  38  62  86 117 160 214 258 300 364
#     4   9  16  31  59  93 124 159 203 256 308 362
#     4  10  20  35  59  95 132 165 199 255 317 376
#     4  12  24  40  58  88 127 170 205 252 313 382
#     4  11  25  43  64  89 122 166 215 257 313 371
#
# _framework density 20.490333
#
# number of rings (size 3 to 8) (size 9 to 14) (size 15 to 20)
#    0.000    2.000    2.000    1.500    0.000    7.200 
#    0.000    2.000    0.000    4.800    0.000    0.000 
#    0.000    0.000    0.000    0.000    0.000    0.000 
#
# Total GULP energy -222939.115623 kJ/mol
# GULP energy per Si atom -5573.477891 kJ/mol
# Density = 2.044370 g / cm^3
# Si number density = 20.490333 Si / 1000 Ang^3
#
#
#
# Elastic Constant Matrix: (Units=GPa)
#
#
# Indices 1 2 3 4 5 6 
#
# 1 145.6096 49.2140 51.0992 0.0000 0.0000 0.0000
# 2 49.2140 119.3265 40.9466 0.0000 0.0000 0.0000
# 3 51.0992 40.9466 78.0955 0.0000 0.0000 0.0000
# 4 0.0000 0.0000 0.0000 20.9357 0.0000 0.0000
# 5 0.0000 0.0000 0.0000 0.0000 -3.1693 0.0000
# 6 0.0000 0.0000 0.0000 0.0000 0.0000 42.8722
#
#
#
# Elastic Compliance Matrix: (Units=1/GPa)
#
#
# Indices 1 2 3 4 5 6 
#
# 1 0.009343 -0.002141 -0.004991 0.000000 0.000000 0.000000
# 2 -0.002141 0.010709 -0.004214 0.000000 0.000000 0.000000
# 3 -0.004991 -0.004214 0.018280 0.000000 0.000000 0.000000
# 4 0.000000 0.000000 0.000000 0.047765 0.000000 0.000000
# 5 0.000000 0.000000 0.000000 0.000000 -0.315531 0.000000
# 6 0.000000 0.000000 0.000000 0.000000 0.000000 0.023325
#
#
# Mechanical properties :
#
#
# Convention : Reuss Voigt Hill
#
# Bulk Modulus (GPa) = 63.93644 69.50567 66.72106
# Shear Modulus (GPa) = -28.05774 25.57917 -1.23928
#
# Velocity S-wave (km/s) = -3.70444 3.53704 -0.77854
# Velocity P-wave (km/s) = 3.60191 7.11869 5.64134
#
# Compressibility (1/GPa) = 0.01564053
#
# Stress axis : x y z
#
# Youngs Moduli (GPa) = 107.03707 93.37579 54.70468
#
# Poissons Ratio (x) = 0.19988 0.27301
# Poissons Ratio (y) = 0.22913 0.23055
# Poissons Ratio (z) = 0.53418 0.39353
#
# Static dielectric constant tensor:
#      x y z
#    x 1.760030 0.000000 0.000000 
#    y 0.000000 1.799190 0.000000 
#    z 0.000000 0.000000 1.689910 
# 
# From -- ./inp_files/56651.got.cif
#   From: 2010.05.17/outbox.cif.g08.bks.cpg/sg66_29_cif.got.tgz:56651.got - 2010.06.03 17:51:23.
