data_PCOD9496625
_publ_section_title
;
Structure prediction by ZEFSAII (Michael W. Deem and Ramdas Pophale) SiO2 
 PCOD9496625
Probable space group: C C C M
;
_chemical_formula_sum "Si O2"
_cell_formula_units_Z 128
_cell_length_a 22.595546
_cell_length_b 13.616611
_cell_length_c 20.775635
_cell_angle_alpha 90.000000
_cell_angle_beta 90.000000
_cell_angle_gamma 90.000000
_cell_volume 6392.138517
_symmetry_space_group_name_H-M "C C C M"
_symmetry_group_IT_number 66
_symmetry_cell_setting 'orthorhombic'
loop_
_space_group_symop_operation_xyz
x,y,z
-x,-y,z
x,-y,1/2-z
-x,y,1/2-z
-x,-y,-z
x,y,-z
-x,y,1/2+z
x,-y,1/2+z
1/2+x,1/2+y,z
1/2-x,1/2-y,z
1/2+x,1/2-y,1/2-z
1/2-x,1/2+y,1/2-z
1/2-x,1/2-y,-z
1/2+x,1/2+y,-z
1/2-x,1/2+y,1/2+z
1/2+x,1/2-y,1/2+z
loop_
_atom_site_type_symbol
_atom_site_label
_atom_site_fract_x
_atom_site_fract_y
_atom_site_fract_z
Si Si1 0.577339 0.927498 0.808955
Si Si2 0.668325 0.350830 0.728724
Si Si3 0.082461 0.441414 0.573074
Si Si4 0.832399 0.845600 0.620210
Si Si5 0.205299 0.377445 0.228042
Si Si6 0.958284 0.800957 0.190331
Si Si7 0.456116 0.715223 0.925748
Si Si8 0.293844 0.883559 0.880801
O O1 0.648518 0.920166 0.806827
O O2 0.553634 0.816912 0.802023
O O3 0.561936 0.000000 0.750000
O O4 0.561200 0.979464 0.875401
O O5 0.658869 0.372429 0.804501
O O6 0.728515 0.401963 0.703894
O O7 0.689477 0.237844 0.726085
O O8 0.605164 0.355299 0.694128
O O9 0.067386 0.466071 0.500000
O O10 0.059364 0.330757 0.587524
O O11 0.153740 0.436075 0.581481
O O12 0.895649 0.846213 0.585891
O O13 0.773313 0.900091 0.595678
O O14 0.811832 0.731670 0.615635
O O15 0.205225 0.401768 0.303970
O O16 0.000000 0.830479 0.250000
O O17 0.993925 0.815714 0.124614
O O18 0.473943 0.707498 0.000000
#
# Coordination Sequence:
#
# PCOD9496625 Si02
#       8
#    16  16  16  16  16  16  16  16
#     4  11  20  30  45  63  85 116 153 184 210 248
#     4   8  14  26  45  65  82 102 135 183 229 258
#     4  10  20  31  41  59  90 123 152 181 212 248
#     4   8  13  24  42  62  84 109 138 176 223 264
#     4   8  14  26  45  65  82 102 135 183 229 258
#     4  11  20  30  45  63  85 116 153 184 210 248
#     4  10  20  31  41  59  90 123 152 181 212 248
#     4   8  13  24  42  62  84 109 138 176 223 264
#
# _framework density 20.024598000000001
#
# number of rings (size 3 to 8) (size 9 to 14) (size 15 to 20)
#    0.000    2.750    2.500    2.250    0.000    2.750 
#    0.000    3.750    0.000    0.750    0.000    3.500 
#    0.000    3.500    0.000    2.250    0.000    0.250 
#
# Total GULP energy -356748.001313 kJ/mol
# GULP energy per Si atom -5574.187521 kJ/mol
# Density = 1.997902 g / cm^3
# Si number density = 20.024598 Si / 1000 Ang^3
#
#
#
# Elastic Constant Matrix: (Units=GPa)
#
#
# Indices 1 2 3 4 5 6 
#
# 1 175.4175 10.7412 45.0805 0.0000 0.0000 0.0000
# 2 10.7412 13.9914 -1.6293 0.0000 0.0000 0.0000
# 3 45.0805 -1.6293 65.5764 0.0000 0.0000 0.0000
# 4 0.0000 0.0000 0.0000 5.9400 0.0000 0.0000
# 5 0.0000 0.0000 0.0000 0.0000 35.3626 0.0000
# 6 0.0000 0.0000 0.0000 0.0000 0.0000 22.9248
#
#
#
# Elastic Compliance Matrix: (Units=1/GPa)
#
#
# Indices 1 2 3 4 5 6 
#
# 1 0.007444 -0.006329 -0.005274 0.000000 0.000000 0.000000
# 2 -0.006329 0.077061 0.006265 0.000000 0.000000 0.000000
# 3 -0.005274 0.006265 0.019031 0.000000 0.000000 0.000000
# 4 0.000000 0.000000 0.000000 0.168350 0.000000 0.000000
# 5 0.000000 0.000000 0.000000 0.000000 0.028278 0.000000
# 6 0.000000 0.000000 0.000000 0.000000 0.000000 0.043621
#
#
# Mechanical properties :
#
#
# Convention : Reuss Voigt Hill
#
# Bulk Modulus (GPa) = 10.76894 40.37445 25.57169
# Shear Modulus (GPa) = 12.97307 26.23168 19.60237
#
# Velocity S-wave (km/s) = 2.54806 3.62328 3.13216
# Velocity P-wave (km/s) = 3.74785 6.14088 5.08708
#
# Compressibility (1/GPa) = 0.09285966
#
# Stress axis : x y z
#
# Youngs Moduli (GPa) = 134.34235 12.97678 52.54607
#
# Poissons Ratio (x) = 0.08213 0.27715
# Poissons Ratio (y) = 0.85021 -0.32921
# Poissons Ratio (z) = 0.70857 -0.08130
#
# Static dielectric constant tensor:
#      x y z
#    x 1.760980 0.000000 0.000000 
#    y 0.000000 1.769390 0.000000 
#    z 0.000000 0.000000 1.670010 
# 
# From -- ./inp_files/52680.got.cif
#   From: 2010.05.17/outbox.cif.g08.bks.cpg/sg66_27_cif.got.tgz:52680.got - 2010.06.03 17:51:23.
