data_PCOD9496771
_publ_section_title
;
Structure prediction by ZEFSAII (Michael W. Deem and Ramdas Pophale) SiO2 
 PCOD9496771
Probable space group: C C C M
;
_chemical_formula_sum "Si O2"
_cell_formula_units_Z 116
_cell_length_a 28.756339
_cell_length_b 23.657710
_cell_length_c 7.586568
_cell_angle_alpha 90.000000
_cell_angle_beta 90.000000
_cell_angle_gamma 90.000000
_cell_volume 5161.211466
_symmetry_space_group_name_H-M "C C C M"
_symmetry_group_IT_number 66
_symmetry_cell_setting 'orthorhombic'
loop_
_space_group_symop_operation_xyz
x,y,z
-x,-y,z
x,-y,1/2-z
-x,y,1/2-z
-x,-y,-z
x,y,-z
-x,y,1/2+z
x,-y,1/2+z
1/2+x,1/2+y,z
1/2-x,1/2-y,z
1/2+x,1/2-y,1/2-z
1/2-x,1/2+y,1/2-z
1/2-x,1/2-y,-z
1/2+x,1/2+y,-z
1/2-x,1/2+y,1/2+z
1/2+x,1/2-y,1/2+z
loop_
_atom_site_type_symbol
_atom_site_label
_atom_site_fract_x
_atom_site_fract_y
_atom_site_fract_z
Si Si1 0.803708 0.249911 0.714161
Si Si2 0.759086 0.936512 0.290857
Si Si3 0.500000 0.000000 0.750000
Si Si4 0.612014 0.319196 0.794842
Si Si5 0.075062 0.586590 0.705917
Si Si6 0.947183 0.284994 0.210137
Si Si7 0.865084 0.063031 0.788075
Si Si8 0.168871 0.629274 0.705259
O O1 0.804458 0.249344 0.500000
O O2 0.750000 0.250000 0.768977
O O3 0.833688 0.197586 0.781069
O O4 0.828436 0.307481 0.780057
O O5 0.760286 0.928013 0.500000
O O6 0.811750 0.932713 0.220692
O O7 0.720582 0.894872 0.216753
O O8 0.743104 0.000000 0.250000
O O9 0.461292 0.952857 0.807938
O O10 0.584560 0.265925 0.717001
O O11 0.607093 0.382353 0.721037
O O12 0.598336 0.321277 0.000000
O O13 0.072144 0.568005 0.500000
O O14 0.061666 0.652739 0.713742
O O15 0.128329 0.588324 0.775374
O O16 0.000000 0.269551 0.250000
O O17 0.939948 0.290266 0.000000
O O18 0.882588 0.000000 0.750000
O O19 0.862890 0.067886 0.000000
O O20 0.156628 0.635180 0.500000
#
# Coordination Sequence:
#
# PCOD9496771 Si02
#       8
#    16  16   4  16  16  16  16  16
#     4  10  20  33  53  83 117 152 189 233 286 346
#     4  10  20  34  53  77 108 151 194 235 281 337
#     4  12  26  40  64  90 110 144 200 256 306 348
#     4  10  21  37  58  86 116 150 192 238 289 347
#     4  11  24  42  61  83 112 146 191 247 300 348
#     4  11  23  40  64  89 116 149 189 239 295 353
#     4   9  19  36  57  84 118 151 191 235 278 334
#     4  10  21  36  52  76 112 149 187 238 289 342
#
# _framework density 22.475342999999999
#
# number of rings (size 3 to 8) (size 9 to 14) (size 15 to 20)
#    0.000    1.793    2.069    1.862    0.966    3.586 
#    0.000    0.000    0.000    0.414    0.000    2.897 
#    0.000    0.000    0.000    0.000    0.000    0.000 
#
# Total GULP energy -323646.997721 kJ/mol
# GULP energy per Si atom -5580.120650 kJ/mol
# Density = 2.242419 g / cm^3
# Si number density = 22.475343 Si / 1000 Ang^3
#
#
#
# Elastic Constant Matrix: (Units=GPa)
#
#
# Indices 1 2 3 4 5 6 
#
# 1 63.4246 36.0990 5.0314 0.0000 0.0000 0.0000
# 2 36.0990 173.7591 3.5262 0.0000 0.0000 0.0000
# 3 5.0314 3.5262 71.6173 0.0000 0.0000 0.0000
# 4 0.0000 0.0000 0.0000 98.1216 0.0000 0.0000
# 5 0.0000 0.0000 0.0000 0.0000 13.4890 0.0000
# 6 0.0000 0.0000 0.0000 0.0000 0.0000 46.0351
#
#
#
# Elastic Compliance Matrix: (Units=1/GPa)
#
#
# Indices 1 2 3 4 5 6 
#
# 1 0.017964 -0.003710 -0.001079 0.000000 0.000000 0.000000
# 2 -0.003710 0.006527 -0.000061 0.000000 0.000000 0.000000
# 3 -0.001079 -0.000061 0.014042 0.000000 0.000000 0.000000
# 4 0.000000 0.000000 0.000000 0.010191 0.000000 0.000000
# 5 0.000000 0.000000 0.000000 0.000000 0.074135 0.000000
# 6 0.000000 0.000000 0.000000 0.000000 0.000000 0.021723
#
#
# Mechanical properties :
#
#
# Convention : Reuss Voigt Hill
#
# Bulk Modulus (GPa) = 34.68299 44.23491 39.45895
# Shear Modulus (GPa) = 30.50767 49.13876 39.82322
#
# Velocity S-wave (km/s) = 3.68827 4.68091 4.21392
# Velocity P-wave (km/s) = 5.79679 6.99562 6.42423
#
# Compressibility (1/GPa) = 0.02883258
#
# Stress axis : x y z
#
# Youngs Moduli (GPa) = 55.66664 153.20671 71.21534
#
# Poissons Ratio (x) = 0.56843 0.07687
# Poissons Ratio (y) = 0.20653 0.00432
# Poissons Ratio (z) = 0.06008 0.00930
#
# Static dielectric constant tensor:
#      x y z
#    x 1.844830 0.000000 0.000000 
#    y 0.000000 1.843890 0.000000 
#    z 0.000000 0.000000 1.893610 
# 
# From -- ./inp_files/9625.got.cif
#   From: 2010.05.17/outbox.cif.g08.bks.cpg/sg66_5_cif.got.tgz:9625.got - 2010.06.03 17:51:23.
