data_PCOD9496067
_publ_section_title
;
Structure prediction by ZEFSAII (Michael W. Deem and Ramdas Pophale) SiO2 
 PCOD9496067
Probable space group: C C C M
;
_chemical_formula_sum "Si O2"
_cell_formula_units_Z 88
_cell_length_a 10.612994
_cell_length_b 25.059180
_cell_length_c 16.117082
_cell_angle_alpha 90.000000
_cell_angle_beta 90.000000
_cell_angle_gamma 90.000000
_cell_volume 4286.385132
_symmetry_space_group_name_H-M "C C C M"
_symmetry_group_IT_number 66
_symmetry_cell_setting 'orthorhombic'
loop_
_space_group_symop_operation_xyz
x,y,z
-x,-y,z
x,-y,1/2-z
-x,y,1/2-z
-x,-y,-z
x,y,-z
-x,y,1/2+z
x,-y,1/2+z
1/2+x,1/2+y,z
1/2-x,1/2-y,z
1/2+x,1/2-y,1/2-z
1/2-x,1/2+y,1/2-z
1/2-x,1/2-y,-z
1/2+x,1/2+y,-z
1/2-x,1/2+y,1/2+z
1/2+x,1/2-y,1/2+z
loop_
_atom_site_type_symbol
_atom_site_label
_atom_site_fract_x
_atom_site_fract_y
_atom_site_fract_z
Si Si1 0.133519 0.172538 0.296587
Si Si2 0.759287 0.922706 0.595994
Si Si3 0.250000 0.250000 0.173606
Si Si4 0.013355 0.262387 0.596575
Si Si5 0.366102 0.976317 0.400594
Si Si6 0.504608 0.117715 0.652990
O O1 0.172559 0.118765 0.343483
O O2 0.237040 0.197975 0.233825
O O3 0.000000 0.165153 0.250000
O O4 0.106176 0.219814 0.362325
O O5 0.803303 0.919482 0.500000
O O6 0.613123 0.904840 0.600561
O O7 0.747231 0.984479 0.625626
O O8 0.128743 0.244464 0.116076
O O9 0.039135 0.268088 0.500000
O O10 0.011269 0.319757 0.639722
O O11 0.368049 0.980625 0.500000
O O12 0.371702 0.914006 0.378190
O O13 0.500000 0.000000 0.367326
O O14 0.500000 0.105766 0.750000
#
# Coordination Sequence:
#
# PCOD9496067 Si02
#       6
#    16  16   8  16  16  16
#     4  10  20  34  53  78 110 146 187 234 281 334
#     4  10  19  33  52  76 110 147 182 223 275 332
#     4  10  21  36  49  72 108 142 178 228 285 332
#     4  11  21  34  53  77 107 145 187 226 276 343
#     4   8  16  30  47  71 104 138 171 212 263 322
#     4  11  20  31  50  80 114 143 177 224 277 333
#
# _framework density 20.530118999999999
#
# number of rings (size 3 to 8) (size 9 to 14) (size 15 to 20)
#    0.000    2.000    0.000    7.364    0.000    3.273 
#    0.000    2.727    0.000    0.000    0.000   21.636 
#    0.000   49.455    0.000    0.000    0.000    0.000 
#
# Total GULP energy -245211.390230 kJ/mol
# GULP energy per Si atom -5572.986142 kJ/mol
# Density = 2.048339 g / cm^3
# Si number density = 20.530119 Si / 1000 Ang^3
#
#
#
# Elastic Constant Matrix: (Units=GPa)
#
#
# Indices 1 2 3 4 5 6 
#
# 1 26.7029 19.3002 6.8571 0.0000 0.0000 0.0000
# 2 19.3002 111.0852 29.2618 0.0000 0.0000 0.0000
# 3 6.8571 29.2618 77.3900 0.0000 0.0000 0.0000
# 4 0.0000 0.0000 0.0000 4.4406 0.0000 0.0000
# 5 0.0000 0.0000 0.0000 0.0000 12.6788 0.0000
# 6 0.0000 0.0000 0.0000 0.0000 0.0000 23.4502
#
#
#
# Elastic Compliance Matrix: (Units=1/GPa)
#
#
# Indices 1 2 3 4 5 6 
#
# 1 0.042910 -0.007168 -0.001092 0.000000 0.000000 0.000000
# 2 -0.007168 0.011195 -0.003598 0.000000 0.000000 0.000000
# 3 -0.001092 -0.003598 0.014379 0.000000 0.000000 0.000000
# 4 0.000000 0.000000 0.000000 0.225195 0.000000 0.000000
# 5 0.000000 0.000000 0.000000 0.000000 0.078872 0.000000
# 6 0.000000 0.000000 0.000000 0.000000 0.000000 0.042644
#
#
# Mechanical properties :
#
#
# Convention : Reuss Voigt Hill
#
# Bulk Modulus (GPa) = 22.33682 36.22404 29.28043
# Shear Modulus (GPa) = 11.01728 18.76452 14.89090
#
# Velocity S-wave (km/s) = 2.31906 3.02652 2.69610
# Velocity P-wave (km/s) = 4.25140 5.46770 4.89746
#
# Compressibility (1/GPa) = 0.04476914
#
# Stress axis : x y z
#
# Youngs Moduli (GPa) = 23.30448 89.32419 69.54726
#
# Poissons Ratio (x) = 0.64025 0.07594
# Poissons Ratio (y) = 0.16704 0.25022
# Poissons Ratio (z) = 0.02545 0.32138
#
# Static dielectric constant tensor:
#      x y z
#    x 1.756300 0.000000 0.000000 
#    y 0.000000 1.848800 0.000000 
#    z 0.000000 0.000000 1.720520 
# 
# From -- ./inp_files/26778.got.cif
#   From: 2010.05.17/outbox.cif.g08.bks.cpg/sg66_14_cif.got.tgz:26778.got - 2010.06.03 17:51:23.
