data_PCOD9496519
_publ_section_title
;
Structure prediction by ZEFSAII (Michael W. Deem and Ramdas Pophale) SiO2 
 PCOD9496519
Probable space group: C C C M
;
_chemical_formula_sum "Si O2"
_cell_formula_units_Z 68
_cell_length_a 10.976126
_cell_length_b 10.976122
_cell_length_c 31.709091
_cell_angle_alpha 90.000000
_cell_angle_beta 90.000000
_cell_angle_gamma 90.000000
_cell_volume 3820.162190
_symmetry_space_group_name_H-M "C C C M"
_symmetry_group_IT_number 66
_symmetry_cell_setting 'orthorhombic'
loop_
_space_group_symop_operation_xyz
x,y,z
-x,-y,z
x,-y,1/2-z
-x,y,1/2-z
-x,-y,-z
x,y,-z
-x,y,1/2+z
x,-y,1/2+z
1/2+x,1/2+y,z
1/2-x,1/2-y,z
1/2+x,1/2-y,1/2-z
1/2-x,1/2+y,1/2-z
1/2-x,1/2-y,-z
1/2+x,1/2+y,-z
1/2-x,1/2+y,1/2+z
1/2+x,1/2-y,1/2+z
loop_
_atom_site_type_symbol
_atom_site_label
_atom_site_fract_x
_atom_site_fract_y
_atom_site_fract_z
Si Si1 0.401681 0.901681 0.831559
Si Si2 0.301416 0.502525 0.110433
Si Si3 0.002525 0.801416 0.110433
Si Si4 0.645387 0.854613 0.047755
Si Si5 0.000000 0.500000 0.250000
O O1 0.444090 0.773317 0.850180
O O2 0.500000 0.000000 0.848379
O O3 0.273317 0.944090 0.850180
O O4 0.418173 0.918173 0.781401
O O5 0.384558 0.384558 0.121456
O O6 0.393973 0.606027 0.095013
O O7 0.206438 0.462331 0.074608
O O8 0.962331 0.706438 0.074608
O O9 0.750000 0.750000 0.045557
O O10 0.612488 0.887512 0.000000
#
# Coordination Sequence:
#
# PCOD9496519 Si02
#       5
#    16  16  16  16   4
#     4  10  19  37  60  77 103 140 175 214 272 320
#     4  10  20  35  56  80 108 143 181 221 267 321
#     4  10  20  35  56  80 108 143 181 221 267 321
#     4   9  17  31  52  78 110 146 184 227 268 309
#     4   8  20  36  60  84 102 140 172 216 276 316
#
# _framework density 17.800291000000001
#
# number of rings (size 3 to 8) (size 9 to 14) (size 15 to 20)
#    0.706    1.647    2.353    0.706    0.000    0.941 
#    0.000   11.765    0.000    5.647    0.000    0.000 
#    0.000    0.000    0.000    0.000    0.000    0.000 
#
# Total GULP energy -189278.727893 kJ/mol
# GULP energy per Si atom -5567.021409 kJ/mol
# Density = 1.775978 g / cm^3
# Si number density = 17.800291 Si / 1000 Ang^3
#
#
#
# Elastic Constant Matrix: (Units=GPa)
#
#
# Indices 1 2 3 4 5 6 
#
# 1 87.4418 41.5680 53.9742 0.0000 0.0000 0.0000
# 2 41.5680 87.4415 53.9742 0.0000 0.0000 0.0000
# 3 53.9742 53.9742 147.9461 0.0000 0.0000 0.0000
# 4 0.0000 0.0000 0.0000 8.7727 0.0000 0.0000
# 5 0.0000 0.0000 0.0000 0.0000 8.7728 0.0000
# 6 0.0000 0.0000 0.0000 0.0000 0.0000 29.1903
#
#
#
# Elastic Compliance Matrix: (Units=1/GPa)
#
#
# Indices 1 2 3 4 5 6 
#
# 1 0.016478 -0.005321 -0.004070 0.000000 0.000000 0.000000
# 2 -0.005321 0.016478 -0.004070 0.000000 0.000000 0.000000
# 3 -0.004070 -0.004070 0.009729 0.000000 0.000000 0.000000
# 4 0.000000 0.000000 0.000000 0.113990 0.000000 0.000000
# 5 0.000000 0.000000 0.000000 0.000000 0.113989 0.000000
# 6 0.000000 0.000000 0.000000 0.000000 0.000000 0.034258
#
#
# Mechanical properties :
#
#
# Convention : Reuss Voigt Hill
#
# Bulk Modulus (GPa) = 63.44366 69.09581 66.26973
# Shear Modulus (GPa) = 14.83241 20.90136 17.86689
#
# Velocity S-wave (km/s) = 2.88977 3.43040 3.17162
# Velocity P-wave (km/s) = 6.84497 7.38862 7.12199
#
# Compressibility (1/GPa) = 0.01576202
#
# Stress axis : x y z
#
# Youngs Moduli (GPa) = 60.68655 60.68628 102.78333
#
# Poissons Ratio (x) = 0.32290 0.41837
# Poissons Ratio (y) = 0.32290 0.41837
# Poissons Ratio (z) = 0.24702 0.24702
#
# Static dielectric constant tensor:
#      x y z
#    x 1.628730 0.000000 0.000000 
#    y 0.000000 1.628730 0.000000 
#    z 0.000000 0.000000 1.585670 
# 
# From -- ./inp_files/63394.got.cif
#   From: 2010.05.17/outbox.cif.g08.bks.cpg/sg66_32_cif.got.tgz:63394.got - 2010.06.03 17:51:23.
