data_PCOD9496964
_publ_section_title
;
Structure prediction by ZEFSAII (Michael W. Deem and Ramdas Pophale) SiO2 
 PCOD9496964
Probable space group: C C C M
;
_chemical_formula_sum "Si O2"
_cell_formula_units_Z 76
_cell_length_a 21.154420
_cell_length_b 9.241749
_cell_length_c 14.306164
_cell_angle_alpha 90.000000
_cell_angle_beta 90.000000
_cell_angle_gamma 90.000000
_cell_volume 2796.909996
_symmetry_space_group_name_H-M "C C C M"
_symmetry_group_IT_number 66
_symmetry_cell_setting 'orthorhombic'
loop_
_space_group_symop_operation_xyz
x,y,z
-x,-y,z
x,-y,1/2-z
-x,y,1/2-z
-x,-y,-z
x,y,-z
-x,y,1/2+z
x,-y,1/2+z
1/2+x,1/2+y,z
1/2-x,1/2-y,z
1/2+x,1/2-y,1/2-z
1/2-x,1/2+y,1/2-z
1/2-x,1/2-y,-z
1/2+x,1/2+y,-z
1/2-x,1/2+y,1/2+z
1/2+x,1/2-y,1/2+z
loop_
_atom_site_type_symbol
_atom_site_label
_atom_site_fract_x
_atom_site_fract_y
_atom_site_fract_z
Si Si1 0.636362 0.753220 0.851523
Si Si2 0.583302 0.457779 0.892744
Si Si3 0.250000 0.750000 0.500000
Si Si4 0.498658 0.193629 0.859669
Si Si5 0.677852 0.800368 0.353142
Si Si6 0.101753 0.444000 0.500000
O O1 0.608129 0.592212 0.833029
O O2 0.694567 0.739366 0.919449
O O3 0.573200 0.824725 0.895933
O O4 0.656011 0.820773 0.753330
O O5 0.522508 0.360116 0.867468
O O6 0.638308 0.336498 0.891628
O O7 0.576937 0.508676 0.000000
O O8 0.500000 0.158466 0.750000
O O9 0.549090 0.107282 0.919484
O O10 0.750000 0.750000 0.356410
O O11 0.658983 0.934363 0.418394
#
# Coordination Sequence:
#
# PCOD9496964 Si02
#       6
#    16  16   4  16  16   8
#     4  12  23  38  54  80 121 157 192 227 290 354
#     4  11  22  36  55  82 110 155 191 234 283 344
#     4  12  26  38  52  76 118 170 182 236 282 350
#     4  11  20  35  55  83 114 150 189 230 283 343
#     4  11  21  37  55  76 111 156 194 237 284 340
#     4  10  20  35  52  76 102 148 188 233 276 322
#
# _framework density 27.172843
#
# number of rings (size 3 to 8) (size 9 to 14) (size 15 to 20)
#    0.000    0.842   10.526    2.211    0.000    1.684 
#    0.000    0.000    0.000    0.000    0.000    0.000 
#    0.000   30.316   11.368    0.000    0.000    0.000 
#
# Total GULP energy -211685.222664 kJ/mol
# GULP energy per Si atom -5570.663754 kJ/mol
# Density = 2.711100 g / cm^3
# Si number density = 27.172843 Si / 1000 Ang^3
#
#
#
# Elastic Constant Matrix: (Units=GPa)
#
#
# Indices 1 2 3 4 5 6 
#
# 1 270.7934 9.3938 42.6361 0.0000 0.0000 0.0000
# 2 9.3938 124.3255 -17.5329 0.0000 0.0000 0.0000
# 3 42.6361 -17.5329 230.0972 0.0000 0.0000 0.0000
# 4 0.0000 0.0000 0.0000 103.1496 0.0000 0.0000
# 5 0.0000 0.0000 0.0000 0.0000 47.7983 0.0000
# 6 0.0000 0.0000 0.0000 0.0000 0.0000 18.0407
#
#
#
# Elastic Compliance Matrix: (Units=1/GPa)
#
#
# Indices 1 2 3 4 5 6 
#
# 1 0.003823 -0.000393 -0.000738 0.000000 0.000000 0.000000
# 2 -0.000393 0.008171 0.000695 0.000000 0.000000 0.000000
# 3 -0.000738 0.000695 0.004536 0.000000 0.000000 0.000000
# 4 0.000000 0.000000 0.000000 0.009695 0.000000 0.000000
# 5 0.000000 0.000000 0.000000 0.000000 0.020921 0.000000
# 6 0.000000 0.000000 0.000000 0.000000 0.000000 0.055430
#
#
# Mechanical properties :
#
#
# Convention : Reuss Voigt Hill
#
# Bulk Modulus (GPa) = 63.86477 77.13445 70.49961
# Shear Modulus (GPa) = 46.01220 73.17900 59.59560
#
# Velocity S-wave (km/s) = 4.11946 5.19513 4.68825
# Velocity P-wave (km/s) = 6.79564 8.02708 7.43690
#
# Compressibility (1/GPa) = 0.01565809
#
# Stress axis : x y z
#
# Youngs Moduli (GPa) = 261.59355 122.38151 220.46924
#
# Poissons Ratio (x) = 0.04809 0.16277
# Poissons Ratio (y) = 0.10279 -0.15332
# Poissons Ratio (z) = 0.19313 -0.08511
#
# Static dielectric constant tensor:
#      x y z
#    x 2.102390 0.000000 0.000000 
#    y 0.000000 2.410770 0.000000 
#    z 0.000000 0.000000 2.054430 
# 
# From -- ./inp_files/31014.got.cif
#   From: 2010.05.17/outbox.cif.g08.bks.cpg/sg66_16_cif.got.tgz:31014.got - 2010.06.03 17:51:23.
