data_PCOD9496311
_publ_section_title
;
Structure prediction by ZEFSAII (Michael W. Deem and Ramdas Pophale) SiO2 
 PCOD9496311
Probable space group: C C C M
;
_chemical_formula_sum "Si O2"
_cell_formula_units_Z 72
_cell_length_a 8.655707
_cell_length_b 12.887525
_cell_length_c 30.956695
_cell_angle_alpha 90.000000
_cell_angle_beta 90.000000
_cell_angle_gamma 90.000000
_cell_volume 3453.239151
_symmetry_space_group_name_H-M "C C C M"
_symmetry_group_IT_number 66
_symmetry_cell_setting 'orthorhombic'
loop_
_space_group_symop_operation_xyz
x,y,z
-x,-y,z
x,-y,1/2-z
-x,y,1/2-z
-x,-y,-z
x,y,-z
-x,y,1/2+z
x,-y,1/2+z
1/2+x,1/2+y,z
1/2-x,1/2-y,z
1/2+x,1/2-y,1/2-z
1/2-x,1/2+y,1/2-z
1/2-x,1/2-y,-z
1/2+x,1/2+y,-z
1/2-x,1/2+y,1/2+z
1/2+x,1/2-y,1/2+z
loop_
_atom_site_type_symbol
_atom_site_label
_atom_site_fract_x
_atom_site_fract_y
_atom_site_fract_z
Si Si1 0.908894 0.318252 0.290316
Si Si2 0.573753 0.337605 0.847237
Si Si3 0.250000 0.750000 0.923851
Si Si4 0.818829 0.477786 0.046260
Si Si5 0.257419 0.537629 0.357151
O O1 0.750000 0.250000 0.281637
O O2 0.863480 0.400124 0.327845
O O3 0.000000 0.366663 0.250000
O O4 0.036715 0.238978 0.308809
O O5 0.610568 0.275967 0.890993
O O6 0.710341 0.420701 0.840700
O O7 0.416941 0.401004 0.852711
O O8 0.214643 0.645139 0.949357
O O9 0.769886 0.528591 0.091565
O O10 0.000000 0.500000 0.044359
O O11 0.750336 0.514185 0.000000
#
# Coordination Sequence:
#
# PCOD9496311 Si02
#       5
#    16  16   8  16  16
#     4  10  21  38  64  87 120 158 202 252 308 369
#     4   9  19  36  62  82 118 162 188 250 307 354
#     4  10  19  34  60  82 118 158 196 238 307 356
#     4  10  20  35  57  86 118 153 199 250 296 357
#     4   9  19  39  60  86 117 160 200 241 309 363
#
# _framework density 20.849990999999999
#
# number of rings (size 3 to 8) (size 9 to 14) (size 15 to 20)
#    0.000    2.444    0.000    1.667    1.556    0.000 
#    0.000   18.889   19.556    8.667    0.000    0.000 
#    0.000    0.000    0.000    0.000    0.000    0.000 
#
# Total GULP energy -200699.948758 kJ/mol
# GULP energy per Si atom -5574.998577 kJ/mol
# Density = 2.080254 g / cm^3
# Si number density = 20.849991 Si / 1000 Ang^3
#
#
#
# Elastic Constant Matrix: (Units=GPa)
#
#
# Indices 1 2 3 4 5 6 
#
# 1 40.4053 25.9978 35.0111 0.0000 0.0000 0.0000
# 2 25.9978 63.0265 61.5271 0.0000 0.0000 0.0000
# 3 35.0111 61.5271 134.1427 0.0000 0.0000 0.0000
# 4 0.0000 0.0000 0.0000 70.3584 0.0000 0.0000
# 5 0.0000 0.0000 0.0000 0.0000 27.8195 0.0000
# 6 0.0000 0.0000 0.0000 0.0000 0.0000 17.9155
#
#
#
# Elastic Compliance Matrix: (Units=1/GPa)
#
#
# Indices 1 2 3 4 5 6 
#
# 1 0.035175 -0.010045 -0.004573 0.000000 0.000000 0.000000
# 2 -0.010045 0.031599 -0.011872 0.000000 0.000000 0.000000
# 3 -0.004573 -0.011872 0.014094 0.000000 0.000000 0.000000
# 4 0.000000 0.000000 0.000000 0.014213 0.000000 0.000000
# 5 0.000000 0.000000 0.000000 0.000000 0.035946 0.000000
# 6 0.000000 0.000000 0.000000 0.000000 0.000000 0.055818
#
#
# Mechanical properties :
#
#
# Convention : Reuss Voigt Hill
#
# Bulk Modulus (GPa) = 35.85794 53.62738 44.74266
# Shear Modulus (GPa) = 20.07058 30.88791 25.47924
#
# Velocity S-wave (km/s) = 3.10597 3.85312 3.49954
# Velocity P-wave (km/s) = 5.48618 6.75069 6.15101
#
# Compressibility (1/GPa) = 0.02788783
#
# Stress axis : x y z
#
# Youngs Moduli (GPa) = 28.42913 31.64639 70.95373
#
# Poissons Ratio (x) = 0.31788 0.32450
# Poissons Ratio (y) = 0.28556 0.84236
# Poissons Ratio (z) = 0.13002 0.37570
#
# Static dielectric constant tensor:
#      x y z
#    x 1.754370 0.000000 0.000000 
#    y 0.000000 1.785010 0.000000 
#    z 0.000000 0.000000 1.821180 
# 
# From -- ./inp_files/62188.got.cif
#   From: 2010.05.17/outbox.cif.g08.bks.cpg/sg66_32_cif.got.tgz:62188.got - 2010.06.03 17:51:23.
