data_PCOD9496617
_publ_section_title
;
Structure prediction by ZEFSAII (Michael W. Deem and Ramdas Pophale) SiO2 
 PCOD9496617
Probable space group: C C C M
;
_chemical_formula_sum "Si O2"
_cell_formula_units_Z 104
_cell_length_a 24.027181
_cell_length_b 8.895108
_cell_length_c 26.622301
_cell_angle_alpha 90.000000
_cell_angle_beta 90.000000
_cell_angle_gamma 90.000000
_cell_volume 5689.834507
_symmetry_space_group_name_H-M "C C C M"
_symmetry_group_IT_number 66
_symmetry_cell_setting 'orthorhombic'
loop_
_space_group_symop_operation_xyz
x,y,z
-x,-y,z
x,-y,1/2-z
-x,y,1/2-z
-x,-y,-z
x,y,-z
-x,y,1/2+z
x,-y,1/2+z
1/2+x,1/2+y,z
1/2-x,1/2-y,z
1/2+x,1/2-y,1/2-z
1/2-x,1/2+y,1/2-z
1/2-x,1/2-y,-z
1/2+x,1/2+y,-z
1/2-x,1/2+y,1/2+z
1/2+x,1/2-y,1/2+z
loop_
_atom_site_type_symbol
_atom_site_label
_atom_site_fract_x
_atom_site_fract_y
_atom_site_fract_z
Si Si1 0.500000 0.500000 0.921549
Si Si2 0.635258 0.051204 0.887580
Si Si3 0.896942 0.825692 0.252880
Si Si4 0.440027 0.312242 0.360169
Si Si5 0.295763 0.878469 0.792735
Si Si6 0.504415 0.762223 0.000000
Si Si7 0.100017 0.489080 0.500000
Si Si8 0.539681 0.867585 0.169894
O O1 0.552754 0.470719 0.886382
O O2 0.505223 0.645901 0.954716
O O3 0.611120 0.220086 0.881993
O O4 0.685841 0.049152 0.846703
O O5 0.635447 0.016864 0.947605
O O6 0.587997 0.946781 0.862193
O O7 0.936391 0.830177 0.301046
O O8 0.848433 0.709469 0.268397
O O9 0.930818 0.748513 0.207697
O O10 0.877187 0.000000 0.250000
O O11 0.496086 0.215723 0.365853
O O12 0.250000 0.750000 0.801133
O O13 0.278848 0.000000 0.750000
O O14 0.446439 0.855016 0.000000
O O15 0.558399 0.867990 0.000000
O O16 0.500000 0.000000 0.193121
#
# Coordination Sequence:
#
# PCOD9496617 Si02
#       8
#     8  16  16  16  16   8   8  16
#     4  11  18  34  43  80 116 166 203 241 284 322
#     4  10  21  36  58  86 116 158 199 246 291 353
#     4  11  22  35  53  86 120 154 200 247 302 364
#     4  10  20  28  50  78 123 162 199 233 281 352
#     4  11  23  43  66  88 113 147 196 254 317 378
#     4  10  22  30  56  74 117 167 212 246 281 331
#     4  11  20  38  53  86 114 160 213 246 283 359
#     4  10  20  34  54  84 124 173 200 235 289 357
#
# _framework density 18.278212
#
# number of rings (size 3 to 8) (size 9 to 14) (size 15 to 20)
#    0.000    1.538    3.077    2.769    4.308    3.692 
#    0.000    0.385    0.000    0.000    0.000    0.538 
#    0.000    0.000    0.000    0.000    0.000    0.000 
#
# Total GULP energy -289484.438354 kJ/mol
# GULP energy per Si atom -5567.008430 kJ/mol
# Density = 1.823661 g / cm^3
# Si number density = 18.278212 Si / 1000 Ang^3
#
#
#
# Elastic Constant Matrix: (Units=GPa)
#
#
# Indices 1 2 3 4 5 6 
#
# 1 44.7289 2.9608 26.3175 0.0000 0.0000 0.0000
# 2 2.9608 73.0778 39.4127 0.0000 0.0000 0.0000
# 3 26.3175 39.4127 144.0959 0.0000 0.0000 0.0000
# 4 0.0000 0.0000 0.0000 62.5047 0.0000 0.0000
# 5 0.0000 0.0000 0.0000 0.0000 13.5400 0.0000
# 6 0.0000 0.0000 0.0000 0.0000 0.0000 31.7187
#
#
#
# Elastic Compliance Matrix: (Units=1/GPa)
#
#
# Indices 1 2 3 4 5 6 
#
# 1 0.025231 0.001716 -0.005078 0.000000 0.000000 0.000000
# 2 0.001716 0.016169 -0.004736 0.000000 0.000000 0.000000
# 3 -0.005078 -0.004736 0.009163 0.000000 0.000000 0.000000
# 4 0.000000 0.000000 0.000000 0.015999 0.000000 0.000000
# 5 0.000000 0.000000 0.000000 0.000000 0.073855 0.000000
# 6 0.000000 0.000000 0.000000 0.000000 0.000000 0.031527
#
#
# Mechanical properties :
#
#
# Convention : Reuss Voigt Hill
#
# Bulk Modulus (GPa) = 29.09714 44.36496 36.73105
# Shear Modulus (GPa) = 25.05094 34.43345 29.74220
#
# Velocity S-wave (km/s) = 3.70609 4.34505 4.03823
# Velocity P-wave (km/s) = 5.85381 7.03543 6.47164
#
# Compressibility (1/GPa) = 0.03436763
#
# Stress axis : x y z
#
# Youngs Moduli (GPa) = 39.63404 61.84792 109.14037
#
# Poissons Ratio (x) = -0.10614 0.55416
# Poissons Ratio (y) = -0.06802 0.51687
# Poissons Ratio (z) = 0.20124 0.29290
#
# Static dielectric constant tensor:
#      x y z
#    x 1.628360 0.000000 0.000000 
#    y 0.000000 1.758520 0.000000 
#    z 0.000000 0.000000 1.710270 
# 
# From -- ./inp_files/62719.got.cif
#   From: 2010.05.17/outbox.cif.g08.bks.cpg/sg66_32_cif.got.tgz:62719.got - 2010.06.03 17:51:23.
