data_PCOD9496602
_publ_section_title
;
Structure prediction by ZEFSAII (Michael W. Deem and Ramdas Pophale) SiO2 
 PCOD9496602
Probable space group: C C C M
;
_chemical_formula_sum "Si O2"
_cell_formula_units_Z 52
_cell_length_a 21.625715
_cell_length_b 5.005386
_cell_length_c 19.085448
_cell_angle_alpha 90.000000
_cell_angle_beta 90.000000
_cell_angle_gamma 90.000000
_cell_volume 2065.905294
_symmetry_space_group_name_H-M "C C C M"
_symmetry_group_IT_number 66
_symmetry_cell_setting 'orthorhombic'
loop_
_space_group_symop_operation_xyz
x,y,z
-x,-y,z
x,-y,1/2-z
-x,y,1/2-z
-x,-y,-z
x,y,-z
-x,y,1/2+z
x,-y,1/2+z
1/2+x,1/2+y,z
1/2-x,1/2-y,z
1/2+x,1/2-y,1/2-z
1/2-x,1/2+y,1/2-z
1/2-x,1/2-y,-z
1/2+x,1/2+y,-z
1/2-x,1/2+y,1/2+z
1/2+x,1/2-y,1/2+z
loop_
_atom_site_type_symbol
_atom_site_label
_atom_site_fract_x
_atom_site_fract_y
_atom_site_fract_z
Si Si1 0.000000 0.000000 0.250000
Si Si2 0.073050 0.946904 0.500000
Si Si3 0.184790 0.386631 0.657840
Si Si4 0.106623 0.149179 0.845243
Si Si5 0.683288 0.117842 0.000000
O O1 0.955124 0.833136 0.200113
O O2 0.087226 0.802204 0.573676
O O3 0.122294 0.193591 0.500000
O O4 0.000000 0.000000 0.500000
O O5 0.250000 0.250000 0.676675
O O6 0.157332 0.656520 0.690008
O O7 0.188740 0.501994 0.577513
O O8 0.134682 0.149173 0.657583
O O9 0.750000 0.250000 0.000000
#
# Coordination Sequence:
#
# PCOD9496602 Si02
#       5
#     4   8  16  16   8
#     4  12  28  48  64  98 140 188 232 284 352 416
#     4  10  19  40  63 102 136 183 229 284 339 421
#     4  10  21  41  68 100 132 175 225 283 343 413
#     4  11  24  42  68  98 138 179 226 283 347 412
#     4   8  17  34  62  99 138 171 215 273 344 405
#
# _framework density 25.170563999999999
#
# number of rings (size 3 to 8) (size 9 to 14) (size 15 to 20)
#    0.000    1.846    1.538    1.846    0.000    3.692 
#    0.000   15.385    0.000    0.000    0.000    0.000 
#    0.000    0.000    0.000    1.385    0.000    0.000 
#
# Total GULP energy -144986.191135 kJ/mol
# GULP energy per Si atom -5576.391967 kJ/mol
# Density = 2.511327 g / cm^3
# Si number density = 25.170564 Si / 1000 Ang^3
#
#
#
# Elastic Constant Matrix: (Units=GPa)
#
#
# Indices 1 2 3 4 5 6 
#
# 1 193.9149 33.3236 18.8513 0.0000 0.0000 0.0000
# 2 33.3236 67.0766 16.7456 0.0000 0.0000 0.0000
# 3 18.8513 16.7456 127.4504 0.0000 0.0000 0.0000
# 4 0.0000 0.0000 0.0000 4.5167 0.0000 0.0000
# 5 0.0000 0.0000 0.0000 0.0000 -181.0405 0.0000
# 6 0.0000 0.0000 0.0000 0.0000 0.0000 12.4168
#
#
#
# Elastic Compliance Matrix: (Units=1/GPa)
#
#
# Indices 1 2 3 4 5 6 
#
# 1 0.005667 -0.002694 -0.000484 0.000000 0.000000 0.000000
# 2 -0.002694 0.016695 -0.001795 0.000000 0.000000 0.000000
# 3 -0.000484 -0.001795 0.008154 0.000000 0.000000 0.000000
# 4 0.000000 0.000000 0.000000 0.221400 0.000000 0.000000
# 5 0.000000 0.000000 0.000000 0.000000 -0.005524 0.000000
# 6 0.000000 0.000000 0.000000 0.000000 0.000000 0.080536
#
#
# Mechanical properties :
#
#
# Convention : Reuss Voigt Hill
#
# Bulk Modulus (GPa) = 48.61836 58.47590 53.54713
# Shear Modulus (GPa) = 14.54622 -11.51997 1.51313
#
# Velocity S-wave (km/s) = 2.40658 -2.14166 0.77618
# Velocity P-wave (km/s) = 5.20381 4.14327 4.70353
#
# Compressibility (1/GPa) = 0.02056836
#
# Stress axis : x y z
#
# Youngs Moduli (GPa) = 176.45990 59.89788 122.64446
#
# Poissons Ratio (x) = 0.16139 0.05938
# Poissons Ratio (y) = 0.47547 0.22015
# Poissons Ratio (z) = 0.08544 0.10752
#
# Static dielectric constant tensor:
#      x y z
#    x 1.895060 0.000000 0.000000 
#    y 0.000000 2.011210 0.000000 
#    z 0.000000 0.000000 1.903010 
# 
# From -- ./inp_files/45381.got.cif
#   From: 2010.05.17/outbox.cif.g08.bks.cpg/sg66_23_cif.got.tgz:45381.got - 2010.06.03 17:51:23.
