data_PCOD9496937
_publ_section_title
;
Structure prediction by ZEFSAII (Michael W. Deem and Ramdas Pophale) SiO2 
 PCOD9496937
Probable space group: C C C M
;
_chemical_formula_sum "Si O2"
_cell_formula_units_Z 120
_cell_length_a 14.184956
_cell_length_b 25.813693
_cell_length_c 15.123767
_cell_angle_alpha 90.000000
_cell_angle_beta 90.000000
_cell_angle_gamma 90.000000
_cell_volume 5537.810771
_symmetry_space_group_name_H-M "C C C M"
_symmetry_group_IT_number 66
_symmetry_cell_setting 'orthorhombic'
loop_
_space_group_symop_operation_xyz
x,y,z
-x,-y,z
x,-y,1/2-z
-x,y,1/2-z
-x,-y,-z
x,y,-z
-x,y,1/2+z
x,-y,1/2+z
1/2+x,1/2+y,z
1/2-x,1/2-y,z
1/2+x,1/2-y,1/2-z
1/2-x,1/2+y,1/2-z
1/2-x,1/2-y,-z
1/2+x,1/2+y,-z
1/2-x,1/2+y,1/2+z
1/2+x,1/2-y,1/2+z
loop_
_atom_site_type_symbol
_atom_site_label
_atom_site_fract_x
_atom_site_fract_y
_atom_site_fract_z
Si Si1 0.400755 0.271811 0.699023
Si Si2 0.278461 0.932613 0.896691
Si Si3 0.750000 0.750000 0.842415
Si Si4 0.715377 0.955056 0.893150
Si Si5 0.408218 0.164300 0.357235
Si Si6 0.877499 0.345222 0.646437
Si Si7 0.931730 0.046372 0.392392
Si Si8 0.589851 0.380262 0.893149
O O1 0.500000 0.263094 0.750000
O O2 0.325065 0.276145 0.777002
O O3 0.380179 0.224250 0.631957
O O4 0.399902 0.323841 0.644630
O O5 0.345517 0.882886 0.891178
O O6 0.176192 0.916198 0.860043
O O7 0.319008 0.987563 0.862868
O O8 0.260933 0.942728 0.000000
O O9 0.808840 0.701953 0.885920
O O10 0.664503 0.902549 0.864244
O O11 0.824448 0.954248 0.863433
O O12 0.710597 0.952502 0.000000
O O13 0.515804 0.158114 0.389324
O O14 0.393941 0.161317 0.251158
O O15 0.928265 0.043242 0.500000
O O16 0.988408 0.097480 0.367071
O O17 0.000000 0.000000 0.363216
O O18 0.593844 0.379937 0.000000
#
# Coordination Sequence:
#
# PCOD9496937 Si02
#       8
#    16  16   8  16  16  16  16  16
#     4  11  21  38  61  84 113 150 193 235 286 344
#     4  10  21  38  60  85 116 149 191 241 293 341
#     4  10  20  40  60  82 110 158 194 234 288 346
#     4  10  21  36  57  87 117 154 193 235 289 339
#     4  10  21  41  58  82 110 153 194 233 293 340
#     4  10  21  38  62  81 114 151 195 235 282 349
#     4   9  16  32  56  80 116 155 184 221 282 349
#     4  10  20  34  58  90 116 149 191 236 287 345
#
# _framework density 21.669212000000002
#
# number of rings (size 3 to 8) (size 9 to 14) (size 15 to 20)
#    0.000    2.000    4.000    1.600    1.867    2.133 
#    0.000    4.667    0.000    0.400    0.000    0.000 
#    0.000    0.000    0.000    0.000    0.000    0.000 
#
# Total GULP energy -334624.685808 kJ/mol
# GULP energy per Si atom -5577.078097 kJ/mol
# Density = 2.161989 g / cm^3
# Si number density = 21.669212 Si / 1000 Ang^3
#
#
#
# Elastic Constant Matrix: (Units=GPa)
#
#
# Indices 1 2 3 4 5 6 
#
# 1 79.6451 26.6135 1.9707 0.0000 0.0000 0.0000
# 2 26.6135 169.4326 15.7277 0.0000 0.0000 0.0000
# 3 1.9707 15.7277 27.2509 0.0000 0.0000 0.0000
# 4 0.0000 0.0000 0.0000 19.6210 0.0000 0.0000
# 5 0.0000 0.0000 0.0000 0.0000 17.4678 0.0000
# 6 0.0000 0.0000 0.0000 0.0000 0.0000 39.3756
#
#
#
# Elastic Compliance Matrix: (Units=1/GPa)
#
#
# Indices 1 2 3 4 5 6 
#
# 1 0.013253 -0.002106 0.000257 0.000000 0.000000 0.000000
# 2 -0.002106 0.006571 -0.003640 0.000000 0.000000 0.000000
# 3 0.000257 -0.003640 0.038778 0.000000 0.000000 0.000000
# 4 0.000000 0.000000 0.000000 0.050966 0.000000 0.000000
# 5 0.000000 0.000000 0.000000 0.000000 0.057248 0.000000
# 6 0.000000 0.000000 0.000000 0.000000 0.000000 0.025396
#
#
# Mechanical properties :
#
#
# Convention : Reuss Voigt Hill
#
# Bulk Modulus (GPa) = 20.99763 40.55028 30.77395
# Shear Modulus (GPa) = 22.82433 30.76065 26.79249
#
# Velocity S-wave (km/s) = 3.24899 3.77179 3.52011
# Velocity P-wave (km/s) = 4.87706 6.14186 5.54563
#
# Compressibility (1/GPa) = 0.04762443
#
# Stress axis : x y z
#
# Youngs Moduli (GPa) = 75.45518 152.19179 25.78762
#
# Poissons Ratio (x) = 0.32044 -0.00662
# Poissons Ratio (y) = 0.15887 0.09387
# Poissons Ratio (z) = -0.01937 0.55397
#
# Static dielectric constant tensor:
#      x y z
#    x 1.855570 0.000000 0.000000 
#    y 0.000000 1.849830 0.000000 
#    z 0.000000 0.000000 1.811120 
# 
# From -- ./inp_files/50246.got.cif
#   From: 2010.05.17/outbox.cif.g08.bks.cpg/sg66_26_cif.got.tgz:50246.got - 2010.06.03 17:51:23.
