data_PCOD9496079
_publ_section_title
;
Structure prediction by ZEFSAII (Michael W. Deem and Ramdas Pophale) SiO2 
 PCOD9496079
Probable space group: C C C M
;
_chemical_formula_sum "Si O2"
_cell_formula_units_Z 80
_cell_length_a 27.559577
_cell_length_b 19.114557
_cell_length_c 8.580683
_cell_angle_alpha 90.000000
_cell_angle_beta 90.000000
_cell_angle_gamma 90.000000
_cell_volume 4520.210322
_symmetry_space_group_name_H-M "C C C M"
_symmetry_group_IT_number 66
_symmetry_cell_setting 'orthorhombic'
loop_
_space_group_symop_operation_xyz
x,y,z
-x,-y,z
x,-y,1/2-z
-x,y,1/2-z
-x,-y,-z
x,y,-z
-x,y,1/2+z
x,-y,1/2+z
1/2+x,1/2+y,z
1/2-x,1/2-y,z
1/2+x,1/2-y,1/2-z
1/2-x,1/2+y,1/2-z
1/2-x,1/2-y,-z
1/2+x,1/2+y,-z
1/2-x,1/2+y,1/2+z
1/2+x,1/2-y,1/2+z
loop_
_atom_site_type_symbol
_atom_site_label
_atom_site_fract_x
_atom_site_fract_y
_atom_site_fract_z
Si Si1 0.052429 0.355318 0.685955
Si Si2 0.799962 0.716699 0.189167
Si Si3 0.149801 0.576009 0.687283
Si Si4 0.098061 0.784446 0.687300
Si Si5 0.054810 0.074126 0.686093
O O1 0.052549 0.357760 0.500000
O O2 0.096593 0.401779 0.751552
O O3 0.063947 0.276351 0.743337
O O4 0.000000 0.377056 0.750000
O O5 0.750000 0.750000 0.247859
O O6 0.813285 0.637661 0.238239
O O7 0.846957 0.762981 0.229176
O O8 0.797346 0.715332 0.000000
O O9 0.162966 0.500000 0.750000
O O10 0.148277 0.575407 0.500000
O O11 0.093339 0.783392 0.500000
O O12 0.084227 0.859608 0.752723
O O13 0.053649 0.072749 0.500000
O O14 0.000000 0.081295 0.750000
O O15 0.073830 0.000000 0.750000
#
# Coordination Sequence:
#
# PCOD9496079 Si02
#       5
#    16  16  16  16  16
#     4  11  21  34  52  76 106 139 177 214 253 302
#     4   8  16  33  57  80 102 133 172 213 258 308
#     4  10  20  35  55  79 107 138 173 212 259 309
#     4  10  19  33  53  77 105 136 173 215 260 309
#     4  11  21  34  51  73 103 138 176 215 261 311
#
# _framework density 17.698291000000001
#
# number of rings (size 3 to 8) (size 9 to 14) (size 15 to 20)
#    0.000    2.000    0.000    7.200    0.000    0.400 
#    0.000    3.000    0.000   24.000    0.000    0.000 
#    0.000    0.000    0.000    0.000    0.000    0.000 
#
# Total GULP energy -223325.862410 kJ/mol
# GULP energy per Si atom -5583.146560 kJ/mol
# Density = 1.765801 g / cm^3
# Si number density = 17.698291 Si / 1000 Ang^3
#
#
#
# Elastic Constant Matrix: (Units=GPa)
#
#
# Indices 1 2 3 4 5 6 
#
# 1 102.9690 62.4016 29.1508 0.0000 0.0000 0.0000
# 2 62.4016 158.3930 41.6389 0.0000 0.0000 0.0000
# 3 29.1508 41.6389 107.8836 0.0000 0.0000 0.0000
# 4 0.0000 0.0000 0.0000 32.0942 0.0000 0.0000
# 5 0.0000 0.0000 0.0000 0.0000 10.8502 0.0000
# 6 0.0000 0.0000 0.0000 0.0000 0.0000 3.9781
#
#
#
# Elastic Compliance Matrix: (Units=1/GPa)
#
#
# Indices 1 2 3 4 5 6 
#
# 1 0.013036 -0.004685 -0.001714 0.000000 0.000000 0.000000
# 2 -0.004685 0.008710 -0.002096 0.000000 0.000000 0.000000
# 3 -0.001714 -0.002096 0.010541 0.000000 0.000000 0.000000
# 4 0.000000 0.000000 0.000000 0.031158 0.000000 0.000000
# 5 0.000000 0.000000 0.000000 0.000000 0.092164 0.000000
# 6 0.000000 0.000000 0.000000 0.000000 0.000000 0.251376
#
#
# Mechanical properties :
#
#
# Convention : Reuss Voigt Hill
#
# Bulk Modulus (GPa) = 65.37069 70.62538 67.99803
# Shear Modulus (GPa) = 11.65296 25.12147 18.38722
#
# Velocity S-wave (km/s) = 2.56876 3.77162 3.22673
# Velocity P-wave (km/s) = 6.76863 7.67845 7.23785
#
# Compressibility (1/GPa) = 0.01529738
#
# Stress axis : x y z
#
# Youngs Moduli (GPa) = 76.70882 114.80790 94.86471
#
# Poissons Ratio (x) = 0.53790 0.16261
# Poissons Ratio (y) = 0.35940 0.19882
# Poissons Ratio (z) = 0.13149 0.24062
#
# Static dielectric constant tensor:
#      x y z
#    x 1.590880 0.000000 0.000000 
#    y 0.000000 1.603420 0.000000 
#    z 0.000000 0.000000 1.593660 
# 
# From -- ./inp_files/6692.got.cif
#   From: 2010.05.17/outbox.cif.g08.bks.cpg/sg66_4_cif.got.tgz:6692.got - 2010.06.03 17:51:23.
