data_PCOD9496598
_publ_section_title
;
Structure prediction by ZEFSAII (Michael W. Deem and Ramdas Pophale) SiO2 
 PCOD9496598
Probable space group: C C C M
;
_chemical_formula_sum "Si O2"
_cell_formula_units_Z 80
_cell_length_a 12.616498
_cell_length_b 14.710037
_cell_length_c 21.482144
_cell_angle_alpha 90.000000
_cell_angle_beta 90.000000
_cell_angle_gamma 90.000000
_cell_volume 3986.852896
_symmetry_space_group_name_H-M "C C C M"
_symmetry_group_IT_number 66
_symmetry_cell_setting 'orthorhombic'
loop_
_space_group_symop_operation_xyz
x,y,z
-x,-y,z
x,-y,1/2-z
-x,y,1/2-z
-x,-y,-z
x,y,-z
-x,y,1/2+z
x,-y,1/2+z
1/2+x,1/2+y,z
1/2-x,1/2-y,z
1/2+x,1/2-y,1/2-z
1/2-x,1/2+y,1/2-z
1/2-x,1/2-y,-z
1/2+x,1/2+y,-z
1/2-x,1/2+y,1/2+z
1/2+x,1/2-y,1/2+z
loop_
_atom_site_type_symbol
_atom_site_label
_atom_site_fract_x
_atom_site_fract_y
_atom_site_fract_z
Si Si1 0.361013 0.090008 0.500000
Si Si2 0.418139 0.662468 0.805822
Si Si3 0.000000 0.000000 0.108807
Si Si4 0.120115 0.948071 0.000000
Si Si5 0.000000 0.500000 0.603590
Si Si6 0.250000 0.250000 0.228734
Si Si7 0.060138 0.303890 0.135422
Si Si8 0.511950 0.259656 0.500000
O O1 0.236298 0.090738 0.500000
O O2 0.406522 0.036550 0.440765
O O3 0.414323 0.188473 0.500000
O O4 0.500000 0.652554 0.750000
O O5 0.452157 0.580235 0.850082
O O6 0.303026 0.674885 0.774813
O O7 0.453060 0.753957 0.841364
O O8 0.096448 0.010789 0.059819
O O9 0.040937 0.859948 0.000000
O O10 0.042204 0.588578 0.637953
O O11 0.155197 0.279887 0.182590
O O12 0.073977 0.266277 0.064223
#
# Coordination Sequence:
#
# PCOD9496598 Si02
#       8
#     8  16   8   8   8   8  16   8
#     4   9  20  35  59  95 130 168 211 245 327 407
#     4  10  22  42  62  88 128 171 221 272 324 387
#     4  11  23  40  60  94 137 167 208 276 336 391
#     4  11  22  37  63 102 132 166 214 261 342 416
#     4   9  20  40  61  90 128 166 205 275 310 388
#     4  10  24  43  68  95 122 184 232 268 328 402
#     4  10  21  42  65  94 132 167 218 276 336 385
#     4  10  19  39  66  96 139 168 204 286 337 390
#
# _framework density 20.065950999999998
#
# number of rings (size 3 to 8) (size 9 to 14) (size 15 to 20)
#    0.000    2.000    2.000    1.200    0.000    6.800 
#    0.000    8.500    0.000    0.000    0.000    0.000 
#    0.000    0.000    0.000    0.000    0.000    0.000 
#
# Total GULP energy -222692.718718 kJ/mol
# GULP energy per Si atom -5567.317968 kJ/mol
# Density = 2.002028 g / cm^3
# Si number density = 20.065951 Si / 1000 Ang^3
#
#
#
# Elastic Constant Matrix: (Units=GPa)
#
#
# Indices 1 2 3 4 5 6 
#
# 1 81.0170 60.6943 38.4813 0.0000 0.0000 0.0000
# 2 60.6943 123.7837 46.3390 0.0000 0.0000 0.0000
# 3 38.4813 46.3390 120.3241 0.0000 0.0000 0.0000
# 4 0.0000 0.0000 0.0000 20.5351 0.0000 0.0000
# 5 0.0000 0.0000 0.0000 0.0000 -0.5681 0.0000
# 6 0.0000 0.0000 0.0000 0.0000 0.0000 16.0206
#
#
#
# Elastic Compliance Matrix: (Units=1/GPa)
#
#
# Indices 1 2 3 4 5 6 
#
# 1 0.020473 -0.008865 -0.003133 0.000000 0.000000 0.000000
# 2 -0.008865 0.013279 -0.002279 0.000000 0.000000 0.000000
# 3 -0.003133 -0.002279 0.010190 0.000000 0.000000 0.000000
# 4 0.000000 0.000000 0.000000 0.048697 0.000000 0.000000
# 5 0.000000 0.000000 0.000000 0.000000 -1.760230 0.000000
# 6 0.000000 0.000000 0.000000 0.000000 0.000000 0.062420
#
#
# Mechanical properties :
#
#
# Convention : Reuss Voigt Hill
#
# Bulk Modulus (GPa) = 64.98809 68.46157 66.72483
# Shear Modulus (GPa) = -3.18170 19.17153 7.99491
#
# Velocity S-wave (km/s) = -1.26058 3.09435 1.99824
# Velocity P-wave (km/s) = 5.50807 6.85266 6.21682
#
# Compressibility (1/GPa) = 0.01538744
#
# Stress axis : x y z
#
# Youngs Moduli (GPa) = 48.84505 75.30961 98.13110
#
# Poissons Ratio (x) = 0.66765 0.30747
# Poissons Ratio (y) = 0.43303 0.22359
# Poissons Ratio (z) = 0.15305 0.17159
#
# Static dielectric constant tensor:
#      x y z
#    x 1.691490 0.000000 0.000000 
#    y 0.000000 1.764080 0.000000 
#    z 0.000000 0.000000 1.786880 
# 
# From -- ./inp_files/56718.got.cif
#   From: 2010.05.17/outbox.cif.g08.bks.cpg/sg66_29_cif.got.tgz:56718.got - 2010.06.03 17:51:23.
