data_PCOD9496949
_publ_section_title
;
Structure prediction by ZEFSAII (Michael W. Deem and Ramdas Pophale) SiO2 
 PCOD9496949
Probable space group: C C C M
;
_chemical_formula_sum "Si O2"
_cell_formula_units_Z 104
_cell_length_a 14.703324
_cell_length_b 19.739567
_cell_length_c 14.703921
_cell_angle_alpha 90.000000
_cell_angle_beta 90.000000
_cell_angle_gamma 90.000000
_cell_volume 4267.625584
_symmetry_space_group_name_H-M "C C C M"
_symmetry_group_IT_number 66
_symmetry_cell_setting 'orthorhombic'
loop_
_space_group_symop_operation_xyz
x,y,z
-x,-y,z
x,-y,1/2-z
-x,y,1/2-z
-x,-y,-z
x,y,-z
-x,y,1/2+z
x,-y,1/2+z
1/2+x,1/2+y,z
1/2-x,1/2-y,z
1/2+x,1/2-y,1/2-z
1/2-x,1/2+y,1/2-z
1/2-x,1/2-y,-z
1/2+x,1/2+y,-z
1/2-x,1/2+y,1/2+z
1/2+x,1/2-y,1/2+z
loop_
_atom_site_type_symbol
_atom_site_label
_atom_site_fract_x
_atom_site_fract_y
_atom_site_fract_z
Si Si1 0.152157 0.662523 0.639576
Si Si2 0.397409 0.991132 0.394745
Si Si3 0.648744 0.869176 0.347722
Si Si4 0.847929 0.177991 0.862570
Si Si5 0.076200 0.291067 0.500000
Si Si6 0.006193 0.075841 0.360076
Si Si7 0.636253 0.309608 0.356201
O O1 0.129022 0.587423 0.608162
O O2 0.133346 0.657835 0.747142
O O3 0.259497 0.673926 0.620640
O O4 0.109237 0.734520 0.607778
O O5 0.392838 0.010551 0.500000
O O6 0.500000 0.000000 0.360168
O O7 0.339763 0.049446 0.344078
O O8 0.741646 0.833047 0.381683
O O9 0.571364 0.849489 0.419029
O O10 0.896145 0.234913 0.921199
O O11 0.862550 0.191684 0.754674
O O12 0.897724 0.107987 0.883712
O O13 0.929741 0.130544 0.387598
O O14 0.000000 0.073025 0.250000
O O15 0.000000 0.000000 0.394724
#
# Coordination Sequence:
#
# PCOD9496949 Si02
#       7
#    16  16  16  16   8  16  16
#     4  10  21  39  66  92 121 161 216 254 305 379
#     4  11  26  45  60  91 125 163 208 260 319 375
#     4  11  21  37  63  90 123 161 204 263 313 371
#     4  10  20  34  60  91 123 163 203 254 318 361
#     4  12  21  36  60  92 126 158 207 263 316 363
#     4   9  19  35  56  88 124 158 201 253 308 363
#     4   9  19  38  61  93 123 161 211 257 300 371
#
# _framework density 24.369524999999999
#
# number of rings (size 3 to 8) (size 9 to 14) (size 15 to 20)
#    0.000    1.846    2.308    1.846    2.154    2.462 
#    2.769    1.923    1.692    0.000    0.000    0.000 
#    0.000    0.000    0.000    0.000    0.000    0.000 
#
# Total GULP energy -289830.121554 kJ/mol
# GULP energy per Si atom -5573.656184 kJ/mol
# Density = 2.431406 g / cm^3
# Si number density = 24.369525 Si / 1000 Ang^3
#
#
#
# Elastic Constant Matrix: (Units=GPa)
#
#
# Indices 1 2 3 4 5 6 
#
# 1 43.9256 35.6995 -8.4911 0.0000 0.0000 0.0000
# 2 35.6995 249.1229 6.6425 0.0000 0.0000 0.0000
# 3 -8.4911 6.6425 78.6451 0.0000 0.0000 0.0000
# 4 0.0000 0.0000 0.0000 130.4788 0.0000 0.0000
# 5 0.0000 0.0000 0.0000 0.0000 7.4210 0.0000
# 6 0.0000 0.0000 0.0000 0.0000 0.0000 39.2075
#
#
#
# Elastic Compliance Matrix: (Units=1/GPa)
#
#
# Indices 1 2 3 4 5 6 
#
# 1 0.026544 -0.003889 0.003194 0.000000 0.000000 0.000000
# 2 -0.003889 0.004593 -0.000808 0.000000 0.000000 0.000000
# 3 0.003194 -0.000808 0.013128 0.000000 0.000000 0.000000
# 4 0.000000 0.000000 0.000000 0.007664 0.000000 0.000000
# 5 0.000000 0.000000 0.000000 0.000000 0.134753 0.000000
# 6 0.000000 0.000000 0.000000 0.000000 0.000000 0.025505
#
#
# Mechanical properties :
#
#
# Convention : Reuss Voigt Hill
#
# Bulk Modulus (GPa) = 24.23624 48.82168 36.52896
# Shear Modulus (GPa) = 21.83921 57.94430 39.89175
#
# Velocity S-wave (km/s) = 2.99686 4.88149 4.05032
# Velocity P-wave (km/s) = 4.68420 7.20065 6.07417
#
# Compressibility (1/GPa) = 0.04126053
#
# Stress axis : x y z
#
# Youngs Moduli (GPa) = 37.67341 217.72696 76.17036
#
# Poissons Ratio (x) = 0.84673 -0.24332
# Poissons Ratio (y) = 0.14651 0.06153
# Poissons Ratio (z) = -0.12034 0.17588
#
# Static dielectric constant tensor:
#      x y z
#    x 1.977060 0.000000 0.000000 
#    y 0.000000 1.966280 0.000000 
#    z 0.000000 0.000000 1.974720 
# 
# From -- ./inp_files/41805.got.cif
#   From: 2010.05.17/outbox.cif.g08.bks.cpg/sg66_21_cif.got.tgz:41805.got - 2010.06.03 17:51:23.
