data_PCOD9496556
_publ_section_title
;
Structure prediction by ZEFSAII (Michael W. Deem and Ramdas Pophale) SiO2 
 PCOD9496556
Probable space group: C C C M
;
_chemical_formula_sum "Si O2"
_cell_formula_units_Z 88
_cell_length_a 12.013541
_cell_length_b 18.812750
_cell_length_c 20.675618
_cell_angle_alpha 90.000000
_cell_angle_beta 90.000000
_cell_angle_gamma 90.000000
_cell_volume 4672.849769
_symmetry_space_group_name_H-M "C C C M"
_symmetry_group_IT_number 66
_symmetry_cell_setting 'orthorhombic'
loop_
_space_group_symop_operation_xyz
x,y,z
-x,-y,z
x,-y,1/2-z
-x,y,1/2-z
-x,-y,-z
x,y,-z
-x,y,1/2+z
x,-y,1/2+z
1/2+x,1/2+y,z
1/2-x,1/2-y,z
1/2+x,1/2-y,1/2-z
1/2-x,1/2+y,1/2-z
1/2-x,1/2-y,-z
1/2+x,1/2+y,-z
1/2-x,1/2+y,1/2+z
1/2+x,1/2-y,1/2+z
loop_
_atom_site_type_symbol
_atom_site_label
_atom_site_fract_x
_atom_site_fract_y
_atom_site_fract_z
Si Si1 0.801497 0.949076 0.000000
Si Si2 0.986750 0.138443 0.000000
Si Si3 0.433784 0.738367 0.614484
Si Si4 0.366128 0.081889 0.750569
Si Si5 0.339687 0.813867 0.133787
Si Si6 0.764248 0.645949 0.878626
Si Si7 0.724890 0.888771 0.500000
O O1 0.765939 0.909561 0.934101
O O2 0.739788 0.025450 0.000000
O O3 0.935755 0.932165 0.000000
O O4 0.018428 0.186604 0.060645
O O5 0.855303 0.130661 0.000000
O O6 0.539441 0.777468 0.645079
O O7 0.344489 0.687127 0.649602
O O8 0.350761 0.799060 0.589027
O O9 0.500000 0.083256 0.750000
O O10 0.322586 0.128445 0.690374
O O11 0.325531 0.113676 0.817707
O O12 0.329282 0.000000 0.750000
O O13 0.250000 0.750000 0.134494
O O14 0.330976 0.854478 0.064287
#
# Coordination Sequence:
#
# PCOD9496556 Si02
#       7
#     8   8  16  16  16  16   8
#     4  10  22  38  65  90 122 174 207 252 319 369
#     4  10  19  38  59  90 129 165 208 258 314 362
#     4  10  20  37  62  91 117 156 208 259 301 362
#     4  11  24  42  62  89 128 165 201 253 317 380
#     4  12  24  39  65  92 126 165 207 260 316 364
#     4  10  21  41  65  89 122 158 212 256 306 375
#     4  12  23  39  59  94 132 162 211 259 305 382
#
# _framework density 18.832191000000002
#
# number of rings (size 3 to 8) (size 9 to 14) (size 15 to 20)
#    0.000    1.273    3.636    2.727    2.545    2.182 
#    0.000    0.909    0.000    1.091    0.000    0.000 
#    0.000    0.000    0.000    0.000    0.000    0.000 
#
# Total GULP energy -245121.292471 kJ/mol
# GULP energy per Si atom -5570.938465 kJ/mol
# Density = 1.878933 g / cm^3
# Si number density = 18.832191 Si / 1000 Ang^3
#
#
#
# Elastic Constant Matrix: (Units=GPa)
#
#
# Indices 1 2 3 4 5 6 
#
# 1 93.4796 38.7826 22.1008 0.0000 0.0000 0.0000
# 2 38.7826 136.1399 52.7055 0.0000 0.0000 0.0000
# 3 22.1008 52.7055 107.9331 0.0000 0.0000 0.0000
# 4 0.0000 0.0000 0.0000 14.9370 0.0000 0.0000
# 5 0.0000 0.0000 0.0000 0.0000 25.6004 0.0000
# 6 0.0000 0.0000 0.0000 0.0000 0.0000 -14.8739
#
#
#
# Elastic Compliance Matrix: (Units=1/GPa)
#
#
# Indices 1 2 3 4 5 6 
#
# 1 0.012216 -0.003097 -0.000989 0.000000 0.000000 0.000000
# 2 -0.003097 0.009843 -0.004172 0.000000 0.000000 0.000000
# 3 -0.000989 -0.004172 0.011505 0.000000 0.000000 0.000000
# 4 0.000000 0.000000 0.000000 0.066948 0.000000 0.000000
# 5 0.000000 0.000000 0.000000 0.000000 0.039062 0.000000
# 6 0.000000 0.000000 0.000000 0.000000 0.000000 -0.067232
#
#
# Mechanical properties :
#
#
# Convention : Reuss Voigt Hill
#
# Bulk Modulus (GPa) = 58.66090 62.74783 60.70437
# Shear Modulus (GPa) = 52.88697 20.06363 36.47530
#
# Velocity S-wave (km/s) = 5.30512 3.26757 4.40575
# Velocity P-wave (km/s) = 8.29111 6.90129 7.62792
#
# Compressibility (1/GPa) = 0.01704713
#
# Stress axis : x y z
#
# Youngs Moduli (GPa) = 81.85779 101.59539 86.91939
#
# Poissons Ratio (x) = 0.31466 0.08597
# Poissons Ratio (y) = 0.25353 0.36265
# Poissons Ratio (z) = 0.08096 0.42389
#
# Static dielectric constant tensor:
#      x y z
#    x 1.677740 0.000000 0.000000 
#    y 0.000000 1.692530 0.000000 
#    z 0.000000 0.000000 1.619360 
# 
# From -- ./inp_files/38686.got.cif
#   From: 2010.05.17/outbox.cif.g08.bks.cpg/sg66_20_cif.got.tgz:38686.got - 2010.06.03 17:51:23.
