data_PCOD9496260
_publ_section_title
;
Structure prediction by ZEFSAII (Michael W. Deem and Ramdas Pophale) SiO2 
 PCOD9496260
Probable space group: C C C M
;
_chemical_formula_sum "Si O2"
_cell_formula_units_Z 88
_cell_length_a 12.144794
_cell_length_b 25.020616
_cell_length_c 14.712580
_cell_angle_alpha 90.000000
_cell_angle_beta 90.000000
_cell_angle_gamma 90.000000
_cell_volume 4470.715025
_symmetry_space_group_name_H-M "C C C M"
_symmetry_group_IT_number 66
_symmetry_cell_setting 'orthorhombic'
loop_
_space_group_symop_operation_xyz
x,y,z
-x,-y,z
x,-y,1/2-z
-x,y,1/2-z
-x,-y,-z
x,y,-z
-x,y,1/2+z
x,-y,1/2+z
1/2+x,1/2+y,z
1/2-x,1/2-y,z
1/2+x,1/2-y,1/2-z
1/2-x,1/2+y,1/2-z
1/2-x,1/2-y,-z
1/2+x,1/2+y,-z
1/2-x,1/2+y,1/2+z
1/2+x,1/2-y,1/2+z
loop_
_atom_site_type_symbol
_atom_site_label
_atom_site_fract_x
_atom_site_fract_y
_atom_site_fract_z
Si Si1 0.121680 0.657356 0.264067
Si Si2 0.372420 0.483978 0.895885
Si Si3 0.750000 0.750000 0.652797
Si Si4 0.880758 0.744266 0.103220
Si Si5 0.056763 0.172613 0.395511
Si Si6 0.674025 0.583888 0.722805
O O1 0.169638 0.709498 0.208957
O O2 0.102201 0.685302 0.360620
O O3 0.212672 0.613615 0.245560
O O4 0.000000 0.635434 0.250000
O O5 0.500000 0.500000 0.900790
O O6 0.366122 0.437224 0.820901
O O7 0.312875 0.534066 0.846524
O O8 0.335282 0.472943 0.000000
O O9 0.837828 0.787419 0.602320
O O10 0.750000 0.750000 0.109558
O O11 0.952458 0.793235 0.143047
O O12 0.916854 0.746305 0.000000
O O13 0.035371 0.153570 0.500000
O O14 0.094237 0.125169 0.329388
#
# Coordination Sequence:
#
# PCOD9496260 Si02
#       6
#    16  16   8  16  16  16
#     4  11  21  37  56  86 124 166 208 250 299 366
#     4  10  22  44  67  93 120 147 200 268 322 377
#     4  10  19  34  57  80 116 172 211 252 286 342
#     4  10  21  34  50  79 123 168 207 248 294 355
#     4  10  20  35  57  89 124 162 208 248 296 361
#     4  10  22  38  65  93 118 161 202 259 319 371
#
# _framework density 19.683651999999999
#
# number of rings (size 3 to 8) (size 9 to 14) (size 15 to 20)
#    0.000    1.818    2.727    1.909    0.000    3.636 
#    0.000    6.364    0.000    1.091    0.000    0.000 
#    0.000    0.000    0.000    0.000    0.000    0.000 
#
# Total GULP energy -245107.557396 kJ/mol
# GULP energy per Si atom -5570.626304 kJ/mol
# Density = 1.963885 g / cm^3
# Si number density = 19.683652 Si / 1000 Ang^3
#
#
#
# Elastic Constant Matrix: (Units=GPa)
#
#
# Indices 1 2 3 4 5 6 
#
# 1 99.8653 53.0617 40.2434 0.0000 0.0000 0.0000
# 2 53.0617 99.5207 60.1482 0.0000 0.0000 0.0000
# 3 40.2434 60.1482 131.5032 0.0000 0.0000 0.0000
# 4 0.0000 0.0000 0.0000 9.1439 0.0000 0.0000
# 5 0.0000 0.0000 0.0000 0.0000 12.7797 0.0000
# 6 0.0000 0.0000 0.0000 0.0000 0.0000 32.6608
#
#
#
# Elastic Compliance Matrix: (Units=1/GPa)
#
#
# Indices 1 2 3 4 5 6 
#
# 1 0.014110 -0.006790 -0.001212 0.000000 0.000000 0.000000
# 2 -0.006790 0.017155 -0.005768 0.000000 0.000000 0.000000
# 3 -0.001212 -0.005768 0.010614 0.000000 0.000000 0.000000
# 4 0.000000 0.000000 0.000000 0.109363 0.000000 0.000000
# 5 0.000000 0.000000 0.000000 0.000000 0.078249 0.000000
# 6 0.000000 0.000000 0.000000 0.000000 0.000000 0.030618
#
#
# Mechanical properties :
#
#
# Convention : Reuss Voigt Hill
#
# Bulk Modulus (GPa) = 69.75151 70.86619 70.30885
# Shear Modulus (GPa) = 17.09818 22.74596 19.92207
#
# Velocity S-wave (km/s) = 2.95048 3.40306 3.18482
# Velocity P-wave (km/s) = 6.86442 7.17787 7.02290
#
# Compressibility (1/GPa) = 0.01433661
#
# Stress axis : x y z
#
# Youngs Moduli (GPa) = 70.87212 58.29224 94.21745
#
# Poissons Ratio (x) = 0.39583 0.11420
# Poissons Ratio (y) = 0.48125 0.54349
# Poissons Ratio (z) = 0.08591 0.33626
#
# Static dielectric constant tensor:
#      x y z
#    x 1.639110 0.000000 0.000000 
#    y 0.000000 1.667570 0.000000 
#    z 0.000000 0.000000 1.816350 
# 
# From -- ./inp_files/26549.got.cif
#   From: 2010.05.17/outbox.cif.g08.bks.cpg/sg66_14_cif.got.tgz:26549.got - 2010.06.03 17:51:23.
