data_PCOD9496515
_publ_section_title
;
Structure prediction by ZEFSAII (Michael W. Deem and Ramdas Pophale) SiO2 
 PCOD9496515
Probable space group: C C C M
;
_chemical_formula_sum "Si O2"
_cell_formula_units_Z 104
_cell_length_a 9.922053
_cell_length_b 21.613632
_cell_length_c 25.476903
_cell_angle_alpha 90.000000
_cell_angle_beta 90.000000
_cell_angle_gamma 90.000000
_cell_volume 5463.562668
_symmetry_space_group_name_H-M "C C C M"
_symmetry_group_IT_number 66
_symmetry_cell_setting 'orthorhombic'
loop_
_space_group_symop_operation_xyz
x,y,z
-x,-y,z
x,-y,1/2-z
-x,y,1/2-z
-x,-y,-z
x,y,-z
-x,y,1/2+z
x,-y,1/2+z
1/2+x,1/2+y,z
1/2-x,1/2-y,z
1/2+x,1/2-y,1/2-z
1/2-x,1/2+y,1/2-z
1/2-x,1/2-y,-z
1/2+x,1/2+y,-z
1/2-x,1/2+y,1/2+z
1/2+x,1/2-y,1/2+z
loop_
_atom_site_type_symbol
_atom_site_label
_atom_site_fract_x
_atom_site_fract_y
_atom_site_fract_z
Si Si1 0.950903 0.644344 0.884057
Si Si2 0.796815 0.051994 0.386335
Si Si3 0.405521 0.750333 0.700853
Si Si4 0.248689 0.905599 0.115101
Si Si5 0.997668 0.111889 0.188643
Si Si6 0.814108 0.952448 0.000000
Si Si7 0.459142 0.880764 0.500000
Si Si8 0.229436 0.093551 0.500000
O O1 0.834758 0.593230 0.875192
O O2 0.925130 0.702092 0.846666
O O3 0.099844 0.617026 0.874594
O O4 0.944110 0.657653 0.946553
O O5 0.907462 0.065133 0.342833
O O6 0.859881 0.070903 0.443191
O O7 0.755425 0.980274 0.389549
O O8 0.500000 0.767265 0.750000
O O9 0.250000 0.750000 0.717624
O O10 0.443735 0.681079 0.683690
O O11 0.148210 0.888266 0.161698
O O12 0.201085 0.879120 0.057862
O O13 0.000000 0.096492 0.250000
O O14 0.835020 0.025694 0.000000
O O15 0.655202 0.933695 0.000000
O O16 0.607012 0.911084 0.500000
#
# Coordination Sequence:
#
# PCOD9496515 Si02
#       8
#    16  16  16  16  16   8   8   8
#     4  10  20  37  63  89 119 149 196 237 281 344
#     4  10  19  37  58  89 122 153 190 232 287 346
#     4  11  25  44  66  84 108 151 204 248 285 339
#     4  10  21  35  61  89 120 156 186 235 287 344
#     4  11  25  41  57  80 116 155 195 241 298 341
#     4   8  15  27  55  83 115 155 190 226 270 339
#     4   8  15  30  53  88 120 149 176 233 294 333
#     4   8  15  31  51  84 119 152 193 220 270 345
#
# _framework density 19.035198999999999
#
# number of rings (size 3 to 8) (size 9 to 14) (size 15 to 20)
#    0.000    2.154    1.538    1.154    4.308    5.538 
#    0.000    4.231    0.000    5.538    0.000    0.000 
#    0.000    0.000    0.000    0.000    0.000    0.000 
#
# Total GULP energy -290040.862234 kJ/mol
# GULP energy per Si atom -5577.708889 kJ/mol
# Density = 1.899187 g / cm^3
# Si number density = 19.035199 Si / 1000 Ang^3
#
#
#
# Elastic Constant Matrix: (Units=GPa)
#
#
# Indices 1 2 3 4 5 6 
#
# 1 109.1413 21.5176 65.0919 0.0000 0.0000 0.0000
# 2 21.5176 23.4129 40.4786 0.0000 0.0000 0.0000
# 3 65.0919 40.4786 133.9126 0.0000 0.0000 0.0000
# 4 0.0000 0.0000 0.0000 458.7982 0.0000 0.0000
# 5 0.0000 0.0000 0.0000 0.0000 29.2392 0.0000
# 6 0.0000 0.0000 0.0000 0.0000 0.0000 25.2176
#
#
#
# Elastic Compliance Matrix: (Units=1/GPa)
#
#
# Indices 1 2 3 4 5 6 
#
# 1 0.012954 -0.002135 -0.005651 0.000000 0.000000 0.000000
# 2 -0.002135 0.089820 -0.026113 0.000000 0.000000 0.000000
# 3 -0.005651 -0.026113 0.018108 0.000000 0.000000 0.000000
# 4 0.000000 0.000000 0.000000 0.002180 0.000000 0.000000
# 5 0.000000 0.000000 0.000000 0.000000 0.034201 0.000000
# 6 0.000000 0.000000 0.000000 0.000000 0.000000 0.039655
#
#
# Mechanical properties :
#
#
# Convention : Reuss Voigt Hill
#
# Bulk Modulus (GPa) = 18.83810 57.84923 38.34367
# Shear Modulus (GPa) = 17.70487 111.94293 64.82390
#
# Velocity S-wave (km/s) = 3.05308 7.67698 5.84198
# Velocity P-wave (km/s) = 4.72719 10.44213 8.10507
#
# Compressibility (1/GPa) = 0.05308391
#
# Stress axis : x y z
#
# Youngs Moduli (GPa) = 77.19801 11.13341 55.22492
#
# Poissons Ratio (x) = 0.02377 0.31209
# Poissons Ratio (y) = 0.16479 1.44208
# Poissons Ratio (z) = 0.43627 0.29072
#
# Static dielectric constant tensor:
#      x y z
#    x 1.667620 0.000000 0.000000 
#    y 0.000000 1.626050 0.000000 
#    z 0.000000 0.000000 1.697580 
# 
# From -- ./inp_files/47440.got.cif
#   From: 2010.05.17/outbox.cif.g08.bks.cpg/sg66_24_cif.got.tgz:47440.got - 2010.06.03 17:51:23.
