data_PCOD9496078
_publ_section_title
;
Structure prediction by ZEFSAII (Michael W. Deem and Ramdas Pophale) SiO2 
 PCOD9496078
Probable space group: C C C M
;
_chemical_formula_sum "Si O2"
_cell_formula_units_Z 96
_cell_length_a 30.884291
_cell_length_b 20.378264
_cell_length_c 8.713972
_cell_angle_alpha 90.000000
_cell_angle_beta 90.000000
_cell_angle_gamma 90.000000
_cell_volume 5484.297181
_symmetry_space_group_name_H-M "C C C M"
_symmetry_group_IT_number 66
_symmetry_cell_setting 'orthorhombic'
loop_
_space_group_symop_operation_xyz
x,y,z
-x,-y,z
x,-y,1/2-z
-x,y,1/2-z
-x,-y,-z
x,y,-z
-x,y,1/2+z
x,-y,1/2+z
1/2+x,1/2+y,z
1/2-x,1/2-y,z
1/2+x,1/2-y,1/2-z
1/2-x,1/2+y,1/2-z
1/2-x,1/2-y,-z
1/2+x,1/2+y,-z
1/2-x,1/2+y,1/2+z
1/2+x,1/2-y,1/2+z
loop_
_atom_site_type_symbol
_atom_site_label
_atom_site_fract_x
_atom_site_fract_y
_atom_site_fract_z
Si Si1 0.548889 0.434236 0.816649
Si Si2 0.334913 0.931059 0.815887
Si Si3 0.733224 0.570155 0.315936
Si Si4 0.292825 0.707957 0.315933
Si Si5 0.951879 0.789355 0.315449
Si Si6 0.628720 0.207060 0.186148
O O1 0.570321 0.500000 0.750000
O O2 0.500000 0.432966 0.750000
O O3 0.566330 0.362214 0.775150
O O4 0.547144 0.440044 0.000000
O O5 0.284250 0.923301 0.772379
O O6 0.360992 0.867103 0.764306
O O7 0.350654 0.000000 0.750000
O O8 0.336454 0.934060 0.000000
O O9 0.718123 0.500000 0.250000
O O10 0.729950 0.569459 0.500000
O O11 0.710324 0.634491 0.249856
O O12 0.294430 0.705457 0.500000
O O13 0.250000 0.750000 0.271129
O O14 0.334056 0.745994 0.250532
O O15 0.955238 0.787844 0.500000
O O16 0.917841 0.734675 0.265278
O O17 0.000000 0.781688 0.250000
O O18 0.630648 0.209102 0.000000
#
# Coordination Sequence:
#
# PCOD9496078 Si02
#       6
#    16  16  16  16  16  16
#     4   9  15  25  43  68  93 122 157 200 245 291
#     4   9  18  31  51  76 102 132 171 214 258 310
#     4  10  19  33  53  76 105 143 180 217 262 313
#     4  11  22  34  51  78 109 139 174 218 261 311
#     4   9  19  34  53  75 102 133 173 218 264 314
#     4  10  20  36  55  77 104 140 178 214 264 322
#
# _framework density 17.504522000000001
#
# number of rings (size 3 to 8) (size 9 to 14) (size 15 to 20)
#    0.000    2.333    1.667    2.000    0.000    3.333 
#    0.000    0.833    0.000    2.500    0.000    3.500 
#    0.000    0.000    0.000    0.000    0.000    0.000 
#
# Total GULP energy -267662.462568 kJ/mol
# GULP energy per Si atom -5576.301304 kJ/mol
# Density = 1.746468 g / cm^3
# Si number density = 17.504522 Si / 1000 Ang^3
#
#
#
# Elastic Constant Matrix: (Units=GPa)
#
#
# Indices 1 2 3 4 5 6 
#
# 1 69.0160 64.4916 17.3674 0.0000 0.0000 0.0000
# 2 64.4916 190.8730 36.0363 0.0000 0.0000 0.0000
# 3 17.3674 36.0363 24.2376 0.0000 0.0000 0.0000
# 4 0.0000 0.0000 0.0000 68.9639 0.0000 0.0000
# 5 0.0000 0.0000 0.0000 0.0000 11.4294 0.0000
# 6 0.0000 0.0000 0.0000 0.0000 0.0000 24.2101
#
#
#
# Elastic Compliance Matrix: (Units=1/GPa)
#
#
# Indices 1 2 3 4 5 6 
#
# 1 0.021892 -0.006166 -0.006519 0.000000 0.000000 0.000000
# 2 -0.006166 0.009020 -0.008993 0.000000 0.000000 0.000000
# 3 -0.006519 -0.008993 0.059300 0.000000 0.000000 0.000000
# 4 0.000000 0.000000 0.000000 0.014500 0.000000 0.000000
# 5 0.000000 0.000000 0.000000 0.000000 0.087493 0.000000
# 6 0.000000 0.000000 0.000000 0.000000 0.000000 0.041305
#
#
# Mechanical properties :
#
#
# Convention : Reuss Voigt Hill
#
# Bulk Modulus (GPa) = 21.34188 57.76857 39.55522
# Shear Modulus (GPa) = 17.09486 32.00277 24.54881
#
# Velocity S-wave (km/s) = 3.12845 4.28045 3.74896
# Velocity P-wave (km/s) = 5.02675 7.58310 6.43318
#
# Compressibility (1/GPa) = 0.04685624
#
# Stress axis : x y z
#
# Youngs Moduli (GPa) = 45.67983 110.86126 16.86330
#
# Poissons Ratio (x) = 0.68356 0.10993
# Poissons Ratio (y) = 0.28166 0.15165
# Poissons Ratio (z) = 0.29778 0.99699
#
# Static dielectric constant tensor:
#      x y z
#    x 1.581030 0.000000 0.000000 
#    y 0.000000 1.622260 0.000000 
#    z 0.000000 0.000000 1.588820 
# 
# From -- ./inp_files/7991.got.cif
#   From: 2010.05.17/outbox.cif.g08.bks.cpg/sg66_4_cif.got.tgz:7991.got - 2010.06.03 17:51:23.
