data_PCOD9496981
_publ_section_title
;
Structure prediction by ZEFSAII (Michael W. Deem and Ramdas Pophale) SiO2 
 PCOD9496981
Probable space group: C C C M
;
_chemical_formula_sum "Si O2"
_cell_formula_units_Z 80
_cell_length_a 11.757419
_cell_length_b 15.759874
_cell_length_c 24.353002
_cell_angle_alpha 90.000000
_cell_angle_beta 90.000000
_cell_angle_gamma 90.000000
_cell_volume 4512.500270
_symmetry_space_group_name_H-M "C C C M"
_symmetry_group_IT_number 66
_symmetry_cell_setting 'orthorhombic'
loop_
_space_group_symop_operation_xyz
x,y,z
-x,-y,z
x,-y,1/2-z
-x,y,1/2-z
-x,-y,-z
x,y,-z
-x,y,1/2+z
x,-y,1/2+z
1/2+x,1/2+y,z
1/2-x,1/2-y,z
1/2+x,1/2-y,1/2-z
1/2-x,1/2+y,1/2-z
1/2-x,1/2-y,-z
1/2+x,1/2+y,-z
1/2-x,1/2+y,1/2+z
1/2+x,1/2-y,1/2+z
loop_
_atom_site_type_symbol
_atom_site_label
_atom_site_fract_x
_atom_site_fract_y
_atom_site_fract_z
Si Si1 0.653646 0.680281 0.163455
Si Si2 0.329656 0.902107 0.735659
Si Si3 0.476640 0.178235 0.672003
Si Si4 0.543695 0.404292 0.437638
Si Si5 0.884502 0.258949 0.938038
O O1 0.750000 0.750000 0.148408
O O2 0.709558 0.629364 0.213177
O O3 0.540367 0.731477 0.180543
O O4 0.628033 0.622502 0.110911
O O5 0.424208 0.887802 0.688040
O O6 0.375399 0.844907 0.786249
O O7 0.327216 0.000000 0.750000
O O8 0.435760 0.182275 0.609550
O O9 0.500000 0.500000 0.429902
O O10 0.590782 0.398420 0.500000
O O11 0.443401 0.333826 0.434383
O O12 0.750000 0.250000 0.929967
O O13 0.905543 0.290697 0.000000
#
# Coordination Sequence:
#
# PCOD9496981 Si02
#       5
#    16  16  16  16  16
#     4   9  19  35  52  75 102 132 173 209 249 307
#     4  10  20  35  54  75 102 137 174 212 257 302
#     4   9  18  33  53  72  99 134 170 209 249 301
#     4   9  18  34  54  77 106 135 166 210 258 300
#     4   9  18  32  52  78 105 136 171 208 255 309
#
# _framework density 17.728529999999999
#
# number of rings (size 3 to 8) (size 9 to 14) (size 15 to 20)
#    0.000    2.800    0.000    1.200    0.000    6.000 
#    0.000   13.000    0.000    2.400    0.000    0.000 
#    0.000    0.000    0.000    0.000    0.000    0.000 
#
# Total GULP energy -222764.892599 kJ/mol
# GULP energy per Si atom -5569.122315 kJ/mol
# Density = 1.768818 g / cm^3
# Si number density = 17.728530 Si / 1000 Ang^3
#
#
#
# Elastic Constant Matrix: (Units=GPa)
#
#
# Indices 1 2 3 4 5 6 
#
# 1 56.9768 29.1307 63.5424 0.0000 0.0000 0.0000
# 2 29.1307 89.8943 77.7493 0.0000 0.0000 0.0000
# 3 63.5424 77.7493 141.8270 0.0000 0.0000 0.0000
# 4 0.0000 0.0000 0.0000 25.1666 0.0000 0.0000
# 5 0.0000 0.0000 0.0000 0.0000 27.7783 0.0000
# 6 0.0000 0.0000 0.0000 0.0000 0.0000 6.2733
#
#
#
# Elastic Compliance Matrix: (Units=1/GPa)
#
#
# Indices 1 2 3 4 5 6 
#
# 1 0.035945 0.004337 -0.018482 0.000000 0.000000 0.000000
# 2 0.004337 0.021677 -0.013826 0.000000 0.000000 0.000000
# 3 -0.018482 -0.013826 0.022911 0.000000 0.000000 0.000000
# 4 0.000000 0.000000 0.000000 0.039735 0.000000 0.000000
# 5 0.000000 0.000000 0.000000 0.000000 0.035999 0.000000
# 6 0.000000 0.000000 0.000000 0.000000 0.000000 0.159406
#
#
# Mechanical properties :
#
#
# Convention : Reuss Voigt Hill
#
# Bulk Modulus (GPa) = 40.66653 69.94923 55.30788
# Shear Modulus (GPa) = 13.16435 19.72868 16.44651
#
# Velocity S-wave (km/s) = 2.72794 3.33952 3.04910
# Velocity P-wave (km/s) = 5.73676 7.37640 6.60763
#
# Compressibility (1/GPa) = 0.02459024
#
# Stress axis : x y z
#
# Youngs Moduli (GPa) = 27.82000 46.13136 43.64756
#
# Poissons Ratio (x) = -0.20005 0.80669
# Poissons Ratio (y) = -0.12064 0.60349
# Poissons Ratio (z) = 0.51416 0.63783
#
# Static dielectric constant tensor:
#      x y z
#    x 1.616410 0.000000 0.000000 
#    y 0.000000 1.590140 0.000000 
#    z 0.000000 0.000000 1.624180 
# 
# From -- ./inp_files/56561.got.cif
#   From: 2010.05.17/outbox.cif.g08.bks.cpg/sg66_29_cif.got.tgz:56561.got - 2010.06.03 17:51:23.
