data_PCOD9496399
_publ_section_title
;
Structure prediction by ZEFSAII (Michael W. Deem and Ramdas Pophale) SiO2 
 PCOD9496399
Probable space group: C C C M
;
_chemical_formula_sum "Si O2"
_cell_formula_units_Z 100
_cell_length_a 10.487059
_cell_length_b 14.276928
_cell_length_c 32.874597
_cell_angle_alpha 90.000000
_cell_angle_beta 90.000000
_cell_angle_gamma 90.000000
_cell_volume 4922.082835
_symmetry_space_group_name_H-M "C C C M"
_symmetry_group_IT_number 66
_symmetry_cell_setting 'orthorhombic'
loop_
_space_group_symop_operation_xyz
x,y,z
-x,-y,z
x,-y,1/2-z
-x,y,1/2-z
-x,-y,-z
x,y,-z
-x,y,1/2+z
x,-y,1/2+z
1/2+x,1/2+y,z
1/2-x,1/2-y,z
1/2+x,1/2-y,1/2-z
1/2-x,1/2+y,1/2-z
1/2-x,1/2-y,-z
1/2+x,1/2+y,-z
1/2-x,1/2+y,1/2+z
1/2+x,1/2-y,1/2+z
loop_
_atom_site_type_symbol
_atom_site_label
_atom_site_fract_x
_atom_site_fract_y
_atom_site_fract_z
Si Si1 0.506074 0.638051 0.911980
Si Si2 0.991693 0.364481 0.586495
Si Si3 0.613974 0.134260 0.500000
Si Si4 0.090562 0.137017 0.000000
Si Si5 0.751562 0.638412 0.857271
Si Si6 0.242408 0.978764 0.792981
Si Si7 0.500000 0.500000 0.250000
Si Si8 0.255820 0.137218 0.370100
O O1 0.501015 0.751191 0.914072
O O2 0.634228 0.616721 0.887286
O O3 0.380460 0.605310 0.888091
O O4 0.520229 0.607795 0.958714
O O5 0.950849 0.396359 0.541856
O O6 0.882558 0.386000 0.619482
O O7 0.130946 0.395195 0.600384
O O8 0.762135 0.105987 0.500000
O O9 0.602970 0.248639 0.500000
O O10 0.750000 0.750000 0.849061
O O11 0.735605 0.576127 0.817342
O O12 0.287395 0.904096 0.825782
O O13 0.310851 0.000000 0.750000
O O14 0.100207 0.946760 0.778611
O O15 0.250000 0.250000 0.368069
#
# Coordination Sequence:
#
# PCOD9496399 Si02
#       8
#    16  16   8   8  16  16   4  16
#     4   9  17  30  54  84 114 150 195 234 273 331
#     4   9  18  31  53  84 116 155 188 228 286 329
#     4   9  14  27  49  82 118 151 195 237 269 334
#     4   9  14  25  51  84 116 147 197 243 271 314
#     4  10  19  35  60  87 111 145 190 231 278 338
#     4  10  22  39  61  83 111 145 188 235 289 346
#     4   8  20  40  60  86 104 140 184 226 292 344
#     4  10  21  37  56  83 119 155 189 231 287 340
#
# _framework density 20.316600999999999
#
# number of rings (size 3 to 8) (size 9 to 14) (size 15 to 20)
#    0.480    2.080    1.600    0.960    0.000    1.920 
#    0.000    4.800    0.000    5.760    0.000    0.000 
#    0.000    0.000    0.000    0.000    0.000    0.000 
#
# Total GULP energy -278798.848611 kJ/mol
# GULP energy per Si atom -5575.976972 kJ/mol
# Density = 2.027036 g / cm^3
# Si number density = 20.316601 Si / 1000 Ang^3
#
#
#
# Elastic Constant Matrix: (Units=GPa)
#
#
# Indices 1 2 3 4 5 6 
#
# 1 98.4052 5.8722 37.1668 0.0000 0.0000 0.0000
# 2 5.8722 86.8069 22.6624 0.0000 0.0000 0.0000
# 3 37.1668 22.6624 158.2054 0.0000 0.0000 0.0000
# 4 0.0000 0.0000 0.0000 24.8538 0.0000 0.0000
# 5 0.0000 0.0000 0.0000 0.0000 37.4584 0.0000
# 6 0.0000 0.0000 0.0000 0.0000 0.0000 -5.2048
#
#
#
# Elastic Compliance Matrix: (Units=1/GPa)
#
#
# Indices 1 2 3 4 5 6 
#
# 1 0.011152 -0.000073 -0.002609 0.000000 0.000000 0.000000
# 2 -0.000073 0.011968 -0.001697 0.000000 0.000000 0.000000
# 3 -0.002609 -0.001697 0.007177 0.000000 0.000000 0.000000
# 4 0.000000 0.000000 0.000000 0.040235 0.000000 0.000000
# 5 0.000000 0.000000 0.000000 0.000000 0.026696 0.000000
# 6 0.000000 0.000000 0.000000 0.000000 0.000000 -0.192129
#
#
# Mechanical properties :
#
#
# Convention : Reuss Voigt Hill
#
# Bulk Modulus (GPa) = 46.43098 52.75783 49.59440
# Shear Modulus (GPa) = -63.32166 29.93588 -16.69289
#
# Velocity S-wave (km/s) = -5.58884 3.84274 -2.86953
# Velocity P-wave (km/s) = 4.32938 6.76115 3.67217
#
# Compressibility (1/GPa) = 0.02153735
#
# Stress axis : x y z
#
# Youngs Moduli (GPa) = 89.67013 83.55729 139.33327
#
# Poissons Ratio (x) = 0.00611 0.36358
# Poissons Ratio (y) = 0.00656 0.23647
# Poissons Ratio (z) = 0.23399 0.14181
#
# Static dielectric constant tensor:
#      x y z
#    x 1.712930 0.000000 0.000000 
#    y 0.000000 1.766130 0.000000 
#    z 0.000000 0.000000 1.697040 
# 
# From -- ./inp_files/69061.got.cif
#   From: 2010.05.17/outbox.cif.g08.bks.cpg/sg66_35_cif.got.tgz:69061.got - 2010.06.03 17:51:23.
