data_PCOD9496072
_publ_section_title
;
Structure prediction by ZEFSAII (Michael W. Deem and Ramdas Pophale) SiO2 
 PCOD9496072
Probable space group: C C C M
;
_chemical_formula_sum "Si O2"
_cell_formula_units_Z 96
_cell_length_a 11.642664
_cell_length_b 25.872326
_cell_length_c 16.699020
_cell_angle_alpha 90.000000
_cell_angle_beta 90.000000
_cell_angle_gamma 90.000000
_cell_volume 5030.125537
_symmetry_space_group_name_H-M "C C C M"
_symmetry_group_IT_number 66
_symmetry_cell_setting 'orthorhombic'
loop_
_space_group_symop_operation_xyz
x,y,z
-x,-y,z
x,-y,1/2-z
-x,y,1/2-z
-x,-y,-z
x,y,-z
-x,y,1/2+z
x,-y,1/2+z
1/2+x,1/2+y,z
1/2-x,1/2-y,z
1/2+x,1/2-y,1/2-z
1/2-x,1/2+y,1/2-z
1/2-x,1/2-y,-z
1/2+x,1/2+y,-z
1/2-x,1/2+y,1/2+z
1/2+x,1/2-y,1/2+z
loop_
_atom_site_type_symbol
_atom_site_label
_atom_site_fract_x
_atom_site_fract_y
_atom_site_fract_z
Si Si1 0.986823 0.371603 0.905510
Si Si2 0.171078 0.903508 0.335870
Si Si3 0.848778 0.529166 0.909594
Si Si4 0.216234 0.571980 0.166294
Si Si5 0.959772 0.940732 0.591222
Si Si6 0.796116 0.692648 0.096005
O O1 0.871885 0.382200 0.855446
O O2 0.063517 0.423757 0.895931
O O3 0.072462 0.324395 0.883393
O O4 0.958474 0.367236 0.000000
O O5 0.226245 0.942896 0.400621
O O6 0.227878 0.921373 0.253055
O O7 0.215229 0.847243 0.358111
O O8 0.035787 0.908681 0.346059
O O9 0.850974 0.481843 0.848410
O O10 0.864933 0.509225 0.000000
O O11 0.325518 0.567240 0.107678
O O12 0.984711 0.925194 0.500000
O O13 0.000000 0.000000 0.602102
O O14 0.750000 0.750000 0.111723
O O15 0.787281 0.683481 0.000000
#
# Coordination Sequence:
#
# PCOD9496072 Si02
#       6
#    16  16  16  16  16  16
#     4   9  19  35  57  86 119 153 200 247 288 350
#     4  11  22  35  55  85 118 149 194 251 290 348
#     4  10  19  33  52  79 117 162 198 230 277 347
#     4  12  22  32  53  82 123 158 189 234 302 354
#     4  11  22  36  57  79 114 167 208 236 278 350
#     4   9  19  39  67  88 106 145 199 248 291 343
#
# _framework density 19.085011000000002
#
# number of rings (size 3 to 8) (size 9 to 14) (size 15 to 20)
#    0.000    1.667    1.667    5.500    0.000    4.667 
#    0.000    3.333    7.333    0.000    0.000    4.667 
#    0.000    0.000    0.000    0.000    0.000    0.000 
#
# Total GULP energy -267871.208237 kJ/mol
# GULP energy per Si atom -5580.650172 kJ/mol
# Density = 1.904157 g / cm^3
# Si number density = 19.085011 Si / 1000 Ang^3
#
#
#
# Elastic Constant Matrix: (Units=GPa)
#
#
# Indices 1 2 3 4 5 6 
#
# 1 104.7601 23.1650 32.4893 0.0000 0.0000 0.0000
# 2 23.1650 85.5552 42.0583 0.0000 0.0000 0.0000
# 3 32.4893 42.0583 83.3615 0.0000 0.0000 0.0000
# 4 0.0000 0.0000 0.0000 15.0218 0.0000 0.0000
# 5 0.0000 0.0000 0.0000 0.0000 19.8491 0.0000
# 6 0.0000 0.0000 0.0000 0.0000 0.0000 25.1538
#
#
#
# Elastic Compliance Matrix: (Units=1/GPa)
#
#
# Indices 1 2 3 4 5 6 
#
# 1 0.010943 -0.001152 -0.003684 0.000000 0.000000 0.000000
# 2 -0.001152 0.015665 -0.007454 0.000000 0.000000 0.000000
# 3 -0.003684 -0.007454 0.017193 0.000000 0.000000 0.000000
# 4 0.000000 0.000000 0.000000 0.066570 0.000000 0.000000
# 5 0.000000 0.000000 0.000000 0.000000 0.050380 0.000000
# 6 0.000000 0.000000 0.000000 0.000000 0.000000 0.039755
#
#
# Mechanical properties :
#
#
# Convention : Reuss Voigt Hill
#
# Bulk Modulus (GPa) = 52.02880 52.12241 52.07561
# Shear Modulus (GPa) = 21.59900 23.73589 22.66745
#
# Velocity S-wave (km/s) = 3.36776 3.53043 3.45005
# Velocity P-wave (km/s) = 6.51485 6.63238 6.57388
#
# Compressibility (1/GPa) = 0.01922012
#
# Stress axis : x y z
#
# Youngs Moduli (GPa) = 91.38464 63.83742 58.16484
#
# Poissons Ratio (x) = 0.07354 0.21426
# Poissons Ratio (y) = 0.10528 0.43358
# Poissons Ratio (z) = 0.33662 0.47587
#
# Static dielectric constant tensor:
#      x y z
#    x 1.722480 0.000000 0.000000 
#    y 0.000000 1.646500 0.000000 
#    z 0.000000 0.000000 1.694090 
# 
# From -- ./inp_files/38830.got.cif
#   From: 2010.05.17/outbox.cif.g08.bks.cpg/sg66_20_cif.got.tgz:38830.got - 2010.06.03 17:51:23.
