data_PCOD9496216
_publ_section_title
;
Structure prediction by ZEFSAII (Michael W. Deem and Ramdas Pophale) SiO2 
 PCOD9496216
Probable space group: C C C M
;
_chemical_formula_sum "Si O2"
_cell_formula_units_Z 116
_cell_length_a 27.420239
_cell_length_b 26.388018
_cell_length_c 8.979944
_cell_angle_alpha 90.000000
_cell_angle_beta 90.000000
_cell_angle_gamma 90.000000
_cell_volume 6497.580008
_symmetry_space_group_name_H-M "C C C M"
_symmetry_group_IT_number 66
_symmetry_cell_setting 'orthorhombic'
loop_
_space_group_symop_operation_xyz
x,y,z
-x,-y,z
x,-y,1/2-z
-x,y,1/2-z
-x,-y,-z
x,y,-z
-x,y,1/2+z
x,-y,1/2+z
1/2+x,1/2+y,z
1/2-x,1/2-y,z
1/2+x,1/2-y,1/2-z
1/2-x,1/2+y,1/2-z
1/2-x,1/2-y,-z
1/2+x,1/2+y,-z
1/2-x,1/2+y,1/2+z
1/2+x,1/2-y,1/2+z
loop_
_atom_site_type_symbol
_atom_site_label
_atom_site_fract_x
_atom_site_fract_y
_atom_site_fract_z
Si Si1 0.154509 0.671739 0.827469
Si Si2 0.571905 0.587530 0.332861
Si Si3 0.000000 0.000000 0.750000
Si Si4 0.421369 0.686698 0.323445
Si Si5 0.183290 0.945425 0.178074
Si Si6 0.049190 0.707489 0.178936
Si Si7 0.820289 0.790506 0.674027
Si Si8 0.752441 0.638933 0.177082
O O1 0.097823 0.675729 0.782336
O O2 0.172084 0.730381 0.821497
O O3 0.191438 0.639505 0.728785
O O4 0.157710 0.655557 0.000000
O O5 0.572764 0.609144 0.500000
O O6 0.536468 0.539139 0.330638
O O7 0.556713 0.632554 0.222408
O O8 0.626783 0.569829 0.294076
O O9 0.422613 0.693652 0.500000
O O10 0.444262 0.735657 0.243653
O O11 0.366166 0.685873 0.260608
O O12 0.220516 0.905830 0.251111
O O13 0.191481 0.000000 0.250000
O O14 0.189930 0.946547 0.000000
O O15 0.000000 0.686247 0.250000
O O16 0.046524 0.710557 0.000000
O O17 0.820118 0.806048 0.500000
O O18 0.772498 0.810770 0.754343
O O19 0.748482 0.638385 0.000000
#
# Coordination Sequence:
#
# PCOD9496216 Si02
#       8
#    16  16   4  16  16  16  16  16
#     4   9  20  36  54  78 111 148 183 222 272 328
#     4  11  24  41  59  76 100 135 177 233 296 344
#     4  12  26  44  60  78  98 128 192 250 296 340
#     4  11  22  35  55  78 104 138 182 229 275 335
#     4  11  23  41  62  80 106 141 182 230 287 347
#     4  10  21  38  58  80 111 148 186 224 269 322
#     4  10  19  34  54  77 108 144 180 222 276 333
#     4  12  23  34  54  83 111 142 182 225 277 336
#
# _framework density 17.852799999999998
#
# number of rings (size 3 to 8) (size 9 to 14) (size 15 to 20)
#    0.000    1.379    2.069    5.172    0.966    6.621 
#    0.000    0.000    0.000    0.000    0.000    0.000 
#    0.000    0.552    0.000    5.793    0.000    3.172 
#
# Total GULP energy -323984.248821 kJ/mol
# GULP energy per Si atom -5585.935325 kJ/mol
# Density = 1.781217 g / cm^3
# Si number density = 17.852800 Si / 1000 Ang^3
#
#
#
# Elastic Constant Matrix: (Units=GPa)
#
#
# Indices 1 2 3 4 5 6 
#
# 1 145.8964 33.7131 62.5732 0.0000 0.0000 0.0000
# 2 33.7131 39.0072 28.9824 0.0000 0.0000 0.0000
# 3 62.5732 28.9824 104.7337 0.0000 0.0000 0.0000
# 4 0.0000 0.0000 0.0000 21.7708 0.0000 0.0000
# 5 0.0000 0.0000 0.0000 0.0000 24.4065 0.0000
# 6 0.0000 0.0000 0.0000 0.0000 0.0000 27.2923
#
#
#
# Elastic Compliance Matrix: (Units=1/GPa)
#
#
# Indices 1 2 3 4 5 6 
#
# 1 0.010017 -0.005300 -0.004518 0.000000 0.000000 0.000000
# 2 -0.005300 0.035076 -0.006540 0.000000 0.000000 0.000000
# 3 -0.004518 -0.006540 0.014057 0.000000 0.000000 0.000000
# 4 0.000000 0.000000 0.000000 0.045933 0.000000 0.000000
# 5 0.000000 0.000000 0.000000 0.000000 0.040973 0.000000
# 6 0.000000 0.000000 0.000000 0.000000 0.000000 0.036640
#
#
# Mechanical properties :
#
#
# Convention : Reuss Voigt Hill
#
# Bulk Modulus (GPa) = 37.82997 60.01941 48.92469
# Shear Modulus (GPa) = 22.29925 25.65184 23.97554
#
# Velocity S-wave (km/s) = 3.53804 3.79470 3.66861
# Velocity P-wave (km/s) = 6.15843 7.27266 6.73862
#
# Compressibility (1/GPa) = 0.02643407
#
# Stress axis : x y z
#
# Youngs Moduli (GPa) = 99.83488 28.50921 71.14006
#
# Poissons Ratio (x) = 0.15111 0.32138
# Poissons Ratio (y) = 0.52917 0.46524
# Poissons Ratio (z) = 0.45102 0.18644
#
# Static dielectric constant tensor:
#      x y z
#    x 1.678810 0.000000 0.000000 
#    y 0.000000 1.606460 0.000000 
#    z 0.000000 0.000000 1.602570 
# 
# From -- ./inp_files/10917.got.cif
#   From: 2010.05.17/outbox.cif.g08.bks.cpg/sg66_6_cif.got.tgz:10917.got - 2010.06.03 17:51:23.
