data_PCOD9496794
_publ_section_title
;
Structure prediction by ZEFSAII (Michael W. Deem and Ramdas Pophale) SiO2 
 PCOD9496794
Probable space group: C C C M
;
_chemical_formula_sum "Si O2"
_cell_formula_units_Z 68
_cell_length_a 16.001594
_cell_length_b 11.009035
_cell_length_c 20.480813
_cell_angle_alpha 90.000000
_cell_angle_beta 90.000000
_cell_angle_gamma 90.000000
_cell_volume 3607.943200
_symmetry_space_group_name_H-M "C C C M"
_symmetry_group_IT_number 66
_symmetry_cell_setting 'orthorhombic'
loop_
_space_group_symop_operation_xyz
x,y,z
-x,-y,z
x,-y,1/2-z
-x,y,1/2-z
-x,-y,-z
x,y,-z
-x,y,1/2+z
x,-y,1/2+z
1/2+x,1/2+y,z
1/2-x,1/2-y,z
1/2+x,1/2-y,1/2-z
1/2-x,1/2+y,1/2-z
1/2-x,1/2-y,-z
1/2+x,1/2+y,-z
1/2-x,1/2+y,1/2+z
1/2+x,1/2-y,1/2+z
loop_
_atom_site_type_symbol
_atom_site_label
_atom_site_fract_x
_atom_site_fract_y
_atom_site_fract_z
Si Si1 0.163144 0.405373 0.000000
Si Si2 0.000000 0.000000 0.750000
Si Si3 0.592891 0.640065 0.863953
Si Si4 0.577308 0.914455 0.865177
Si Si5 0.142593 0.109308 0.000000
Si Si6 0.255338 0.120527 0.212801
O O1 0.117761 0.451347 0.934635
O O2 0.152652 0.257630 0.000000
O O3 0.261549 0.436042 0.000000
O O4 0.053067 0.079641 0.800622
O O5 0.552730 0.772914 0.871220
O O6 0.593593 0.575692 0.934040
O O7 0.691695 0.646743 0.846686
O O8 0.652410 0.909998 0.812993
O O9 0.500000 0.000000 0.848179
O O10 0.250000 0.250000 0.250697
O O11 0.226795 0.000000 0.250000
#
# Coordination Sequence:
#
# PCOD9496794 Si02
#       6
#     8   4  16  16   8  16
#     4   9  15  30  58  85 112 147 186 236 289 357
#     4  12  24  38  58  80 110 150 200 238 288 342
#     4  10  21  37  58  83 115 152 195 242 290 356
#     4  10  20  33  56  89 118 143 188 247 298 344
#     4   9  16  33  60  83 108 151 198 231 287 358
#     4  10  20  36  57  83 115 158 200 244 303 359
#
# _framework density 18.847304000000001
#
# number of rings (size 3 to 8) (size 9 to 14) (size 15 to 20)
#    0.000    2.118    3.529    0.353    0.000    4.706 
#    0.000    0.000    0.000    0.000    0.000    3.294 
#    0.000    0.000    0.000    0.000    0.000    0.000 
#
# Total GULP energy -189330.315578 kJ/mol
# GULP energy per Si atom -5568.538693 kJ/mol
# Density = 1.880441 g / cm^3
# Si number density = 18.847304 Si / 1000 Ang^3
#
#
#
# Elastic Constant Matrix: (Units=GPa)
#
#
# Indices 1 2 3 4 5 6 
#
# 1 113.2555 47.0305 40.2758 0.0000 0.0000 0.0000
# 2 47.0305 88.9555 41.6419 0.0000 0.0000 0.0000
# 3 40.2758 41.6419 110.6905 0.0000 0.0000 0.0000
# 4 0.0000 0.0000 0.0000 2.7861 0.0000 0.0000
# 5 0.0000 0.0000 0.0000 0.0000 17.9006 0.0000
# 6 0.0000 0.0000 0.0000 0.0000 0.0000 30.2234
#
#
#
# Elastic Compliance Matrix: (Units=1/GPa)
#
#
# Indices 1 2 3 4 5 6 
#
# 1 0.011802 -0.005133 -0.002363 0.000000 0.000000 0.000000
# 2 -0.005133 0.015877 -0.004105 0.000000 0.000000 0.000000
# 3 -0.002363 -0.004105 0.011438 0.000000 0.000000 0.000000
# 4 0.000000 0.000000 0.000000 0.358925 0.000000 0.000000
# 5 0.000000 0.000000 0.000000 0.000000 0.055864 0.000000
# 6 0.000000 0.000000 0.000000 0.000000 0.000000 0.033087
#
#
# Mechanical properties :
#
#
# Convention : Reuss Voigt Hill
#
# Bulk Modulus (GPa) = 62.83692 63.42198 63.12945
# Shear Modulus (GPa) = 9.69930 22.44556 16.07243
#
# Velocity S-wave (km/s) = 2.27100 3.45471 2.92339
# Velocity P-wave (km/s) = 6.34736 7.04534 6.70544
#
# Compressibility (1/GPa) = 0.01591421
#
# Stress axis : x y z
#
# Youngs Moduli (GPa) = 84.73457 62.98309 87.42488
#
# Poissons Ratio (x) = 0.32331 0.20658
# Poissons Ratio (y) = 0.43497 0.35890
# Poissons Ratio (z) = 0.20022 0.25856
#
# Static dielectric constant tensor:
#      x y z
#    x 1.695260 0.000000 0.000000 
#    y 0.000000 1.700000 0.000000 
#    z 0.000000 0.000000 1.684020 
# 
# From -- ./inp_files/38360.got.cif
#   From: 2010.05.17/outbox.cif.g08.bks.cpg/sg66_20_cif.got.tgz:38360.got - 2010.06.03 17:51:23.
