data_PCOD9496105
_publ_section_title
;
Structure prediction by ZEFSAII (Michael W. Deem and Ramdas Pophale) SiO2 
 PCOD9496105
Probable space group: C C C M
;
_chemical_formula_sum "Si O2"
_cell_formula_units_Z 88
_cell_length_a 8.410814
_cell_length_b 21.468277
_cell_length_c 24.028527
_cell_angle_alpha 90.000000
_cell_angle_beta 90.000000
_cell_angle_gamma 90.000000
_cell_volume 4338.727431
_symmetry_space_group_name_H-M "C C C M"
_symmetry_group_IT_number 66
_symmetry_cell_setting 'orthorhombic'
loop_
_space_group_symop_operation_xyz
x,y,z
-x,-y,z
x,-y,1/2-z
-x,y,1/2-z
-x,-y,-z
x,y,-z
-x,y,1/2+z
x,-y,1/2+z
1/2+x,1/2+y,z
1/2-x,1/2-y,z
1/2+x,1/2-y,1/2-z
1/2-x,1/2+y,1/2-z
1/2-x,1/2-y,-z
1/2+x,1/2+y,-z
1/2-x,1/2+y,1/2+z
1/2+x,1/2-y,1/2+z
loop_
_atom_site_type_symbol
_atom_site_label
_atom_site_fract_x
_atom_site_fract_y
_atom_site_fract_z
Si Si1 0.673530 0.948328 0.129887
Si Si2 0.265402 0.000000 0.250000
Si Si3 0.325095 0.360087 0.731525
Si Si4 0.337357 0.941100 0.064687
Si Si5 0.170697 0.316034 0.840602
Si Si6 0.807120 0.684213 0.616618
O O1 0.505707 0.939647 0.098085
O O2 0.746297 0.879187 0.132477
O O3 0.654166 0.973364 0.193271
O O4 0.757144 0.003215 0.095246
O O5 0.181230 0.935828 0.230585
O O6 0.500000 0.340503 0.750000
O O7 0.197627 0.332079 0.775329
O O8 0.290103 0.333077 0.671669
O O9 0.276463 0.871883 0.074274
O O10 0.356921 0.954512 0.000000
O O11 0.250000 0.250000 0.852929
O O12 0.989845 0.313059 0.861879
O O13 0.750000 0.750000 0.594345
#
# Coordination Sequence:
#
# PCOD9496105 Si02
#       6
#    16   8  16  16  16  16
#     4   9  18  33  57  85 117 152 187 245 291 348
#     4  10  19  33  54  88 123 154 187 236 307 356
#     4  11  21  35  55  85 124 159 190 233 294 364
#     4  10  20  36  58  87 117 154 202 249 295 341
#     4  10  21  36  55  85 119 158 190 233 294 358
#     4  11  22  37  58  84 118 157 197 247 293 345
#
# _framework density 20.282446
#
# number of rings (size 3 to 8) (size 9 to 14) (size 15 to 20)
#    0.000    1.818    1.818    3.545    0.000    1.818 
#    0.000    0.000    0.000   13.636    0.000   35.636 
#    0.000    0.000    0.000    0.000    0.000    0.000 
#
# Total GULP energy -245060.473327 kJ/mol
# GULP energy per Si atom -5569.556212 kJ/mol
# Density = 2.023628 g / cm^3
# Si number density = 20.282446 Si / 1000 Ang^3
#
#
#
# Elastic Constant Matrix: (Units=GPa)
#
#
# Indices 1 2 3 4 5 6 
#
# 1 36.4270 20.3122 6.7431 0.0000 0.0000 0.0000
# 2 20.3122 203.5160 48.0991 0.0000 0.0000 0.0000
# 3 6.7431 48.0991 115.0498 0.0000 0.0000 0.0000
# 4 0.0000 0.0000 0.0000 -61.8263 0.0000 0.0000
# 5 0.0000 0.0000 0.0000 0.0000 10.4025 0.0000
# 6 0.0000 0.0000 0.0000 0.0000 0.0000 17.2797
#
#
#
# Elastic Compliance Matrix: (Units=1/GPa)
#
#
# Indices 1 2 3 4 5 6 
#
# 1 0.029101 -0.002776 -0.000545 0.000000 0.000000 0.000000
# 2 -0.002776 0.005717 -0.002227 0.000000 0.000000 0.000000
# 3 -0.000545 -0.002227 0.009655 0.000000 0.000000 0.000000
# 4 0.000000 0.000000 0.000000 -0.016174 0.000000 0.000000
# 5 0.000000 0.000000 0.000000 0.000000 0.096130 0.000000
# 6 0.000000 0.000000 0.000000 0.000000 0.000000 0.057871
#
#
# Mechanical properties :
#
#
# Convention : Reuss Voigt Hill
#
# Bulk Modulus (GPa) = 29.96130 56.14464 43.05297
# Shear Modulus (GPa) = 24.44721 11.82709 18.13715
#
# Velocity S-wave (km/s) = 3.47556 2.41741 2.99361
# Velocity P-wave (km/s) = 5.55969 5.96098 5.76383
#
# Compressibility (1/GPa) = 0.03337639
#
# Stress axis : x y z
#
# Youngs Moduli (GPa) = 34.36336 174.91442 103.57233
#
# Poissons Ratio (x) = 0.48549 0.05647
# Poissons Ratio (y) = 0.09538 0.23070
# Poissons Ratio (z) = 0.01874 0.38962
#
# Static dielectric constant tensor:
#      x y z
#    x 1.755540 0.000000 0.000000 
#    y 0.000000 1.769730 0.000000 
#    z 0.000000 0.000000 1.683340 
# 
# From -- ./inp_files/55467.got.cif
#   From: 2010.05.17/outbox.cif.g08.bks.cpg/sg66_28_cif.got.tgz:55467.got - 2010.06.03 17:51:23.
