data_PCOD9496304
_publ_section_title
;
Structure prediction by ZEFSAII (Michael W. Deem and Ramdas Pophale) SiO2 
 PCOD9496304
Probable space group: C C C M
;
_chemical_formula_sum "Si O2"
_cell_formula_units_Z 80
_cell_length_a 24.444614
_cell_length_b 8.097032
_cell_length_c 19.210532
_cell_angle_alpha 90.000000
_cell_angle_beta 90.000000
_cell_angle_gamma 90.000000
_cell_volume 3802.317965
_symmetry_space_group_name_H-M "C C C M"
_symmetry_group_IT_number 66
_symmetry_cell_setting 'orthorhombic'
loop_
_space_group_symop_operation_xyz
x,y,z
-x,-y,z
x,-y,1/2-z
-x,y,1/2-z
-x,-y,-z
x,y,-z
-x,y,1/2+z
x,-y,1/2+z
1/2+x,1/2+y,z
1/2-x,1/2-y,z
1/2+x,1/2-y,1/2-z
1/2-x,1/2+y,1/2-z
1/2-x,1/2-y,-z
1/2+x,1/2+y,-z
1/2-x,1/2+y,1/2+z
1/2+x,1/2-y,1/2+z
loop_
_atom_site_type_symbol
_atom_site_label
_atom_site_fract_x
_atom_site_fract_y
_atom_site_fract_z
Si Si1 0.207141 0.107822 0.315148
Si Si2 0.870001 0.024798 0.578538
Si Si3 0.607098 0.161366 0.783246
Si Si4 0.964294 0.828780 0.831991
Si Si5 0.441582 0.186366 0.577701
O O1 0.250000 0.250000 0.332894
O O2 0.151021 0.195118 0.289982
O O3 0.227036 0.000000 0.250000
O O4 0.187362 0.008113 0.382981
O O5 0.864173 0.088680 0.500000
O O6 0.907579 0.131285 0.629366
O O7 0.905493 0.854804 0.573167
O O8 0.556303 0.234390 0.738005
O O9 0.587952 0.096728 0.858828
O O10 0.632234 0.000000 0.750000
O O11 0.000003 0.728415 0.888297
O O12 0.000000 0.000000 0.822357
O O13 0.444524 0.116824 0.500000
#
# Coordination Sequence:
#
# PCOD9496304 Si02
#       5
#    16  16  16  16  16
#     4  11  22  39  63  87 112 150 200 253 305 354
#     4   9  18  34  58  89 118 153 199 243 292 353
#     4  11  23  38  58  86 119 158 204 248 292 353
#     4  10  19  34  59  87 121 162 201 239 288 352
#     4   9  19  33  54  83 122 160 196 238 289 349
#
# _framework density 21.039795999999999
#
# number of rings (size 3 to 8) (size 9 to 14) (size 15 to 20)
#    0.000    2.000    2.000    1.800    0.000    8.400 
#    0.000    3.000    0.000    0.600    0.000    0.000 
#    0.000    0.000    0.000    0.000    0.000    0.000 
#
# Total GULP energy -223060.036270 kJ/mol
# GULP energy per Si atom -5576.500907 kJ/mol
# Density = 2.099191 g / cm^3
# Si number density = 21.039796 Si / 1000 Ang^3
#
#
#
# Elastic Constant Matrix: (Units=GPa)
#
#
# Indices 1 2 3 4 5 6 
#
# 1 70.1364 -9.5636 28.4603 0.0000 0.0000 0.0000
# 2 -9.5636 17.1208 10.4119 0.0000 0.0000 0.0000
# 3 28.4603 10.4119 166.0638 0.0000 0.0000 0.0000
# 4 0.0000 0.0000 0.0000 12.3191 0.0000 0.0000
# 5 0.0000 0.0000 0.0000 0.0000 13.5359 0.0000
# 6 0.0000 0.0000 0.0000 0.0000 0.0000 25.2423
#
#
#
# Elastic Compliance Matrix: (Units=1/GPa)
#
#
# Indices 1 2 3 4 5 6 
#
# 1 0.017410 0.011997 -0.003736 0.000000 0.000000 0.000000
# 2 0.011997 0.068991 -0.006382 0.000000 0.000000 0.000000
# 3 -0.003736 -0.006382 0.007062 0.000000 0.000000 0.000000
# 4 0.000000 0.000000 0.000000 0.081175 0.000000 0.000000
# 5 0.000000 0.000000 0.000000 0.000000 0.073878 0.000000
# 6 0.000000 0.000000 0.000000 0.000000 0.000000 0.039616
#
#
# Mechanical properties :
#
#
# Convention : Reuss Voigt Hill
#
# Bulk Modulus (GPa) = 10.28579 34.65978 22.47279
# Shear Modulus (GPa) = 15.78383 25.15362 20.46873
#
# Velocity S-wave (km/s) = 2.74193 3.46139 3.12245
# Velocity P-wave (km/s) = 3.86311 5.69949 4.86866
#
# Compressibility (1/GPa) = 0.09722151
#
# Stress axis : x y z
#
# Youngs Moduli (GPa) = 57.43900 14.49471 141.59973
#
# Poissons Ratio (x) = -0.17389 0.52900
# Poissons Ratio (y) = -0.68909 0.90364
# Poissons Ratio (z) = 0.21459 0.09250
#
# Static dielectric constant tensor:
#      x y z
#    x 1.754130 0.000000 0.000000 
#    y 0.000000 1.792350 0.000000 
#    z 0.000000 0.000000 1.804720 
# 
# From -- ./inp_files/44096.got.cif
#   From: 2010.05.17/outbox.cif.g08.bks.cpg/sg66_23_cif.got.tgz:44096.got - 2010.06.03 17:51:23.
