data_PCOD9496600
_publ_section_title
;
Structure prediction by ZEFSAII (Michael W. Deem and Ramdas Pophale) SiO2 
 PCOD9496600
Probable space group: C C C M
;
_chemical_formula_sum "Si O2"
_cell_formula_units_Z 88
_cell_length_a 8.930935
_cell_length_b 19.396162
_cell_length_c 26.239527
_cell_angle_alpha 90.000000
_cell_angle_beta 90.000000
_cell_angle_gamma 90.000000
_cell_volume 4545.364685
_symmetry_space_group_name_H-M "C C C M"
_symmetry_group_IT_number 66
_symmetry_cell_setting 'orthorhombic'
loop_
_space_group_symop_operation_xyz
x,y,z
-x,-y,z
x,-y,1/2-z
-x,y,1/2-z
-x,-y,-z
x,y,-z
-x,y,1/2+z
x,-y,1/2+z
1/2+x,1/2+y,z
1/2-x,1/2-y,z
1/2+x,1/2-y,1/2-z
1/2-x,1/2+y,1/2-z
1/2-x,1/2-y,-z
1/2+x,1/2+y,-z
1/2-x,1/2+y,1/2+z
1/2+x,1/2-y,1/2+z
loop_
_atom_site_type_symbol
_atom_site_label
_atom_site_fract_x
_atom_site_fract_y
_atom_site_fract_z
Si Si1 0.841751 0.977442 0.597193
Si Si2 0.270621 0.667987 0.720010
Si Si3 0.750000 0.250000 0.902544
Si Si4 0.902892 0.852978 0.672533
Si Si5 0.901783 0.566891 0.150111
Si Si6 0.596113 0.117816 0.055550
O O1 0.878617 0.922800 0.641693
O O2 0.729462 0.938058 0.559657
O O3 0.749264 0.038107 0.624048
O O4 0.000000 0.000000 0.574442
O O5 0.250000 0.750000 0.714835
O O6 0.429855 0.651513 0.693775
O O7 0.290329 0.650813 0.779605
O O8 0.143876 0.621599 0.693215
O O9 0.864111 0.209097 0.865788
O O10 0.666539 0.192899 0.935876
O O11 0.000000 0.500000 0.167225
O O12 0.993230 0.602015 0.104140
O O13 0.522875 0.112308 0.000000
#
# Coordination Sequence:
#
# PCOD9496600 Si02
#       6
#    16  16   8  16  16  16
#     4  10  20  39  60  85 124 162 208 258 313 367
#     4  11  21  37  61  90 124 170 210 252 310 377
#     4  10  19  40  60  90 126 158 201 258 310 382
#     4  10  21  36  61  87 122 165 207 248 308 380
#     4  10  22  40  61  91 127 167 206 269 312 370
#     4  10  22  39  65  90 119 164 210 264 323 375
#
# _framework density 19.360382999999999
#
# number of rings (size 3 to 8) (size 9 to 14) (size 15 to 20)
#    0.000    1.818    2.727    1.364    0.000    4.364 
#    0.000    4.545    0.000    1.636    0.000    0.000 
#    0.000    0.000    0.000    0.000    0.000    0.000 
#
# Total GULP energy -245711.721959 kJ/mol
# GULP energy per Si atom -5584.357317 kJ/mol
# Density = 1.931632 g / cm^3
# Si number density = 19.360383 Si / 1000 Ang^3
#
#
#
# Elastic Constant Matrix: (Units=GPa)
#
#
# Indices 1 2 3 4 5 6 
#
# 1 61.1769 15.6472 16.6630 0.0000 0.0000 0.0000
# 2 15.6472 91.9160 33.2788 0.0000 0.0000 0.0000
# 3 16.6630 33.2788 97.9196 0.0000 0.0000 0.0000
# 4 0.0000 0.0000 0.0000 -13.2667 0.0000 0.0000
# 5 0.0000 0.0000 0.0000 0.0000 15.3411 0.0000
# 6 0.0000 0.0000 0.0000 0.0000 0.0000 21.8740
#
#
#
# Elastic Compliance Matrix: (Units=1/GPa)
#
#
# Indices 1 2 3 4 5 6 
#
# 1 0.017512 -0.002169 -0.002243 0.000000 0.000000 0.000000
# 2 -0.002169 0.012675 -0.003938 0.000000 0.000000 0.000000
# 3 -0.002243 -0.003938 0.011933 0.000000 0.000000 0.000000
# 4 0.000000 0.000000 0.000000 -0.075377 0.000000 0.000000
# 5 0.000000 0.000000 0.000000 0.000000 0.065185 0.000000
# 6 0.000000 0.000000 0.000000 0.000000 0.000000 0.045716
#
#
# Mechanical properties :
#
#
# Convention : Reuss Voigt Hill
#
# Bulk Modulus (GPa) = 39.34167 42.46562 40.90365
# Shear Modulus (GPa) = 48.63024 17.15124 32.89074
#
# Velocity S-wave (km/s) = 5.01727 2.97963 4.12620
# Velocity P-wave (km/s) = 7.34362 5.81545 6.62375
#
# Compressibility (1/GPa) = 0.02541834
#
# Stress axis : x y z
#
# Youngs Moduli (GPa) = 57.10463 78.89732 83.80367
#
# Poissons Ratio (x) = 0.17113 0.18796
# Poissons Ratio (y) = 0.12386 0.33006
# Poissons Ratio (z) = 0.12807 0.31074
#
# Static dielectric constant tensor:
#      x y z
#    x 1.696880 0.000000 0.000000 
#    y 0.000000 1.670640 0.000000 
#    z 0.000000 0.000000 1.661780 
# 
# From -- ./inp_files/55500.got.cif
#   From: 2010.05.17/outbox.cif.g08.bks.cpg/sg66_28_cif.got.tgz:55500.got - 2010.06.03 17:51:23.
