data_PCOD9496684
_publ_section_title
;
Structure prediction by ZEFSAII (Michael W. Deem and Ramdas Pophale) SiO2 
 PCOD9496684
Probable space group: C C C M
;
_chemical_formula_sum "Si O2"
_cell_formula_units_Z 96
_cell_length_a 9.698339
_cell_length_b 20.488285
_cell_length_c 26.767966
_cell_angle_alpha 90.000000
_cell_angle_beta 90.000000
_cell_angle_gamma 90.000000
_cell_volume 5318.857306
_symmetry_space_group_name_H-M "C C C M"
_symmetry_group_IT_number 66
_symmetry_cell_setting 'orthorhombic'
loop_
_space_group_symop_operation_xyz
x,y,z
-x,-y,z
x,-y,1/2-z
-x,y,1/2-z
-x,-y,-z
x,y,-z
-x,y,1/2+z
x,-y,1/2+z
1/2+x,1/2+y,z
1/2-x,1/2-y,z
1/2+x,1/2-y,1/2-z
1/2-x,1/2+y,1/2-z
1/2-x,1/2-y,-z
1/2+x,1/2+y,-z
1/2-x,1/2+y,1/2+z
1/2+x,1/2-y,1/2+z
loop_
_atom_site_type_symbol
_atom_site_label
_atom_site_fract_x
_atom_site_fract_y
_atom_site_fract_z
Si Si1 0.976950 0.792849 0.614675
Si Si2 0.995620 0.347646 0.440908
Si Si3 0.219981 0.616264 0.127595
Si Si4 0.165807 0.004229 0.191267
Si Si5 0.000937 0.695965 0.308250
Si Si6 0.255661 0.866545 0.367941
O O1 0.980505 0.726895 0.580814
O O2 0.969251 0.767949 0.671911
O O3 0.119870 0.831195 0.611466
O O4 0.844774 0.838216 0.608586
O O5 0.987512 0.345531 0.500000
O O6 0.858280 0.375524 0.414744
O O7 0.120656 0.391750 0.420124
O O8 0.276674 0.554135 0.156925
O O9 0.117768 0.651958 0.166832
O O10 0.209801 0.000000 0.250000
O O11 0.214425 0.070288 0.163986
O O12 0.000000 0.000000 0.190927
O O13 0.149401 0.676963 0.331059
O O14 0.000000 0.689380 0.250000
#
# Coordination Sequence:
#
# PCOD9496684 Si02
#       6
#    16  16  16  16  16  16
#     4  10  20  35  57  84 117 146 187 245 287 337
#     4  10  22  40  64  87 110 151 193 240 305 350
#     4  10  21  38  56  84 118 148 193 245 277 335
#     4  11  22  37  61  86 116 160 195 225 279 345
#     4  10  20  32  51  80 115 153 188 233 294 343
#     4  10  21  38  56  84 118 148 193 245 277 335
#
# _framework density 18.04899
#
# number of rings (size 3 to 8) (size 9 to 14) (size 15 to 20)
#    0.000    2.167    1.667    5.000    0.000    9.333 
#    0.000    5.833    0.000    1.000    0.000    0.000 
#    0.000    0.000    0.000    0.000    0.000    0.000 
#
# Total GULP energy -267489.701388 kJ/mol
# GULP energy per Si atom -5572.702112 kJ/mol
# Density = 1.800791 g / cm^3
# Si number density = 18.048990 Si / 1000 Ang^3
#
#
#
# Elastic Constant Matrix: (Units=GPa)
#
#
# Indices 1 2 3 4 5 6 
#
# 1 72.6276 11.4584 30.1472 0.0000 0.0000 0.0000
# 2 11.4584 56.0601 22.0631 0.0000 0.0000 0.0000
# 3 30.1472 22.0631 149.3511 0.0000 0.0000 0.0000
# 4 0.0000 0.0000 0.0000 16.0432 0.0000 0.0000
# 5 0.0000 0.0000 0.0000 0.0000 14.0793 0.0000
# 6 0.0000 0.0000 0.0000 0.0000 0.0000 15.5876
#
#
#
# Elastic Compliance Matrix: (Units=1/GPa)
#
#
# Indices 1 2 3 4 5 6 
#
# 1 0.015241 -0.002022 -0.002778 0.000000 0.000000 0.000000
# 2 -0.002022 0.019207 -0.002429 0.000000 0.000000 0.000000
# 3 -0.002778 -0.002429 0.007615 0.000000 0.000000 0.000000
# 4 0.000000 0.000000 0.000000 0.062332 0.000000 0.000000
# 5 0.000000 0.000000 0.000000 0.000000 0.071026 0.000000
# 6 0.000000 0.000000 0.000000 0.000000 0.000000 0.064153
#
#
# Mechanical properties :
#
#
# Convention : Reuss Voigt Hill
#
# Bulk Modulus (GPa) = 36.22471 45.04182 40.63326
# Shear Modulus (GPa) = 18.99445 23.43336 21.21390
#
# Velocity S-wave (km/s) = 3.24756 3.60713 3.43206
# Velocity P-wave (km/s) = 5.84603 6.50830 6.18603
#
# Compressibility (1/GPa) = 0.02760547
#
# Stress axis : x y z
#
# Youngs Moduli (GPa) = 65.61290 52.06339 131.31624
#
# Poissons Ratio (x) = 0.10527 0.36476
# Poissons Ratio (y) = 0.13267 0.31901
# Poissons Ratio (z) = 0.18226 0.12648
#
# Static dielectric constant tensor:
#      x y z
#    x 1.636880 0.000000 0.000000 
#    y 0.000000 1.640300 0.000000 
#    z 0.000000 0.000000 1.606280 
# 
# From -- ./inp_files/62569.got.cif
#   From: 2010.05.17/outbox.cif.g08.bks.cpg/sg66_32_cif.got.tgz:62569.got - 2010.06.03 17:51:23.
