data_PCOD9496388
_publ_section_title
;
Structure prediction by ZEFSAII (Michael W. Deem and Ramdas Pophale) SiO2 
 PCOD9496388
Probable space group: C C C M
;
_chemical_formula_sum "Si O2"
_cell_formula_units_Z 128
_cell_length_a 21.752156
_cell_length_b 12.132541
_cell_length_c 24.669433
_cell_angle_alpha 90.000000
_cell_angle_beta 90.000000
_cell_angle_gamma 90.000000
_cell_volume 6510.483531
_symmetry_space_group_name_H-M "C C C M"
_symmetry_group_IT_number 66
_symmetry_cell_setting 'orthorhombic'
loop_
_space_group_symop_operation_xyz
x,y,z
-x,-y,z
x,-y,1/2-z
-x,y,1/2-z
-x,-y,-z
x,y,-z
-x,y,1/2+z
x,-y,1/2+z
1/2+x,1/2+y,z
1/2-x,1/2-y,z
1/2+x,1/2-y,1/2-z
1/2-x,1/2+y,1/2-z
1/2-x,1/2-y,-z
1/2+x,1/2+y,-z
1/2-x,1/2+y,1/2+z
1/2+x,1/2-y,1/2+z
loop_
_atom_site_type_symbol
_atom_site_label
_atom_site_fract_x
_atom_site_fract_y
_atom_site_fract_z
Si Si1 0.107550 0.291917 0.939703
Si Si2 0.930566 0.837793 0.252675
Si Si3 0.651489 0.377229 0.647093
Si Si4 0.090986 0.400986 0.789425
Si Si5 0.040812 0.271759 0.436999
Si Si6 0.066111 0.063269 0.631845
Si Si7 0.763069 0.380073 0.719045
Si Si8 0.432187 0.002213 0.595496
O O1 0.139308 0.228254 0.890510
O O2 0.114669 0.424404 0.936124
O O3 0.033726 0.275746 0.932115
O O4 0.124593 0.253206 0.000000
O O5 0.886314 0.878486 0.204527
O O6 0.933356 0.709287 0.237997
O O7 0.912717 0.873977 0.312917
O O8 0.000000 0.879613 0.250000
O O9 0.619095 0.477524 0.616719
O O10 0.721218 0.385910 0.665598
O O11 0.077581 0.500000 0.750000
O O12 0.164609 0.384863 0.792531
O O13 0.064821 0.439904 0.846948
O O14 0.055914 0.286810 0.500000
O O15 0.058342 0.154289 0.413736
O O16 0.076177 0.367129 0.403052
O O17 0.000000 0.000000 0.638191
O O18 0.750036 0.500000 0.750000
O O19 0.750000 0.250000 0.740599
O O20 0.500000 0.000000 0.568694
#
# Coordination Sequence:
#
# PCOD9496388 Si02
#       8
#    16  16  16  16  16  16  16  16
#     4  10  19  35  59  87 117 157 205 248 302 365
#     4  12  22  34  55  87 123 154 190 239 304 363
#     4  12  23  39  59  86 120 166 198 251 301 356
#     4  11  24  36  58  87 120 157 199 250 298 370
#     4  10  21  37  57  84 124 162 199 248 304 373
#     4  12  23  35  54  88 124 163 200 239 301 364
#     4  11  23  43  62  85 120 164 212 249 300 367
#     4  10  20  36  56  87 120 154 198 248 315 363
#
# _framework density 19.660596999999999
#
# number of rings (size 3 to 8) (size 9 to 14) (size 15 to 20)
#    0.000    1.000    5.000    2.250    3.500    2.250 
#    0.000    0.000    0.000    4.125    0.000    0.875 
#    0.000    0.000    0.000    0.000    0.000    0.000 
#
# Total GULP energy -356502.639837 kJ/mol
# GULP energy per Si atom -5570.353747 kJ/mol
# Density = 1.961585 g / cm^3
# Si number density = 19.660597 Si / 1000 Ang^3
#
#
#
# Elastic Constant Matrix: (Units=GPa)
#
#
# Indices 1 2 3 4 5 6 
#
# 1 59.0416 22.8489 12.8888 0.0000 0.0000 0.0000
# 2 22.8489 149.9054 39.1160 0.0000 0.0000 0.0000
# 3 12.8888 39.1160 79.0918 0.0000 0.0000 0.0000
# 4 0.0000 0.0000 0.0000 23.1554 0.0000 0.0000
# 5 0.0000 0.0000 0.0000 0.0000 17.3396 0.0000
# 6 0.0000 0.0000 0.0000 0.0000 0.0000 20.8641
#
#
#
# Elastic Compliance Matrix: (Units=1/GPa)
#
#
# Indices 1 2 3 4 5 6 
#
# 1 0.018227 -0.002300 -0.001833 0.000000 0.000000 0.000000
# 2 -0.002300 0.007950 -0.003557 0.000000 0.000000 0.000000
# 3 -0.001833 -0.003557 0.014701 0.000000 0.000000 0.000000
# 4 0.000000 0.000000 0.000000 0.043187 0.000000 0.000000
# 5 0.000000 0.000000 0.000000 0.000000 0.057671 0.000000
# 6 0.000000 0.000000 0.000000 0.000000 0.000000 0.047929
#
#
# Mechanical properties :
#
#
# Convention : Reuss Voigt Hill
#
# Bulk Modulus (GPa) = 39.21721 48.63848 43.92785
# Shear Modulus (GPa) = 23.41437 26.48417 24.94927
#
# Velocity S-wave (km/s) = 3.45473 3.67422 3.56617
# Velocity P-wave (km/s) = 5.99199 6.54161 6.27282
#
# Compressibility (1/GPa) = 0.02549901
#
# Stress axis : x y z
#
# Youngs Moduli (GPa) = 54.86245 125.79349 68.02137
#
# Poissons Ratio (x) = 0.28933 0.12467
# Poissons Ratio (y) = 0.12618 0.24194
# Poissons Ratio (z) = 0.10055 0.44742
#
# Static dielectric constant tensor:
#      x y z
#    x 1.671060 0.000000 0.000000 
#    y 0.000000 1.578070 0.000000 
#    z 0.000000 0.000000 1.715060 
# 
# From -- ./inp_files/59947.got.cif
#   From: 2010.05.17/outbox.cif.g08.bks.cpg/sg66_30_cif.got.tgz:59947.got - 2010.06.03 17:51:23.
