data_PCOD9496285
_publ_section_title
;
Structure prediction by ZEFSAII (Michael W. Deem and Ramdas Pophale) SiO2 
 PCOD9496285
Probable space group: C C C M
;
_chemical_formula_sum "Si O2"
_cell_formula_units_Z 64
_cell_length_a 8.445617
_cell_length_b 14.786440
_cell_length_c 25.216312
_cell_angle_alpha 90.000000
_cell_angle_beta 90.000000
_cell_angle_gamma 90.000000
_cell_volume 3149.028400
_symmetry_space_group_name_H-M "C C C M"
_symmetry_group_IT_number 66
_symmetry_cell_setting 'orthorhombic'
loop_
_space_group_symop_operation_xyz
x,y,z
-x,-y,z
x,-y,1/2-z
-x,y,1/2-z
-x,-y,-z
x,y,-z
-x,y,1/2+z
x,-y,1/2+z
1/2+x,1/2+y,z
1/2-x,1/2-y,z
1/2+x,1/2-y,1/2-z
1/2-x,1/2+y,1/2-z
1/2-x,1/2-y,-z
1/2+x,1/2+y,-z
1/2-x,1/2+y,1/2+z
1/2+x,1/2-y,1/2+z
loop_
_atom_site_type_symbol
_atom_site_label
_atom_site_fract_x
_atom_site_fract_y
_atom_site_fract_z
Si Si1 0.059974 0.255960 0.809618
Si Si2 0.937281 0.397449 0.602285
Si Si3 0.942976 0.102684 0.609357
Si Si4 0.920402 0.903100 0.500000
Si Si5 0.613208 0.169699 0.000000
O O1 0.250000 0.250000 0.808325
O O2 0.013598 0.342983 0.844733
O O3 0.008137 0.167309 0.842487
O O4 0.000000 0.259163 0.750000
O O5 0.746219 0.396755 0.601383
O O6 0.000000 0.500000 0.602229
O O7 0.007606 0.343317 0.552017
O O8 0.020986 0.138821 0.554937
O O9 0.000000 0.000000 0.618020
O O10 0.733488 0.915346 0.500000
O O11 0.000000 0.000000 0.500000
O O12 0.750000 0.250000 0.000000
#
# Coordination Sequence:
#
# PCOD9496285 Si02
#       5
#    16  16  16   8   8
#     4  10  24  42  61  85 118 159 205 252 303 361
#     4  11  23  40  62  91 123 158 202 251 303 364
#     4  10  21  40  63  90 122 161 201 249 308 369
#     4  10  19  34  58  87 118 153 189 233 292 356
#     4  12  24  38  61  93 125 161 198 247 307 362
#
# _framework density 20.323729
#
# number of rings (size 3 to 8) (size 9 to 14) (size 15 to 20)
#    0.000    1.500    0.000    5.625    0.000    6.000 
#    0.000   10.000    0.000    0.000    0.000    0.000 
#    0.000    0.000    0.000    0.000    0.000    0.000 
#
# Total GULP energy -178718.099409 kJ/mol
# GULP energy per Si atom -5584.940607 kJ/mol
# Density = 2.027747 g / cm^3
# Si number density = 20.323729 Si / 1000 Ang^3
#
#
#
# Elastic Constant Matrix: (Units=GPa)
#
#
# Indices 1 2 3 4 5 6 
#
# 1 74.9490 30.3577 44.6826 0.0000 0.0000 0.0000
# 2 30.3577 146.2813 82.0865 0.0000 0.0000 0.0000
# 3 44.6826 82.0865 218.7511 0.0000 0.0000 0.0000
# 4 0.0000 0.0000 0.0000 25.2023 0.0000 0.0000
# 5 0.0000 0.0000 0.0000 0.0000 37.8834 0.0000
# 6 0.0000 0.0000 0.0000 0.0000 0.0000 27.0989
#
#
#
# Elastic Compliance Matrix: (Units=1/GPa)
#
#
# Indices 1 2 3 4 5 6 
#
# 1 0.015571 -0.001833 -0.002493 0.000000 0.000000 0.000000
# 2 -0.001833 0.008875 -0.002956 0.000000 0.000000 0.000000
# 3 -0.002493 -0.002956 0.006190 0.000000 0.000000 0.000000
# 4 0.000000 0.000000 0.000000 0.039679 0.000000 0.000000
# 5 0.000000 0.000000 0.000000 0.000000 0.026397 0.000000
# 6 0.000000 0.000000 0.000000 0.000000 0.000000 0.036902
#
#
# Mechanical properties :
#
#
# Convention : Reuss Voigt Hill
#
# Bulk Modulus (GPa) = 62.21631 83.80388 73.01010
# Shear Modulus (GPa) = 32.56598 36.89388 34.72993
#
# Velocity S-wave (km/s) = 4.00729 4.26527 4.13829
# Velocity P-wave (km/s) = 7.21736 8.09819 7.67043
#
# Compressibility (1/GPa) = 0.01607296
#
# Stress axis : x y z
#
# Youngs Moduli (GPa) = 64.22256 112.67218 161.55344
#
# Poissons Ratio (x) = 0.20647 0.40273
# Poissons Ratio (y) = 0.11769 0.47758
# Poissons Ratio (z) = 0.16010 0.33308
#
# Static dielectric constant tensor:
#      x y z
#    x 1.738160 0.000000 0.000000 
#    y 0.000000 1.836880 0.000000 
#    z 0.000000 0.000000 1.710110 
# 
# From -- ./inp_files/55006.got.cif
#   From: 2010.05.17/outbox.cif.g08.bks.cpg/sg66_28_cif.got.tgz:55006.got - 2010.06.03 17:51:23.
