data_PCOD9496951
_publ_section_title
;
Structure prediction by ZEFSAII (Michael W. Deem and Ramdas Pophale) SiO2 
 PCOD9496951
Probable space group: C C C M
;
_chemical_formula_sum "Si O2"
_cell_formula_units_Z 104
_cell_length_a 9.933573
_cell_length_b 19.319274
_cell_length_c 27.471553
_cell_angle_alpha 90.000000
_cell_angle_beta 90.000000
_cell_angle_gamma 90.000000
_cell_volume 5272.049764
_symmetry_space_group_name_H-M "C C C M"
_symmetry_group_IT_number 66
_symmetry_cell_setting 'orthorhombic'
loop_
_space_group_symop_operation_xyz
x,y,z
-x,-y,z
x,-y,1/2-z
-x,y,1/2-z
-x,-y,-z
x,y,-z
-x,y,1/2+z
x,-y,1/2+z
1/2+x,1/2+y,z
1/2-x,1/2-y,z
1/2+x,1/2-y,1/2-z
1/2-x,1/2+y,1/2-z
1/2-x,1/2-y,-z
1/2+x,1/2+y,-z
1/2-x,1/2+y,1/2+z
1/2+x,1/2-y,1/2+z
loop_
_atom_site_type_symbol
_atom_site_label
_atom_site_fract_x
_atom_site_fract_y
_atom_site_fract_z
Si Si1 0.382336 0.201505 0.000000
Si Si2 0.927914 0.317222 0.395599
Si Si3 0.346172 0.000073 0.192477
Si Si4 0.750000 0.250000 0.745804
Si Si5 0.180673 0.862045 0.667227
Si Si6 0.871864 0.193500 0.000000
Si Si7 0.061263 0.167792 0.394619
Si Si8 0.817878 0.346934 0.168619
O O1 0.250000 0.250000 0.000000
O O2 0.400776 0.158278 0.049361
O O3 0.501368 0.256421 0.000000
O O4 0.790133 0.326652 0.367647
O O5 0.976275 0.238262 0.399207
O O6 0.047922 0.348865 0.363799
O O7 0.254047 0.065953 0.180468
O O8 0.500000 0.000000 0.172082
O O9 0.360350 0.000000 0.250000
O O10 0.282900 0.926298 0.179717
O O11 0.830324 0.194250 0.711737
O O12 0.833714 0.300144 0.782700
O O13 0.043120 0.876634 0.637697
O O14 0.750000 0.250000 0.000000
O O15 0.885735 0.150933 0.949329
O O16 0.192936 0.180573 0.362558
#
# Coordination Sequence:
#
# PCOD9496951 Si02
#       8
#     8  16  16   8  16   8  16  16
#     4  10  20  34  60  93 130 160 202 272 334 373
#     4  11  20  38  62  94 124 164 211 263 319 380
#     4  11  24  43  63  88 124 181 220 251 308 385
#     4  12  24  40  62  98 126 170 204 266 318 362
#     4  12  24  39  64  92 133 166 211 263 318 376
#     4  10  20  38  64  93 132 168 204 262 330 391
#     4  11  22  38  62  98 126 160 210 269 325 372
#     4  12  24  39  64  92 131 166 212 261 310 380
#
# _framework density 19.726672000000001
#
# number of rings (size 3 to 8) (size 9 to 14) (size 15 to 20)
#    0.000    0.769    6.154    3.692    0.000    3.077 
#    0.000    0.769    0.000    5.538    0.000    0.000 
#    0.000    0.000    0.000    0.000    0.000    0.000 
#
# Total GULP energy -289640.480249 kJ/mol
# GULP energy per Si atom -5570.009236 kJ/mol
# Density = 1.968177 g / cm^3
# Si number density = 19.726672 Si / 1000 Ang^3
#
#
#
# Elastic Constant Matrix: (Units=GPa)
#
#
# Indices 1 2 3 4 5 6 
#
# 1 124.4651 18.0995 51.4126 0.0000 0.0000 0.0000
# 2 18.0995 102.8098 38.6377 0.0000 0.0000 0.0000
# 3 51.4126 38.6377 148.5690 0.0000 0.0000 0.0000
# 4 0.0000 0.0000 0.0000 3.1195 0.0000 0.0000
# 5 0.0000 0.0000 0.0000 0.0000 16.9637 0.0000
# 6 0.0000 0.0000 0.0000 0.0000 0.0000 24.3688
#
#
#
# Elastic Compliance Matrix: (Units=1/GPa)
#
#
# Indices 1 2 3 4 5 6 
#
# 1 0.009396 -0.000479 -0.003127 0.000000 0.000000 0.000000
# 2 -0.000479 0.010805 -0.002644 0.000000 0.000000 0.000000
# 3 -0.003127 -0.002644 0.008501 0.000000 0.000000 0.000000
# 4 0.000000 0.000000 0.000000 0.320561 0.000000 0.000000
# 5 0.000000 0.000000 0.000000 0.000000 0.058949 0.000000
# 6 0.000000 0.000000 0.000000 0.000000 0.000000 0.041036
#
#
# Mechanical properties :
#
#
# Convention : Reuss Voigt Hill
#
# Bulk Modulus (GPa) = 61.72459 65.79371 63.75915
# Shear Modulus (GPa) = 10.70325 26.73668 18.71996
#
# Velocity S-wave (km/s) = 2.33186 3.68551 3.08387
# Velocity P-wave (km/s) = 6.21353 7.17884 6.71356
#
# Compressibility (1/GPa) = 0.01620100
#
# Stress axis : x y z
#
# Youngs Moduli (GPa) = 106.43258 92.55182 117.63902
#
# Poissons Ratio (x) = 0.04433 0.36783
# Poissons Ratio (y) = 0.05098 0.31106
# Poissons Ratio (z) = 0.33279 0.24472
#
# Static dielectric constant tensor:
#      x y z
#    x 1.769610 0.000000 0.000000 
#    y 0.000000 0.997800 0.000000 
#    z 0.000000 0.000000 1.816810 
# 
# From -- ./inp_files/62738.got.cif
#   From: 2010.05.17/outbox.cif.g08.bks.cpg/sg66_32_cif.got.tgz:62738.got - 2010.06.03 17:51:23.
