data_PCOD9496854
_publ_section_title
;
Structure prediction by ZEFSAII (Michael W. Deem and Ramdas Pophale) SiO2 
 PCOD9496854
Probable space group: C C C M
;
_chemical_formula_sum "Si O2"
_cell_formula_units_Z 116
_cell_length_a 23.258130
_cell_length_b 30.258441
_cell_length_c 8.726595
_cell_angle_alpha 90.000000
_cell_angle_beta 90.000000
_cell_angle_gamma 90.000000
_cell_volume 6141.382721
_symmetry_space_group_name_H-M "C C C M"
_symmetry_group_IT_number 66
_symmetry_cell_setting 'orthorhombic'
loop_
_space_group_symop_operation_xyz
x,y,z
-x,-y,z
x,-y,1/2-z
-x,y,1/2-z
-x,-y,-z
x,y,-z
-x,y,1/2+z
x,-y,1/2+z
1/2+x,1/2+y,z
1/2-x,1/2-y,z
1/2+x,1/2-y,1/2-z
1/2-x,1/2+y,1/2-z
1/2-x,1/2-y,-z
1/2+x,1/2+y,-z
1/2-x,1/2+y,1/2+z
1/2+x,1/2-y,1/2+z
loop_
_atom_site_type_symbol
_atom_site_label
_atom_site_fract_x
_atom_site_fract_y
_atom_site_fract_z
Si Si1 0.558918 0.852387 0.182176
Si Si2 0.585945 0.760077 0.671878
Si Si3 0.229764 0.046377 0.682508
Si Si4 0.437152 0.665261 0.317070
Si Si5 0.313713 0.880871 0.682082
Si Si6 0.783501 0.291157 0.825867
Si Si7 0.603931 0.431834 0.685095
Si Si8 0.000000 0.000000 0.750000
O O1 0.500000 0.871682 0.250000
O O2 0.561023 0.800921 0.232295
O O3 0.619237 0.875132 0.232190
O O4 0.557057 0.854701 0.000000
O O5 0.560379 0.758882 0.500000
O O6 0.582148 0.711878 0.746023
O O7 0.651998 0.773841 0.659697
O O8 0.276234 0.082656 0.732872
O O9 0.166383 0.054494 0.753602
O O10 0.250219 0.000000 0.750000
O O11 0.224494 0.954982 0.000000
O O12 0.500000 0.657135 0.250000
O O13 0.438653 0.669747 0.500000
O O14 0.402626 0.620458 0.280453
O O15 0.312662 0.888489 0.500000
O O16 0.284020 0.834327 0.723495
O O17 0.750000 0.250000 0.757584
O O18 0.761868 0.300587 0.000000
O O19 0.600705 0.437958 0.500000
O O20 0.551537 0.461234 0.753505
#
# Coordination Sequence:
#
# PCOD9496854 Si02
#       8
#    16  16  16  16  16  16  16   4
#     4  10  20  36  61  91 124 163 202 247 297 357
#     4  10  20  34  53  79 116 158 201 247 294 353
#     4  12  26  44  68  93 122 159 202 252 310 369
#     4  11  23  38  54  79 113 149 194 245 301 358
#     4  10  22  40  62  91 125 160 203 251 306 368
#     4   9  19  35  54  81 115 157 204 249 299 356
#     4  11  25  42  63  90 118 154 201 256 313 371
#     4  12  22  44  72  90 118 156 204 264 318 372
#
# _framework density 18.888255000000001
#
# number of rings (size 3 to 8) (size 9 to 14) (size 15 to 20)
#    0.000    1.517    1.379    3.517    1.931    4.138 
#    0.000    0.000    0.000    0.414    0.000    2.897 
#    0.000    0.000    0.000    0.000    0.000    0.000 
#
# Total GULP energy -323169.456859 kJ/mol
# GULP energy per Si atom -5571.887187 kJ/mol
# Density = 1.884526 g / cm^3
# Si number density = 18.888255 Si / 1000 Ang^3
#
#
#
# Elastic Constant Matrix: (Units=GPa)
#
#
# Indices 1 2 3 4 5 6 
#
# 1 -55.4684 -53.8025 -279.1059 0.0000 0.0000 0.0000
# 2 -53.8025 2.1074 -210.2547 0.0000 0.0000 0.0000
# 3 -279.1059 -210.2547 -555.0281 0.0000 0.0000 0.0000
# 4 0.0000 0.0000 0.0000 30.4467 0.0000 0.0000
# 5 0.0000 0.0000 0.0000 0.0000 43.6998 0.0000
# 6 0.0000 0.0000 0.0000 0.0000 0.0000 -7.7659
#
#
#
# Elastic Compliance Matrix: (Units=1/GPa)
#
#
# Indices 1 2 3 4 5 6 
#
# 1 0.019267 -0.012237 -0.005053 0.000000 0.000000 0.000000
# 2 -0.012237 0.020004 -0.001424 0.000000 0.000000 0.000000
# 3 -0.005053 -0.001424 0.001279 0.000000 0.000000 0.000000
# 4 0.000000 0.000000 0.000000 0.032844 0.000000 0.000000
# 5 0.000000 0.000000 0.000000 0.000000 0.022883 0.000000
# 6 0.000000 0.000000 0.000000 0.000000 0.000000 -0.128769
#
#
# Mechanical properties :
#
#
# Convention : Reuss Voigt Hill
#
# Bulk Modulus (GPa) = 320.43105 -188.30170 66.06468
# Shear Modulus (GPa) = 836.38047 8.92775 422.65411
#
# Velocity S-wave (km/s) = 21.06575 2.17644 14.97502
# Velocity P-wave (km/s) = 27.59894 9.67435 18.27715
#
# Compressibility (1/GPa) = 0.00312080
#
# Stress axis : x y z
#
# Youngs Moduli (GPa) = 51.90268 49.98922 782.03130
#
# Poissons Ratio (x) = 0.61174 3.95152
# Poissons Ratio (y) = 0.63516 1.11373
# Poissons Ratio (z) = 0.26226 0.07119
#
# Static dielectric constant tensor:
#      x y z
#    x 1.676920 0.000000 0.000000 
#    y 0.000000 1.696090 0.000000 
#    z 0.000000 0.000000 1.669830 
# 
# From -- ./inp_files/9427.got.cif
#   From: 2010.05.17/outbox.cif.g08.bks.cpg/sg66_5_cif.got.tgz:9427.got - 2010.06.03 17:51:23.
