data_PCOD9496991
_publ_section_title
;
Structure prediction by ZEFSAII (Michael W. Deem and Ramdas Pophale) SiO2 
 PCOD9496991
Probable space group: C C C M
;
_chemical_formula_sum "Si O2"
_cell_formula_units_Z 116
_cell_length_a 26.519919
_cell_length_b 26.997084
_cell_length_c 9.265919
_cell_angle_alpha 90.000000
_cell_angle_beta 90.000000
_cell_angle_gamma 90.000000
_cell_volume 6634.031823
_symmetry_space_group_name_H-M "C C C M"
_symmetry_group_IT_number 66
_symmetry_cell_setting 'orthorhombic'
loop_
_space_group_symop_operation_xyz
x,y,z
-x,-y,z
x,-y,1/2-z
-x,y,1/2-z
-x,-y,-z
x,y,-z
-x,y,1/2+z
x,-y,1/2+z
1/2+x,1/2+y,z
1/2-x,1/2-y,z
1/2+x,1/2-y,1/2-z
1/2-x,1/2+y,1/2-z
1/2-x,1/2-y,-z
1/2+x,1/2+y,-z
1/2-x,1/2+y,1/2+z
1/2+x,1/2-y,1/2+z
loop_
_atom_site_type_symbol
_atom_site_label
_atom_site_fract_x
_atom_site_fract_y
_atom_site_fract_z
Si Si1 0.314791 0.071651 0.165327
Si Si2 0.587557 0.928478 0.338322
Si Si3 0.553332 0.815022 0.328158
Si Si4 0.820324 0.842333 0.329530
Si Si5 0.368647 0.256742 0.830712
Si Si6 0.278189 0.181853 0.837786
Si Si7 0.288235 0.547990 0.171781
Si Si8 0.000000 0.500000 0.250000
O O1 0.368874 0.056810 0.226945
O O2 0.311005 0.131563 0.167609
O O3 0.267929 0.054700 0.262444
O O4 0.308147 0.055138 0.000000
O O5 0.609084 0.930322 0.500000
O O6 0.571460 0.871862 0.307717
O O7 0.538556 0.963394 0.331332
O O8 0.500000 0.809639 0.250000
O O9 0.549491 0.806777 0.500000
O O10 0.591866 0.776629 0.256231
O O11 0.827094 0.835087 0.500000
O O12 0.860191 0.810252 0.240221
O O13 0.765211 0.823140 0.279588
O O14 0.818073 0.901040 0.298003
O O15 0.315330 0.227605 0.819438
O O16 0.381604 0.259479 0.000000
O O17 0.255340 0.183790 0.000000
O O18 0.310487 0.500000 0.250000
O O19 0.285511 0.541512 0.000000
#
# Coordination Sequence:
#
# PCOD9496991 Si02
#       8
#    16  16  16  16  16  16  16   4
#     4  10  20  35  55  75 101 136 177 223 273 327
#     4  11  24  40  57  75  98 131 177 233 289 337
#     4  11  23  40  60  80 104 138 180 228 282 337
#     4  10  21  34  51  79 111 142 178 221 264 320
#     4  11  21  35  55  80 108 141 177 219 272 330
#     4   9  18  32  50  75 105 140 175 214 264 324
#     4  10  21  37  55  77 108 144 183 221 264 314
#     4  12  26  44  56  74  98 136 184 242 296 336
#
# _framework density 17.485596999999999
#
# number of rings (size 3 to 8) (size 9 to 14) (size 15 to 20)
#    0.000    1.655    2.069    2.690    0.966    6.621 
#    0.000    0.000    0.000    0.000    0.000    0.000 
#    0.000    0.552    0.000    5.793    0.000    3.172 
#
# Total GULP energy -323935.857310 kJ/mol
# GULP energy per Si atom -5585.100988 kJ/mol
# Density = 1.744580 g / cm^3
# Si number density = 17.485597 Si / 1000 Ang^3
#
#
#
# Elastic Constant Matrix: (Units=GPa)
#
#
# Indices 1 2 3 4 5 6 
#
# 1 42.3186 38.6242 38.6413 0.0000 0.0000 0.0000
# 2 38.6242 128.7642 74.4891 0.0000 0.0000 0.0000
# 3 38.6413 74.4891 109.7453 0.0000 0.0000 0.0000
# 4 0.0000 0.0000 0.0000 16.5991 0.0000 0.0000
# 5 0.0000 0.0000 0.0000 0.0000 26.1727 0.0000
# 6 0.0000 0.0000 0.0000 0.0000 0.0000 24.9616
#
#
#
# Elastic Compliance Matrix: (Units=1/GPa)
#
#
# Indices 1 2 3 4 5 6 
#
# 1 0.037386 -0.005926 -0.009141 0.000000 0.000000 0.000000
# 2 -0.005926 0.013726 -0.007230 0.000000 0.000000 0.000000
# 3 -0.009141 -0.007230 0.017238 0.000000 0.000000 0.000000
# 4 0.000000 0.000000 0.000000 0.060244 0.000000 0.000000
# 5 0.000000 0.000000 0.000000 0.000000 0.038208 0.000000
# 6 0.000000 0.000000 0.000000 0.000000 0.000000 0.040061
#
#
# Mechanical properties :
#
#
# Convention : Reuss Voigt Hill
#
# Bulk Modulus (GPa) = 42.09581 64.92637 53.51109
# Shear Modulus (GPa) = 19.27695 22.15159 20.71427
#
# Velocity S-wave (km/s) = 3.32391 3.56314 3.44561
# Velocity P-wave (km/s) = 6.23362 7.35798 6.81902
#
# Compressibility (1/GPa) = 0.02375534
#
# Stress axis : x y z
#
# Youngs Moduli (GPa) = 26.74798 72.85303 58.01142
#
# Poissons Ratio (x) = 0.43174 0.53030
# Poissons Ratio (y) = 0.15851 0.41942
# Poissons Ratio (z) = 0.24451 0.52673
#
# Static dielectric constant tensor:
#      x y z
#    x 1.566010 0.000000 0.000000 
#    y 0.000000 1.645240 0.000000 
#    z 0.000000 0.000000 1.596870 
# 
# From -- ./inp_files/9408.got.cif
#   From: 2010.05.17/outbox.cif.g08.bks.cpg/sg66_5_cif.got.tgz:9408.got - 2010.06.03 17:51:23.
