data_PCOD9496884
_publ_section_title
;
Structure prediction by ZEFSAII (Michael W. Deem and Ramdas Pophale) SiO2 
 PCOD9496884
Probable space group: C C C M
;
_chemical_formula_sum "Si O2"
_cell_formula_units_Z 92
_cell_length_a 19.531782
_cell_length_b 16.128641
_cell_length_c 14.161867
_cell_angle_alpha 90.000000
_cell_angle_beta 90.000000
_cell_angle_gamma 90.000000
_cell_volume 4461.286920
_symmetry_space_group_name_H-M "C C C M"
_symmetry_group_IT_number 66
_symmetry_cell_setting 'orthorhombic'
loop_
_space_group_symop_operation_xyz
x,y,z
-x,-y,z
x,-y,1/2-z
-x,y,1/2-z
-x,-y,-z
x,y,-z
-x,y,1/2+z
x,-y,1/2+z
1/2+x,1/2+y,z
1/2-x,1/2-y,z
1/2+x,1/2-y,1/2-z
1/2-x,1/2+y,1/2-z
1/2-x,1/2-y,-z
1/2+x,1/2+y,-z
1/2-x,1/2+y,1/2+z
1/2+x,1/2-y,1/2+z
loop_
_atom_site_type_symbol
_atom_site_label
_atom_site_fract_x
_atom_site_fract_y
_atom_site_fract_z
Si Si1 0.105118 0.593041 0.607145
Si Si2 0.493147 0.594416 0.891825
Si Si3 0.785780 0.458212 0.848337
Si Si4 0.000000 0.500000 0.750000
Si Si5 0.363165 0.199896 0.272578
Si Si6 0.836220 0.153380 0.103274
Si Si7 0.000000 0.774644 0.250000
O O1 0.080447 0.608286 0.500000
O O2 0.166979 0.526693 0.603057
O O3 0.133768 0.673924 0.662553
O O4 0.048718 0.553340 0.679095
O O5 0.500000 0.500000 0.859809
O O6 0.412776 0.617680 0.888311
O O7 0.530463 0.661949 0.827057
O O8 0.516527 0.599252 0.000000
O O9 0.764397 0.500000 0.750000
O O10 0.833913 0.379468 0.825891
O O11 0.718633 0.419944 0.894337
O O12 0.325492 0.281600 0.311704
O O13 0.442202 0.219122 0.296938
O O14 0.831302 0.195856 0.000000
#
# Coordination Sequence:
#
# PCOD9496884 Si02
#       7
#    16  16  16   4  16  16   8
#     4  11  23  40  64  90 122 162 205 257 311 369
#     4   9  19  36  57  84 114 144 192 248 294 354
#     4  10  21  38  59  86 124 158 204 253 303 364
#     4  12  20  44  60  96 112 156 210 260 298 366
#     4  10  21  37  55  86 122 151 194 249 299 366
#     4  10  21  37  61  91 119 159 204 251 313 372
#     4  10  20  34  55  77 114 152 186 232 294 354
#
# _framework density 20.621850999999999
#
# number of rings (size 3 to 8) (size 9 to 14) (size 15 to 20)
#    0.000    1.913    2.609    2.087    0.000    5.565 
#    0.000    1.739    0.000    9.391    0.000    0.000 
#    0.000    0.000    0.000    0.000    0.000    0.000 
#
# Total GULP energy -256447.031863 kJ/mol
# GULP energy per Si atom -5574.935475 kJ/mol
# Density = 2.057492 g / cm^3
# Si number density = 20.621851 Si / 1000 Ang^3
#
#
#
# Elastic Constant Matrix: (Units=GPa)
#
#
# Indices 1 2 3 4 5 6 
#
# 1 53.4501 16.6394 16.1534 0.0000 0.0000 0.0000
# 2 16.6394 96.8397 41.5779 0.0000 0.0000 0.0000
# 3 16.1534 41.5779 141.6376 0.0000 0.0000 0.0000
# 4 0.0000 0.0000 0.0000 -10.3285 0.0000 0.0000
# 5 0.0000 0.0000 0.0000 0.0000 10.7640 0.0000
# 6 0.0000 0.0000 0.0000 0.0000 0.0000 24.4858
#
#
#
# Elastic Compliance Matrix: (Units=1/GPa)
#
#
# Indices 1 2 3 4 5 6 
#
# 1 0.020026 -0.002815 -0.001458 0.000000 0.000000 0.000000
# 2 -0.002815 0.012211 -0.003264 0.000000 0.000000 0.000000
# 3 -0.001458 -0.003264 0.008185 0.000000 0.000000 0.000000
# 4 0.000000 0.000000 0.000000 -0.096819 0.000000 0.000000
# 5 0.000000 0.000000 0.000000 0.000000 0.092902 0.000000
# 6 0.000000 0.000000 0.000000 0.000000 0.000000 0.040840
#
#
# Mechanical properties :
#
#
# Convention : Reuss Voigt Hill
#
# Bulk Modulus (GPa) = 39.44899 48.96322 44.20610
# Shear Modulus (GPa) = 49.57055 19.48805 34.52930
#
# Velocity S-wave (km/s) = 4.90816 3.07745 4.09639
# Velocity P-wave (km/s) = 7.16180 6.03511 6.62246
#
# Compressibility (1/GPa) = 0.02534919
#
# Stress axis : x y z
#
# Youngs Moduli (GPa) = 49.93537 81.89164 122.18187
#
# Poissons Ratio (x) = 0.23054 0.17808
# Poissons Ratio (y) = 0.14058 0.39875
# Poissons Ratio (z) = 0.07278 0.26726
#
# Static dielectric constant tensor:
#      x y z
#    x 1.756930 0.000000 0.000000 
#    y 0.000000 1.747800 0.000000 
#    z 0.000000 0.000000 1.801940 
# 
# From -- ./inp_files/31236.got.cif
#   From: 2010.05.17/outbox.cif.g08.bks.cpg/sg66_16_cif.got.tgz:31236.got - 2010.06.03 17:51:23.
