data_PCOD9496183
_publ_section_title
;
Structure prediction by ZEFSAII (Michael W. Deem and Ramdas Pophale) SiO2 
 PCOD9496183
Probable space group: C C C M
;
_chemical_formula_sum "Si O2"
_cell_formula_units_Z 96
_cell_length_a 16.492908
_cell_length_b 14.139668
_cell_length_c 20.456306
_cell_angle_alpha 90.000000
_cell_angle_beta 90.000000
_cell_angle_gamma 90.000000
_cell_volume 4770.497365
_symmetry_space_group_name_H-M "C C C M"
_symmetry_group_IT_number 66
_symmetry_cell_setting 'orthorhombic'
loop_
_space_group_symop_operation_xyz
x,y,z
-x,-y,z
x,-y,1/2-z
-x,y,1/2-z
-x,-y,-z
x,y,-z
-x,y,1/2+z
x,-y,1/2+z
1/2+x,1/2+y,z
1/2-x,1/2-y,z
1/2+x,1/2-y,1/2-z
1/2-x,1/2+y,1/2-z
1/2-x,1/2-y,-z
1/2+x,1/2+y,-z
1/2-x,1/2+y,1/2+z
1/2+x,1/2-y,1/2+z
loop_
_atom_site_type_symbol
_atom_site_label
_atom_site_fract_x
_atom_site_fract_y
_atom_site_fract_z
Si Si1 0.952924 0.771255 0.631424
Si Si2 0.111360 0.138445 0.187897
Si Si3 0.497794 0.830349 0.500000
Si Si4 0.828743 0.600606 0.500000
Si Si5 0.250000 0.250000 0.113851
Si Si6 0.812677 0.614644 0.000000
Si Si7 0.347229 0.568179 0.166399
Si Si8 0.304692 0.837792 0.144306
O O1 0.990642 0.732530 0.564719
O O2 0.888700 0.855995 0.618194
O O3 0.897010 0.687624 0.662796
O O4 0.025406 0.813314 0.674181
O O5 0.179573 0.207658 0.159273
O O6 0.125757 0.108356 0.262833
O O7 0.119660 0.035940 0.153353
O O8 0.573059 0.902745 0.500000
O O9 0.409562 0.874605 0.500000
O O10 0.792255 0.495907 0.500000
O O11 0.805818 0.654443 0.434114
O O12 0.219893 0.332103 0.064453
O O13 0.249123 0.572847 0.166131
O O14 0.250000 0.750000 0.167197
#
# Coordination Sequence:
#
# PCOD9496183 Si02
#       8
#    16  16   8   8   8   8  16  16
#     4  10  20  37  59  84 118 148 193 240 292 348
#     4  11  22  39  59  85 117 155 196 242 291 352
#     4  10  20  38  55  87 115 153 192 240 297 352
#     4  10  19  33  62  81 117 154 197 239 290 350
#     4  11  24  36  62  82 120 157 196 240 300 351
#     4  11  21  39  54  85 116 158 197 240 290 361
#     4  10  22  38  60  86 116 152 197 243 292 348
#     4   9  19  35  57  87 116 149 193 242 291 349
#
# _framework density 20.123687
#
# number of rings (size 3 to 8) (size 9 to 14) (size 15 to 20)
#    0.000    1.833    1.667    2.500    3.500    3.333 
#    0.000    3.333    0.000    0.000    0.000    2.333 
#    0.000    0.000    0.000    0.000    0.000    0.000 
#
# Total GULP energy -267634.555556 kJ/mol
# GULP energy per Si atom -5575.719907 kJ/mol
# Density = 2.007788 g / cm^3
# Si number density = 20.123687 Si / 1000 Ang^3
#
#
#
# Elastic Constant Matrix: (Units=GPa)
#
#
# Indices 1 2 3 4 5 6 
#
# 1 135.6303 29.8456 27.4519 0.0000 0.0000 0.0000
# 2 29.8456 80.4691 17.1279 0.0000 0.0000 0.0000
# 3 27.4519 17.1279 42.4010 0.0000 0.0000 0.0000
# 4 0.0000 0.0000 0.0000 19.7088 0.0000 0.0000
# 5 0.0000 0.0000 0.0000 0.0000 27.9963 0.0000
# 6 0.0000 0.0000 0.0000 0.0000 0.0000 17.9322
#
#
#
# Elastic Compliance Matrix: (Units=1/GPa)
#
#
# Indices 1 2 3 4 5 6 
#
# 1 0.008844 -0.002255 -0.004815 0.000000 0.000000 0.000000
# 2 -0.002255 0.014171 -0.004264 0.000000 0.000000 0.000000
# 3 -0.004815 -0.004264 0.028424 0.000000 0.000000 0.000000
# 4 0.000000 0.000000 0.000000 0.050739 0.000000 0.000000
# 5 0.000000 0.000000 0.000000 0.000000 0.035719 0.000000
# 6 0.000000 0.000000 0.000000 0.000000 0.000000 0.055766
#
#
# Mechanical properties :
#
#
# Convention : Reuss Voigt Hill
#
# Bulk Modulus (GPa) = 34.75786 45.26124 40.00955
# Shear Modulus (GPa) = 22.13157 25.39912 23.76534
#
# Velocity S-wave (km/s) = 3.31989 3.55653 3.44024
# Velocity P-wave (km/s) = 5.65731 6.27738 5.97540
#
# Compressibility (1/GPa) = 0.02877047
#
# Stress axis : x y z
#
# Youngs Moduli (GPa) = 113.07386 70.56529 35.18132
#
# Poissons Ratio (x) = 0.15915 0.16939
# Poissons Ratio (y) = 0.25501 0.15003
# Poissons Ratio (z) = 0.54442 0.30091
#
# Static dielectric constant tensor:
#      x y z
#    x 1.757320 0.000000 0.000000 
#    y 0.000000 1.753040 0.000000 
#    z 0.000000 0.000000 1.716070 
# 
# From -- ./inp_files/49962.got.cif
#   From: 2010.05.17/outbox.cif.g08.bks.cpg/sg66_25_cif.got.tgz:49962.got - 2010.06.03 17:51:23.
