data_PCOD9496620
_publ_section_title
;
Structure prediction by ZEFSAII (Michael W. Deem and Ramdas Pophale) SiO2 
 PCOD9496620
Probable space group: C C C M
;
_chemical_formula_sum "Si O2"
_cell_formula_units_Z 80
_cell_length_a 24.947392
_cell_length_b 10.273505
_cell_length_c 17.489676
_cell_angle_alpha 90.000000
_cell_angle_beta 90.000000
_cell_angle_gamma 90.000000
_cell_volume 4482.554226
_symmetry_space_group_name_H-M "C C C M"
_symmetry_group_IT_number 66
_symmetry_cell_setting 'orthorhombic'
loop_
_space_group_symop_operation_xyz
x,y,z
-x,-y,z
x,-y,1/2-z
-x,y,1/2-z
-x,-y,-z
x,y,-z
-x,y,1/2+z
x,-y,1/2+z
1/2+x,1/2+y,z
1/2-x,1/2-y,z
1/2+x,1/2-y,1/2-z
1/2-x,1/2+y,1/2-z
1/2-x,1/2-y,-z
1/2+x,1/2+y,-z
1/2-x,1/2+y,1/2+z
1/2+x,1/2-y,1/2+z
loop_
_atom_site_type_symbol
_atom_site_label
_atom_site_fract_x
_atom_site_fract_y
_atom_site_fract_z
Si Si1 0.553422 0.828720 0.198905
Si Si2 0.606348 0.378691 0.195711
Si Si3 0.686714 0.750108 0.588697
Si Si4 0.980433 0.195652 0.913100
Si Si5 0.404074 0.952001 0.913344
O O1 0.500000 0.856324 0.250000
O O2 0.592987 0.749678 0.253920
O O3 0.533566 0.731233 0.132466
O O4 0.578457 0.950754 0.153960
O O5 0.612702 0.500000 0.250000
O O6 0.657562 0.349681 0.144317
O O7 0.556031 0.397450 0.138547
O O8 0.677070 0.714149 0.500000
O O9 0.750000 0.750000 0.601702
O O10 0.654340 0.886539 0.598570
O O11 0.945759 0.330979 0.914508
O O12 0.988028 0.154459 0.000000
O O13 0.406360 0.009754 0.000000
#
# Coordination Sequence:
#
# PCOD9496620 Si02
#       5
#    16  16  16  16  16
#     4  10  20  30  48  79 115 142 168 215 274 311
#     4  10  21  36  49  73 109 140 175 222 262 310
#     4   9  19  38  60  76  94 134 183 222 268 328
#     4   9  18  32  51  72 102 146 182 205 249 319
#     4   9  17  31  51  76 105 133 172 221 263 313
#
# _framework density 17.846969000000001
#
# number of rings (size 3 to 8) (size 9 to 14) (size 15 to 20)
#    0.000    2.600    0.000    3.000    0.000   16.400 
#    3.600    5.000    0.000    0.000    0.000    4.200 
#    0.000    0.000    0.000    0.000    0.000    0.000 
#
# Total GULP energy -223159.073374 kJ/mol
# GULP energy per Si atom -5578.976834 kJ/mol
# Density = 1.780635 g / cm^3
# Si number density = 17.846969 Si / 1000 Ang^3
#
#
#
# Elastic Constant Matrix: (Units=GPa)
#
#
# Indices 1 2 3 4 5 6 
#
# 1 80.5281 27.7350 60.9155 0.0000 0.0000 0.0000
# 2 27.7350 70.2430 53.8942 0.0000 0.0000 0.0000
# 3 60.9155 53.8942 144.2439 0.0000 0.0000 0.0000
# 4 0.0000 0.0000 0.0000 20.9293 0.0000 0.0000
# 5 0.0000 0.0000 0.0000 0.0000 29.7925 0.0000
# 6 0.0000 0.0000 0.0000 0.0000 0.0000 10.6712
#
#
#
# Elastic Compliance Matrix: (Units=1/GPa)
#
#
# Indices 1 2 3 4 5 6 
#
# 1 0.018413 -0.001828 -0.007093 0.000000 0.000000 0.000000
# 2 -0.001828 0.020139 -0.006753 0.000000 0.000000 0.000000
# 3 -0.007093 -0.006753 0.012451 0.000000 0.000000 0.000000
# 4 0.000000 0.000000 0.000000 0.047780 0.000000 0.000000
# 5 0.000000 0.000000 0.000000 0.000000 0.033566 0.000000
# 6 0.000000 0.000000 0.000000 0.000000 0.000000 0.093710
#
#
# Mechanical properties :
#
#
# Convention : Reuss Voigt Hill
#
# Bulk Modulus (GPa) = 50.87535 64.45603 57.66569
# Shear Modulus (GPa) = 18.94241 22.44329 20.69285
#
# Velocity S-wave (km/s) = 3.26142 3.55003 3.40878
# Velocity P-wave (km/s) = 6.53841 7.27997 6.91913
#
# Compressibility (1/GPa) = 0.01965589
#
# Stress axis : x y z
#
# Youngs Moduli (GPa) = 54.30907 49.65477 80.31432
#
# Poissons Ratio (x) = 0.09078 0.56967
# Poissons Ratio (y) = 0.09929 0.54233
# Poissons Ratio (z) = 0.38521 0.33530
#
# Static dielectric constant tensor:
#      x y z
#    x 1.595850 0.000000 0.000000 
#    y 0.000000 1.641700 0.000000 
#    z 0.000000 0.000000 1.646420 
# 
# From -- ./inp_files/44071.got.cif
#   From: 2010.05.17/outbox.cif.g08.bks.cpg/sg66_23_cif.got.tgz:44071.got - 2010.06.03 17:51:23.
