data_PCOD9496425
_publ_section_title
;
Structure prediction by ZEFSAII (Michael W. Deem and Ramdas Pophale) SiO2 
 PCOD9496425
Probable space group: C C C M
;
_chemical_formula_sum "Si O2"
_cell_formula_units_Z 68
_cell_length_a 9.813539
_cell_length_b 17.280300
_cell_length_c 19.150419
_cell_angle_alpha 90.000000
_cell_angle_beta 90.000000
_cell_angle_gamma 90.000000
_cell_volume 3247.545251
_symmetry_space_group_name_H-M "C C C M"
_symmetry_group_IT_number 66
_symmetry_cell_setting 'orthorhombic'
loop_
_space_group_symop_operation_xyz
x,y,z
-x,-y,z
x,-y,1/2-z
-x,y,1/2-z
-x,-y,-z
x,y,-z
-x,y,1/2+z
x,-y,1/2+z
1/2+x,1/2+y,z
1/2-x,1/2-y,z
1/2+x,1/2-y,1/2-z
1/2-x,1/2+y,1/2-z
1/2-x,1/2-y,-z
1/2+x,1/2+y,-z
1/2-x,1/2+y,1/2+z
1/2+x,1/2-y,1/2+z
loop_
_atom_site_type_symbol
_atom_site_label
_atom_site_fract_x
_atom_site_fract_y
_atom_site_fract_z
Si Si1 0.500000 0.000000 0.750000
Si Si2 0.921635 0.836169 0.414806
Si Si3 0.561952 0.178899 0.580229
Si Si4 0.694566 0.581987 0.916159
Si Si5 0.668606 0.076958 0.868931
O O1 0.596631 0.054283 0.796790
O O2 0.895730 0.835357 0.500000
O O3 0.784217 0.857872 0.375145
O O4 0.985824 0.754408 0.391958
O O5 0.038883 0.899229 0.399164
O O6 0.590631 0.199570 0.500000
O O7 0.703433 0.148801 0.611686
O O8 0.456611 0.107588 0.584340
O O9 0.755486 0.500378 0.893933
O O10 0.701845 0.584494 0.000000
#
# Coordination Sequence:
#
# PCOD9496425 Si02
#       5
#     4  16  16  16  16
#     4  12  28  44  60  76 112 176 232 270 284 328
#     4  10  21  36  63 103 131 146 180 248 327 387
#     4  10  19  35  64  98 127 154 183 238 319 380
#     4  10  19  35  62  97 129 155 182 236 316 382
#     4  12  22  40  61  79 121 160 217 254 286 346
#
# _framework density 20.938894000000001
#
# number of rings (size 3 to 8) (size 9 to 14) (size 15 to 20)
#    0.000    1.412    2.353    4.235    0.000    8.471 
#    0.000    2.353   10.353    0.000    0.000    0.000 
#    0.000    0.000    0.000    0.000    0.000    0.000 
#
# Total GULP energy -189750.774839 kJ/mol
# GULP energy per Si atom -5580.905142 kJ/mol
# Density = 2.089124 g / cm^3
# Si number density = 20.938894 Si / 1000 Ang^3
#
#
#
# Elastic Constant Matrix: (Units=GPa)
#
#
# Indices 1 2 3 4 5 6 
#
# 1 124.7273 12.1320 27.5450 0.0000 0.0000 0.0000
# 2 12.1320 63.7875 10.7411 0.0000 0.0000 0.0000
# 3 27.5450 10.7411 30.0221 0.0000 0.0000 0.0000
# 4 0.0000 0.0000 0.0000 3.3066 0.0000 0.0000
# 5 0.0000 0.0000 0.0000 0.0000 17.8472 0.0000
# 6 0.0000 0.0000 0.0000 0.0000 0.0000 40.2355
#
#
#
# Elastic Compliance Matrix: (Units=1/GPa)
#
#
# Indices 1 2 3 4 5 6 
#
# 1 0.010064 -0.000382 -0.009096 0.000000 0.000000 0.000000
# 2 -0.000382 0.016697 -0.005623 0.000000 0.000000 0.000000
# 3 -0.009096 -0.005623 0.043666 0.000000 0.000000 0.000000
# 4 0.000000 0.000000 0.000000 0.302422 0.000000 0.000000
# 5 0.000000 0.000000 0.000000 0.000000 0.056031 0.000000
# 6 0.000000 0.000000 0.000000 0.000000 0.000000 0.024854
#
#
# Mechanical properties :
#
#
# Convention : Reuss Voigt Hill
#
# Bulk Modulus (GPa) = 24.86116 35.48591 30.17353
# Shear Modulus (GPa) = 10.05339 23.48577 16.76958
#
# Velocity S-wave (km/s) = 2.19356 3.35271 2.83306
# Velocity P-wave (km/s) = 4.27956 5.65436 5.01430
#
# Compressibility (1/GPa) = 0.04022339
#
# Stress axis : x y z
#
# Youngs Moduli (GPa) = 99.36850 59.89244 22.90085
#
# Poissons Ratio (x) = 0.02290 0.20832
# Poissons Ratio (y) = 0.03799 0.12877
# Poissons Ratio (z) = 0.90390 0.33677
#
# Static dielectric constant tensor:
#      x y z
#    x 1.784740 0.000000 0.000000 
#    y 0.000000 1.812880 0.000000 
#    z 0.000000 0.000000 1.730580 
# 
# From -- ./inp_files/42516.got.cif
#   From: 2010.05.17/outbox.cif.g08.bks.cpg/sg66_22_cif.got.tgz:42516.got - 2010.06.03 17:51:23.
