data_PCOD9496972
_publ_section_title
;
Structure prediction by ZEFSAII (Michael W. Deem and Ramdas Pophale) SiO2 
 PCOD9496972
Probable space group: C C C M
;
_chemical_formula_sum "Si O2"
_cell_formula_units_Z 80
_cell_length_a 24.548641
_cell_length_b 10.515361
_cell_length_c 14.652827
_cell_angle_alpha 90.000000
_cell_angle_beta 90.000000
_cell_angle_gamma 90.000000
_cell_volume 3782.448850
_symmetry_space_group_name_H-M "C C C M"
_symmetry_group_IT_number 66
_symmetry_cell_setting 'orthorhombic'
loop_
_space_group_symop_operation_xyz
x,y,z
-x,-y,z
x,-y,1/2-z
-x,y,1/2-z
-x,-y,-z
x,y,-z
-x,y,1/2+z
x,-y,1/2+z
1/2+x,1/2+y,z
1/2-x,1/2-y,z
1/2+x,1/2-y,1/2-z
1/2-x,1/2+y,1/2-z
1/2-x,1/2-y,-z
1/2+x,1/2+y,-z
1/2-x,1/2+y,1/2+z
1/2+x,1/2-y,1/2+z
loop_
_atom_site_type_symbol
_atom_site_label
_atom_site_fract_x
_atom_site_fract_y
_atom_site_fract_z
Si Si1 0.752251 0.887857 0.104195
Si Si2 0.627825 0.463262 0.645716
Si Si3 0.797374 0.350772 0.887905
Si Si4 0.981408 0.141841 0.610620
Si Si5 0.910061 0.242097 0.103748
O O1 0.750000 0.750000 0.150182
O O2 0.815480 0.924537 0.103026
O O3 0.720064 0.008612 0.142228
O O4 0.731779 0.872874 0.000000
O O5 0.637165 0.500000 0.750000
O O6 0.581386 0.355109 0.639727
O O7 0.606550 0.592983 0.599880
O O8 0.750000 0.250000 0.863599
O O9 0.857412 0.310493 0.854218
O O10 0.798836 0.348786 0.000000
O O11 0.982276 0.146074 0.500000
O O12 0.028750 0.237035 0.644228
O O13 0.000000 0.000000 0.639905
O O14 0.915295 0.290776 0.000000
#
# Coordination Sequence:
#
# PCOD9496972 Si02
#       5
#    16  16  16  16  16
#     4  10  20  35  53  73 102 142 184 221 264 317
#     4  11  20  30  45  73 103 137 170 216 268 317
#     4   9  15  27  52  76  95 126 169 214 257 303
#     4   8  15  27  46  70  99 129 162 210 261 308
#     4   9  16  29  50  75  98 129 172 212 258 309
#
# _framework density 21.150319
#
# number of rings (size 3 to 8) (size 9 to 14) (size 15 to 20)
#    0.000    2.600    2.000    3.000    0.000    3.600 
#    3.600    0.000    0.000    1.200    0.000    7.000 
#    0.000    9.600    0.000    0.600    0.000    0.000 
#
# Total GULP energy -222895.670383 kJ/mol
# GULP energy per Si atom -5572.391760 kJ/mol
# Density = 2.110218 g / cm^3
# Si number density = 21.150319 Si / 1000 Ang^3
#
#
#
# Elastic Constant Matrix: (Units=GPa)
#
#
# Indices 1 2 3 4 5 6 
#
# 1 142.0070 59.2157 -6.9808 0.0000 0.0000 0.0000
# 2 59.2157 106.8444 -0.3367 0.0000 0.0000 0.0000
# 3 -6.9808 -0.3367 66.6873 0.0000 0.0000 0.0000
# 4 0.0000 0.0000 0.0000 -4.1960 0.0000 0.0000
# 5 0.0000 0.0000 0.0000 0.0000 -21.5274 0.0000
# 6 0.0000 0.0000 0.0000 0.0000 0.0000 36.4519
#
#
#
# Elastic Compliance Matrix: (Units=1/GPa)
#
#
# Indices 1 2 3 4 5 6 
#
# 1 0.009217 -0.005105 0.000939 0.000000 0.000000 0.000000
# 2 -0.005105 0.012187 -0.000473 0.000000 0.000000 0.000000
# 3 0.000939 -0.000473 0.015091 0.000000 0.000000 0.000000
# 4 0.000000 0.000000 0.000000 -0.238324 0.000000 0.000000
# 5 0.000000 0.000000 0.000000 0.000000 -0.046452 0.000000
# 6 0.000000 0.000000 0.000000 0.000000 0.000000 0.027433
#
#
# Mechanical properties :
#
#
# Convention : Reuss Voigt Hill
#
# Bulk Modulus (GPa) = 36.74128 46.59278 41.66703
# Shear Modulus (GPa) = -24.69172 19.72175 -2.48498
#
# Velocity S-wave (km/s) = -3.42049 3.05693 -1.08511
# Velocity P-wave (km/s) = 1.34520 5.87681 4.26301
#
# Compressibility (1/GPa) = 0.02721734
#
# Stress axis : x y z
#
# Youngs Moduli (GPa) = 108.49608 82.05214 66.26351
#
# Poissons Ratio (x) = 0.41890 -0.06222
# Poissons Ratio (y) = 0.55390 0.03133
# Poissons Ratio (z) = -0.10188 0.03880
#
# Static dielectric constant tensor:
#      x y z
#    x 1.793880 0.000000 0.000000 
#    y 0.000000 1.758650 0.000000 
#    z 0.000000 0.000000 1.812740 
# 
# From -- ./inp_files/32101.got.cif
#   From: 2010.05.17/outbox.cif.g08.bks.cpg/sg66_17_cif.got.tgz:32101.got - 2010.06.03 17:51:23.
