data_PCOD9496085
_publ_section_title
;
Structure prediction by ZEFSAII (Michael W. Deem and Ramdas Pophale) SiO2 
 PCOD9496085
Probable space group: C C C M
;
_chemical_formula_sum "Si O2"
_cell_formula_units_Z 96
_cell_length_a 10.325567
_cell_length_b 21.910927
_cell_length_c 22.233655
_cell_angle_alpha 90.000000
_cell_angle_beta 90.000000
_cell_angle_gamma 90.000000
_cell_volume 5030.203133
_symmetry_space_group_name_H-M "C C C M"
_symmetry_group_IT_number 66
_symmetry_cell_setting 'orthorhombic'
loop_
_space_group_symop_operation_xyz
x,y,z
-x,-y,z
x,-y,1/2-z
-x,y,1/2-z
-x,-y,-z
x,y,-z
-x,y,1/2+z
x,-y,1/2+z
1/2+x,1/2+y,z
1/2-x,1/2-y,z
1/2+x,1/2-y,1/2-z
1/2-x,1/2+y,1/2-z
1/2-x,1/2-y,-z
1/2+x,1/2+y,-z
1/2-x,1/2+y,1/2+z
1/2+x,1/2-y,1/2+z
loop_
_atom_site_type_symbol
_atom_site_label
_atom_site_fract_x
_atom_site_fract_y
_atom_site_fract_z
Si Si1 0.145632 0.981104 0.837072
Si Si2 0.738398 0.390737 0.646078
Si Si3 0.623498 0.793729 0.928364
Si Si4 0.121761 0.782487 0.110641
Si Si5 0.351261 0.642181 0.769763
Si Si6 0.978732 0.094404 0.067083
O O1 0.188528 0.921927 0.800341
O O2 0.113027 0.956945 0.904097
O O3 0.243668 0.037607 0.836220
O O4 0.000000 0.000000 0.815388
O O5 0.840840 0.357817 0.603226
O O6 0.726137 0.351817 0.707540
O O7 0.601832 0.392939 0.609949
O O8 0.750000 0.750000 0.921716
O O9 0.502455 0.760972 0.896517
O O10 0.599718 0.800149 0.000000
O O11 0.250000 0.750000 0.089075
O O12 0.148406 0.806588 0.178741
O O13 0.096019 0.842138 0.071111
O O14 0.500000 0.635626 0.750000
O O15 0.020137 0.080238 0.000000
#
# Coordination Sequence:
#
# PCOD9496085 Si02
#       6
#    16  16  16  16  16  16
#     4   9  18  29  52  83 120 148 188 234 298 353
#     4  11  20  32  55  86 117 152 185 236 305 361
#     4  11  22  39  58  82 119 155 193 246 302 355
#     4  11  24  39  58  83 112 158 205 248 296 359
#     4  11  18  34  56  85 118 152 195 246 298 354
#     4  10  19  33  53  80 113 148 192 241 283 342
#
# _framework density 19.084717000000001
#
# number of rings (size 3 to 8) (size 9 to 14) (size 15 to 20)
#    0.000    1.500    6.667    1.500    0.000    7.000 
#    0.000    0.000    0.000    4.000    0.000   10.500 
#    0.000    0.000    0.000    0.000    0.000    0.000 
#
# Total GULP energy -267628.142200 kJ/mol
# GULP energy per Si atom -5575.586296 kJ/mol
# Density = 1.904128 g / cm^3
# Si number density = 19.084717 Si / 1000 Ang^3
#
#
#
# Elastic Constant Matrix: (Units=GPa)
#
#
# Indices 1 2 3 4 5 6 
#
# 1 53.7880 36.8991 13.7244 0.0000 0.0000 0.0000
# 2 36.8991 89.8706 23.7058 0.0000 0.0000 0.0000
# 3 13.7244 23.7058 123.9362 0.0000 0.0000 0.0000
# 4 0.0000 0.0000 0.0000 9.9423 0.0000 0.0000
# 5 0.0000 0.0000 0.0000 0.0000 -4.4295 0.0000
# 6 0.0000 0.0000 0.0000 0.0000 0.0000 17.0098
#
#
#
# Elastic Compliance Matrix: (Units=1/GPa)
#
#
# Indices 1 2 3 4 5 6 
#
# 1 0.025972 -0.010431 -0.000881 0.000000 0.000000 0.000000
# 2 -0.010431 0.015908 -0.001888 0.000000 0.000000 0.000000
# 3 -0.000881 -0.001888 0.008527 0.000000 0.000000 0.000000
# 4 0.000000 0.000000 0.000000 0.100580 0.000000 0.000000
# 5 0.000000 0.000000 0.000000 0.000000 -0.225757 0.000000
# 6 0.000000 0.000000 0.000000 0.000000 0.000000 0.058790
#
#
# Mechanical properties :
#
#
# Convention : Reuss Voigt Hill
#
# Bulk Modulus (GPa) = 41.65315 46.25036 43.95176
# Shear Modulus (GPa) = 271.39949 17.38888 144.39419
#
# Velocity S-wave (km/s) = 11.93803 3.02179 8.70769
# Velocity P-wave (km/s) = 14.55661 6.03836 11.14353
#
# Compressibility (1/GPa) = 0.02400779
#
# Stress axis : x y z
#
# Youngs Moduli (GPa) = 38.50263 62.86175 117.27083
#
# Poissons Ratio (x) = 0.65573 0.10330
# Poissons Ratio (y) = 0.40163 0.22136
# Poissons Ratio (z) = 0.03392 0.11866
#
# Static dielectric constant tensor:
#      x y z
#    x 1.619850 0.000000 0.000000 
#    y 0.000000 1.731510 0.000000 
#    z 0.000000 0.000000 1.721970 
# 
# From -- ./inp_files/55668.got.cif
#   From: 2010.05.17/outbox.cif.g08.bks.cpg/sg66_28_cif.got.tgz:55668.got - 2010.06.03 17:51:23.
