data_PCOD9496056
_publ_section_title
;
Structure prediction by ZEFSAII (Michael W. Deem and Ramdas Pophale) SiO2 
 PCOD9496056
Probable space group: C C C M
;
_chemical_formula_sum "Si O2"
_cell_formula_units_Z 120
_cell_length_a 9.209855
_cell_length_b 29.399614
_cell_length_c 25.415813
_cell_angle_alpha 90.000000
_cell_angle_beta 90.000000
_cell_angle_gamma 90.000000
_cell_volume 6881.742648
_symmetry_space_group_name_H-M "C C C M"
_symmetry_group_IT_number 66
_symmetry_cell_setting 'orthorhombic'
loop_
_space_group_symop_operation_xyz
x,y,z
-x,-y,z
x,-y,1/2-z
-x,y,1/2-z
-x,-y,-z
x,y,-z
-x,y,1/2+z
x,-y,1/2+z
1/2+x,1/2+y,z
1/2-x,1/2-y,z
1/2+x,1/2-y,1/2-z
1/2-x,1/2+y,1/2-z
1/2-x,1/2-y,-z
1/2+x,1/2+y,-z
1/2-x,1/2+y,1/2+z
1/2+x,1/2-y,1/2+z
loop_
_atom_site_type_symbol
_atom_site_label
_atom_site_fract_x
_atom_site_fract_y
_atom_site_fract_z
Si Si1 0.250000 0.750000 0.250085
Si Si2 0.271672 0.699877 0.648174
Si Si3 0.366571 0.895042 0.641084
Si Si4 0.069014 0.183122 0.696148
Si Si5 0.211881 0.388059 0.345413
Si Si6 0.867383 0.938007 0.437791
Si Si7 0.296213 0.457159 0.937986
Si Si8 0.676087 0.052412 0.253099
O O1 0.216565 0.709509 0.291416
O O2 0.121457 0.767130 0.214052
O O3 0.250000 0.750000 0.622718
O O4 0.196079 0.654768 0.628056
O O5 0.440895 0.688340 0.654618
O O6 0.538580 0.887959 0.647859
O O7 0.321374 0.930723 0.596198
O O8 0.298559 0.917516 0.694393
O O9 0.208105 0.157262 0.674224
O O10 0.000000 0.162103 0.750000
O O11 0.286359 0.404220 0.399054
O O12 0.239173 0.423296 0.298033
O O13 0.848310 0.928577 0.500000
O O14 0.040446 0.938961 0.427008
O O15 0.805424 0.988825 0.427632
O O16 0.268803 0.451215 0.000000
O O17 0.500000 0.051355 0.250000
O O18 0.725318 0.000000 0.250000
#
# Coordination Sequence:
#
# PCOD9496056 Si02
#       8
#     8  16  16  16  16  16  16  16
#     4   8  18  30  52  72 100 136 184 224 266 312
#     4   9  20  33  50  71 103 143 176 223 275 322
#     4  11  21  34  52  80 112 145 186 230 271 335
#     4  10  19  33  50  74 106 142 178 229 265 328
#     4  11  22  31  53  81 111 145 183 228 278 319
#     4   9  19  37  57  82 109 143 186 231 274 326
#     4   9  19  37  61  80 107 146 187 228 276 331
#     4   9  18  31  45  69 110 149 175 207 263 324
#
# _framework density 17.437443999999999
#
# number of rings (size 3 to 8) (size 9 to 14) (size 15 to 20)
#    0.400    2.000    0.000    4.000    1.867    2.133 
#    0.000    1.333    0.000    3.600    0.000    0.467 
#    0.000    0.000    0.000    0.000    0.000    0.000 
#
# Total GULP energy -334011.078248 kJ/mol
# GULP energy per Si atom -5566.851304 kJ/mol
# Density = 1.739776 g / cm^3
# Si number density = 17.437444 Si / 1000 Ang^3
#
#
#
# Elastic Constant Matrix: (Units=GPa)
#
#
# Indices 1 2 3 4 5 6 
#
# 1 68.9613 26.8682 22.6200 0.0000 0.0000 0.0000
# 2 26.8682 58.7919 12.6661 0.0000 0.0000 0.0000
# 3 22.6200 12.6661 36.4424 0.0000 0.0000 0.0000
# 4 0.0000 0.0000 0.0000 10.5052 0.0000 0.0000
# 5 0.0000 0.0000 0.0000 0.0000 22.7556 0.0000
# 6 0.0000 0.0000 0.0000 0.0000 0.0000 28.7427
#
#
#
# Elastic Compliance Matrix: (Units=1/GPa)
#
#
# Indices 1 2 3 4 5 6 
#
# 1 0.020713 -0.007238 -0.010341 0.000000 0.000000 0.000000
# 2 -0.007238 0.020915 -0.002777 0.000000 0.000000 0.000000
# 3 -0.010341 -0.002777 0.034824 0.000000 0.000000 0.000000
# 4 0.000000 0.000000 0.000000 0.095191 0.000000 0.000000
# 5 0.000000 0.000000 0.000000 0.000000 0.043945 0.000000
# 6 0.000000 0.000000 0.000000 0.000000 0.000000 0.034791
#
#
# Mechanical properties :
#
#
# Convention : Reuss Voigt Hill
#
# Bulk Modulus (GPa) = 27.97902 32.05602 30.01752
# Shear Modulus (GPa) = 16.50137 19.20345 17.85241
#
# Velocity S-wave (km/s) = 3.07957 3.32215 3.20315
# Velocity P-wave (km/s) = 5.35959 5.75664 5.56166
#
# Compressibility (1/GPa) = 0.03574107
#
# Stress axis : x y z
#
# Youngs Moduli (GPa) = 48.27922 47.81223 28.71558
#
# Poissons Ratio (x) = 0.34607 0.29695
# Poissons Ratio (y) = 0.34945 0.07973
# Poissons Ratio (z) = 0.49925 0.13276
#
# Static dielectric constant tensor:
#      x y z
#    x 1.621210 0.000000 0.000000 
#    y 0.000000 1.599080 0.000000 
#    z 0.000000 0.000000 1.588280 
# 
# From -- ./inp_files/62962.got.cif
#   From: 2010.05.17/outbox.cif.g08.bks.cpg/sg66_32_cif.got.tgz:62962.got - 2010.06.03 17:51:23.
