data_PCOD9496028
_publ_section_title
;
Structure prediction by ZEFSAII (Michael W. Deem and Ramdas Pophale) SiO2 
 PCOD9496028
Probable space group: C C C M
;
_chemical_formula_sum "Si O2"
_cell_formula_units_Z 60
_cell_length_a 11.867227
_cell_length_b 21.090155
_cell_length_c 13.988025
_cell_angle_alpha 90.000000
_cell_angle_beta 90.000000
_cell_angle_gamma 90.000000
_cell_volume 3500.946073
_symmetry_space_group_name_H-M "C C C M"
_symmetry_group_IT_number 66
_symmetry_cell_setting 'orthorhombic'
loop_
_space_group_symop_operation_xyz
x,y,z
-x,-y,z
x,-y,1/2-z
-x,y,1/2-z
-x,-y,-z
x,y,-z
-x,y,1/2+z
x,-y,1/2+z
1/2+x,1/2+y,z
1/2-x,1/2-y,z
1/2+x,1/2-y,1/2-z
1/2-x,1/2+y,1/2-z
1/2-x,1/2-y,-z
1/2+x,1/2+y,-z
1/2-x,1/2+y,1/2+z
1/2+x,1/2-y,1/2+z
loop_
_atom_site_type_symbol
_atom_site_label
_atom_site_fract_x
_atom_site_fract_y
_atom_site_fract_z
Si Si1 0.314983 0.445674 0.112481
Si Si2 0.683166 0.185390 0.611723
Si Si3 0.388651 0.043859 0.391350
Si Si4 0.000000 0.000000 0.750000
Si Si5 0.500000 0.139875 0.750000
O O1 0.259432 0.376965 0.128693
O O2 0.218537 0.499249 0.128503
O O3 0.418947 0.459016 0.181627
O O4 0.346766 0.449348 0.000000
O O5 0.650727 0.183392 0.500000
O O6 0.750000 0.250000 0.629527
O O7 0.574307 0.179826 0.677301
O O8 0.377152 0.069394 0.500000
O O9 0.415299 0.096169 0.312298
O O10 0.500000 0.000000 0.390983
#
# Coordination Sequence:
#
# PCOD9496028 Si02
#       5
#    16  16  16   4   8
#     4  10  21  36  53  78 109 141 177 218 271 325
#     4  10  22  38  54  76 108 145 182 222 267 318
#     4  10  19  32  55  88 115 130 163 230 295 328
#     4  12  22  34  54  76 108 148 178 216 256 326
#     4  12  19  31  60  85 108 135 180 226 272 331
#
# _framework density 17.138224000000001
#
# number of rings (size 3 to 8) (size 9 to 14) (size 15 to 20)
#    0.000    1.600    2.667    3.200    0.000    1.067 
#    0.000    0.000    0.000    3.200    0.000    0.000 
#    0.000    0.000    0.000    0.000    0.000    0.000 
#
# Total GULP energy -167532.050081 kJ/mol
# GULP energy per Si atom -5584.401669 kJ/mol
# Density = 1.709922 g / cm^3
# Si number density = 17.138224 Si / 1000 Ang^3
#
#
#
# Elastic Constant Matrix: (Units=GPa)
#
#
# Indices 1 2 3 4 5 6 
#
# 1 117.8598 56.9491 83.4983 0.0000 0.0000 0.0000
# 2 56.9491 89.2863 74.2913 0.0000 0.0000 0.0000
# 3 83.4983 74.2913 121.2739 0.0000 0.0000 0.0000
# 4 0.0000 0.0000 0.0000 -5.1848 0.0000 0.0000
# 5 0.0000 0.0000 0.0000 0.0000 41.3274 0.0000
# 6 0.0000 0.0000 0.0000 0.0000 0.0000 11.3488
#
#
#
# Elastic Compliance Matrix: (Units=1/GPa)
#
#
# Indices 1 2 3 4 5 6 
#
# 1 0.016778 -0.002223 -0.010190 0.000000 0.000000 0.000000
# 2 -0.002223 0.023138 -0.012644 0.000000 0.000000 0.000000
# 3 -0.010190 -0.012644 0.023007 0.000000 0.000000 0.000000
# 4 0.000000 0.000000 0.000000 -0.192873 0.000000 0.000000
# 5 0.000000 0.000000 0.000000 0.000000 0.024197 0.000000
# 6 0.000000 0.000000 0.000000 0.000000 0.000000 0.088115
#
#
# Mechanical properties :
#
#
# Convention : Reuss Voigt Hill
#
# Bulk Modulus (GPa) = 78.06425 84.21084 81.13755
# Shear Modulus (GPa) = 136.07398 17.07706 76.57552
#
# Velocity S-wave (km/s) = 8.92022 3.16005 6.69165
# Velocity P-wave (km/s) = 12.31838 7.90933 10.35133
#
# Compressibility (1/GPa) = 0.01280996
#
# Stress axis : x y z
#
# Youngs Moduli (GPa) = 59.60233 43.21916 43.46433
#
# Poissons Ratio (x) = 0.09605 0.44291
# Poissons Ratio (y) = 0.13247 0.54956
# Poissons Ratio (z) = 0.60736 0.54646
#
# Static dielectric constant tensor:
#      x y z
#    x 1.557220 0.000000 0.000000 
#    y 0.000000 1.557790 0.000000 
#    z 0.000000 0.000000 1.614790 
# 
# From -- ./inp_files/26014.got.cif
#   From: 2010.05.17/outbox.cif.g08.bks.cpg/sg66_14_cif.got.tgz:26014.got - 2010.06.03 17:51:23.
