data_PCOD9496413
_publ_section_title
;
Structure prediction by ZEFSAII (Michael W. Deem and Ramdas Pophale) SiO2 
 PCOD9496413
Probable space group: C C C M
;
_chemical_formula_sum "Si O2"
_cell_formula_units_Z 96
_cell_length_a 11.196020
_cell_length_b 24.297208
_cell_length_c 17.644818
_cell_angle_alpha 90.000000
_cell_angle_beta 90.000000
_cell_angle_gamma 90.000000
_cell_volume 4799.955602
_symmetry_space_group_name_H-M "C C C M"
_symmetry_group_IT_number 66
_symmetry_cell_setting 'orthorhombic'
loop_
_space_group_symop_operation_xyz
x,y,z
-x,-y,z
x,-y,1/2-z
-x,y,1/2-z
-x,-y,-z
x,y,-z
-x,y,1/2+z
x,-y,1/2+z
1/2+x,1/2+y,z
1/2-x,1/2-y,z
1/2+x,1/2-y,1/2-z
1/2-x,1/2+y,1/2-z
1/2-x,1/2-y,-z
1/2+x,1/2+y,-z
1/2-x,1/2+y,1/2+z
1/2+x,1/2-y,1/2+z
loop_
_atom_site_type_symbol
_atom_site_label
_atom_site_fract_x
_atom_site_fract_y
_atom_site_fract_z
Si Si1 0.743110 0.931861 0.413681
Si Si2 0.116770 0.729499 0.349118
Si Si3 0.865679 0.893121 0.732900
Si Si4 0.673918 0.036571 0.676989
Si Si5 0.870350 0.231667 0.186059
Si Si6 0.486322 0.116107 0.912055
O O1 0.783608 0.929997 0.500000
O O2 0.835529 0.913480 0.350919
O O3 0.628942 0.890958 0.405829
O O4 0.709326 0.993818 0.388904
O O5 0.250000 0.750000 0.373786
O O6 0.124724 0.725871 0.257279
O O7 0.074435 0.673333 0.388079
O O8 0.996392 0.767110 0.358055
O O9 0.776641 0.921659 0.792891
O O10 0.857309 0.827243 0.726784
O O11 0.000000 0.909218 0.750000
O O12 0.566289 0.071530 0.644876
O O13 0.644687 0.000000 0.750000
O O14 0.750000 0.250000 0.142709
O O15 0.456774 0.104370 0.000000
#
# Coordination Sequence:
#
# PCOD9496413 Si02
#       6
#    16  16  16  16  16  16
#     4  10  23  42  62  88 124 166 206 255 320 386
#     4  10  20  35  59  90 123 160 209 255 312 374
#     4  11  22  40  63  91 123 162 211 268 314 370
#     4  10  22  37  63  92 120 157 213 265 317 371
#     4  10  19  35  61  89 123 160 208 266 311 368
#     4  11  23  39  60  90 132 167 202 257 323 386
#
# _framework density 20.000184000000001
#
# number of rings (size 3 to 8) (size 9 to 14) (size 15 to 20)
#    0.000    1.667    1.667    4.000    0.000   13.333 
#    0.000    3.333    0.000    3.000    0.000    0.000 
#    0.000    0.000    0.000    0.000    0.000    0.000 
#
# Total GULP energy -267597.329957 kJ/mol
# GULP energy per Si atom -5574.944374 kJ/mol
# Density = 1.995466 g / cm^3
# Si number density = 20.000184 Si / 1000 Ang^3
#
#
#
# Elastic Constant Matrix: (Units=GPa)
#
#
# Indices 1 2 3 4 5 6 
#
# 1 140.2862 39.9253 33.3983 0.0000 0.0000 0.0000
# 2 39.9253 64.8696 12.4619 0.0000 0.0000 0.0000
# 3 33.3983 12.4619 61.5423 0.0000 0.0000 0.0000
# 4 0.0000 0.0000 0.0000 -0.2721 0.0000 0.0000
# 5 0.0000 0.0000 0.0000 0.0000 12.9468 0.0000
# 6 0.0000 0.0000 0.0000 0.0000 0.0000 12.1337
#
#
#
# Elastic Compliance Matrix: (Units=1/GPa)
#
#
# Indices 1 2 3 4 5 6 
#
# 1 0.009567 -0.005089 -0.004162 0.000000 0.000000 0.000000
# 2 -0.005089 0.018746 -0.001034 0.000000 0.000000 0.000000
# 3 -0.004162 -0.001034 0.018717 0.000000 0.000000 0.000000
# 4 0.000000 0.000000 0.000000 -3.674459 0.000000 0.000000
# 5 0.000000 0.000000 0.000000 0.000000 0.077239 0.000000
# 6 0.000000 0.000000 0.000000 0.000000 0.000000 0.082415
#
#
# Mechanical properties :
#
#
# Convention : Reuss Voigt Hill
#
# Bulk Modulus (GPa) = 37.79167 48.69656 43.24412
# Shear Modulus (GPa) = -1.45417 17.02251 7.78417
#
# Velocity S-wave (km/s) = -0.85361 2.92056 1.97497
# Velocity P-wave (km/s) = 4.23853 5.98112 5.18358
#
# Compressibility (1/GPa) = 0.02646086
#
# Stress axis : x y z
#
# Youngs Moduli (GPa) = 104.52213 53.34377 53.42765
#
# Poissons Ratio (x) = 0.27146 0.22235
# Poissons Ratio (y) = 0.53191 0.05526
# Poissons Ratio (z) = 0.43498 0.05517
#
# Static dielectric constant tensor:
#      x y z
#    x 1.776560 0.000000 0.000000 
#    y 0.000000 1.783820 0.000000 
#    z 0.000000 0.000000 1.679520 
# 
# From -- ./inp_files/38877.got.cif
#   From: 2010.05.17/outbox.cif.g08.bks.cpg/sg66_20_cif.got.tgz:38877.got - 2010.06.03 17:51:23.
