data_PCOD9496711
_publ_section_title
;
Structure prediction by ZEFSAII (Michael W. Deem and Ramdas Pophale) SiO2 
 PCOD9496711
Probable space group: C C C M
;
_chemical_formula_sum "Si O2"
_cell_formula_units_Z 96
_cell_length_a 15.682262
_cell_length_b 25.159286
_cell_length_c 12.943822
_cell_angle_alpha 90.000000
_cell_angle_beta 90.000000
_cell_angle_gamma 90.000000
_cell_volume 5107.043409
_symmetry_space_group_name_H-M "C C C M"
_symmetry_group_IT_number 66
_symmetry_cell_setting 'orthorhombic'
loop_
_space_group_symop_operation_xyz
x,y,z
-x,-y,z
x,-y,1/2-z
-x,y,1/2-z
-x,-y,-z
x,y,-z
-x,y,1/2+z
x,-y,1/2+z
1/2+x,1/2+y,z
1/2-x,1/2-y,z
1/2+x,1/2-y,1/2-z
1/2-x,1/2+y,1/2-z
1/2-x,1/2-y,-z
1/2+x,1/2+y,-z
1/2-x,1/2+y,1/2+z
1/2+x,1/2-y,1/2+z
loop_
_atom_site_type_symbol
_atom_site_label
_atom_site_fract_x
_atom_site_fract_y
_atom_site_fract_z
Si Si1 0.087119 0.780931 0.778715
Si Si2 0.262846 0.863553 0.000000
Si Si3 0.171398 0.974929 0.000000
Si Si4 0.256629 0.362744 0.271397
Si Si5 0.169640 0.708605 0.617618
Si Si6 0.506528 0.589351 0.000000
Si Si7 0.910589 0.797336 0.500000
Si Si8 0.870950 0.046196 0.321703
O O1 0.168130 0.819027 0.777345
O O2 0.102673 0.735906 0.694534
O O3 0.000000 0.810698 0.750000
O O4 0.078098 0.763815 0.896990
O O5 0.227945 0.923314 0.000000
O O6 0.294673 0.859272 0.119581
O O7 0.184096 0.822084 0.000000
O O8 0.074089 0.951096 0.000000
O O9 0.184408 0.012372 0.097597
O O10 0.201072 0.344842 0.173508
O O11 0.310960 0.415534 0.246161
O O12 0.141006 0.701585 0.500000
O O13 0.250000 0.750000 0.614353
O O14 0.471498 0.650006 0.000000
O O15 0.562641 0.577354 0.103114
O O16 0.909718 0.000000 0.250000
#
# Coordination Sequence:
#
# PCOD9496711 Si02
#       8
#    16   8   8  16  16   8   8  16
#     4  10  20  34  53  73 100 132 168 223 269 315
#     4   9  17  33  45  63  95 123 177 217 241 291
#     4  10  20  33  37  65  97 139 185 222 253 289
#     4  10  20  34  51  71  99 139 178 219 262 319
#     4   9  20  36  54  75  98 128 171 219 275 324
#     4  10  22  33  41  66 102 144 192 228 254 300
#     4   9  19  33  47  68  97 132 181 210 260 314
#     4  11  20  30  46  65  98 143 181 217 260 298
#
# _framework density 18.797567999999998
#
# number of rings (size 3 to 8) (size 9 to 14) (size 15 to 20)
#    0.000    2.167    1.667    2.000    3.500    2.000 
#    3.000    3.333    0.000    0.000    0.000    0.000 
#    0.000    0.667    0.000    3.000    0.000    0.167 
#
# Total GULP energy -267234.577731 kJ/mol
# GULP energy per Si atom -5567.387036 kJ/mol
# Density = 1.875478 g / cm^3
# Si number density = 18.797568 Si / 1000 Ang^3
#
#
#
# Elastic Constant Matrix: (Units=GPa)
#
#
# Indices 1 2 3 4 5 6 
#
# 1 11.7526 13.0616 21.8205 0.0000 0.0000 0.0000
# 2 13.0616 51.6347 42.4927 0.0000 0.0000 0.0000
# 3 21.8205 42.4927 189.9591 0.0000 0.0000 0.0000
# 4 0.0000 0.0000 0.0000 26.5201 0.0000 0.0000
# 5 0.0000 0.0000 0.0000 0.0000 11.7478 0.0000
# 6 0.0000 0.0000 0.0000 0.0000 0.0000 -1.6543
#
#
#
# Elastic Compliance Matrix: (Units=1/GPa)
#
#
# Indices 1 2 3 4 5 6 
#
# 1 0.130589 -0.025357 -0.009328 0.000000 0.000000 0.000000
# 2 -0.025357 0.028660 -0.003498 0.000000 0.000000 0.000000
# 3 -0.009328 -0.003498 0.007118 0.000000 0.000000 0.000000
# 4 0.000000 0.000000 0.000000 0.037707 0.000000 0.000000
# 5 0.000000 0.000000 0.000000 0.000000 0.085123 0.000000
# 6 0.000000 0.000000 0.000000 0.000000 0.000000 -0.604481
#
#
# Mechanical properties :
#
#
# Convention : Reuss Voigt Hill
#
# Bulk Modulus (GPa) = 11.11117 45.34401 28.22759
# Shear Modulus (GPa) = -23.93308 19.05414 -2.43947
#
# Velocity S-wave (km/s) = -3.57206 3.18724 -1.14043
# Velocity P-wave (km/s) = 3.33003 6.14160 3.64899
#
# Compressibility (1/GPa) = 0.08999954
#
# Stress axis : x y z
#
# Youngs Moduli (GPa) = 7.65763 34.89170 140.48085
#
# Poissons Ratio (x) = 0.88475 1.31047
# Poissons Ratio (y) = 0.19417 0.49145
# Poissons Ratio (z) = 0.07143 0.12206
#
# Static dielectric constant tensor:
#      x y z
#    x 1.678430 0.000000 0.000000 
#    y 0.000000 1.650530 0.000000 
#    z 0.000000 0.000000 1.750490 
# 
# From -- ./inp_files/17900.got.cif
#   From: 2010.05.17/outbox.cif.g08.bks.cpg/sg66_9_cif.got.tgz:17900.got - 2010.06.03 17:51:23.
