data_PCOD9496683
_publ_section_title
;
Structure prediction by ZEFSAII (Michael W. Deem and Ramdas Pophale) SiO2 
 PCOD9496683
Probable space group: C C C M
;
_chemical_formula_sum "Si O2"
_cell_formula_units_Z 80
_cell_length_a 5.120253
_cell_length_b 23.882197
_cell_length_c 31.685164
_cell_angle_alpha 90.000000
_cell_angle_beta 90.000000
_cell_angle_gamma 90.000000
_cell_volume 3874.553451
_symmetry_space_group_name_H-M "C C C M"
_symmetry_group_IT_number 66
_symmetry_cell_setting 'orthorhombic'
loop_
_space_group_symop_operation_xyz
x,y,z
-x,-y,z
x,-y,1/2-z
-x,y,1/2-z
-x,-y,-z
x,y,-z
-x,y,1/2+z
x,-y,1/2+z
1/2+x,1/2+y,z
1/2-x,1/2-y,z
1/2+x,1/2-y,1/2-z
1/2-x,1/2+y,1/2-z
1/2-x,1/2-y,-z
1/2+x,1/2+y,-z
1/2-x,1/2+y,1/2+z
1/2+x,1/2-y,1/2+z
loop_
_atom_site_type_symbol
_atom_site_label
_atom_site_fract_x
_atom_site_fract_y
_atom_site_fract_z
Si Si1 0.240098 0.072519 0.277815
Si Si2 0.362020 0.554851 0.130634
Si Si3 0.112433 0.307309 0.702796
Si Si4 0.997718 0.288456 0.047028
Si Si5 0.370990 0.130254 0.123338
O O1 0.500000 0.066710 0.250000
O O2 0.221561 0.040096 0.321368
O O3 0.208729 0.138295 0.289661
O O4 0.000000 0.057226 0.250000
O O5 0.500000 0.500000 0.111435
O O6 0.586983 0.602361 0.127765
O O7 0.089102 0.581727 0.116465
O O8 0.250000 0.250000 0.688691
O O9 0.000000 0.295808 0.750000
O O10 0.926403 0.332494 0.665817
O O11 0.250000 0.250000 0.043076
O O12 0.077794 0.331426 0.083031
O O13 0.750000 0.250000 0.059092
O O14 0.940518 0.312539 0.000000
#
# Coordination Sequence:
#
# PCOD9496683 Si02
#       5
#    16  16  16  16  16
#     4  10  20  36  53  75 106 145 199 251 292 342
#     4  11  23  40  60  83 114 157 205 257 312 354
#     4  10  20  32  51  78 115 154 188 227 284 354
#     4  10  21  39  65  96 127 159 197 244 305 376
#     4  11  23  39  61  87 120 156 201 252 302 365
#
# _framework density 20.647538999999998
#
# number of rings (size 3 to 8) (size 9 to 14) (size 15 to 20)
#    0.000    1.600    0.000    6.600    0.000    4.400 
#    0.000    4.000    0.000    3.600    0.000    0.000 
#    0.000    0.000    0.000    0.000    0.000    0.000 
#
# Total GULP energy -223130.485290 kJ/mol
# GULP energy per Si atom -5578.262132 kJ/mol
# Density = 2.060054 g / cm^3
# Si number density = 20.647539 Si / 1000 Ang^3
#
#
#
# Elastic Constant Matrix: (Units=GPa)
#
#
# Indices 1 2 3 4 5 6 
#
# 1 114.9368 9.6507 11.6094 0.0000 0.0000 0.0000
# 2 9.6507 65.0109 14.1297 0.0000 0.0000 0.0000
# 3 11.6094 14.1297 95.1850 0.0000 0.0000 0.0000
# 4 0.0000 0.0000 0.0000 -18.0109 0.0000 0.0000
# 5 0.0000 0.0000 0.0000 0.0000 20.2283 0.0000
# 6 0.0000 0.0000 0.0000 0.0000 0.0000 40.1845
#
#
#
# Elastic Compliance Matrix: (Units=1/GPa)
#
#
# Indices 1 2 3 4 5 6 
#
# 1 0.008887 -0.001120 -0.000918 0.000000 0.000000 0.000000
# 2 -0.001120 0.016036 -0.002244 0.000000 0.000000 0.000000
# 3 -0.000918 -0.002244 0.010951 0.000000 0.000000 0.000000
# 4 0.000000 0.000000 0.000000 -0.055522 0.000000 0.000000
# 5 0.000000 0.000000 0.000000 0.000000 0.049436 0.000000
# 6 0.000000 0.000000 0.000000 0.000000 0.000000 0.024885
#
#
# Mechanical properties :
#
#
# Convention : Reuss Voigt Hill
#
# Bulk Modulus (GPa) = 36.61502 38.43470 37.52486
# Shear Modulus (GPa) = 69.11868 24.46325 46.79096
#
# Velocity S-wave (km/s) = 5.79208 3.44583 4.76560
# Velocity P-wave (km/s) = 7.90587 5.87254 6.96382
#
# Compressibility (1/GPa) = 0.02731120
#
# Stress axis : x y z
#
# Youngs Moduli (GPa) = 112.52200 62.35990 91.31685
#
# Poissons Ratio (x) = 0.06983 0.08380
# Poissons Ratio (y) = 0.12600 0.20490
# Poissons Ratio (z) = 0.10326 0.13993
#
# Static dielectric constant tensor:
#      x y z
#    x 1.762280 0.000000 0.000000 
#    y 0.000000 1.786960 0.000000 
#    z 0.000000 0.000000 1.777200 
# 
# From -- ./inp_files/67199.got.cif
#   From: 2010.05.17/outbox.cif.g08.bks.cpg/sg66_34_cif.got.tgz:67199.got - 2010.06.03 17:51:23.
