data_PCOD9496568
_publ_section_title
;
Structure prediction by ZEFSAII (Michael W. Deem and Ramdas Pophale) SiO2 
 PCOD9496568
Probable space group: C C C M
;
_chemical_formula_sum "Si O2"
_cell_formula_units_Z 116
_cell_length_a 13.176962
_cell_length_b 13.848758
_cell_length_c 30.114612
_cell_angle_alpha 90.000000
_cell_angle_beta 90.000000
_cell_angle_gamma 90.000000
_cell_volume 5495.451658
_symmetry_space_group_name_H-M "C C C M"
_symmetry_group_IT_number 66
_symmetry_cell_setting 'orthorhombic'
loop_
_space_group_symop_operation_xyz
x,y,z
-x,-y,z
x,-y,1/2-z
-x,y,1/2-z
-x,-y,-z
x,y,-z
-x,y,1/2+z
x,-y,1/2+z
1/2+x,1/2+y,z
1/2-x,1/2-y,z
1/2+x,1/2-y,1/2-z
1/2-x,1/2+y,1/2-z
1/2-x,1/2-y,-z
1/2+x,1/2+y,-z
1/2-x,1/2+y,1/2+z
1/2+x,1/2-y,1/2+z
loop_
_atom_site_type_symbol
_atom_site_label
_atom_site_fract_x
_atom_site_fract_y
_atom_site_fract_z
Si Si1 0.048656 0.880073 0.702446
Si Si2 0.339554 0.169160 0.664669
Si Si3 0.198432 0.129279 0.913543
Si Si4 0.020480 0.197110 0.383319
Si Si5 0.892716 0.943004 0.549950
Si Si6 0.750000 0.250000 0.500000
Si Si7 0.264290 0.046857 0.171534
Si Si8 0.144690 0.690735 0.734107
O O1 0.149420 0.941423 0.691165
O O2 0.078907 0.767968 0.707754
O O3 0.000000 0.903582 0.750000
O O4 0.976981 0.876144 0.659247
O O5 0.250000 0.250000 0.660409
O O6 0.429184 0.203048 0.631835
O O7 0.381825 0.173586 0.714941
O O8 0.294498 0.061884 0.659568
O O9 0.267666 0.121379 0.870050
O O10 0.096008 0.188161 0.900132
O O11 0.173040 0.017545 0.922373
O O12 0.237650 0.169347 0.959973
O O13 0.086969 0.153301 0.422950
O O14 0.143776 0.073656 0.500000
O O15 0.000000 0.000000 0.546979
O O16 0.337665 0.091727 0.208573
O O17 0.250000 0.750000 0.736402
#
# Coordination Sequence:
#
# PCOD9496568 Si02
#       8
#    16  16  16  16  16   4  16  16
#     4  10  19  38  62  92 132 165 216 279 324 390
#     4  11  21  38  61  87 131 177 218 266 325 392
#     4  10  22  39  65  95 127 158 217 267 334 398
#     4  10  21  35  65  92 126 169 210 266 335 387
#     4   9  17  35  58  91 124 155 199 271 329 391
#     4  12  24  40  74 102 116 172 208 280 338 394
#     4  10  22  37  63  93 126 175 222 269 327 392
#     4   9  19  35  59  84 126 172 215 265 319 379
#
# _framework density 21.108364999999999
#
# number of rings (size 3 to 8) (size 9 to 14) (size 15 to 20)
#    0.000    2.069    2.069    1.241    5.793    1.103 
#    2.483    0.690   16.690    2.069    0.000    0.000 
#    0.000    0.000    0.000    0.000    0.000    0.000 
#
# Total GULP energy -323161.376909 kJ/mol
# GULP energy per Si atom -5571.747878 kJ/mol
# Density = 2.106032 g / cm^3
# Si number density = 21.108365 Si / 1000 Ang^3
#
#
#
# Elastic Constant Matrix: (Units=GPa)
#
#
# Indices 1 2 3 4 5 6 
#
# 1 36.5990 42.2677 26.4078 0.0000 0.0000 0.0000
# 2 42.2677 133.9327 32.5500 0.0000 0.0000 0.0000
# 3 26.4078 32.5500 127.7727 0.0000 0.0000 0.0000
# 4 0.0000 0.0000 0.0000 50.2160 0.0000 0.0000
# 5 0.0000 0.0000 0.0000 0.0000 27.5129 0.0000
# 6 0.0000 0.0000 0.0000 0.0000 0.0000 28.0287
#
#
#
# Elastic Compliance Matrix: (Units=1/GPa)
#
#
# Indices 1 2 3 4 5 6 
#
# 1 0.047421 -0.013414 -0.006384 0.000000 0.000000 0.000000
# 2 -0.013414 0.011754 -0.000222 0.000000 0.000000 0.000000
# 3 -0.006384 -0.000222 0.009202 0.000000 0.000000 0.000000
# 4 0.000000 0.000000 0.000000 0.019914 0.000000 0.000000
# 5 0.000000 0.000000 0.000000 0.000000 0.036347 0.000000
# 6 0.000000 0.000000 0.000000 0.000000 0.000000 0.035678
#
#
# Mechanical properties :
#
#
# Convention : Reuss Voigt Hill
#
# Bulk Modulus (GPa) = 35.28862 55.63951 45.46406
# Shear Modulus (GPa) = 23.83217 34.29011 29.06114
#
# Velocity S-wave (km/s) = 3.36376 4.03486 3.71450
# Velocity P-wave (km/s) = 5.64275 6.93707 6.32312
#
# Compressibility (1/GPa) = 0.02833775
#
# Stress axis : x y z
#
# Youngs Moduli (GPa) = 21.08770 85.07953 108.66878
#
# Poissons Ratio (x) = 1.14127 0.69370
# Poissons Ratio (y) = 0.28287 0.02411
# Poissons Ratio (z) = 0.13462 0.01887
#
# Static dielectric constant tensor:
#      x y z
#    x 2.926260 0.000000 0.000000 
#    y 0.000000 1.761750 0.000000 
#    z 0.000000 0.000000 1.767400 
# 
# From -- ./inp_files/70027.got.cif
#   From: 2010.05.17/outbox.cif.g08.bks.cpg/sg66_36_cif.got.tgz:70027.got - 2010.06.03 17:51:23.
