data_PCOD9496469
_publ_section_title
;
Structure prediction by ZEFSAII (Michael W. Deem and Ramdas Pophale) SiO2 
 PCOD9496469
Probable space group: C C C M
;
_chemical_formula_sum "Si O2"
_cell_formula_units_Z 104
_cell_length_a 33.792212
_cell_length_b 22.622568
_cell_length_c 7.541670
_cell_angle_alpha 90.000000
_cell_angle_beta 90.000000
_cell_angle_gamma 90.000000
_cell_volume 5765.354928
_symmetry_space_group_name_H-M "C C C M"
_symmetry_group_IT_number 66
_symmetry_cell_setting 'orthorhombic'
loop_
_space_group_symop_operation_xyz
x,y,z
-x,-y,z
x,-y,1/2-z
-x,y,1/2-z
-x,-y,-z
x,y,-z
-x,y,1/2+z
x,-y,1/2+z
1/2+x,1/2+y,z
1/2-x,1/2-y,z
1/2+x,1/2-y,1/2-z
1/2-x,1/2+y,1/2-z
1/2-x,1/2-y,-z
1/2+x,1/2+y,-z
1/2-x,1/2+y,1/2+z
1/2+x,1/2-y,1/2+z
loop_
_atom_site_type_symbol
_atom_site_label
_atom_site_fract_x
_atom_site_fract_y
_atom_site_fract_z
Si Si1 0.455932 0.879772 0.711724
Si Si2 0.623160 0.317129 0.288738
Si Si3 0.456219 0.744886 0.711537
Si Si4 0.681355 0.267242 0.000000
Si Si5 0.331842 0.433077 0.793295
Si Si6 0.683005 0.871929 0.500000
Si Si7 0.726725 0.614240 0.500000
Si Si8 0.372116 0.068843 0.211515
O O1 0.500000 0.903483 0.750000
O O2 0.453338 0.876849 0.500000
O O3 0.453618 0.812245 0.782708
O O4 0.417271 0.915562 0.769267
O O5 0.627530 0.305844 0.500000
O O6 0.579956 0.295650 0.229399
O O7 0.655027 0.282031 0.172979
O O8 0.633226 0.385932 0.258631
O O9 0.500000 0.721816 0.750000
O O10 0.452755 0.749200 0.500000
O O11 0.689559 0.198271 0.000000
O O12 0.716562 0.315476 0.000000
O O13 0.343160 0.500000 0.750000
O O14 0.295515 0.413548 0.669468
O O15 0.321174 0.428736 0.000000
O O16 0.726993 0.898724 0.500000
O O17 0.657863 0.892732 0.329175
O O18 0.364842 0.000000 0.250000
O O19 0.368112 0.079975 0.000000
#
# Coordination Sequence:
#
# PCOD9496469 Si02
#       8
#    16  16  16   8  16   8   8  16
#     4   9  19  33  55  79 106 141 185 237 279 322
#     4   9  19  34  55  82 117 149 183 232 280 326
#     4   9  17  30  47  77 111 142 182 227 278 333
#     4  10  21  38  62  86 110 145 189 228 283 342
#     4  10  19  36  59  85 112 146 188 233 276 324
#     4  12  25  40  64  83 114 153 178 231 291 342
#     4  10  23  40  58  90 116 140 187 233 278 341
#     4  11  24  43  58  81 114 148 195 233 276 342
#
# _framework density 18.038784
#
# number of rings (size 3 to 8) (size 9 to 14) (size 15 to 20)
#    0.000    2.154    1.538    1.154    2.154    3.385 
#    0.000    1.538    0.000    5.077    0.000    3.231 
#    0.000    0.000    0.000    0.000    0.000    0.000 
#
# Total GULP energy -290025.568148 kJ/mol
# GULP energy per Si atom -5577.414772 kJ/mol
# Density = 1.799773 g / cm^3
# Si number density = 18.038784 Si / 1000 Ang^3
#
#
#
# Elastic Constant Matrix: (Units=GPa)
#
#
# Indices 1 2 3 4 5 6 
#
# 1 79.9599 9.3040 18.5329 0.0000 0.0000 0.0000
# 2 9.3040 65.1858 14.2143 0.0000 0.0000 0.0000
# 3 18.5329 14.2143 76.2750 0.0000 0.0000 0.0000
# 4 0.0000 0.0000 0.0000 18.8496 0.0000 0.0000
# 5 0.0000 0.0000 0.0000 0.0000 18.4833 0.0000
# 6 0.0000 0.0000 0.0000 0.0000 0.0000 10.0616
#
#
#
# Elastic Compliance Matrix: (Units=1/GPa)
#
#
# Indices 1 2 3 4 5 6 
#
# 1 0.013349 -0.001249 -0.003011 0.000000 0.000000 0.000000
# 2 -0.001249 0.016107 -0.002698 0.000000 0.000000 0.000000
# 3 -0.003011 -0.002698 0.014345 0.000000 0.000000 0.000000
# 4 0.000000 0.000000 0.000000 0.053052 0.000000 0.000000
# 5 0.000000 0.000000 0.000000 0.000000 0.054103 0.000000
# 6 0.000000 0.000000 0.000000 0.000000 0.000000 0.099388
#
#
# Mechanical properties :
#
#
# Convention : Reuss Voigt Hill
#
# Bulk Modulus (GPa) = 33.46072 33.94699 33.70386
# Shear Modulus (GPa) = 18.23342 21.43687 19.83515
#
# Velocity S-wave (km/s) = 3.18274 3.45102 3.31959
# Velocity P-wave (km/s) = 5.66534 5.89399 5.78080
#
# Compressibility (1/GPa) = 0.02988579
#
# Stress axis : x y z
#
# Youngs Moduli (GPa) = 74.90957 62.08328 69.71141
#
# Poissons Ratio (x) = 0.07753 0.20989
# Poissons Ratio (y) = 0.09355 0.18810
# Poissons Ratio (z) = 0.22554 0.16752
#
# Static dielectric constant tensor:
#      x y z
#    x 1.606090 0.000000 0.000000 
#    y 0.000000 1.618610 0.000000 
#    z 0.000000 0.000000 1.618920 
# 
# From -- ./inp_files/10398.got.cif
#   From: 2010.05.17/outbox.cif.g08.bks.cpg/sg66_6_cif.got.tgz:10398.got - 2010.06.03 17:51:23.
