data_PCOD9496983
_publ_section_title
;
Structure prediction by ZEFSAII (Michael W. Deem and Ramdas Pophale) SiO2 
 PCOD9496983
Probable space group: C C C M
;
_chemical_formula_sum "Si O2"
_cell_formula_units_Z 88
_cell_length_a 13.021289
_cell_length_b 15.145511
_cell_length_c 21.256593
_cell_angle_alpha 90.000000
_cell_angle_beta 90.000000
_cell_angle_gamma 90.000000
_cell_volume 4192.099343
_symmetry_space_group_name_H-M "C C C M"
_symmetry_group_IT_number 66
_symmetry_cell_setting 'orthorhombic'
loop_
_space_group_symop_operation_xyz
x,y,z
-x,-y,z
x,-y,1/2-z
-x,y,1/2-z
-x,-y,-z
x,y,-z
-x,y,1/2+z
x,-y,1/2+z
1/2+x,1/2+y,z
1/2-x,1/2-y,z
1/2+x,1/2-y,1/2-z
1/2-x,1/2+y,1/2-z
1/2-x,1/2-y,-z
1/2+x,1/2+y,-z
1/2-x,1/2+y,1/2+z
1/2+x,1/2-y,1/2+z
loop_
_atom_site_type_symbol
_atom_site_label
_atom_site_fract_x
_atom_site_fract_y
_atom_site_fract_z
Si Si1 0.639238 0.279724 0.358778
Si Si2 0.810406 0.956721 0.924845
Si Si3 0.911754 0.601600 0.073447
Si Si4 0.336492 0.349033 0.424253
Si Si5 0.608767 0.831837 0.368291
Si Si6 0.000000 0.280292 0.750000
O O1 0.750000 0.250000 0.333278
O O2 0.640222 0.374462 0.390210
O O3 0.618385 0.202994 0.410059
O O4 0.563486 0.273874 0.300502
O O5 0.688683 0.953679 0.905361
O O6 0.867001 0.049453 0.913654
O O7 0.810615 0.941815 0.000000
O O8 0.025595 0.600388 0.102882
O O9 0.923191 0.586958 0.000000
O O10 0.326345 0.335926 0.500000
O O11 0.403090 0.269233 0.395809
O O12 0.224551 0.347412 0.390869
O O13 0.581309 0.832242 0.294285
#
# Coordination Sequence:
#
# PCOD9496983 Si02
#       6
#    16  16  16  16  16   8
#     4   9  18  33  55  77 108 141 184 223 269 326
#     4   9  18  33  55  85 113 139 174 229 291 338
#     4   9  16  30  54  81 106 136 176 224 277 331
#     4  10  20  35  58  84 112 144 182 234 293 338
#     4  10  20  35  54  78 108 145 189 228 272 331
#     4  10  22  36  57  77 102 152 194 224 264 329
#
# _framework density 20.991869000000001
#
# number of rings (size 3 to 8) (size 9 to 14) (size 15 to 20)
#    0.000    2.545    0.000    2.727    2.545    2.909 
#    0.000    8.182    0.000   19.636    0.000    0.000 
#    0.000    0.000    0.000    0.000    0.000    0.000 
#
# Total GULP energy -245098.226286 kJ/mol
# GULP energy per Si atom -5570.414234 kJ/mol
# Density = 2.094409 g / cm^3
# Si number density = 20.991869 Si / 1000 Ang^3
#
#
#
# Elastic Constant Matrix: (Units=GPa)
#
#
# Indices 1 2 3 4 5 6 
#
# 1 44.4798 -7.4319 8.7157 0.0000 0.0000 0.0000
# 2 -7.4319 85.4619 9.1721 0.0000 0.0000 0.0000
# 3 8.7157 9.1721 63.3712 0.0000 0.0000 0.0000
# 4 0.0000 0.0000 0.0000 10.3171 0.0000 0.0000
# 5 0.0000 0.0000 0.0000 0.0000 24.9552 0.0000
# 6 0.0000 0.0000 0.0000 0.0000 0.0000 33.2854
#
#
#
# Elastic Compliance Matrix: (Units=1/GPa)
#
#
# Indices 1 2 3 4 5 6 
#
# 1 0.023594 0.002438 -0.003598 0.000000 0.000000 0.000000
# 2 0.002438 0.012138 -0.002092 0.000000 0.000000 0.000000
# 3 -0.003598 -0.002092 0.016578 0.000000 0.000000 0.000000
# 4 0.000000 0.000000 0.000000 0.096927 0.000000 0.000000
# 5 0.000000 0.000000 0.000000 0.000000 0.040072 0.000000
# 6 0.000000 0.000000 0.000000 0.000000 0.000000 0.030043
#
#
# Mechanical properties :
#
#
# Convention : Reuss Voigt Hill
#
# Bulk Modulus (GPa) = 21.83129 23.80273 22.81701
# Shear Modulus (GPa) = 20.73622 25.90200 23.31911
#
# Velocity S-wave (km/s) = 3.14637 3.51651 3.33658
# Velocity P-wave (km/s) = 4.86025 5.27745 5.07314
#
# Compressibility (1/GPa) = 0.04580580
#
# Stress axis : x y z
#
# Youngs Moduli (GPa) = 42.38278 82.38822 60.32216
#
# Poissons Ratio (x) = -0.20086 0.21703
# Poissons Ratio (y) = -0.10333 0.12620
# Poissons Ratio (z) = 0.15249 0.17236
#
# Static dielectric constant tensor:
#      x y z
#    x 1.849040 0.000000 0.000000 
#    y 0.000000 1.796450 0.000000 
#    z 0.000000 0.000000 1.699120 
# 
# From -- ./inp_files/40349.got.cif
#   From: 2010.05.17/outbox.cif.g08.bks.cpg/sg66_21_cif.got.tgz:40349.got - 2010.06.03 17:51:23.
