data_PCOD9496203
_publ_section_title
;
Structure prediction by ZEFSAII (Michael W. Deem and Ramdas Pophale) SiO2 
 PCOD9496203
Probable space group: C C C M
;
_chemical_formula_sum "Si O2"
_cell_formula_units_Z 88
_cell_length_a 12.048934
_cell_length_b 16.685660
_cell_length_c 22.777017
_cell_angle_alpha 90.000000
_cell_angle_beta 90.000000
_cell_angle_gamma 90.000000
_cell_volume 4579.192083
_symmetry_space_group_name_H-M "C C C M"
_symmetry_group_IT_number 66
_symmetry_cell_setting 'orthorhombic'
loop_
_space_group_symop_operation_xyz
x,y,z
-x,-y,z
x,-y,1/2-z
-x,y,1/2-z
-x,-y,-z
x,y,-z
-x,y,1/2+z
x,-y,1/2+z
1/2+x,1/2+y,z
1/2-x,1/2-y,z
1/2+x,1/2-y,1/2-z
1/2-x,1/2+y,1/2-z
1/2-x,1/2-y,-z
1/2+x,1/2+y,-z
1/2-x,1/2+y,1/2+z
1/2+x,1/2-y,1/2+z
loop_
_atom_site_type_symbol
_atom_site_label
_atom_site_fract_x
_atom_site_fract_y
_atom_site_fract_z
Si Si1 0.500000 0.327597 0.750000
Si Si2 0.371663 0.987356 0.068402
Si Si3 0.269185 0.595227 0.762532
Si Si4 0.249171 0.128531 0.871997
Si Si5 0.930927 0.242053 0.370180
Si Si6 0.164964 0.322276 0.623209
O O1 0.601695 0.381103 0.775184
O O2 0.551633 0.272779 0.699376
O O3 0.288160 0.044058 0.103794
O O4 0.500000 0.000000 0.089051
O O5 0.334535 0.896508 0.078910
O O6 0.368722 0.008817 0.000000
O O7 0.257503 0.500000 0.750000
O O8 0.244481 0.630982 0.698571
O O9 0.192844 0.634872 0.813334
O O10 0.126419 0.158499 0.890073
O O11 0.341580 0.192595 0.889997
O O12 0.048270 0.278092 0.386661
O O13 0.250000 0.250000 0.616207
#
# Coordination Sequence:
#
# PCOD9496203 Si02
#       6
#     8  16  16  16  16  16
#     4  10  19  34  52  89 134 172 196 232 307 388
#     4  11  24  45  67  88 122 166 222 275 315 370
#     4  11  21  33  57  92 127 165 200 246 307 380
#     4  10  21  38  59  92 127 166 206 255 316 379
#     4  10  20  35  59  89 131 163 202 251 312 383
#     4  12  23  40  63  98 128 166 206 260 323 377
#
# _framework density 19.217364
#
# number of rings (size 3 to 8) (size 9 to 14) (size 15 to 20)
#    0.000    1.273    5.455    1.364    2.545    0.364 
#    0.000    5.455    0.000    1.091    0.000    0.000 
#    0.000    0.000    0.000    0.000    0.000    0.000 
#
# Total GULP energy -244987.075059 kJ/mol
# GULP energy per Si atom -5567.888070 kJ/mol
# Density = 1.917362 g / cm^3
# Si number density = 19.217364 Si / 1000 Ang^3
#
#
#
# Elastic Constant Matrix: (Units=GPa)
#
#
# Indices 1 2 3 4 5 6 
#
# 1 118.4476 57.2147 17.8900 0.0000 0.0000 0.0000
# 2 57.2147 104.8746 -1.5599 0.0000 0.0000 0.0000
# 3 17.8900 -1.5599 25.2745 0.0000 0.0000 0.0000
# 4 0.0000 0.0000 0.0000 -6.0679 0.0000 0.0000
# 5 0.0000 0.0000 0.0000 0.0000 11.4149 0.0000
# 6 0.0000 0.0000 0.0000 0.0000 0.0000 11.9144
#
#
#
# Elastic Compliance Matrix: (Units=1/GPa)
#
#
# Indices 1 2 3 4 5 6 
#
# 1 0.013638 -0.007591 -0.010122 0.000000 0.000000 0.000000
# 2 -0.007591 0.013769 0.006223 0.000000 0.000000 0.000000
# 3 -0.010122 0.006223 0.047114 0.000000 0.000000 0.000000
# 4 0.000000 0.000000 0.000000 -0.164800 0.000000 0.000000
# 5 0.000000 0.000000 0.000000 0.000000 0.087605 0.000000
# 6 0.000000 0.000000 0.000000 0.000000 0.000000 0.083932
#
#
# Mechanical properties :
#
#
# Convention : Reuss Voigt Hill
#
# Bulk Modulus (GPa) = 19.40191 43.96514 31.68353
# Shear Modulus (GPa) = 41.18010 15.12239 28.15125
#
# Velocity S-wave (km/s) = 4.63412 2.80824 3.83154
# Velocity P-wave (km/s) = 6.22506 5.78294 6.00807
#
# Compressibility (1/GPa) = 0.05154131
#
# Stress axis : x y z
#
# Youngs Moduli (GPa) = 73.32470 72.62728 21.22507
#
# Poissons Ratio (x) = 0.55130 0.21484
# Poissons Ratio (y) = 0.55659 -0.13208
# Poissons Ratio (z) = 0.74218 -0.45194
#
# Static dielectric constant tensor:
#      x y z
#    x 1.715100 0.000000 0.000000 
#    y 0.000000 1.718030 0.000000 
#    z 0.000000 0.000000 1.687720 
# 
# From -- ./inp_files/63614.got.cif
#   From: 2010.05.17/outbox.cif.g08.bks.cpg/sg66_32_cif.got.tgz:63614.got - 2010.06.03 17:51:23.
