data_PCOD9496181
_publ_section_title
;
Structure prediction by ZEFSAII (Michael W. Deem and Ramdas Pophale) SiO2 
 PCOD9496181
Probable space group: C C C M
;
_chemical_formula_sum "Si O2"
_cell_formula_units_Z 104
_cell_length_a 16.741491
_cell_length_b 22.438971
_cell_length_c 14.336959
_cell_angle_alpha 90.000000
_cell_angle_beta 90.000000
_cell_angle_gamma 90.000000
_cell_volume 5385.848270
_symmetry_space_group_name_H-M "C C C M"
_symmetry_group_IT_number 66
_symmetry_cell_setting 'orthorhombic'
loop_
_space_group_symop_operation_xyz
x,y,z
-x,-y,z
x,-y,1/2-z
-x,y,1/2-z
-x,-y,-z
x,y,-z
-x,y,1/2+z
x,-y,1/2+z
1/2+x,1/2+y,z
1/2-x,1/2-y,z
1/2+x,1/2-y,1/2-z
1/2-x,1/2+y,1/2-z
1/2-x,1/2-y,-z
1/2+x,1/2+y,-z
1/2-x,1/2+y,1/2+z
1/2+x,1/2-y,1/2+z
loop_
_atom_site_type_symbol
_atom_site_label
_atom_site_fract_x
_atom_site_fract_y
_atom_site_fract_z
Si Si1 0.677431 0.377713 0.320149
Si Si2 0.207227 0.554793 0.806256
Si Si3 0.187920 0.304182 0.101893
Si Si4 0.078881 0.794083 0.186090
Si Si5 0.712214 0.464988 0.000000
Si Si6 0.575963 0.372328 0.000000
Si Si7 0.910766 0.335059 0.223897
Si Si8 0.909290 0.075826 0.500000
O O1 0.711497 0.427680 0.250327
O O2 0.755174 0.360083 0.380031
O O3 0.646460 0.325277 0.251503
O O4 0.614519 0.393119 0.401035
O O5 0.169174 0.500000 0.750000
O O6 0.233586 0.534243 0.908232
O O7 0.148222 0.611968 0.807056
O O8 0.250000 0.250000 0.108772
O O9 0.123013 0.306688 0.180661
O O10 0.151440 0.303266 0.000000
O O11 0.069241 0.832529 0.092775
O O12 0.091372 0.724402 0.160468
O O13 0.000000 0.796547 0.250000
O O14 0.646061 0.517241 0.000000
O O15 0.661217 0.404350 0.000000
O O16 0.505195 0.421675 0.000000
O O17 0.000000 0.355639 0.250000
#
# Coordination Sequence:
#
# PCOD9496181 Si02
#       8
#    16  16  16  16   8   8  16   8
#     4  11  20  37  62  91 122 164 218 270 325 372
#     4  11  24  43  69  89 127 174 221 277 323 387
#     4  10  19  33  61  93 120 160 213 265 321 382
#     4  11  22  40  61  93 137 170 213 268 331 394
#     4  12  25  43  62  97 131 173 231 263 321 392
#     4  12  25  39  64  95 134 186 213 258 331 404
#     4  10  24  44  64  95 135 169 211 277 335 392
#     4  12  23  38  65  93 130 175 217 270 316 383
#
# _framework density 19.309864999999999
#
# number of rings (size 3 to 8) (size 9 to 14) (size 15 to 20)
#    0.000    1.077    6.923    0.231    0.000    0.923 
#    6.923    0.769    0.000    0.923    0.000    0.000 
#    0.000    0.000    0.000    0.000    0.000    0.000 
#
# Total GULP energy -289873.873827 kJ/mol
# GULP energy per Si atom -5574.497574 kJ/mol
# Density = 1.926592 g / cm^3
# Si number density = 19.309865 Si / 1000 Ang^3
#
#
#
# Elastic Constant Matrix: (Units=GPa)
#
#
# Indices 1 2 3 4 5 6 
#
# 1 60.8662 21.8501 23.5434 0.0000 0.0000 0.0000
# 2 21.8501 105.5873 40.7280 0.0000 0.0000 0.0000
# 3 23.5434 40.7280 116.6567 0.0000 0.0000 0.0000
# 4 0.0000 0.0000 0.0000 6.7938 0.0000 0.0000
# 5 0.0000 0.0000 0.0000 0.0000 10.5325 0.0000
# 6 0.0000 0.0000 0.0000 0.0000 0.0000 33.7562
#
#
#
# Elastic Compliance Matrix: (Units=1/GPa)
#
#
# Indices 1 2 3 4 5 6 
#
# 1 0.018491 -0.002758 -0.002769 0.000000 0.000000 0.000000
# 2 -0.002758 0.011356 -0.003408 0.000000 0.000000 0.000000
# 3 -0.002769 -0.003408 0.010321 0.000000 0.000000 0.000000
# 4 0.000000 0.000000 0.000000 0.147194 0.000000 0.000000
# 5 0.000000 0.000000 0.000000 0.000000 0.094944 0.000000
# 6 0.000000 0.000000 0.000000 0.000000 0.000000 0.029624
#
#
# Mechanical properties :
#
#
# Convention : Reuss Voigt Hill
#
# Bulk Modulus (GPa) = 44.84856 50.59480 47.72168
# Shear Modulus (GPa) = 14.82657 23.34908 19.08783
#
# Velocity S-wave (km/s) = 2.77397 3.48110 3.14745
# Velocity P-wave (km/s) = 5.79103 6.51274 6.16246
#
# Compressibility (1/GPa) = 0.02229726
#
# Stress axis : x y z
#
# Youngs Moduli (GPa) = 54.08128 88.05720 96.89192
#
# Poissons Ratio (x) = 0.24290 0.26826
# Poissons Ratio (y) = 0.14918 0.33021
# Poissons Ratio (z) = 0.14973 0.30010
#
# Static dielectric constant tensor:
#      x y z
#    x 1.668480 0.000000 0.000000 
#    y 0.000000 1.740860 0.000000 
#    z 0.000000 0.000000 1.695270 
# 
# From -- ./inp_files/30235.got.cif
#   From: 2010.05.17/outbox.cif.g08.bks.cpg/sg66_16_cif.got.tgz:30235.got - 2010.06.03 17:51:23.
