data_PCOD9496623
_publ_section_title
;
Structure prediction by ZEFSAII (Michael W. Deem and Ramdas Pophale) SiO2 
 PCOD9496623
Probable space group: C C C M
;
_chemical_formula_sum "Si O2"
_cell_formula_units_Z 80
_cell_length_a 15.206429
_cell_length_b 22.193061
_cell_length_c 13.550112
_cell_angle_alpha 90.000000
_cell_angle_beta 90.000000
_cell_angle_gamma 90.000000
_cell_volume 4572.853944
_symmetry_space_group_name_H-M "C C C M"
_symmetry_group_IT_number 66
_symmetry_cell_setting 'orthorhombic'
loop_
_space_group_symop_operation_xyz
x,y,z
-x,-y,z
x,-y,1/2-z
-x,y,1/2-z
-x,-y,-z
x,y,-z
-x,y,1/2+z
x,-y,1/2+z
1/2+x,1/2+y,z
1/2-x,1/2-y,z
1/2+x,1/2-y,1/2-z
1/2-x,1/2+y,1/2-z
1/2-x,1/2-y,-z
1/2+x,1/2+y,-z
1/2-x,1/2+y,1/2+z
1/2+x,1/2-y,1/2+z
loop_
_atom_site_type_symbol
_atom_site_label
_atom_site_fract_x
_atom_site_fract_y
_atom_site_fract_z
Si Si1 0.405596 0.070983 0.718341
Si Si2 0.841185 0.418672 0.000000
Si Si3 0.708095 0.480013 0.500000
Si Si4 0.573366 0.352771 0.826005
Si Si5 0.954381 0.063114 0.000000
Si Si6 0.215851 0.068870 0.209952
Si Si7 0.695252 0.689396 0.500000
O O1 0.500000 0.096552 0.750000
O O2 0.394001 0.083036 0.602084
O O3 0.314253 0.092758 0.767843
O O4 0.407245 0.000000 0.750000
O O5 0.766403 0.365930 0.000000
O O6 0.801004 0.486302 0.000000
O O7 0.645439 0.538828 0.500000
O O8 0.697198 0.439471 0.404659
O O9 0.500000 0.327387 0.750000
O O10 0.644066 0.390700 0.763445
O O11 0.631756 0.313985 0.903395
O O12 0.526915 0.399202 0.902116
O O13 0.000000 0.000000 0.000000
O O14 0.211055 0.000000 0.250000
O O15 0.750000 0.750000 0.500000
#
# Coordination Sequence:
#
# PCOD9496623 Si02
#       7
#    16   8   8  16   8  16   8
#     4  10  20  30  50  78 112 158 194 234 282 334
#     4  12  18  37  55  75 110 143 202 243 268 364
#     4  12  18  28  49  78 117 167 193 212 280 370
#     4  11  22  35  56  88 120 147 196 242 280 356
#     4  11  19  28  46  80 123 165 187 207 268 360
#     4  11  18  31  48  78 124 165 189 224 283 348
#     4  11  23  44  67  80 102 160 203 252 300 333
#
# _framework density 17.494546
#
# number of rings (size 3 to 8) (size 9 to 14) (size 15 to 20)
#    0.000    1.000   10.000    1.200    0.000    3.200 
#    0.000    1.000    0.000    0.000    0.000    3.500 
#    0.000    0.000    0.000    0.000    0.000    0.000 
#
# Total GULP energy -222747.166241 kJ/mol
# GULP energy per Si atom -5568.679156 kJ/mol
# Density = 1.745473 g / cm^3
# Si number density = 17.494546 Si / 1000 Ang^3
#
#
#
# Elastic Constant Matrix: (Units=GPa)
#
#
# Indices 1 2 3 4 5 6 
#
# 1 108.7040 28.7078 55.8569 0.0000 0.0000 0.0000
# 2 28.7078 49.6637 29.6927 0.0000 0.0000 0.0000
# 3 55.8569 29.6927 165.7351 0.0000 0.0000 0.0000
# 4 0.0000 0.0000 0.0000 9.1484 0.0000 0.0000
# 5 0.0000 0.0000 0.0000 0.0000 30.4910 0.0000
# 6 0.0000 0.0000 0.0000 0.0000 0.0000 20.3545
#
#
#
# Elastic Compliance Matrix: (Units=1/GPa)
#
#
# Indices 1 2 3 4 5 6 
#
# 1 0.012196 -0.005143 -0.003189 0.000000 0.000000 0.000000
# 2 -0.005143 0.024720 -0.002695 0.000000 0.000000 0.000000
# 3 -0.003189 -0.002695 0.007591 0.000000 0.000000 0.000000
# 4 0.000000 0.000000 0.000000 0.109309 0.000000 0.000000
# 5 0.000000 0.000000 0.000000 0.000000 0.032797 0.000000
# 6 0.000000 0.000000 0.000000 0.000000 0.000000 0.049129
#
#
# Mechanical properties :
#
#
# Convention : Reuss Voigt Hill
#
# Bulk Modulus (GPa) = 44.53886 61.40195 52.97040
# Shear Modulus (GPa) = 18.84789 25.98847 22.41818
#
# Velocity S-wave (km/s) = 3.28587 3.85842 3.58360
# Velocity P-wave (km/s) = 6.31743 7.41781 6.88962
#
# Compressibility (1/GPa) = 0.02245230
#
# Stress axis : x y z
#
# Youngs Moduli (GPa) = 81.99255 40.45306 131.72844
#
# Poissons Ratio (x) = 0.20806 0.42008
# Poissons Ratio (y) = 0.42172 0.35505
# Poissons Ratio (z) = 0.26147 0.10903
#
# Static dielectric constant tensor:
#      x y z
#    x 2.734100 0.000000 0.000000 
#    y 0.000000 15.025390 0.000000 
#    z 0.000000 0.000000 1.623110 
# 
# From -- ./inp_files/16421.got.cif
#   From: 2010.05.17/outbox.cif.g08.bks.cpg/sg66_9_cif.got.tgz:16421.got - 2010.06.03 17:51:23.
