data_PCOD9496624
_publ_section_title
;
Structure prediction by ZEFSAII (Michael W. Deem and Ramdas Pophale) SiO2 
 PCOD9496624
Probable space group: C C C M
;
_chemical_formula_sum "Si O2"
_cell_formula_units_Z 88
_cell_length_a 23.788703
_cell_length_b 23.644523
_cell_length_c 9.046611
_cell_angle_alpha 90.000000
_cell_angle_beta 90.000000
_cell_angle_gamma 90.000000
_cell_volume 5088.470224
_symmetry_space_group_name_H-M "C C C M"
_symmetry_group_IT_number 66
_symmetry_cell_setting 'orthorhombic'
loop_
_space_group_symop_operation_xyz
x,y,z
-x,-y,z
x,-y,1/2-z
-x,y,1/2-z
-x,-y,-z
x,y,-z
-x,y,1/2+z
x,-y,1/2+z
1/2+x,1/2+y,z
1/2-x,1/2-y,z
1/2+x,1/2-y,1/2-z
1/2-x,1/2+y,1/2-z
1/2-x,1/2-y,-z
1/2+x,1/2+y,-z
1/2-x,1/2+y,1/2+z
1/2+x,1/2-y,1/2+z
loop_
_atom_site_type_symbol
_atom_site_label
_atom_site_fract_x
_atom_site_fract_y
_atom_site_fract_z
Si Si1 0.338673 0.155889 0.837539
Si Si2 0.168052 0.148964 0.669101
Si Si3 0.247436 0.060003 0.172648
Si Si4 0.445079 0.811977 0.824914
Si Si5 0.443541 0.688071 0.323015
Si Si6 0.750000 0.750000 0.251692
O O1 0.303167 0.098724 0.824017
O O2 0.386236 0.159037 0.714054
O O3 0.294211 0.208006 0.828527
O O4 0.365796 0.158870 0.000000
O O5 0.151627 0.138576 0.500000
O O6 0.202194 0.097093 0.738295
O O7 0.113545 0.159321 0.768944
O O8 0.208789 0.204502 0.670575
O O9 0.255206 0.000000 0.250000
O O10 0.231530 0.053654 0.000000
O O11 0.500000 0.839680 0.750000
O O12 0.440103 0.751090 0.745236
O O13 0.452607 0.805485 0.000000
O O14 0.500000 0.662566 0.250000
O O15 0.447745 0.689711 0.500000
#
# Coordination Sequence:
#
# PCOD9496624 Si02
#       6
#    16  16  16  16  16   8
#     4  10  20  34  54  79 110 143 178 222 271 324
#     4  11  21  34  54  81 112 144 180 224 270 322
#     4  10  22  39  58  81 108 143 184 226 274 321
#     4  11  21  33  51  76 109 146 182 219 266 321
#     4  11  21  34  52  76 110 147 183 221 266 321
#     4  10  20  30  52  78 114 140 180 214 270 324
#
# _framework density 17.293998999999999
#
# number of rings (size 3 to 8) (size 9 to 14) (size 15 to 20)
#    0.000    1.455    1.818    6.000    0.000    5.091 
#    0.000    0.000    0.000    1.091    0.000    7.636 
#    0.000    0.000    0.000    0.000    0.000    0.000 
#
# Total GULP energy -245374.868250 kJ/mol
# GULP energy per Si atom -5576.701551 kJ/mol
# Density = 1.725464 g / cm^3
# Si number density = 17.293999 Si / 1000 Ang^3
#
#
#
# Elastic Constant Matrix: (Units=GPa)
#
#
# Indices 1 2 3 4 5 6 
#
# 1 96.0824 23.8764 52.2567 0.0000 0.0000 0.0000
# 2 23.8764 93.9154 38.1214 0.0000 0.0000 0.0000
# 3 52.2567 38.1214 171.9222 0.0000 0.0000 0.0000
# 4 0.0000 0.0000 0.0000 14.8505 0.0000 0.0000
# 5 0.0000 0.0000 0.0000 0.0000 24.4138 0.0000
# 6 0.0000 0.0000 0.0000 0.0000 0.0000 10.2363
#
#
#
# Elastic Compliance Matrix: (Units=1/GPa)
#
#
# Indices 1 2 3 4 5 6 
#
# 1 0.012750 -0.001833 -0.003469 0.000000 0.000000 0.000000
# 2 -0.001833 0.011965 -0.002096 0.000000 0.000000 0.000000
# 3 -0.003469 -0.002096 0.007336 0.000000 0.000000 0.000000
# 4 0.000000 0.000000 0.000000 0.067338 0.000000 0.000000
# 5 0.000000 0.000000 0.000000 0.000000 0.040960 0.000000
# 6 0.000000 0.000000 0.000000 0.000000 0.000000 0.097691
#
#
# Mechanical properties :
#
#
# Convention : Reuss Voigt Hill
#
# Bulk Modulus (GPa) = 57.95667 65.60323 61.77995
# Shear Modulus (GPa) = 19.33584 26.41117 22.87351
#
# Velocity S-wave (km/s) = 3.34738 3.91216 3.64074
# Velocity P-wave (km/s) = 6.96601 7.64350 7.31261
#
# Compressibility (1/GPa) = 0.01725427
#
# Stress axis : x y z
#
# Youngs Moduli (GPa) = 78.43153 83.57941 136.32022
#
# Poissons Ratio (x) = 0.15323 0.47288
# Poissons Ratio (y) = 0.14380 0.28569
# Poissons Ratio (z) = 0.27207 0.17516
#
# Static dielectric constant tensor:
#      x y z
#    x 1.627750 0.000000 0.000000 
#    y 0.000000 1.557420 0.000000 
#    z 0.000000 0.000000 1.598890 
# 
# From -- ./inp_files/7798.got.cif
#   From: 2010.05.17/outbox.cif.g08.bks.cpg/sg66_4_cif.got.tgz:7798.got - 2010.06.03 17:51:23.
