data_PCOD9496699
_publ_section_title
;
Structure prediction by ZEFSAII (Michael W. Deem and Ramdas Pophale) SiO2 
 PCOD9496699
Probable space group: C C C M
;
_chemical_formula_sum "Si O2"
_cell_formula_units_Z 96
_cell_length_a 9.621637
_cell_length_b 20.829992
_cell_length_c 24.738846
_cell_angle_alpha 90.000000
_cell_angle_beta 90.000000
_cell_angle_gamma 90.000000
_cell_volume 4958.125419
_symmetry_space_group_name_H-M "C C C M"
_symmetry_group_IT_number 66
_symmetry_cell_setting 'orthorhombic'
loop_
_space_group_symop_operation_xyz
x,y,z
-x,-y,z
x,-y,1/2-z
-x,y,1/2-z
-x,-y,-z
x,y,-z
-x,y,1/2+z
x,-y,1/2+z
1/2+x,1/2+y,z
1/2-x,1/2-y,z
1/2+x,1/2-y,1/2-z
1/2-x,1/2+y,1/2-z
1/2-x,1/2-y,-z
1/2+x,1/2+y,-z
1/2-x,1/2+y,1/2+z
1/2+x,1/2-y,1/2+z
loop_
_atom_site_type_symbol
_atom_site_label
_atom_site_fract_x
_atom_site_fract_y
_atom_site_fract_z
Si Si1 0.122608 0.295693 0.292651
Si Si2 0.024357 0.365399 0.940387
Si Si3 0.397305 0.751657 0.369752
Si Si4 0.035626 0.130144 0.936379
Si Si5 0.727964 0.978653 0.062305
Si Si6 0.242260 0.608860 0.118069
O O1 0.250000 0.250000 0.274583
O O2 0.188326 0.355788 0.327120
O O3 0.000000 0.315547 0.250000
O O4 0.032928 0.250387 0.332934
O O5 0.862165 0.363617 0.927489
O O6 0.095413 0.320702 0.897220
O O7 0.089130 0.435873 0.936146
O O8 0.055282 0.341331 0.000000
O O9 0.250000 0.750000 0.340401
O O10 0.401254 0.696567 0.414741
O O11 0.144051 0.071218 0.930430
O O12 0.899512 0.120882 0.899781
O O13 0.001525 0.134179 0.000000
O O14 0.726035 0.032327 0.108586
O O15 0.740187 0.004925 0.000000
#
# Coordination Sequence:
#
# PCOD9496699 Si02
#       6
#    16  16  16  16  16  16
#     4  11  24  45  68  92 110 148 205 276 340 380
#     4  10  20  32  54  85 125 174 211 243 288 352
#     4  11  21  37  59  91 125 163 214 258 306 361
#     4  11  21  34  58  93 139 179 205 244 297 368
#     4  10  20  35  57  89 133 183 212 231 283 368
#     4  11  22  37  58  89 123 157 212 253 306 372
#
# _framework density 19.362157
#
# number of rings (size 3 to 8) (size 9 to 14) (size 15 to 20)
#    0.000    1.333    3.333    3.500    0.000    3.333 
#    0.000    2.500    0.000    8.000    0.000    1.167 
#    0.000    0.000    0.000    0.000    0.000    0.000 
#
# Total GULP energy -267378.813233 kJ/mol
# GULP energy per Si atom -5570.391942 kJ/mol
# Density = 1.931809 g / cm^3
# Si number density = 19.362157 Si / 1000 Ang^3
#
#
#
# Elastic Constant Matrix: (Units=GPa)
#
#
# Indices 1 2 3 4 5 6 
#
# 1 71.0245 3.8102 19.4060 0.0000 0.0000 0.0000
# 2 3.8102 68.5413 39.9993 0.0000 0.0000 0.0000
# 3 19.4060 39.9993 87.0095 0.0000 0.0000 0.0000
# 4 0.0000 0.0000 0.0000 13.0152 0.0000 0.0000
# 5 0.0000 0.0000 0.0000 0.0000 30.2760 0.0000
# 6 0.0000 0.0000 0.0000 0.0000 0.0000 28.4833
#
#
#
# Elastic Compliance Matrix: (Units=1/GPa)
#
#
# Indices 1 2 3 4 5 6 
#
# 1 0.015111 0.001540 -0.004078 0.000000 0.000000 0.000000
# 2 0.001540 0.020096 -0.009582 0.000000 0.000000 0.000000
# 3 -0.004078 -0.009582 0.016807 0.000000 0.000000 0.000000
# 4 0.000000 0.000000 0.000000 0.076834 0.000000 0.000000
# 5 0.000000 0.000000 0.000000 0.000000 0.033029 0.000000
# 6 0.000000 0.000000 0.000000 0.000000 0.000000 0.035108
#
#
# Mechanical properties :
#
#
# Convention : Reuss Voigt Hill
#
# Bulk Modulus (GPa) = 36.00426 39.22292 37.61359
# Shear Modulus (GPa) = 21.69345 25.24554 23.46950
#
# Velocity S-wave (km/s) = 3.35088 3.61482 3.48535
# Velocity P-wave (km/s) = 5.79713 6.14199 5.97205
#
# Compressibility (1/GPa) = 0.02777449
#
# Stress axis : x y z
#
# Youngs Moduli (GPa) = 66.17544 49.76147 59.49746
#
# Poissons Ratio (x) = -0.07663 0.24265
# Poissons Ratio (y) = -0.10191 0.57009
# Poissons Ratio (z) = 0.26988 0.47680
#
# Static dielectric constant tensor:
#      x y z
#    x 1.740080 0.000000 0.000000 
#    y 0.000000 1.678530 0.000000 
#    z 0.000000 0.000000 1.673780 
# 
# From -- ./inp_files/62615.got.cif
#   From: 2010.05.17/outbox.cif.g08.bks.cpg/sg66_32_cif.got.tgz:62615.got - 2010.06.03 17:51:23.
