data_PCOD9496691
_publ_section_title
;
Structure prediction by ZEFSAII (Michael W. Deem and Ramdas Pophale) SiO2 
 PCOD9496691
Probable space group: C C C M
;
_chemical_formula_sum "Si O2"
_cell_formula_units_Z 112
_cell_length_a 15.010736
_cell_length_b 24.999711
_cell_length_c 13.546178
_cell_angle_alpha 90.000000
_cell_angle_beta 90.000000
_cell_angle_gamma 90.000000
_cell_volume 5083.393779
_symmetry_space_group_name_H-M "C C C M"
_symmetry_group_IT_number 66
_symmetry_cell_setting 'orthorhombic'
loop_
_space_group_symop_operation_xyz
x,y,z
-x,-y,z
x,-y,1/2-z
-x,y,1/2-z
-x,-y,-z
x,y,-z
-x,y,1/2+z
x,-y,1/2+z
1/2+x,1/2+y,z
1/2-x,1/2-y,z
1/2+x,1/2-y,1/2-z
1/2-x,1/2+y,1/2-z
1/2-x,1/2-y,-z
1/2+x,1/2+y,-z
1/2-x,1/2+y,1/2+z
1/2+x,1/2-y,1/2+z
loop_
_atom_site_type_symbol
_atom_site_label
_atom_site_fract_x
_atom_site_fract_y
_atom_site_fract_z
Si Si1 0.395333 0.999136 0.111192
Si Si2 0.377053 0.386643 0.305131
Si Si3 0.185694 0.602682 0.181890
Si Si4 0.846230 0.222505 0.888163
Si Si5 0.529490 0.821160 0.637691
Si Si6 0.455313 0.558826 0.613593
Si Si7 0.156099 0.376848 0.103147
O O1 0.351947 0.956838 0.183984
O O2 0.500000 0.000000 0.130684
O O3 0.361921 0.059656 0.106909
O O4 0.381440 0.977035 0.000000
O O5 0.284934 0.402642 0.356919
O O6 0.370513 0.322323 0.307441
O O7 0.461256 0.401968 0.371205
O O8 0.389900 0.419673 0.201374
O O9 0.110382 0.636695 0.127154
O O10 0.196743 0.631852 0.288746
O O11 0.750000 0.250000 0.865873
O O12 0.925261 0.265889 0.892535
O O13 0.837179 0.199886 0.000000
O O14 0.500000 0.815120 0.750000
O O15 0.438343 0.846294 0.597431
O O16 0.500000 0.500000 0.631172
O O17 0.421319 0.559808 0.500000
O O18 0.205444 0.364581 0.000000
#
# Coordination Sequence:
#
# PCOD9496691 Si02
#       7
#    16  16  16  16  16  16  16
#     4  10  20  32  52  81 118 165 209 252 299 359
#     4  11  23  42  67  98 129 160 213 270 331 392
#     4  11  22  36  58  88 126 166 211 261 312 375
#     4  11  23  39  62  93 128 168 219 276 323 373
#     4  10  21  37  58  84 122 172 212 259 310 368
#     4  10  24  47  74 100 129 163 206 272 352 423
#     4  10  21  36  54  81 120 167 216 252 301 368
#
# _framework density 22.032526000000001
#
# number of rings (size 3 to 8) (size 9 to 14) (size 15 to 20)
#    0.000    1.571    2.857    2.143    2.000    5.143 
#    0.000    2.857    0.000    0.429    0.000    0.000 
#    0.000    0.000    0.000    0.000    0.000    0.000 
#
# Total GULP energy -311999.180651 kJ/mol
# GULP energy per Si atom -5571.413940 kJ/mol
# Density = 2.198238 g / cm^3
# Si number density = 22.032526 Si / 1000 Ang^3
#
#
#
# Elastic Constant Matrix: (Units=GPa)
#
#
# Indices 1 2 3 4 5 6 
#
# 1 68.8762 19.9776 -11.8232 0.0000 0.0000 0.0000
# 2 19.9776 117.7292 27.9011 0.0000 0.0000 0.0000
# 3 -11.8232 27.9011 110.9029 0.0000 0.0000 0.0000
# 4 0.0000 0.0000 0.0000 6.4005 0.0000 0.0000
# 5 0.0000 0.0000 0.0000 0.0000 -16.3563 0.0000
# 6 0.0000 0.0000 0.0000 0.0000 0.0000 143.9619
#
#
#
# Elastic Compliance Matrix: (Units=1/GPa)
#
#
# Indices 1 2 3 4 5 6 
#
# 1 0.015909 -0.003298 0.002526 0.000000 0.000000 0.000000
# 2 -0.003298 0.009716 -0.002796 0.000000 0.000000 0.000000
# 3 0.002526 -0.002796 0.009990 0.000000 0.000000 0.000000
# 4 0.000000 0.000000 0.000000 0.156239 0.000000 0.000000
# 5 0.000000 0.000000 0.000000 0.000000 -0.061139 0.000000
# 6 0.000000 0.000000 0.000000 0.000000 0.000000 0.006946
#
#
# Mechanical properties :
#
#
# Convention : Reuss Voigt Hill
#
# Bulk Modulus (GPa) = 35.11478 41.06882 38.09180
# Shear Modulus (GPa) = 32.40626 44.23139 38.31883
#
# Velocity S-wave (km/s) = 3.83931 4.48543 4.17489
# Velocity P-wave (km/s) = 5.96875 6.74581 6.36915
#
# Compressibility (1/GPa) = 0.02847804
#
# Stress axis : x y z
#
# Youngs Moduli (GPa) = 62.85740 102.91868 100.10396
#
# Poissons Ratio (x) = 0.33945 -0.25284
# Poissons Ratio (y) = 0.20732 0.27990
# Poissons Ratio (z) = -0.15877 0.28777
#
# Static dielectric constant tensor:
#      x y z
#    x 1.777920 0.000000 0.000000 
#    y 0.000000 1.752880 0.000000 
#    z 0.000000 0.000000 1.933950 
# 
# From -- ./inp_files/28664.got.cif
#   From: 2010.05.17/outbox.cif.g08.bks.cpg/sg66_15_cif.got.tgz:28664.got - 2010.06.03 17:51:23.
