data_PCOD9496837
_publ_section_title
;
Structure prediction by ZEFSAII (Michael W. Deem and Ramdas Pophale) SiO2 
 PCOD9496837
Probable space group: C C C M
;
_chemical_formula_sum "Si O2"
_cell_formula_units_Z 96
_cell_length_a 23.589499
_cell_length_b 8.372612
_cell_length_c 26.016977
_cell_angle_alpha 90.000000
_cell_angle_beta 90.000000
_cell_angle_gamma 90.000000
_cell_volume 5138.501837
_symmetry_space_group_name_H-M "C C C M"
_symmetry_group_IT_number 66
_symmetry_cell_setting 'orthorhombic'
loop_
_space_group_symop_operation_xyz
x,y,z
-x,-y,z
x,-y,1/2-z
-x,y,1/2-z
-x,-y,-z
x,y,-z
-x,y,1/2+z
x,-y,1/2+z
1/2+x,1/2+y,z
1/2-x,1/2-y,z
1/2+x,1/2-y,1/2-z
1/2-x,1/2+y,1/2-z
1/2-x,1/2-y,-z
1/2+x,1/2+y,-z
1/2-x,1/2+y,1/2+z
1/2+x,1/2-y,1/2+z
loop_
_atom_site_type_symbol
_atom_site_label
_atom_site_fract_x
_atom_site_fract_y
_atom_site_fract_z
Si Si1 0.865940 0.984967 0.906670
Si Si2 0.564816 0.440358 0.305742
Si Si3 0.036863 0.634220 0.359150
Si Si4 0.372157 0.884911 0.559770
Si Si5 0.533084 0.669420 0.556230
Si Si6 0.748011 0.942132 0.558574
O O1 0.894998 0.998682 0.851248
O O2 0.873597 0.807576 0.930825
O O3 0.901039 0.119331 0.937888
O O4 0.799092 0.006453 0.905266
O O5 0.500000 0.500000 0.312492
O O6 0.583118 0.500000 0.250000
O O7 0.562632 0.251847 0.317015
O O8 0.083404 0.558614 0.397425
O O9 0.000000 0.500000 0.333001
O O10 0.995519 0.732120 0.398041
O O11 0.386878 0.915259 0.500000
O O12 0.311692 0.971104 0.569138
O O13 0.500000 0.500000 0.556832
O O14 0.524011 0.744510 0.500000
O O15 0.763461 0.991297 0.500000
O O16 0.750000 0.750000 0.559722
#
# Coordination Sequence:
#
# PCOD9496837 Si02
#       6
#    16  16  16  16  16  16
#     4  11  19  35  57  78 105 152 200 237 280 338
#     4  10  20  39  62  81 107 142 190 240 292 349
#     4  11  22  35  55  88 120 151 185 235 297 348
#     4  10  20  34  52  81 119 159 195 228 269 339
#     4  11  19  31  52  83 116 153 191 225 272 343
#     4  10  22  35  51  79 114 156 193 230 280 338
#
# _framework density 18.682489
#
# number of rings (size 3 to 8) (size 9 to 14) (size 15 to 20)
#    0.000    1.500    5.000    2.500    2.333    2.667 
#    0.000    1.667    0.000    4.000    0.000    0.000 
#    0.000    0.000    0.000    0.000    0.000    0.000 
#
# Total GULP energy -267680.943091 kJ/mol
# GULP energy per Si atom -5576.686314 kJ/mol
# Density = 1.863997 g / cm^3
# Si number density = 18.682489 Si / 1000 Ang^3
#
#
#
# Elastic Constant Matrix: (Units=GPa)
#
#
# Indices 1 2 3 4 5 6 
#
# 1 96.0710 23.1933 28.8018 0.0000 0.0000 0.0000
# 2 23.1933 22.4245 29.3827 0.0000 0.0000 0.0000
# 3 28.8018 29.3827 98.7230 0.0000 0.0000 0.0000
# 4 0.0000 0.0000 0.0000 3.1680 0.0000 0.0000
# 5 0.0000 0.0000 0.0000 0.0000 -35.7298 0.0000
# 6 0.0000 0.0000 0.0000 0.0000 0.0000 34.6915
#
#
#
# Elastic Compliance Matrix: (Units=1/GPa)
#
#
# Indices 1 2 3 4 5 6 
#
# 1 0.013881 -0.014837 0.000366 0.000000 0.000000 0.000000
# 2 -0.014837 0.088961 -0.022149 0.000000 0.000000 0.000000
# 3 0.000366 -0.022149 0.016615 0.000000 0.000000 0.000000
# 4 0.000000 0.000000 0.000000 0.315653 0.000000 0.000000
# 5 0.000000 0.000000 0.000000 0.000000 -0.027988 0.000000
# 6 0.000000 0.000000 0.000000 0.000000 0.000000 0.028825
#
#
# Mechanical properties :
#
#
# Convention : Reuss Voigt Hill
#
# Bulk Modulus (GPa) = 21.63663 42.21935 31.92799
# Shear Modulus (GPa) = 9.53123 9.48200 9.50662
#
# Velocity S-wave (km/s) = 2.26114 2.25530 2.25822
# Velocity P-wave (km/s) = 4.29225 5.42487 4.89145
#
# Compressibility (1/GPa) = 0.04621792
#
# Stress axis : x y z
#
# Youngs Moduli (GPa) = 72.04061 11.24092 60.18807
#
# Poissons Ratio (x) = 0.16678 -0.02203
# Poissons Ratio (y) = 1.06884 1.33308
# Poissons Ratio (z) = -0.02637 0.24897
#
# Static dielectric constant tensor:
#      x y z
#    x 1.679170 0.000000 0.000000 
#    y 0.000000 1.708870 0.000000 
#    z 0.000000 0.000000 1.631200 
# 
# From -- ./inp_files/65669.got.cif
#   From: 2010.05.17/outbox.cif.g08.bks.cpg/sg66_33_cif.got.tgz:65669.got - 2010.06.03 17:51:23.
