data_PCOD9496307
_publ_section_title
;
Structure prediction by ZEFSAII (Michael W. Deem and Ramdas Pophale) SiO2 
 PCOD9496307
Probable space group: C C C M
;
_chemical_formula_sum "Si O2"
_cell_formula_units_Z 80
_cell_length_a 15.686468
_cell_length_b 12.372140
_cell_length_c 20.141847
_cell_angle_alpha 90.000000
_cell_angle_beta 90.000000
_cell_angle_gamma 90.000000
_cell_volume 3909.032546
_symmetry_space_group_name_H-M "C C C M"
_symmetry_group_IT_number 66
_symmetry_cell_setting 'orthorhombic'
loop_
_space_group_symop_operation_xyz
x,y,z
-x,-y,z
x,-y,1/2-z
-x,y,1/2-z
-x,-y,-z
x,y,-z
-x,y,1/2+z
x,-y,1/2+z
1/2+x,1/2+y,z
1/2-x,1/2-y,z
1/2+x,1/2-y,1/2-z
1/2-x,1/2+y,1/2-z
1/2-x,1/2-y,-z
1/2+x,1/2+y,-z
1/2-x,1/2+y,1/2+z
1/2+x,1/2-y,1/2+z
loop_
_atom_site_type_symbol
_atom_site_label
_atom_site_fract_x
_atom_site_fract_y
_atom_site_fract_z
Si Si1 0.805203 0.125542 0.230376
Si Si2 0.378820 0.925043 0.186882
Si Si3 0.141634 0.819077 0.376105
Si Si4 0.306066 0.917447 0.423999
Si Si5 0.966602 0.207165 0.175001
O O1 0.707990 0.138514 0.207403
O O2 0.828426 0.185067 0.299138
O O3 0.874988 0.150402 0.174333
O O4 0.812586 0.000000 0.250000
O O5 0.449202 0.835747 0.169207
O O6 0.401076 0.000000 0.250000
O O7 0.351640 0.001547 0.126471
O O8 0.204671 0.905771 0.409169
O O9 0.159344 0.703219 0.409249
O O10 0.040248 0.835558 0.373007
O O11 0.320483 0.946861 0.500000
O O12 0.000000 0.187696 0.250000
#
# Coordination Sequence:
#
# PCOD9496307 Si02
#       5
#    16  16  16  16  16
#     4  10  19  34  59  90 122 156 198 246 302 363
#     4  11  20  37  60  89 123 155 201 253 309 364
#     4  10  20  37  55  86 118 154 197 248 299 356
#     4  11  23  40  63  84 116 164 208 244 303 382
#     4  10  22  31  56  91 126 152 195 256 310 355
#
# _framework density 20.465422
#
# number of rings (size 3 to 8) (size 9 to 14) (size 15 to 20)
#    0.000    1.600    4.000    4.200    5.600    6.400 
#    0.000    3.000    0.000    6.000    0.000    0.000 
#    0.000    0.000    0.000    0.000    0.000    0.000 
#
# Total GULP energy -223377.278351 kJ/mol
# GULP energy per Si atom -5584.431959 kJ/mol
# Density = 2.041884 g / cm^3
# Si number density = 20.465422 Si / 1000 Ang^3
#
#
#
# Elastic Constant Matrix: (Units=GPa)
#
#
# Indices 1 2 3 4 5 6 
#
# 1 83.0843 1.8313 7.4953 0.0000 0.0000 0.0000
# 2 1.8313 12.0238 5.5721 0.0000 0.0000 0.0000
# 3 7.4953 5.5721 99.9783 0.0000 0.0000 0.0000
# 4 0.0000 0.0000 0.0000 19.5897 0.0000 0.0000
# 5 0.0000 0.0000 0.0000 0.0000 -38.5165 0.0000
# 6 0.0000 0.0000 0.0000 0.0000 0.0000 27.1010
#
#
#
# Elastic Compliance Matrix: (Units=1/GPa)
#
#
# Indices 1 2 3 4 5 6 
#
# 1 0.012143 -0.001465 -0.000829 0.000000 0.000000 0.000000
# 2 -0.001465 0.085550 -0.004658 0.000000 0.000000 0.000000
# 3 -0.000829 -0.004658 0.010324 0.000000 0.000000 0.000000
# 4 0.000000 0.000000 0.000000 0.051047 0.000000 0.000000
# 5 0.000000 0.000000 0.000000 0.000000 -0.025963 0.000000
# 6 0.000000 0.000000 0.000000 0.000000 0.000000 0.036899
#
#
# Mechanical properties :
#
#
# Convention : Reuss Voigt Hill
#
# Bulk Modulus (GPa) = 10.62558 24.98709 17.80634
# Shear Modulus (GPa) = 23.22605 13.64737 18.43671
#
# Velocity S-wave (km/s) = 3.37247 2.58515 3.00471
# Velocity P-wave (km/s) = 4.51309 4.59854 4.55602
#
# Compressibility (1/GPa) = 0.09411251
#
# Stress axis : x y z
#
# Youngs Moduli (GPa) = 82.35181 11.68907 96.86260
#
# Poissons Ratio (x) = 0.01713 0.08027
# Poissons Ratio (y) = 0.12068 0.45119
# Poissons Ratio (z) = 0.06824 0.05445
#
# Static dielectric constant tensor:
#      x y z
#    x 1.817270 0.000000 0.000000 
#    y 0.000000 1.795550 0.000000 
#    z 0.000000 0.000000 1.683780 
# 
# From -- ./inp_files/49772.got.cif
#   From: 2010.05.17/outbox.cif.g08.bks.cpg/sg66_25_cif.got.tgz:49772.got - 2010.06.03 17:51:23.
