data_PCOD9496607
_publ_section_title
;
Structure prediction by ZEFSAII (Michael W. Deem and Ramdas Pophale) SiO2 
 PCOD9496607
Probable space group: C C C M
;
_chemical_formula_sum "Si O2"
_cell_formula_units_Z 64
_cell_length_a 8.919845
_cell_length_b 11.735239
_cell_length_c 27.151764
_cell_angle_alpha 90.000000
_cell_angle_beta 90.000000
_cell_angle_gamma 90.000000
_cell_volume 2842.151975
_symmetry_space_group_name_H-M "C C C M"
_symmetry_group_IT_number 66
_symmetry_cell_setting 'orthorhombic'
loop_
_space_group_symop_operation_xyz
x,y,z
-x,-y,z
x,-y,1/2-z
-x,y,1/2-z
-x,-y,-z
x,y,-z
-x,y,1/2+z
x,-y,1/2+z
1/2+x,1/2+y,z
1/2-x,1/2-y,z
1/2+x,1/2-y,1/2-z
1/2-x,1/2+y,1/2-z
1/2-x,1/2-y,-z
1/2+x,1/2+y,-z
1/2-x,1/2+y,1/2+z
1/2+x,1/2-y,1/2+z
loop_
_atom_site_type_symbol
_atom_site_label
_atom_site_fract_x
_atom_site_fract_y
_atom_site_fract_z
Si Si1 0.669389 0.506318 0.876193
Si Si2 0.870367 0.647946 0.943758
Si Si3 0.071008 0.626672 0.146951
Si Si4 0.397264 0.312285 0.208857
O O1 0.500000 0.500000 0.894084
O O2 0.777423 0.543891 0.920416
O O3 0.750892 0.394923 0.854334
O O4 0.659905 0.601742 0.833355
O O5 0.750000 0.750000 0.941331
O O6 0.006730 0.665973 0.906217
O O7 0.916095 0.631259 0.000000
O O8 0.000000 0.500000 0.156998
O O9 0.001200 0.714648 0.184917
O O10 0.500000 0.369476 0.250000
O O11 0.250000 0.250000 0.229281
#
# Coordination Sequence:
#
# PCOD9496607 Si02
#       4
#    16  16  16  16
#     4  11  24  41  62  96 135 166 211 273 331 392
#     4  10  19  40  72  95 124 169 217 264 325 403
#     4  10  20  42  68  91 125 168 218 265 326 394
#     4  12  25  45  64  93 128 173 225 276 331 388
#
# _framework density 22.518149999999999
#
# number of rings (size 3 to 8) (size 9 to 14) (size 15 to 20)
#    0.000    1.250    7.500    0.000    3.500    6.000 
#    0.000    0.000    0.000    3.000    0.000    0.000 
#    0.000    0.000    0.000    0.000    0.000    0.000 
#
# Total GULP energy -178869.371060 kJ/mol
# GULP energy per Si atom -5589.667846 kJ/mol
# Density = 2.246690 g / cm^3
# Si number density = 22.518150 Si / 1000 Ang^3
#
#
#
# Elastic Constant Matrix: (Units=GPa)
#
#
# Indices 1 2 3 4 5 6 
#
# 1 115.5561 20.6119 24.6336 0.0000 0.0000 0.0000
# 2 20.6119 74.9217 28.0684 0.0000 0.0000 0.0000
# 3 24.6336 28.0684 95.3796 0.0000 0.0000 0.0000
# 4 0.0000 0.0000 0.0000 -6.3077 0.0000 0.0000
# 5 0.0000 0.0000 0.0000 0.0000 23.1247 0.0000
# 6 0.0000 0.0000 0.0000 0.0000 0.0000 44.3252
#
#
#
# Elastic Compliance Matrix: (Units=1/GPa)
#
#
# Indices 1 2 3 4 5 6 
#
# 1 0.009388 -0.001882 -0.001871 0.000000 0.000000 0.000000
# 2 -0.001882 0.015378 -0.004040 0.000000 0.000000 0.000000
# 3 -0.001871 -0.004040 0.012156 0.000000 0.000000 0.000000
# 4 0.000000 0.000000 0.000000 -0.158536 0.000000 0.000000
# 5 0.000000 0.000000 0.000000 0.000000 0.043244 0.000000
# 6 0.000000 0.000000 0.000000 0.000000 0.000000 0.022561
#
#
# Mechanical properties :
#
#
# Convention : Reuss Voigt Hill
#
# Bulk Modulus (GPa) = 46.86398 48.05393 47.45895
# Shear Modulus (GPa) = -151.00555 26.39799 -62.30378
#
# Velocity S-wave (km/s) = -8.19787 3.42760 -5.26577
# Velocity P-wave (km/s) = 8.29156 6.08695 3.98114
#
# Compressibility (1/GPa) = 0.02133835
#
# Stress axis : x y z
#
# Youngs Moduli (GPa) = 106.51542 65.02645 82.26137
#
# Poissons Ratio (x) = 0.12238 0.15390
# Poissons Ratio (y) = 0.20046 0.33230
# Poissons Ratio (z) = 0.19928 0.26268
#
# Static dielectric constant tensor:
#      x y z
#    x 1.895150 0.000000 0.000000 
#    y 0.000000 1.904140 0.000000 
#    z 0.000000 0.000000 1.805450 
# 
# From -- ./inp_files/57669.got.cif
#   From: 2010.05.17/outbox.cif.g08.bks.cpg/sg66_29_cif.got.tgz:57669.got - 2010.06.03 17:51:23.
