data_PCOD9496583
_publ_section_title
;
Structure prediction by ZEFSAII (Michael W. Deem and Ramdas Pophale) SiO2 
 PCOD9496583
Probable space group: C C C M
;
_chemical_formula_sum "Si O2"
_cell_formula_units_Z 88
_cell_length_a 14.506472
_cell_length_b 12.421136
_cell_length_c 23.915493
_cell_angle_alpha 90.000000
_cell_angle_beta 90.000000
_cell_angle_gamma 90.000000
_cell_volume 4309.257627
_symmetry_space_group_name_H-M "C C C M"
_symmetry_group_IT_number 66
_symmetry_cell_setting 'orthorhombic'
loop_
_space_group_symop_operation_xyz
x,y,z
-x,-y,z
x,-y,1/2-z
-x,y,1/2-z
-x,-y,-z
x,y,-z
-x,y,1/2+z
x,-y,1/2+z
1/2+x,1/2+y,z
1/2-x,1/2-y,z
1/2+x,1/2-y,1/2-z
1/2-x,1/2+y,1/2-z
1/2-x,1/2-y,-z
1/2+x,1/2+y,-z
1/2-x,1/2+y,1/2+z
1/2+x,1/2-y,1/2+z
loop_
_atom_site_type_symbol
_atom_site_label
_atom_site_fract_x
_atom_site_fract_y
_atom_site_fract_z
Si Si1 0.205198 0.901475 0.000000
Si Si2 0.161128 0.138037 0.000000
Si Si3 0.985505 0.382655 0.388173
Si Si4 0.347680 0.716560 0.885888
Si Si5 0.608865 0.510098 0.312421
Si Si6 0.647615 0.705240 0.878088
Si Si7 0.633661 0.935927 0.000000
O O1 0.178574 0.835277 0.054432
O O2 0.311432 0.948427 0.000000
O O3 0.144997 0.010125 0.000000
O O4 0.121537 0.184393 0.942999
O O5 0.225565 0.360195 0.000000
O O6 0.919972 0.297966 0.356292
O O7 0.929026 0.414139 0.445562
O O8 0.000000 0.500000 0.361138
O O9 0.080258 0.314595 0.394180
O O10 0.250000 0.750000 0.860682
O O11 0.380013 0.621165 0.845559
O O12 0.500000 0.500000 0.307425
O O13 0.649531 0.500000 0.250000
O O14 0.643812 0.408802 0.348018
O O15 0.750000 0.750000 0.876489
#
# Coordination Sequence:
#
# PCOD9496583 Si02
#       7
#     8   8  16  16  16  16   8
#     4  10  20  39  65 101 136 175 217 269 322 403
#     4  10  20  35  67  99 132 165 222 261 314 393
#     4  12  25  38  60  98 134 180 212 263 332 390
#     4  12  25  43  68  99 138 176 222 272 330 401
#     4  11  25  48  71  96 126 172 230 283 333 384
#     4  12  22  42  71  98 134 173 217 270 328 401
#     4  10  19  39  58  90 145 180 206 261 315 395
#
# _framework density 20.421151999999999
#
# number of rings (size 3 to 8) (size 9 to 14) (size 15 to 20)
#    0.545    0.182    5.455    3.000    2.545    0.727 
#    0.000    1.818    0.000    1.091    0.000    0.000 
#    0.000    0.000    0.000    0.000    0.000    0.000 
#
# Total GULP energy -245475.690699 kJ/mol
# GULP energy per Si atom -5578.992970 kJ/mol
# Density = 2.037467 g / cm^3
# Si number density = 20.421152 Si / 1000 Ang^3
#
#
#
# Elastic Constant Matrix: (Units=GPa)
#
#
# Indices 1 2 3 4 5 6 
#
# 1 91.6477 59.3121 10.3788 0.0000 0.0000 0.0000
# 2 59.3121 175.8924 42.8124 0.0000 0.0000 0.0000
# 3 10.3788 42.8124 87.2053 0.0000 0.0000 0.0000
# 4 0.0000 0.0000 0.0000 7.6484 0.0000 0.0000
# 5 0.0000 0.0000 0.0000 0.0000 13.5714 0.0000
# 6 0.0000 0.0000 0.0000 0.0000 0.0000 53.8827
#
#
#
# Elastic Compliance Matrix: (Units=1/GPa)
#
#
# Indices 1 2 3 4 5 6 
#
# 1 0.013999 -0.004901 0.000740 0.000000 0.000000 0.000000
# 2 -0.004901 0.008172 -0.003429 0.000000 0.000000 0.000000
# 3 0.000740 -0.003429 0.013063 0.000000 0.000000 0.000000
# 4 0.000000 0.000000 0.000000 0.130747 0.000000 0.000000
# 5 0.000000 0.000000 0.000000 0.000000 0.073684 0.000000
# 6 0.000000 0.000000 0.000000 0.000000 0.000000 0.018559
#
#
# Mechanical properties :
#
#
# Convention : Reuss Voigt Hill
#
# Bulk Modulus (GPa) = 49.86390 64.41686 57.14038
# Shear Modulus (GPa) = 17.85147 31.16997 24.51072
#
# Velocity S-wave (km/s) = 2.95984 3.91110 3.46824
# Velocity P-wave (km/s) = 6.01262 7.21168 6.63927
#
# Compressibility (1/GPa) = 0.02005459
#
# Stress axis : x y z
#
# Youngs Moduli (GPa) = 71.43286 122.36255 76.55486
#
# Poissons Ratio (x) = 0.59966 -0.05664
# Poissons Ratio (y) = 0.35007 0.26250
# Poissons Ratio (z) = -0.05285 0.41957
#
# Static dielectric constant tensor:
#      x y z
#    x 1.775530 0.000000 0.000000 
#    y 0.000000 1.651410 0.000000 
#    z 0.000000 0.000000 1.731470 
# 
# From -- ./inp_files/58033.got.cif
#   From: 2010.05.17/outbox.cif.g08.bks.cpg/sg66_30_cif.got.tgz:58033.got - 2010.06.03 17:51:23.
