data_PCOD9496769
_publ_section_title
;
Structure prediction by ZEFSAII (Michael W. Deem and Ramdas Pophale) SiO2 
 PCOD9496769
Probable space group: C C C M
;
_chemical_formula_sum "Si O2"
_cell_formula_units_Z 72
_cell_length_a 21.709275
_cell_length_b 5.428952
_cell_length_c 26.500248
_cell_angle_alpha 90.000000
_cell_angle_beta 90.000000
_cell_angle_gamma 90.000000
_cell_volume 3123.282445
_symmetry_space_group_name_H-M "C C C M"
_symmetry_group_IT_number 66
_symmetry_cell_setting 'orthorhombic'
loop_
_space_group_symop_operation_xyz
x,y,z
-x,-y,z
x,-y,1/2-z
-x,y,1/2-z
-x,-y,-z
x,y,-z
-x,y,1/2+z
x,-y,1/2+z
1/2+x,1/2+y,z
1/2-x,1/2-y,z
1/2+x,1/2-y,1/2-z
1/2-x,1/2+y,1/2-z
1/2-x,1/2-y,-z
1/2+x,1/2+y,-z
1/2-x,1/2+y,1/2+z
1/2+x,1/2-y,1/2+z
loop_
_atom_site_type_symbol
_atom_site_label
_atom_site_fract_x
_atom_site_fract_y
_atom_site_fract_z
Si Si1 0.250000 0.750000 0.377546
Si Si2 0.052908 0.796373 0.441778
Si Si3 0.823202 0.888014 0.443412
Si Si4 0.823306 0.250472 0.218111
Si Si5 0.871882 0.496026 0.127589
O O1 0.272191 0.517368 0.409642
O O2 0.184640 0.672181 0.352919
O O3 0.044827 0.697623 0.500000
O O4 0.065476 0.618368 0.393340
O O5 0.117499 0.937496 0.442239
O O6 0.000000 0.000000 0.433715
O O7 0.802303 0.879306 0.500000
O O8 0.847371 0.630480 0.423269
O O9 0.833002 0.500000 0.250000
O O10 0.750000 0.250000 0.203168
O O11 0.868612 0.282616 0.170005
O O12 0.833509 0.000000 0.250000
#
# Coordination Sequence:
#
# PCOD9496769 Si02
#       5
#     8  16  16  16  16
#     4  10  21  32  52  80 122 168 210 254 317 404
#     4   9  20  38  59  87 126 171 221 278 334 397
#     4  10  20  33  53  82 120 162 209 260 322 394
#     4  10  23  38  61  90 128 170 213 270 341 414
#     4  11  22  35  58  85 124 168 217 268 334 406
#
# _framework density 23.052669999999999
#
# number of rings (size 3 to 8) (size 9 to 14) (size 15 to 20)
#    0.000    2.000    0.000    3.000   10.889    4.444 
#    0.000    3.333    0.000    0.000    0.000    4.667 
#    0.000    0.000    0.000    0.000    0.000    0.000 
#
# Total GULP energy -200649.925569 kJ/mol
# GULP energy per Si atom -5573.609044 kJ/mol
# Density = 2.300020 g / cm^3
# Si number density = 23.052670 Si / 1000 Ang^3
#
#
#
# Elastic Constant Matrix: (Units=GPa)
#
#
# Indices 1 2 3 4 5 6 
#
# 1 106.3819 47.3459 42.3152 0.0000 0.0000 0.0000
# 2 47.3459 104.8577 47.3342 0.0000 0.0000 0.0000
# 3 42.3152 47.3342 92.5392 0.0000 0.0000 0.0000
# 4 0.0000 0.0000 0.0000 40.5994 0.0000 0.0000
# 5 0.0000 0.0000 0.0000 0.0000 16.7496 0.0000
# 6 0.0000 0.0000 0.0000 0.0000 0.0000 36.6711
#
#
#
# Elastic Compliance Matrix: (Units=1/GPa)
#
#
# Indices 1 2 3 4 5 6 
#
# 1 0.012684 -0.004042 -0.003732 0.000000 0.000000 0.000000
# 2 -0.004042 0.013688 -0.005153 0.000000 0.000000 0.000000
# 3 -0.003732 -0.005153 0.015149 0.000000 0.000000 0.000000
# 4 0.000000 0.000000 0.000000 0.024631 0.000000 0.000000
# 5 0.000000 0.000000 0.000000 0.000000 0.059703 0.000000
# 6 0.000000 0.000000 0.000000 0.000000 0.000000 0.027269
#
#
# Mechanical properties :
#
#
# Convention : Reuss Voigt Hill
#
# Bulk Modulus (GPa) = 63.83535 64.19662 64.01598
# Shear Modulus (GPa) = 27.14428 29.92291 28.53360
#
# Velocity S-wave (km/s) = 3.43518 3.60672 3.52199
# Velocity P-wave (km/s) = 6.59433 6.72702 6.66100
#
# Compressibility (1/GPa) = 0.01566530
#
# Stress axis : x y z
#
# Youngs Moduli (GPa) = 78.84161 73.05614 66.01220
#
# Poissons Ratio (x) = 0.29531 0.24637
# Poissons Ratio (y) = 0.31869 0.34017
# Poissons Ratio (z) = 0.29425 0.37647
#
# Static dielectric constant tensor:
#      x y z
#    x 1.856320 0.000000 0.000000 
#    y 0.000000 2.042060 0.000000 
#    z 0.000000 0.000000 1.928280 
# 
# From -- ./inp_files/65943.got.cif
#   From: 2010.05.17/outbox.cif.g08.bks.cpg/sg66_33_cif.got.tgz:65943.got - 2010.06.03 17:51:23.
