data_PCOD9496091
_publ_section_title
;
Structure prediction by ZEFSAII (Michael W. Deem and Ramdas Pophale) SiO2 
 PCOD9496091
Probable space group: C C C M
;
_chemical_formula_sum "Si O2"
_cell_formula_units_Z 116
_cell_length_a 23.684032
_cell_length_b 8.926051
_cell_length_c 27.541233
_cell_angle_alpha 90.000000
_cell_angle_beta 90.000000
_cell_angle_gamma 90.000000
_cell_volume 5822.350989
_symmetry_space_group_name_H-M "C C C M"
_symmetry_group_IT_number 66
_symmetry_cell_setting 'orthorhombic'
loop_
_space_group_symop_operation_xyz
x,y,z
-x,-y,z
x,-y,1/2-z
-x,y,1/2-z
-x,-y,-z
x,y,-z
-x,y,1/2+z
x,-y,1/2+z
1/2+x,1/2+y,z
1/2-x,1/2-y,z
1/2+x,1/2-y,1/2-z
1/2-x,1/2+y,1/2-z
1/2-x,1/2-y,-z
1/2+x,1/2+y,-z
1/2-x,1/2+y,1/2+z
1/2+x,1/2-y,1/2+z
loop_
_atom_site_type_symbol
_atom_site_label
_atom_site_fract_x
_atom_site_fract_y
_atom_site_fract_z
Si Si1 0.955216 0.246683 0.176641
Si Si2 0.577624 0.767334 0.136193
Si Si3 0.618855 0.155989 0.256268
Si Si4 0.500000 0.500000 0.750000
Si Si5 0.207387 0.119315 0.712201
Si Si6 0.632140 0.445261 0.873732
Si Si7 0.336323 0.139735 0.057674
Si Si8 0.719198 0.473438 0.556141
O O1 0.932089 0.361659 0.216779
O O2 0.966799 0.106092 0.212966
O O3 0.906087 0.195259 0.140447
O O4 0.010744 0.285174 0.145906
O O5 0.602319 0.809891 0.188831
O O6 0.592614 0.592698 0.125124
O O7 0.609852 0.858559 0.093594
O O8 0.656449 0.293143 0.238445
O O9 0.650242 0.000000 0.250000
O O10 0.250000 0.250000 0.696584
O O11 0.178990 0.032213 0.667970
O O12 0.230615 0.000000 0.750000
O O13 0.671904 0.423661 0.919902
O O14 0.308794 0.307048 0.060381
O O15 0.283750 0.035812 0.074969
O O16 0.348825 0.113505 0.000000
O O17 0.724822 0.508738 0.500000
#
# Coordination Sequence:
#
# PCOD9496091 Si02
#       8
#    16  16  16   4  16  16  16  16
#     4  11  20  31  54  77 109 146 193 230 274 335
#     4  11  18  32  54  77 108 145 185 229 287 332
#     4  11  23  37  53  81 114 150 192 233 275 332
#     4  12  16  32  54  72 106 148 194 224 256 338
#     4  11  23  38  54  78 115 151 186 226 278 333
#     4  10  19  33  54  78 103 144 190 226 276 335
#     4   8  16  29  48  76 106 139 182 235 281 332
#     4   8  15  30  50  74 105 139 181 231 281 332
#
# _framework density 19.923224999999999
#
# number of rings (size 3 to 8) (size 9 to 14) (size 15 to 20)
#    0.000    1.931    4.138    1.241    1.931    3.310 
#    0.000    0.690    0.000    3.724    0.000    5.793 
#    0.000    0.000    0.000    0.000    0.000    0.000 
#
# Total GULP energy -323108.432615 kJ/mol
# GULP energy per Si atom -5570.835045 kJ/mol
# Density = 1.987788 g / cm^3
# Si number density = 19.923225 Si / 1000 Ang^3
#
#
#
# Elastic Constant Matrix: (Units=GPa)
#
#
# Indices 1 2 3 4 5 6 
#
# 1 131.5322 7.7302 65.4575 0.0000 0.0000 0.0000
# 2 7.7302 26.0349 0.0837 0.0000 0.0000 0.0000
# 3 65.4575 0.0837 74.1713 0.0000 0.0000 0.0000
# 4 0.0000 0.0000 0.0000 3.9537 0.0000 0.0000
# 5 0.0000 0.0000 0.0000 0.0000 578.5439 0.0000
# 6 0.0000 0.0000 0.0000 0.0000 0.0000 -6.9375
#
#
#
# Elastic Compliance Matrix: (Units=1/GPa)
#
#
# Indices 1 2 3 4 5 6 
#
# 1 0.013983 -0.004112 -0.012336 0.000000 0.000000 0.000000
# 2 -0.004112 0.039620 0.003584 0.000000 0.000000 0.000000
# 3 -0.012336 0.003584 0.024365 0.000000 0.000000 0.000000
# 4 0.000000 0.000000 0.000000 0.252925 0.000000 0.000000
# 5 0.000000 0.000000 0.000000 0.000000 0.001728 0.000000
# 6 0.000000 0.000000 0.000000 0.000000 0.000000 -0.144144
#
#
# Mechanical properties :
#
#
# Convention : Reuss Voigt Hill
#
# Bulk Modulus (GPa) = 19.14233 42.03124 30.58678
# Shear Modulus (GPa) = 21.58715 125.67648 73.63181
#
# Velocity S-wave (km/s) = 3.29525 7.95093 6.08589
# Velocity P-wave (km/s) = 4.90990 10.26802 8.04796
#
# Compressibility (1/GPa) = 0.05224026
#
# Stress axis : x y z
#
# Youngs Moduli (GPa) = 71.51329 25.24009 41.04256
#
# Poissons Ratio (x) = 0.10379 0.50630
# Poissons Ratio (y) = 0.29408 -0.14711
# Poissons Ratio (z) = 0.88219 -0.09047
#
# Static dielectric constant tensor:
#      x y z
#    x 1.750190 0.000000 0.000000 
#    y 0.000000 1.707220 0.000000 
#    z 0.000000 0.000000 1.728980 
# 
# From -- ./inp_files/66118.got.cif
#   From: 2010.05.17/outbox.cif.g08.bks.cpg/sg66_34_cif.got.tgz:66118.got - 2010.06.03 17:51:23.
