data_PCOD9496165
_publ_section_title
;
Structure prediction by ZEFSAII (Michael W. Deem and Ramdas Pophale) SiO2 
 PCOD9496165
Probable space group: C C C M
;
_chemical_formula_sum "Si O2"
_cell_formula_units_Z 88
_cell_length_a 14.209897
_cell_length_b 18.264066
_cell_length_c 18.285201
_cell_angle_alpha 90.000000
_cell_angle_beta 90.000000
_cell_angle_gamma 90.000000
_cell_volume 4745.567297
_symmetry_space_group_name_H-M "C C C M"
_symmetry_group_IT_number 66
_symmetry_cell_setting 'orthorhombic'
loop_
_space_group_symop_operation_xyz
x,y,z
-x,-y,z
x,-y,1/2-z
-x,y,1/2-z
-x,-y,-z
x,y,-z
-x,y,1/2+z
x,-y,1/2+z
1/2+x,1/2+y,z
1/2-x,1/2-y,z
1/2+x,1/2-y,1/2-z
1/2-x,1/2+y,1/2-z
1/2-x,1/2-y,-z
1/2+x,1/2+y,-z
1/2-x,1/2+y,1/2+z
1/2+x,1/2-y,1/2+z
loop_
_atom_site_type_symbol
_atom_site_label
_atom_site_fract_x
_atom_site_fract_y
_atom_site_fract_z
Si Si1 0.896596 0.620207 0.229408
Si Si2 0.002887 0.179820 0.582326
Si Si3 0.659518 0.198349 0.584472
Si Si4 0.752047 0.000000 0.250000
Si Si5 0.590065 0.588930 0.802831
Si Si6 0.854405 0.774862 0.295314
O O1 0.864502 0.636144 0.144906
O O2 0.817571 0.567548 0.264573
O O3 0.897816 0.701246 0.262842
O O4 0.000000 0.589858 0.250000
O O5 0.031450 0.165564 0.500000
O O6 0.929996 0.247531 0.583915
O O7 0.949471 0.112166 0.619406
O O8 0.088980 0.199085 0.634552
O O9 0.674425 0.172577 0.500000
O O10 0.750000 0.250000 0.604016
O O11 0.829045 0.971945 0.191234
O O12 0.500000 0.573974 0.750000
O O13 0.636922 0.660420 0.764250
O O14 0.750000 0.750000 0.312771
#
# Coordination Sequence:
#
# PCOD9496165 Si02
#       6
#    16  16  16   8  16  16
#     4  12  21  37  57  88 119 153 195 250 296 356
#     4  10  20  35  60  91 119 149 191 251 307 350
#     4  10  19  33  58  88 118 148 187 243 302 350
#     4  12  24  34  58  82 118 158 198 236 298 350
#     4  10  20  37  59  87 114 152 201 250 291 342
#     4  11  19  36  63  85 115 149 197 257 296 343
#
# _framework density 18.543621000000002
#
# number of rings (size 3 to 8) (size 9 to 14) (size 15 to 20)
#    0.000    1.273    5.455    2.727    0.000    0.364 
#    0.000    0.000    0.000   18.545    0.000    0.000 
#    0.000    0.000    0.000    0.000    0.000    0.000 
#
# Total GULP energy -245228.920742 kJ/mol
# GULP energy per Si atom -5573.384562 kJ/mol
# Density = 1.850141 g / cm^3
# Si number density = 18.543621 Si / 1000 Ang^3
#
#
#
# Elastic Constant Matrix: (Units=GPa)
#
#
# Indices 1 2 3 4 5 6 
#
# 1 129.9209 27.2320 32.9789 0.0000 0.0000 0.0000
# 2 27.2320 67.1322 27.7656 0.0000 0.0000 0.0000
# 3 32.9789 27.7656 124.5931 0.0000 0.0000 0.0000
# 4 0.0000 0.0000 0.0000 5.3955 0.0000 0.0000
# 5 0.0000 0.0000 0.0000 0.0000 13.3703 0.0000
# 6 0.0000 0.0000 0.0000 0.0000 0.0000 34.6338
#
#
#
# Elastic Compliance Matrix: (Units=1/GPa)
#
#
# Indices 1 2 3 4 5 6 
#
# 1 0.008718 -0.002844 -0.001674 0.000000 0.000000 0.000000
# 2 -0.002844 0.017336 -0.003111 0.000000 0.000000 0.000000
# 3 -0.001674 -0.003111 0.009162 0.000000 0.000000 0.000000
# 4 0.000000 0.000000 0.000000 0.185339 0.000000 0.000000
# 5 0.000000 0.000000 0.000000 0.000000 0.074793 0.000000
# 6 0.000000 0.000000 0.000000 0.000000 0.000000 0.028874
#
#
# Mechanical properties :
#
#
# Convention : Reuss Voigt Hill
#
# Bulk Modulus (GPa) = 50.10122 55.28881 52.69502
# Shear Modulus (GPa) = 14.44535 26.25789 20.35162
#
# Velocity S-wave (km/s) = 2.79407 3.76707 3.31645
# Velocity P-wave (km/s) = 6.12257 6.98580 6.56838
#
# Compressibility (1/GPa) = 0.01995959
#
# Stress axis : x y z
#
# Youngs Moduli (GPa) = 114.70505 57.68263 109.14232
#
# Poissons Ratio (x) = 0.16406 0.18268
# Poissons Ratio (y) = 0.32624 0.33949
# Poissons Ratio (z) = 0.19199 0.17943
#
# Static dielectric constant tensor:
#      x y z
#    x 1.709720 0.000000 0.000000 
#    y 0.000000 1.678030 0.000000 
#    z 0.000000 0.000000 1.644510 
# 
# From -- ./inp_files/40336.got.cif
#   From: 2010.05.17/outbox.cif.g08.bks.cpg/sg66_21_cif.got.tgz:40336.got - 2010.06.03 17:51:23.
