data_PCOD9496287
_publ_section_title
;
Structure prediction by ZEFSAII (Michael W. Deem and Ramdas Pophale) SiO2 
 PCOD9496287
Probable space group: C C C M
;
_chemical_formula_sum "Si O2"
_cell_formula_units_Z 80
_cell_length_a 5.883332
_cell_length_b 26.307497
_cell_length_c 24.311809
_cell_angle_alpha 90.000000
_cell_angle_beta 90.000000
_cell_angle_gamma 90.000000
_cell_volume 3762.878203
_symmetry_space_group_name_H-M "C C C M"
_symmetry_group_IT_number 66
_symmetry_cell_setting 'orthorhombic'
loop_
_space_group_symop_operation_xyz
x,y,z
-x,-y,z
x,-y,1/2-z
-x,y,1/2-z
-x,-y,-z
x,y,-z
-x,y,1/2+z
x,-y,1/2+z
1/2+x,1/2+y,z
1/2-x,1/2-y,z
1/2+x,1/2-y,1/2-z
1/2-x,1/2+y,1/2-z
1/2-x,1/2-y,-z
1/2+x,1/2+y,-z
1/2-x,1/2+y,1/2+z
1/2+x,1/2-y,1/2+z
loop_
_atom_site_type_symbol
_atom_site_label
_atom_site_fract_x
_atom_site_fract_y
_atom_site_fract_z
Si Si1 0.750000 0.750000 0.868065
Si Si2 0.441703 0.826990 0.937704
Si Si3 0.827013 0.578276 0.299133
Si Si4 0.000000 0.000000 0.146309
Si Si5 0.937697 0.836205 0.656354
Si Si6 0.696673 0.085878 0.609225
O O1 0.604927 0.786615 0.907724
O O2 0.569408 0.716397 0.833645
O O3 0.223128 0.830597 0.897634
O O4 0.584203 0.879992 0.938094
O O5 0.381758 0.813016 0.000000
O O6 0.637640 0.536735 0.312459
O O7 0.713963 0.634631 0.298143
O O8 0.000000 0.568728 0.250000
O O9 0.983434 0.575281 0.352507
O O10 0.838819 0.965958 0.107023
O O11 0.133670 0.876023 0.640773
#
# Coordination Sequence:
#
# PCOD9496287 Si02
#       6
#     8  16  16   8  16  16
#     4  10  19  34  58  88 114 150 196 244 301 350
#     4  10  20  35  56  86 117 150 196 248 300 353
#     4  10  21  37  59  89 117 149 192 246 298 351
#     4  10  20  35  57  84 118 148 197 236 296 351
#     4   9  20  35  54  85 116 155 189 244 296 352
#     4   9  20  36  54  82 115 155 186 243 293 349
#
# _framework density 21.26032
#
# number of rings (size 3 to 8) (size 9 to 14) (size 15 to 20)
#    0.000    2.400    0.000    1.500    0.000   10.400 
#    0.000    0.500    0.000   15.600  187.200    0.000 
#    0.000    0.000    0.000    0.000    0.000    0.000 
#
# Total GULP energy -222980.779585 kJ/mol
# GULP energy per Si atom -5574.519490 kJ/mol
# Density = 2.121193 g / cm^3
# Si number density = 21.260320 Si / 1000 Ang^3
#
#
#
# Elastic Constant Matrix: (Units=GPa)
#
#
# Indices 1 2 3 4 5 6 
#
# 1 115.9378 65.2941 23.3204 0.0000 0.0000 0.0000
# 2 65.2941 133.7981 24.2371 0.0000 0.0000 0.0000
# 3 23.3204 24.2371 20.5498 0.0000 0.0000 0.0000
# 4 0.0000 0.0000 0.0000 -131.3484 0.0000 0.0000
# 5 0.0000 0.0000 0.0000 0.0000 10.5614 0.0000
# 6 0.0000 0.0000 0.0000 0.0000 0.0000 59.4431
#
#
#
# Elastic Compliance Matrix: (Units=1/GPa)
#
#
# Indices 1 2 3 4 5 6 
#
# 1 0.013175 -0.004732 -0.009370 0.000000 0.000000 0.000000
# 2 -0.004732 0.011204 -0.007845 0.000000 0.000000 0.000000
# 3 -0.009370 -0.007845 0.068548 0.000000 0.000000 0.000000
# 4 0.000000 0.000000 0.000000 -0.007613 0.000000 0.000000
# 5 0.000000 0.000000 0.000000 0.000000 0.094685 0.000000
# 6 0.000000 0.000000 0.000000 0.000000 0.000000 0.016823
#
#
# Mechanical properties :
#
#
# Convention : Reuss Voigt Hill
#
# Bulk Modulus (GPa) = 20.39422 55.10987 37.75205
# Shear Modulus (GPa) = 19.45073 -1.77318 8.83878
#
# Velocity S-wave (km/s) = 3.02799 -0.91425 2.04118
# Velocity P-wave (km/s) = 4.67316 4.98631 4.83227
#
# Compressibility (1/GPa) = 0.04903349
#
# Stress axis : x y z
#
# Youngs Moduli (GPa) = 75.90039 89.25165 14.58837
#
# Poissons Ratio (x) = 0.42235 0.13670
# Poissons Ratio (y) = 0.35917 0.11444
# Poissons Ratio (z) = 0.71120 0.70014
#
# Static dielectric constant tensor:
#      x y z
#    x 1.909860 0.000000 0.000000 
#    y 0.000000 1.864170 0.000000 
#    z 0.000000 0.000000 1.785770 
# 
# From -- ./inp_files/54410.got.cif
#   From: 2010.05.17/outbox.cif.g08.bks.cpg/sg66_28_cif.got.tgz:54410.got - 2010.06.03 17:51:23.
