data_PCOD9496302
_publ_section_title
;
Structure prediction by ZEFSAII (Michael W. Deem and Ramdas Pophale) SiO2 
 PCOD9496302
Probable space group: C C C M
;
_chemical_formula_sum "Si O2"
_cell_formula_units_Z 92
_cell_length_a 18.684828
_cell_length_b 8.800960
_cell_length_c 24.785131
_cell_angle_alpha 90.000000
_cell_angle_beta 90.000000
_cell_angle_gamma 90.000000
_cell_volume 4075.776587
_symmetry_space_group_name_H-M "C C C M"
_symmetry_group_IT_number 66
_symmetry_cell_setting 'orthorhombic'
loop_
_space_group_symop_operation_xyz
x,y,z
-x,-y,z
x,-y,1/2-z
-x,y,1/2-z
-x,-y,-z
x,y,-z
-x,y,1/2+z
x,-y,1/2+z
1/2+x,1/2+y,z
1/2-x,1/2-y,z
1/2+x,1/2-y,1/2-z
1/2-x,1/2+y,1/2-z
1/2-x,1/2-y,-z
1/2+x,1/2+y,-z
1/2-x,1/2+y,1/2+z
1/2+x,1/2-y,1/2+z
loop_
_atom_site_type_symbol
_atom_site_label
_atom_site_fract_x
_atom_site_fract_y
_atom_site_fract_z
Si Si1 0.335317 0.721554 0.056499
Si Si2 0.250000 0.750000 0.371776
Si Si3 0.079144 0.468764 0.171513
Si Si4 0.630431 0.924618 0.061395
Si Si5 0.366551 0.335131 0.787579
Si Si6 0.000000 0.000000 0.750000
Si Si7 0.166405 0.218644 0.330442
O O1 0.250000 0.750000 0.055995
O O2 0.355533 0.643324 0.112631
O O3 0.365191 0.892933 0.056750
O O4 0.355113 0.644259 0.000000
O O5 0.297530 0.856589 0.411020
O O6 0.302982 0.652374 0.332170
O O7 0.074934 0.398945 0.110337
O O8 0.119655 0.345973 0.207137
O O9 0.123742 0.623461 0.170820
O O10 0.000000 0.500000 0.190346
O O11 0.618899 0.867094 0.000000
O O12 0.447131 0.403623 0.788881
O O13 0.345215 0.366201 0.725383
O O14 0.250000 0.250000 0.333099
#
# Coordination Sequence:
#
# PCOD9496302 Si02
#       7
#    16   8  16  16  16   4  16
#     4   8  15  28  48  78 111 141 178 230 293 348
#     4  10  21  38  58  84 113 148 202 248 298 358
#     4  10  21  37  58  82 118 155 195 242 301 375
#     4   9  18  33  56  85 113 147 190 245 298 349
#     4  11  23  39  55  84 115 161 201 250 308 363
#     4  12  28  40  58  80 130 166 208 254 312 378
#     4  10  19  34  59  87 114 153 197 252 303 358
#
# _framework density 22.572385000000001
#
# number of rings (size 3 to 8) (size 9 to 14) (size 15 to 20)
#    0.000    2.261    0.870    1.826    0.000    6.609 
#    0.000    0.000    0.000    0.000    0.000   15.826 
#    0.000    0.000    0.000    0.000    0.000    0.000 
#
# Total GULP energy -256289.058816 kJ/mol
# GULP energy per Si atom -5571.501279 kJ/mol
# Density = 2.252101 g / cm^3
# Si number density = 22.572385 Si / 1000 Ang^3
#
#
#
# Elastic Constant Matrix: (Units=GPa)
#
#
# Indices 1 2 3 4 5 6 
#
# 1 75.4542 13.3305 24.2346 0.0000 0.0000 0.0000
# 2 13.3305 34.9945 25.3472 0.0000 0.0000 0.0000
# 3 24.2346 25.3472 232.8434 0.0000 0.0000 0.0000
# 4 0.0000 0.0000 0.0000 15.4501 0.0000 0.0000
# 5 0.0000 0.0000 0.0000 0.0000 -10.2722 0.0000
# 6 0.0000 0.0000 0.0000 0.0000 0.0000 39.6703
#
#
#
# Elastic Compliance Matrix: (Units=1/GPa)
#
#
# Indices 1 2 3 4 5 6 
#
# 1 0.014412 -0.004781 -0.000980 0.000000 0.000000 0.000000
# 2 -0.004781 0.032608 -0.003052 0.000000 0.000000 0.000000
# 3 -0.000980 -0.003052 0.004729 0.000000 0.000000 0.000000
# 4 0.000000 0.000000 0.000000 0.064725 0.000000 0.000000
# 5 0.000000 0.000000 0.000000 0.000000 -0.097350 0.000000
# 6 0.000000 0.000000 0.000000 0.000000 0.000000 0.025208
#
#
# Mechanical properties :
#
#
# Convention : Reuss Voigt Hill
#
# Bulk Modulus (GPa) = 29.30457 52.12408 40.71433
# Shear Modulus (GPa) = 68.18491 27.66164 47.92328
#
# Velocity S-wave (km/s) = 5.50207 3.50446 4.61270
# Velocity P-wave (km/s) = 7.30578 6.28626 6.81511
#
# Compressibility (1/GPa) = 0.03412437
#
# Stress axis : x y z
#
# Youngs Moduli (GPa) = 69.38515 30.66765 211.46380
#
# Poissons Ratio (x) = 0.14661 0.20716
# Poissons Ratio (y) = 0.33170 0.64541
# Poissons Ratio (z) = 0.06797 0.09360
#
# Static dielectric constant tensor:
#      x y z
#    x 1.807360 0.000000 0.000000 
#    y 0.000000 5.099690 0.000000 
#    z 0.000000 0.000000 1.972690 
# 
# From -- ./inp_files/65691.got.cif
#   From: 2010.05.17/outbox.cif.g08.bks.cpg/sg66_33_cif.got.tgz:65691.got - 2010.06.03 17:51:23.
