data_PCOD9496724
_publ_section_title
;
Structure prediction by ZEFSAII (Michael W. Deem and Ramdas Pophale) SiO2 
 PCOD9496724
Probable space group: C C C M
;
_chemical_formula_sum "Si O2"
_cell_formula_units_Z 112
_cell_length_a 28.158832
_cell_length_b 16.957335
_cell_length_c 14.229082
_cell_angle_alpha 90.000000
_cell_angle_beta 90.000000
_cell_angle_gamma 90.000000
_cell_volume 6794.368832
_symmetry_space_group_name_H-M "C C C M"
_symmetry_group_IT_number 66
_symmetry_cell_setting 'orthorhombic'
loop_
_space_group_symop_operation_xyz
x,y,z
-x,-y,z
x,-y,1/2-z
-x,y,1/2-z
-x,-y,-z
x,y,-z
-x,y,1/2+z
x,-y,1/2+z
1/2+x,1/2+y,z
1/2-x,1/2-y,z
1/2+x,1/2-y,1/2-z
1/2-x,1/2+y,1/2-z
1/2-x,1/2-y,-z
1/2+x,1/2+y,-z
1/2-x,1/2+y,1/2+z
1/2+x,1/2-y,1/2+z
loop_
_atom_site_type_symbol
_atom_site_label
_atom_site_fract_x
_atom_site_fract_y
_atom_site_fract_z
Si Si1 0.723782 0.350841 0.394088
Si Si2 0.358429 0.482203 0.106281
Si Si3 0.164356 0.752912 0.251868
Si Si4 0.077635 0.131951 0.776873
Si Si5 0.988070 0.093096 0.890219
Si Si6 0.796541 0.409994 0.242381
Si Si7 0.708230 0.627489 0.387969
O O1 0.737290 0.332304 0.500000
O O2 0.683869 0.418677 0.397947
O O3 0.698589 0.279405 0.338310
O O4 0.765934 0.388107 0.334352
O O5 0.395205 0.441206 0.175133
O O6 0.332377 0.562529 0.135346
O O7 0.378425 0.491571 0.000000
O O8 0.114021 0.795171 0.269870
O O9 0.164767 0.659438 0.237083
O O10 0.190142 0.793528 0.162455
O O11 0.057254 0.111789 0.674168
O O12 0.031919 0.141392 0.844729
O O13 0.981744 0.109961 0.000000
O O14 0.000000 0.000000 0.879532
O O15 0.813051 0.500000 0.250000
O O16 0.757731 0.399526 0.158708
O O17 0.712026 0.633533 0.500000
#
# Coordination Sequence:
#
# PCOD9496724 Si02
#       7
#    16  16  16  16  16  16  16
#     4   9  17  32  50  70  98 133 177 219 255 294
#     4   9  17  28  50  77  99 138 179 207 242 293
#     4  10  23  32  50  76  98 135 175 221 263 300
#     4  10  20  35  53  73 109 134 167 212 248 303
#     4  10  22  36  54  79 104 134 163 196 256 322
#     4  11  21  35  49  68 102 137 179 224 265 304
#     4  10  20  33  50  71 101 141 183 218 253 296
#
# _framework density 16.484238999999999
#
# number of rings (size 3 to 8) (size 9 to 14) (size 15 to 20)
#    0.000    2.143    1.429    3.000    4.000    3.429 
#    0.000    0.000    0.000    0.000    0.000    2.000 
#    0.000    1.143    0.000    0.000    0.000    0.000 
#
# Total GULP energy -312642.575064 kJ/mol
# GULP energy per Si atom -5582.903126 kJ/mol
# Density = 1.644672 g / cm^3
# Si number density = 16.484239 Si / 1000 Ang^3
#
#
#
# Elastic Constant Matrix: (Units=GPa)
#
#
# Indices 1 2 3 4 5 6 
#
# 1 72.3430 35.4469 39.0158 0.0000 0.0000 0.0000
# 2 35.4469 121.7692 33.2498 0.0000 0.0000 0.0000
# 3 39.0158 33.2498 119.9176 0.0000 0.0000 0.0000
# 4 0.0000 0.0000 0.0000 9.2618 0.0000 0.0000
# 5 0.0000 0.0000 0.0000 0.0000 11.1988 0.0000
# 6 0.0000 0.0000 0.0000 0.0000 0.0000 19.1491
#
#
#
# Elastic Compliance Matrix: (Units=1/GPa)
#
#
# Indices 1 2 3 4 5 6 
#
# 1 0.018430 -0.004033 -0.004878 0.000000 0.000000 0.000000
# 2 -0.004033 0.009767 -0.001396 0.000000 0.000000 0.000000
# 3 -0.004878 -0.001396 0.010313 0.000000 0.000000 0.000000
# 4 0.000000 0.000000 0.000000 0.107970 0.000000 0.000000
# 5 0.000000 0.000000 0.000000 0.000000 0.089296 0.000000
# 6 0.000000 0.000000 0.000000 0.000000 0.000000 0.052222
#
#
# Mechanical properties :
#
#
# Convention : Reuss Voigt Hill
#
# Bulk Modulus (GPa) = 55.87702 58.82831 57.35266
# Shear Modulus (GPa) = 15.89433 21.67643 18.78538
#
# Velocity S-wave (km/s) = 3.10855 3.63020 3.37945
# Velocity P-wave (km/s) = 6.84507 7.30316 7.07782
#
# Compressibility (1/GPa) = 0.01789645
#
# Stress axis : x y z
#
# Youngs Moduli (GPa) = 54.25953 102.38071 96.96259
#
# Poissons Ratio (x) = 0.41290 0.47299
# Poissons Ratio (y) = 0.21883 0.13537
# Poissons Ratio (z) = 0.26468 0.14293
#
# Static dielectric constant tensor:
#      x y z
#    x 1.574890 0.000000 0.000000 
#    y 0.000000 1.570110 0.000000 
#    z 0.000000 0.000000 1.592700 
# 
# From -- ./inp_files/33947.got.cif
#   From: 2010.05.17/outbox.cif.g08.bks.cpg/sg66_17_cif.got.tgz:33947.got - 2010.06.03 17:51:23.
