data_PCOD9496504
_publ_section_title
;
Structure prediction by ZEFSAII (Michael W. Deem and Ramdas Pophale) SiO2 
 PCOD9496504
Probable space group: C C C M
;
_chemical_formula_sum "Si O2"
_cell_formula_units_Z 84
_cell_length_a 11.846543
_cell_length_b 16.303490
_cell_length_c 20.214677
_cell_angle_alpha 90.000000
_cell_angle_beta 90.000000
_cell_angle_gamma 90.000000
_cell_volume 3904.262621
_symmetry_space_group_name_H-M "C C C M"
_symmetry_group_IT_number 66
_symmetry_cell_setting 'orthorhombic'
loop_
_space_group_symop_operation_xyz
x,y,z
-x,-y,z
x,-y,1/2-z
-x,y,1/2-z
-x,-y,-z
x,y,-z
-x,y,1/2+z
x,-y,1/2+z
1/2+x,1/2+y,z
1/2-x,1/2-y,z
1/2+x,1/2-y,1/2-z
1/2-x,1/2+y,1/2-z
1/2-x,1/2-y,-z
1/2+x,1/2+y,-z
1/2-x,1/2+y,1/2+z
1/2+x,1/2-y,1/2+z
loop_
_atom_site_type_symbol
_atom_site_label
_atom_site_fract_x
_atom_site_fract_y
_atom_site_fract_z
Si Si1 0.210780 0.654823 0.500000
Si Si2 0.079642 0.580596 0.855429
Si Si3 0.812220 0.837156 0.864878
Si Si4 0.040954 0.593095 0.000000
Si Si5 0.034530 0.234740 0.325760
Si Si6 0.693434 0.390351 0.213984
Si Si7 0.000000 0.000000 0.250000
O O1 0.250000 0.750000 0.500000
O O2 0.260775 0.620650 0.569479
O O3 0.075304 0.645553 0.500000
O O4 0.025376 0.667589 0.834101
O O5 0.193080 0.571868 0.814044
O O6 0.000000 0.500000 0.849547
O O7 0.106939 0.599886 0.932023
O O8 0.750000 0.750000 0.858285
O O9 0.794488 0.878312 0.793326
O O10 0.943866 0.812281 0.871054
O O11 0.000000 0.500000 0.000000
O O12 0.156889 0.192175 0.325098
O O13 0.000000 0.218871 0.250000
O O14 0.584061 0.447165 0.205790
#
# Coordination Sequence:
#
# PCOD9496504 Si02
#       7
#     8  16  16   8  16  16   4
#     4  10  20  36  63  95 130 176 224 268 319 411
#     4  11  24  42  68  98 130 176 224 274 334 404
#     4  10  19  36  64  97 128 175 213 273 325 396
#     4  10  24  44  58  93 142 175 211 289 349 379
#     4  10  20  40  62  98 138 170 215 279 342 382
#     4  11  23  42  66  95 138 168 221 275 345 400
#     4  12  24  44  66  94 126 180 212 272 348 396
#
# _framework density 21.514945999999998
#
# number of rings (size 3 to 8) (size 9 to 14) (size 15 to 20)
#    0.000    1.524    2.857    5.143    0.000    6.476 
#    0.000    3.810    0.000    1.143    0.000    0.000 
#    0.000    0.000    0.000    0.000    0.000    0.000 
#
# Total GULP energy -234265.523261 kJ/mol
# GULP energy per Si atom -5577.750554 kJ/mol
# Density = 2.146598 g / cm^3
# Si number density = 21.514946 Si / 1000 Ang^3
#
#
#
# Elastic Constant Matrix: (Units=GPa)
#
#
# Indices 1 2 3 4 5 6 
#
# 1 124.1246 48.1067 61.6021 0.0000 0.0000 0.0000
# 2 48.1067 85.5756 26.9519 0.0000 0.0000 0.0000
# 3 61.6021 26.9519 135.4040 0.0000 0.0000 0.0000
# 4 0.0000 0.0000 0.0000 -76.2516 0.0000 0.0000
# 5 0.0000 0.0000 0.0000 0.0000 -56.6621 0.0000
# 6 0.0000 0.0000 0.0000 0.0000 0.0000 31.4132
#
#
#
# Elastic Compliance Matrix: (Units=1/GPa)
#
#
# Indices 1 2 3 4 5 6 
#
# 1 0.012487 -0.005580 -0.004570 0.000000 0.000000 0.000000
# 2 -0.005580 0.014961 -0.000439 0.000000 0.000000 0.000000
# 3 -0.004570 -0.000439 0.009552 0.000000 0.000000 0.000000
# 4 0.000000 0.000000 0.000000 -0.013114 0.000000 0.000000
# 5 0.000000 0.000000 0.000000 0.000000 -0.017648 0.000000
# 6 0.000000 0.000000 0.000000 0.000000 0.000000 0.031834
#
#
# Mechanical properties :
#
#
# Convention : Reuss Voigt Hill
#
# Bulk Modulus (GPa) = 63.20917 68.71399 65.96158
# Shear Modulus (GPa) = 77.48969 -6.40386 35.54291
#
# Velocity S-wave (km/s) = 6.00790 -1.72712 4.06890
# Velocity P-wave (km/s) = 8.80735 5.29433 7.26634
#
# Compressibility (1/GPa) = 0.01582049
#
# Stress axis : x y z
#
# Youngs Moduli (GPa) = 80.08020 66.84072 104.68989
#
# Poissons Ratio (x) = 0.37300 0.47848
# Poissons Ratio (y) = 0.44688 0.04597
# Poissons Ratio (z) = 0.36600 0.02935
#
# Static dielectric constant tensor:
#      x y z
#    x 1.833370 0.000000 0.000000 
#    y 0.000000 1.917760 0.000000 
#    z 0.000000 0.000000 1.861200 
# 
# From -- ./inp_files/48483.got.cif
#   From: 2010.05.17/outbox.cif.g08.bks.cpg/sg66_25_cif.got.tgz:48483.got - 2010.06.03 17:51:23.
