data_PCOD9496113
_publ_section_title
;
Structure prediction by ZEFSAII (Michael W. Deem and Ramdas Pophale) SiO2 
 PCOD9496113
Probable space group: C C C M
;
_chemical_formula_sum "Si O2"
_cell_formula_units_Z 88
_cell_length_a 20.418790
_cell_length_b 9.294705
_cell_length_c 26.199080
_cell_angle_alpha 90.000000
_cell_angle_beta 90.000000
_cell_angle_gamma 90.000000
_cell_volume 4972.235089
_symmetry_space_group_name_H-M "C C C M"
_symmetry_group_IT_number 66
_symmetry_cell_setting 'orthorhombic'
loop_
_space_group_symop_operation_xyz
x,y,z
-x,-y,z
x,-y,1/2-z
-x,y,1/2-z
-x,-y,-z
x,y,-z
-x,y,1/2+z
x,-y,1/2+z
1/2+x,1/2+y,z
1/2-x,1/2-y,z
1/2+x,1/2-y,1/2-z
1/2-x,1/2+y,1/2-z
1/2-x,1/2-y,-z
1/2+x,1/2+y,-z
1/2-x,1/2+y,1/2+z
1/2+x,1/2-y,1/2+z
loop_
_atom_site_type_symbol
_atom_site_label
_atom_site_fract_x
_atom_site_fract_y
_atom_site_fract_z
Si Si1 0.319057 0.334293 0.264440
Si Si2 0.384450 0.105195 0.559641
Si Si3 0.000000 0.500000 0.129584
Si Si4 0.753319 0.579309 0.940074
Si Si5 0.935308 0.653546 0.222117
Si Si6 0.183545 0.156778 0.618833
O O1 0.308982 0.500000 0.250000
O O2 0.250000 0.250000 0.260886
O O3 0.373472 0.255809 0.229807
O O4 0.342835 0.334452 0.323621
O O5 0.399535 0.101484 0.500000
O O6 0.446225 0.071319 0.594079
O O7 0.359705 0.260891 0.577578
O O8 0.325184 0.990736 0.568876
O O9 0.039707 0.390335 0.166224
O O10 0.750000 0.750000 0.932794
O O11 0.703986 0.498608 0.901975
O O12 0.737771 0.548478 0.000000
O O13 0.920208 0.500000 0.250000
O O14 0.000000 0.714732 0.250000
O O15 0.250000 0.250000 0.620567
#
# Coordination Sequence:
#
# PCOD9496113 Si02
#       6
#    16  16   8  16  16  16
#     4  11  23  36  55  84 114 142 182 231 276 330
#     4  10  19  33  55  81 108 140 183 224 264 326
#     4  10  20  34  56  78 104 142 188 232 276 322
#     4   9  18  32  53  82 113 144 179 223 276 332
#     4   9  19  37  57  75 105 147 186 225 276 336
#     4   9  18  33  52  76 107 141 173 213 268 323
#
# _framework density 17.698277999999998
#
# number of rings (size 3 to 8) (size 9 to 14) (size 15 to 20)
#    0.000    2.545    0.000    3.545    0.000    7.636 
#    0.000    0.000    0.000    3.273    0.000    8.909 
#    0.000    0.000    0.000    0.000    0.000    0.000 
#
# Total GULP energy -245274.558892 kJ/mol
# GULP energy per Si atom -5574.421793 kJ/mol
# Density = 1.765800 g / cm^3
# Si number density = 17.698278 Si / 1000 Ang^3
#
#
#
# Elastic Constant Matrix: (Units=GPa)
#
#
# Indices 1 2 3 4 5 6 
#
# 1 88.3833 49.9545 55.2369 0.0000 0.0000 0.0000
# 2 49.9545 100.2509 44.2565 0.0000 0.0000 0.0000
# 3 55.2369 44.2565 111.3415 0.0000 0.0000 0.0000
# 4 0.0000 0.0000 0.0000 23.2354 0.0000 0.0000
# 5 0.0000 0.0000 0.0000 0.0000 25.1393 0.0000
# 6 0.0000 0.0000 0.0000 0.0000 0.0000 9.1574
#
#
#
# Elastic Compliance Matrix: (Units=1/GPa)
#
#
# Indices 1 2 3 4 5 6 
#
# 1 0.019419 -0.006578 -0.007019 0.000000 0.000000 0.000000
# 2 -0.006578 0.014326 -0.002431 0.000000 0.000000 0.000000
# 3 -0.007019 -0.002431 0.013430 0.000000 0.000000 0.000000
# 4 0.000000 0.000000 0.000000 0.043038 0.000000 0.000000
# 5 0.000000 0.000000 0.000000 0.000000 0.039778 0.000000
# 6 0.000000 0.000000 0.000000 0.000000 0.000000 0.109202
#
#
# Mechanical properties :
#
#
# Convention : Reuss Voigt Hill
#
# Bulk Modulus (GPa) = 66.14334 66.54127 66.34231
# Shear Modulus (GPa) = 18.09705 21.54159 19.81932
#
# Velocity S-wave (km/s) = 3.20117 3.49256 3.35004
# Velocity P-wave (km/s) = 7.14963 7.34460 7.24777
#
# Compressibility (1/GPa) = 0.01511868
#
# Stress axis : x y z
#
# Youngs Moduli (GPa) = 51.49633 69.80415 74.46024
#
# Poissons Ratio (x) = 0.45914 0.52266
# Poissons Ratio (y) = 0.33872 0.18102
# Poissons Ratio (z) = 0.36147 0.16970
#
# Static dielectric constant tensor:
#      x y z
#    x 1.890050 0.000000 0.000000 
#    y 0.000000 1.604220 0.000000 
#    z 0.000000 0.000000 1.624720 
# 
# From -- ./inp_files/59372.got.cif
#   From: 2010.05.17/outbox.cif.g08.bks.cpg/sg66_30_cif.got.tgz:59372.got - 2010.06.03 17:51:23.
