data_PCOD9496372
_publ_section_title
;
Structure prediction by ZEFSAII (Michael W. Deem and Ramdas Pophale) SiO2 
 PCOD9496372
Probable space group: C C C M
;
_chemical_formula_sum "Si O2"
_cell_formula_units_Z 96
_cell_length_a 11.287683
_cell_length_b 22.268947
_cell_length_c 20.005605
_cell_angle_alpha 90.000000
_cell_angle_beta 90.000000
_cell_angle_gamma 90.000000
_cell_volume 5028.705189
_symmetry_space_group_name_H-M "C C C M"
_symmetry_group_IT_number 66
_symmetry_cell_setting 'orthorhombic'
loop_
_space_group_symop_operation_xyz
x,y,z
-x,-y,z
x,-y,1/2-z
-x,y,1/2-z
-x,-y,-z
x,y,-z
-x,y,1/2+z
x,-y,1/2+z
1/2+x,1/2+y,z
1/2-x,1/2-y,z
1/2+x,1/2-y,1/2-z
1/2-x,1/2+y,1/2-z
1/2-x,1/2-y,-z
1/2+x,1/2+y,-z
1/2-x,1/2+y,1/2+z
1/2+x,1/2-y,1/2+z
loop_
_atom_site_type_symbol
_atom_site_label
_atom_site_fract_x
_atom_site_fract_y
_atom_site_fract_z
Si Si1 0.445962 0.646983 0.421967
Si Si2 0.227678 0.562067 0.423112
Si Si3 0.290884 0.153513 0.320031
Si Si4 0.177208 0.930069 0.922911
Si Si5 0.443261 0.264326 0.677442
Si Si6 0.368803 0.937920 0.719094
O O1 0.459727 0.662592 0.500000
O O2 0.318144 0.617100 0.413170
O O3 0.547042 0.596421 0.406758
O O4 0.472158 0.704333 0.376382
O O5 0.181414 0.563691 0.500000
O O6 0.306003 0.501193 0.417246
O O7 0.137385 0.560814 0.361053
O O8 0.270330 0.102824 0.375387
O O9 0.401805 0.196316 0.335592
O O10 0.175331 0.195312 0.321465
O O11 0.302528 0.119500 0.249681
O O12 0.200362 0.914035 0.000000
O O13 0.500000 0.266534 0.750000
O O14 0.500000 0.934027 0.750000
O O15 0.317104 0.000000 0.750000
#
# Coordination Sequence:
#
# PCOD9496372 Si02
#       6
#    16  16  16  16  16  16
#     4   9  18  32  55  84 116 148 183 234 293 349
#     4  10  19  35  58  83 114 149 186 238 295 349
#     4  10  20  35  54  77 111 151 188 236 289 340
#     4   9  17  31  52  83 115 148 186 227 288 354
#     4  10  20  34  54  80 109 147 194 235 282 347
#     4  11  22  37  55  78 108 147 191 238 286 335
#
# _framework density 19.090402000000001
#
# number of rings (size 3 to 8) (size 9 to 14) (size 15 to 20)
#    0.000    2.167    1.667    2.000    0.000    2.667 
#    0.000    5.833    0.000    3.000    0.000   11.667 
#    0.000    0.000    0.000    0.000    0.000    0.000 
#
# Total GULP energy -267649.300846 kJ/mol
# GULP energy per Si atom -5576.027101 kJ/mol
# Density = 1.904695 g / cm^3
# Si number density = 19.090402 Si / 1000 Ang^3
#
#
#
# Elastic Constant Matrix: (Units=GPa)
#
#
# Indices 1 2 3 4 5 6 
#
# 1 30.3437 12.2497 45.2316 0.0000 0.0000 0.0000
# 2 12.2497 72.1548 32.0362 0.0000 0.0000 0.0000
# 3 45.2316 32.0362 124.8400 0.0000 0.0000 0.0000
# 4 0.0000 0.0000 0.0000 3.5419 0.0000 0.0000
# 5 0.0000 0.0000 0.0000 0.0000 25.9189 0.0000
# 6 0.0000 0.0000 0.0000 0.0000 0.0000 11.6246
#
#
#
# Elastic Compliance Matrix: (Units=1/GPa)
#
#
# Indices 1 2 3 4 5 6 
#
# 1 0.071689 -0.000720 -0.025789 0.000000 0.000000 0.000000
# 2 -0.000720 0.015648 -0.003755 0.000000 0.000000 0.000000
# 3 -0.025789 -0.003755 0.018318 0.000000 0.000000 0.000000
# 4 0.000000 0.000000 0.000000 0.282331 0.000000 0.000000
# 5 0.000000 0.000000 0.000000 0.000000 0.038582 0.000000
# 6 0.000000 0.000000 0.000000 0.000000 0.000000 0.086025
#
#
# Mechanical properties :
#
#
# Convention : Reuss Voigt Hill
#
# Bulk Modulus (GPa) = 22.15989 45.15262 33.65625
# Shear Modulus (GPa) = 8.50104 17.40516 12.95310
#
# Velocity S-wave (km/s) = 2.11251 3.02275 2.60766
# Velocity P-wave (km/s) = 4.19325 5.99050 5.17056
#
# Compressibility (1/GPa) = 0.04512658
#
# Stress axis : x y z
#
# Youngs Moduli (GPa) = 13.94909 63.90419 54.59210
#
# Poissons Ratio (x) = 0.04604 1.40789
# Poissons Ratio (y) = 0.01005 0.20497
# Poissons Ratio (z) = 0.35974 0.23994
#
# Static dielectric constant tensor:
#      x y z
#    x 1.683970 0.000000 0.000000 
#    y 0.000000 1.679310 0.000000 
#    z 0.000000 0.000000 1.644660 
# 
# From -- ./inp_files/38892.got.cif
#   From: 2010.05.17/outbox.cif.g08.bks.cpg/sg66_20_cif.got.tgz:38892.got - 2010.06.03 17:51:23.
