data_PCOD9496466
_publ_section_title
;
Structure prediction by ZEFSAII (Michael W. Deem and Ramdas Pophale) SiO2 
 PCOD9496466
Probable space group: C C C M
;
_chemical_formula_sum "Si O2"
_cell_formula_units_Z 104
_cell_length_a 13.879339
_cell_length_b 20.323130
_cell_length_c 18.043620
_cell_angle_alpha 90.000000
_cell_angle_beta 90.000000
_cell_angle_gamma 90.000000
_cell_volume 5089.592958
_symmetry_space_group_name_H-M "C C C M"
_symmetry_group_IT_number 66
_symmetry_cell_setting 'orthorhombic'
loop_
_space_group_symop_operation_xyz
x,y,z
-x,-y,z
x,-y,1/2-z
-x,y,1/2-z
-x,-y,-z
x,y,-z
-x,y,1/2+z
x,-y,1/2+z
1/2+x,1/2+y,z
1/2-x,1/2-y,z
1/2+x,1/2-y,1/2-z
1/2-x,1/2+y,1/2-z
1/2-x,1/2-y,-z
1/2+x,1/2+y,-z
1/2-x,1/2+y,1/2+z
1/2+x,1/2-y,1/2+z
loop_
_atom_site_type_symbol
_atom_site_label
_atom_site_fract_x
_atom_site_fract_y
_atom_site_fract_z
Si Si1 0.324855 0.417008 0.624867
Si Si2 0.967400 0.709277 0.912490
Si Si3 0.898080 0.611771 0.210727
Si Si4 0.902994 0.956964 0.920044
Si Si5 0.178757 0.688455 0.852285
Si Si6 0.760458 0.500000 0.750000
Si Si7 0.977821 0.846114 0.163258
O O1 0.327729 0.484040 0.578859
O O2 0.237624 0.369251 0.607693
O O3 0.305557 0.449643 0.704839
O O4 0.422416 0.373772 0.626844
O O5 0.081872 0.703904 0.896278
O O6 0.943091 0.779365 0.874837
O O7 0.918151 0.651107 0.864889
O O8 0.947332 0.707462 0.000000
O O9 0.849927 0.661382 0.270872
O O10 0.831776 0.547351 0.203082
O O11 0.000000 0.593843 0.250000
O O12 0.901571 0.903501 0.855794
O O13 0.907205 0.923159 0.000000
O O14 0.000000 0.000000 0.909569
O O15 0.250000 0.750000 0.845528
O O16 0.000000 0.836638 0.250000
#
# Coordination Sequence:
#
# PCOD9496466 Si02
#       7
#    16  16  16  16  16   8  16
#     4  10  20  33  55  87 114 145 192 245 306 343
#     4  11  23  38  58  88 121 158 195 239 301 358
#     4   9  20  38  62  83 112 150 200 237 287 350
#     4   9  19  34  50  76 118 159 187 226 292 361
#     4  10  19  36  58  90 113 146 188 251 302 343
#     4  10  19  36  61  88 108 146 192 254 291 340
#     4  11  20  34  58  84 117 157 205 241 283 353
#
# _framework density 20.433852999999999
#
# number of rings (size 3 to 8) (size 9 to 14) (size 15 to 20)
#    0.000    2.000    1.538    3.000    0.000    3.692 
#    0.000    0.769    0.000   12.462    0.000    0.000 
#    0.000    0.000    0.000    0.000    0.000    0.000 
#
# Total GULP energy -289921.569927 kJ/mol
# GULP energy per Si atom -5575.414806 kJ/mol
# Density = 2.038734 g / cm^3
# Si number density = 20.433853 Si / 1000 Ang^3
#
#
#
# Elastic Constant Matrix: (Units=GPa)
#
#
# Indices 1 2 3 4 5 6 
#
# 1 27.8005 20.1457 0.5153 0.0000 0.0000 0.0000
# 2 20.1457 84.1806 28.5549 0.0000 0.0000 0.0000
# 3 0.5153 28.5549 112.2517 0.0000 0.0000 0.0000
# 4 0.0000 0.0000 0.0000 24.4049 0.0000 0.0000
# 5 0.0000 0.0000 0.0000 0.0000 8.5682 0.0000
# 6 0.0000 0.0000 0.0000 0.0000 0.0000 30.1731
#
#
#
# Elastic Compliance Matrix: (Units=1/GPa)
#
#
# Indices 1 2 3 4 5 6 
#
# 1 0.044267 -0.011519 0.002727 0.000000 0.000000 0.000000
# 2 -0.011519 0.015998 -0.004017 0.000000 0.000000 0.000000
# 3 0.002727 -0.004017 0.009918 0.000000 0.000000 0.000000
# 4 0.000000 0.000000 0.000000 0.040975 0.000000 0.000000
# 5 0.000000 0.000000 0.000000 0.000000 0.116711 0.000000
# 6 0.000000 0.000000 0.000000 0.000000 0.000000 0.033142
#
#
# Mechanical properties :
#
#
# Convention : Reuss Voigt Hill
#
# Bulk Modulus (GPa) = 22.43860 35.85161 29.14510
# Shear Modulus (GPa) = 16.58462 24.29705 20.44083
#
# Velocity S-wave (km/s) = 2.85199 3.45201 3.16625
# Velocity P-wave (km/s) = 4.67441 5.78548 5.25937
#
# Compressibility (1/GPa) = 0.04456606
#
# Stress axis : x y z
#
# Youngs Moduli (GPa) = 22.59010 62.50626 100.82842
#
# Poissons Ratio (x) = 0.72000 -0.27496
# Poissons Ratio (y) = 0.26021 0.40501
# Poissons Ratio (z) = -0.06160 0.25108
#
# Static dielectric constant tensor:
#      x y z
#    x 1.757610 0.000000 0.000000 
#    y 0.000000 1.732950 0.000000 
#    z 0.000000 0.000000 1.770090 
# 
# From -- ./inp_files/40549.got.cif
#   From: 2010.05.17/outbox.cif.g08.bks.cpg/sg66_21_cif.got.tgz:40549.got - 2010.06.03 17:51:23.
