data_PCOD9496258
_publ_section_title
;
Structure prediction by ZEFSAII (Michael W. Deem and Ramdas Pophale) SiO2 
 PCOD9496258
Probable space group: C C C M
;
_chemical_formula_sum "Si O2"
_cell_formula_units_Z 72
_cell_length_a 27.130538
_cell_length_b 14.419197
_cell_length_c 7.778233
_cell_angle_alpha 90.000000
_cell_angle_beta 90.000000
_cell_angle_gamma 90.000000
_cell_volume 3042.849200
_symmetry_space_group_name_H-M "C C C M"
_symmetry_group_IT_number 66
_symmetry_cell_setting 'orthorhombic'
loop_
_space_group_symop_operation_xyz
x,y,z
-x,-y,z
x,-y,1/2-z
-x,y,1/2-z
-x,-y,-z
x,y,-z
-x,y,1/2+z
x,-y,1/2+z
1/2+x,1/2+y,z
1/2-x,1/2-y,z
1/2+x,1/2-y,1/2-z
1/2-x,1/2+y,1/2-z
1/2-x,1/2-y,-z
1/2+x,1/2+y,-z
1/2-x,1/2+y,1/2+z
1/2+x,1/2-y,1/2+z
loop_
_atom_site_type_symbol
_atom_site_label
_atom_site_fract_x
_atom_site_fract_y
_atom_site_fract_z
Si Si1 0.731416 0.000000 0.750000
Si Si2 0.424690 0.398179 0.298275
Si Si3 0.946356 0.696185 0.805783
Si Si4 0.837523 0.655486 0.209029
Si Si5 0.689702 0.361397 0.794407
O O1 0.691510 0.923858 0.690592
O O2 0.771980 0.923886 0.810281
O O3 0.443082 0.500000 0.250000
O O4 0.432349 0.382806 0.500000
O O5 0.446266 0.308458 0.205105
O O6 0.366060 0.395287 0.263083
O O7 0.894193 0.664756 0.726323
O O8 0.000000 0.662801 0.750000
O O9 0.941275 0.666768 0.000000
O O10 0.811670 0.754019 0.243935
O O11 0.835363 0.637910 0.000000
O O12 0.700502 0.371569 0.000000
#
# Coordination Sequence:
#
# PCOD9496258 Si02
#       5
#     8  16  16  16  16
#     4  12  22  38  63  92 123 164 206 246 296 356
#     4  10  19  34  56  87 121 157 198 244 295 358
#     4  10  21  40  62  85 114 154 198 251 309 359
#     4  10  24  42  62  90 124 159 202 251 302 360
#     4  10  22  38  59  88 125 165 204 246 296 353
#
# _framework density 23.662033999999998
#
# number of rings (size 3 to 8) (size 9 to 14) (size 15 to 20)
#    0.000    1.778    1.111    2.667    0.000    7.556 
#    0.000    2.778    0.000    2.667    0.000    0.000 
#    0.000    0.000    0.000    0.000    0.000    0.000 
#
# Total GULP energy -200601.734352 kJ/mol
# GULP energy per Si atom -5572.270399 kJ/mol
# Density = 2.360818 g / cm^3
# Si number density = 23.662034 Si / 1000 Ang^3
#
#
#
# Elastic Constant Matrix: (Units=GPa)
#
#
# Indices 1 2 3 4 5 6 
#
# 1 181.7153 52.4662 41.5832 0.0000 0.0000 0.0000
# 2 52.4662 115.4008 16.5021 0.0000 0.0000 0.0000
# 3 41.5832 16.5021 62.2926 0.0000 0.0000 0.0000
# 4 0.0000 0.0000 0.0000 -20.1825 0.0000 0.0000
# 5 0.0000 0.0000 0.0000 0.0000 -10.4644 0.0000
# 6 0.0000 0.0000 0.0000 0.0000 0.0000 -31.6888
#
#
#
# Elastic Compliance Matrix: (Units=1/GPa)
#
#
# Indices 1 2 3 4 5 6 
#
# 1 0.007221 -0.002696 -0.004106 0.000000 0.000000 0.000000
# 2 -0.002696 0.010013 -0.000853 0.000000 0.000000 0.000000
# 3 -0.004106 -0.000853 0.019020 0.000000 0.000000 0.000000
# 4 0.000000 0.000000 0.000000 -0.049548 0.000000 0.000000
# 5 0.000000 0.000000 0.000000 0.000000 -0.095562 0.000000
# 6 0.000000 0.000000 0.000000 0.000000 0.000000 -0.031557
#
#
# Mechanical properties :
#
#
# Convention : Reuss Voigt Hill
#
# Bulk Modulus (GPa) = 47.74554 64.50131 56.12342
# Shear Modulus (GPa) = -42.32949 4.12336 -19.10306
#
# Velocity S-wave (km/s) = -4.23415 1.32151 -2.84444
# Velocity P-wave (km/s) = 1.91889 5.44492 3.60312
#
# Compressibility (1/GPa) = 0.02094437
#
# Stress axis : x y z
#
# Youngs Moduli (GPa) = 138.48202 99.86941 52.57516
#
# Poissons Ratio (x) = 0.26923 0.21589
# Poissons Ratio (y) = 0.37333 0.04485
# Poissons Ratio (z) = 0.56865 0.08519
#
# Static dielectric constant tensor:
#      x y z
#    x 1.946230 0.000000 0.000000 
#    y 0.000000 1.858180 0.000000 
#    z 0.000000 0.000000 1.999080 
# 
# From -- ./inp_files/9983.got.cif
#   From: 2010.05.17/outbox.cif.g08.bks.cpg/sg66_5_cif.got.tgz:9983.got - 2010.06.03 17:51:23.
