data_PCOD9496139
_publ_section_title
;
Structure prediction by ZEFSAII (Michael W. Deem and Ramdas Pophale) SiO2 
 PCOD9496139
Probable space group: C C C M
;
_chemical_formula_sum "Si O2"
_cell_formula_units_Z 48
_cell_length_a 14.965235
_cell_length_b 8.711077
_cell_length_c 16.723119
_cell_angle_alpha 90.000000
_cell_angle_beta 90.000000
_cell_angle_gamma 90.000000
_cell_volume 2180.081220
_symmetry_space_group_name_H-M "C C C M"
_symmetry_group_IT_number 66
_symmetry_cell_setting 'orthorhombic'
loop_
_space_group_symop_operation_xyz
x,y,z
-x,-y,z
x,-y,1/2-z
-x,y,1/2-z
-x,-y,-z
x,y,-z
-x,y,1/2+z
x,-y,1/2+z
1/2+x,1/2+y,z
1/2-x,1/2-y,z
1/2+x,1/2-y,1/2-z
1/2-x,1/2+y,1/2-z
1/2-x,1/2-y,-z
1/2+x,1/2+y,-z
1/2-x,1/2+y,1/2+z
1/2+x,1/2-y,1/2+z
loop_
_atom_site_type_symbol
_atom_site_label
_atom_site_fract_x
_atom_site_fract_y
_atom_site_fract_z
Si Si1 0.331939 0.375228 0.000000
Si Si2 0.098025 0.566613 0.500000
Si Si3 0.899666 0.933704 0.834475
Si Si4 0.898855 0.565981 0.170611
O O1 0.250000 0.250000 0.000000
O O2 0.412920 0.250880 0.000000
O O3 0.344548 0.462502 0.083652
O O4 0.141399 0.522267 0.415641
O O5 0.000000 0.500000 0.500000
O O6 0.901872 0.749418 0.824263
O O7 0.865461 0.000000 0.750000
O O8 0.000000 0.000000 0.844711
O O9 0.854509 0.500000 0.250000
O O10 0.000000 0.500000 0.169248
#
# Coordination Sequence:
#
# PCOD9496139 Si02
#       4
#     8   8  16  16
#     4  10  21  37  54  79 117 156 183 222 292 353
#     4   8  16  29  48  71  94 130 179 218 253 311
#     4  10  19  33  56  85 111 144 194 243 279 327
#     4   9  15  26  45  75 105 130 168 223 277 317
#
# _framework density 22.017527999999999
#
# number of rings (size 3 to 8) (size 9 to 14) (size 15 to 20)
#    0.000    2.667    0.000    4.500    0.000    0.000 
#    0.000   11.667    0.000    0.000    0.000   85.167 
#    0.000    0.000    0.000    0.000    0.000    0.000 
#
# Total GULP energy -133611.288745 kJ/mol
# GULP energy per Si atom -5567.137031 kJ/mol
# Density = 2.196742 g / cm^3
# Si number density = 22.017528 Si / 1000 Ang^3
#
#
#
# Elastic Constant Matrix: (Units=GPa)
#
#
# Indices 1 2 3 4 5 6 
#
# 1 84.0687 17.6741 44.1755 0.0000 0.0000 0.0000
# 2 17.6741 74.3758 52.0813 0.0000 0.0000 0.0000
# 3 44.1755 52.0813 327.6970 0.0000 0.0000 0.0000
# 4 0.0000 0.0000 0.0000 39.3551 0.0000 0.0000
# 5 0.0000 0.0000 0.0000 0.0000 -17.7666 0.0000
# 6 0.0000 0.0000 0.0000 0.0000 0.0000 16.5958
#
#
#
# Elastic Compliance Matrix: (Units=1/GPa)
#
#
# Indices 1 2 3 4 5 6 
#
# 1 0.013090 -0.002110 -0.001429 0.000000 0.000000 0.000000
# 2 -0.002110 0.015469 -0.002174 0.000000 0.000000 0.000000
# 3 -0.001429 -0.002174 0.003590 0.000000 0.000000 0.000000
# 4 0.000000 0.000000 0.000000 0.025410 0.000000 0.000000
# 5 0.000000 0.000000 0.000000 0.000000 -0.056286 0.000000
# 6 0.000000 0.000000 0.000000 0.000000 0.000000 0.060256
#
#
# Mechanical properties :
#
#
# Convention : Reuss Voigt Hill
#
# Bulk Modulus (GPa) = 48.25728 79.33371 63.79550
# Shear Modulus (GPa) = 62.60796 32.45093 47.52944
#
# Velocity S-wave (km/s) = 5.33828 3.84326 4.65123
# Velocity P-wave (km/s) = 7.74349 7.47024 7.60809
#
# Compressibility (1/GPa) = 0.02072226
#
# Stress axis : x y z
#
# Youngs Moduli (GPa) = 76.39660 64.64553 278.56668
#
# Poissons Ratio (x) = 0.13638 0.39814
# Poissons Ratio (y) = 0.16117 0.60563
# Poissons Ratio (z) = 0.10919 0.14055
#
# Static dielectric constant tensor:
#      x y z
#    x 1.862870 0.000000 0.000000 
#    y 0.000000 1.781620 0.000000 
#    z 0.000000 0.000000 1.980200 
# 
# From -- ./inp_files/35889.got.cif
#   From: 2010.05.17/outbox.cif.g08.bks.cpg/sg66_18_cif.got.tgz:35889.got - 2010.06.03 17:51:23.
