data_PCOD9496255
_publ_section_title
;
Structure prediction by ZEFSAII (Michael W. Deem and Ramdas Pophale) SiO2 
 PCOD9496255
Probable space group: C C C M
;
_chemical_formula_sum "Si O2"
_cell_formula_units_Z 96
_cell_length_a 27.814909
_cell_length_b 18.725324
_cell_length_c 9.863552
_cell_angle_alpha 90.000000
_cell_angle_beta 90.000000
_cell_angle_gamma 90.000000
_cell_volume 5137.363820
_symmetry_space_group_name_H-M "C C C M"
_symmetry_group_IT_number 66
_symmetry_cell_setting 'orthorhombic'
loop_
_space_group_symop_operation_xyz
x,y,z
-x,-y,z
x,-y,1/2-z
-x,y,1/2-z
-x,-y,-z
x,y,-z
-x,y,1/2+z
x,-y,1/2+z
1/2+x,1/2+y,z
1/2-x,1/2-y,z
1/2+x,1/2-y,1/2-z
1/2-x,1/2+y,1/2-z
1/2-x,1/2-y,-z
1/2+x,1/2+y,-z
1/2-x,1/2+y,1/2+z
1/2+x,1/2-y,1/2+z
loop_
_atom_site_type_symbol
_atom_site_label
_atom_site_fract_x
_atom_site_fract_y
_atom_site_fract_z
Si Si1 0.860838 0.817257 0.841537
Si Si2 0.645877 0.061515 0.152145
Si Si3 0.281876 0.569905 0.341541
Si Si4 0.460911 0.102108 0.646698
Si Si5 0.189002 0.331192 0.154503
Si Si6 0.547902 0.272362 0.162882
O O1 0.832130 0.889972 0.812300
O O2 0.821241 0.752950 0.834848
O O3 0.904944 0.802807 0.739612
O O4 0.877329 0.817795 0.000000
O O5 0.588417 0.059392 0.146664
O O6 0.658101 0.134320 0.226791
O O7 0.664520 0.000000 0.250000
O O8 0.665052 0.056455 0.000000
O O9 0.275118 0.500000 0.250000
O O10 0.281110 0.549188 0.500000
O O11 0.240614 0.631019 0.326361
O O12 0.500000 0.077653 0.750000
O O13 0.483992 0.097659 0.500000
O O14 0.449342 0.185854 0.670953
O O15 0.173477 0.351125 0.000000
O O16 0.500000 0.292731 0.250000
O O17 0.545454 0.289839 0.000000
#
# Coordination Sequence:
#
# PCOD9496255 Si02
#       6
#    16  16  16  16  16  16
#     4  10  20  36  60  87 115 149 190 235 282 334
#     4  11  22  35  49  72 105 143 186 233 280 332
#     4  10  22  39  58  84 117 152 190 232 283 340
#     4   9  19  33  49  69  99 136 178 227 276 328
#     4  10  20  36  58  82 109 147 190 234 278 327
#     4  10  19  34  56  85 116 147 185 231 284 338
#
# _framework density 18.686626
#
# number of rings (size 3 to 8) (size 9 to 14) (size 15 to 20)
#    0.000    2.000    1.667    2.000    0.000    7.000 
#    0.000    1.667    0.000    3.500    0.000    3.500 
#    0.000    0.000    0.000    0.000    0.000    0.000 
#
# Total GULP energy -267514.583429 kJ/mol
# GULP energy per Si atom -5573.220488 kJ/mol
# Density = 1.864409 g / cm^3
# Si number density = 18.686626 Si / 1000 Ang^3
#
#
#
# Elastic Constant Matrix: (Units=GPa)
#
#
# Indices 1 2 3 4 5 6 
#
# 1 94.5054 41.3911 77.0894 0.0000 0.0000 0.0000
# 2 41.3911 60.5841 53.9305 0.0000 0.0000 0.0000
# 3 77.0894 53.9305 139.1238 0.0000 0.0000 0.0000
# 4 0.0000 0.0000 0.0000 105.3677 0.0000 0.0000
# 5 0.0000 0.0000 0.0000 0.0000 -11.9379 0.0000
# 6 0.0000 0.0000 0.0000 0.0000 0.0000 8.0587
#
#
#
# Elastic Compliance Matrix: (Units=1/GPa)
#
#
# Indices 1 2 3 4 5 6 
#
# 1 0.020639 -0.005986 -0.009116 0.000000 0.000000 0.000000
# 2 -0.005986 0.026939 -0.007126 0.000000 0.000000 0.000000
# 3 -0.009116 -0.007126 0.015001 0.000000 0.000000 0.000000
# 4 0.000000 0.000000 0.000000 0.009491 0.000000 0.000000
# 5 0.000000 0.000000 0.000000 0.000000 -0.083767 0.000000
# 6 0.000000 0.000000 0.000000 0.000000 0.000000 0.124090
#
#
# Mechanical properties :
#
#
# Convention : Reuss Voigt Hill
#
# Bulk Modulus (GPa) = 55.17557 71.00392 63.08975
# Shear Modulus (GPa) = 30.69575 28.41785 29.55680
#
# Velocity S-wave (km/s) = 4.05737 3.90392 3.98138
# Velocity P-wave (km/s) = 7.17917 7.64202 7.41421
#
# Compressibility (1/GPa) = 0.01812396
#
# Stress axis : x y z
#
# Youngs Moduli (GPa) = 48.45207 37.12120 66.66121
#
# Poissons Ratio (x) = 0.22220 0.60767
# Poissons Ratio (y) = 0.29003 0.47502
# Poissons Ratio (z) = 0.44168 0.26452
#
# Static dielectric constant tensor:
#      x y z
#    x 1.668900 0.000000 0.000000 
#    y 0.000000 1.650230 0.000000 
#    z 0.000000 0.000000 1.656860 
# 
# From -- ./inp_files/7948.got.cif
#   From: 2010.05.17/outbox.cif.g08.bks.cpg/sg66_4_cif.got.tgz:7948.got - 2010.06.03 17:51:23.
