data_PCOD9496368
_publ_section_title
;
Structure prediction by ZEFSAII (Michael W. Deem and Ramdas Pophale) SiO2 
 PCOD9496368
Probable space group: C C C M
;
_chemical_formula_sum "Si O2"
_cell_formula_units_Z 104
_cell_length_a 24.720946
_cell_length_b 14.631824
_cell_length_c 14.378438
_cell_angle_alpha 90.000000
_cell_angle_beta 90.000000
_cell_angle_gamma 90.000000
_cell_volume 5200.861201
_symmetry_space_group_name_H-M "C C C M"
_symmetry_group_IT_number 66
_symmetry_cell_setting 'orthorhombic'
loop_
_space_group_symop_operation_xyz
x,y,z
-x,-y,z
x,-y,1/2-z
-x,y,1/2-z
-x,-y,-z
x,y,-z
-x,y,1/2+z
x,-y,1/2+z
1/2+x,1/2+y,z
1/2-x,1/2-y,z
1/2+x,1/2-y,1/2-z
1/2-x,1/2+y,1/2-z
1/2-x,1/2-y,-z
1/2+x,1/2+y,-z
1/2-x,1/2+y,1/2+z
1/2+x,1/2-y,1/2+z
loop_
_atom_site_type_symbol
_atom_site_label
_atom_site_fract_x
_atom_site_fract_y
_atom_site_fract_z
Si Si1 0.203030 0.686474 0.106104
Si Si2 0.500000 0.242276 0.750000
Si Si3 0.702620 0.310893 0.604478
Si Si4 0.264236 0.016082 0.851197
Si Si5 0.417999 0.138835 0.386664
Si Si6 0.915695 0.232155 0.389671
Si Si7 0.381456 0.062439 0.109418
O O1 0.250000 0.750000 0.148370
O O2 0.224781 0.582539 0.105775
O O3 0.141202 0.679699 0.140956
O O4 0.196366 0.718747 0.000000
O O5 0.462950 0.183482 0.678569
O O6 0.538296 0.298965 0.680676
O O7 0.695354 0.271719 0.500000
O O8 0.750000 0.250000 0.648376
O O9 0.725537 0.412523 0.599841
O O10 0.642681 0.304383 0.643015
O O11 0.323561 0.062235 0.840431
O O12 0.240546 0.000000 0.750000
O O13 0.426291 0.150273 0.500000
O O14 0.413647 0.029813 0.368072
O O15 0.924548 0.212321 0.500000
O O16 0.912290 0.342833 0.379044
O O17 0.367149 0.054708 0.000000
#
# Coordination Sequence:
#
# PCOD9496368 Si02
#       7
#    16   8  16  16  16  16  16
#     4   9  19  37  58  79 107 142 179 227 286 346
#     4  12  24  35  52  72 111 158 196 240 275 324
#     4  10  19  35  58  81 109 147 187 233 287 341
#     4  11  21  29  51  84 118 144 174 224 282 348
#     4   9  20  35  52  75 107 147 189 229 277 336
#     4  10  22  36  54  79 107 146 196 237 283 338
#     4   9  18  34  51  73 106 143 184 230 275 329
#
# _framework density 19.996689
#
# number of rings (size 3 to 8) (size 9 to 14) (size 15 to 20)
#    0.000    2.154    1.538    2.769    4.308    3.077 
#    0.000    2.308    0.000    0.000    0.000    4.846 
#    0.000   13.538    0.000    0.000    0.000    0.000 
#
# Total GULP energy -289994.165344 kJ/mol
# GULP energy per Si atom -5576.810872 kJ/mol
# Density = 1.995118 g / cm^3
# Si number density = 19.996689 Si / 1000 Ang^3
#
#
#
# Elastic Constant Matrix: (Units=GPa)
#
#
# Indices 1 2 3 4 5 6 
#
# 1 135.0834 33.9972 45.7153 0.0000 0.0000 0.0000
# 2 33.9972 35.3670 8.5787 0.0000 0.0000 0.0000
# 3 45.7153 8.5787 91.1783 0.0000 0.0000 0.0000
# 4 0.0000 0.0000 0.0000 29.9587 0.0000 0.0000
# 5 0.0000 0.0000 0.0000 0.0000 18.9837 0.0000
# 6 0.0000 0.0000 0.0000 0.0000 0.0000 26.7136
#
#
#
# Elastic Compliance Matrix: (Units=1/GPa)
#
#
# Indices 1 2 3 4 5 6 
#
# 1 0.011541 -0.009917 -0.004854 0.000000 0.000000 0.000000
# 2 -0.009917 0.037457 0.001448 0.000000 0.000000 0.000000
# 3 -0.004854 0.001448 0.013265 0.000000 0.000000 0.000000
# 4 0.000000 0.000000 0.000000 0.033379 0.000000 0.000000
# 5 0.000000 0.000000 0.000000 0.000000 0.052677 0.000000
# 6 0.000000 0.000000 0.000000 0.000000 0.000000 0.037434
#
#
# Mechanical properties :
#
#
# Convention : Reuss Voigt Hill
#
# Bulk Modulus (GPa) = 28.07598 48.69012 38.38305
# Shear Modulus (GPa) = 22.29454 26.68703 24.49078
#
# Velocity S-wave (km/s) = 3.34265 3.65714 3.50343
# Velocity P-wave (km/s) = 5.38224 6.49884 5.96672
#
# Compressibility (1/GPa) = 0.03561763
#
# Stress axis : x y z
#
# Youngs Moduli (GPa) = 86.64583 26.69762 75.38773
#
# Poissons Ratio (x) = 0.26476 0.36590
# Poissons Ratio (y) = 0.85926 -0.10916
# Poissons Ratio (z) = 0.42054 -0.03866
#
# Static dielectric constant tensor:
#      x y z
#    x 1.744360 0.000000 0.000000 
#    y 0.000000 1.694930 0.000000 
#    z 0.000000 0.000000 1.780000 
# 
# From -- ./inp_files/32502.got.cif
#   From: 2010.05.17/outbox.cif.g08.bks.cpg/sg66_17_cif.got.tgz:32502.got - 2010.06.03 17:51:23.
