data_PCOD9496070
_publ_section_title
;
Structure prediction by ZEFSAII (Michael W. Deem and Ramdas Pophale) SiO2 
 PCOD9496070
Probable space group: C C C M
;
_chemical_formula_sum "Si O2"
_cell_formula_units_Z 56
_cell_length_a 17.622445
_cell_length_b 11.961794
_cell_length_c 14.084875
_cell_angle_alpha 90.000000
_cell_angle_beta 90.000000
_cell_angle_gamma 90.000000
_cell_volume 2969.036111
_symmetry_space_group_name_H-M "C C C M"
_symmetry_group_IT_number 66
_symmetry_cell_setting 'orthorhombic'
loop_
_space_group_symop_operation_xyz
x,y,z
-x,-y,z
x,-y,1/2-z
-x,y,1/2-z
-x,-y,-z
x,y,-z
-x,y,1/2+z
x,-y,1/2+z
1/2+x,1/2+y,z
1/2-x,1/2-y,z
1/2+x,1/2-y,1/2-z
1/2-x,1/2+y,1/2-z
1/2-x,1/2-y,-z
1/2+x,1/2+y,-z
1/2-x,1/2+y,1/2+z
1/2+x,1/2-y,1/2+z
loop_
_atom_site_type_symbol
_atom_site_label
_atom_site_fract_x
_atom_site_fract_y
_atom_site_fract_z
Si Si1 0.570227 0.425386 0.391726
Si Si2 0.325055 0.000000 0.750000
Si Si3 0.703891 0.394670 0.107991
Si Si4 0.838451 0.742930 0.222026
O O1 0.500000 0.500000 0.356457
O O2 0.552004 0.389206 0.500000
O O3 0.638985 0.512405 0.394314
O O4 0.602315 0.322632 0.331160
O O5 0.271624 0.953286 0.834239
O O6 0.364845 0.885550 0.718507
O O7 0.672197 0.292668 0.171627
O O8 0.723222 0.366400 0.000000
O O9 0.750000 0.750000 0.183281
#
# Coordination Sequence:
#
# PCOD9496070 Si02
#       4
#    16   8  16  16
#     4  10  20  34  56  84 111 150 198 242 290 346
#     4  10  20  34  51  81 112 148 194 232 290 350
#     4  10  19  33  52  79 111 148 189 237 286 340
#     4  10  19  34  52  81 115 150 187 243 289 348
#
# _framework density 18.861339999999998
#
# number of rings (size 3 to 8) (size 9 to 14) (size 15 to 20)
#    0.000    2.000    5.714    0.000    0.000    9.143 
#    0.000    0.000    0.000    3.429    0.000    6.000 
#    0.000    0.000    0.000    0.000    0.000    0.000 
#
# Total GULP energy -155988.069116 kJ/mol
# GULP energy per Si atom -5571.002468 kJ/mol
# Density = 1.881841 g / cm^3
# Si number density = 18.861340 Si / 1000 Ang^3
#
#
#
# Elastic Constant Matrix: (Units=GPa)
#
#
# Indices 1 2 3 4 5 6 
#
# 1 54.5188 40.1484 34.6121 0.0000 0.0000 0.0000
# 2 40.1484 194.9647 68.4476 0.0000 0.0000 0.0000
# 3 34.6121 68.4476 134.0582 0.0000 0.0000 0.0000
# 4 0.0000 0.0000 0.0000 4.7111 0.0000 0.0000
# 5 0.0000 0.0000 0.0000 0.0000 14.5817 0.0000
# 6 0.0000 0.0000 0.0000 0.0000 0.0000 32.7478
#
#
#
# Elastic Compliance Matrix: (Units=1/GPa)
#
#
# Indices 1 2 3 4 5 6 
#
# 1 0.023571 -0.003311 -0.004395 0.000000 0.000000 0.000000
# 2 -0.003311 0.006714 -0.002573 0.000000 0.000000 0.000000
# 3 -0.004395 -0.002573 0.009908 0.000000 0.000000 0.000000
# 4 0.000000 0.000000 0.000000 0.212262 0.000000 0.000000
# 5 0.000000 0.000000 0.000000 0.000000 0.068579 0.000000
# 6 0.000000 0.000000 0.000000 0.000000 0.000000 0.030536
#
#
# Mechanical properties :
#
#
# Convention : Reuss Voigt Hill
#
# Bulk Modulus (GPa) = 50.93092 74.43977 62.68534
# Shear Modulus (GPa) = 13.20393 26.43037 19.81715
#
# Velocity S-wave (km/s) = 2.64872 3.74745 3.24493
# Velocity P-wave (km/s) = 6.03454 7.63394 6.88087
#
# Compressibility (1/GPa) = 0.01963444
#
# Stress axis : x y z
#
# Youngs Moduli (GPa) = 42.42534 148.93390 100.92656
#
# Poissons Ratio (x) = 0.49309 0.44360
# Poissons Ratio (y) = 0.14046 0.25973
# Poissons Ratio (z) = 0.18647 0.38327
#
# Static dielectric constant tensor:
#      x y z
#    x 1.690910 0.000000 0.000000 
#    y 0.000000 1.680170 0.000000 
#    z 0.000000 0.000000 1.714800 
# 
# From -- ./inp_files/25599.got.cif
#   From: 2010.05.17/outbox.cif.g08.bks.cpg/sg66_13_cif.got.tgz:25599.got - 2010.06.03 17:51:23.
