data_PCOD9496932
_publ_section_title
;
Structure prediction by ZEFSAII (Michael W. Deem and Ramdas Pophale) SiO2 
 PCOD9496932
Probable space group: C C C M
;
_chemical_formula_sum "Si O2"
_cell_formula_units_Z 80
_cell_length_a 15.757553
_cell_length_b 15.757628
_cell_length_c 15.129695
_cell_angle_alpha 90.000000
_cell_angle_beta 90.000000
_cell_angle_gamma 90.000000
_cell_volume 3756.728359
_symmetry_space_group_name_H-M "C C C M"
_symmetry_group_IT_number 66
_symmetry_cell_setting 'orthorhombic'
loop_
_space_group_symop_operation_xyz
x,y,z
-x,-y,z
x,-y,1/2-z
-x,y,1/2-z
-x,-y,-z
x,y,-z
-x,y,1/2+z
x,-y,1/2+z
1/2+x,1/2+y,z
1/2-x,1/2-y,z
1/2+x,1/2-y,1/2-z
1/2-x,1/2+y,1/2-z
1/2-x,1/2-y,-z
1/2+x,1/2+y,-z
1/2-x,1/2+y,1/2+z
1/2+x,1/2-y,1/2+z
loop_
_atom_site_type_symbol
_atom_site_label
_atom_site_fract_x
_atom_site_fract_y
_atom_site_fract_z
Si Si1 0.571088 0.928909 0.399352
Si Si2 0.997221 0.246009 0.853243
Si Si3 0.180805 0.819198 0.643519
Si Si4 0.753989 0.997219 0.646758
Si Si5 0.179765 0.179764 0.639013
O O1 0.593798 0.906201 0.500000
O O2 0.527744 0.845443 0.358498
O O3 0.654555 0.972250 0.358496
O O4 0.500000 0.000000 0.399228
O O5 0.914010 0.202361 0.892144
O O6 0.000000 0.223800 0.750000
O O7 0.088138 0.213561 0.887381
O O8 0.250000 0.750000 0.616544
O O9 0.180543 0.819458 0.752254
O O10 0.213567 0.911863 0.612619
O O11 0.797639 0.914010 0.607856
O O12 0.776199 0.000000 0.750000
O O13 0.250000 0.250000 0.612962
#
# Coordination Sequence:
#
# PCOD9496932 Si02
#       5
#    16  16  16  16  16
#     4  11  24  37  53  85 117 142 190 240 275 334
#     4  10  20  34  58  80 111 150 187 231 285 332
#     4   9  18  31  50  83 113 142 189 234 271 337
#     4  10  20  34  58  80 111 150 187 231 285 332
#     4   9  16  31  51  84 112 137 190 241 271 328
#
# _framework density 21.295124000000001
#
# number of rings (size 3 to 8) (size 9 to 14) (size 15 to 20)
#    0.000    2.200    2.000    1.200    5.600    0.800 
#    0.000    7.000    0.000    3.600    0.000    2.800 
#    0.000    0.000    0.000    0.000    0.000    0.000 
#
# Total GULP energy -223010.574028 kJ/mol
# GULP energy per Si atom -5575.264351 kJ/mol
# Density = 2.124666 g / cm^3
# Si number density = 21.295124 Si / 1000 Ang^3
#
#
#
# Elastic Constant Matrix: (Units=GPa)
#
#
# Indices 1 2 3 4 5 6 
#
# 1 193.5881 140.5191 4.8938 0.0000 0.0000 0.0000
# 2 140.5191 193.6299 4.8961 0.0000 0.0000 0.0000
# 3 4.8938 4.8961 39.7387 0.0000 0.0000 0.0000
# 4 0.0000 0.0000 0.0000 12.7084 0.0000 0.0000
# 5 0.0000 0.0000 0.0000 0.0000 12.7024 0.0000
# 6 0.0000 0.0000 0.0000 0.0000 0.0000 47.4360
#
#
#
# Elastic Compliance Matrix: (Units=1/GPa)
#
#
# Indices 1 2 3 4 5 6 
#
# 1 0.010921 -0.007916 -0.000370 0.000000 0.000000 0.000000
# 2 -0.007916 0.010919 -0.000370 0.000000 0.000000 0.000000
# 3 -0.000370 -0.000370 0.025256 0.000000 0.000000 0.000000
# 4 0.000000 0.000000 0.000000 0.078688 0.000000 0.000000
# 5 0.000000 0.000000 0.000000 0.000000 0.078725 0.000000
# 6 0.000000 0.000000 0.000000 0.000000 0.000000 0.021081
#
#
# Mechanical properties :
#
#
# Convention : Reuss Voigt Hill
#
# Bulk Modulus (GPa) = 33.57623 80.84164 57.20894
# Shear Modulus (GPa) = 19.77618 33.01254 26.39436
#
# Velocity S-wave (km/s) = 3.05072 3.94158 3.52441
# Velocity P-wave (km/s) = 5.31136 7.66548 6.59432
#
# Compressibility (1/GPa) = 0.02978298
#
# Stress axis : x y z
#
# Youngs Moduli (GPa) = 91.56663 91.58619 39.59529
#
# Poissons Ratio (x) = 0.72501 0.01463
# Poissons Ratio (y) = 0.72485 0.01467
# Poissons Ratio (z) = 0.03384 0.03392
#
# Static dielectric constant tensor:
#      x y z
#    x 2.057190 0.000000 0.000000 
#    y 0.000000 2.056780 0.000000 
#    z 0.000000 0.000000 1.791130 
# 
# From -- ./inp_files/49745.got.cif
#   From: 2010.05.17/outbox.cif.g08.bks.cpg/sg66_25_cif.got.tgz:49745.got - 2010.06.03 17:51:23.
