data_PCOD9496277
_publ_section_title
;
Structure prediction by ZEFSAII (Michael W. Deem and Ramdas Pophale) SiO2 
 PCOD9496277
Probable space group: C C C M
;
_chemical_formula_sum "Si O2"
_cell_formula_units_Z 64
_cell_length_a 9.353745
_cell_length_b 14.713291
_cell_length_c 23.209944
_cell_angle_alpha 90.000000
_cell_angle_beta 90.000000
_cell_angle_gamma 90.000000
_cell_volume 3194.253970
_symmetry_space_group_name_H-M "C C C M"
_symmetry_group_IT_number 66
_symmetry_cell_setting 'orthorhombic'
loop_
_space_group_symop_operation_xyz
x,y,z
-x,-y,z
x,-y,1/2-z
-x,y,1/2-z
-x,-y,-z
x,y,-z
-x,y,1/2+z
x,-y,1/2+z
1/2+x,1/2+y,z
1/2-x,1/2-y,z
1/2+x,1/2-y,1/2-z
1/2-x,1/2+y,1/2-z
1/2-x,1/2-y,-z
1/2+x,1/2+y,-z
1/2-x,1/2+y,1/2+z
1/2+x,1/2-y,1/2+z
loop_
_atom_site_type_symbol
_atom_site_label
_atom_site_fract_x
_atom_site_fract_y
_atom_site_fract_z
Si Si1 0.818266 0.147652 0.385504
Si Si2 0.435941 0.091406 0.185522
Si Si3 0.909895 0.644295 0.500000
Si Si4 0.780365 0.451684 0.500000
Si Si5 0.410300 0.249649 0.380738
O O1 0.750000 0.250000 0.395631
O O2 0.731083 0.103757 0.331451
O O3 0.791088 0.086908 0.441944
O O4 0.987906 0.162567 0.378082
O O5 0.500000 0.091355 0.250000
O O6 0.506702 0.176640 0.156304
O O7 0.500000 0.000000 0.157509
O O8 0.797011 0.561026 0.500000
O O9 0.901422 0.708553 0.444753
O O10 0.062621 0.594167 0.500000
O O11 0.250000 0.250000 0.357997
#
# Coordination Sequence:
#
# PCOD9496277 Si02
#       5
#    16  16   8   8  16
#     4  10  19  34  58  84 111 152 192 232 286 344
#     4  10  21  39  61  83 108 144 194 242 287 350
#     4  11  20  33  56  85 118 154 188 240 285 340
#     4  11  18  32  60  84 112 151 202 232 275 352
#     4  11  23  37  56  85 121 151 190 240 287 342
#
# _framework density 20.035978
#
# number of rings (size 3 to 8) (size 9 to 14) (size 15 to 20)
#    0.000    1.500    5.000    3.000    0.000    3.000 
#    0.000    6.250    0.000    3.000    0.000    0.000 
#    0.000    0.000    0.000    0.000    0.000    0.000 
#
# Total GULP energy -178320.971354 kJ/mol
# GULP energy per Si atom -5572.530355 kJ/mol
# Density = 1.999038 g / cm^3
# Si number density = 20.035978 Si / 1000 Ang^3
#
#
#
# Elastic Constant Matrix: (Units=GPa)
#
#
# Indices 1 2 3 4 5 6 
#
# 1 151.6338 40.3567 26.4709 0.0000 0.0000 0.0000
# 2 40.3567 56.9790 23.0177 0.0000 0.0000 0.0000
# 3 26.4709 23.0177 85.6429 0.0000 0.0000 0.0000
# 4 0.0000 0.0000 0.0000 -14.6901 0.0000 0.0000
# 5 0.0000 0.0000 0.0000 0.0000 -23.5202 0.0000
# 6 0.0000 0.0000 0.0000 0.0000 0.0000 29.9794
#
#
#
# Elastic Compliance Matrix: (Units=1/GPa)
#
#
# Indices 1 2 3 4 5 6 
#
# 1 0.008217 -0.005378 -0.001094 0.000000 0.000000 0.000000
# 2 -0.005378 0.023208 -0.004575 0.000000 0.000000 0.000000
# 3 -0.001094 -0.004575 0.013244 0.000000 0.000000 0.000000
# 4 0.000000 0.000000 0.000000 -0.068073 0.000000 0.000000
# 5 0.000000 0.000000 0.000000 0.000000 -0.042517 0.000000
# 6 0.000000 0.000000 0.000000 0.000000 0.000000 0.033356
#
#
# Mechanical properties :
#
#
# Convention : Reuss Voigt Hill
#
# Bulk Modulus (GPa) = 44.29848 52.66072 48.47960
# Shear Modulus (GPa) = -1698.00609 11.98118 -843.01246
#
# Velocity S-wave (km/s) = -29.14307 2.44802 -20.53443
# Velocity P-wave (km/s) = 33.32067 5.85923 23.19414
#
# Compressibility (1/GPa) = 0.02257414
#
# Stress axis : x y z
#
# Youngs Moduli (GPa) = 121.69600 43.08938 75.50428
#
# Poissons Ratio (x) = 0.23173 0.08263
# Poissons Ratio (y) = 0.65447 0.34544
# Poissons Ratio (z) = 0.13319 0.19714
#
# Static dielectric constant tensor:
#      x y z
#    x 1.952370 0.000000 0.000000 
#    y 0.000000 1.733630 0.000000 
#    z 0.000000 0.000000 1.441090 
# 
# From -- ./inp_files/54999.got.cif
#   From: 2010.05.17/outbox.cif.g08.bks.cpg/sg66_28_cif.got.tgz:54999.got - 2010.06.03 17:51:23.
