data_PCOD9496714
_publ_section_title
;
Structure prediction by ZEFSAII (Michael W. Deem and Ramdas Pophale) SiO2 
 PCOD9496714
Probable space group: C C C M
;
_chemical_formula_sum "Si O2"
_cell_formula_units_Z 96
_cell_length_a 25.670111
_cell_length_b 25.410802
_cell_length_c 8.784784
_cell_angle_alpha 90.000000
_cell_angle_beta 90.000000
_cell_angle_gamma 90.000000
_cell_volume 5730.297982
_symmetry_space_group_name_H-M "C C C M"
_symmetry_group_IT_number 66
_symmetry_cell_setting 'orthorhombic'
loop_
_space_group_symop_operation_xyz
x,y,z
-x,-y,z
x,-y,1/2-z
-x,y,1/2-z
-x,-y,-z
x,y,-z
-x,y,1/2+z
x,-y,1/2+z
1/2+x,1/2+y,z
1/2-x,1/2-y,z
1/2+x,1/2-y,1/2-z
1/2-x,1/2+y,1/2-z
1/2-x,1/2-y,-z
1/2+x,1/2+y,-z
1/2-x,1/2+y,1/2+z
1/2+x,1/2-y,1/2+z
loop_
_atom_site_type_symbol
_atom_site_label
_atom_site_fract_x
_atom_site_fract_y
_atom_site_fract_z
Si Si1 0.613704 0.947126 0.172051
Si Si2 0.761401 0.331339 0.817914
Si Si3 0.948452 0.638194 0.320832
Si Si4 0.171296 0.242322 0.816295
Si Si5 0.761600 0.445787 0.672879
Si Si6 0.946314 0.754185 0.181385
O O1 0.599158 0.898430 0.277135
O O2 0.675856 0.951484 0.163416
O O3 0.593082 0.000000 0.250000
O O4 0.593825 0.939860 0.000000
O O5 0.810722 0.299972 0.744533
O O6 0.711829 0.298072 0.758348
O O7 0.754213 0.391351 0.763487
O O8 0.765580 0.328676 0.000000
O O9 0.953478 0.645776 0.500000
O O10 0.944400 0.693999 0.238178
O O11 0.000000 0.611825 0.250000
O O12 0.111811 0.226459 0.777424
O O13 0.176512 0.242531 0.000000
O O14 0.742014 0.500000 0.750000
O O15 0.741512 0.440718 0.500000
O O16 0.000000 0.777440 0.250000
O O17 0.950952 0.755750 0.000000
#
# Coordination Sequence:
#
# PCOD9496714 Si02
#       6
#    16  16  16  16  16  16
#     4  10  20  33  47  63  83 110 147 189 234 279
#     4  11  21  32  50  75 101 131 166 204 246 291
#     4  11  21  32  46  62  83 112 148 190 234 279
#     4  10  20  34  51  72 100 133 166 202 246 293
#     4  10  20  34  51  70  95 125 157 195 237 286
#     4  10  20  33  50  70  93 123 157 194 237 284
#
# _framework density 16.753055
#
# number of rings (size 3 to 8) (size 9 to 14) (size 15 to 20)
#    0.000    1.667    0.000    8.000    0.000    9.000 
#    0.000    1.667    0.000    0.000    0.000    0.000 
#    0.000    0.667    0.000    7.000    0.000    3.833 
#
# Total GULP energy -267691.416738 kJ/mol
# GULP energy per Si atom -5576.904515 kJ/mol
# Density = 1.671492 g / cm^3
# Si number density = 16.753055 Si / 1000 Ang^3
#
#
#
# Elastic Constant Matrix: (Units=GPa)
#
#
# Indices 1 2 3 4 5 6 
#
# 1 73.2848 8.7292 34.5678 0.0000 0.0000 0.0000
# 2 8.7292 66.9073 24.8795 0.0000 0.0000 0.0000
# 3 34.5678 24.8795 87.0511 0.0000 0.0000 0.0000
# 4 0.0000 0.0000 0.0000 19.7049 0.0000 0.0000
# 5 0.0000 0.0000 0.0000 0.0000 21.8268 0.0000
# 6 0.0000 0.0000 0.0000 0.0000 0.0000 12.2859
#
#
#
# Elastic Compliance Matrix: (Units=1/GPa)
#
#
# Indices 1 2 3 4 5 6 
#
# 1 0.016797 0.000323 -0.006762 0.000000 0.000000 0.000000
# 2 0.000323 0.016730 -0.004910 0.000000 0.000000 0.000000
# 3 -0.006762 -0.004910 0.015576 0.000000 0.000000 0.000000
# 4 0.000000 0.000000 0.000000 0.050749 0.000000 0.000000
# 5 0.000000 0.000000 0.000000 0.000000 0.045815 0.000000
# 6 0.000000 0.000000 0.000000 0.000000 0.000000 0.081394
#
#
# Mechanical properties :
#
#
# Convention : Reuss Voigt Hill
#
# Bulk Modulus (GPa) = 37.87222 40.39956 39.13589
# Shear Modulus (GPa) = 19.33793 21.36798 20.35296
#
# Velocity S-wave (km/s) = 3.40117 3.57524 3.48929
# Velocity P-wave (km/s) = 6.17084 6.41952 6.29641
#
# Compressibility (1/GPa) = 0.02640458
#
# Stress axis : x y z
#
# Youngs Moduli (GPa) = 59.53583 59.77446 64.20141
#
# Poissons Ratio (x) = -0.01932 0.43415
# Poissons Ratio (y) = -0.01924 0.31521
# Poissons Ratio (z) = 0.40260 0.29347
#
# Static dielectric constant tensor:
#      x y z
#    x 1.673780 0.000000 0.000000 
#    y 0.000000 1.555210 0.000000 
#    z 0.000000 0.000000 1.576540 
# 
# From -- ./inp_files/7952.got.cif
#   From: 2010.05.17/outbox.cif.g08.bks.cpg/sg66_4_cif.got.tgz:7952.got - 2010.06.03 17:51:23.
