data_PCOD9496042
_publ_section_title
;
Structure prediction by ZEFSAII (Michael W. Deem and Ramdas Pophale) SiO2 
 PCOD9496042
Probable space group: C C C M
;
_chemical_formula_sum "Si O2"
_cell_formula_units_Z 96
_cell_length_a 27.808335
_cell_length_b 9.728042
_cell_length_c 18.221089
_cell_angle_alpha 90.000000
_cell_angle_beta 90.000000
_cell_angle_gamma 90.000000
_cell_volume 4929.180855
_symmetry_space_group_name_H-M "C C C M"
_symmetry_group_IT_number 66
_symmetry_cell_setting 'orthorhombic'
loop_
_space_group_symop_operation_xyz
x,y,z
-x,-y,z
x,-y,1/2-z
-x,y,1/2-z
-x,-y,-z
x,y,-z
-x,y,1/2+z
x,-y,1/2+z
1/2+x,1/2+y,z
1/2-x,1/2-y,z
1/2+x,1/2-y,1/2-z
1/2-x,1/2+y,1/2-z
1/2-x,1/2-y,-z
1/2+x,1/2+y,-z
1/2-x,1/2+y,1/2+z
1/2+x,1/2-y,1/2+z
loop_
_atom_site_type_symbol
_atom_site_label
_atom_site_fract_x
_atom_site_fract_y
_atom_site_fract_z
Si Si1 0.296526 0.327847 0.911741
Si Si2 0.600502 0.223642 0.581913
Si Si3 0.947319 0.347336 0.279200
Si Si4 0.553966 0.476894 0.918270
Si Si5 0.201951 0.842740 0.086245
Si Si6 0.123315 0.861012 0.797532
O O1 0.250000 0.250000 0.881654
O O2 0.345573 0.252137 0.887887
O O3 0.292995 0.492066 0.900413
O O4 0.297164 0.312679 0.000000
O O5 0.603820 0.162952 0.500000
O O6 0.562830 0.147379 0.633962
O O7 0.579247 0.376378 0.575568
O O8 0.940848 0.500000 0.250000
O O9 0.905471 0.246520 0.251741
O O10 0.000000 0.300707 0.250000
O O11 0.500000 0.500000 0.891995
O O12 0.584953 0.397043 0.860442
O O13 0.552048 0.414195 0.000000
O O14 0.250000 0.750000 0.089535
O O15 0.167403 0.802698 0.154161
O O16 0.184264 0.830140 0.000000
O O17 0.134438 0.000000 0.750000
#
# Coordination Sequence:
#
# PCOD9496042 Si02
#       6
#    16  16  16  16  16  16
#     4   9  17  32  58  88 117 153 199 248 295 357
#     4  10  19  38  63  87 119 159 207 248 295 362
#     4  11  25  43  59  87 127 163 196 247 312 374
#     4  10  19  32  58  94 121 148 197 255 300 350
#     4  10  21  39  60  87 122 158 201 256 310 361
#     4  12  22  37  63  89 119 156 206 253 311 362
#
# _framework density 19.475852
#
# number of rings (size 3 to 8) (size 9 to 14) (size 15 to 20)
#    0.000    1.667    3.333    1.500    0.000    1.333 
#    0.000   10.000    0.000    0.000    0.000    0.000 
#    0.000    0.000    0.000    0.000    0.000    0.000 
#
# Total GULP energy -267360.760070 kJ/mol
# GULP energy per Si atom -5570.015835 kJ/mol
# Density = 1.943152 g / cm^3
# Si number density = 19.475852 Si / 1000 Ang^3
#
#
#
# Elastic Constant Matrix: (Units=GPa)
#
#
# Indices 1 2 3 4 5 6 
#
# 1 125.3812 15.6734 50.8912 0.0000 0.0000 0.0000
# 2 15.6734 31.3867 29.2064 0.0000 0.0000 0.0000
# 3 50.8912 29.2064 79.4152 0.0000 0.0000 0.0000
# 4 0.0000 0.0000 0.0000 -90.7691 0.0000 0.0000
# 5 0.0000 0.0000 0.0000 0.0000 30.2180 0.0000
# 6 0.0000 0.0000 0.0000 0.0000 0.0000 10.9426
#
#
#
# Elastic Compliance Matrix: (Units=1/GPa)
#
#
# Indices 1 2 3 4 5 6 
#
# 1 0.010832 0.001596 -0.007528 0.000000 0.000000 0.000000
# 2 0.001596 0.048672 -0.018923 0.000000 0.000000 0.000000
# 3 -0.007528 -0.018923 0.024376 0.000000 0.000000 0.000000
# 4 0.000000 0.000000 0.000000 -0.011017 0.000000 0.000000
# 5 0.000000 0.000000 0.000000 0.000000 0.033093 0.000000
# 6 0.000000 0.000000 0.000000 0.000000 0.000000 0.091386
#
#
# Mechanical properties :
#
#
# Convention : Reuss Voigt Hill
#
# Bulk Modulus (GPa) = 29.26588 47.52498 38.39543
# Shear Modulus (GPa) = 19.34675 -0.56089 9.39293
#
# Velocity S-wave (km/s) = 3.15520 -0.53723 2.19848
# Velocity P-wave (km/s) = 5.32288 4.90613 5.11875
#
# Compressibility (1/GPa) = 0.03416948
#
# Stress axis : x y z
#
# Youngs Moduli (GPa) = 92.32047 20.54572 41.02446
#
# Poissons Ratio (x) = -0.03280 0.30885
# Poissons Ratio (y) = -0.14738 0.77631
# Poissons Ratio (z) = 0.69503 0.38879
#
# Static dielectric constant tensor:
#      x y z
#    x 1.717490 0.000000 0.000000 
#    y 0.000000 1.653300 0.000000 
#    z 0.000000 0.000000 1.762960 
# 
# From -- ./inp_files/52941.got.cif
#   From: 2010.05.17/outbox.cif.g08.bks.cpg/sg66_27_cif.got.tgz:52941.got - 2010.06.03 17:51:23.
