data_PCOD9496845
_publ_section_title
;
Structure prediction by ZEFSAII (Michael W. Deem and Ramdas Pophale) SiO2 
 PCOD9496845
Probable space group: C C C M
;
_chemical_formula_sum "Si O2"
_cell_formula_units_Z 96
_cell_length_a 23.773509
_cell_length_b 22.171867
_cell_length_c 10.690515
_cell_angle_alpha 90.000000
_cell_angle_beta 90.000000
_cell_angle_gamma 90.000000
_cell_volume 5635.003380
_symmetry_space_group_name_H-M "C C C M"
_symmetry_group_IT_number 66
_symmetry_cell_setting 'orthorhombic'
loop_
_space_group_symop_operation_xyz
x,y,z
-x,-y,z
x,-y,1/2-z
-x,y,1/2-z
-x,-y,-z
x,y,-z
-x,y,1/2+z
x,-y,1/2+z
1/2+x,1/2+y,z
1/2-x,1/2-y,z
1/2+x,1/2-y,1/2-z
1/2-x,1/2+y,1/2-z
1/2-x,1/2-y,-z
1/2+x,1/2+y,-z
1/2-x,1/2+y,1/2+z
1/2+x,1/2-y,1/2+z
loop_
_atom_site_type_symbol
_atom_site_label
_atom_site_fract_x
_atom_site_fract_y
_atom_site_fract_z
Si Si1 0.229428 0.172646 0.361618
Si Si2 0.452672 0.594910 0.852212
Si Si3 0.671112 0.569953 0.753117
Si Si4 0.039710 0.240647 0.636702
Si Si5 0.157839 0.280413 0.726427
Si Si6 0.796638 0.148411 0.500000
Si Si7 0.327804 0.211191 0.000000
O O1 0.216980 0.195183 0.500000
O O2 0.207516 0.106075 0.347051
O O3 0.193386 0.217270 0.273144
O O4 0.295103 0.176727 0.332673
O O5 0.500000 0.576157 0.750000
O O6 0.393357 0.575951 0.792231
O O7 0.453327 0.668019 0.855733
O O8 0.459367 0.575420 0.000000
O O9 0.685646 0.500000 0.750000
O O10 0.685469 0.606382 0.881629
O O11 0.015893 0.254817 0.500000
O O12 0.101109 0.269218 0.652748
O O13 0.000000 0.259376 0.750000
O O14 0.144771 0.301564 0.866624
O O15 0.731203 0.172590 0.500000
O O16 0.824854 0.214958 0.500000
#
# Coordination Sequence:
#
# PCOD9496845 Si02
#       7
#    16  16  16  16  16   8   8
#     4  11  20  34  53  76 101 137 175 222 273 325
#     4  10  22  40  55  72  97 136 188 236 279 320
#     4  12  25  37  54  76 106 143 183 229 272 329
#     4  10  20  34  53  78 107 139 176 224 276 327
#     4  11  19  33  55  80 105 133 177 222 273 333
#     4  11  20  38  54  81 106 136 181 225 285 328
#     4  11  18  34  58  80 106 135 177 229 278 340
#
# _framework density 17.036370000000002
#
# number of rings (size 3 to 8) (size 9 to 14) (size 15 to 20)
#    0.000    1.167    5.000    3.500    4.667    0.333 
#    0.000    0.833    0.000    0.000    0.000    0.000 
#    0.000    0.667    0.000    4.667    0.000    0.500 
#
# Total GULP energy -267356.880349 kJ/mol
# GULP energy per Si atom -5569.935007 kJ/mol
# Density = 1.699759 g / cm^3
# Si number density = 17.036370 Si / 1000 Ang^3
#
#
#
# Elastic Constant Matrix: (Units=GPa)
#
#
# Indices 1 2 3 4 5 6 
#
# 1 67.2154 42.2804 22.9824 0.0000 0.0000 0.0000
# 2 42.2804 78.0118 25.6747 0.0000 0.0000 0.0000
# 3 22.9824 25.6747 119.4297 0.0000 0.0000 0.0000
# 4 0.0000 0.0000 0.0000 9.7501 0.0000 0.0000
# 5 0.0000 0.0000 0.0000 0.0000 20.2261 0.0000
# 6 0.0000 0.0000 0.0000 0.0000 0.0000 5.0203
#
#
#
# Elastic Compliance Matrix: (Units=1/GPa)
#
#
# Indices 1 2 3 4 5 6 
#
# 1 0.022957 -0.011825 -0.001876 0.000000 0.000000 0.000000
# 2 -0.011825 0.019885 -0.001999 0.000000 0.000000 0.000000
# 3 -0.001876 -0.001999 0.009164 0.000000 0.000000 0.000000
# 4 0.000000 0.000000 0.000000 0.102563 0.000000 0.000000
# 5 0.000000 0.000000 0.000000 0.000000 0.049441 0.000000
# 6 0.000000 0.000000 0.000000 0.000000 0.000000 0.199191
#
#
# Mechanical properties :
#
#
# Convention : Reuss Voigt Hill
#
# Bulk Modulus (GPa) = 48.52831 49.61465 49.07148
# Shear Modulus (GPa) = 11.32579 18.58059 14.95319
#
# Velocity S-wave (km/s) = 2.58117 3.30607 2.96585
# Velocity P-wave (km/s) = 6.11802 6.61509 6.37141
#
# Compressibility (1/GPa) = 0.02060653
#
# Stress axis : x y z
#
# Youngs Moduli (GPa) = 43.55969 50.28835 109.12389
#
# Poissons Ratio (x) = 0.59465 0.20468
# Poissons Ratio (y) = 0.51508 0.21818
# Poissons Ratio (z) = 0.08170 0.10055
#
# Static dielectric constant tensor:
#      x y z
#    x 1.574820 0.000000 0.000000 
#    y 0.000000 1.562060 0.000000 
#    z 0.000000 0.000000 1.660160 
# 
# From -- ./inp_files/18960.got.cif
#   From: 2010.05.17/outbox.cif.g08.bks.cpg/sg66_10_cif.got.tgz:18960.got - 2010.06.03 17:51:23.
