data_PCOD9496033
_publ_section_title
;
Structure prediction by ZEFSAII (Michael W. Deem and Ramdas Pophale) SiO2 
 PCOD9496033
Probable space group: C C C M
;
_chemical_formula_sum "Si O2"
_cell_formula_units_Z 112
_cell_length_a 12.297697
_cell_length_b 16.480102
_cell_length_c 30.001172
_cell_angle_alpha 90.000000
_cell_angle_beta 90.000000
_cell_angle_gamma 90.000000
_cell_volume 6080.256554
_symmetry_space_group_name_H-M "C C C M"
_symmetry_group_IT_number 66
_symmetry_cell_setting 'orthorhombic'
loop_
_space_group_symop_operation_xyz
x,y,z
-x,-y,z
x,-y,1/2-z
-x,y,1/2-z
-x,-y,-z
x,y,-z
-x,y,1/2+z
x,-y,1/2+z
1/2+x,1/2+y,z
1/2-x,1/2-y,z
1/2+x,1/2-y,1/2-z
1/2-x,1/2+y,1/2-z
1/2-x,1/2-y,-z
1/2+x,1/2+y,-z
1/2-x,1/2+y,1/2+z
1/2+x,1/2-y,1/2+z
loop_
_atom_site_type_symbol
_atom_site_label
_atom_site_fract_x
_atom_site_fract_y
_atom_site_fract_z
Si Si1 0.273352 0.157773 0.208324
Si Si2 0.683662 0.166788 0.811957
Si Si3 0.246088 0.155190 0.551049
Si Si4 0.065337 0.928168 0.677414
Si Si5 0.494847 0.097121 0.451090
Si Si6 0.641605 0.577950 0.634170
Si Si7 0.033510 0.596129 0.352235
O O1 0.250000 0.250000 0.193987
O O2 0.318147 0.159086 0.258654
O O3 0.155799 0.115144 0.205602
O O4 0.359848 0.113981 0.176675
O O5 0.750000 0.250000 0.822481
O O6 0.759095 0.097983 0.833500
O O7 0.565136 0.151206 0.832697
O O8 0.208849 0.147624 0.500000
O O9 0.250000 0.250000 0.562841
O O10 0.368830 0.122214 0.553816
O O11 0.171399 0.108444 0.585731
O O12 0.966848 0.879459 0.654581
O O13 0.120502 0.981851 0.638123
O O14 0.000000 0.000000 0.702351
O O15 0.533063 0.128166 0.500000
O O16 0.550813 0.118987 0.404297
O O17 0.500000 0.000000 0.453132
O O18 0.000000 0.500000 0.349674
#
# Coordination Sequence:
#
# PCOD9496033 Si02
#       7
#    16  16  16  16  16  16  16
#     4  11  25  40  55  85 121 153 195 242 290 348
#     4  11  23  37  59  84 114 151 195 240 297 345
#     4  10  19  32  56  87 114 142 184 241 293 337
#     4   8  22  38  57  78 106 153 195 227 274 354
#     4   9  19  33  54  85 114 145 187 236 293 351
#     4   9  19  37  58  79 112 143 197 231 281 337
#     4  11  23  38  62  87 119 153 193 246 298 340
#
# _framework density 18.420276000000001
#
# number of rings (size 3 to 8) (size 9 to 14) (size 15 to 20)
#    0.857    1.143    1.429    1.714    4.000    3.429 
#    2.571    1.429    0.000    1.286    0.000    0.000 
#    0.000    0.000    0.000    0.000    0.000    0.000 
#
# Total GULP energy -311792.757046 kJ/mol
# GULP energy per Si atom -5567.727804 kJ/mol
# Density = 1.837835 g / cm^3
# Si number density = 18.420276 Si / 1000 Ang^3
#
#
#
# Elastic Constant Matrix: (Units=GPa)
#
#
# Indices 1 2 3 4 5 6 
#
# 1 59.8104 20.6191 10.9877 0.0000 0.0000 0.0000
# 2 20.6191 58.8843 12.7476 0.0000 0.0000 0.0000
# 3 10.9877 12.7476 106.5882 0.0000 0.0000 0.0000
# 4 0.0000 0.0000 0.0000 6.7077 0.0000 0.0000
# 5 0.0000 0.0000 0.0000 0.0000 -11.3274 0.0000
# 6 0.0000 0.0000 0.0000 0.0000 0.0000 27.0164
#
#
#
# Elastic Compliance Matrix: (Units=1/GPa)
#
#
# Indices 1 2 3 4 5 6 
#
# 1 0.019164 -0.006450 -0.001204 0.000000 0.000000 0.000000
# 2 -0.006450 0.019605 -0.001680 0.000000 0.000000 0.000000
# 3 -0.001204 -0.001680 0.009707 0.000000 0.000000 0.000000
# 4 0.000000 0.000000 0.000000 0.149083 0.000000 0.000000
# 5 0.000000 0.000000 0.000000 0.000000 -0.088281 0.000000
# 6 0.000000 0.000000 0.000000 0.000000 0.000000 0.037015
#
#
# Mechanical properties :
#
#
# Convention : Reuss Voigt Hill
#
# Bulk Modulus (GPa) = 33.54791 34.88795 34.21793
# Shear Modulus (GPa) = 28.58846 16.54122 22.56484
#
# Velocity S-wave (km/s) = 3.94383 2.99990 3.50380
# Velocity P-wave (km/s) = 6.24423 5.56599 5.91484
#
# Compressibility (1/GPa) = 0.02980812
#
# Stress axis : x y z
#
# Youngs Moduli (GPa) = 52.18037 51.00831 103.01919
#
# Poissons Ratio (x) = 0.32900 0.12405
# Poissons Ratio (y) = 0.33656 0.17305
# Poissons Ratio (z) = 0.06283 0.08568
#
# Static dielectric constant tensor:
#      x y z
#    x 1.642220 0.000000 0.000000 
#    y 0.000000 1.668280 0.000000 
#    z 0.000000 0.000000 1.657030 
# 
# From -- ./inp_files/69092.got.cif
#   From: 2010.05.17/outbox.cif.g08.bks.cpg/sg66_35_cif.got.tgz:69092.got - 2010.06.03 17:51:23.
