data_PCOD9496223
_publ_section_title
;
Structure prediction by ZEFSAII (Michael W. Deem and Ramdas Pophale) SiO2 
 PCOD9496223
Probable space group: C C C M
;
_chemical_formula_sum "Si O2"
_cell_formula_units_Z 72
_cell_length_a 25.470389
_cell_length_b 16.386174
_cell_length_c 9.541841
_cell_angle_alpha 90.000000
_cell_angle_beta 90.000000
_cell_angle_gamma 90.000000
_cell_volume 3982.404000
_symmetry_space_group_name_H-M "C C C M"
_symmetry_group_IT_number 66
_symmetry_cell_setting 'orthorhombic'
loop_
_space_group_symop_operation_xyz
x,y,z
-x,-y,z
x,-y,1/2-z
-x,y,1/2-z
-x,-y,-z
x,y,-z
-x,y,1/2+z
x,-y,1/2+z
1/2+x,1/2+y,z
1/2-x,1/2-y,z
1/2+x,1/2-y,1/2-z
1/2-x,1/2+y,1/2-z
1/2-x,1/2-y,-z
1/2+x,1/2+y,-z
1/2-x,1/2+y,1/2+z
1/2+x,1/2-y,1/2+z
loop_
_atom_site_type_symbol
_atom_site_label
_atom_site_fract_x
_atom_site_fract_y
_atom_site_fract_z
Si Si1 0.825563 0.084161 0.166195
Si Si2 0.704995 0.859883 0.343862
Si Si3 0.449355 0.865782 0.342729
Si Si4 0.370514 0.000000 0.250000
Si Si5 0.860882 0.762256 0.168133
O O1 0.764404 0.111269 0.176532
O O2 0.857749 0.154335 0.246067
O O3 0.832136 0.000000 0.250000
O O4 0.837779 0.077132 0.000000
O O5 0.699823 0.823118 0.500000
O O6 0.685264 0.796127 0.228198
O O7 0.667277 0.938801 0.333880
O O8 0.500000 0.880097 0.250000
O O9 0.467809 0.853882 0.500000
O O10 0.409063 0.941393 0.336227
O O11 0.414388 0.787508 0.301494
O O12 0.856072 0.772773 0.000000
#
# Coordination Sequence:
#
# PCOD9496223 Si02
#       5
#    16  16  16   8  16
#     4  11  22  36  56  82 111 146 186 228 275 328
#     4  10  20  34  53  79 113 151 188 223 266 326
#     4  10  22  37  56  80 109 146 188 232 281 328
#     4  10  19  34  54  82 118 152 185 226 266 324
#     4  10  22  38  55  78 109 146 186 231 281 330
#
# _framework density 18.079532
#
# number of rings (size 3 to 8) (size 9 to 14) (size 15 to 20)
#    0.000    1.778    1.111    3.000    0.000   11.556 
#    0.000    0.000    0.000    0.667    0.000    4.667 
#    0.000    0.000    0.000    0.000    0.000    0.000 
#
# Total GULP energy -200958.484873 kJ/mol
# GULP energy per Si atom -5582.180135 kJ/mol
# Density = 1.803838 g / cm^3
# Si number density = 18.079532 Si / 1000 Ang^3
#
#
#
# Elastic Constant Matrix: (Units=GPa)
#
#
# Indices 1 2 3 4 5 6 
#
# 1 49.7836 17.3016 20.3227 0.0000 0.0000 0.0000
# 2 17.3016 95.7981 39.1602 0.0000 0.0000 0.0000
# 3 20.3227 39.1602 78.7228 0.0000 0.0000 0.0000
# 4 0.0000 0.0000 0.0000 25.2883 0.0000 0.0000
# 5 0.0000 0.0000 0.0000 0.0000 0.0624 0.0000
# 6 0.0000 0.0000 0.0000 0.0000 0.0000 9.2264
#
#
#
# Elastic Compliance Matrix: (Units=1/GPa)
#
#
# Indices 1 2 3 4 5 6 
#
# 1 0.022800 -0.002149 -0.004817 0.000000 0.000000 0.000000
# 2 -0.002149 0.013306 -0.006064 0.000000 0.000000 0.000000
# 3 -0.004817 -0.006064 0.016963 0.000000 0.000000 0.000000
# 4 0.000000 0.000000 0.000000 0.039544 0.000000 0.000000
# 5 0.000000 0.000000 0.000000 0.000000 16.035304 0.000000
# 6 0.000000 0.000000 0.000000 0.000000 0.000000 0.108384
#
#
# Mechanical properties :
#
#
# Convention : Reuss Voigt Hill
#
# Bulk Modulus (GPa) = 37.02492 41.98592 39.50542
# Shear Modulus (GPa) = 0.30729 16.75009 8.52869
#
# Velocity S-wave (km/s) = 0.41272 3.04709 2.17429
# Velocity P-wave (km/s) = 4.55527 5.97102 5.31053
#
# Compressibility (1/GPa) = 0.02700884
#
# Stress axis : x y z
#
# Youngs Moduli (GPa) = 43.85942 75.15673 58.95218
#
# Poissons Ratio (x) = 0.16149 0.28398
# Poissons Ratio (y) = 0.09424 0.35749
# Poissons Ratio (z) = 0.21128 0.45576
#
# Static dielectric constant tensor:
#      x y z
#    x 1.596530 0.000000 0.000000 
#    y 0.000000 1.632930 0.000000 
#    z 0.000000 0.000000 1.621190 
# 
# From -- ./inp_files/5359.got.cif
#   From: 2010.05.17/outbox.cif.g08.bks.cpg/sg66_3_cif.got.tgz:5359.got - 2010.06.03 17:51:23.
