data_PCOD9496144
_publ_section_title
;
Structure prediction by ZEFSAII (Michael W. Deem and Ramdas Pophale) SiO2 
 PCOD9496144
Probable space group: C C C M
;
_chemical_formula_sum "Si O2"
_cell_formula_units_Z 112
_cell_length_a 19.861245
_cell_length_b 13.305443
_cell_length_c 22.727809
_cell_angle_alpha 90.000000
_cell_angle_beta 90.000000
_cell_angle_gamma 90.000000
_cell_volume 6006.111336
_symmetry_space_group_name_H-M "C C C M"
_symmetry_group_IT_number 66
_symmetry_cell_setting 'orthorhombic'
loop_
_space_group_symop_operation_xyz
x,y,z
-x,-y,z
x,-y,1/2-z
-x,y,1/2-z
-x,-y,-z
x,y,-z
-x,y,1/2+z
x,-y,1/2+z
1/2+x,1/2+y,z
1/2-x,1/2-y,z
1/2+x,1/2-y,1/2-z
1/2-x,1/2+y,1/2-z
1/2-x,1/2-y,-z
1/2+x,1/2+y,-z
1/2-x,1/2+y,1/2+z
1/2+x,1/2-y,1/2+z
loop_
_atom_site_type_symbol
_atom_site_label
_atom_site_fract_x
_atom_site_fract_y
_atom_site_fract_z
Si Si1 0.204255 0.659900 0.431193
Si Si2 0.581050 0.115419 0.745606
Si Si3 0.799515 0.436182 0.070908
Si Si4 0.155054 0.122460 0.430543
Si Si5 0.930191 0.280964 0.622666
Si Si6 0.413727 0.191839 0.627563
Si Si7 0.433369 0.568131 0.568392
O O1 0.222436 0.653147 0.500000
O O2 0.250000 0.750000 0.405822
O O3 0.213154 0.548681 0.406072
O O4 0.125669 0.684154 0.423678
O O5 0.500000 0.108636 0.750000
O O6 0.594911 0.174989 0.685333
O O7 0.600905 0.176604 0.803547
O O8 0.606647 0.000000 0.750000
O O9 0.733266 0.372293 0.086034
O O10 0.867900 0.389476 0.094622
O O11 0.803055 0.438894 0.000000
O O12 0.148285 0.147069 0.500000
O O13 0.110027 0.199792 0.394783
O O14 0.128304 0.008770 0.423700
O O15 0.933058 0.160760 0.613134
O O16 0.006653 0.319833 0.615173
O O17 0.500000 0.500000 0.574692
O O18 0.432230 0.604803 0.500000
#
# Coordination Sequence:
#
# PCOD9496144 Si02
#       7
#    16  16  16  16  16  16  16
#     4  10  21  37  56  80 112 149 186 231 287 349
#     4   9  20  38  57  78 110 151 193 237 289 339
#     4  10  21  35  54  83 117 152 186 229 290 352
#     4  10  20  36  57  83 121 158 187 226 286 354
#     4  11  21  36  60  84 110 147 196 238 286 340
#     4  11  21  35  57  83 111 144 193 239 287 341
#     4  10  19  33  56  88 121 153 187 229 286 349
#
# _framework density 18.647673000000001
#
# number of rings (size 3 to 8) (size 9 to 14) (size 15 to 20)
#    0.000    1.857    1.429    3.000    0.000    6.857 
#    0.000    3.571    0.000    1.714    0.000    0.000 
#    0.000    0.000    0.000    0.000    0.000    0.000 
#
# Total GULP energy -312292.497728 kJ/mol
# GULP energy per Si atom -5576.651745 kJ/mol
# Density = 1.860523 g / cm^3
# Si number density = 18.647673 Si / 1000 Ang^3
#
#
#
# Elastic Constant Matrix: (Units=GPa)
#
#
# Indices 1 2 3 4 5 6 
#
# 1 89.7514 29.0181 15.2941 0.0000 0.0000 0.0000
# 2 29.0181 96.4640 45.5531 0.0000 0.0000 0.0000
# 3 15.2941 45.5531 51.5962 0.0000 0.0000 0.0000
# 4 0.0000 0.0000 0.0000 15.7120 0.0000 0.0000
# 5 0.0000 0.0000 0.0000 0.0000 5.6431 0.0000
# 6 0.0000 0.0000 0.0000 0.0000 0.0000 23.8680
#
#
#
# Elastic Compliance Matrix: (Units=1/GPa)
#
#
# Indices 1 2 3 4 5 6 
#
# 1 0.012355 -0.003408 -0.000653 0.000000 0.000000 0.000000
# 2 -0.003408 0.018719 -0.015516 0.000000 0.000000 0.000000
# 3 -0.000653 -0.015516 0.033274 0.000000 0.000000 0.000000
# 4 0.000000 0.000000 0.000000 0.063646 0.000000 0.000000
# 5 0.000000 0.000000 0.000000 0.000000 0.177209 0.000000
# 6 0.000000 0.000000 0.000000 0.000000 0.000000 0.041897
#
#
# Mechanical properties :
#
#
# Convention : Reuss Voigt Hill
#
# Bulk Modulus (GPa) = 39.69441 46.39358 43.04400
# Shear Modulus (GPa) = 12.66935 18.90770 15.78853
#
# Velocity S-wave (km/s) = 2.60937 3.18770 2.91293
# Velocity P-wave (km/s) = 5.51463 6.20336 5.86910
#
# Compressibility (1/GPa) = 0.02519246
#
# Stress axis : x y z
#
# Youngs Moduli (GPa) = 80.93811 53.42136 30.05341
#
# Poissons Ratio (x) = 0.18207 0.01964
# Poissons Ratio (y) = 0.27584 0.46632
# Poissons Ratio (z) = 0.05288 0.82891
#
# Static dielectric constant tensor:
#      x y z
#    x 1.667210 0.000000 0.000000 
#    y 0.000000 1.680350 0.000000 
#    z 0.000000 0.000000 1.633810 
# 
# From -- ./inp_files/57159.got.cif
#   From: 2010.05.17/outbox.cif.g08.bks.cpg/sg66_29_cif.got.tgz:57159.got - 2010.06.03 17:51:23.
