data_PCOD9496290
_publ_section_title
;
Structure prediction by ZEFSAII (Michael W. Deem and Ramdas Pophale) SiO2 
 PCOD9496290
Probable space group: C C C M
;
_chemical_formula_sum "Si O2"
_cell_formula_units_Z 88
_cell_length_a 16.144794
_cell_length_b 12.389721
_cell_length_c 22.463068
_cell_angle_alpha 90.000000
_cell_angle_beta 90.000000
_cell_angle_gamma 90.000000
_cell_volume 4493.276109
_symmetry_space_group_name_H-M "C C C M"
_symmetry_group_IT_number 66
_symmetry_cell_setting 'orthorhombic'
loop_
_space_group_symop_operation_xyz
x,y,z
-x,-y,z
x,-y,1/2-z
-x,y,1/2-z
-x,-y,-z
x,y,-z
-x,y,1/2+z
x,-y,1/2+z
1/2+x,1/2+y,z
1/2-x,1/2-y,z
1/2+x,1/2-y,1/2-z
1/2-x,1/2+y,1/2-z
1/2-x,1/2-y,-z
1/2+x,1/2+y,-z
1/2-x,1/2+y,1/2+z
1/2+x,1/2-y,1/2+z
loop_
_atom_site_type_symbol
_atom_site_label
_atom_site_fract_x
_atom_site_fract_y
_atom_site_fract_z
Si Si1 0.088702 0.442188 0.500000
Si Si2 0.496097 0.711093 0.000000
Si Si3 0.482127 0.623172 0.367681
Si Si4 0.793601 0.132805 0.372049
Si Si5 0.631452 0.983302 0.129430
Si Si6 0.483555 0.157212 0.680914
Si Si7 0.675700 0.331860 0.500000
O O1 0.132422 0.483316 0.440004
O O2 0.000000 0.500000 0.500000
O O3 0.065276 0.313812 0.500000
O O4 0.494315 0.644887 0.937784
O O5 0.593682 0.742294 0.000000
O O6 0.500000 0.500000 0.353812
O O7 0.386076 0.640486 0.347702
O O8 0.529538 0.718148 0.333849
O O9 0.750000 0.250000 0.371479
O O10 0.815923 0.101114 0.440267
O O11 0.721905 0.053869 0.349865
O O12 0.594774 0.085996 0.163007
O O13 0.561801 0.890254 0.142408
O O14 0.500000 0.140631 0.750000
O O15 0.750000 0.250000 0.500000
#
# Coordination Sequence:
#
# PCOD9496290 Si02
#       7
#     8   8  16  16  16  16   8
#     4  12  19  27  58  95 125 151 197 247 307 363
#     4  10  19  36  53  90 122 160 199 235 301 373
#     4  11  22  40  65  88 122 164 201 245 304 375
#     4  10  19  34  58  88 124 150 195 243 295 351
#     4  11  20  35  61  94 121 154 194 258 304 359
#     4  11  23  39  61  85 118 161 208 253 300 350
#     4   8  17  23  48  82 120 151 178 234 282 345
#
# _framework density 19.584819
#
# number of rings (size 3 to 8) (size 9 to 14) (size 15 to 20)
#    0.000    1.455    5.455    1.909    5.091    0.364 
#    0.000    0.909   12.000    1.091    0.000    0.000 
#    0.000    0.000    0.000    0.000    0.000    0.000 
#
# Total GULP energy -245141.214921 kJ/mol
# GULP energy per Si atom -5571.391248 kJ/mol
# Density = 1.954024 g / cm^3
# Si number density = 19.584819 Si / 1000 Ang^3
#
#
#
# Elastic Constant Matrix: (Units=GPa)
#
#
# Indices 1 2 3 4 5 6 
#
# 1 54.6108 33.6334 5.2917 0.0000 0.0000 0.0000
# 2 33.6334 137.4764 27.4024 0.0000 0.0000 0.0000
# 3 5.2917 27.4024 82.5274 0.0000 0.0000 0.0000
# 4 0.0000 0.0000 0.0000 -18.7364 0.0000 0.0000
# 5 0.0000 0.0000 0.0000 0.0000 -2.2178 0.0000
# 6 0.0000 0.0000 0.0000 0.0000 0.0000 30.9607
#
#
#
# Elastic Compliance Matrix: (Units=1/GPa)
#
#
# Indices 1 2 3 4 5 6 
#
# 1 0.021572 -0.005356 0.000395 0.000000 0.000000 0.000000
# 2 -0.005356 0.009120 -0.002685 0.000000 0.000000 0.000000
# 3 0.000395 -0.002685 0.012983 0.000000 0.000000 0.000000
# 4 0.000000 0.000000 0.000000 -0.053372 0.000000 0.000000
# 5 0.000000 0.000000 0.000000 0.000000 -0.450888 0.000000
# 6 0.000000 0.000000 0.000000 0.000000 0.000000 0.032299
#
#
# Mechanical properties :
#
#
# Convention : Reuss Voigt Hill
#
# Bulk Modulus (GPa) = 35.23182 45.25219 40.24200
# Shear Modulus (GPa) = -12.39053 15.88710 1.74829
#
# Velocity S-wave (km/s) = -2.51800 2.85124 0.94584
# Velocity P-wave (km/s) = 3.09429 5.83055 4.66744
#
# Compressibility (1/GPa) = 0.02838343
#
# Stress axis : x y z
#
# Youngs Moduli (GPa) = 46.35654 109.65511 77.02244
#
# Poissons Ratio (x) = 0.58735 -0.03045
# Poissons Ratio (y) = 0.24830 0.20677
# Poissons Ratio (z) = -0.01833 0.29438
#
# Static dielectric constant tensor:
#      x y z
#    x 1.722990 0.000000 0.000000 
#    y 0.000000 1.700120 0.000000 
#    z 0.000000 0.000000 1.749790 
# 
# From -- ./inp_files/50956.got.cif
#   From: 2010.05.17/outbox.cif.g08.bks.cpg/sg66_26_cif.got.tgz:50956.got - 2010.06.03 17:51:23.
