data_PCOD9496844
_publ_section_title
;
Structure prediction by ZEFSAII (Michael W. Deem and Ramdas Pophale) SiO2 
 PCOD9496844
Probable space group: C C C M
;
_chemical_formula_sum "Si O2"
_cell_formula_units_Z 96
_cell_length_a 16.117366
_cell_length_b 20.126151
_cell_length_c 13.897331
_cell_angle_alpha 90.000000
_cell_angle_beta 90.000000
_cell_angle_gamma 90.000000
_cell_volume 4508.023760
_symmetry_space_group_name_H-M "C C C M"
_symmetry_group_IT_number 66
_symmetry_cell_setting 'orthorhombic'
loop_
_space_group_symop_operation_xyz
x,y,z
-x,-y,z
x,-y,1/2-z
-x,y,1/2-z
-x,-y,-z
x,y,-z
-x,y,1/2+z
x,-y,1/2+z
1/2+x,1/2+y,z
1/2-x,1/2-y,z
1/2+x,1/2-y,1/2-z
1/2-x,1/2+y,1/2-z
1/2-x,1/2-y,-z
1/2+x,1/2+y,-z
1/2-x,1/2+y,1/2+z
1/2+x,1/2-y,1/2+z
loop_
_atom_site_type_symbol
_atom_site_label
_atom_site_fract_x
_atom_site_fract_y
_atom_site_fract_z
Si Si1 0.443704 0.285280 0.389219
Si Si2 0.670011 0.345931 0.751192
Si Si3 0.089418 0.525776 0.116435
Si Si4 0.372687 0.229491 0.112258
Si Si5 0.673243 0.840878 0.387576
Si Si6 0.217374 0.410793 0.114508
O O1 0.445349 0.309633 0.500000
O O2 0.415080 0.340798 0.312534
O O3 0.529862 0.245956 0.372770
O O4 0.373812 0.228546 0.380338
O O5 0.669553 0.282677 0.680718
O O6 0.743061 0.342216 0.828538
O O7 0.700081 0.404017 0.678979
O O8 0.113537 0.599711 0.147145
O O9 0.161987 0.474201 0.140812
O O10 0.000000 0.500000 0.148090
O O11 0.085726 0.527333 0.000000
O O12 0.340703 0.154917 0.130433
O O13 0.354624 0.243435 0.000000
O O14 0.692043 0.852003 0.500000
O O15 0.235970 0.412916 0.000000
#
# Coordination Sequence:
#
# PCOD9496844 Si02
#       6
#    16  16  16  16  16  16
#     4  10  20  34  53  77 105 138 176 217 260 307
#     4  12  22  33  50  75 109 144 175 212 260 310
#     4   9  18  35  57  79 108 145 178 209 249 302
#     4  10  20  34  53  77 105 138 176 217 260 307
#     4  10  20  34  53  78 108 141 175 211 254 307
#     4  10  20  34  53  78 108 141 175 211 254 307
#
# _framework density 21.295362000000001
#
# number of rings (size 3 to 8) (size 9 to 14) (size 15 to 20)
#    0.000    1.833    0.000    5.500    0.000    7.333 
#    0.000    3.333    0.000    0.000    0.000    9.333 
#    0.000   26.667    0.000    0.000    0.000    0.000 
#
# Total GULP energy -268205.604727 kJ/mol
# GULP energy per Si atom -5587.616765 kJ/mol
# Density = 2.124689 g / cm^3
# Si number density = 21.295362 Si / 1000 Ang^3
#
#
#
# Elastic Constant Matrix: (Units=GPa)
#
#
# Indices 1 2 3 4 5 6 
#
# 1 64.4971 13.8573 36.3243 0.0000 0.0000 0.0000
# 2 13.8573 46.4717 27.6668 0.0000 0.0000 0.0000
# 3 36.3243 27.6668 101.3677 0.0000 0.0000 0.0000
# 4 0.0000 0.0000 0.0000 9.0334 0.0000 0.0000
# 5 0.0000 0.0000 0.0000 0.0000 24.4398 0.0000
# 6 0.0000 0.0000 0.0000 0.0000 0.0000 22.6281
#
#
#
# Elastic Compliance Matrix: (Units=1/GPa)
#
#
# Indices 1 2 3 4 5 6 
#
# 1 0.019577 -0.001983 -0.006474 0.000000 0.000000 0.000000
# 2 -0.001983 0.025894 -0.006357 0.000000 0.000000 0.000000
# 3 -0.006474 -0.006357 0.013920 0.000000 0.000000 0.000000
# 4 0.000000 0.000000 0.000000 0.110701 0.000000 0.000000
# 5 0.000000 0.000000 0.000000 0.000000 0.040917 0.000000
# 6 0.000000 0.000000 0.000000 0.000000 0.000000 0.044193
#
#
# Mechanical properties :
#
#
# Convention : Reuss Voigt Hill
#
# Bulk Modulus (GPa) = 33.59867 40.89259 37.24563
# Shear Modulus (GPa) = 16.96350 20.18612 18.57481
#
# Velocity S-wave (km/s) = 2.82544 3.08216 2.95659
# Velocity P-wave (km/s) = 5.14353 5.64894 5.40215
#
# Compressibility (1/GPa) = 0.02976309
#
# Stress axis : x y z
#
# Youngs Moduli (GPa) = 51.08103 38.61842 71.83958
#
# Poissons Ratio (x) = 0.07659 0.46508
# Poissons Ratio (y) = 0.10131 0.45667
# Poissons Ratio (z) = 0.33069 0.24549
#
# Static dielectric constant tensor:
#      x y z
#    x 1.810330 0.000000 0.000000 
#    y 0.000000 1.755930 0.000000 
#    z 0.000000 0.000000 1.846260 
# 
# From -- ./inp_files/28390.got.cif
#   From: 2010.05.17/outbox.cif.g08.bks.cpg/sg66_15_cif.got.tgz:28390.got - 2010.06.03 17:51:23.
