data_PCOD9496694
_publ_section_title
;
Structure prediction by ZEFSAII (Michael W. Deem and Ramdas Pophale) SiO2 
 PCOD9496694
Probable space group: C C C M
;
_chemical_formula_sum "Si O2"
_cell_formula_units_Z 104
_cell_length_a 27.315166
_cell_length_b 21.382293
_cell_length_c 9.374607
_cell_angle_alpha 90.000000
_cell_angle_beta 90.000000
_cell_angle_gamma 90.000000
_cell_volume 5475.341240
_symmetry_space_group_name_H-M "C C C M"
_symmetry_group_IT_number 66
_symmetry_cell_setting 'orthorhombic'
loop_
_space_group_symop_operation_xyz
x,y,z
-x,-y,z
x,-y,1/2-z
-x,y,1/2-z
-x,-y,-z
x,y,-z
-x,y,1/2+z
x,-y,1/2+z
1/2+x,1/2+y,z
1/2-x,1/2-y,z
1/2+x,1/2-y,1/2-z
1/2-x,1/2+y,1/2-z
1/2-x,1/2-y,-z
1/2+x,1/2+y,-z
1/2-x,1/2+y,1/2+z
1/2+x,1/2-y,1/2+z
loop_
_atom_site_type_symbol
_atom_site_label
_atom_site_fract_x
_atom_site_fract_y
_atom_site_fract_z
Si Si1 0.129724 0.198594 0.168341
Si Si2 0.449476 0.782000 0.829976
Si Si3 0.301028 0.804771 0.658279
Si Si4 0.740679 0.090763 0.838954
Si Si5 0.845208 0.500000 0.750000
Si Si6 0.901893 0.617190 0.153327
Si Si7 0.663061 0.440134 0.669418
O O1 0.090908 0.233611 0.268090
O O2 0.182087 0.234023 0.184879
O O3 0.135974 0.125421 0.198124
O O4 0.116625 0.206537 0.000000
O O5 0.500000 0.767914 0.750000
O O6 0.432990 0.851625 0.778736
O O7 0.452904 0.778185 0.000000
O O8 0.278065 0.811716 0.500000
O O9 0.273937 0.840600 0.783591
O O10 0.352695 0.841234 0.649068
O O11 0.692715 0.046078 0.831481
O O12 0.782055 0.067635 0.730576
O O13 0.759362 0.090925 0.000000
O O14 0.881322 0.547469 0.830300
O O15 0.927540 0.624618 0.000000
O O16 0.641206 0.500000 0.750000
O O17 0.664635 0.450029 0.500000
#
# Coordination Sequence:
#
# PCOD9496694 Si02
#       7
#    16  16  16  16   8  16  16
#     4   9  20  39  60  82 110 145 182 226 282 339
#     4  11  22  38  63  90 114 141 178 228 285 346
#     4   8  16  32  52  74 104 142 185 231 279 326
#     4  11  21  32  50  76 109 150 197 239 275 322
#     4  10  20  32  53  78 112 158 203 240 276 320
#     4   9  18  33  53  79 113 151 191 235 283 334
#     4  11  23  38  56  79 111 149 189 231 278 331
#
# _framework density 18.994250000000001
#
# number of rings (size 3 to 8) (size 9 to 14) (size 15 to 20)
#    0.000    2.154    0.769    3.692    0.000    9.231 
#    0.000    3.462    0.000    2.308    0.000    3.231 
#    0.000    0.000    0.000    0.000    0.000    0.000 
#
# Total GULP energy -289937.537837 kJ/mol
# GULP energy per Si atom -5575.721881 kJ/mol
# Density = 1.895102 g / cm^3
# Si number density = 18.994250 Si / 1000 Ang^3
#
#
#
# Elastic Constant Matrix: (Units=GPa)
#
#
# Indices 1 2 3 4 5 6 
#
# 1 36.8277 39.1962 39.6200 0.0000 0.0000 0.0000
# 2 39.1962 125.7445 67.8579 0.0000 0.0000 0.0000
# 3 39.6200 67.8579 134.2200 0.0000 0.0000 0.0000
# 4 0.0000 0.0000 0.0000 -79.7387 0.0000 0.0000
# 5 0.0000 0.0000 0.0000 0.0000 18.7057 0.0000
# 6 0.0000 0.0000 0.0000 0.0000 0.0000 18.0048
#
#
#
# Elastic Compliance Matrix: (Units=1/GPa)
#
#
# Indices 1 2 3 4 5 6 
#
# 1 0.047359 -0.009927 -0.008961 0.000000 0.000000 0.000000
# 2 -0.009927 0.013017 -0.003651 0.000000 0.000000 0.000000
# 3 -0.008961 -0.003651 0.011941 0.000000 0.000000 0.000000
# 4 0.000000 0.000000 0.000000 -0.012541 0.000000 0.000000
# 5 0.000000 0.000000 0.000000 0.000000 0.053460 0.000000
# 6 0.000000 0.000000 0.000000 0.000000 0.000000 0.055541
#
#
# Mechanical properties :
#
#
# Convention : Reuss Voigt Hill
#
# Bulk Modulus (GPa) = 36.71022 65.57118 51.14070
# Shear Modulus (GPa) = 22.42813 1.40224 11.91518
#
# Velocity S-wave (km/s) = 3.43998 0.86014 2.50732
# Velocity P-wave (km/s) = 5.92849 5.96515 5.94685
#
# Compressibility (1/GPa) = 0.02724037
#
# Stress axis : x y z
#
# Youngs Moduli (GPa) = 21.11526 76.82229 83.74174
#
# Poissons Ratio (x) = 0.76258 0.75043
# Poissons Ratio (y) = 0.20960 0.30573
# Poissons Ratio (z) = 0.18922 0.28047
#
# Static dielectric constant tensor:
#      x y z
#    x 1.664010 0.000000 0.000000 
#    y 0.000000 1.714550 0.000000 
#    z 0.000000 0.000000 1.668450 
# 
# From -- ./inp_files/10538.got.cif
#   From: 2010.05.17/outbox.cif.g08.bks.cpg/sg66_6_cif.got.tgz:10538.got - 2010.06.03 17:51:23.
