data_PCOD9496811
_publ_section_title
;
Structure prediction by ZEFSAII (Michael W. Deem and Ramdas Pophale) SiO2 
 PCOD9496811
Probable space group: C C C M
;
_chemical_formula_sum "Si O2"
_cell_formula_units_Z 116
_cell_length_a 27.254447
_cell_length_b 27.649338
_cell_length_c 8.854317
_cell_angle_alpha 90.000000
_cell_angle_beta 90.000000
_cell_angle_gamma 90.000000
_cell_volume 6672.324792
_symmetry_space_group_name_H-M "C C C M"
_symmetry_group_IT_number 66
_symmetry_cell_setting 'orthorhombic'
loop_
_space_group_symop_operation_xyz
x,y,z
-x,-y,z
x,-y,1/2-z
-x,y,1/2-z
-x,-y,-z
x,y,-z
-x,y,1/2+z
x,-y,1/2+z
1/2+x,1/2+y,z
1/2-x,1/2-y,z
1/2+x,1/2-y,1/2-z
1/2-x,1/2+y,1/2-z
1/2-x,1/2-y,-z
1/2+x,1/2+y,-z
1/2-x,1/2+y,1/2+z
1/2+x,1/2-y,1/2+z
loop_
_atom_site_type_symbol
_atom_site_label
_atom_site_fract_x
_atom_site_fract_y
_atom_site_fract_z
Si Si1 0.080533 0.077323 0.326731
Si Si2 0.295401 0.950506 0.181150
Si Si3 0.500000 0.500000 0.750000
Si Si4 0.711720 0.674063 0.177330
Si Si5 0.136937 0.253565 0.816957
Si Si6 0.174914 0.648207 0.321686
Si Si7 0.813025 0.075203 0.179193
Si Si8 0.947362 0.821032 0.180992
O O1 0.087488 0.093268 0.500000
O O2 0.133365 0.057709 0.269211
O O3 0.066200 0.124631 0.232469
O O4 0.038078 0.037163 0.326941
O O5 0.323435 0.902484 0.235379
O O6 0.238590 0.945260 0.240052
O O7 0.315440 0.000000 0.250000
O O8 0.295234 0.952501 0.000000
O O9 0.686815 0.724456 0.219220
O O10 0.770033 0.670231 0.191121
O O11 0.688855 0.631612 0.277311
O O12 0.699661 0.664804 0.000000
O O13 0.139679 0.308925 0.763778
O O14 0.092785 0.218616 0.768623
O O15 0.134948 0.256687 0.000000
O O16 0.166135 0.639186 0.500000
O O17 0.810542 0.067961 0.000000
O O18 0.000000 0.809291 0.250000
O O19 0.949349 0.820423 0.000000
#
# Coordination Sequence:
#
# PCOD9496811 Si02
#       8
#    16  16   4  16  16  16  16  16
#     4  11  23  39  53  69  93 123 167 221 272 312
#     4  10  20  34  50  71 101 135 170 204 245 293
#     4  12  26  36  56  70  90 124 174 228 280 304
#     4   9  15  27  48  73  97 125 160 199 241 297
#     4   9  17  30  50  76 100 129 163 202 248 302
#     4   9  17  30  50  74 102 130 164 203 244 294
#     4   9  19  33  48  67  94 126 162 208 255 303
#     4  11  22  37  56  75  99 129 167 209 257 310
#
# _framework density 17.385244
#
# number of rings (size 3 to 8) (size 9 to 14) (size 15 to 20)
#    0.000    2.207    2.069    1.448    0.966    2.759 
#    0.000    2.069    0.000    3.310    0.000    0.000 
#    0.000    0.552    0.000    6.345    0.000    1.931 
#
# Total GULP energy -323147.848901 kJ/mol
# GULP energy per Si atom -5571.514636 kJ/mol
# Density = 1.734567 g / cm^3
# Si number density = 17.385244 Si / 1000 Ang^3
#
#
#
# Elastic Constant Matrix: (Units=GPa)
#
#
# Indices 1 2 3 4 5 6 
#
# 1 39.1529 36.8984 16.0487 0.0000 0.0000 0.0000
# 2 36.8984 143.5880 28.3119 0.0000 0.0000 0.0000
# 3 16.0487 28.3119 24.8378 0.0000 0.0000 0.0000
# 4 0.0000 0.0000 0.0000 9.5914 0.0000 0.0000
# 5 0.0000 0.0000 0.0000 0.0000 31.6712 0.0000
# 6 0.0000 0.0000 0.0000 0.0000 0.0000 21.8266
#
#
#
# Elastic Compliance Matrix: (Units=1/GPa)
#
#
# Indices 1 2 3 4 5 6 
#
# 1 0.038951 -0.006510 -0.017747 0.000000 0.000000 0.000000
# 2 -0.006510 0.010071 -0.007274 0.000000 0.000000 0.000000
# 3 -0.017747 -0.007274 0.060020 0.000000 0.000000 0.000000
# 4 0.000000 0.000000 0.000000 0.104260 0.000000 0.000000
# 5 0.000000 0.000000 0.000000 0.000000 0.031574 0.000000
# 6 0.000000 0.000000 0.000000 0.000000 0.000000 0.045816
#
#
# Mechanical properties :
#
#
# Convention : Reuss Voigt Hill
#
# Bulk Modulus (GPa) = 21.74861 41.12188 31.43524
# Shear Modulus (GPa) = 13.54720 21.03915 17.29318
#
# Velocity S-wave (km/s) = 2.79451 3.48253 3.15731
# Velocity P-wave (km/s) = 4.79055 6.31469 5.60467
#
# Compressibility (1/GPa) = 0.04597995
#
# Stress axis : x y z
#
# Youngs Moduli (GPa) = 25.67358 99.29011 16.66121
#
# Poissons Ratio (x) = 0.64638 0.29569
# Poissons Ratio (y) = 0.16714 0.12119
# Poissons Ratio (z) = 0.45563 0.72222
#
# Static dielectric constant tensor:
#      x y z
#    x 1.621460 0.000000 0.000000 
#    y 0.000000 1.606580 0.000000 
#    z 0.000000 0.000000 1.592830 
# 
# From -- ./inp_files/11811.got.cif
#   From: 2010.05.17/outbox.cif.g08.bks.cpg/sg66_6_cif.got.tgz:11811.got - 2010.06.03 17:51:23.
