data_PCOD9496757
_publ_section_title
;
Structure prediction by ZEFSAII (Michael W. Deem and Ramdas Pophale) SiO2 
 PCOD9496757
Probable space group: C C C M
;
_chemical_formula_sum "Si O2"
_cell_formula_units_Z 64
_cell_length_a 14.061181
_cell_length_b 8.004633
_cell_length_c 23.395146
_cell_angle_alpha 90.000000
_cell_angle_beta 90.000000
_cell_angle_gamma 90.000000
_cell_volume 2633.231147
_symmetry_space_group_name_H-M "C C C M"
_symmetry_group_IT_number 66
_symmetry_cell_setting 'orthorhombic'
loop_
_space_group_symop_operation_xyz
x,y,z
-x,-y,z
x,-y,1/2-z
-x,y,1/2-z
-x,-y,-z
x,y,-z
-x,y,1/2+z
x,-y,1/2+z
1/2+x,1/2+y,z
1/2-x,1/2-y,z
1/2+x,1/2-y,1/2-z
1/2-x,1/2+y,1/2-z
1/2-x,1/2-y,-z
1/2+x,1/2+y,-z
1/2-x,1/2+y,1/2+z
1/2+x,1/2-y,1/2+z
loop_
_atom_site_type_symbol
_atom_site_label
_atom_site_fract_x
_atom_site_fract_y
_atom_site_fract_z
Si Si1 0.854951 0.114711 0.615309
Si Si2 0.386722 0.312175 0.241229
Si Si3 0.640593 0.936804 0.933792
Si Si4 0.358781 0.240279 0.363386
O O1 0.859987 0.215981 0.675804
O O2 0.748964 0.082980 0.590649
O O3 0.901210 0.250044 0.573290
O O4 0.897403 0.928976 0.626529
O O5 0.348755 0.500000 0.250000
O O6 0.500000 0.314003 0.250000
O O7 0.354647 0.204238 0.295277
O O8 0.596449 0.087064 0.897103
O O9 0.642302 0.982930 0.000000
O O10 0.250000 0.250000 0.383308
#
# Coordination Sequence:
#
# PCOD9496757 Si02
#       4
#    16  16  16  16
#     4   9  18  32  51  77 104 139 173 221 271 316
#     4   9  18  34  55  80 112 142 177 221 279 336
#     4  10  20  33  52  81 108 140 185 223 260 314
#     4   9  19  32  52  80 106 139 172 223 270 320
#
# _framework density 24.304739000000001
#
# number of rings (size 3 to 8) (size 9 to 14) (size 15 to 20)
#    0.000    2.750    0.000    1.500    3.500    6.500 
#    0.000    2.500    0.000    4.500    0.000   26.250 
#    0.000    0.000    0.000    0.000    0.000    0.000 
#
# Total GULP energy -178306.858205 kJ/mol
# GULP energy per Si atom -5572.089319 kJ/mol
# Density = 2.424942 g / cm^3
# Si number density = 24.304739 Si / 1000 Ang^3
#
#
#
# Elastic Constant Matrix: (Units=GPa)
#
#
# Indices 1 2 3 4 5 6 
#
# 1 68.7727 19.0391 1.8320 0.0000 0.0000 0.0000
# 2 19.0391 146.4170 64.2014 0.0000 0.0000 0.0000
# 3 1.8320 64.2014 177.2846 0.0000 0.0000 0.0000
# 4 0.0000 0.0000 0.0000 42.9903 0.0000 0.0000
# 5 0.0000 0.0000 0.0000 0.0000 -199.8352 0.0000
# 6 0.0000 0.0000 0.0000 0.0000 0.0000 21.4163
#
#
#
# Elastic Compliance Matrix: (Units=1/GPa)
#
#
# Indices 1 2 3 4 5 6 
#
# 1 0.015149 -0.002260 0.000662 0.000000 0.000000 0.000000
# 2 -0.002260 0.008456 -0.003039 0.000000 0.000000 0.000000
# 3 0.000662 -0.003039 0.006734 0.000000 0.000000 0.000000
# 4 0.000000 0.000000 0.000000 0.023261 0.000000 0.000000
# 5 0.000000 0.000000 0.000000 0.000000 -0.005004 0.000000
# 6 0.000000 0.000000 0.000000 0.000000 0.000000 0.046693
#
#
# Mechanical properties :
#
#
# Convention : Reuss Voigt Hill
#
# Bulk Modulus (GPa) = 47.47205 62.51324 54.99264
# Shear Modulus (GPa) = 44.80872 -6.59225 19.10823
#
# Velocity S-wave (km/s) = 4.29840 -1.64870 2.80696
# Velocity P-wave (km/s) = 6.64901 4.70661 5.76027
#
# Compressibility (1/GPa) = 0.02106503
#
# Stress axis : x y z
#
# Youngs Moduli (GPa) = 66.01221 118.25607 148.49291
#
# Poissons Ratio (x) = 0.26727 -0.09829
# Poissons Ratio (y) = 0.14919 0.45126
# Poissons Ratio (z) = -0.04369 0.35938
#
# Static dielectric constant tensor:
#      x y z
#    x 2.088070 0.000000 0.000000 
#    y 0.000000 2.035680 0.000000 
#    z 0.000000 0.000000 1.932730 
# 
# From -- ./inp_files/36346.got.cif
#   From: 2010.05.17/outbox.cif.g08.bks.cpg/sg66_19_cif.got.tgz:36346.got - 2010.06.03 17:51:23.
