data_PCOD9496363
_publ_section_title
;
Structure prediction by ZEFSAII (Michael W. Deem and Ramdas Pophale) SiO2 
 PCOD9496363
Probable space group: C C C M
;
_chemical_formula_sum "Si O2"
_cell_formula_units_Z 116
_cell_length_a 26.297959
_cell_length_b 25.510100
_cell_length_c 9.312800
_cell_angle_alpha 90.000000
_cell_angle_beta 90.000000
_cell_angle_gamma 90.000000
_cell_volume 6247.618198
_symmetry_space_group_name_H-M "C C C M"
_symmetry_group_IT_number 66
_symmetry_cell_setting 'orthorhombic'
loop_
_space_group_symop_operation_xyz
x,y,z
-x,-y,z
x,-y,1/2-z
-x,y,1/2-z
-x,-y,-z
x,y,-z
-x,y,1/2+z
x,-y,1/2+z
1/2+x,1/2+y,z
1/2-x,1/2-y,z
1/2+x,1/2-y,1/2-z
1/2-x,1/2+y,1/2-z
1/2-x,1/2-y,-z
1/2+x,1/2+y,-z
1/2-x,1/2+y,1/2+z
1/2+x,1/2-y,1/2+z
loop_
_atom_site_type_symbol
_atom_site_label
_atom_site_fract_x
_atom_site_fract_y
_atom_site_fract_z
Si Si1 0.602175 0.450609 0.163958
Si Si2 0.230471 0.654157 0.327626
Si Si3 0.549130 0.166896 0.172822
Si Si4 0.653277 0.773786 0.330854
Si Si5 0.837707 0.847130 0.329517
Si Si6 0.500000 0.500000 0.250000
Si Si7 0.930391 0.449762 0.161925
Si Si8 0.692117 0.948280 0.665163
O O1 0.624642 0.500000 0.250000
O O2 0.623176 0.393896 0.210458
O O3 0.541041 0.461374 0.174118
O O4 0.616969 0.456632 0.000000
O O5 0.228593 0.653860 0.500000
O O6 0.199423 0.703691 0.263528
O O7 0.287607 0.651765 0.267468
O O8 0.205216 0.602747 0.257046
O O9 0.500000 0.190326 0.250000
O O10 0.601875 0.195417 0.205882
O O11 0.554650 0.106646 0.222321
O O12 0.543181 0.167762 0.000000
O O13 0.665344 0.783580 0.500000
O O14 0.642595 0.712186 0.313771
O O15 0.824950 0.853472 0.500000
O O16 0.946127 0.500000 0.250000
O O17 0.869011 0.450593 0.156374
O O18 0.949889 0.453213 0.000000
O O19 0.711251 0.945526 0.500000
O O20 0.710135 0.000000 0.750000
#
# Coordination Sequence:
#
# PCOD9496363 Si02
#       8
#    16  16  16  16  16   4  16  16
#     4   9  19  36  61  92 122 156 196 239 291 355
#     4  12  24  37  58  88 121 157 199 253 310 361
#     4  10  21  38  57  82 112 148 191 240 296 352
#     4  10  21  42  64  80 111 159 205 248 299 366
#     4  10  22  40  62  87 117 158 204 244 294 363
#     4   8  18  36  66  92 126 160 198 240 298 356
#     4   9  18  33  54  78 107 141 184 233 279 336
#     4  10  19  35  57  83 115 154 199 241 290 352
#
# _framework density 18.567076
#
# number of rings (size 3 to 8) (size 9 to 14) (size 15 to 20)
#    0.414    1.655    1.379    2.276    0.000    5.241 
#    1.241    2.759    0.000    0.000    0.000    0.000 
#    0.000    0.000    0.000    0.000    0.000    0.000 
#
# Total GULP energy -323225.813265 kJ/mol
# GULP energy per Si atom -5572.858849 kJ/mol
# Density = 1.852482 g / cm^3
# Si number density = 18.567076 Si / 1000 Ang^3
#
#
#
# Elastic Constant Matrix: (Units=GPa)
#
#
# Indices 1 2 3 4 5 6 
#
# 1 87.9398 56.7130 45.2980 0.0000 0.0000 0.0000
# 2 56.7130 141.3917 61.1824 0.0000 0.0000 0.0000
# 3 45.2980 61.1824 82.4560 0.0000 0.0000 0.0000
# 4 0.0000 0.0000 0.0000 22.4082 0.0000 0.0000
# 5 0.0000 0.0000 0.0000 0.0000 0.4354 0.0000
# 6 0.0000 0.0000 0.0000 0.0000 0.0000 -3.7007
#
#
#
# Elastic Compliance Matrix: (Units=1/GPa)
#
#
# Indices 1 2 3 4 5 6 
#
# 1 0.017393 -0.004186 -0.006449 0.000000 0.000000 0.000000
# 2 -0.004186 0.011425 -0.006178 0.000000 0.000000 0.000000
# 3 -0.006449 -0.006178 0.020254 0.000000 0.000000 0.000000
# 4 0.000000 0.000000 0.000000 0.044626 0.000000 0.000000
# 5 0.000000 0.000000 0.000000 0.000000 2.296961 0.000000
# 6 0.000000 0.000000 0.000000 0.000000 0.000000 -0.270222
#
#
# Mechanical properties :
#
#
# Convention : Reuss Voigt Hill
#
# Bulk Modulus (GPa) = 64.73786 70.90823 67.82305
# Shear Modulus (GPa) = 2.31566 13.73486 8.02526
#
# Velocity S-wave (km/s) = 1.11799 2.72277 2.08127
# Velocity P-wave (km/s) = 6.05056 6.93959 6.51027
#
# Compressibility (1/GPa) = 0.01544691
#
# Stress axis : x y z
#
# Youngs Moduli (GPa) = 57.49526 87.53037 49.37215
#
# Poissons Ratio (x) = 0.36638 0.31840
# Poissons Ratio (y) = 0.24066 0.30500
# Poissons Ratio (z) = 0.37079 0.54073
#
# Static dielectric constant tensor:
#      x y z
#    x 1.654570 0.000000 0.000000 
#    y 0.000000 1.653250 0.000000 
#    z 0.000000 0.000000 1.640620 
# 
# From -- ./inp_files/11724.got.cif
#   From: 2010.05.17/outbox.cif.g08.bks.cpg/sg66_6_cif.got.tgz:11724.got - 2010.06.03 17:51:23.
