data_PCOD9496720
_publ_section_title
;
Structure prediction by ZEFSAII (Michael W. Deem and Ramdas Pophale) SiO2 
 PCOD9496720
Probable space group: C C C M
;
_chemical_formula_sum "Si O2"
_cell_formula_units_Z 80
_cell_length_a 27.235917
_cell_length_b 18.295241
_cell_length_c 9.052620
_cell_angle_alpha 90.000000
_cell_angle_beta 90.000000
_cell_angle_gamma 90.000000
_cell_volume 4510.808885
_symmetry_space_group_name_H-M "C C C M"
_symmetry_group_IT_number 66
_symmetry_cell_setting 'orthorhombic'
loop_
_space_group_symop_operation_xyz
x,y,z
-x,-y,z
x,-y,1/2-z
-x,y,1/2-z
-x,-y,-z
x,y,-z
-x,y,1/2+z
x,-y,1/2+z
1/2+x,1/2+y,z
1/2-x,1/2-y,z
1/2+x,1/2-y,1/2-z
1/2-x,1/2+y,1/2-z
1/2-x,1/2-y,-z
1/2+x,1/2+y,-z
1/2-x,1/2+y,1/2+z
1/2+x,1/2-y,1/2+z
loop_
_atom_site_type_symbol
_atom_site_label
_atom_site_fract_x
_atom_site_fract_y
_atom_site_fract_z
Si Si1 0.843016 0.724151 0.824136
Si Si2 0.191355 0.870704 0.173121
Si Si3 0.048332 0.774689 0.324541
Si Si4 0.788660 0.574280 0.823896
Si Si5 0.919711 0.924079 0.326076
O O1 0.816653 0.789033 0.735517
O O2 0.901184 0.731242 0.795549
O O3 0.821231 0.645313 0.787237
O O4 0.835280 0.737045 0.000000
O O5 0.234261 0.909440 0.263066
O O6 0.139084 0.911359 0.189206
O O7 0.203844 0.868826 0.000000
O O8 0.041912 0.780808 0.500000
O O9 0.056389 0.854771 0.254143
O O10 0.000000 0.741852 0.250000
O O11 0.807099 0.500000 0.750000
O O12 0.787246 0.566161 0.000000
O O13 0.931617 0.924227 0.500000
O O14 0.933487 0.000000 0.250000
#
# Coordination Sequence:
#
# PCOD9496720 Si02
#       5
#    16  16  16  16  16
#     4   9  20  37  55  75 103 137 170 209 255 303
#     4  10  20  33  52  78 107 140 176 210 246 294
#     4  10  20  36  56  76  98 127 166 211 259 307
#     4  11  22  35  52  76 106 139 173 209 253 301
#     4  10  20  33  49  73 105 139 173 208 247 292
#
# _framework density 17.735177
#
# number of rings (size 3 to 8) (size 9 to 14) (size 15 to 20)
#    0.000    2.000    0.000    3.600    0.000    9.200 
#    0.000    2.000    0.000    0.600    0.000    4.200 
#    0.000    0.000    0.000    0.000    0.000    0.000 
#
# Total GULP energy -223500.304543 kJ/mol
# GULP energy per Si atom -5587.507614 kJ/mol
# Density = 1.769481 g / cm^3
# Si number density = 17.735177 Si / 1000 Ang^3
#
#
#
# Elastic Constant Matrix: (Units=GPa)
#
#
# Indices 1 2 3 4 5 6 
#
# 1 57.3181 16.9823 32.5702 0.0000 0.0000 0.0000
# 2 16.9823 72.3084 34.5205 0.0000 0.0000 0.0000
# 3 32.5702 34.5205 66.4982 0.0000 0.0000 0.0000
# 4 0.0000 0.0000 0.0000 29.2209 0.0000 0.0000
# 5 0.0000 0.0000 0.0000 0.0000 -9.5538 0.0000
# 6 0.0000 0.0000 0.0000 0.0000 0.0000 0.5101
#
#
#
# Elastic Compliance Matrix: (Units=1/GPa)
#
#
# Indices 1 2 3 4 5 6 
#
# 1 0.024175 -0.000033 -0.011823 0.000000 0.000000 0.000000
# 2 -0.000033 0.018386 -0.009529 0.000000 0.000000 0.000000
# 3 -0.011823 -0.009529 0.025775 0.000000 0.000000 0.000000
# 4 0.000000 0.000000 0.000000 0.034222 0.000000 0.000000
# 5 0.000000 0.000000 0.000000 0.000000 -0.104671 0.000000
# 6 0.000000 0.000000 0.000000 0.000000 0.000000 1.960411
#
#
# Mechanical properties :
#
#
# Convention : Reuss Voigt Hill
#
# Bulk Modulus (GPa) = 39.11360 40.47455 39.79407
# Shear Modulus (GPa) = 2.48807 11.50556 6.99682
#
# Velocity S-wave (km/s) = 1.18573 2.54981 1.98840
# Velocity P-wave (km/s) = 4.89660 5.61603 5.26861
#
# Compressibility (1/GPa) = 0.02556656
#
# Stress axis : x y z
#
# Youngs Moduli (GPa) = 41.36537 54.38803 38.79663
#
# Poissons Ratio (x) = 0.00180 0.45871
# Poissons Ratio (y) = 0.00137 0.36967
# Poissons Ratio (z) = 0.48908 0.51824
#
# Static dielectric constant tensor:
#      x y z
#    x 1.621410 0.000000 0.000000 
#    y 0.000000 1.579340 0.000000 
#    z 0.000000 0.000000 1.588240 
# 
# From -- ./inp_files/6650.got.cif
#   From: 2010.05.17/outbox.cif.g08.bks.cpg/sg66_4_cif.got.tgz:6650.got - 2010.06.03 17:51:23.
