data_PCOD9496667
_publ_section_title
;
Structure prediction by ZEFSAII (Michael W. Deem and Ramdas Pophale) SiO2 
 PCOD9496667
Probable space group: C C C M
;
_chemical_formula_sum "Si O2"
_cell_formula_units_Z 80
_cell_length_a 19.059046
_cell_length_b 27.133425
_cell_length_c 8.635380
_cell_angle_alpha 90.000000
_cell_angle_beta 90.000000
_cell_angle_gamma 90.000000
_cell_volume 4465.676193
_symmetry_space_group_name_H-M "C C C M"
_symmetry_group_IT_number 66
_symmetry_cell_setting 'orthorhombic'
loop_
_space_group_symop_operation_xyz
x,y,z
-x,-y,z
x,-y,1/2-z
-x,y,1/2-z
-x,-y,-z
x,y,-z
-x,y,1/2+z
x,-y,1/2+z
1/2+x,1/2+y,z
1/2-x,1/2-y,z
1/2+x,1/2-y,1/2-z
1/2-x,1/2+y,1/2-z
1/2-x,1/2-y,-z
1/2+x,1/2+y,-z
1/2-x,1/2+y,1/2+z
1/2+x,1/2-y,1/2+z
loop_
_atom_site_type_symbol
_atom_site_label
_atom_site_fract_x
_atom_site_fract_y
_atom_site_fract_z
Si Si1 0.784929 0.197696 0.185785
Si Si2 0.572723 0.944672 0.185100
Si Si3 0.923791 0.846241 0.185176
Si Si4 0.222212 0.598474 0.314277
Si Si5 0.360581 0.447001 0.684727
O O1 0.750000 0.250000 0.222720
O O2 0.863238 0.189730 0.250683
O O3 0.740506 0.153327 0.259633
O O4 0.786638 0.191750 0.000000
O O5 0.500000 0.923277 0.250000
O O6 0.643300 0.916091 0.228355
O O7 0.578736 0.000000 0.250000
O O8 0.568240 0.946853 0.000000
O O9 0.903391 0.901158 0.244252
O O10 0.000000 0.833306 0.250000
O O11 0.923213 0.845928 0.000000
O O12 0.230461 0.594482 0.500000
O O13 0.280046 0.563436 0.234985
O O14 0.382733 0.500000 0.750000
O O15 0.366531 0.446080 0.500000
#
# Coordination Sequence:
#
# PCOD9496667 Si02
#       5
#    16  16  16  16  16
#     4  10  21  38  60  84 108 138 177 220 268 319
#     4  10  20  32  49  73 103 139 177 215 261 314
#     4  11  22  38  59  83 112 144 179 219 266 317
#     4  10  20  34  53  78 105 138 179 222 269 319
#     4  11  21  34  53  79 110 145 183 220 262 313
#
# _framework density 17.914421000000001
#
# number of rings (size 3 to 8) (size 9 to 14) (size 15 to 20)
#    0.000    1.600    0.000    9.000    0.000    6.800 
#    0.000    3.000    0.000    2.400    0.000    0.000 
#    0.000    0.000    0.000    0.000    0.000    0.000 
#
# Total GULP energy -223484.754988 kJ/mol
# GULP energy per Si atom -5587.118875 kJ/mol
# Density = 1.787365 g / cm^3
# Si number density = 17.914421 Si / 1000 Ang^3
#
#
#
# Elastic Constant Matrix: (Units=GPa)
#
#
# Indices 1 2 3 4 5 6 
#
# 1 148.7459 42.1472 40.1377 0.0000 0.0000 0.0000
# 2 42.1472 74.1960 25.4983 0.0000 0.0000 0.0000
# 3 40.1377 25.4983 93.5694 0.0000 0.0000 0.0000
# 4 0.0000 0.0000 0.0000 261.2155 0.0000 0.0000
# 5 0.0000 0.0000 0.0000 0.0000 37.9934 0.0000
# 6 0.0000 0.0000 0.0000 0.0000 0.0000 9.1026
#
#
#
# Elastic Compliance Matrix: (Units=1/GPa)
#
#
# Indices 1 2 3 4 5 6 
#
# 1 0.008544 -0.003965 -0.002584 0.000000 0.000000 0.000000
# 2 -0.003965 0.016711 -0.002853 0.000000 0.000000 0.000000
# 3 -0.002584 -0.002853 0.012573 0.000000 0.000000 0.000000
# 4 0.000000 0.000000 0.000000 0.003828 0.000000 0.000000
# 5 0.000000 0.000000 0.000000 0.000000 0.026320 0.000000
# 6 0.000000 0.000000 0.000000 0.000000 0.000000 0.109859
#
#
# Mechanical properties :
#
#
# Convention : Reuss Voigt Hill
#
# Bulk Modulus (GPa) = 52.56837 59.11974 55.84406
# Shear Modulus (GPa) = 24.63283 75.57749 50.10516
#
# Velocity S-wave (km/s) = 3.71216 6.50228 5.29433
# Velocity P-wave (km/s) = 6.91241 9.45758 8.28333
#
# Compressibility (1/GPa) = 0.01902285
#
# Stress axis : x y z
#
# Youngs Moduli (GPa) = 117.04410 59.84211 79.53355
#
# Poissons Ratio (x) = 0.23728 0.20555
# Poissons Ratio (y) = 0.46410 0.22690
# Poissons Ratio (z) = 0.30249 0.17072
#
# Static dielectric constant tensor:
#      x y z
#    x 1.622910 0.000000 0.000000 
#    y 0.000000 1.587720 0.000000 
#    z 0.000000 0.000000 1.599540 
# 
# From -- ./inp_files/6673.got.cif
#   From: 2010.05.17/outbox.cif.g08.bks.cpg/sg66_4_cif.got.tgz:6673.got - 2010.06.03 17:51:23.
