data_PCOD9496426
_publ_section_title
;
Structure prediction by ZEFSAII (Michael W. Deem and Ramdas Pophale) SiO2 
 PCOD9496426
Probable space group: C C C M
;
_chemical_formula_sum "Si O2"
_cell_formula_units_Z 104
_cell_length_a 25.698673
_cell_length_b 9.920103
_cell_length_c 21.142107
_cell_angle_alpha 90.000000
_cell_angle_beta 90.000000
_cell_angle_gamma 90.000000
_cell_volume 5389.830978
_symmetry_space_group_name_H-M "C C C M"
_symmetry_group_IT_number 66
_symmetry_cell_setting 'orthorhombic'
loop_
_space_group_symop_operation_xyz
x,y,z
-x,-y,z
x,-y,1/2-z
-x,y,1/2-z
-x,-y,-z
x,y,-z
-x,y,1/2+z
x,-y,1/2+z
1/2+x,1/2+y,z
1/2-x,1/2-y,z
1/2+x,1/2-y,1/2-z
1/2-x,1/2+y,1/2-z
1/2-x,1/2-y,-z
1/2+x,1/2+y,-z
1/2-x,1/2+y,1/2+z
1/2+x,1/2-y,1/2+z
loop_
_atom_site_type_symbol
_atom_site_label
_atom_site_fract_x
_atom_site_fract_y
_atom_site_fract_z
Si Si1 0.639220 0.646206 0.000000
Si Si2 0.696690 0.540270 0.180342
Si Si3 0.364958 0.707187 0.863795
Si Si4 0.939653 0.836378 0.247576
Si Si5 0.868451 0.726595 0.864290
Si Si6 0.696015 0.030733 0.130257
Si Si7 0.132702 0.157726 0.500000
Si Si8 0.740250 0.476563 0.000000
O O1 0.624340 0.724506 0.063622
O O2 0.613886 0.497382 0.000000
O O3 0.701548 0.607856 0.000000
O O4 0.679219 0.500000 0.250000
O O5 0.664051 0.437767 0.136243
O O6 0.681259 0.689358 0.161248
O O7 0.757180 0.515324 0.174451
O O8 0.407847 0.710655 0.809427
O O9 0.322182 0.820712 0.851885
O O10 0.384411 0.727091 0.935346
O O11 0.912880 0.775106 0.184532
O O12 0.000000 0.797205 0.250000
O O13 0.937533 0.000000 0.250000
O O14 0.852356 0.570933 0.864431
O O15 0.722892 0.026790 0.061009
O O16 0.196475 0.142756 0.500000
#
# Coordination Sequence:
#
# PCOD9496426 Si02
#       8
#     8  16  16  16  16  16   8   8
#     4  10  19  35  63  85 124 164 209 242 284 350
#     4  12  22  36  56  84 127 167 204 244 290 356
#     4  12  22  41  58  92 123 164 205 254 300 363
#     4  11  24  47  72  88 111 156 213 273 326 356
#     4  12  22  41  58  92 123 164 205 254 300 363
#     4  12  26  32  58  90 135 167 200 234 304 371
#     4  10  19  35  63  85 124 164 209 242 284 350
#     4  10  20  38  52  94 128 186 194 234 284 368
#
# _framework density 19.295594999999999
#
# number of rings (size 3 to 8) (size 9 to 14) (size 15 to 20)
#    0.462    0.154    7.692    1.846    2.154    2.462 
#    0.000    2.308    0.000    2.769    0.000    3.231 
#    0.000    0.000    0.000    0.000    0.000    0.000 
#
# Total GULP energy -290362.565291 kJ/mol
# GULP energy per Si atom -5583.895486 kJ/mol
# Density = 1.925168 g / cm^3
# Si number density = 19.295595 Si / 1000 Ang^3
#
#
#
# Elastic Constant Matrix: (Units=GPa)
#
#
# Indices 1 2 3 4 5 6 
#
# 1 98.4016 11.0670 50.2281 0.0000 0.0000 0.0000
# 2 11.0670 34.6104 -2.8386 0.0000 0.0000 0.0000
# 3 50.2281 -2.8386 132.5416 0.0000 0.0000 0.0000
# 4 0.0000 0.0000 0.0000 6.5309 0.0000 0.0000
# 5 0.0000 0.0000 0.0000 0.0000 3.4535 0.0000
# 6 0.0000 0.0000 0.0000 0.0000 0.0000 8.0628
#
#
#
# Elastic Compliance Matrix: (Units=1/GPa)
#
#
# Indices 1 2 3 4 5 6 
#
# 1 0.013316 -0.004680 -0.005146 0.000000 0.000000 0.000000
# 2 -0.004680 0.030589 0.002429 0.000000 0.000000 0.000000
# 3 -0.005146 0.002429 0.009547 0.000000 0.000000 0.000000
# 4 0.000000 0.000000 0.000000 0.153119 0.000000 0.000000
# 5 0.000000 0.000000 0.000000 0.000000 0.289563 0.000000
# 6 0.000000 0.000000 0.000000 0.000000 0.000000 0.124026
#
#
# Mechanical properties :
#
#
# Convention : Reuss Voigt Hill
#
# Bulk Modulus (GPa) = 25.86908 42.49627 34.18268
# Shear Modulus (GPa) = 7.71796 17.41591 12.56693
#
# Velocity S-wave (km/s) = 2.00213 3.00756 2.55480
# Velocity P-wave (km/s) = 4.33365 5.84228 5.14358
#
# Compressibility (1/GPa) = 0.03865619
#
# Stress axis : x y z
#
# Youngs Moduli (GPa) = 75.09942 32.69179 104.74405
#
# Poissons Ratio (x) = 0.15299 0.53905
# Poissons Ratio (y) = 0.35146 -0.25438
# Poissons Ratio (z) = 0.38649 -0.07940
#
# Static dielectric constant tensor:
#      x y z
#    x 1.649760 0.000000 0.000000 
#    y 0.000000 1.680980 0.000000 
#    z 0.000000 0.000000 1.809950 
# 
# From -- ./inp_files/53086.got.cif
#   From: 2010.05.17/outbox.cif.g08.bks.cpg/sg66_27_cif.got.tgz:53086.got - 2010.06.03 17:51:23.
