data_PCOD9496332
_publ_section_title
;
Structure prediction by ZEFSAII (Michael W. Deem and Ramdas Pophale) SiO2 
 PCOD9496332
Probable space group: C C C M
;
_chemical_formula_sum "Si O2"
_cell_formula_units_Z 60
_cell_length_a 8.971795
_cell_length_b 12.796615
_cell_length_c 24.997137
_cell_angle_alpha 90.000000
_cell_angle_beta 90.000000
_cell_angle_gamma 90.000000
_cell_volume 2869.886465
_symmetry_space_group_name_H-M "C C C M"
_symmetry_group_IT_number 66
_symmetry_cell_setting 'orthorhombic'
loop_
_space_group_symop_operation_xyz
x,y,z
-x,-y,z
x,-y,1/2-z
-x,y,1/2-z
-x,-y,-z
x,y,-z
-x,y,1/2+z
x,-y,1/2+z
1/2+x,1/2+y,z
1/2-x,1/2-y,z
1/2+x,1/2-y,1/2-z
1/2-x,1/2+y,1/2-z
1/2-x,1/2-y,-z
1/2+x,1/2+y,-z
1/2-x,1/2+y,1/2+z
1/2+x,1/2-y,1/2+z
loop_
_atom_site_type_symbol
_atom_site_label
_atom_site_fract_x
_atom_site_fract_y
_atom_site_fract_z
Si Si1 0.235586 0.466970 0.324696
Si Si2 0.750000 0.250000 0.396537
Si Si3 0.458188 0.173786 0.806868
Si Si4 0.825135 0.971997 0.941704
Si Si5 0.500000 0.500000 0.250000
O O1 0.159523 0.575541 0.302616
O O2 0.264403 0.478768 0.387443
O O3 0.384799 0.445699 0.291261
O O4 0.113410 0.378490 0.321014
O O5 0.611437 0.239241 0.354956
O O6 0.785208 0.149685 0.432334
O O7 0.500000 0.225110 0.750000
O O8 0.764547 0.004956 0.000000
O O9 0.000000 0.000000 0.942212
#
# Coordination Sequence:
#
# PCOD9496332 Si02
#       5
#    16   8  16  16   4
#     4  10  19  34  64  91 118 160 199 251 308 369
#     4  10  23  40  60  88 120 166 207 250 318 364
#     4  10  19  39  56  87 129 156 201 249 304 373
#     4  10  21  40  63  88 120 160 208 256 307 371
#     4  12  16  30  62  96 120 154 202 242 312 366
#
# _framework density 20.906749999999999
#
# number of rings (size 3 to 8) (size 9 to 14) (size 15 to 20)
#    0.000    1.867    4.000    1.200    0.000    0.000 
#   14.400   12.000    0.000    3.200    0.000    0.000 
#    0.000    0.000    0.000    0.000    0.000    0.000 
#
# Total GULP energy -167250.969505 kJ/mol
# GULP energy per Si atom -5575.032317 kJ/mol
# Density = 2.085917 g / cm^3
# Si number density = 20.906750 Si / 1000 Ang^3
#
#
#
# Elastic Constant Matrix: (Units=GPa)
#
#
# Indices 1 2 3 4 5 6 
#
# 1 113.4465 20.1346 55.7970 0.0000 0.0000 0.0000
# 2 20.1346 27.9759 28.5355 0.0000 0.0000 0.0000
# 3 55.7970 28.5355 180.4935 0.0000 0.0000 0.0000
# 4 0.0000 0.0000 0.0000 17.3610 0.0000 0.0000
# 5 0.0000 0.0000 0.0000 0.0000 -13.5809 0.0000
# 6 0.0000 0.0000 0.0000 0.0000 0.0000 13.0003
#
#
#
# Elastic Compliance Matrix: (Units=1/GPa)
#
#
# Indices 1 2 3 4 5 6 
#
# 1 0.011020 -0.005313 -0.002567 0.000000 0.000000 0.000000
# 2 -0.005313 0.045179 -0.005500 0.000000 0.000000 0.000000
# 3 -0.002567 -0.005500 0.007203 0.000000 0.000000 0.000000
# 4 0.000000 0.000000 0.000000 0.057600 0.000000 0.000000
# 5 0.000000 0.000000 0.000000 0.000000 -0.073633 0.000000
# 6 0.000000 0.000000 0.000000 0.000000 0.000000 0.076921
#
#
# Mechanical properties :
#
#
# Convention : Reuss Voigt Hill
#
# Bulk Modulus (GPa) = 27.29077 58.98335 43.13706
# Shear Modulus (GPa) = 30.62485 17.85266 24.23876
#
# Velocity S-wave (km/s) = 3.83146 2.92536 3.40865
# Velocity P-wave (km/s) = 5.71449 6.29953 6.01413
#
# Compressibility (1/GPa) = 0.03664242
#
# Stress axis : x y z
#
# Youngs Moduli (GPa) = 90.74303 22.13408 138.82352
#
# Poissons Ratio (x) = 0.11760 0.35632
# Poissons Ratio (y) = 0.48214 0.76355
# Poissons Ratio (z) = 0.23291 0.12174
#
# Static dielectric constant tensor:
#      x y z
#    x 1.725890 0.000000 0.000000 
#    y 0.000000 1.817110 0.000000 
#    z 0.000000 0.000000 1.770970 
# 
# From -- ./inp_files/54894.got.cif
#   From: 2010.05.17/outbox.cif.g08.bks.cpg/sg66_28_cif.got.tgz:54894.got - 2010.06.03 17:51:23.
