data_PCOD9496411
_publ_section_title
;
Structure prediction by ZEFSAII (Michael W. Deem and Ramdas Pophale) SiO2 
 PCOD9496411
Probable space group: C C C M
;
_chemical_formula_sum "Si O2"
_cell_formula_units_Z 64
_cell_length_a 17.232639
_cell_length_b 10.819009
_cell_length_c 16.321116
_cell_angle_alpha 90.000000
_cell_angle_beta 90.000000
_cell_angle_gamma 90.000000
_cell_volume 3042.910115
_symmetry_space_group_name_H-M "C C C M"
_symmetry_group_IT_number 66
_symmetry_cell_setting 'orthorhombic'
loop_
_space_group_symop_operation_xyz
x,y,z
-x,-y,z
x,-y,1/2-z
-x,y,1/2-z
-x,-y,-z
x,y,-z
-x,y,1/2+z
x,-y,1/2+z
1/2+x,1/2+y,z
1/2-x,1/2-y,z
1/2+x,1/2-y,1/2-z
1/2-x,1/2+y,1/2-z
1/2-x,1/2-y,-z
1/2+x,1/2+y,-z
1/2-x,1/2+y,1/2+z
1/2+x,1/2-y,1/2+z
loop_
_atom_site_type_symbol
_atom_site_label
_atom_site_fract_x
_atom_site_fract_y
_atom_site_fract_z
Si Si1 0.416408 0.948529 0.401297
Si Si2 0.896614 0.964537 0.406157
Si Si3 0.975869 0.197604 0.658562
Si Si4 0.275415 0.117496 0.597222
O O1 0.412382 0.952254 0.500000
O O2 0.422009 0.805572 0.376393
O O3 0.500000 0.000000 0.374954
O O4 0.346783 0.036032 0.369767
O O5 0.913078 0.001346 0.500000
O O6 0.805053 0.955482 0.397610
O O7 0.944019 0.837091 0.389643
O O8 0.928933 0.069820 0.347240
O O9 0.000000 0.228412 0.750000
O O10 0.292945 0.139631 0.500000
O O11 0.250000 0.250000 0.633801
#
# Coordination Sequence:
#
# PCOD9496411 Si02
#       4
#    16  16  16  16
#     4  10  20  36  61  87 113 150 200 251 298 348
#     4  10  19  35  61  87 114 154 204 248 297 353
#     4  11  22  36  57  81 123 158 196 242 300 364
#     4   9  18  33  58  90 118 146 189 252 308 355
#
# _framework density 21.032498
#
# number of rings (size 3 to 8) (size 9 to 14) (size 15 to 20)
#    0.000    2.000    0.000    6.000    0.000    5.500 
#    0.000    3.750   27.500    0.000    0.000    0.000 
#    0.000    0.000    0.000    0.000    0.000    1.000 
#
# Total GULP energy -178458.557641 kJ/mol
# GULP energy per Si atom -5576.829926 kJ/mol
# Density = 2.098463 g / cm^3
# Si number density = 21.032498 Si / 1000 Ang^3
#
#
#
# Elastic Constant Matrix: (Units=GPa)
#
#
# Indices 1 2 3 4 5 6 
#
# 1 154.7914 72.0331 21.7774 0.0000 0.0000 0.0000
# 2 72.0331 126.1145 5.7749 0.0000 0.0000 0.0000
# 3 21.7774 5.7749 18.8071 0.0000 0.0000 0.0000
# 4 0.0000 0.0000 0.0000 -72.5830 0.0000 0.0000
# 5 0.0000 0.0000 0.0000 0.0000 1.2117 0.0000
# 6 0.0000 0.0000 0.0000 0.0000 0.0000 44.4023
#
#
#
# Elastic Compliance Matrix: (Units=1/GPa)
#
#
# Indices 1 2 3 4 5 6 
#
# 1 0.010501 -0.005518 -0.010465 0.000000 0.000000 0.000000
# 2 -0.005518 0.010943 0.003030 0.000000 0.000000 0.000000
# 3 -0.010465 0.003030 0.064358 0.000000 0.000000 0.000000
# 4 0.000000 0.000000 0.000000 -0.013777 0.000000 0.000000
# 5 0.000000 0.000000 0.000000 0.000000 0.825319 0.000000
# 6 0.000000 0.000000 0.000000 0.000000 0.000000 0.022521
#
#
# Mechanical properties :
#
#
# Convention : Reuss Voigt Hill
#
# Bulk Modulus (GPa) = 16.69573 55.43151 36.06362
# Shear Modulus (GPa) = 5.17740 7.94803 6.56271
#
# Velocity S-wave (km/s) = 1.57066 1.94606 1.76835
# Velocity P-wave (km/s) = 3.35329 5.60909 4.62096
#
# Compressibility (1/GPa) = 0.05989555
#
# Stress axis : x y z
#
# Youngs Moduli (GPa) = 95.23272 91.38638 15.53801
#
# Poissons Ratio (x) = 0.50431 0.16260
# Poissons Ratio (y) = 0.52554 -0.04708
# Poissons Ratio (z) = 0.99656 -0.27690
#
# Static dielectric constant tensor:
#      x y z
#    x 1.779660 0.000000 0.000000 
#    y 0.000000 1.830570 0.000000 
#    z 0.000000 0.000000 1.749090 
# 
# From -- ./inp_files/29565.got.cif
#   From: 2010.05.17/outbox.cif.g08.bks.cpg/sg66_15_cif.got.tgz:29565.got - 2010.06.03 17:51:23.
