data_PCOD9496373
_publ_section_title
;
Structure prediction by ZEFSAII (Michael W. Deem and Ramdas Pophale) SiO2 
 PCOD9496373
Probable space group: C C C M
;
_chemical_formula_sum "Si O2"
_cell_formula_units_Z 96
_cell_length_a 30.125520
_cell_length_b 19.331242
_cell_length_c 9.072736
_cell_angle_alpha 90.000000
_cell_angle_beta 90.000000
_cell_angle_gamma 90.000000
_cell_volume 5283.632265
_symmetry_space_group_name_H-M "C C C M"
_symmetry_group_IT_number 66
_symmetry_cell_setting 'orthorhombic'
loop_
_space_group_symop_operation_xyz
x,y,z
-x,-y,z
x,-y,1/2-z
-x,y,1/2-z
-x,-y,-z
x,y,-z
-x,y,1/2+z
x,-y,1/2+z
1/2+x,1/2+y,z
1/2-x,1/2-y,z
1/2+x,1/2-y,1/2-z
1/2-x,1/2+y,1/2-z
1/2-x,1/2-y,-z
1/2+x,1/2+y,-z
1/2-x,1/2+y,1/2+z
1/2+x,1/2-y,1/2+z
loop_
_atom_site_type_symbol
_atom_site_label
_atom_site_fract_x
_atom_site_fract_y
_atom_site_fract_z
Si Si1 0.542091 0.214912 0.173817
Si Si2 0.323944 0.926896 0.174707
Si Si3 0.547204 0.574228 0.823544
Si Si4 0.886001 0.198478 0.326157
Si Si5 0.797594 0.719111 0.823662
Si Si6 0.569353 0.931413 0.327000
O O1 0.500000 0.248447 0.250000
O O2 0.586341 0.252743 0.219473
O O3 0.547682 0.137533 0.233855
O O4 0.536321 0.214376 0.000000
O O5 0.306986 0.854734 0.245329
O O6 0.377486 0.925222 0.191768
O O7 0.309159 0.000000 0.250000
O O8 0.313896 0.928844 0.000000
O O9 0.556477 0.500000 0.750000
O O10 0.500000 0.596986 0.750000
O O11 0.589910 0.624383 0.801004
O O12 0.540399 0.568417 0.000000
O O13 0.894138 0.214010 0.500000
O O14 0.835160 0.221387 0.298139
O O15 0.750000 0.750000 0.780198
O O16 0.797379 0.705916 0.000000
O O17 0.560486 0.935567 0.500000
O O18 0.553610 0.000000 0.250000
#
# Coordination Sequence:
#
# PCOD9496373 Si02
#       6
#    16  16  16  16  16  16
#     4  11  22  35  51  77 109 144 185 227 272 325
#     4  10  19  35  58  84 111 146 190 233 280 336
#     4  10  20  35  56  83 112 145 184 225 274 338
#     4  10  21  37  57  81 110 146 185 228 279 336
#     4  10  21  38  60  86 116 150 188 237 293 346
#     4   9  19  33  50  73 103 140 181 224 266 314
#
# _framework density 18.169318000000001
#
# number of rings (size 3 to 8) (size 9 to 14) (size 15 to 20)
#    0.000    2.000    1.667    2.500    0.000    5.333 
#    0.000    2.500    0.000    2.000    0.000    0.000 
#    0.000    0.000    0.000    0.000    0.000    0.000 
#
# Total GULP energy -267439.987214 kJ/mol
# GULP energy per Si atom -5571.666400 kJ/mol
# Density = 1.812796 g / cm^3
# Si number density = 18.169318 Si / 1000 Ang^3
#
#
#
# Elastic Constant Matrix: (Units=GPa)
#
#
# Indices 1 2 3 4 5 6 
#
# 1 101.1520 52.9748 52.0722 0.0000 0.0000 0.0000
# 2 52.9748 144.2328 57.7411 0.0000 0.0000 0.0000
# 3 52.0722 57.7411 55.9614 0.0000 0.0000 0.0000
# 4 0.0000 0.0000 0.0000 20.7206 0.0000 0.0000
# 5 0.0000 0.0000 0.0000 0.0000 76.5706 0.0000
# 6 0.0000 0.0000 0.0000 0.0000 0.0000 21.9242
#
#
#
# Elastic Compliance Matrix: (Units=1/GPa)
#
#
# Indices 1 2 3 4 5 6 
#
# 1 0.018978 0.000169 -0.017834 0.000000 0.000000 0.000000
# 2 0.000169 0.011814 -0.012347 0.000000 0.000000 0.000000
# 3 -0.017834 -0.012347 0.047203 0.000000 0.000000 0.000000
# 4 0.000000 0.000000 0.000000 0.048261 0.000000 0.000000
# 5 0.000000 0.000000 0.000000 0.000000 0.013060 0.000000
# 6 0.000000 0.000000 0.000000 0.000000 0.000000 0.045612
#
#
# Mechanical properties :
#
#
# Convention : Reuss Voigt Hill
#
# Bulk Modulus (GPa) = 55.64108 69.65803 62.64956
# Shear Modulus (GPa) = 19.92488 33.08028 26.50258
#
# Velocity S-wave (km/s) = 3.31512 4.27156 3.82336
# Velocity P-wave (km/s) = 6.73376 7.92148 7.35164
#
# Compressibility (1/GPa) = 0.01797233
#
# Stress axis : x y z
#
# Youngs Moduli (GPa) = 52.69193 84.64468 21.18496
#
# Poissons Ratio (x) = -0.01430 0.37780
# Poissons Ratio (y) = -0.00890 0.26157
# Poissons Ratio (z) = 0.93969 1.04511
#
# Static dielectric constant tensor:
#      x y z
#    x 1.635870 0.000000 0.000000 
#    y 0.000000 1.667420 0.000000 
#    z 0.000000 0.000000 1.605110 
# 
# From -- ./inp_files/10279.got.cif
#   From: 2010.05.17/outbox.cif.g08.bks.cpg/sg66_6_cif.got.tgz:10279.got - 2010.06.03 17:51:23.
