data_PCOD9496553
_publ_section_title
;
Structure prediction by ZEFSAII (Michael W. Deem and Ramdas Pophale) SiO2 
 PCOD9496553
Probable space group: C C C M
;
_chemical_formula_sum "Si O2"
_cell_formula_units_Z 120
_cell_length_a 8.978567
_cell_length_b 23.433895
_cell_length_c 30.062837
_cell_angle_alpha 90.000000
_cell_angle_beta 90.000000
_cell_angle_gamma 90.000000
_cell_volume 6325.304970
_symmetry_space_group_name_H-M "C C C M"
_symmetry_group_IT_number 66
_symmetry_cell_setting 'orthorhombic'
loop_
_space_group_symop_operation_xyz
x,y,z
-x,-y,z
x,-y,1/2-z
-x,y,1/2-z
-x,-y,-z
x,y,-z
-x,y,1/2+z
x,-y,1/2+z
1/2+x,1/2+y,z
1/2-x,1/2-y,z
1/2+x,1/2-y,1/2-z
1/2-x,1/2+y,1/2-z
1/2-x,1/2-y,-z
1/2+x,1/2+y,-z
1/2-x,1/2+y,1/2+z
1/2+x,1/2-y,1/2+z
loop_
_atom_site_type_symbol
_atom_site_label
_atom_site_fract_x
_atom_site_fract_y
_atom_site_fract_z
Si Si1 0.686367 0.610618 0.551648
Si Si2 0.531139 0.935926 0.397809
Si Si3 0.922790 0.734700 0.297929
Si Si4 0.500000 0.500000 0.917626
Si Si5 0.711875 0.415972 0.366492
Si Si6 0.549816 0.668562 0.631363
Si Si7 0.175407 0.386448 0.682768
Si Si8 0.833719 0.066097 0.263010
O O1 0.690165 0.624935 0.500000
O O2 0.850218 0.594694 0.570435
O O3 0.582350 0.553319 0.557951
O O4 0.623222 0.662045 0.582505
O O5 0.370094 0.908489 0.389856
O O6 0.605866 0.934241 0.348750
O O7 0.500000 0.000000 0.413048
O O8 0.750000 0.750000 0.290231
O O9 0.968624 0.774563 0.339492
O O10 0.926942 0.669517 0.314544
O O11 0.000000 0.743028 0.250000
O O12 0.373672 0.469876 0.888000
O O13 0.607685 0.361607 0.372989
O O14 0.710995 0.426199 0.313796
O O15 0.666672 0.630686 0.660289
O O16 0.212448 0.404647 0.732120
O O17 0.000000 0.088585 0.250000
O O18 0.836090 0.000000 0.250000
#
# Coordination Sequence:
#
# PCOD9496553 Si02
#       8
#    16  16  16   8  16  16  16  16
#     4  10  21  39  64  89 120 156 202 253 314 379
#     4  11  22  37  54  84 127 160 191 246 314 364
#     4  10  23  38  59  84 119 160 207 257 302 356
#     4  10  19  38  57  90 120 160 201 248 295 370
#     4  11  21  33  56  80 121 163 200 247 295 353
#     4   9  21  39  59  81 117 153 210 258 299 351
#     4  10  22  38  52  82 121 163 203 251 286 354
#     4  11  21  31  55  84 117 168 213 237 278 359
#
# _framework density 18.971416999999999
#
# number of rings (size 3 to 8) (size 9 to 14) (size 15 to 20)
#    0.000    1.733    2.667    1.800    7.467    0.267 
#    0.000    2.000    0.000   10.000    0.000    0.000 
#    0.000   20.000    0.000    0.000    0.000    0.000 
#
# Total GULP energy -334659.673358 kJ/mol
# GULP energy per Si atom -5577.661223 kJ/mol
# Density = 1.892824 g / cm^3
# Si number density = 18.971417 Si / 1000 Ang^3
#
#
#
# Elastic Constant Matrix: (Units=GPa)
#
#
# Indices 1 2 3 4 5 6 
#
# 1 90.1858 23.9811 42.0073 0.0000 0.0000 0.0000
# 2 23.9811 40.6041 21.6469 0.0000 0.0000 0.0000
# 3 42.0073 21.6469 143.1213 0.0000 0.0000 0.0000
# 4 0.0000 0.0000 0.0000 4.8698 0.0000 0.0000
# 5 0.0000 0.0000 0.0000 0.0000 19.0006 0.0000
# 6 0.0000 0.0000 0.0000 0.0000 0.0000 14.0098
#
#
#
# Elastic Compliance Matrix: (Units=1/GPa)
#
#
# Indices 1 2 3 4 5 6 
#
# 1 0.014382 -0.006791 -0.003194 0.000000 0.000000 0.000000
# 2 -0.006791 0.029995 -0.002543 0.000000 0.000000 0.000000
# 3 -0.003194 -0.002543 0.008309 0.000000 0.000000 0.000000
# 4 0.000000 0.000000 0.000000 0.205347 0.000000 0.000000
# 5 0.000000 0.000000 0.000000 0.000000 0.052630 0.000000
# 6 0.000000 0.000000 0.000000 0.000000 0.000000 0.071379
#
#
# Mechanical properties :
#
#
# Convention : Reuss Voigt Hill
#
# Bulk Modulus (GPa) = 36.19426 49.90908 43.05167
# Shear Modulus (GPa) = 12.01032 19.99444 16.00238
#
# Velocity S-wave (km/s) = 2.51883 3.24994 2.90746
# Velocity P-wave (km/s) = 5.25158 6.35983 5.83209
#
# Compressibility (1/GPa) = 0.02762869
#
# Stress axis : x y z
#
# Youngs Moduli (GPa) = 69.53237 33.33897 120.34796
#
# Poissons Ratio (x) = 0.22641 0.38439
# Poissons Ratio (y) = 0.47221 0.30609
# Poissons Ratio (z) = 0.22209 0.08479
#
# Static dielectric constant tensor:
#      x y z
#    x 1.689540 0.000000 0.000000 
#    y 0.000000 1.697470 0.000000 
#    z 0.000000 0.000000 1.656780 
# 
# From -- ./inp_files/62969.got.cif
#   From: 2010.05.17/outbox.cif.g08.bks.cpg/sg66_32_cif.got.tgz:62969.got - 2010.06.03 17:51:23.
