data_PCOD9496725
_publ_section_title
;
Structure prediction by ZEFSAII (Michael W. Deem and Ramdas Pophale) SiO2 
 PCOD9496725
Probable space group: C C C M
;
_chemical_formula_sum "Si O2"
_cell_formula_units_Z 80
_cell_length_a 14.177284
_cell_length_b 7.992942
_cell_length_c 29.290170
_cell_angle_alpha 90.000000
_cell_angle_beta 90.000000
_cell_angle_gamma 90.000000
_cell_volume 3319.109598
_symmetry_space_group_name_H-M "C C C M"
_symmetry_group_IT_number 66
_symmetry_cell_setting 'orthorhombic'
loop_
_space_group_symop_operation_xyz
x,y,z
-x,-y,z
x,-y,1/2-z
-x,y,1/2-z
-x,-y,-z
x,y,-z
-x,y,1/2+z
x,-y,1/2+z
1/2+x,1/2+y,z
1/2-x,1/2-y,z
1/2+x,1/2-y,1/2-z
1/2-x,1/2+y,1/2-z
1/2-x,1/2-y,-z
1/2+x,1/2+y,-z
1/2-x,1/2+y,1/2+z
1/2+x,1/2-y,1/2+z
loop_
_atom_site_type_symbol
_atom_site_label
_atom_site_fract_x
_atom_site_fract_y
_atom_site_fract_z
Si Si1 0.358436 0.568251 0.446475
Si Si2 0.351521 0.114701 0.903722
Si Si3 0.386113 0.180067 0.197181
Si Si4 0.112038 0.713474 0.205764
Si Si5 0.357627 0.739134 0.106921
O O1 0.353069 0.536821 0.500000
O O2 0.400475 0.751762 0.436748
O O3 0.252851 0.584362 0.424522
O O4 0.403554 0.410621 0.420847
O O5 0.352966 0.207897 0.854279
O O6 0.395268 0.929025 0.897611
O O7 0.498623 0.210186 0.199784
O O8 0.355834 0.272392 0.244035
O O9 0.363112 0.983152 0.202943
O O10 0.147306 0.805709 0.160773
O O11 0.250000 0.750000 0.090224
#
# Coordination Sequence:
#
# PCOD9496725 Si02
#       5
#    16  16  16  16  16
#     4  10  20  33  50  72  99 129 170 213 251 294
#     4   9  17  31  50  72  97 125 165 203 249 293
#     4   8  14  27  51  74  99 135 165 199 244 301
#     4   8  14  28  49  75 102 132 167 197 243 303
#     4   9  18  31  49  74 100 128 164 200 248 294
#
# _framework density 24.102848000000002
#
# number of rings (size 3 to 8) (size 9 to 14) (size 15 to 20)
#    0.000    3.200    0.000    2.400    0.000    4.400 
#    3.600    2.000    0.000    6.000    0.000   21.000 
#    0.000    0.000    0.000    0.000    0.000    0.000 
#
# Total GULP energy -222790.220340 kJ/mol
# GULP energy per Si atom -5569.755509 kJ/mol
# Density = 2.404799 g / cm^3
# Si number density = 24.102848 Si / 1000 Ang^3
#
#
#
# Elastic Constant Matrix: (Units=GPa)
#
#
# Indices 1 2 3 4 5 6 
#
# 1 60.6198 13.6573 10.5536 0.0000 0.0000 0.0000
# 2 13.6573 118.4722 63.0630 0.0000 0.0000 0.0000
# 3 10.5536 63.0630 203.8479 0.0000 0.0000 0.0000
# 4 0.0000 0.0000 0.0000 40.5951 0.0000 0.0000
# 5 0.0000 0.0000 0.0000 0.0000 25.2973 0.0000
# 6 0.0000 0.0000 0.0000 0.0000 0.0000 19.1884
#
#
#
# Elastic Compliance Matrix: (Units=1/GPa)
#
#
# Indices 1 2 3 4 5 6 
#
# 1 0.016954 -0.001780 -0.000327 0.000000 0.000000 0.000000
# 2 -0.001780 0.010292 -0.003092 0.000000 0.000000 0.000000
# 3 -0.000327 -0.003092 0.005879 0.000000 0.000000 0.000000
# 4 0.000000 0.000000 0.000000 0.024634 0.000000 0.000000
# 5 0.000000 0.000000 0.000000 0.000000 0.039530 0.000000
# 6 0.000000 0.000000 0.000000 0.000000 0.000000 0.052115
#
#
# Mechanical properties :
#
#
# Convention : Reuss Voigt Hill
#
# Bulk Modulus (GPa) = 44.00075 61.94309 52.97192
# Shear Modulus (GPa) = 29.87265 36.72723 33.29994
#
# Velocity S-wave (km/s) = 3.52431 3.90779 3.72099
# Velocity P-wave (km/s) = 5.90390 6.79090 6.36288
#
# Compressibility (1/GPa) = 0.02272688
#
# Stress axis : x y z
#
# Youngs Moduli (GPa) = 58.98204 97.16501 170.09673
#
# Poissons Ratio (x) = 0.17300 0.05561
# Poissons Ratio (y) = 0.10501 0.52589
# Poissons Ratio (z) = 0.01928 0.30041
#
# Static dielectric constant tensor:
#      x y z
#    x 2.045580 0.000000 0.000000 
#    y 0.000000 2.004220 0.000000 
#    z 0.000000 0.000000 1.263640 
# 
# From -- ./inp_files/65085.got.cif
#   From: 2010.05.17/outbox.cif.g08.bks.cpg/sg66_33_cif.got.tgz:65085.got - 2010.06.03 17:51:23.
