data_PCOD9496970
_publ_section_title
;
Structure prediction by ZEFSAII (Michael W. Deem and Ramdas Pophale) SiO2 
 PCOD9496970
Probable space group: C C C M
;
_chemical_formula_sum "Si O2"
_cell_formula_units_Z 96
_cell_length_a 24.004819
_cell_length_b 24.951241
_cell_length_c 8.536207
_cell_angle_alpha 90.000000
_cell_angle_beta 90.000000
_cell_angle_gamma 90.000000
_cell_volume 5112.761388
_symmetry_space_group_name_H-M "C C C M"
_symmetry_group_IT_number 66
_symmetry_cell_setting 'orthorhombic'
loop_
_space_group_symop_operation_xyz
x,y,z
-x,-y,z
x,-y,1/2-z
-x,y,1/2-z
-x,-y,-z
x,y,-z
-x,y,1/2+z
x,-y,1/2+z
1/2+x,1/2+y,z
1/2-x,1/2-y,z
1/2+x,1/2-y,1/2-z
1/2-x,1/2+y,1/2-z
1/2-x,1/2-y,-z
1/2+x,1/2+y,-z
1/2-x,1/2+y,1/2+z
1/2+x,1/2-y,1/2+z
loop_
_atom_site_type_symbol
_atom_site_label
_atom_site_fract_x
_atom_site_fract_y
_atom_site_fract_z
Si Si1 0.663960 0.442397 0.312960
Si Si2 0.126941 0.222173 0.189598
Si Si3 0.937088 0.558523 0.188795
Si Si4 0.362722 0.840518 0.308838
Si Si5 0.061696 0.120137 0.314097
Si Si6 0.235191 0.160508 0.809884
O O1 0.680442 0.500000 0.250000
O O2 0.662086 0.443076 0.500000
O O3 0.603857 0.424684 0.249757
O O4 0.706442 0.395508 0.265003
O O5 0.112535 0.282671 0.236532
O O6 0.086720 0.177018 0.257426
O O7 0.190578 0.206224 0.236180
O O8 0.124665 0.218569 0.000000
O O9 0.918667 0.500000 0.250000
O O10 0.897347 0.607393 0.241167
O O11 0.000000 0.567098 0.250000
O O12 0.938063 0.557149 0.000000
O O13 0.362029 0.841914 0.500000
O O14 0.298526 0.838963 0.254230
O O15 0.061405 0.118638 0.500000
O O16 0.000000 0.112864 0.250000
O O17 0.237748 0.163319 0.000000
#
# Coordination Sequence:
#
# PCOD9496970 Si02
#       6
#    16  16  16  16  16  16
#     4  10  20  35  55  79 107 140 177 217 263 311
#     4   9  17  32  54  79 107 138 172 211 256 306
#     4  10  20  35  53  72  99 132 169 212 259 306
#     4   9  17  30  53  82 105 134 176 214 251 306
#     4  11  22  37  55  76 105 139 177 219 264 312
#     4   8  15  29  51  78 107 137 170 208 251 302
#
# _framework density 18.776546
#
# number of rings (size 3 to 8) (size 9 to 14) (size 15 to 20)
#    0.000    2.500    0.000    4.500    0.000    3.667 
#    0.000    5.000    0.000   18.000    0.000    0.000 
#    0.000    0.000    0.000    0.000    0.000    0.000 
#
# Total GULP energy -267769.781475 kJ/mol
# GULP energy per Si atom -5578.537114 kJ/mol
# Density = 1.873381 g / cm^3
# Si number density = 18.776546 Si / 1000 Ang^3
#
#
#
# Elastic Constant Matrix: (Units=GPa)
#
#
# Indices 1 2 3 4 5 6 
#
# 1 20.0222 5.4461 4.6567 0.0000 0.0000 0.0000
# 2 5.4461 115.0142 20.1408 0.0000 0.0000 0.0000
# 3 4.6567 20.1408 41.7936 0.0000 0.0000 0.0000
# 4 0.0000 0.0000 0.0000 24.2418 0.0000 0.0000
# 5 0.0000 0.0000 0.0000 0.0000 13.4501 0.0000
# 6 0.0000 0.0000 0.0000 0.0000 0.0000 15.5282
#
#
#
# Elastic Compliance Matrix: (Units=1/GPa)
#
#
# Indices 1 2 3 4 5 6 
#
# 1 0.051530 -0.001567 -0.004986 0.000000 0.000000 0.000000
# 2 -0.001567 0.009544 -0.004425 0.000000 0.000000 0.000000
# 3 -0.004986 -0.004425 0.026615 0.000000 0.000000 0.000000
# 4 0.000000 0.000000 0.000000 0.041251 0.000000 0.000000
# 5 0.000000 0.000000 0.000000 0.000000 0.074349 0.000000
# 6 0.000000 0.000000 0.000000 0.000000 0.000000 0.064399
#
#
# Mechanical properties :
#
#
# Convention : Reuss Voigt Hill
#
# Bulk Modulus (GPa) = 15.21305 26.36860 20.79082
# Shear Modulus (GPa) = 16.04856 20.41645 18.23251
#
# Velocity S-wave (km/s) = 2.92672 3.30106 3.11951
# Velocity P-wave (km/s) = 4.42048 5.34819 4.90631
#
# Compressibility (1/GPa) = 0.06573305
#
# Stress axis : x y z
#
# Youngs Moduli (GPa) = 19.40603 104.78235 37.57288
#
# Poissons Ratio (x) = 0.16418 0.18736
# Poissons Ratio (y) = 0.03041 0.16624
# Poissons Ratio (z) = 0.09677 0.46362
#
# Static dielectric constant tensor:
#      x y z
#    x 1.639270 0.000000 0.000000 
#    y 0.000000 1.649940 0.000000 
#    z 0.000000 0.000000 1.639740 
# 
# From -- ./inp_files/9127.got.cif
#   From: 2010.05.17/outbox.cif.g08.bks.cpg/sg66_5_cif.got.tgz:9127.got - 2010.06.03 17:51:23.
