data_PCOD9496645
_publ_section_title
;
Structure prediction by ZEFSAII (Michael W. Deem and Ramdas Pophale) SiO2 
 PCOD9496645
Probable space group: C C C M
;
_chemical_formula_sum "Si O2"
_cell_formula_units_Z 120
_cell_length_a 19.664448
_cell_length_b 12.973187
_cell_length_c 23.356469
_cell_angle_alpha 90.000000
_cell_angle_beta 90.000000
_cell_angle_gamma 90.000000
_cell_volume 5958.481913
_symmetry_space_group_name_H-M "C C C M"
_symmetry_group_IT_number 66
_symmetry_cell_setting 'orthorhombic'
loop_
_space_group_symop_operation_xyz
x,y,z
-x,-y,z
x,-y,1/2-z
-x,y,1/2-z
-x,-y,-z
x,y,-z
-x,y,1/2+z
x,-y,1/2+z
1/2+x,1/2+y,z
1/2-x,1/2-y,z
1/2+x,1/2-y,1/2-z
1/2-x,1/2+y,1/2-z
1/2-x,1/2-y,-z
1/2+x,1/2+y,-z
1/2-x,1/2+y,1/2+z
1/2+x,1/2-y,1/2+z
loop_
_atom_site_type_symbol
_atom_site_label
_atom_site_fract_x
_atom_site_fract_y
_atom_site_fract_z
Si Si1 0.175964 0.706361 0.198427
Si Si2 0.569765 0.886493 0.223350
Si Si3 0.670902 0.195879 0.000000
Si Si4 0.097902 0.176211 0.399606
Si Si5 0.050268 0.802317 0.435554
Si Si6 0.565231 0.069444 0.411309
Si Si7 0.201168 0.551336 0.902463
Si Si8 0.336231 0.459207 0.931566
O O1 0.250000 0.750000 0.211082
O O2 0.132962 0.678641 0.254217
O O3 0.133527 0.784880 0.158343
O O4 0.186320 0.605714 0.157803
O O5 0.500000 0.842685 0.250000
O O6 0.563823 0.904137 0.156163
O O7 0.577070 0.000000 0.250000
O O8 0.623212 0.246606 0.050487
O O9 0.717920 0.138940 0.050282
O O10 0.016533 0.180581 0.397721
O O11 0.122829 0.063012 0.416625
O O12 0.034963 0.841909 0.500000
O O13 0.063735 0.680955 0.439099
O O14 0.116708 0.863057 0.414770
O O15 0.500000 0.000000 0.425987
O O16 0.632674 0.004050 0.424170
O O17 0.263401 0.472248 0.901474
O O18 0.324550 0.453364 0.000000
#
# Coordination Sequence:
#
# PCOD9496645 Si02
#       8
#    16  16   8  16  16  16  16  16
#     4  11  22  38  65  98 125 156 206 271 319 370
#     4  11  20  41  65  91 120 153 203 258 317 377
#     4  10  20  31  56  93 119 156 208 262 306 366
#     4  11  20  37  62  92 127 160 211 262 313 362
#     4  11  25  40  59  93 128 173 216 251 312 385
#     4  12  24  42  66  89 123 164 205 266 320 373
#     4  11  22  36  59  91 124 163 207 257 321 365
#     4  11  22  39  59  82 130 177 209 251 302 380
#
# _framework density 20.139358000000001
#
# number of rings (size 3 to 8) (size 9 to 14) (size 15 to 20)
#    0.000    0.933    6.000    2.800    0.933    2.400 
#    2.400    1.333    0.000    0.000    0.000    2.800 
#    0.000    0.000    0.000    0.000    0.000    0.000 
#
# Total GULP energy -334430.774730 kJ/mol
# GULP energy per Si atom -5573.846246 kJ/mol
# Density = 2.009352 g / cm^3
# Si number density = 20.139358 Si / 1000 Ang^3
#
#
#
# Elastic Constant Matrix: (Units=GPa)
#
#
# Indices 1 2 3 4 5 6 
#
# 1 150.8941 63.5213 -3.1105 0.0000 0.0000 0.0000
# 2 63.5213 67.9810 2.4044 0.0000 0.0000 0.0000
# 3 -3.1105 2.4044 48.7118 0.0000 0.0000 0.0000
# 4 0.0000 0.0000 0.0000 15.2193 0.0000 0.0000
# 5 0.0000 0.0000 0.0000 0.0000 43.1064 0.0000
# 6 0.0000 0.0000 0.0000 0.0000 0.0000 47.6601
#
#
#
# Elastic Compliance Matrix: (Units=1/GPa)
#
#
# Indices 1 2 3 4 5 6 
#
# 1 0.010995 -0.010317 0.001211 0.000000 0.000000 0.000000
# 2 -0.010317 0.024416 -0.001864 0.000000 0.000000 0.000000
# 3 0.001211 -0.001864 0.020698 0.000000 0.000000 0.000000
# 4 0.000000 0.000000 0.000000 0.065706 0.000000 0.000000
# 5 0.000000 0.000000 0.000000 0.000000 0.023198 0.000000
# 6 0.000000 0.000000 0.000000 0.000000 0.000000 0.020982
#
#
# Mechanical properties :
#
#
# Convention : Reuss Voigt Hill
#
# Bulk Modulus (GPa) = 29.26490 43.69082 36.47786
# Shear Modulus (GPa) = 25.08479 34.84862 29.96670
#
# Velocity S-wave (km/s) = 3.53308 4.16429 3.86160
# Velocity P-wave (km/s) = 5.58626 6.69799 6.16723
#
# Compressibility (1/GPa) = 0.03417063
#
# Stress axis : x y z
#
# Youngs Moduli (GPa) = 90.94973 40.95719 48.31325
#
# Poissons Ratio (x) = 0.42254 -0.05852
# Poissons Ratio (y) = 0.93829 0.09005
# Poissons Ratio (z) = -0.11017 0.07634
#
# Static dielectric constant tensor:
#      x y z
#    x 1.746090 0.000000 0.000000 
#    y 0.000000 1.757920 0.000000 
#    z 0.000000 0.000000 1.681820 
# 
# From -- ./inp_files/59610.got.cif
#   From: 2010.05.17/outbox.cif.g08.bks.cpg/sg66_30_cif.got.tgz:59610.got - 2010.06.03 17:51:23.
