data_PCOD9496280
_publ_section_title
;
Structure prediction by ZEFSAII (Michael W. Deem and Ramdas Pophale) SiO2 
 PCOD9496280
Probable space group: C C C M
;
_chemical_formula_sum "Si O2"
_cell_formula_units_Z 88
_cell_length_a 17.387329
_cell_length_b 11.261236
_cell_length_c 25.091020
_cell_angle_alpha 90.000000
_cell_angle_beta 90.000000
_cell_angle_gamma 90.000000
_cell_volume 4912.892354
_symmetry_space_group_name_H-M "C C C M"
_symmetry_group_IT_number 66
_symmetry_cell_setting 'orthorhombic'
loop_
_space_group_symop_operation_xyz
x,y,z
-x,-y,z
x,-y,1/2-z
-x,y,1/2-z
-x,-y,-z
x,y,-z
-x,y,1/2+z
x,-y,1/2+z
1/2+x,1/2+y,z
1/2-x,1/2-y,z
1/2+x,1/2-y,1/2-z
1/2-x,1/2+y,1/2-z
1/2-x,1/2-y,-z
1/2+x,1/2+y,-z
1/2-x,1/2+y,1/2+z
1/2+x,1/2-y,1/2+z
loop_
_atom_site_type_symbol
_atom_site_label
_atom_site_fract_x
_atom_site_fract_y
_atom_site_fract_z
Si Si1 0.000000 0.805601 0.750000
Si Si2 0.298118 0.372444 0.000000
Si Si3 0.000000 0.000000 0.840470
Si Si4 0.838109 0.076056 0.384018
Si Si5 0.365149 0.125550 0.731609
Si Si6 0.203607 0.622998 0.000000
Si Si7 0.750000 0.750000 0.806231
Si Si8 0.294490 0.874597 0.883063
O O1 0.924889 0.726219 0.746516
O O2 0.997763 0.887227 0.698185
O O3 0.250000 0.250000 0.000000
O O4 0.342412 0.374813 0.944102
O O5 0.252518 0.499600 0.000000
O O6 0.080458 0.015208 0.871060
O O7 0.811085 0.180841 0.343808
O O8 0.769404 0.978860 0.380684
O O9 0.289700 0.155156 0.766793
O O10 0.346928 0.120004 0.669013
O O11 0.396497 0.000000 0.750000
O O12 0.250000 0.750000 0.000000
O O13 0.164970 0.620476 0.058614
O O14 0.250000 0.750000 0.880218
#
# Coordination Sequence:
#
# PCOD9496280 Si02
#       8
#     8   8   8  16  16   8   8  16
#     4  11  25  40  54  86 123 165 200 246 322 383
#     4  10  20  35  63  90 121 162 211 261 312 370
#     4  11  24  39  60  82 128 163 194 257 318 380
#     4  11  22  39  60  90 122 161 204 257 315 367
#     4  12  23  36  59  87 119 158 203 257 309 377
#     4   8  18  34  53  86 120 153 200 256 309 356
#     4  12  22  37  60  91 122 152 210 254 310 380
#     4  10  19  34  58  85 116 150 200 250 296 364
#
# _framework density 17.912056
#
# number of rings (size 3 to 8) (size 9 to 14) (size 15 to 20)
#    0.000    1.273    5.455    1.364    0.000    0.364 
#    0.000    0.000    0.000    1.091    0.000    1.273 
#    0.000    0.545    0.000    0.000    0.000    0.000 
#
# Total GULP energy -245187.709780 kJ/mol
# GULP energy per Si atom -5572.447950 kJ/mol
# Density = 1.787129 g / cm^3
# Si number density = 17.912056 Si / 1000 Ang^3
#
#
#
# Elastic Constant Matrix: (Units=GPa)
#
#
# Indices 1 2 3 4 5 6 
#
# 1 70.3333 20.8050 54.7147 0.0000 0.0000 0.0000
# 2 20.8050 92.8693 40.8795 0.0000 0.0000 0.0000
# 3 54.7147 40.8795 182.7637 0.0000 0.0000 0.0000
# 4 0.0000 0.0000 0.0000 33.6893 0.0000 0.0000
# 5 0.0000 0.0000 0.0000 0.0000 -8.7468 0.0000
# 6 0.0000 0.0000 0.0000 0.0000 0.0000 34.0760
#
#
#
# Elastic Compliance Matrix: (Units=1/GPa)
#
#
# Indices 1 2 3 4 5 6 
#
# 1 0.018841 -0.001928 -0.005209 0.000000 0.000000 0.000000
# 2 -0.001928 0.012141 -0.002139 0.000000 0.000000 0.000000
# 3 -0.005209 -0.002139 0.007509 0.000000 0.000000 0.000000
# 4 0.000000 0.000000 0.000000 0.029683 0.000000 0.000000
# 5 0.000000 0.000000 0.000000 0.000000 -0.114328 0.000000
# 6 0.000000 0.000000 0.000000 0.000000 0.000000 0.029346
#
#
# Mechanical properties :
#
#
# Convention : Reuss Voigt Hill
#
# Bulk Modulus (GPa) = 50.15023 64.30722 57.22872
# Shear Modulus (GPa) = 595.93251 27.10817 311.52034
#
# Velocity S-wave (km/s) = 18.25983 3.89447 13.20205
# Velocity P-wave (km/s) = 21.73984 7.49681 16.26073
#
# Compressibility (1/GPa) = 0.01994009
#
# Stress axis : x y z
#
# Youngs Moduli (GPa) = 53.07663 82.36538 133.16679
#
# Poissons Ratio (x) = 0.15878 0.69370
# Poissons Ratio (y) = 0.10232 0.28478
# Poissons Ratio (z) = 0.27649 0.17614
#
# Static dielectric constant tensor:
#      x y z
#    x 1.584560 0.000000 0.000000 
#    y 0.000000 1.586230 0.000000 
#    z 0.000000 0.000000 1.645280 
# 
# From -- ./inp_files/64570.got.cif
#   From: 2010.05.17/outbox.cif.g08.bks.cpg/sg66_33_cif.got.tgz:64570.got - 2010.06.03 17:51:23.
