data_PCOD9496475
_publ_section_title
;
Structure prediction by ZEFSAII (Michael W. Deem and Ramdas Pophale) SiO2 
 PCOD9496475
Probable space group: C C C M
;
_chemical_formula_sum "Si O2"
_cell_formula_units_Z 120
_cell_length_a 14.744591
_cell_length_b 30.278480
_cell_length_c 14.429925
_cell_angle_alpha 90.000000
_cell_angle_beta 90.000000
_cell_angle_gamma 90.000000
_cell_volume 6442.150604
_symmetry_space_group_name_H-M "C C C M"
_symmetry_group_IT_number 66
_symmetry_cell_setting 'orthorhombic'
loop_
_space_group_symop_operation_xyz
x,y,z
-x,-y,z
x,-y,1/2-z
-x,y,1/2-z
-x,-y,-z
x,y,-z
-x,y,1/2+z
x,-y,1/2+z
1/2+x,1/2+y,z
1/2-x,1/2-y,z
1/2+x,1/2-y,1/2-z
1/2-x,1/2+y,1/2-z
1/2-x,1/2-y,-z
1/2+x,1/2+y,-z
1/2-x,1/2+y,1/2+z
1/2+x,1/2-y,1/2+z
loop_
_atom_site_type_symbol
_atom_site_label
_atom_site_fract_x
_atom_site_fract_y
_atom_site_fract_z
Si Si1 0.528248 0.296962 0.106639
Si Si2 0.329589 0.933291 0.389762
Si Si3 0.523564 0.895091 0.612658
Si Si4 0.317119 0.036971 0.389934
Si Si5 0.303236 0.408721 0.731537
Si Si6 0.736577 0.325269 0.106850
Si Si7 0.000000 0.871422 0.250000
Si Si8 0.070513 0.703656 0.888025
O O1 0.637353 0.304049 0.108664
O O2 0.487710 0.337026 0.165038
O O3 0.516362 0.247033 0.143374
O O4 0.498387 0.299692 0.000000
O O5 0.316272 0.926201 0.500000
O O6 0.423759 0.910788 0.360342
O O7 0.246952 0.915063 0.329085
O O8 0.339654 0.985841 0.374567
O O9 0.525717 0.894832 0.500000
O O10 0.600918 0.930395 0.639525
O O11 0.540788 0.844916 0.643791
O O12 0.302533 0.043081 0.500000
O O13 0.228774 0.050707 0.332370
O O14 0.265735 0.365970 0.676795
O O15 0.410222 0.400588 0.739083
O O16 0.821597 0.294522 0.130582
O O17 0.751898 0.340780 0.000000
O O18 0.061161 0.704681 0.000000
#
# Coordination Sequence:
#
# PCOD9496475 Si02
#       8
#    16  16  16  16  16  16   8  16
#     4   9  18  33  54  78 108 145 181 227 279 321
#     4  10  22  37  54  79 114 150 179 210 262 337
#     4   9  17  32  55  83 115 146 173 209 263 326
#     4  10  19  36  60  84 109 137 175 228 281 327
#     4  11  21  37  57  78 106 142 187 228 276 322
#     4   9  16  30  53  82 110 137 179 232 280 316
#     4  10  24  40  55  78 106 142 187 234 280 326
#     4   9  15  28  53  83 112 140 173 218 268 317
#
# _framework density 18.627320999999998
#
# number of rings (size 3 to 8) (size 9 to 14) (size 15 to 20)
#    0.000    2.400    1.333    1.600    0.000    4.800 
#    2.400    2.667    0.000    1.600    0.000    3.733 
#    0.000    0.000    0.000    0.000    0.000    0.000 
#
# Total GULP energy -334651.712577 kJ/mol
# GULP energy per Si atom -5577.528543 kJ/mol
# Density = 1.858492 g / cm^3
# Si number density = 18.627321 Si / 1000 Ang^3
#
#
#
# Elastic Constant Matrix: (Units=GPa)
#
#
# Indices 1 2 3 4 5 6 
#
# 1 72.6758 29.5253 19.7825 0.0000 0.0000 0.0000
# 2 29.5253 74.3132 23.0256 0.0000 0.0000 0.0000
# 3 19.7825 23.0256 70.9755 0.0000 0.0000 0.0000
# 4 0.0000 0.0000 0.0000 5.1187 0.0000 0.0000
# 5 0.0000 0.0000 0.0000 0.0000 20.9378 0.0000
# 6 0.0000 0.0000 0.0000 0.0000 0.0000 19.6695
#
#
#
# Elastic Compliance Matrix: (Units=1/GPa)
#
#
# Indices 1 2 3 4 5 6 
#
# 1 0.016899 -0.005842 -0.002815 0.000000 0.000000 0.000000
# 2 -0.005842 0.016980 -0.003880 0.000000 0.000000 0.000000
# 3 -0.002815 -0.003880 0.016133 0.000000 0.000000 0.000000
# 4 0.000000 0.000000 0.000000 0.195364 0.000000 0.000000
# 5 0.000000 0.000000 0.000000 0.000000 0.047760 0.000000
# 6 0.000000 0.000000 0.000000 0.000000 0.000000 0.050840
#
#
# Mechanical properties :
#
#
# Convention : Reuss Voigt Hill
#
# Bulk Modulus (GPa) = 40.10024 40.29237 40.19631
# Shear Modulus (GPa) = 13.24981 18.85391 16.05186
#
# Velocity S-wave (km/s) = 2.66993 3.18490 2.93872
# Velocity P-wave (km/s) = 5.57486 5.93318 5.75681
#
# Compressibility (1/GPa) = 0.02493751
#
# Stress axis : x y z
#
# Youngs Moduli (GPa) = 59.17369 58.89295 61.98551
#
# Poissons Ratio (x) = 0.34406 0.17449
# Poissons Ratio (y) = 0.34570 0.24052
# Poissons Ratio (z) = 0.16657 0.22852
#
# Static dielectric constant tensor:
#      x y z
#    x 1.623960 0.000000 0.000000 
#    y 0.000000 1.662990 0.000000 
#    z 0.000000 0.000000 1.683390 
# 
# From -- ./inp_files/29052.got.cif
#   From: 2010.05.17/outbox.cif.g08.bks.cpg/sg66_15_cif.got.tgz:29052.got - 2010.06.03 17:51:23.
