data_PCOD9496300
_publ_section_title
;
Structure prediction by ZEFSAII (Michael W. Deem and Ramdas Pophale) SiO2 
 PCOD9496300
Probable space group: C C C M
;
_chemical_formula_sum "Si O2"
_cell_formula_units_Z 96
_cell_length_a 28.045570
_cell_length_b 10.572877
_cell_length_c 17.450361
_cell_angle_alpha 90.000000
_cell_angle_beta 90.000000
_cell_angle_gamma 90.000000
_cell_volume 5174.422262
_symmetry_space_group_name_H-M "C C C M"
_symmetry_group_IT_number 66
_symmetry_cell_setting 'orthorhombic'
loop_
_space_group_symop_operation_xyz
x,y,z
-x,-y,z
x,-y,1/2-z
-x,y,1/2-z
-x,-y,-z
x,y,-z
-x,y,1/2+z
x,-y,1/2+z
1/2+x,1/2+y,z
1/2-x,1/2-y,z
1/2+x,1/2-y,1/2-z
1/2-x,1/2+y,1/2-z
1/2-x,1/2-y,-z
1/2+x,1/2+y,-z
1/2-x,1/2+y,1/2+z
1/2+x,1/2-y,1/2+z
loop_
_atom_site_type_symbol
_atom_site_label
_atom_site_fract_x
_atom_site_fract_y
_atom_site_fract_z
Si Si1 0.381390 0.743234 0.907300
Si Si2 0.773428 0.380650 0.592564
Si Si3 0.867213 0.520505 0.164699
Si Si4 0.281930 0.369313 0.406707
Si Si5 0.973698 0.622344 0.167560
Si Si6 0.515860 0.638496 0.407688
O O1 0.336061 0.659009 0.883681
O O2 0.430857 0.678846 0.883374
O O3 0.375932 0.884002 0.874062
O O4 0.381071 0.753246 0.000000
O O5 0.772861 0.380458 0.500000
O O6 0.750000 0.250000 0.619364
O O7 0.827578 0.402322 0.618625
O O8 0.741957 0.500555 0.619087
O O9 0.848048 0.500000 0.250000
O O10 0.918145 0.589492 0.173101
O O11 0.281244 0.371364 0.500000
O O12 0.250000 0.250000 0.382491
O O13 0.000000 0.500000 0.130601
O O14 0.000000 0.636338 0.250000
O O15 0.982059 0.750195 0.121759
O O16 0.500000 0.500000 0.380356
O O17 0.515165 0.636757 0.500000
#
# Coordination Sequence:
#
# PCOD9496300 Si02
#       6
#    16  16  16  16  16  16
#     4  10  19  34  59  85 111 153 199 234 287 356
#     4  10  22  40  60  87 120 153 193 245 304 358
#     4  12  22  37  60  86 117 152 201 250 292 352
#     4   9  16  31  57  82 105 142 188 225 273 344
#     4  11  21  40  61  84 116 163 204 242 297 359
#     4  10  22  37  56  90 126 149 190 255 304 347
#
# _framework density 18.552797000000002
#
# number of rings (size 3 to 8) (size 9 to 14) (size 15 to 20)
#    0.000    1.667    5.000    0.500    0.000    3.333 
#    3.000    3.333    0.000    2.000    0.000    0.000 
#    0.000    0.000    0.000    0.000    0.000    0.000 
#
# Total GULP energy -267891.598535 kJ/mol
# GULP energy per Si atom -5581.074969 kJ/mol
# Density = 1.851057 g / cm^3
# Si number density = 18.552797 Si / 1000 Ang^3
#
#
#
# Elastic Constant Matrix: (Units=GPa)
#
#
# Indices 1 2 3 4 5 6 
#
# 1 135.3975 75.8500 21.0797 0.0000 0.0000 0.0000
# 2 75.8500 165.1461 24.3960 0.0000 0.0000 0.0000
# 3 21.0797 24.3960 11.4091 0.0000 0.0000 0.0000
# 4 0.0000 0.0000 0.0000 6.6252 0.0000 0.0000
# 5 0.0000 0.0000 0.0000 0.0000 20.5220 0.0000
# 6 0.0000 0.0000 0.0000 0.0000 0.0000 30.9627
#
#
#
# Elastic Compliance Matrix: (Units=1/GPa)
#
#
# Indices 1 2 3 4 5 6 
#
# 1 0.011355 -0.003093 -0.014366 0.000000 0.000000 0.000000
# 2 -0.003093 0.009694 -0.015013 0.000000 0.000000 0.000000
# 3 -0.014366 -0.015013 0.146295 0.000000 0.000000 0.000000
# 4 0.000000 0.000000 0.000000 0.150938 0.000000 0.000000
# 5 0.000000 0.000000 0.000000 0.000000 0.048728 0.000000
# 6 0.000000 0.000000 0.000000 0.000000 0.000000 0.032297
#
#
# Mechanical properties :
#
#
# Convention : Reuss Voigt Hill
#
# Bulk Modulus (GPa) = 9.76567 61.62269 35.69418
# Shear Modulus (GPa) = 10.03242 24.33044 17.18143
#
# Velocity S-wave (km/s) = 2.32793 3.62528 3.04646
# Velocity P-wave (km/s) = 3.53565 7.12814 5.62633
#
# Compressibility (1/GPa) = 0.10239948
#
# Stress axis : x y z
#
# Youngs Moduli (GPa) = 88.06693 103.16049 6.83550
#
# Poissons Ratio (x) = 0.31908 0.09820
# Poissons Ratio (y) = 0.27240 0.10262
# Poissons Ratio (z) = 1.26517 1.54875
#
# Static dielectric constant tensor:
#      x y z
#    x 1.643840 0.000000 0.000000 
#    y 0.000000 1.628530 0.000000 
#    z 0.000000 0.000000 1.643740 
# 
# From -- ./inp_files/52952.got.cif
#   From: 2010.05.17/outbox.cif.g08.bks.cpg/sg66_27_cif.got.tgz:52952.got - 2010.06.03 17:51:23.
