data_PCOD9496561
_publ_section_title
;
Structure prediction by ZEFSAII (Michael W. Deem and Ramdas Pophale) SiO2 
 PCOD9496561
Probable space group: C C C M
;
_chemical_formula_sum "Si O2"
_cell_formula_units_Z 72
_cell_length_a 14.077044
_cell_length_b 15.248151
_cell_length_c 15.844993
_cell_angle_alpha 90.000000
_cell_angle_beta 90.000000
_cell_angle_gamma 90.000000
_cell_volume 3401.110200
_symmetry_space_group_name_H-M "C C C M"
_symmetry_group_IT_number 66
_symmetry_cell_setting 'orthorhombic'
loop_
_space_group_symop_operation_xyz
x,y,z
-x,-y,z
x,-y,1/2-z
-x,y,1/2-z
-x,-y,-z
x,y,-z
-x,y,1/2+z
x,-y,1/2+z
1/2+x,1/2+y,z
1/2-x,1/2-y,z
1/2+x,1/2-y,1/2-z
1/2-x,1/2+y,1/2-z
1/2-x,1/2-y,-z
1/2+x,1/2+y,-z
1/2-x,1/2+y,1/2+z
1/2+x,1/2-y,1/2+z
loop_
_atom_site_type_symbol
_atom_site_label
_atom_site_fract_x
_atom_site_fract_y
_atom_site_fract_z
Si Si1 0.770411 0.500000 0.250000
Si Si2 0.388390 0.020681 0.405308
Si Si3 0.831477 0.825595 0.726483
Si Si4 0.641136 0.717306 0.089713
Si Si5 0.967438 0.306003 0.844979
O O1 0.835258 0.471219 0.329414
O O2 0.710520 0.579286 0.288876
O O3 0.351539 0.004591 0.500000
O O4 0.394062 0.124061 0.382488
O O5 0.500000 0.000000 0.403425
O O6 0.750000 0.750000 0.726581
O O7 0.869407 0.832564 0.822511
O O8 0.912678 0.786128 0.667151
O O9 0.750000 0.750000 0.088598
O O10 0.561740 0.793390 0.099497
O O11 0.624395 0.671746 0.000000
O O12 0.000000 0.332841 0.750000
#
# Coordination Sequence:
#
# PCOD9496561 Si02
#       5
#     8  16  16  16  16
#     4  12  23  42  63  90 132 170 216 273 313 394
#     4  11  24  37  60  96 131 166 210 272 342 391
#     4  10  21  38  62  89 123 172 215 256 325 385
#     4   9  19  34  59  90 120 159 210 264 314 378
#     4  10  19  38  60  89 128 169 210 262 325 391
#
# _framework density 21.169559
#
# number of rings (size 3 to 8) (size 9 to 14) (size 15 to 20)
#    0.000    1.778    2.222    2.333    6.222    0.889 
#    0.000    8.333    0.000    1.333    0.000    0.000 
#    0.000    0.000    0.000    0.000    0.000    0.000 
#
# Total GULP energy -200722.887143 kJ/mol
# GULP energy per Si atom -5575.635754 kJ/mol
# Density = 2.112138 g / cm^3
# Si number density = 21.169559 Si / 1000 Ang^3
#
#
#
# Elastic Constant Matrix: (Units=GPa)
#
#
# Indices 1 2 3 4 5 6 
#
# 1 79.8557 27.3697 22.4403 0.0000 0.0000 0.0000
# 2 27.3697 71.0195 0.2521 0.0000 0.0000 0.0000
# 3 22.4403 0.2521 92.9981 0.0000 0.0000 0.0000
# 4 0.0000 0.0000 0.0000 -13.1379 0.0000 0.0000
# 5 0.0000 0.0000 0.0000 0.0000 -7.9472 0.0000
# 6 0.0000 0.0000 0.0000 0.0000 0.0000 33.5092
#
#
#
# Elastic Compliance Matrix: (Units=1/GPa)
#
#
# Indices 1 2 3 4 5 6 
#
# 1 0.015640 -0.006014 -0.003758 0.000000 0.000000 0.000000
# 2 -0.006014 0.016393 0.001407 0.000000 0.000000 0.000000
# 3 -0.003758 0.001407 0.011656 0.000000 0.000000 0.000000
# 4 0.000000 0.000000 0.000000 -0.076116 0.000000 0.000000
# 5 0.000000 0.000000 0.000000 0.000000 -0.125830 0.000000
# 6 0.000000 0.000000 0.000000 0.000000 0.000000 0.029843
#
#
# Mechanical properties :
#
#
# Convention : Reuss Voigt Hill
#
# Bulk Modulus (GPa) = 37.09295 38.22193 37.65744
# Shear Modulus (GPa) = -48.68613 15.40557 -16.64028
#
# Velocity S-wave (km/s) = -4.80084 2.70056 -2.80670
# Velocity P-wave (km/s) = 3.62918 5.27431 2.70624
#
# Compressibility (1/GPa) = 0.02695930
#
# Stress axis : x y z
#
# Youngs Moduli (GPa) = 63.93984 61.00050 85.79433
#
# Poissons Ratio (x) = 0.36685 0.32238
# Poissons Ratio (y) = 0.38453 -0.12069
# Poissons Ratio (z) = 0.24026 -0.08581
#
# Static dielectric constant tensor:
#      x y z
#    x 1.836720 0.000000 0.000000 
#    y 0.000000 1.883100 0.000000 
#    z 0.000000 0.000000 1.782640 
# 
# From -- ./inp_files/40048.got.cif
#   From: 2010.05.17/outbox.cif.g08.bks.cpg/sg66_21_cif.got.tgz:40048.got - 2010.06.03 17:51:23.
