data_PCOD9496382
_publ_section_title
;
Structure prediction by ZEFSAII (Michael W. Deem and Ramdas Pophale) SiO2 
 PCOD9496382
Probable space group: C C C M
;
_chemical_formula_sum "Si O2"
_cell_formula_units_Z 104
_cell_length_a 12.590681
_cell_length_b 14.843265
_cell_length_c 27.672394
_cell_angle_alpha 90.000000
_cell_angle_beta 90.000000
_cell_angle_gamma 90.000000
_cell_volume 5171.605567
_symmetry_space_group_name_H-M "C C C M"
_symmetry_group_IT_number 66
_symmetry_cell_setting 'orthorhombic'
loop_
_space_group_symop_operation_xyz
x,y,z
-x,-y,z
x,-y,1/2-z
-x,y,1/2-z
-x,-y,-z
x,y,-z
-x,y,1/2+z
x,-y,1/2+z
1/2+x,1/2+y,z
1/2-x,1/2-y,z
1/2+x,1/2-y,1/2-z
1/2-x,1/2+y,1/2-z
1/2-x,1/2-y,-z
1/2+x,1/2+y,-z
1/2-x,1/2+y,1/2+z
1/2+x,1/2-y,1/2+z
loop_
_atom_site_type_symbol
_atom_site_label
_atom_site_fract_x
_atom_site_fract_y
_atom_site_fract_z
Si Si1 0.244341 0.591128 0.655015
Si Si2 0.218123 0.379778 0.674288
Si Si3 0.509746 0.108437 0.649074
Si Si4 0.519094 0.223359 0.946203
Si Si5 0.379851 0.390128 0.756752
Si Si6 0.750000 0.250000 0.912672
Si Si7 0.819526 0.841454 0.945941
O O1 0.231420 0.486355 0.667546
O O2 0.128222 0.632348 0.665845
O O3 0.333786 0.629459 0.690332
O O4 0.276961 0.602669 0.599312
O O5 0.296719 0.353427 0.717307
O O6 0.251172 0.333518 0.624360
O O7 0.092194 0.360255 0.680116
O O8 0.499583 0.151431 0.595949
O O9 0.500000 0.000000 0.646055
O O10 0.642130 0.249434 0.942560
O O11 0.440221 0.307667 0.938238
O O12 0.494184 0.188482 0.000000
O O13 0.381686 0.500000 0.750000
O O14 0.500000 0.358213 0.750000
O O15 0.750000 0.750000 0.945867
O O16 0.810158 0.881854 0.000000
#
# Coordination Sequence:
#
# PCOD9496382 Si02
#       7
#    16  16  16  16  16   8  16
#     4  10  19  35  59  82 110 143 183 225 277 330
#     4   9  20  37  55  80 110 145 181 229 269 326
#     4   9  18  33  54  80 107 141 181 225 278 325
#     4  10  20  35  54  77 108 146 184 224 276 328
#     4   9  19  35  56  82 107 142 181 219 274 328
#     4  10  21  38  56  74 110 148 183 220 278 324
#     4  10  20  35  56  83 114 143 179 229 280 323
#
# _framework density 20.10981
#
# number of rings (size 3 to 8) (size 9 to 14) (size 15 to 20)
#    0.000    2.462    1.538    0.231    2.154    0.923 
#    1.385   10.000    0.000    1.846    0.000    0.000 
#    0.000    0.000    0.000    0.000    0.000    0.000 
#
# Total GULP energy -289991.276071 kJ/mol
# GULP energy per Si atom -5576.755309 kJ/mol
# Density = 2.006404 g / cm^3
# Si number density = 20.109810 Si / 1000 Ang^3
#
#
#
# Elastic Constant Matrix: (Units=GPa)
#
#
# Indices 1 2 3 4 5 6 
#
# 1 168.7479 18.5288 69.1664 0.0000 0.0000 0.0000
# 2 18.5288 13.3732 2.5662 0.0000 0.0000 0.0000
# 3 69.1664 2.5662 100.5256 0.0000 0.0000 0.0000
# 4 0.0000 0.0000 0.0000 17.8297 0.0000 0.0000
# 5 0.0000 0.0000 0.0000 0.0000 23.6684 0.0000
# 6 0.0000 0.0000 0.0000 0.0000 0.0000 17.2766
#
#
#
# Elastic Compliance Matrix: (Units=1/GPa)
#
#
# Indices 1 2 3 4 5 6 
#
# 1 0.009996 -0.012591 -0.006556 0.000000 0.000000 0.000000
# 2 -0.012591 0.091005 0.006340 0.000000 0.000000 0.000000
# 3 -0.006556 0.006340 0.014297 0.000000 0.000000 0.000000
# 4 0.000000 0.000000 0.000000 0.056086 0.000000 0.000000
# 5 0.000000 0.000000 0.000000 0.000000 0.042250 0.000000
# 6 0.000000 0.000000 0.000000 0.000000 0.000000 0.057882
#
#
# Mechanical properties :
#
#
# Convention : Reuss Voigt Hill
#
# Bulk Modulus (GPa) = 11.15032 51.46328 31.30680
# Shear Modulus (GPa) = 15.28935 24.58063 19.93499
#
# Velocity S-wave (km/s) = 2.76033 3.49996 3.15192
# Velocity P-wave (km/s) = 3.96434 6.47917 5.37102
#
# Compressibility (1/GPa) = 0.08968352
#
# Stress axis : x y z
#
# Youngs Moduli (GPa) = 100.04233 10.98837 69.94569
#
# Poissons Ratio (x) = 0.13836 0.45857
# Poissons Ratio (y) = 1.25966 -0.44347
# Poissons Ratio (z) = 0.65589 -0.06967
#
# Static dielectric constant tensor:
#      x y z
#    x 1.737150 0.000000 0.000000 
#    y 0.000000 1.729080 0.000000 
#    z 0.000000 0.000000 1.693420 
# 
# From -- ./inp_files/63793.got.cif
#   From: 2010.05.17/outbox.cif.g08.bks.cpg/sg66_32_cif.got.tgz:63793.got - 2010.06.03 17:51:23.
