data_PCOD9496613
_publ_section_title
;
Structure prediction by ZEFSAII (Michael W. Deem and Ramdas Pophale) SiO2 
 PCOD9496613
Probable space group: C C C M
;
_chemical_formula_sum "Si O2"
_cell_formula_units_Z 56
_cell_length_a 10.771083
_cell_length_b 9.307899
_cell_length_c 25.430789
_cell_angle_alpha 90.000000
_cell_angle_beta 90.000000
_cell_angle_gamma 90.000000
_cell_volume 2549.593065
_symmetry_space_group_name_H-M "C C C M"
_symmetry_group_IT_number 66
_symmetry_cell_setting 'orthorhombic'
loop_
_space_group_symop_operation_xyz
x,y,z
-x,-y,z
x,-y,1/2-z
-x,y,1/2-z
-x,-y,-z
x,y,-z
-x,y,1/2+z
x,-y,1/2+z
1/2+x,1/2+y,z
1/2-x,1/2-y,z
1/2+x,1/2-y,1/2-z
1/2-x,1/2+y,1/2-z
1/2-x,1/2-y,-z
1/2+x,1/2+y,-z
1/2-x,1/2+y,1/2+z
1/2+x,1/2-y,1/2+z
loop_
_atom_site_type_symbol
_atom_site_label
_atom_site_fract_x
_atom_site_fract_y
_atom_site_fract_z
Si Si1 0.000000 0.000000 0.750000
Si Si2 0.206390 0.515989 0.808581
Si Si3 0.500000 0.500000 0.000000
Si Si4 0.016814 0.732673 0.673822
Si Si5 0.354497 0.638237 0.907403
O O1 0.962018 0.124317 0.706626
O O2 0.262849 0.500000 0.750000
O O3 0.100495 0.640506 0.803554
O O4 0.295230 0.563295 0.855695
O O5 0.133721 0.372081 0.823797
O O6 0.397846 0.537610 0.953636
O O7 0.972755 0.774580 0.615469
O O8 0.250000 0.750000 0.925728
#
# Coordination Sequence:
#
# PCOD9496613 Si02
#       5
#     4  16   4  16  16
#     4  12  18  30  56 102 144 178 204 252 314 386
#     4  10  19  42  65 100 142 183 216 256 333 423
#     4  12  24  52  64  94 132 164 234 312 330 368
#     4  10  20  37  63 100 141 181 214 265 326 402
#     4  10  24  43  70  95 126 180 228 274 337 396
#
# _framework density 21.964290999999999
#
# number of rings (size 3 to 8) (size 9 to 14) (size 15 to 20)
#    0.000    1.714    2.857    2.143    2.000    0.000 
#    0.000    8.571    0.000    6.857    0.000    0.000 
#    0.000    0.000    0.000    0.000    0.000    0.000 
#
# Total GULP energy -155920.786452 kJ/mol
# GULP energy per Si atom -5568.599516 kJ/mol
# Density = 2.191430 g / cm^3
# Si number density = 21.964291 Si / 1000 Ang^3
#
#
#
# Elastic Constant Matrix: (Units=GPa)
#
#
# Indices 1 2 3 4 5 6 
#
# 1 95.3853 63.5517 72.2566 0.0000 0.0000 0.0000
# 2 63.5517 141.8658 44.6966 0.0000 0.0000 0.0000
# 3 72.2566 44.6966 132.8127 0.0000 0.0000 0.0000
# 4 0.0000 0.0000 0.0000 -6.0830 0.0000 0.0000
# 5 0.0000 0.0000 0.0000 0.0000 -33.9223 0.0000
# 6 0.0000 0.0000 0.0000 0.0000 0.0000 37.9593
#
#
#
# Elastic Compliance Matrix: (Units=1/GPa)
#
#
# Indices 1 2 3 4 5 6 
#
# 1 0.022760 -0.007041 -0.010013 0.000000 0.000000 0.000000
# 2 -0.007041 0.010063 0.000444 0.000000 0.000000 0.000000
# 3 -0.010013 0.000444 0.012828 0.000000 0.000000 0.000000
# 4 0.000000 0.000000 0.000000 -0.164392 0.000000 0.000000
# 5 0.000000 0.000000 0.000000 0.000000 -0.029479 0.000000
# 6 0.000000 0.000000 0.000000 0.000000 0.000000 0.026344
#
#
# Mechanical properties :
#
#
# Convention : Reuss Voigt Hill
#
# Bulk Modulus (GPa) = 80.44598 81.23041 80.83820
# Shear Modulus (GPa) = -59.16321 12.22805 -23.46758
#
# Velocity S-wave (km/s) = -5.19563 2.36206 -3.27225
# Velocity P-wave (km/s) = 0.84413 6.67101 4.75473
#
# Compressibility (1/GPa) = 0.01243070
#
# Stress axis : x y z
#
# Youngs Moduli (GPa) = 43.93638 99.37158 77.95732
#
# Poissons Ratio (x) = 0.69969 0.78059
# Poissons Ratio (y) = 0.30936 -0.03462
# Poissons Ratio (z) = 0.43994 -0.04413
#
# Static dielectric constant tensor:
#      x y z
#    x 1.170760 0.000000 0.000000 
#    y 0.000000 1.821600 0.000000 
#    z 0.000000 0.000000 1.749650 
# 
# From -- ./inp_files/63240.got.cif
#   From: 2010.05.17/outbox.cif.g08.bks.cpg/sg66_32_cif.got.tgz:63240.got - 2010.06.03 17:51:23.
