data_PCOD9496434
_publ_section_title
;
Structure prediction by ZEFSAII (Michael W. Deem and Ramdas Pophale) SiO2 
 PCOD9496434
Probable space group: C C C M
;
_chemical_formula_sum "Si O2"
_cell_formula_units_Z 64
_cell_length_a 17.915848
_cell_length_b 8.781054
_cell_length_c 19.610302
_cell_angle_alpha 90.000000
_cell_angle_beta 90.000000
_cell_angle_gamma 90.000000
_cell_volume 3085.093274
_symmetry_space_group_name_H-M "C C C M"
_symmetry_group_IT_number 66
_symmetry_cell_setting 'orthorhombic'
loop_
_space_group_symop_operation_xyz
x,y,z
-x,-y,z
x,-y,1/2-z
-x,y,1/2-z
-x,-y,-z
x,y,-z
-x,y,1/2+z
x,-y,1/2+z
1/2+x,1/2+y,z
1/2-x,1/2-y,z
1/2+x,1/2-y,1/2-z
1/2-x,1/2+y,1/2-z
1/2-x,1/2-y,-z
1/2+x,1/2+y,-z
1/2-x,1/2+y,1/2+z
1/2+x,1/2-y,1/2+z
loop_
_atom_site_type_symbol
_atom_site_label
_atom_site_fract_x
_atom_site_fract_y
_atom_site_fract_z
Si Si1 0.806307 0.115214 0.193450
Si Si2 0.415321 0.829411 0.728499
Si Si3 0.420399 0.908418 0.421952
Si Si4 0.250779 0.928432 0.578630
O O1 0.750000 0.250000 0.179936
O O2 0.875315 0.197412 0.229313
O O3 0.775757 0.000000 0.250000
O O4 0.807231 0.019708 0.124509
O O5 0.500000 0.827608 0.750000
O O6 0.415063 0.808948 0.646691
O O7 0.387876 0.000000 0.750000
O O8 0.420865 0.844694 0.500000
O O9 0.337504 0.987616 0.416987
O O10 0.500000 0.000000 0.415857
O O11 0.229167 0.935365 0.500000
O O12 0.250000 0.750000 0.599328
#
# Coordination Sequence:
#
# PCOD9496434 Si02
#       4
#    16  16  16  16
#     4  12  24  38  62  92 129 174 223 282 341 405
#     4  11  22  40  62  91 130 177 223 287 347 414
#     4  10  19  35  64  96 126 171 227 276 337 416
#     4  10  22  42  67  98 135 176 227 287 351 417
#
# _framework density 20.744914999999999
#
# number of rings (size 3 to 8) (size 9 to 14) (size 15 to 20)
#    0.000    1.250    2.500    6.000    0.000    1.000 
#    0.000    2.500    0.000    0.000    0.000    8.750 
#    0.000    0.000    0.000    0.000    0.000    0.000 
#
# Total GULP energy -178179.034237 kJ/mol
# GULP energy per Si atom -5568.094820 kJ/mol
# Density = 2.069770 g / cm^3
# Si number density = 20.744915 Si / 1000 Ang^3
#
#
#
# Elastic Constant Matrix: (Units=GPa)
#
#
# Indices 1 2 3 4 5 6 
#
# 1 112.5874 39.7743 60.6099 0.0000 0.0000 0.0000
# 2 39.7743 105.5605 71.6771 0.0000 0.0000 0.0000
# 3 60.6099 71.6771 132.8024 0.0000 0.0000 0.0000
# 4 0.0000 0.0000 0.0000 47.9295 0.0000 0.0000
# 5 0.0000 0.0000 0.0000 0.0000 35.2724 0.0000
# 6 0.0000 0.0000 0.0000 0.0000 0.0000 9.8677
#
#
#
# Elastic Compliance Matrix: (Units=1/GPa)
#
#
# Indices 1 2 3 4 5 6 
#
# 1 0.011879 -0.001254 -0.004745 0.000000 0.000000 0.000000
# 2 -0.001254 0.015086 -0.007570 0.000000 0.000000 0.000000
# 3 -0.004745 -0.007570 0.013781 0.000000 0.000000 0.000000
# 4 0.000000 0.000000 0.000000 0.020864 0.000000 0.000000
# 5 0.000000 0.000000 0.000000 0.000000 0.028351 0.000000
# 6 0.000000 0.000000 0.000000 0.000000 0.000000 0.101341
#
#
# Mechanical properties :
#
#
# Convention : Reuss Voigt Hill
#
# Bulk Modulus (GPa) = 73.48249 77.23032 75.35641
# Shear Modulus (GPa) = 22.42399 30.53985 26.48192
#
# Velocity S-wave (km/s) = 3.29133 3.84104 3.57676
# Velocity P-wave (km/s) = 7.06701 7.54856 7.31175
#
# Compressibility (1/GPa) = 0.01360868
#
# Stress axis : x y z
#
# Youngs Moduli (GPa) = 84.17992 66.28729 72.56376
#
# Poissons Ratio (x) = 0.08315 0.34429
# Poissons Ratio (y) = 0.10559 0.54929
# Poissons Ratio (z) = 0.39940 0.50178
#
# Static dielectric constant tensor:
#      x y z
#    x 1.778580 0.000000 0.000000 
#    y 0.000000 1.824160 0.000000 
#    z 0.000000 0.000000 1.785710 
# 
# From -- ./inp_files/42384.got.cif
#   From: 2010.05.17/outbox.cif.g08.bks.cpg/sg66_22_cif.got.tgz:42384.got - 2010.06.03 17:51:23.
