data_PCOD9496213
_publ_section_title
;
Structure prediction by ZEFSAII (Michael W. Deem and Ramdas Pophale) SiO2 
 PCOD9496213
Probable space group: C C C M
;
_chemical_formula_sum "Si O2"
_cell_formula_units_Z 116
_cell_length_a 27.666469
_cell_length_b 28.430073
_cell_length_c 7.482814
_cell_angle_alpha 90.000000
_cell_angle_beta 90.000000
_cell_angle_gamma 90.000000
_cell_volume 5885.680184
_symmetry_space_group_name_H-M "C C C M"
_symmetry_group_IT_number 66
_symmetry_cell_setting 'orthorhombic'
loop_
_space_group_symop_operation_xyz
x,y,z
-x,-y,z
x,-y,1/2-z
-x,y,1/2-z
-x,-y,-z
x,y,-z
-x,y,1/2+z
x,-y,1/2+z
1/2+x,1/2+y,z
1/2-x,1/2-y,z
1/2+x,1/2-y,1/2-z
1/2-x,1/2+y,1/2-z
1/2-x,1/2-y,-z
1/2+x,1/2+y,-z
1/2-x,1/2+y,1/2+z
1/2+x,1/2-y,1/2+z
loop_
_atom_site_type_symbol
_atom_site_label
_atom_site_fract_x
_atom_site_fract_y
_atom_site_fract_z
Si Si1 0.573034 0.922178 0.721379
Si Si2 0.343364 0.688264 0.784276
Si Si3 0.500000 0.000000 0.250000
Si Si4 0.182611 0.445279 0.286611
Si Si5 0.742638 0.630182 0.706076
Si Si6 0.570170 0.181399 0.795214
Si Si7 0.052421 0.784275 0.213964
Si Si8 0.178455 0.704609 0.289177
O O1 0.569150 0.926297 0.500000
O O2 0.539448 0.961230 0.809773
O O3 0.628764 0.930988 0.773036
O O4 0.558154 0.869686 0.778698
O O5 0.308180 0.647502 0.714571
O O6 0.399081 0.689908 0.721366
O O7 0.321304 0.739520 0.740607
O O8 0.343795 0.684778 0.000000
O O9 0.190967 0.500000 0.250000
O O10 0.181706 0.438168 0.500000
O O11 0.224842 0.411528 0.213857
O O12 0.733100 0.617129 0.500000
O O13 0.777044 0.676079 0.710173
O O14 0.553097 0.230589 0.712002
O O15 0.628421 0.185688 0.792382
O O16 0.553369 0.180759 0.000000
O O17 0.000000 0.805586 0.250000
O O18 0.057846 0.780473 0.000000
O O19 0.177453 0.695641 0.500000
#
# Coordination Sequence:
#
# PCOD9496213 Si02
#       8
#    16  16   4  16  16  16  16  16
#     4  10  20  35  50  64  87 120 163 208 252 296
#     4   9  19  34  51  70  95 131 169 194 224 291
#     4  12  22  32  48  70  92 116 158 220 276 292
#     4  10  20  36  55  73  93 122 160 204 250 296
#     4  10  19  34  54  70  92 131 167 194 236 295
#     4   9  18  35  51  63  88 128 170 202 233 294
#     4   9  18  31  49  70  95 124 158 195 233 279
#     4  11  20  29  46  75 103 124 153 202 254 292
#
# _framework density 19.708853000000001
#
# number of rings (size 3 to 8) (size 9 to 14) (size 15 to 20)
#    0.000    2.207    2.069    2.690    0.966    4.966 
#    0.000    1.379    0.000    0.000    0.000    0.000 
#    0.000    0.552    0.000    6.897    0.000    0.000 
#
# Total GULP energy -323490.275748 kJ/mol
# GULP energy per Si atom -5577.418547 kJ/mol
# Density = 1.966399 g / cm^3
# Si number density = 19.708853 Si / 1000 Ang^3
#
#
#
# Elastic Constant Matrix: (Units=GPa)
#
#
# Indices 1 2 3 4 5 6 
#
# 1 147.8324 73.6028 1.9064 0.0000 0.0000 0.0000
# 2 73.6028 82.2910 5.7236 0.0000 0.0000 0.0000
# 3 1.9064 5.7236 70.9854 0.0000 0.0000 0.0000
# 4 0.0000 0.0000 0.0000 3.2458 0.0000 0.0000
# 5 0.0000 0.0000 0.0000 0.0000 4.7414 0.0000
# 6 0.0000 0.0000 0.0000 0.0000 0.0000 -171.9904
#
#
#
# Elastic Compliance Matrix: (Units=1/GPa)
#
#
# Indices 1 2 3 4 5 6 
#
# 1 0.012217 -0.010966 0.000556 0.000000 0.000000 0.000000
# 2 -0.010966 0.022063 -0.001484 0.000000 0.000000 0.000000
# 3 0.000556 -0.001484 0.014192 0.000000 0.000000 0.000000
# 4 0.000000 0.000000 0.000000 0.308095 0.000000 0.000000
# 5 0.000000 0.000000 0.000000 0.000000 0.210906 0.000000
# 6 0.000000 0.000000 0.000000 0.000000 0.000000 -0.005814
#
#
# Mechanical properties :
#
#
# Convention : Reuss Voigt Hill
#
# Bulk Modulus (GPa) = 40.51203 51.50826 46.01015
# Shear Modulus (GPa) = 8.42211 -18.14224 -4.86006
#
# Velocity S-wave (km/s) = 2.06943 -3.03729 -1.57203
# Velocity P-wave (km/s) = 5.12932 3.72709 4.48336
#
# Compressibility (1/GPa) = 0.02468402
#
# Stress axis : x y z
#
# Youngs Moduli (GPa) = 81.85423 45.32436 70.46141
#
# Poissons Ratio (x) = 0.49701 -0.03918
# Poissons Ratio (y) = 0.89759 0.10460
# Poissons Ratio (z) = -0.04552 0.06728
#
# Static dielectric constant tensor:
#      x y z
#    x 1.733700 0.000000 0.000000 
#    y 0.000000 1.677340 0.000000 
#    z 0.000000 0.000000 1.767440 
# 
# From -- ./inp_files/9646.got.cif
#   From: 2010.05.17/outbox.cif.g08.bks.cpg/sg66_5_cif.got.tgz:9646.got - 2010.06.03 17:51:23.
