data_PCOD9496297
_publ_section_title
;
Structure prediction by ZEFSAII (Michael W. Deem and Ramdas Pophale) SiO2 
 PCOD9496297
Probable space group: C C C M
;
_chemical_formula_sum "Si O2"
_cell_formula_units_Z 112
_cell_length_a 22.317346
_cell_length_b 15.799022
_cell_length_c 15.157109
_cell_angle_alpha 90.000000
_cell_angle_beta 90.000000
_cell_angle_gamma 90.000000
_cell_volume 5344.279021
_symmetry_space_group_name_H-M "C C C M"
_symmetry_group_IT_number 66
_symmetry_cell_setting 'orthorhombic'
loop_
_space_group_symop_operation_xyz
x,y,z
-x,-y,z
x,-y,1/2-z
-x,y,1/2-z
-x,-y,-z
x,y,-z
-x,y,1/2+z
x,-y,1/2+z
1/2+x,1/2+y,z
1/2-x,1/2-y,z
1/2+x,1/2-y,1/2-z
1/2-x,1/2+y,1/2-z
1/2-x,1/2-y,-z
1/2+x,1/2+y,-z
1/2-x,1/2+y,1/2+z
1/2+x,1/2-y,1/2+z
loop_
_atom_site_type_symbol
_atom_site_label
_atom_site_fract_x
_atom_site_fract_y
_atom_site_fract_z
Si Si1 0.916493 0.872060 0.660945
Si Si2 0.871300 0.597172 0.225699
Si Si3 0.891068 0.312543 0.098187
Si Si4 0.549437 0.646638 0.865131
Si Si5 0.737365 0.151766 0.606296
Si Si6 0.343709 0.527168 0.401133
Si Si7 0.968453 0.342310 0.402912
O O1 0.894069 0.788410 0.611683
O O2 0.931557 0.850191 0.762168
O O3 0.869211 0.947584 0.652868
O O4 0.983040 0.892482 0.623851
O O5 0.866397 0.500000 0.250000
O O6 0.860568 0.648556 0.315957
O O7 0.823055 0.624668 0.153498
O O8 0.934860 0.615548 0.178688
O O9 0.959765 0.345905 0.103086
O O10 0.867686 0.332782 0.000000
O O11 0.600195 0.590416 0.907399
O O12 0.547145 0.742473 0.898532
O O13 0.732858 0.147836 0.500000
O O14 0.750000 0.250000 0.629141
O O15 0.789389 0.085256 0.633375
O O16 0.327961 0.497175 0.500000
O O17 0.950326 0.375622 0.500000
#
# Coordination Sequence:
#
# PCOD9496297 Si02
#       7
#    16  16  16  16  16  16  16
#     4  10  20  35  58  91 136 174 208 251 316 396
#     4  12  25  42  65  94 126 166 215 277 328 384
#     4  10  22  40  63  95 133 172 209 254 326 404
#     4  10  19  34  58  92 132 174 211 254 311 389
#     4  10  24  47  70  92 120 164 226 282 329 382
#     4  11  22  35  58  92 126 164 215 271 321 379
#     4  10  20  38  65  94 128 171 216 263 318 383
#
# _framework density 20.956990000000001
#
# number of rings (size 3 to 8) (size 9 to 14) (size 15 to 20)
#    0.000    1.571    1.429    3.429    0.000    8.000 
#    0.000    1.429    0.000    0.429    0.000    0.000 
#    0.000    0.000    0.000    0.000    0.000    0.000 
#
# Total GULP energy -312883.157835 kJ/mol
# GULP energy per Si atom -5587.199247 kJ/mol
# Density = 2.090929 g / cm^3
# Si number density = 20.956990 Si / 1000 Ang^3
#
#
#
# Elastic Constant Matrix: (Units=GPa)
#
#
# Indices 1 2 3 4 5 6 
#
# 1 47.0120 20.9127 7.2748 0.0000 0.0000 0.0000
# 2 20.9127 54.5016 8.1317 0.0000 0.0000 0.0000
# 3 7.2748 8.1317 65.2115 0.0000 0.0000 0.0000
# 4 0.0000 0.0000 0.0000 14.7339 0.0000 0.0000
# 5 0.0000 0.0000 0.0000 0.0000 17.8370 0.0000
# 6 0.0000 0.0000 0.0000 0.0000 0.0000 32.5561
#
#
#
# Elastic Compliance Matrix: (Units=1/GPa)
#
#
# Indices 1 2 3 4 5 6 
#
# 1 0.025828 -0.009660 -0.001677 0.000000 0.000000 0.000000
# 2 -0.009660 0.022309 -0.001704 0.000000 0.000000 0.000000
# 3 -0.001677 -0.001704 0.015734 0.000000 0.000000 0.000000
# 4 0.000000 0.000000 0.000000 0.067871 0.000000 0.000000
# 5 0.000000 0.000000 0.000000 0.000000 0.056063 0.000000
# 6 0.000000 0.000000 0.000000 0.000000 0.000000 0.030716
#
#
# Mechanical properties :
#
#
# Convention : Reuss Voigt Hill
#
# Bulk Modulus (GPa) = 26.46272 26.59594 26.52933
# Shear Modulus (GPa) = 19.44014 21.71912 20.57963
#
# Velocity S-wave (km/s) = 3.04899 3.22276 3.13708
# Velocity P-wave (km/s) = 5.00497 5.15427 5.08017
#
# Compressibility (1/GPa) = 0.03778900
#
# Stress axis : x y z
#
# Youngs Moduli (GPa) = 38.71793 44.82491 63.55548
#
# Poissons Ratio (x) = 0.43302 0.10656
# Poissons Ratio (y) = 0.37402 0.10831
# Poissons Ratio (z) = 0.06492 0.07639
#
# Static dielectric constant tensor:
#      x y z
#    x 1.738500 0.000000 0.000000 
#    y 0.000000 1.727100 0.000000 
#    z 0.000000 0.000000 1.539900 
# 
# From -- ./inp_files/32492.got.cif
#   From: 2010.05.17/outbox.cif.g08.bks.cpg/sg66_17_cif.got.tgz:32492.got - 2010.06.03 17:51:23.
