data_PCOD9496164
_publ_section_title
;
Structure prediction by ZEFSAII (Michael W. Deem and Ramdas Pophale) SiO2 
 PCOD9496164
Probable space group: C C C M
;
_chemical_formula_sum "Si O2"
_cell_formula_units_Z 120
_cell_length_a 15.399925
_cell_length_b 28.116643
_cell_length_c 13.988603
_cell_angle_alpha 90.000000
_cell_angle_beta 90.000000
_cell_angle_gamma 90.000000
_cell_volume 6056.983874
_symmetry_space_group_name_H-M "C C C M"
_symmetry_group_IT_number 66
_symmetry_cell_setting 'orthorhombic'
loop_
_space_group_symop_operation_xyz
x,y,z
-x,-y,z
x,-y,1/2-z
-x,y,1/2-z
-x,-y,-z
x,y,-z
-x,y,1/2+z
x,-y,1/2+z
1/2+x,1/2+y,z
1/2-x,1/2-y,z
1/2+x,1/2-y,1/2-z
1/2-x,1/2+y,1/2-z
1/2-x,1/2-y,-z
1/2+x,1/2+y,-z
1/2-x,1/2+y,1/2+z
1/2+x,1/2-y,1/2+z
loop_
_atom_site_type_symbol
_atom_site_label
_atom_site_fract_x
_atom_site_fract_y
_atom_site_fract_z
Si Si1 0.690434 0.407529 0.614161
Si Si2 0.526177 0.233222 0.608439
Si Si3 0.356570 0.388199 0.614073
Si Si4 0.467782 0.664219 0.383719
Si Si5 0.900685 0.003269 0.884911
Si Si6 0.186183 0.632716 0.767590
Si Si7 0.832013 0.283224 0.103873
Si Si8 0.000000 0.352959 0.250000
O O1 0.704791 0.407715 0.500000
O O2 0.606924 0.374327 0.634857
O O3 0.662389 0.460634 0.647161
O O4 0.772048 0.384981 0.669168
O O5 0.558757 0.226330 0.500000
O O6 0.560627 0.283007 0.650596
O O7 0.422860 0.243908 0.604512
O O8 0.528917 0.183685 0.665521
O O9 0.353693 0.381753 0.500000
O O10 0.438393 0.356118 0.648806
O O11 0.374022 0.443235 0.635497
O O12 0.262458 0.379287 0.657835
O O13 0.473106 0.668300 0.500000
O O14 0.902363 0.997738 0.000000
O O15 0.000000 0.000000 0.852845
O O16 0.173700 0.687553 0.798461
O O17 0.085600 0.616785 0.776418
O O18 0.750000 0.250000 0.100547
O O19 0.833829 0.310257 0.000000
#
# Coordination Sequence:
#
# PCOD9496164 Si02
#       8
#    16  16  16  16  16  16  16   8
#     4  10  21  36  54  81 118 154 180 206 257 334
#     4   9  18  32  52  74 101 141 179 220 273 320
#     4  10  19  33  58  88 115 139 170 217 274 333
#     4   9  17  32  53  82 118 145 169 208 261 328
#     4   9  16  33  58  84 120 153 170 203 262 330
#     4  11  23  36  54  77 101 142 192 237 275 317
#     4   9  17  32  53  78 107 135 175 233 287 328
#     4  10  24  42  54  69 100 139 192 246 282 304
#
# _framework density 19.811841000000001
#
# number of rings (size 3 to 8) (size 9 to 14) (size 15 to 20)
#    0.000    2.400    1.333    1.200    0.000    7.467 
#    0.000    0.667    0.000    4.400    0.000    2.800 
#    0.000    0.000    0.000    0.000    0.000    0.000 
#
# Total GULP energy -334119.304370 kJ/mol
# GULP energy per Si atom -5568.655073 kJ/mol
# Density = 1.976675 g / cm^3
# Si number density = 19.811841 Si / 1000 Ang^3
#
#
#
# Elastic Constant Matrix: (Units=GPa)
#
#
# Indices 1 2 3 4 5 6 
#
# 1 101.8023 24.4861 3.6033 0.0000 0.0000 0.0000
# 2 24.4861 49.8092 12.6455 0.0000 0.0000 0.0000
# 3 3.6033 12.6455 69.5957 0.0000 0.0000 0.0000
# 4 0.0000 0.0000 0.0000 51.8093 0.0000 0.0000
# 5 0.0000 0.0000 0.0000 0.0000********** 0.0000
# 6 0.0000 0.0000 0.0000 0.0000 0.0000 9.6366
#
#
#
# Elastic Compliance Matrix: (Units=1/GPa)
#
#
# Indices 1 2 3 4 5 6 
#
# 1 0.011153 -0.005594 0.000439 0.000000 0.000000 0.000000
# 2 -0.005594 0.023854 -0.004045 0.000000 0.000000 0.000000
# 3 0.000439 -0.004045 0.015081 0.000000 0.000000 0.000000
# 4 0.000000 0.000000 0.000000 0.019302 0.000000 0.000000
# 5 0.000000 0.000000 0.000000 0.000000 -0.000057 0.000000
# 6 0.000000 0.000000 0.000000 0.000000 0.000000 0.103771
#
#
# Mechanical properties :
#
#
# Convention : Reuss Voigt Hill
#
# Bulk Modulus (GPa) = 31.55780 33.63078 32.59429
# Shear Modulus (GPa) = 24.74450 -3496.21839 -1735.73694
#
# Velocity S-wave (km/s) = 3.53792 -42.05404 -29.63128
# Velocity P-wave (km/s) = 5.71424 48.38434 33.97346
#
# Compressibility (1/GPa) = 0.03168789
#
# Stress axis : x y z
#
# Youngs Moduli (GPa) = 89.66213 41.92252 66.30925
#
# Poissons Ratio (x) = 0.23452 -0.02911
# Poissons Ratio (y) = 0.50159 0.26819
# Poissons Ratio (z) = -0.03936 0.16956
#
# Static dielectric constant tensor:
#      x y z
#    x 1.819870 0.000000 0.000000 
#    y 0.000000 1.780690 0.000000 
#    z 0.000000 0.000000 1.806320 
# 
# From -- ./inp_files/29069.got.cif
#   From: 2010.05.17/outbox.cif.g08.bks.cpg/sg66_15_cif.got.tgz:29069.got - 2010.06.03 17:51:23.
