data_PCOD9496143
_publ_section_title
;
Structure prediction by ZEFSAII (Michael W. Deem and Ramdas Pophale) SiO2 
 PCOD9496143
Probable space group: C C C M
;
_chemical_formula_sum "Si O2"
_cell_formula_units_Z 112
_cell_length_a 23.822614
_cell_length_b 14.023345
_cell_length_c 15.447957
_cell_angle_alpha 90.000000
_cell_angle_beta 90.000000
_cell_angle_gamma 90.000000
_cell_volume 5160.741244
_symmetry_space_group_name_H-M "C C C M"
_symmetry_group_IT_number 66
_symmetry_cell_setting 'orthorhombic'
loop_
_space_group_symop_operation_xyz
x,y,z
-x,-y,z
x,-y,1/2-z
-x,y,1/2-z
-x,-y,-z
x,y,-z
-x,y,1/2+z
x,-y,1/2+z
1/2+x,1/2+y,z
1/2-x,1/2-y,z
1/2+x,1/2-y,1/2-z
1/2-x,1/2+y,1/2-z
1/2-x,1/2-y,-z
1/2+x,1/2+y,-z
1/2-x,1/2+y,1/2+z
1/2+x,1/2-y,1/2+z
loop_
_atom_site_type_symbol
_atom_site_label
_atom_site_fract_x
_atom_site_fract_y
_atom_site_fract_z
Si Si1 0.937245 0.640533 0.224270
Si Si2 0.153194 0.923774 0.399598
Si Si3 0.834410 0.334877 0.853987
Si Si4 0.062164 0.141116 0.774136
Si Si5 0.755207 0.605419 0.791514
Si Si6 0.632410 0.365539 0.095440
Si Si7 0.855154 0.544473 0.904300
O O1 0.893622 0.653159 0.302901
O O2 0.941458 0.749757 0.191216
O O3 0.907081 0.568314 0.158663
O O4 0.000000 0.611894 0.250000
O O5 0.151966 0.892677 0.500000
O O6 0.094438 0.915446 0.349047
O O7 0.197376 0.868774 0.338319
O O8 0.167959 0.036804 0.399840
O O9 0.784237 0.336485 0.784925
O O10 0.834892 0.234437 0.901837
O O11 0.835130 0.434565 0.904487
O O12 0.095875 0.136361 0.683189
O O13 0.000000 0.109424 0.750000
O O14 0.749036 0.500000 0.750000
O O15 0.802393 0.600637 0.865570
O O16 0.603417 0.370284 0.000000
O O17 0.869790 0.575200 0.000000
#
# Coordination Sequence:
#
# PCOD9496143 Si02
#       7
#    16  16  16  16  16  16  16
#     4   9  19  37  57  78 111 155 201 249 307 372
#     4  11  23  39  63  93 124 161 207 257 308 367
#     4   9  19  36  58  85 119 161 202 246 303 363
#     4  10  22  41  63  86 119 162 206 259 317 370
#     4   9  18  36  59  83 118 162 200 244 299 360
#     4  10  21  38  61  90 123 161 207 255 306 367
#     4  10  19  33  56  86 120 157 200 251 303 360
#
# _framework density 21.702307999999999
#
# number of rings (size 3 to 8) (size 9 to 14) (size 15 to 20)
#    0.000    2.286    0.000    3.429    0.000    3.429 
#    0.000   26.429    0.000   21.429    0.000    0.000 
#    0.000    0.000    0.000    0.000    0.000    0.000 
#
# Total GULP energy -312393.799882 kJ/mol
# GULP energy per Si atom -5578.460712 kJ/mol
# Density = 2.165291 g / cm^3
# Si number density = 21.702308 Si / 1000 Ang^3
#
#
#
# Elastic Constant Matrix: (Units=GPa)
#
#
# Indices 1 2 3 4 5 6 
#
# 1 104.0423 9.7832 44.2050 0.0000 0.0000 0.0000
# 2 9.7832 89.3435 15.9285 0.0000 0.0000 0.0000
# 3 44.2050 15.9285 123.9419 0.0000 0.0000 0.0000
# 4 0.0000 0.0000 0.0000 20.8250 0.0000 0.0000
# 5 0.0000 0.0000 0.0000 0.0000 7.9523 0.0000
# 6 0.0000 0.0000 0.0000 0.0000 0.0000 20.7526
#
#
#
# Elastic Compliance Matrix: (Units=1/GPa)
#
#
# Indices 1 2 3 4 5 6 
#
# 1 0.011353 -0.000533 -0.003981 0.000000 0.000000 0.000000
# 2 -0.000533 0.011480 -0.001285 0.000000 0.000000 0.000000
# 3 -0.003981 -0.001285 0.009653 0.000000 0.000000 0.000000
# 4 0.000000 0.000000 0.000000 0.048019 0.000000 0.000000
# 5 0.000000 0.000000 0.000000 0.000000 0.125750 0.000000
# 6 0.000000 0.000000 0.000000 0.000000 0.000000 0.048187
#
#
# Mechanical properties :
#
#
# Convention : Reuss Voigt Hill
#
# Bulk Modulus (GPa) = 47.87435 50.79567 49.33501
# Shear Modulus (GPa) = 18.31480 26.40004 22.35742
#
# Velocity S-wave (km/s) = 2.90816 3.49157 3.21313
# Velocity P-wave (km/s) = 5.77789 6.30168 6.04546
#
# Compressibility (1/GPa) = 0.02088801
#
# Stress axis : x y z
#
# Youngs Moduli (GPa) = 88.08342 87.10576 103.59316
#
# Poissons Ratio (x) = 0.04647 0.41236
# Poissons Ratio (y) = 0.04699 0.13313
# Poissons Ratio (z) = 0.35062 0.11194
#
# Static dielectric constant tensor:
#      x y z
#    x 1.784220 0.000000 0.000000 
#    y 0.000000 1.883700 0.000000 
#    z 0.000000 0.000000 1.777570 
# 
# From -- ./inp_files/32480.got.cif
#   From: 2010.05.17/outbox.cif.g08.bks.cpg/sg66_17_cif.got.tgz:32480.got - 2010.06.03 17:51:23.
