data_PCOD9496567
_publ_section_title
;
Structure prediction by ZEFSAII (Michael W. Deem and Ramdas Pophale) SiO2 
 PCOD9496567
Probable space group: C C C M
;
_chemical_formula_sum "Si O2"
_cell_formula_units_Z 112
_cell_length_a 13.867793
_cell_length_b 14.703037
_cell_length_c 27.070726
_cell_angle_alpha 90.000000
_cell_angle_beta 90.000000
_cell_angle_gamma 90.000000
_cell_volume 5519.685124
_symmetry_space_group_name_H-M "C C C M"
_symmetry_group_IT_number 66
_symmetry_cell_setting 'orthorhombic'
loop_
_space_group_symop_operation_xyz
x,y,z
-x,-y,z
x,-y,1/2-z
-x,y,1/2-z
-x,-y,-z
x,y,-z
-x,y,1/2+z
x,-y,1/2+z
1/2+x,1/2+y,z
1/2-x,1/2-y,z
1/2+x,1/2-y,1/2-z
1/2-x,1/2+y,1/2-z
1/2-x,1/2-y,-z
1/2+x,1/2+y,-z
1/2-x,1/2+y,1/2+z
1/2+x,1/2-y,1/2+z
loop_
_atom_site_type_symbol
_atom_site_label
_atom_site_fract_x
_atom_site_fract_y
_atom_site_fract_z
Si Si1 0.831918 0.401655 0.185482
Si Si2 0.847029 0.725893 0.887142
Si Si3 0.523899 0.894653 0.595265
Si Si4 0.288855 0.111336 0.791594
Si Si5 0.636124 0.735214 0.554386
Si Si6 0.588483 0.601163 0.831756
Si Si7 0.882077 0.104391 0.146477
O O1 0.920554 0.384411 0.148507
O O2 0.825159 0.510403 0.194560
O O3 0.836444 0.359644 0.240170
O O4 0.726245 0.374516 0.164802
O O5 0.750000 0.750000 0.916211
O O6 0.815668 0.675726 0.836452
O O7 0.892855 0.819964 0.870868
O O8 0.924124 0.658956 0.909347
O O9 0.592982 0.836329 0.560418
O O10 0.500000 0.000000 0.586692
O O11 0.171658 0.107022 0.789903
O O12 0.611330 0.699028 0.500000
O O13 0.750000 0.750000 0.557990
O O14 0.604725 0.666528 0.597964
O O15 0.610897 0.505190 0.858936
O O16 0.476235 0.615189 0.818039
#
# Coordination Sequence:
#
# PCOD9496567 Si02
#       7
#    16  16  16  16  16  16  16
#     4  10  20  35  58  87 128 165 219 262 301 364
#     4  10  20  37  56  85 122 170 203 252 313 371
#     4  12  23  40  66  93 124 173 213 263 330 385
#     4   9  19  36  53  88 129 168 212 263 297 354
#     4  11  24  43  67  96 125 153 204 275 341 406
#     4   9  19  35  59  84 122 167 204 252 311 376
#     4  10  19  38  62  87 117 166 208 259 326 380
#
# _framework density 20.291011999999998
#
# number of rings (size 3 to 8) (size 9 to 14) (size 15 to 20)
#    0.000    1.857    4.286    0.000    0.000    1.429 
#    7.714    7.143    0.000    0.429    0.000    0.000 
#    0.000    0.000    0.000    0.000    0.000    0.000 
#
# Total GULP energy -311900.527854 kJ/mol
# GULP energy per Si atom -5569.652283 kJ/mol
# Density = 2.024483 g / cm^3
# Si number density = 20.291012 Si / 1000 Ang^3
#
#
#
# Elastic Constant Matrix: (Units=GPa)
#
#
# Indices 1 2 3 4 5 6 
#
# 1 116.4933 28.8281 8.9020 0.0000 0.0000 0.0000
# 2 28.8281 55.3266 -3.0584 0.0000 0.0000 0.0000
# 3 8.9020 -3.0584 49.9571 0.0000 0.0000 0.0000
# 4 0.0000 0.0000 0.0000 19.8736 0.0000 0.0000
# 5 0.0000 0.0000 0.0000 0.0000 38.5746 0.0000
# 6 0.0000 0.0000 0.0000 0.0000 0.0000 30.3161
#
#
#
# Elastic Compliance Matrix: (Units=1/GPa)
#
#
# Indices 1 2 3 4 5 6 
#
# 1 0.010075 -0.005367 -0.002124 0.000000 0.000000 0.000000
# 2 -0.005367 0.020995 0.002242 0.000000 0.000000 0.000000
# 3 -0.002124 0.002242 0.020533 0.000000 0.000000 0.000000
# 4 0.000000 0.000000 0.000000 0.050318 0.000000 0.000000
# 5 0.000000 0.000000 0.000000 0.000000 0.025924 0.000000
# 6 0.000000 0.000000 0.000000 0.000000 0.000000 0.032986
#
#
# Mechanical properties :
#
#
# Convention : Reuss Voigt Hill
#
# Bulk Modulus (GPa) = 24.32834 32.34672 28.33753
# Shear Modulus (GPa) = 27.02278 30.22656 28.62467
#
# Velocity S-wave (km/s) = 3.65329 3.86379 3.76001
# Velocity P-wave (km/s) = 5.45995 5.99009 5.73115
#
# Compressibility (1/GPa) = 0.04110432
#
# Stress axis : x y z
#
# Youngs Moduli (GPa) = 99.25985 47.63093 48.70247
#
# Poissons Ratio (x) = 0.25562 0.10343
# Poissons Ratio (y) = 0.53271 -0.10917
# Poissons Ratio (z) = 0.21081 -0.10677
#
# Static dielectric constant tensor:
#      x y z
#    x 1.878260 0.000000 0.000000 
#    y 0.000000 1.739360 0.000000 
#    z 0.000000 0.000000 1.709370 
# 
# From -- ./inp_files/64672.got.cif
#   From: 2010.05.17/outbox.cif.g08.bks.cpg/sg66_33_cif.got.tgz:64672.got - 2010.06.03 17:51:23.
