data_PCOD9496029
_publ_section_title
;
Structure prediction by ZEFSAII (Michael W. Deem and Ramdas Pophale) SiO2 
 PCOD9496029
Probable space group: C C C M
;
_chemical_formula_sum "Si O2"
_cell_formula_units_Z 96
_cell_length_a 7.417569
_cell_length_b 19.500272
_cell_length_c 29.276378
_cell_angle_alpha 90.000000
_cell_angle_beta 90.000000
_cell_angle_gamma 90.000000
_cell_volume 4234.670368
_symmetry_space_group_name_H-M "C C C M"
_symmetry_group_IT_number 66
_symmetry_cell_setting 'orthorhombic'
loop_
_space_group_symop_operation_xyz
x,y,z
-x,-y,z
x,-y,1/2-z
-x,y,1/2-z
-x,-y,-z
x,y,-z
-x,y,1/2+z
x,-y,1/2+z
1/2+x,1/2+y,z
1/2-x,1/2-y,z
1/2+x,1/2-y,1/2-z
1/2-x,1/2+y,1/2-z
1/2-x,1/2-y,-z
1/2+x,1/2+y,-z
1/2-x,1/2+y,1/2+z
1/2+x,1/2-y,1/2+z
loop_
_atom_site_type_symbol
_atom_site_label
_atom_site_fract_x
_atom_site_fract_y
_atom_site_fract_z
Si Si1 0.554743 0.788450 0.197876
Si Si2 0.531041 0.088522 0.551304
Si Si3 0.474606 0.329190 0.362510
Si Si4 0.801271 0.962623 0.392900
Si Si5 0.691831 0.083760 0.649242
Si Si6 0.965893 0.249922 0.049861
O O1 0.500000 0.796356 0.250000
O O2 0.750000 0.750000 0.195324
O O3 0.434758 0.733058 0.170983
O O4 0.558244 0.863035 0.173436
O O5 0.587306 0.069493 0.500000
O O6 0.346071 0.048936 0.566318
O O7 0.663201 0.081923 0.594404
O O8 0.508476 0.170390 0.550198
O O9 0.329177 0.383418 0.378938
O O10 0.620490 0.379618 0.340175
O O11 0.547973 0.292093 0.408397
O O12 0.716212 0.001827 0.348293
O O13 0.000000 0.000000 0.402476
O O14 0.750000 0.250000 0.055146
O O15 0.014099 0.220343 0.000000
#
# Coordination Sequence:
#
# PCOD9496029 Si02
#       6
#    16  16  16  16  16  16
#     4  10  22  40  65  94 118 147 197 252 301 360
#     4  11  22  36  57  86 122 163 206 248 294 351
#     4  10  20  39  62  87 117 156 197 246 297 354
#     4  10  22  38  59  83 120 163 201 244 302 355
#     4  10  22  39  59  89 124 155 192 248 302 360
#     4  10  19  32  55  88 119 153 203 250 287 343
#
# _framework density 22.670006000000001
#
# number of rings (size 3 to 8) (size 9 to 14) (size 15 to 20)
#    0.000    1.833    3.333    0.500    0.000    4.333 
#    0.000    5.000    0.000   24.500    0.000    0.000 
#    0.000    0.000    0.000    0.000    0.000    0.000 
#
# Total GULP energy -267242.662585 kJ/mol
# GULP energy per Si atom -5567.555471 kJ/mol
# Density = 2.261841 g / cm^3
# Si number density = 22.670006 Si / 1000 Ang^3
#
#
#
# Elastic Constant Matrix: (Units=GPa)
#
#
# Indices 1 2 3 4 5 6 
#
# 1 70.8530 -4.5851 3.2057 0.0000 0.0000 0.0000
# 2 -4.5851 143.6214 52.6980 0.0000 0.0000 0.0000
# 3 3.2057 52.6980 95.3146 0.0000 0.0000 0.0000
# 4 0.0000 0.0000 0.0000 12.0694 0.0000 0.0000
# 5 0.0000 0.0000 0.0000 0.0000 11.6863 0.0000
# 6 0.0000 0.0000 0.0000 0.0000 0.0000 18.6635
#
#
#
# Elastic Compliance Matrix: (Units=1/GPa)
#
#
# Indices 1 2 3 4 5 6 
#
# 1 0.014206 0.000789 -0.000914 0.000000 0.000000 0.000000
# 2 0.000789 0.008779 -0.004880 0.000000 0.000000 0.000000
# 3 -0.000914 -0.004880 0.013220 0.000000 0.000000 0.000000
# 4 0.000000 0.000000 0.000000 0.082854 0.000000 0.000000
# 5 0.000000 0.000000 0.000000 0.000000 0.085571 0.000000
# 6 0.000000 0.000000 0.000000 0.000000 0.000000 0.053581
#
#
# Mechanical properties :
#
#
# Convention : Reuss Voigt Hill
#
# Bulk Modulus (GPa) = 38.17544 45.82511 42.00028
# Shear Modulus (GPa) = 18.05363 25.71518 21.88441
#
# Velocity S-wave (km/s) = 2.82506 3.37163 3.11037
# Velocity P-wave (km/s) = 5.24571 5.95105 5.60948
#
# Compressibility (1/GPa) = 0.02619485
#
# Stress axis : x y z
#
# Youngs Moduli (GPa) = 70.39212 113.91420 75.64062
#
# Poissons Ratio (x) = -0.08986 0.06913
# Poissons Ratio (y) = -0.05553 0.36913
# Poissons Ratio (z) = 0.06433 0.55591
#
# Static dielectric constant tensor:
#      x y z
#    x 2.013950 0.000000 0.000000 
#    y 0.000000 2.008180 0.000000 
#    z 0.000000 0.000000 1.842630 
# 
# From -- ./inp_files/62619.got.cif
#   From: 2010.05.17/outbox.cif.g08.bks.cpg/sg66_32_cif.got.tgz:62619.got - 2010.06.03 17:51:23.
