data_PCOD9496008
_publ_section_title
;
Structure prediction by ZEFSAII (Michael W. Deem and Ramdas Pophale) SiO2 
 PCOD9496008
Probable space group: C C C M
;
_chemical_formula_sum "Si O2"
_cell_formula_units_Z 52
_cell_length_a 31.760346
_cell_length_b 5.271694
_cell_length_c 18.047320
_cell_angle_alpha 90.000000
_cell_angle_beta 90.000000
_cell_angle_gamma 90.000000
_cell_volume 3021.677685
_symmetry_space_group_name_H-M "C C C M"
_symmetry_group_IT_number 66
_symmetry_cell_setting 'orthorhombic'
loop_
_space_group_symop_operation_xyz
x,y,z
-x,-y,z
x,-y,1/2-z
-x,y,1/2-z
-x,-y,-z
x,y,-z
-x,y,1/2+z
x,-y,1/2+z
1/2+x,1/2+y,z
1/2-x,1/2-y,z
1/2+x,1/2-y,1/2-z
1/2-x,1/2+y,1/2-z
1/2-x,1/2-y,-z
1/2+x,1/2+y,-z
1/2-x,1/2+y,1/2+z
1/2+x,1/2-y,1/2+z
loop_
_atom_site_type_symbol
_atom_site_label
_atom_site_fract_x
_atom_site_fract_y
_atom_site_fract_z
Si Si1 0.500000 0.500000 0.750000
Si Si2 0.151213 0.291417 0.910952
Si Si3 0.418595 0.258846 0.204454
Si Si4 0.202235 0.790763 0.909841
O O1 0.531829 0.669673 0.798683
O O2 0.106466 0.263465 0.871439
O O3 0.173135 0.554411 0.888039
O O4 0.181317 0.057126 0.888795
O O5 0.147109 0.288695 0.000000
O O6 0.400517 0.500000 0.250000
O O7 0.413958 0.000000 0.250000
O O8 0.250000 0.750000 0.883538
O O9 0.203770 0.789773 0.000000
#
# Coordination Sequence:
#
# PCOD9496008 Si02
#       4
#     4  16  16  16
#     4   8  22  36  60  76  94 144 180 200 258 344
#     4  10  19  32  54  82 106 134 176 223 259 291
#     4  10  20  36  57  77 103 136 180 207 259 326
#     4   9  17  30  50  77 109 142 175 209 253 309
#
# _framework density 17.208981000000001
#
# number of rings (size 3 to 8) (size 9 to 14) (size 15 to 20)
#    0.923    1.538    0.000    3.231    0.000    3.692 
#    0.000    0.769    0.000   20.308    0.000    0.000 
#    0.000    0.000    0.000    0.000    0.000    0.000 
#
# Total GULP energy -144735.461448 kJ/mol
# GULP energy per Si atom -5566.748517 kJ/mol
# Density = 1.716981 g / cm^3
# Si number density = 17.208981 Si / 1000 Ang^3
#
#
#
# Elastic Constant Matrix: (Units=GPa)
#
#
# Indices 1 2 3 4 5 6 
#
# 1 81.7039 -1.5533 23.6779 0.0000 0.0000 0.0000
# 2 -1.5533 98.0438 10.3455 0.0000 0.0000 0.0000
# 3 23.6779 10.3455 22.3619 0.0000 0.0000 0.0000
# 4 0.0000 0.0000 0.0000 10.0288 0.0000 0.0000
# 5 0.0000 0.0000 0.0000 0.0000 -0.0298 0.0000
# 6 0.0000 0.0000 0.0000 0.0000 0.0000 -2.9185
#
#
#
# Elastic Compliance Matrix: (Units=1/GPa)
#
#
# Indices 1 2 3 4 5 6 
#
# 1 0.018197 0.002441 -0.020397 0.000000 0.000000 0.000000
# 2 0.002441 0.011050 -0.007697 0.000000 0.000000 0.000000
# 3 -0.020397 -0.007697 0.069877 0.000000 0.000000 0.000000
# 4 0.000000 0.000000 0.000000 0.099713 0.000000 0.000000
# 5 0.000000 0.000000 0.000000 0.000000-33.518191 0.000000
# 6 0.000000 0.000000 0.000000 0.000000 0.000000 -0.342637
#
#
# Mechanical properties :
#
#
# Convention : Reuss Voigt Hill
#
# Bulk Modulus (GPa) = 20.91246 29.67222 25.29234
# Shear Modulus (GPa) = -0.14883 12.72538 6.28827
#
# Velocity S-wave (km/s) = -0.29440 2.72225 1.91363
# Velocity P-wave (km/s) = 3.47317 5.21158 4.42851
#
# Compressibility (1/GPa) = 0.04781838
#
# Stress axis : x y z
#
# Youngs Moduli (GPa) = 54.95494 90.49511 14.31092
#
# Poissons Ratio (x) = -0.22086 0.29190
# Poissons Ratio (y) = -0.13412 0.11014
# Poissons Ratio (z) = 1.12090 0.69650
#
# Static dielectric constant tensor:
#      x y z
#    x 1.577940 0.000000 0.000000 
#    y 0.000000 1.618650 0.000000 
#    z 0.000000 0.000000 1.562630 
# 
# From -- ./inp_files/34942.got.cif
#   From: 2010.05.17/outbox.cif.g08.bks.cpg/sg66_18_cif.got.tgz:34942.got - 2010.06.03 17:51:23.
