data_PCOD9496536
_publ_section_title
;
Structure prediction by ZEFSAII (Michael W. Deem and Ramdas Pophale) SiO2 
 PCOD9496536
Probable space group: C C C M
;
_chemical_formula_sum "Si O2"
_cell_formula_units_Z 80
_cell_length_a 10.304865
_cell_length_b 24.597718
_cell_length_c 17.359061
_cell_angle_alpha 90.000000
_cell_angle_beta 90.000000
_cell_angle_gamma 90.000000
_cell_volume 4400.108181
_symmetry_space_group_name_H-M "C C C M"
_symmetry_group_IT_number 66
_symmetry_cell_setting 'orthorhombic'
loop_
_space_group_symop_operation_xyz
x,y,z
-x,-y,z
x,-y,1/2-z
-x,y,1/2-z
-x,-y,-z
x,y,-z
-x,y,1/2+z
x,-y,1/2+z
1/2+x,1/2+y,z
1/2-x,1/2-y,z
1/2+x,1/2-y,1/2-z
1/2-x,1/2+y,1/2-z
1/2-x,1/2-y,-z
1/2+x,1/2+y,-z
1/2-x,1/2+y,1/2+z
1/2+x,1/2-y,1/2+z
loop_
_atom_site_type_symbol
_atom_site_label
_atom_site_fract_x
_atom_site_fract_y
_atom_site_fract_z
Si Si1 0.096050 0.762494 0.408813
Si Si2 0.984642 0.343818 0.341251
Si Si3 0.201405 0.127170 0.093226
Si Si4 0.648288 0.509221 0.158450
Si Si5 0.397237 0.952639 0.907946
O O1 0.074394 0.755996 0.500000
O O2 0.250000 0.750000 0.395693
O O3 0.003099 0.719471 0.366889
O O4 0.094140 0.826433 0.388904
O O5 0.841186 0.356626 0.373259
O O6 0.000000 0.346756 0.250000
O O7 0.070197 0.392725 0.376058
O O8 0.173836 0.070431 0.132525
O O9 0.210823 0.123104 0.000000
O O10 0.500000 0.500000 0.135554
O O11 0.660699 0.500000 0.250000
O O12 0.755244 0.471731 0.117862
O O13 0.500000 0.000000 0.881467
O O14 0.406406 0.950676 0.000000
#
# Coordination Sequence:
#
# PCOD9496536 Si02
#       5
#    16  16  16  16  16
#     4   8  16  32  56  82 107 144 194 245 282 334
#     4  11  20  32  55  90 122 149 187 248 311 354
#     4  10  19  37  63  85 113 156 209 250 286 357
#     4  11  24  40  57  88 121 158 197 246 307 371
#     4  11  22  35  58  87 118 156 196 247 298 355
#
# _framework density 18.181370999999999
#
# number of rings (size 3 to 8) (size 9 to 14) (size 15 to 20)
#    0.000    1.800    2.000    4.800    0.000    1.600 
#    3.600    0.000    0.000    0.000    0.000    4.200 
#    0.000    0.000    0.000    0.000    0.000    0.000 
#
# Total GULP energy -222860.997993 kJ/mol
# GULP energy per Si atom -5571.524950 kJ/mol
# Density = 1.813999 g / cm^3
# Si number density = 18.181371 Si / 1000 Ang^3
#
#
#
# Elastic Constant Matrix: (Units=GPa)
#
#
# Indices 1 2 3 4 5 6 
#
# 1 66.9564 55.3579 33.8111 0.0000 0.0000 0.0000
# 2 55.3579 168.7925 69.8383 0.0000 0.0000 0.0000
# 3 33.8111 69.8383 80.9834 0.0000 0.0000 0.0000
# 4 0.0000 0.0000 0.0000********** 0.0000 0.0000
# 5 0.0000 0.0000 0.0000 0.0000 11.5482 0.0000
# 6 0.0000 0.0000 0.0000 0.0000 0.0000 32.0270
#
#
#
# Elastic Compliance Matrix: (Units=1/GPa)
#
#
# Indices 1 2 3 4 5 6 
#
# 1 0.021497 -0.005188 -0.004501 0.000000 0.000000 0.000000
# 2 -0.005188 0.010463 -0.006857 0.000000 0.000000 0.000000
# 3 -0.004501 -0.006857 0.020141 0.000000 0.000000 0.000000
# 4 0.000000 0.000000 0.000000 -0.000088 0.000000 0.000000
# 5 0.000000 0.000000 0.000000 0.000000 0.086593 0.000000
# 6 0.000000 0.000000 0.000000 0.000000 0.000000 0.031224
#
#
# Mechanical properties :
#
#
# Convention : Reuss Voigt Hill
#
# Bulk Modulus (GPa) = 52.60763 70.52743 61.56753
# Shear Modulus (GPa) = 23.89378 -2254.78833 -1115.44728
#
# Velocity S-wave (km/s) = 3.62911 -35.25417 -24.79603
# Velocity P-wave (km/s) = 6.82336 40.22768 28.03309
#
# Compressibility (1/GPa) = 0.01900865
#
# Stress axis : x y z
#
# Youngs Moduli (GPa) = 46.51727 95.57458 49.65005
#
# Poissons Ratio (x) = 0.49583 0.22349
# Poissons Ratio (y) = 0.24133 0.34046
# Poissons Ratio (z) = 0.20939 0.65536
#
# Static dielectric constant tensor:
#      x y z
#    x 1.644000 0.000000 0.000000 
#    y 0.000000 1.684650 0.000000 
#    z 0.000000 0.000000 1.596950 
# 
# From -- ./inp_files/26342.got.cif
#   From: 2010.05.17/outbox.cif.g08.bks.cpg/sg66_14_cif.got.tgz:26342.got - 2010.06.03 17:51:23.
