data_PCOD9496827
_publ_section_title
;
Structure prediction by ZEFSAII (Michael W. Deem and Ramdas Pophale) SiO2 
 PCOD9496827
Probable space group: C C C M
;
_chemical_formula_sum "Si O2"
_cell_formula_units_Z 64
_cell_length_a 14.869208
_cell_length_b 28.242150
_cell_length_c 8.658357
_cell_angle_alpha 90.000000
_cell_angle_beta 90.000000
_cell_angle_gamma 90.000000
_cell_volume 3635.976609
_symmetry_space_group_name_H-M "C C C M"
_symmetry_group_IT_number 66
_symmetry_cell_setting 'orthorhombic'
loop_
_space_group_symop_operation_xyz
x,y,z
-x,-y,z
x,-y,1/2-z
-x,y,1/2-z
-x,-y,-z
x,y,-z
-x,y,1/2+z
x,-y,1/2+z
1/2+x,1/2+y,z
1/2-x,1/2-y,z
1/2+x,1/2-y,1/2-z
1/2-x,1/2+y,1/2-z
1/2-x,1/2-y,-z
1/2+x,1/2+y,-z
1/2-x,1/2+y,1/2+z
1/2+x,1/2-y,1/2+z
loop_
_atom_site_type_symbol
_atom_site_label
_atom_site_fract_x
_atom_site_fract_y
_atom_site_fract_z
Si Si1 0.598688 0.052166 0.684627
Si Si2 0.648777 0.770627 0.174993
Si Si3 0.093198 0.169567 0.186417
Si Si4 0.716616 0.135883 0.183229
O O1 0.500000 0.064993 0.750000
O O2 0.594881 0.050545 0.500000
O O3 0.670414 0.090471 0.741068
O O4 0.619856 0.000000 0.750000
O O5 0.750000 0.750000 0.164106
O O6 0.597275 0.724907 0.237841
O O7 0.656529 0.817996 0.273397
O O8 0.618718 0.782078 0.000000
O O9 0.183458 0.145144 0.249643
O O10 0.000000 0.148939 0.250000
O O11 0.095445 0.169059 0.000000
O O12 0.721382 0.130908 0.000000
#
# Coordination Sequence:
#
# PCOD9496827 Si02
#       4
#    16  16  16  16
#     4  11  22  39  60  83 109 136 171 216 268 322
#     4   8  16  31  48  69 101 138 176 218 261 304
#     4  10  20  34  52  76 108 146 185 225 267 313
#     4  11  21  34  54  80 109 143 181 220 266 318
#
# _framework density 17.601873000000001
#
# number of rings (size 3 to 8) (size 9 to 14) (size 15 to 20)
#    0.000    2.000    0.000    7.500    0.000    6.500 
#    0.000    2.500    0.000    0.750    0.000    5.250 
#    0.000    0.000    0.000    0.000    0.000    0.000 
#
# Total GULP energy -178540.729179 kJ/mol
# GULP energy per Si atom -5579.397787 kJ/mol
# Density = 1.756181 g / cm^3
# Si number density = 17.601873 Si / 1000 Ang^3
#
#
#
# Elastic Constant Matrix: (Units=GPa)
#
#
# Indices 1 2 3 4 5 6 
#
# 1 116.7743 79.1828 52.9035 0.0000 0.0000 0.0000
# 2 79.1828 96.8434 62.0341 0.0000 0.0000 0.0000
# 3 52.9035 62.0341 135.3023 0.0000 0.0000 0.0000
# 4 0.0000 0.0000 0.0000 13.3330 0.0000 0.0000
# 5 0.0000 0.0000 0.0000 0.0000 64.7984 0.0000
# 6 0.0000 0.0000 0.0000 0.0000 0.0000 24.3741
#
#
#
# Elastic Compliance Matrix: (Units=1/GPa)
#
#
# Indices 1 2 3 4 5 6 
#
# 1 0.019238 -0.015448 -0.000439 0.000000 0.000000 0.000000
# 2 -0.015448 0.027024 -0.006350 0.000000 0.000000 0.000000
# 3 -0.000439 -0.006350 0.010474 0.000000 0.000000 0.000000
# 4 0.000000 0.000000 0.000000 0.075002 0.000000 0.000000
# 5 0.000000 0.000000 0.000000 0.000000 0.015432 0.000000
# 6 0.000000 0.000000 0.000000 0.000000 0.000000 0.041027
#
#
# Mechanical properties :
#
#
# Convention : Reuss Voigt Hill
#
# Bulk Modulus (GPa) = 81.55717 81.90676 81.73197
# Shear Modulus (GPa) = 21.11848 30.82106 25.96977
#
# Velocity S-wave (km/s) = 3.46755 4.18905 3.84526
# Velocity P-wave (km/s) = 7.90360 8.36848 8.13936
#
# Compressibility (1/GPa) = 0.01226134
#
# Stress axis : x y z
#
# Youngs Moduli (GPa) = 51.98158 37.00355 95.47420
#
# Poissons Ratio (x) = 0.57163 0.04194
# Poissons Ratio (y) = 0.80301 0.60627
# Poissons Ratio (z) = 0.02283 0.23498
#
# Static dielectric constant tensor:
#      x y z
#    x 1.618000 0.000000 0.000000 
#    y 0.000000 1.589400 0.000000 
#    z 0.000000 0.000000 1.595020 
# 
# From -- ./inp_files/5082.got.cif
#   From: 2010.05.17/outbox.cif.g08.bks.cpg/sg66_3_cif.got.tgz:5082.got - 2010.06.03 17:51:23.
