data_PCOD9496060
_publ_section_title
;
Structure prediction by ZEFSAII (Michael W. Deem and Ramdas Pophale) SiO2 
 PCOD9496060
Probable space group: C C C M
;
_chemical_formula_sum "Si O2"
_cell_formula_units_Z 112
_cell_length_a 21.442175
_cell_length_b 17.119733
_cell_length_c 18.194554
_cell_angle_alpha 90.000000
_cell_angle_beta 90.000000
_cell_angle_gamma 90.000000
_cell_volume 6678.935318
_symmetry_space_group_name_H-M "C C C M"
_symmetry_group_IT_number 66
_symmetry_cell_setting 'orthorhombic'
loop_
_space_group_symop_operation_xyz
x,y,z
-x,-y,z
x,-y,1/2-z
-x,y,1/2-z
-x,-y,-z
x,y,-z
-x,y,1/2+z
x,-y,1/2+z
1/2+x,1/2+y,z
1/2-x,1/2-y,z
1/2+x,1/2-y,1/2-z
1/2-x,1/2+y,1/2-z
1/2-x,1/2-y,-z
1/2+x,1/2+y,-z
1/2-x,1/2+y,1/2+z
1/2+x,1/2-y,1/2+z
loop_
_atom_site_type_symbol
_atom_site_label
_atom_site_fract_x
_atom_site_fract_y
_atom_site_fract_z
Si Si1 0.817249 0.344972 0.221456
Si Si2 0.778505 0.945746 0.186458
Si Si3 0.911385 0.491878 0.583924
Si Si4 0.816449 0.223945 0.347037
Si Si5 0.433533 0.813518 0.587756
Si Si6 0.460313 0.128907 0.678078
Si Si7 0.775262 0.571009 0.415856
O O1 0.785691 0.410442 0.275836
O O2 0.813425 0.265408 0.267191
O O3 0.890252 0.351992 0.203163
O O4 0.781172 0.359483 0.144308
O O5 0.815280 0.868706 0.163083
O O6 0.807238 0.000000 0.250000
O O7 0.767681 0.003324 0.118348
O O8 0.932165 0.492224 0.500000
O O9 0.911033 0.401856 0.607477
O O10 0.951880 0.552208 0.629485
O O11 0.842574 0.528782 0.585134
O O12 0.750000 0.250000 0.383592
O O13 0.878031 0.256715 0.386412
O O14 0.441858 0.807730 0.500000
O O15 0.499681 0.808478 0.630484
O O16 0.500000 0.112923 0.750000
O O17 0.760721 0.593100 0.500000
#
# Coordination Sequence:
#
# PCOD9496060 Si02
#       7
#    16  16  16  16  16  16  16
#     4   9  18  33  48  70  98 130 168 206 246 290
#     4   9  18  33  54  74  99 126 167 211 251 297
#     4   9  18  30  40  59  95 134 169 202 232 270
#     4  10  19  33  51  71  97 135 168 206 254 297
#     4  11  22  33  43  69 102 132 172 214 245 289
#     4  11  20  30  45  64  94 137 176 204 237 284
#     4   9  17  29  48  70  97 129 165 207 249 293
#
# _framework density 16.76914
#
# number of rings (size 3 to 8) (size 9 to 14) (size 15 to 20)
#    0.000    2.286    1.429    2.571    0.000    4.857 
#    5.143    0.000    0.000   10.714    0.000    2.000 
#    0.000    1.143    0.000    0.000    0.000    0.000 
#
# Total GULP energy -311829.821070 kJ/mol
# GULP energy per Si atom -5568.389662 kJ/mol
# Density = 1.673097 g / cm^3
# Si number density = 16.769140 Si / 1000 Ang^3
#
#
#
# Elastic Constant Matrix: (Units=GPa)
#
#
# Indices 1 2 3 4 5 6 
#
# 1 67.6599 21.8573 23.0665 0.0000 0.0000 0.0000
# 2 21.8573 58.7364 24.9087 0.0000 0.0000 0.0000
# 3 23.0665 24.9087 106.8034 0.0000 0.0000 0.0000
# 4 0.0000 0.0000 0.0000 18.9302 0.0000 0.0000
# 5 0.0000 0.0000 0.0000 0.0000 -47.6462 0.0000
# 6 0.0000 0.0000 0.0000 0.0000 0.0000 17.1664
#
#
#
# Elastic Compliance Matrix: (Units=1/GPa)
#
#
# Indices 1 2 3 4 5 6 
#
# 1 0.017377 -0.005410 -0.002491 0.000000 0.000000 0.000000
# 2 -0.005410 0.020578 -0.003631 0.000000 0.000000 0.000000
# 3 -0.002491 -0.003631 0.010748 0.000000 0.000000 0.000000
# 4 0.000000 0.000000 0.000000 0.052826 0.000000 0.000000
# 5 0.000000 0.000000 0.000000 0.000000 -0.020988 0.000000
# 6 0.000000 0.000000 0.000000 0.000000 0.000000 0.058253
#
#
# Mechanical properties :
#
#
# Convention : Reuss Voigt Hill
#
# Bulk Modulus (GPa) = 39.00330 41.42940 40.21635
# Shear Modulus (GPa) = 29.34207 8.58123 18.96165
#
# Velocity S-wave (km/s) = 4.18756 2.26459 3.36631
# Velocity P-wave (km/s) = 6.83303 5.62114 6.25650
#
# Compressibility (1/GPa) = 0.02563886
#
# Stress axis : x y z
#
# Youngs Moduli (GPa) = 57.54824 48.59531 93.04224
#
# Poissons Ratio (x) = 0.26289 0.23179
# Poissons Ratio (y) = 0.31133 0.33782
# Poissons Ratio (z) = 0.14336 0.17644
#
# Static dielectric constant tensor:
#      x y z
#    x 1.615930 0.000000 0.000000 
#    y 0.000000 1.574200 0.000000 
#    z 0.000000 0.000000 1.613060 
# 
# From -- ./inp_files/41976.got.cif
#   From: 2010.05.17/outbox.cif.g08.bks.cpg/sg66_21_cif.got.tgz:41976.got - 2010.06.03 17:51:23.
