data_PCOD9496333
_publ_section_title
;
Structure prediction by ZEFSAII (Michael W. Deem and Ramdas Pophale) SiO2 
 PCOD9496333
Probable space group: C C C M
;
_chemical_formula_sum "Si O2"
_cell_formula_units_Z 52
_cell_length_a 23.586322
_cell_length_b 5.207492
_cell_length_c 19.283388
_cell_angle_alpha 90.000000
_cell_angle_beta 90.000000
_cell_angle_gamma 90.000000
_cell_volume 2368.493376
_symmetry_space_group_name_H-M "C C C M"
_symmetry_group_IT_number 66
_symmetry_cell_setting 'orthorhombic'
loop_
_space_group_symop_operation_xyz
x,y,z
-x,-y,z
x,-y,1/2-z
-x,y,1/2-z
-x,-y,-z
x,y,-z
-x,y,1/2+z
x,-y,1/2+z
1/2+x,1/2+y,z
1/2-x,1/2-y,z
1/2+x,1/2-y,1/2-z
1/2-x,1/2+y,1/2-z
1/2-x,1/2-y,-z
1/2+x,1/2+y,-z
1/2-x,1/2+y,1/2+z
1/2+x,1/2-y,1/2+z
loop_
_atom_site_type_symbol
_atom_site_label
_atom_site_fract_x
_atom_site_fract_y
_atom_site_fract_z
Si Si1 0.500000 0.000000 0.250000
Si Si2 0.903360 0.232257 0.666511
Si Si3 0.124908 0.274312 0.420558
Si Si4 0.690135 0.500000 0.750000
Si Si5 0.750000 0.750000 0.371633
O O1 0.460636 0.812481 0.295401
O O2 0.893790 0.455631 0.610959
O O3 0.853848 0.219256 0.725069
O O4 0.898362 0.958664 0.627214
O O5 0.107617 0.238332 0.500000
O O6 0.193509 0.286947 0.415424
O O7 0.729872 0.538238 0.683884
#
# Coordination Sequence:
#
# PCOD9496333 Si02
#       5
#     4  16  16   8   8
#     4  12  24  48  70  98 120 164 224 284 352 372
#     4  11  25  41  68  93 127 165 214 280 321 379
#     4  11  24  43  62  95 134 174 212 252 314 396
#     4  10  20  38  62 104 134 166 218 272 328 372
#     4  10  19  34  64  92 131 174 206 256 316 384
#
# _framework density 21.954885000000001
#
# number of rings (size 3 to 8) (size 9 to 14) (size 15 to 20)
#    0.000    1.231    0.000    6.923    0.000    9.231 
#    0.000   12.308    0.000    0.000    0.000    0.000 
#    0.000    0.000    0.000    0.000    0.000    0.000 
#
# Total GULP energy -145221.143173 kJ/mol
# GULP energy per Si atom -5585.428584 kJ/mol
# Density = 2.190491 g / cm^3
# Si number density = 21.954885 Si / 1000 Ang^3
#
#
#
# Elastic Constant Matrix: (Units=GPa)
#
#
# Indices 1 2 3 4 5 6 
#
# 1 112.8921 33.1348 32.4647 0.0000 0.0000 0.0000
# 2 33.1348 123.2751 48.7174 0.0000 0.0000 0.0000
# 3 32.4647 48.7174 129.9466 0.0000 0.0000 0.0000
# 4 0.0000 0.0000 0.0000 34.2655 0.0000 0.0000
# 5 0.0000 0.0000 0.0000 0.0000 4.8392 0.0000
# 6 0.0000 0.0000 0.0000 0.0000 0.0000 31.7297
#
#
#
# Elastic Compliance Matrix: (Units=1/GPa)
#
#
# Indices 1 2 3 4 5 6 
#
# 1 0.009941 -0.001984 -0.001740 0.000000 0.000000 0.000000
# 2 -0.001984 0.009919 -0.003223 0.000000 0.000000 0.000000
# 3 -0.001740 -0.003223 0.009338 0.000000 0.000000 0.000000
# 4 0.000000 0.000000 0.000000 0.029184 0.000000 0.000000
# 5 0.000000 0.000000 0.000000 0.000000 0.206644 0.000000
# 6 0.000000 0.000000 0.000000 0.000000 0.000000 0.031516
#
#
# Mechanical properties :
#
#
# Convention : Reuss Voigt Hill
#
# Bulk Modulus (GPa) = 65.34120 66.08305 65.71213
# Shear Modulus (GPa) = 15.84597 30.95334 23.39966
#
# Velocity S-wave (km/s) = 2.68946 3.75889 3.26821
# Velocity P-wave (km/s) = 6.28255 7.00027 6.65110
#
# Compressibility (1/GPa) = 0.01530428
#
# Stress axis : x y z
#
# Youngs Moduli (GPa) = 100.59632 100.81654 107.08561
#
# Poissons Ratio (x) = 0.20007 0.18628
# Poissons Ratio (y) = 0.19963 0.34512
# Poissons Ratio (z) = 0.17499 0.32492
#
# Static dielectric constant tensor:
#      x y z
#    x 1.872490 0.000000 0.000000 
#    y 0.000000 1.779630 0.000000 
#    z 0.000000 0.000000 1.791720 
# 
# From -- ./inp_files/51498.got.cif
#   From: 2010.05.17/outbox.cif.g08.bks.cpg/sg66_26_cif.got.tgz:51498.got - 2010.06.03 17:51:23.
