data_PCOD9496044
_publ_section_title
;
Structure prediction by ZEFSAII (Michael W. Deem and Ramdas Pophale) SiO2 
 PCOD9496044
Probable space group: C C C M
;
_chemical_formula_sum "Si O2"
_cell_formula_units_Z 88
_cell_length_a 14.225476
_cell_length_b 13.675922
_cell_length_c 22.081135
_cell_angle_alpha 90.000000
_cell_angle_beta 90.000000
_cell_angle_gamma 90.000000
_cell_volume 4295.807534
_symmetry_space_group_name_H-M "C C C M"
_symmetry_group_IT_number 66
_symmetry_cell_setting 'orthorhombic'
loop_
_space_group_symop_operation_xyz
x,y,z
-x,-y,z
x,-y,1/2-z
-x,y,1/2-z
-x,-y,-z
x,y,-z
-x,y,1/2+z
x,-y,1/2+z
1/2+x,1/2+y,z
1/2-x,1/2-y,z
1/2+x,1/2-y,1/2-z
1/2-x,1/2+y,1/2-z
1/2-x,1/2-y,-z
1/2+x,1/2+y,-z
1/2-x,1/2+y,1/2+z
1/2+x,1/2-y,1/2+z
loop_
_atom_site_type_symbol
_atom_site_label
_atom_site_fract_x
_atom_site_fract_y
_atom_site_fract_z
Si Si1 0.162575 0.357859 0.000000
Si Si2 0.907043 0.292180 0.106737
Si Si3 0.889383 0.424165 0.000000
Si Si4 0.888929 0.385567 0.234118
Si Si5 0.172522 0.153774 0.500000
Si Si6 0.378393 0.436531 0.000000
Si Si7 0.599084 0.703783 0.898637
Si Si8 0.750000 0.250000 0.310299
O O1 0.136841 0.290971 0.942509
O O2 0.109649 0.460451 0.000000
O O3 0.271220 0.392381 0.000000
O O4 0.933031 0.377253 0.059518
O O5 0.867179 0.348311 0.165346
O O6 0.001124 0.238666 0.128646
O O7 0.852514 0.215385 0.061443
O O8 0.780497 0.383916 0.000000
O O9 0.871014 0.500000 0.250000
O O10 0.820152 0.319112 0.273864
O O11 0.000000 0.370548 0.250000
O O12 0.117930 0.051954 0.500000
O O13 0.421258 0.388365 0.059361
O O14 0.681138 0.684849 0.851533
#
# Coordination Sequence:
#
# PCOD9496044 Si02
#       8
#     8  16   8  16   8   8  16   8
#     4  10  19  32  59  97 122 163 204 263 332 392
#     4  11  23  41  61  95 128 164 224 276 335 393
#     4  10  23  36  63  93 130 166 211 281 342 401
#     4  11  27  46  72  99 130 182 233 278 337 403
#     4  10  23  40  65  95 130 179 218 273 340 400
#     4  10  19  36  63  95 130 169 212 262 335 402
#     4  11  21  37  64  93 129 168 214 273 331 405
#     4  12  24  45  66  95 132 178 226 280 338 398
#
# _framework density 20.485088000000001
#
# number of rings (size 3 to 8) (size 9 to 14) (size 15 to 20)
#    0.000    1.273    3.636    3.818    5.091    2.909 
#    0.000    0.000    0.000    0.545    0.000    0.000 
#    0.000    0.000    0.000    0.000    0.000    0.000 
#
# Total GULP energy -245468.424403 kJ/mol
# GULP energy per Si atom -5578.827827 kJ/mol
# Density = 2.043846 g / cm^3
# Si number density = 20.485088 Si / 1000 Ang^3
#
#
#
# Elastic Constant Matrix: (Units=GPa)
#
#
# Indices 1 2 3 4 5 6 
#
# 1 94.7019 35.6536 26.5684 0.0000 0.0000 0.0000
# 2 35.6536 159.0594 54.4323 0.0000 0.0000 0.0000
# 3 26.5684 54.4323 119.2390 0.0000 0.0000 0.0000
# 4 0.0000 0.0000 0.0000 4.5320 0.0000 0.0000
# 5 0.0000 0.0000 0.0000 0.0000 231.1526 0.0000
# 6 0.0000 0.0000 0.0000 0.0000 0.0000 40.3313
#
#
#
# Elastic Compliance Matrix: (Units=1/GPa)
#
#
# Indices 1 2 3 4 5 6 
#
# 1 0.011812 -0.002070 -0.001687 0.000000 0.000000 0.000000
# 2 -0.002070 0.007814 -0.003106 0.000000 0.000000 0.000000
# 3 -0.001687 -0.003106 0.010180 0.000000 0.000000 0.000000
# 4 0.000000 0.000000 0.000000 0.220654 0.000000 0.000000
# 5 0.000000 0.000000 0.000000 0.000000 0.004326 0.000000
# 6 0.000000 0.000000 0.000000 0.000000 0.000000 0.024795
#
#
# Mechanical properties :
#
#
# Convention : Reuss Voigt Hill
#
# Bulk Modulus (GPa) = 62.18805 67.36766 64.77785
# Shear Modulus (GPa) = 16.74105 72.29289 44.51697
#
# Velocity S-wave (km/s) = 2.86183 5.94702 4.66675
# Velocity P-wave (km/s) = 6.42991 8.95063 7.79286
#
# Compressibility (1/GPa) = 0.01608026
#
# Stress axis : x y z
#
# Youngs Moduli (GPa) = 84.65840 127.97749 98.23093
#
# Poissons Ratio (x) = 0.26498 0.16569
# Poissons Ratio (y) = 0.17529 0.30507
# Poissons Ratio (z) = 0.14280 0.39746
#
# Static dielectric constant tensor:
#      x y z
#    x 1.825220 0.000000 0.000000 
#    y 0.000000 1.713660 0.000000 
#    z 0.000000 0.000000 1.743800 
# 
# From -- ./inp_files/49914.got.cif
#   From: 2010.05.17/outbox.cif.g08.bks.cpg/sg66_25_cif.got.tgz:49914.got - 2010.06.03 17:51:23.
