data_PCOD9496454
_publ_section_title
;
Structure prediction by ZEFSAII (Michael W. Deem and Ramdas Pophale) SiO2 
 PCOD9496454
Probable space group: C C C M
;
_chemical_formula_sum "Si O2"
_cell_formula_units_Z 64
_cell_length_a 12.761791
_cell_length_b 8.283777
_cell_length_c 27.835068
_cell_angle_alpha 90.000000
_cell_angle_beta 90.000000
_cell_angle_gamma 90.000000
_cell_volume 2942.607338
_symmetry_space_group_name_H-M "C C C M"
_symmetry_group_IT_number 66
_symmetry_cell_setting 'orthorhombic'
loop_
_space_group_symop_operation_xyz
x,y,z
-x,-y,z
x,-y,1/2-z
-x,y,1/2-z
-x,-y,-z
x,y,-z
-x,y,1/2+z
x,-y,1/2+z
1/2+x,1/2+y,z
1/2-x,1/2-y,z
1/2+x,1/2-y,1/2-z
1/2-x,1/2+y,1/2-z
1/2-x,1/2-y,-z
1/2+x,1/2+y,-z
1/2-x,1/2+y,1/2+z
1/2+x,1/2-y,1/2+z
loop_
_atom_site_type_symbol
_atom_site_label
_atom_site_fract_x
_atom_site_fract_y
_atom_site_fract_z
Si Si1 0.533416 0.817252 0.500000
Si Si2 0.145748 0.324818 0.224185
Si Si3 0.174121 0.897952 0.500000
Si Si4 0.447278 0.674117 0.184874
Si Si5 0.894174 0.111767 0.918534
O O1 0.439127 0.687453 0.500000
O O2 0.592517 0.769040 0.548416
O O3 0.500000 0.000000 0.500000
O O4 0.153396 0.500000 0.250000
O O5 0.250000 0.250000 0.200476
O O6 0.123310 0.208556 0.269368
O O7 0.044393 0.302016 0.189525
O O8 0.250000 0.750000 0.500000
O O9 0.182421 0.002962 0.548662
O O10 0.500000 0.500000 0.189585
O O11 0.380986 0.668909 0.135915
O O12 0.000000 0.000000 0.915853
#
# Coordination Sequence:
#
# PCOD9496454 Si02
#       5
#     8  16   8  16  16
#     4   9  17  31  52  76 106 141 181 225 274 330
#     4  11  22  37  56  81 111 148 189 235 287 344
#     4   9  17  35  58  80 112 149 187 231 286 346
#     4  10  19  36  58  80 110 147 186 234 288 341
#     4   8  17  34  54  77 108 147 183 223 281 346
#
# _framework density 21.749419
#
# number of rings (size 3 to 8) (size 9 to 14) (size 15 to 20)
#    0.000    2.500    0.000    6.000    0.000    2.000 
#    0.000   23.750    0.000    0.000    0.000    0.000 
#    0.000    0.000    0.000    0.000    0.000    0.000 
#
# Total GULP energy -178287.176712 kJ/mol
# GULP energy per Si atom -5571.474272 kJ/mol
# Density = 2.169992 g / cm^3
# Si number density = 21.749419 Si / 1000 Ang^3
#
#
#
# Elastic Constant Matrix: (Units=GPa)
#
#
# Indices 1 2 3 4 5 6 
#
# 1 50.7718 4.7266 4.7232 0.0000 0.0000 0.0000
# 2 4.7266 129.7179 30.9203 0.0000 0.0000 0.0000
# 3 4.7232 30.9203 145.9413 0.0000 0.0000 0.0000
# 4 0.0000 0.0000 0.0000 3.4541 0.0000 0.0000
# 5 0.0000 0.0000 0.0000 0.0000 0.2409 0.0000
# 6 0.0000 0.0000 0.0000 0.0000 0.0000 35.5769
#
#
#
# Elastic Compliance Matrix: (Units=1/GPa)
#
#
# Indices 1 2 3 4 5 6 
#
# 1 0.019800 -0.000599 -0.000514 0.000000 0.000000 0.000000
# 2 -0.000599 0.008137 -0.001705 0.000000 0.000000 0.000000
# 3 -0.000514 -0.001705 0.007230 0.000000 0.000000 0.000000
# 4 0.000000 0.000000 0.000000 0.289508 0.000000 0.000000
# 5 0.000000 0.000000 0.000000 0.000000 4.151140 0.000000
# 6 0.000000 0.000000 0.000000 0.000000 0.000000 0.028108
#
#
# Mechanical properties :
#
#
# Convention : Reuss Voigt Hill
#
# Bulk Modulus (GPa) = 33.86196 45.24123 39.55160
# Shear Modulus (GPa) = 1.10634 26.92511 14.01572
#
# Velocity S-wave (km/s) = 0.71399 3.52230 2.54129
# Velocity P-wave (km/s) = 4.03518 6.11460 5.18030
#
# Compressibility (1/GPa) = 0.02953166
#
# Stress axis : x y z
#
# Youngs Moduli (GPa) = 50.50620 122.89261 138.31536
#
# Poissons Ratio (x) = 0.07361 0.07108
# Poissons Ratio (y) = 0.03025 0.23578
# Poissons Ratio (z) = 0.02595 0.20949
#
# Static dielectric constant tensor:
#      x y z
#    x 1.699990 0.000000 0.000000 
#    y 0.000000 1.782970 0.000000 
#    z 0.000000 0.000000 1.843960 
# 
# From -- ./inp_files/69394.got.cif
#   From: 2010.05.17/outbox.cif.g08.bks.cpg/sg66_35_cif.got.tgz:69394.got - 2010.06.03 17:51:23.
