data_PCOD9496915
_publ_section_title
;
Structure prediction by ZEFSAII (Michael W. Deem and Ramdas Pophale) SiO2 
 PCOD9496915
Probable space group: C C C M
;
_chemical_formula_sum "Si O2"
_cell_formula_units_Z 88
_cell_length_a 21.462331
_cell_length_b 7.695741
_cell_length_c 28.443021
_cell_angle_alpha 90.000000
_cell_angle_beta 90.000000
_cell_angle_gamma 90.000000
_cell_volume 4697.892270
_symmetry_space_group_name_H-M "C C C M"
_symmetry_group_IT_number 66
_symmetry_cell_setting 'orthorhombic'
loop_
_space_group_symop_operation_xyz
x,y,z
-x,-y,z
x,-y,1/2-z
-x,y,1/2-z
-x,-y,-z
x,y,-z
-x,y,1/2+z
x,-y,1/2+z
1/2+x,1/2+y,z
1/2-x,1/2-y,z
1/2+x,1/2-y,1/2-z
1/2-x,1/2+y,1/2-z
1/2-x,1/2-y,-z
1/2+x,1/2+y,-z
1/2-x,1/2+y,1/2+z
1/2+x,1/2-y,1/2+z
loop_
_atom_site_type_symbol
_atom_site_label
_atom_site_fract_x
_atom_site_fract_y
_atom_site_fract_z
Si Si1 0.095471 0.179197 0.125934
Si Si2 0.989918 0.208170 0.053063
Si Si3 0.387664 0.714533 0.873107
Si Si4 0.925242 0.515983 0.196458
Si Si5 0.750000 0.750000 0.589781
Si Si6 0.798711 0.097323 0.550288
O O1 0.097825 0.309849 0.169673
O O2 0.154941 0.150287 0.092028
O O3 0.042034 0.257170 0.091559
O O4 0.087301 0.977600 0.141450
O O5 0.923442 0.246255 0.077231
O O6 0.995793 0.277816 0.000000
O O7 0.000000 0.000000 0.049934
O O8 0.313928 0.739203 0.880834
O O9 0.405202 0.853958 0.834760
O O10 0.902328 0.500000 0.250000
O O11 0.000000 0.500000 0.197527
O O12 0.740924 0.576294 0.559529
O O13 0.833252 0.078543 0.500000
O O14 0.750000 0.250000 0.547228
#
# Coordination Sequence:
#
# PCOD9496915 Si02
#       6
#    16  16  16  16   8  16
#     4  10  20  37  58  83 117 154 189 240 293 347
#     4   9  17  31  53  82 116 152 186 224 274 338
#     4  10  21  38  59  85 118 155 193 236 291 346
#     4  11  23  39  62  87 112 143 191 254 307 352
#     4  10  21  36  60  82 122 160 198 238 277 342
#     4  10  20  34  56  86 121 161 197 233 279 343
#
# _framework density 18.731805000000001
#
# number of rings (size 3 to 8) (size 9 to 14) (size 15 to 20)
#    0.000    2.000    1.818    1.909    0.000    5.818 
#    0.000    4.545   10.000    0.000    0.000    0.000 
#    0.000    0.000    0.000    0.000    0.000    0.000 
#
# Total GULP energy -245099.542164 kJ/mol
# GULP energy per Si atom -5570.444140 kJ/mol
# Density = 1.868917 g / cm^3
# Si number density = 18.731805 Si / 1000 Ang^3
#
#
#
# Elastic Constant Matrix: (Units=GPa)
#
#
# Indices 1 2 3 4 5 6 
#
# 1 87.4560 28.4632 34.2668 0.0000 0.0000 0.0000
# 2 28.4632 115.8246 71.2223 0.0000 0.0000 0.0000
# 3 34.2668 71.2223 138.8906 0.0000 0.0000 0.0000
# 4 0.0000 0.0000 0.0000 37.9457 0.0000 0.0000
# 5 0.0000 0.0000 0.0000 0.0000 15.3398 0.0000
# 6 0.0000 0.0000 0.0000 0.0000 0.0000 24.3225
#
#
#
# Elastic Compliance Matrix: (Units=1/GPa)
#
#
# Indices 1 2 3 4 5 6 
#
# 1 0.012902 -0.001772 -0.002275 0.000000 0.000000 0.000000
# 2 -0.001772 0.012853 -0.006154 0.000000 0.000000 0.000000
# 3 -0.002275 -0.006154 0.010917 0.000000 0.000000 0.000000
# 4 0.000000 0.000000 0.000000 0.026353 0.000000 0.000000
# 5 0.000000 0.000000 0.000000 0.000000 0.065190 0.000000
# 6 0.000000 0.000000 0.000000 0.000000 0.000000 0.041114
#
#
# Mechanical properties :
#
#
# Convention : Reuss Voigt Hill
#
# Bulk Modulus (GPa) = 61.45746 67.78618 64.62182
# Shear Modulus (GPa) = 25.62071 29.40287 27.51179
#
# Velocity S-wave (km/s) = 3.70234 3.96621 3.83655
# Velocity P-wave (km/s) = 7.15240 7.56576 7.36198
#
# Compressibility (1/GPa) = 0.01627142
#
# Stress axis : x y z
#
# Youngs Moduli (GPa) = 77.50598 77.80075 91.60207
#
# Poissons Ratio (x) = 0.13786 0.20835
# Poissons Ratio (y) = 0.13734 0.56371
# Poissons Ratio (z) = 0.17629 0.47878
#
# Static dielectric constant tensor:
#      x y z
#    x 1.660590 0.000000 0.000000 
#    y 0.000000 1.676340 0.000000 
#    z 0.000000 0.000000 1.685860 
# 
# From -- ./inp_files/59400.got.cif
#   From: 2010.05.17/outbox.cif.g08.bks.cpg/sg66_30_cif.got.tgz:59400.got - 2010.06.03 17:51:23.
