data_PCOD9496642
_publ_section_title
;
Structure prediction by ZEFSAII (Michael W. Deem and Ramdas Pophale) SiO2 
 PCOD9496642
Probable space group: C C C M
;
_chemical_formula_sum "Si O2"
_cell_formula_units_Z 80
_cell_length_a 14.046491
_cell_length_b 13.132960
_cell_length_c 24.646305
_cell_angle_alpha 90.000000
_cell_angle_beta 90.000000
_cell_angle_gamma 90.000000
_cell_volume 4546.553285
_symmetry_space_group_name_H-M "C C C M"
_symmetry_group_IT_number 66
_symmetry_cell_setting 'orthorhombic'
loop_
_space_group_symop_operation_xyz
x,y,z
-x,-y,z
x,-y,1/2-z
-x,y,1/2-z
-x,-y,-z
x,y,-z
-x,y,1/2+z
x,-y,1/2+z
1/2+x,1/2+y,z
1/2-x,1/2-y,z
1/2+x,1/2-y,1/2-z
1/2-x,1/2+y,1/2-z
1/2-x,1/2-y,-z
1/2+x,1/2+y,-z
1/2-x,1/2+y,1/2+z
1/2+x,1/2-y,1/2+z
loop_
_atom_site_type_symbol
_atom_site_label
_atom_site_fract_x
_atom_site_fract_y
_atom_site_fract_z
Si Si1 0.639608 0.763135 0.885019
Si Si2 0.606527 0.053431 0.000000
Si Si3 0.494077 0.879754 0.185469
Si Si4 0.640690 0.786454 0.597524
Si Si5 0.511675 0.619445 0.062927
Si Si6 0.668761 0.839098 0.000000
O O1 0.750000 0.750000 0.875333
O O2 0.585242 0.823849 0.839556
O O3 0.594348 0.654007 0.896667
O O4 0.619551 0.820571 0.942224
O O5 0.623370 0.125592 0.947774
O O6 0.500000 0.000000 0.000000
O O7 0.683727 0.960800 0.000000
O O8 0.500000 0.866415 0.250000
O O9 0.404458 0.829862 0.153589
O O10 0.500000 0.000000 0.173462
O O11 0.750000 0.750000 0.601139
O O12 0.578506 0.688644 0.578744
O O13 0.500000 0.500000 0.067533
O O14 0.536337 0.641048 0.000000
O O15 0.750000 0.750000 0.000000
#
# Coordination Sequence:
#
# PCOD9496642 Si02
#       6
#    16   8  16  16  16   8
#     4  10  20  36  56  83 112 146 188 231 284 340
#     4  12  21  35  57  84 122 158 187 230 290 351
#     4  10  22  40  61  83 109 148 196 248 295 341
#     4  11  23  38  57  86 119 156 195 236 295 356
#     4  10  20  34  52  78 118 152 186 227 273 339
#     4  10  20  31  51  84 113 142 177 222 276 339
#
# _framework density 17.595748
#
# number of rings (size 3 to 8) (size 9 to 14) (size 15 to 20)
#    0.000    1.600    2.000    4.500    0.000    5.600 
#    0.000    0.000    0.000    9.600    0.000    0.000 
#    0.000    0.000    0.000    0.000    0.000    0.000 
#
# Total GULP energy -223006.598451 kJ/mol
# GULP energy per Si atom -5575.164961 kJ/mol
# Density = 1.755570 g / cm^3
# Si number density = 17.595748 Si / 1000 Ang^3
#
#
#
# Elastic Constant Matrix: (Units=GPa)
#
#
# Indices 1 2 3 4 5 6 
#
# 1 148.8937 66.7844 49.9653 0.0000 0.0000 0.0000
# 2 66.7844 142.6288 64.0648 0.0000 0.0000 0.0000
# 3 49.9653 64.0648 107.1902 0.0000 0.0000 0.0000
# 4 0.0000 0.0000 0.0000 26.8908 0.0000 0.0000
# 5 0.0000 0.0000 0.0000 0.0000 6.6406 0.0000
# 6 0.0000 0.0000 0.0000 0.0000 0.0000 17.9949
#
#
#
# Elastic Compliance Matrix: (Units=1/GPa)
#
#
# Indices 1 2 3 4 5 6 
#
# 1 0.008886 -0.003144 -0.002263 0.000000 0.000000 0.000000
# 2 -0.003144 0.010697 -0.004928 0.000000 0.000000 0.000000
# 3 -0.002263 -0.004928 0.013329 0.000000 0.000000 0.000000
# 4 0.000000 0.000000 0.000000 0.037187 0.000000 0.000000
# 5 0.000000 0.000000 0.000000 0.000000 0.150588 0.000000
# 6 0.000000 0.000000 0.000000 0.000000 0.000000 0.055571
#
#
# Mechanical properties :
#
#
# Convention : Reuss Voigt Hill
#
# Bulk Modulus (GPa) = 81.68274 84.48243 83.08259
# Shear Modulus (GPa) = 16.61085 24.83182 20.72133
#
# Velocity S-wave (km/s) = 3.07583 3.76072 3.43539
# Velocity P-wave (km/s) = 7.69006 8.18380 7.94077
#
# Compressibility (1/GPa) = 0.01224249
#
# Stress axis : x y z
#
# Youngs Moduli (GPa) = 112.53804 93.48570 75.02436
#
# Poissons Ratio (x) = 0.29395 0.16976
# Poissons Ratio (y) = 0.35386 0.36968
# Poissons Ratio (z) = 0.25464 0.46065
#
# Static dielectric constant tensor:
#      x y z
#    x 1.660580 0.000000 0.000000 
#    y 0.000000 1.624010 0.000000 
#    z 0.000000 0.000000 1.587350 
# 
# From -- ./inp_files/57962.got.cif
#   From: 2010.05.17/outbox.cif.g08.bks.cpg/sg66_29_cif.got.tgz:57962.got - 2010.06.03 17:51:23.
