data_PCOD9496288
_publ_section_title
;
Structure prediction by ZEFSAII (Michael W. Deem and Ramdas Pophale) SiO2 
 PCOD9496288
Probable space group: C C C M
;
_chemical_formula_sum "Si O2"
_cell_formula_units_Z 112
_cell_length_a 19.463326
_cell_length_b 19.057071
_cell_length_c 17.473955
_cell_angle_alpha 90.000000
_cell_angle_beta 90.000000
_cell_angle_gamma 90.000000
_cell_volume 6481.334291
_symmetry_space_group_name_H-M "C C C M"
_symmetry_group_IT_number 66
_symmetry_cell_setting 'orthorhombic'
loop_
_space_group_symop_operation_xyz
x,y,z
-x,-y,z
x,-y,1/2-z
-x,y,1/2-z
-x,-y,-z
x,y,-z
-x,y,1/2+z
x,-y,1/2+z
1/2+x,1/2+y,z
1/2-x,1/2-y,z
1/2+x,1/2-y,1/2-z
1/2-x,1/2+y,1/2-z
1/2-x,1/2-y,-z
1/2+x,1/2+y,-z
1/2-x,1/2+y,1/2+z
1/2+x,1/2-y,1/2+z
loop_
_atom_site_type_symbol
_atom_site_label
_atom_site_fract_x
_atom_site_fract_y
_atom_site_fract_z
Si Si1 0.408846 0.348823 0.410041
Si Si2 0.495700 0.919573 0.091124
Si Si3 0.340642 0.582970 0.240925
Si Si4 0.066092 0.316196 0.193231
Si Si5 0.456704 0.340404 0.829160
Si Si6 0.213909 0.323553 0.270737
Si Si7 0.869761 0.314403 0.910547
O O1 0.392093 0.361831 0.500000
O O2 0.367158 0.389795 0.343159
O O3 0.489245 0.364752 0.392949
O O4 0.398140 0.264719 0.394628
O O5 0.555125 0.875871 0.131221
O O6 0.426065 0.874889 0.106999
O O7 0.500000 0.000000 0.118048
O O8 0.503641 0.919598 0.000000
O O9 0.341714 0.500000 0.250000
O O10 0.391223 0.614129 0.306007
O O11 0.265177 0.615035 0.251672
O O12 0.064852 0.239395 0.155812
O O13 0.138148 0.325454 0.235276
O O14 0.000000 0.320153 0.250000
O O15 0.500000 0.339071 0.750000
O O16 0.250000 0.250000 0.251564
O O17 0.198035 0.325209 0.361078
O O18 0.855271 0.317764 0.000000
#
# Coordination Sequence:
#
# PCOD9496288 Si02
#       7
#    16  16  16  16  16  16  16
#     4  10  19  35  64  93 113 147 198 245 290 346
#     4  10  21  36  56  86 121 150 184 240 301 341
#     4  11  24  39  55  82 124 159 188 239 305 343
#     4  11  19  35  60  84 113 151 196 242 278 339
#     4   9  17  33  57  83 112 149 189 232 280 343
#     4  12  21  36  58  87 117 154 198 236 282 351
#     4  10  19  34  58  88 119 149 185 237 297 347
#
# _framework density 17.280393
#
# number of rings (size 3 to 8) (size 9 to 14) (size 15 to 20)
#    0.000    1.571    5.714    0.857    0.000    4.857 
#    0.000    1.429    0.000    2.143    0.000    0.000 
#    0.000    0.000    0.000    0.000    0.000    0.000 
#
# Total GULP energy -312150.743325 kJ/mol
# GULP energy per Si atom -5574.120417 kJ/mol
# Density = 1.724106 g / cm^3
# Si number density = 17.280393 Si / 1000 Ang^3
#
#
#
# Elastic Constant Matrix: (Units=GPa)
#
#
# Indices 1 2 3 4 5 6 
#
# 1 103.8956 45.4728 15.4677 0.0000 0.0000 0.0000
# 2 45.4728 135.9044 25.4600 0.0000 0.0000 0.0000
# 3 15.4677 25.4600 17.8541 0.0000 0.0000 0.0000
# 4 0.0000 0.0000 0.0000 20.4461 0.0000 0.0000
# 5 0.0000 0.0000 0.0000 0.0000 26.7819 0.0000
# 6 0.0000 0.0000 0.0000 0.0000 0.0000 22.0807
#
#
#
# Elastic Compliance Matrix: (Units=1/GPa)
#
#
# Indices 1 2 3 4 5 6 
#
# 1 0.011766 -0.002766 -0.006249 0.000000 0.000000 0.000000
# 2 -0.002766 0.010691 -0.012848 0.000000 0.000000 0.000000
# 3 -0.006249 -0.012848 0.079745 0.000000 0.000000 0.000000
# 4 0.000000 0.000000 0.000000 0.048909 0.000000 0.000000
# 5 0.000000 0.000000 0.000000 0.000000 0.037339 0.000000
# 6 0.000000 0.000000 0.000000 0.000000 0.000000 0.045288
#
#
# Mechanical properties :
#
#
# Convention : Reuss Voigt Hill
#
# Bulk Modulus (GPa) = 17.10134 47.82833 32.46483
# Shear Modulus (GPa) = 16.83749 25.27865 21.05807
#
# Velocity S-wave (km/s) = 3.12488 3.82887 3.49465
# Velocity P-wave (km/s) = 4.78933 6.87640 5.92548
#
# Compressibility (1/GPa) = 0.05847494
#
# Stress axis : x y z
#
# Youngs Moduli (GPa) = 84.99022 93.53955 12.53997
#
# Poissons Ratio (x) = 0.25875 0.07836
# Poissons Ratio (y) = 0.23510 0.16112
# Poissons Ratio (z) = 0.53108 1.20184
#
# Static dielectric constant tensor:
#      x y z
#    x 1.619530 0.000000 0.000000 
#    y 0.000000 1.591230 0.000000 
#    z 0.000000 0.000000 1.606580 
# 
# From -- ./inp_files/41991.got.cif
#   From: 2010.05.17/outbox.cif.g08.bks.cpg/sg66_21_cif.got.tgz:41991.got - 2010.06.03 17:51:23.
