data_PCOD9496587
_publ_section_title
;
Structure prediction by ZEFSAII (Michael W. Deem and Ramdas Pophale) SiO2 
 PCOD9496587
Probable space group: C C C M
;
_chemical_formula_sum "Si O2"
_cell_formula_units_Z 76
_cell_length_a 7.243638
_cell_length_b 26.637114
_cell_length_c 14.452028
_cell_angle_alpha 90.000000
_cell_angle_beta 90.000000
_cell_angle_gamma 90.000000
_cell_volume 2788.513183
_symmetry_space_group_name_H-M "C C C M"
_symmetry_group_IT_number 66
_symmetry_cell_setting 'orthorhombic'
loop_
_space_group_symop_operation_xyz
x,y,z
-x,-y,z
x,-y,1/2-z
-x,y,1/2-z
-x,-y,-z
x,y,-z
-x,y,1/2+z
x,-y,1/2+z
1/2+x,1/2+y,z
1/2-x,1/2-y,z
1/2+x,1/2-y,1/2-z
1/2-x,1/2+y,1/2-z
1/2-x,1/2-y,-z
1/2+x,1/2+y,-z
1/2-x,1/2+y,1/2+z
1/2+x,1/2-y,1/2+z
loop_
_atom_site_type_symbol
_atom_site_label
_atom_site_fract_x
_atom_site_fract_y
_atom_site_fract_z
Si Si1 0.120844 0.419257 0.894082
Si Si2 0.004961 0.201788 0.145565
Si Si3 0.000000 0.500000 0.250000
Si Si4 0.677683 0.627752 0.500000
Si Si5 0.062495 0.689116 0.607050
Si Si6 0.517205 0.440986 0.860419
O O1 0.104319 0.463505 0.820333
O O2 0.034712 0.367250 0.857745
O O3 0.341172 0.411842 0.901175
O O4 0.059906 0.429395 0.000000
O O5 0.872635 0.170286 0.080454
O O6 0.966835 0.261801 0.147281
O O7 0.216786 0.197698 0.111226
O O8 0.000000 0.182724 0.250000
O O9 0.683912 0.583591 0.583224
O O10 0.005305 0.684835 0.500000
O O11 0.500000 0.500000 0.881730
O O12 0.500000 0.435812 0.750000
#
# Coordination Sequence:
#
# PCOD9496587 Si02
#       6
#    16  16   4   8  16  16
#     4  11  23  43  63  86 121 161 206 253 295 355
#     4  11  20  33  59  90 113 149 193 242 295 351
#     4  12  26  40  62  90 116 164 214 250 294 354
#     4  12  19  35  56  92 122 152 188 240 308 364
#     4  10  19  39  61  83 112 153 202 244 283 346
#     4  11  22  38  62  93 124 157 199 246 305 361
#
# _framework density 27.254670000000001
#
# number of rings (size 3 to 8) (size 9 to 14) (size 15 to 20)
#    0.000    1.053    5.263    3.158    1.474    0.000 
#    0.000    0.000    0.000    2.526    0.000    0.000 
#    0.000    0.000    0.000    0.000    0.000    0.000 
#
# Total GULP energy -211976.747085 kJ/mol
# GULP energy per Si atom -5578.335450 kJ/mol
# Density = 2.719264 g / cm^3
# Si number density = 27.254670 Si / 1000 Ang^3
#
#
#
# Elastic Constant Matrix: (Units=GPa)
#
#
# Indices 1 2 3 4 5 6 
#
# 1 93.0079 20.6356 5.7685 0.0000 0.0000 0.0000
# 2 20.6356 226.0816 48.0817 0.0000 0.0000 0.0000
# 3 5.7685 48.0817 197.7312 0.0000 0.0000 0.0000
# 4 0.0000 0.0000 0.0000 84.1147 0.0000 0.0000
# 5 0.0000 0.0000 0.0000 0.0000 296.4526 0.0000
# 6 0.0000 0.0000 0.0000 0.0000 0.0000 -49.5751
#
#
#
# Elastic Compliance Matrix: (Units=1/GPa)
#
#
# Indices 1 2 3 4 5 6 
#
# 1 0.010975 -0.000985 -0.000081 0.000000 0.000000 0.000000
# 2 -0.000985 0.004753 -0.001127 0.000000 0.000000 0.000000
# 3 -0.000081 -0.001127 0.005334 0.000000 0.000000 0.000000
# 4 0.000000 0.000000 0.000000 0.011889 0.000000 0.000000
# 5 0.000000 0.000000 0.000000 0.000000 0.003373 0.000000
# 6 0.000000 0.000000 0.000000 0.000000 0.000000 -0.020171
#
#
# Mechanical properties :
#
#
# Convention : Reuss Voigt Hill
#
# Bulk Modulus (GPa) = 59.96260 73.97692 66.96976
# Shear Modulus (GPa) = 191.60191 95.68742 143.64466
#
# Velocity S-wave (km/s) = 8.39364 5.93168 7.26767
# Velocity P-wave (km/s) = 10.76969 8.60900 9.74939
#
# Compressibility (1/GPa) = 0.01667706
#
# Stress axis : x y z
#
# Youngs Moduli (GPa) = 91.11427 210.40544 187.48454
#
# Poissons Ratio (x) = 0.20716 0.01514
# Poissons Ratio (y) = 0.08971 0.21129
# Poissons Ratio (z) = 0.00736 0.23712
#
# Static dielectric constant tensor:
#      x y z
#    x 2.394640 0.000000 0.000000 
#    y 0.000000 2.147240 0.000000 
#    z 0.000000 0.000000 2.149910 
# 
# From -- ./inp_files/26729.got.cif
#   From: 2010.05.17/outbox.cif.g08.bks.cpg/sg66_14_cif.got.tgz:26729.got - 2010.06.03 17:51:23.
