data_PCOD9496107
_publ_section_title
;
Structure prediction by ZEFSAII (Michael W. Deem and Ramdas Pophale) SiO2 
 PCOD9496107
Probable space group: C C C M
;
_chemical_formula_sum "Si O2"
_cell_formula_units_Z 96
_cell_length_a 29.559621
_cell_length_b 18.943965
_cell_length_c 8.765034
_cell_angle_alpha 90.000000
_cell_angle_beta 90.000000
_cell_angle_gamma 90.000000
_cell_volume 4908.212410
_symmetry_space_group_name_H-M "C C C M"
_symmetry_group_IT_number 66
_symmetry_cell_setting 'orthorhombic'
loop_
_space_group_symop_operation_xyz
x,y,z
-x,-y,z
x,-y,1/2-z
-x,y,1/2-z
-x,-y,-z
x,y,-z
-x,y,1/2+z
x,-y,1/2+z
1/2+x,1/2+y,z
1/2-x,1/2-y,z
1/2+x,1/2-y,1/2-z
1/2-x,1/2+y,1/2-z
1/2-x,1/2-y,-z
1/2+x,1/2+y,-z
1/2-x,1/2+y,1/2+z
1/2+x,1/2-y,1/2+z
loop_
_atom_site_type_symbol
_atom_site_label
_atom_site_fract_x
_atom_site_fract_y
_atom_site_fract_z
Si Si1 0.779026 0.186434 0.673469
Si Si2 0.108857 0.424156 0.680478
Si Si3 0.795453 0.567040 0.171353
Si Si4 0.854390 0.077009 0.314535
Si Si5 0.048924 0.301070 0.182677
Si Si6 0.450969 0.637215 0.683304
O O1 0.791928 0.211003 0.500000
O O2 0.750000 0.250000 0.748864
O O3 0.740938 0.127176 0.662074
O O4 0.822512 0.143396 0.735937
O O5 0.094278 0.500000 0.750000
O O6 0.102914 0.425430 0.500000
O O7 0.161177 0.415470 0.727623
O O8 0.083140 0.358014 0.751649
O O9 0.773080 0.500000 0.250000
O O10 0.811552 0.550154 0.000000
O O11 0.850813 0.075063 0.500000
O O12 0.906618 0.093160 0.271224
O O13 0.841500 0.000000 0.250000
O O14 0.058047 0.219374 0.225697
O O15 0.000000 0.318486 0.250000
O O16 0.048686 0.304984 0.000000
O O17 0.500000 0.616396 0.750000
O O18 0.454415 0.633840 0.500000
#
# Coordination Sequence:
#
# PCOD9496107 Si02
#       6
#    16  16  16  16  16  16
#     4   9  19  34  57  85 112 147 193 236 280 339
#     4  11  22  36  54  79 110 147 190 236 284 341
#     4  10  19  33  55  79 107 146 185 230 280 333
#     4  10  21  38  60  88 118 154 194 238 289 343
#     4  10  20  36  57  82 110 146 187 236 290 346
#     4   9  20  37  60  86 116 152 193 237 288 349
#
# _framework density 19.559055000000001
#
# number of rings (size 3 to 8) (size 9 to 14) (size 15 to 20)
#    0.000    2.167    0.000    4.000    2.333    2.000 
#    0.000    4.167    0.000    2.500    0.000    0.000 
#    0.000    0.000    0.000    0.000    0.000    0.000 
#
# Total GULP energy -267582.824287 kJ/mol
# GULP energy per Si atom -5574.642173 kJ/mol
# Density = 1.951454 g / cm^3
# Si number density = 19.559055 Si / 1000 Ang^3
#
#
#
# Elastic Constant Matrix: (Units=GPa)
#
#
# Indices 1 2 3 4 5 6 
#
# 1 95.0762 65.3666 18.4434 0.0000 0.0000 0.0000
# 2 65.3666 65.8760 14.6520 0.0000 0.0000 0.0000
# 3 18.4434 14.6520 54.8200 0.0000 0.0000 0.0000
# 4 0.0000 0.0000 0.0000 -92.8658 0.0000 0.0000
# 5 0.0000 0.0000 0.0000 0.0000 -1.4038 0.0000
# 6 0.0000 0.0000 0.0000 0.0000 0.0000 38.1925
#
#
#
# Elastic Compliance Matrix: (Units=1/GPa)
#
#
# Indices 1 2 3 4 5 6 
#
# 1 0.033423 -0.032602 -0.002531 0.000000 0.000000 0.000000
# 2 -0.032602 0.047940 -0.001845 0.000000 0.000000 0.000000
# 3 -0.002531 -0.001845 0.019586 0.000000 0.000000 0.000000
# 4 0.000000 0.000000 0.000000 -0.010768 0.000000 0.000000
# 5 0.000000 0.000000 0.000000 0.000000 -0.712366 0.000000
# 6 0.000000 0.000000 0.000000 0.000000 0.000000 0.026183
#
#
# Mechanical properties :
#
#
# Convention : Reuss Voigt Hill
#
# Bulk Modulus (GPa) = 37.04520 45.85514 41.45017
# Shear Modulus (GPa) = -9.74568 -3.39474 -6.57021
#
# Velocity S-wave (km/s) = -2.23462 -1.31886 -1.83479
# Velocity P-wave (km/s) = 3.51045 4.60175 4.09264
#
# Compressibility (1/GPa) = 0.02699405
#
# Stress axis : x y z
#
# Youngs Moduli (GPa) = 29.91931 20.85936 51.05656
#
# Poissons Ratio (x) = 0.68005 0.12923
# Poissons Ratio (y) = 0.97542 0.09418
# Poissons Ratio (z) = 0.07573 0.03848
#
# Static dielectric constant tensor:
#      x y z
#    x 1.708170 0.000000 0.000000 
#    y 0.000000 1.710560 0.000000 
#    z 0.000000 0.000000 1.713840 
# 
# From -- ./inp_files/10255.got.cif
#   From: 2010.05.17/outbox.cif.g08.bks.cpg/sg66_6_cif.got.tgz:10255.got - 2010.06.03 17:51:23.
