data_PCOD9496941
_publ_section_title
;
Structure prediction by ZEFSAII (Michael W. Deem and Ramdas Pophale) SiO2 
 PCOD9496941
Probable space group: C C C M
;
_chemical_formula_sum "Si O2"
_cell_formula_units_Z 96
_cell_length_a 11.516953
_cell_length_b 23.133706
_cell_length_c 18.513733
_cell_angle_alpha 90.000000
_cell_angle_beta 90.000000
_cell_angle_gamma 90.000000
_cell_volume 4932.610268
_symmetry_space_group_name_H-M "C C C M"
_symmetry_group_IT_number 66
_symmetry_cell_setting 'orthorhombic'
loop_
_space_group_symop_operation_xyz
x,y,z
-x,-y,z
x,-y,1/2-z
-x,y,1/2-z
-x,-y,-z
x,y,-z
-x,y,1/2+z
x,-y,1/2+z
1/2+x,1/2+y,z
1/2-x,1/2-y,z
1/2+x,1/2-y,1/2-z
1/2-x,1/2+y,1/2-z
1/2-x,1/2-y,-z
1/2+x,1/2+y,-z
1/2-x,1/2+y,1/2+z
1/2+x,1/2-y,1/2+z
loop_
_atom_site_type_symbol
_atom_site_label
_atom_site_fract_x
_atom_site_fract_y
_atom_site_fract_z
Si Si1 0.310029 0.017694 0.671607
Si Si2 0.443030 0.562624 0.174013
Si Si3 0.954434 0.164007 0.413392
Si Si4 0.620099 0.233045 0.088172
Si Si5 0.542556 0.107744 0.085231
Si Si6 0.771221 0.598430 0.914745
O O1 0.194034 0.055384 0.682858
O O2 0.404633 0.053654 0.627392
O O3 0.354873 0.000000 0.750000
O O4 0.265283 0.961076 0.629186
O O5 0.500000 0.500000 0.157405
O O6 0.500000 0.581181 0.250000
O O7 0.472074 0.609163 0.113500
O O8 0.954170 0.167502 0.500000
O O9 0.822610 0.146731 0.391388
O O10 0.020459 0.221824 0.387281
O O11 0.750000 0.250000 0.110229
O O12 0.598249 0.167484 0.110848
O O13 0.616823 0.233391 0.000000
O O14 0.404898 0.116094 0.093153
O O15 0.566815 0.099056 0.000000
O O16 0.750240 0.586852 0.000000
#
# Coordination Sequence:
#
# PCOD9496941 Si02
#       6
#    16  16  16  16  16  16
#     4  12  22  36  58  83 114 156 193 242 292 351
#     4  11  20  37  55  82 117 152 185 232 300 353
#     4  10  20  34  59  88 115 149 195 244 286 348
#     4   9  18  35  57  84 113 145 188 236 288 344
#     4  10  22  38  57  83 118 155 191 239 295 347
#     4  10  21  36  54  83 117 150 192 238 292 349
#
# _framework density 19.462313000000002
#
# number of rings (size 3 to 8) (size 9 to 14) (size 15 to 20)
#    0.000    1.667    3.333    2.000    0.000    6.333 
#    0.000    3.333    3.667    0.000    0.000    0.000 
#    0.000    0.000    0.000    0.000    0.000    0.000 
#
# Total GULP energy -267862.655510 kJ/mol
# GULP energy per Si atom -5580.471990 kJ/mol
# Density = 1.941802 g / cm^3
# Si number density = 19.462313 Si / 1000 Ang^3
#
#
#
# Elastic Constant Matrix: (Units=GPa)
#
#
# Indices 1 2 3 4 5 6 
#
# 1 103.3439 55.2303 46.4540 0.0000 0.0000 0.0000
# 2 55.2303 80.9464 29.1986 0.0000 0.0000 0.0000
# 3 46.4540 29.1986 26.2595 0.0000 0.0000 0.0000
# 4 0.0000 0.0000 0.0000 -3.0867 0.0000 0.0000
# 5 0.0000 0.0000 0.0000 0.0000 10.3248 0.0000
# 6 0.0000 0.0000 0.0000 0.0000 0.0000 31.6296
#
#
#
# Elastic Compliance Matrix: (Units=1/GPa)
#
#
# Indices 1 2 3 4 5 6 
#
# 1 0.047844 -0.003530 -0.080713 0.000000 0.000000 0.000000
# 2 -0.003530 0.020888 -0.016981 0.000000 0.000000 0.000000
# 3 -0.080713 -0.016981 0.199747 0.000000 0.000000 0.000000
# 4 0.000000 0.000000 0.000000 -0.323972 0.000000 0.000000
# 5 0.000000 0.000000 0.000000 0.000000 0.096854 0.000000
# 6 0.000000 0.000000 0.000000 0.000000 0.000000 0.031616
#
#
# Mechanical properties :
#
#
# Convention : Reuss Voigt Hill
#
# Bulk Modulus (GPa) = 15.14429 52.47949 33.81189
# Shear Modulus (GPa) = 16.81033 13.08467 14.94750
#
# Velocity S-wave (km/s) = 2.94213 2.59570 2.77433
# Velocity P-wave (km/s) = 4.39770 6.00056 5.26054
#
# Compressibility (1/GPa) = 0.06603150
#
# Stress axis : x y z
#
# Youngs Moduli (GPa) = 20.90109 47.87525 5.00632
#
# Poissons Ratio (x) = 0.16900 0.40408
# Poissons Ratio (y) = 0.07378 0.08501
# Poissons Ratio (z) = 1.68700 0.81295
#
# Static dielectric constant tensor:
#      x y z
#    x 1.728210 0.000000 0.000000 
#    y 0.000000 1.669750 0.000000 
#    z 0.000000 0.000000 1.666610 
# 
# From -- ./inp_files/43608.got.cif
#   From: 2010.05.17/outbox.cif.g08.bks.cpg/sg66_22_cif.got.tgz:43608.got - 2010.06.03 17:51:23.
