data_PCOD9496436
_publ_section_title
;
Structure prediction by ZEFSAII (Michael W. Deem and Ramdas Pophale) SiO2 
 PCOD9496436
Probable space group: C C C M
;
_chemical_formula_sum "Si O2"
_cell_formula_units_Z 112
_cell_length_a 19.948240
_cell_length_b 11.613672
_cell_length_c 28.253055
_cell_angle_alpha 90.000000
_cell_angle_beta 90.000000
_cell_angle_gamma 90.000000
_cell_volume 6545.450695
_symmetry_space_group_name_H-M "C C C M"
_symmetry_group_IT_number 66
_symmetry_cell_setting 'orthorhombic'
loop_
_space_group_symop_operation_xyz
x,y,z
-x,-y,z
x,-y,1/2-z
-x,y,1/2-z
-x,-y,-z
x,y,-z
-x,y,1/2+z
x,-y,1/2+z
1/2+x,1/2+y,z
1/2-x,1/2-y,z
1/2+x,1/2-y,1/2-z
1/2-x,1/2+y,1/2-z
1/2-x,1/2-y,-z
1/2+x,1/2+y,-z
1/2-x,1/2+y,1/2+z
1/2+x,1/2-y,1/2+z
loop_
_atom_site_type_symbol
_atom_site_label
_atom_site_fract_x
_atom_site_fract_y
_atom_site_fract_z
Si Si1 0.363171 0.773459 0.553514
Si Si2 0.942197 0.658138 0.146327
Si Si3 0.268544 0.565249 0.446763
Si Si4 0.714825 0.626740 0.732039
Si Si5 0.765700 0.370819 0.126735
Si Si6 0.412424 0.893878 0.169210
Si Si7 0.422563 0.728049 0.257106
O O1 0.391824 0.778847 0.500000
O O2 0.410592 0.813887 0.595777
O O3 0.332779 0.646406 0.561799
O O4 0.297558 0.854587 0.553727
O O5 0.924505 0.530190 0.165179
O O6 0.915721 0.739653 0.187975
O O7 0.022793 0.663971 0.145034
O O8 0.274284 0.517083 0.500000
O O9 0.256418 0.472603 0.406826
O O10 0.739597 0.500000 0.750000
O O11 0.750000 0.750000 0.748357
O O12 0.725412 0.624641 0.675912
O O13 0.636628 0.641554 0.743931
O O14 0.750000 0.250000 0.102587
O O15 0.843114 0.372512 0.142538
O O16 0.411709 0.839002 0.222020
O O17 0.500000 0.690849 0.250000
#
# Coordination Sequence:
#
# PCOD9496436 Si02
#       7
#    16  16  16  16  16  16  16
#     4   9  18  35  56  85 114 139 186 246 283 329
#     4  10  20  32  60  81 111 157 190 226 292 351
#     4   9  19  35  57  82 111 146 186 233 289 341
#     4  11  25  38  57  87 118 154 192 241 287 339
#     4  11  21  37  57  77 119 146 181 238 286 333
#     4  10  19  36  50  85 117 150 188 232 283 341
#     4  10  21  38  56  80 117 155 197 230 279 345
#
# _framework density 17.111122000000002
#
# number of rings (size 3 to 8) (size 9 to 14) (size 15 to 20)
#    0.000    2.000    4.286    1.286    4.000    2.286 
#    0.000    2.143    0.000    0.857    0.000    2.000 
#    0.000    0.000    0.000    0.000    0.000    0.000 
#
# Total GULP energy -311909.868478 kJ/mol
# GULP energy per Si atom -5569.819080 kJ/mol
# Density = 1.707218 g / cm^3
# Si number density = 17.111122 Si / 1000 Ang^3
#
#
#
# Elastic Constant Matrix: (Units=GPa)
#
#
# Indices 1 2 3 4 5 6 
#
# 1 60.1015 23.8484 24.3419 0.0000 0.0000 0.0000
# 2 23.8484 82.2791 41.9298 0.0000 0.0000 0.0000
# 3 24.3419 41.9298 91.7328 0.0000 0.0000 0.0000
# 4 0.0000 0.0000 0.0000 31.2630 0.0000 0.0000
# 5 0.0000 0.0000 0.0000 0.0000 22.2990 0.0000
# 6 0.0000 0.0000 0.0000 0.0000 0.0000 18.7786
#
#
#
# Elastic Compliance Matrix: (Units=1/GPa)
#
#
# Indices 1 2 3 4 5 6 
#
# 1 0.019578 -0.003946 -0.003391 0.000000 0.000000 0.000000
# 2 -0.003946 0.016640 -0.006559 0.000000 0.000000 0.000000
# 3 -0.003391 -0.006559 0.014799 0.000000 0.000000 0.000000
# 4 0.000000 0.000000 0.000000 0.031987 0.000000 0.000000
# 5 0.000000 0.000000 0.000000 0.000000 0.044845 0.000000
# 6 0.000000 0.000000 0.000000 0.000000 0.000000 0.053252
#
#
# Mechanical properties :
#
#
# Convention : Reuss Voigt Hill
#
# Bulk Modulus (GPa) = 43.05861 46.03929 44.54895
# Shear Modulus (GPa) = 23.08031 24.06768 23.57399
#
# Velocity S-wave (km/s) = 3.67665 3.75447 3.71576
# Velocity P-wave (km/s) = 6.57590 6.76456 6.67089
#
# Compressibility (1/GPa) = 0.02322416
#
# Stress axis : x y z
#
# Youngs Moduli (GPa) = 51.07784 60.09630 67.57207
#
# Poissons Ratio (x) = 0.23716 0.22916
# Poissons Ratio (y) = 0.20157 0.44318
# Poissons Ratio (z) = 0.17322 0.39415
#
# Static dielectric constant tensor:
#      x y z
#    x 1.589980 0.000000 0.000000 
#    y 0.000000 1.621800 0.000000 
#    z 0.000000 0.000000 1.555450 
# 
# From -- ./inp_files/65829.got.cif
#   From: 2010.05.17/outbox.cif.g08.bks.cpg/sg66_33_cif.got.tgz:65829.got - 2010.06.03 17:51:23.
