data_PCOD9496675
_publ_section_title
;
Structure prediction by ZEFSAII (Michael W. Deem and Ramdas Pophale) SiO2 
 PCOD9496675
Probable space group: C C C M
;
_chemical_formula_sum "Si O2"
_cell_formula_units_Z 116
_cell_length_a 27.169066
_cell_length_b 22.207361
_cell_length_c 9.312280
_cell_angle_alpha 90.000000
_cell_angle_beta 90.000000
_cell_angle_gamma 90.000000
_cell_volume 5618.594465
_symmetry_space_group_name_H-M "C C C M"
_symmetry_group_IT_number 66
_symmetry_cell_setting 'orthorhombic'
loop_
_space_group_symop_operation_xyz
x,y,z
-x,-y,z
x,-y,1/2-z
-x,y,1/2-z
-x,-y,-z
x,y,-z
-x,y,1/2+z
x,-y,1/2+z
1/2+x,1/2+y,z
1/2-x,1/2-y,z
1/2+x,1/2-y,1/2-z
1/2-x,1/2+y,1/2-z
1/2-x,1/2-y,-z
1/2+x,1/2+y,-z
1/2-x,1/2+y,1/2+z
1/2+x,1/2-y,1/2+z
loop_
_atom_site_type_symbol
_atom_site_label
_atom_site_fract_x
_atom_site_fract_y
_atom_site_fract_z
Si Si1 0.931458 0.176409 0.338974
Si Si2 0.574541 0.440746 0.834350
Si Si3 0.750000 0.250000 0.500000
Si Si4 0.808590 0.080231 0.844358
Si Si5 0.150501 0.659859 0.167880
Si Si6 0.048889 0.316260 0.171567
Si Si7 0.785387 0.439824 0.671226
Si Si8 0.321579 0.292597 0.245664
O O1 0.944749 0.157867 0.500000
O O2 0.943396 0.122471 0.231393
O O3 0.951484 0.243375 0.311822
O O4 0.872924 0.187508 0.326701
O O5 0.558389 0.500000 0.750000
O O6 0.634686 0.438447 0.825720
O O7 0.560892 0.444891 0.000000
O O8 0.718471 0.284410 0.375672
O O9 0.772062 0.063420 0.716402
O O10 0.807836 0.152587 0.846942
O O11 0.790539 0.057258 0.000000
O O12 0.097641 0.660135 0.248123
O O13 0.186830 0.616525 0.256219
O O14 0.169587 0.728529 0.179652
O O15 0.147062 0.642976 0.000000
O O16 0.000000 0.339770 0.250000
O O17 0.050385 0.328543 0.000000
O O18 0.804774 0.500000 0.750000
O O19 0.791828 0.439705 0.500000
#
# Coordination Sequence:
#
# PCOD9496675 Si02
#       8
#    16  16   4  16  16  16  16  16
#     4   9  18  34  52  77 113 147 185 231 279 337
#     4  10  20  32  50  75 106 150 199 245 287 332
#     4  12  20  28  46  76 112 148 194 228 280 334
#     4  10  21  36  53  77 111 150 199 247 289 334
#     4  11  23  40  62  86 119 153 192 241 293 346
#     4  10  21  38  64  95 122 147 181 226 291 359
#     4  12  26  41  58  78 109 152 199 242 289 341
#     4  10  21  31  54  80 115 149 193 232 290 337
#
# _framework density 20.645734000000001
#
# number of rings (size 3 to 8) (size 9 to 14) (size 15 to 20)
#    0.000    1.655    0.690    4.138    4.828    6.069 
#    0.000    2.069    0.000    0.828    0.000    5.793 
#    0.000    0.000    0.000    0.000    0.000    0.000 
#
# Total GULP energy -323565.836275 kJ/mol
# GULP energy per Si atom -5578.721315 kJ/mol
# Density = 2.059874 g / cm^3
# Si number density = 20.645734 Si / 1000 Ang^3
#
#
#
# Elastic Constant Matrix: (Units=GPa)
#
#
# Indices 1 2 3 4 5 6 
#
# 1 53.9428 21.8807 56.3192 0.0000 0.0000 0.0000
# 2 21.8807 71.1241 30.9416 0.0000 0.0000 0.0000
# 3 56.3192 30.9416 160.2922 0.0000 0.0000 0.0000
# 4 0.0000 0.0000 0.0000 19.9309 0.0000 0.0000
# 5 0.0000 0.0000 0.0000 0.0000 5.8575 0.0000
# 6 0.0000 0.0000 0.0000 0.0000 0.0000 -3.8630
#
#
#
# Elastic Compliance Matrix: (Units=1/GPa)
#
#
# Indices 1 2 3 4 5 6 
#
# 1 0.030965 -0.005232 -0.009870 0.000000 0.000000 0.000000
# 2 -0.005232 0.016233 -0.001295 0.000000 0.000000 0.000000
# 3 -0.009870 -0.001295 0.009956 0.000000 0.000000 0.000000
# 4 0.000000 0.000000 0.000000 0.050173 0.000000 0.000000
# 5 0.000000 0.000000 0.000000 0.000000 0.170722 0.000000
# 6 0.000000 0.000000 0.000000 0.000000 0.000000 -0.258869
#
#
# Mechanical properties :
#
#
# Convention : Reuss Voigt Hill
#
# Bulk Modulus (GPa) = 41.05078 55.96025 48.50551
# Shear Modulus (GPa) = 83.20280 16.13294 49.66787
#
# Velocity S-wave (km/s) = 6.35513 2.79842 4.91014
# Velocity P-wave (km/s) = 8.58935 6.13232 7.46265
#
# Compressibility (1/GPa) = 0.02436007
#
# Stress axis : x y z
#
# Youngs Moduli (GPa) = 32.29452 61.60272 100.43874
#
# Poissons Ratio (x) = 0.32233 0.99129
# Poissons Ratio (y) = 0.16898 0.13007
# Poissons Ratio (z) = 0.31873 0.07978
#
# Static dielectric constant tensor:
#      x y z
#    x 1.757880 0.000000 0.000000 
#    y 0.000000 1.746130 0.000000 
#    z 0.000000 0.000000 1.711230 
# 
# From -- ./inp_files/9606.got.cif
#   From: 2010.05.17/outbox.cif.g08.bks.cpg/sg66_5_cif.got.tgz:9606.got - 2010.06.03 17:51:23.
