data_PCOD9496673
_publ_section_title
;
Structure prediction by ZEFSAII (Michael W. Deem and Ramdas Pophale) SiO2 
 PCOD9496673
Probable space group: C C C M
;
_chemical_formula_sum "Si O2"
_cell_formula_units_Z 64
_cell_length_a 4.989688
_cell_length_b 25.045724
_cell_length_c 24.611890
_cell_angle_alpha 90.000000
_cell_angle_beta 90.000000
_cell_angle_gamma 90.000000
_cell_volume 3075.756470
_symmetry_space_group_name_H-M "C C C M"
_symmetry_group_IT_number 66
_symmetry_cell_setting 'orthorhombic'
loop_
_space_group_symop_operation_xyz
x,y,z
-x,-y,z
x,-y,1/2-z
-x,y,1/2-z
-x,-y,-z
x,y,-z
-x,y,1/2+z
x,-y,1/2+z
1/2+x,1/2+y,z
1/2-x,1/2-y,z
1/2+x,1/2-y,1/2-z
1/2-x,1/2+y,1/2-z
1/2-x,1/2-y,-z
1/2+x,1/2+y,-z
1/2-x,1/2+y,1/2+z
1/2+x,1/2-y,1/2+z
loop_
_atom_site_type_symbol
_atom_site_label
_atom_site_fract_x
_atom_site_fract_y
_atom_site_fract_z
Si Si1 0.337889 0.389869 0.113193
Si Si2 0.749790 0.310565 0.289911
Si Si3 0.332094 0.055079 0.435373
Si Si4 0.978222 0.216766 0.061308
O O1 0.267744 0.362623 0.171233
O O2 0.563171 0.435814 0.101099
O O3 0.477982 0.339949 0.085668
O O4 0.059579 0.402983 0.083190
O O5 0.500000 0.311267 0.250000
O O6 0.750000 0.250000 0.316272
O O7 0.000000 0.314322 0.250000
O O8 0.263671 0.059065 0.500000
O O9 0.500000 0.000000 0.427696
O O10 0.250000 0.250000 0.059664
O O11 0.750000 0.250000 0.091198
O O12 0.884850 0.206382 0.000000
#
# Coordination Sequence:
#
# PCOD9496673 Si02
#       4
#    16  16  16  16
#     4  12  22  38  64  87 119 165 208 249 307 365
#     4  10  22  40  62  91 125 160 203 253 305 368
#     4  11  24  41  62  91 125 162 209 259 306 364
#     4  10  20  32  49  81 122 156 190 235 293 367
#
# _framework density 20.807891000000001
#
# number of rings (size 3 to 8) (size 9 to 14) (size 15 to 20)
#    0.000    1.250    0.000    6.750    0.000    7.000 
#    0.000    0.000    0.000   11.250    0.000    0.000 
#    0.000    0.000    0.000    0.000    0.000    0.000 
#
# Total GULP energy -178411.155101 kJ/mol
# GULP energy per Si atom -5575.348597 kJ/mol
# Density = 2.076053 g / cm^3
# Si number density = 20.807891 Si / 1000 Ang^3
#
#
#
# Elastic Constant Matrix: (Units=GPa)
#
#
# Indices 1 2 3 4 5 6 
#
# 1 134.1873 21.1283 30.9901 0.0000 0.0000 0.0000
# 2 21.1283 89.7851 32.2454 0.0000 0.0000 0.0000
# 3 30.9901 32.2454 91.5558 0.0000 0.0000 0.0000
# 4 0.0000 0.0000 0.0000 34.3830 0.0000 0.0000
# 5 0.0000 0.0000 0.0000 0.0000 41.2012 0.0000
# 6 0.0000 0.0000 0.0000 0.0000 0.0000 42.0341
#
#
#
# Elastic Compliance Matrix: (Units=1/GPa)
#
#
# Indices 1 2 3 4 5 6 
#
# 1 0.008172 -0.001064 -0.002391 0.000000 0.000000 0.000000
# 2 -0.001064 0.012889 -0.004179 0.000000 0.000000 0.000000
# 3 -0.002391 -0.004179 0.013204 0.000000 0.000000 0.000000
# 4 0.000000 0.000000 0.000000 0.029084 0.000000 0.000000
# 5 0.000000 0.000000 0.000000 0.000000 0.024271 0.000000
# 6 0.000000 0.000000 0.000000 0.000000 0.000000 0.023790
#
#
# Mechanical properties :
#
#
# Convention : Reuss Voigt Hill
#
# Bulk Modulus (GPa) = 52.64478 53.80621 53.22550
# Shear Modulus (GPa) = 37.59073 38.93463 38.26268
#
# Velocity S-wave (km/s) = 4.25498 4.33037 4.29284
# Velocity P-wave (km/s) = 7.03527 7.13565 7.08564
#
# Compressibility (1/GPa) = 0.01899524
#
# Stress axis : x y z
#
# Youngs Moduli (GPa) = 122.36754 77.58509 75.73688
#
# Poissons Ratio (x) = 0.08257 0.18111
# Poissons Ratio (y) = 0.13023 0.31652
# Poissons Ratio (z) = 0.29262 0.32425
#
# Static dielectric constant tensor:
#      x y z
#    x 1.977500 0.000000 0.000000 
#    y 0.000000 1.822440 0.000000 
#    z 0.000000 0.000000 1.786860 
# 
# From -- ./inp_files/53958.got.cif
#   From: 2010.05.17/outbox.cif.g08.bks.cpg/sg66_27_cif.got.tgz:53958.got - 2010.06.03 17:51:23.
