data_PCOD9496462
_publ_section_title
;
Structure prediction by ZEFSAII (Michael W. Deem and Ramdas Pophale) SiO2 
 PCOD9496462
Probable space group: C C C M
;
_chemical_formula_sum "Si O2"
_cell_formula_units_Z 88
_cell_length_a 20.704614
_cell_length_b 14.215664
_cell_length_c 13.703300
_cell_angle_alpha 90.000000
_cell_angle_beta 90.000000
_cell_angle_gamma 90.000000
_cell_volume 4033.290040
_symmetry_space_group_name_H-M "C C C M"
_symmetry_group_IT_number 66
_symmetry_cell_setting 'orthorhombic'
loop_
_space_group_symop_operation_xyz
x,y,z
-x,-y,z
x,-y,1/2-z
-x,y,1/2-z
-x,-y,-z
x,y,-z
-x,y,1/2+z
x,-y,1/2+z
1/2+x,1/2+y,z
1/2-x,1/2-y,z
1/2+x,1/2-y,1/2-z
1/2-x,1/2+y,1/2-z
1/2-x,1/2-y,-z
1/2+x,1/2+y,-z
1/2-x,1/2+y,1/2+z
1/2+x,1/2-y,1/2+z
loop_
_atom_site_type_symbol
_atom_site_label
_atom_site_fract_x
_atom_site_fract_y
_atom_site_fract_z
Si Si1 0.743910 0.349768 0.773774
Si Si2 0.798518 0.520801 0.885317
Si Si3 0.439683 0.929046 0.887465
Si Si4 0.894740 0.854947 0.801500
Si Si5 0.000000 0.279898 0.250000
Si Si6 0.926549 0.035492 0.104315
O O1 0.750000 0.250000 0.828423
O O2 0.749564 0.437884 0.848247
O O3 0.788840 0.390139 0.685985
O O4 0.677532 0.325571 0.718198
O O5 0.871119 0.479855 0.871493
O O6 0.789602 0.540818 0.000000
O O7 0.453025 0.843657 0.815114
O O8 0.500000 0.000000 0.874258
O O9 0.440512 0.897102 0.000000
O O10 0.889857 0.937761 0.879717
O O11 0.951781 0.780986 0.818174
O O12 0.914902 0.900609 0.697286
O O13 0.912255 0.079990 0.000000
O O14 0.000000 0.000000 0.106943
#
# Coordination Sequence:
#
# PCOD9496462 Si02
#       6
#    16  16  16  16   8  16
#     4  11  25  40  65  96 127 170 219 263 318 385
#     4  10  23  46  67  91 132 172 216 268 321 387
#     4  10  24  42  65  94 120 160 211 256 315 380
#     4  11  22  38  57  93 126 158 214 258 309 382
#     4  12  23  37  66  92 130 166 200 267 327 358
#     4  10  19  36  58  83 122 162 196 249 313 366
#
# _framework density 21.818415999999999
#
# number of rings (size 3 to 8) (size 9 to 14) (size 15 to 20)
#    0.000    1.455    1.818    4.091    7.636    5.091 
#    0.000    0.000    0.000    0.000    0.000    0.000 
#    0.000    0.000    0.000    0.000    0.000    0.000 
#
# Total GULP energy -245357.064423 kJ/mol
# GULP energy per Si atom -5576.296919 kJ/mol
# Density = 2.176876 g / cm^3
# Si number density = 21.818416 Si / 1000 Ang^3
#
#
#
# Elastic Constant Matrix: (Units=GPa)
#
#
# Indices 1 2 3 4 5 6 
#
# 1 61.1287 14.6671 -10.8711 0.0000 0.0000 0.0000
# 2 14.6671 77.9203 19.1634 0.0000 0.0000 0.0000
# 3 -10.8711 19.1634 109.6208 0.0000 0.0000 0.0000
# 4 0.0000 0.0000 0.0000 12.6771 0.0000 0.0000
# 5 0.0000 0.0000 0.0000 0.0000 22.2391 0.0000
# 6 0.0000 0.0000 0.0000 0.0000 0.0000 14.2493
#
#
#
# Elastic Compliance Matrix: (Units=1/GPa)
#
#
# Indices 1 2 3 4 5 6 
#
# 1 0.017740 -0.003941 0.002448 0.000000 0.000000 0.000000
# 2 -0.003941 0.014286 -0.002888 0.000000 0.000000 0.000000
# 3 0.002448 -0.002888 0.009870 0.000000 0.000000 0.000000
# 4 0.000000 0.000000 0.000000 0.078883 0.000000 0.000000
# 5 0.000000 0.000000 0.000000 0.000000 0.044966 0.000000
# 6 0.000000 0.000000 0.000000 0.000000 0.000000 0.070179
#
#
# Mechanical properties :
#
#
# Convention : Reuss Voigt Hill
#
# Bulk Modulus (GPa) = 30.18116 32.73208 31.45662
# Shear Modulus (GPa) = 19.55183 24.88044 22.21614
#
# Velocity S-wave (km/s) = 2.99677 3.38056 3.19443
# Velocity P-wave (km/s) = 5.08302 5.50201 5.29666
#
# Compressibility (1/GPa) = 0.03313326
#
# Stress axis : x y z
#
# Youngs Moduli (GPa) = 56.36975 69.99941 101.31647
#
# Poissons Ratio (x) = 0.27589 -0.24805
# Poissons Ratio (y) = 0.22217 0.29263
# Poissons Ratio (z) = -0.13801 0.20218
#
# Static dielectric constant tensor:
#      x y z
#    x 1.721700 0.000000 0.000000 
#    y 0.000000 1.900370 0.000000 
#    z 0.000000 0.000000 1.784810 
# 
# From -- ./inp_files/31085.got.cif
#   From: 2010.05.17/outbox.cif.g08.bks.cpg/sg66_16_cif.got.tgz:31085.got - 2010.06.03 17:51:23.
