data_PCOD9496615
_publ_section_title
;
Structure prediction by ZEFSAII (Michael W. Deem and Ramdas Pophale) SiO2 
 PCOD9496615
Probable space group: C C C M
;
_chemical_formula_sum "Si O2"
_cell_formula_units_Z 92
_cell_length_a 26.389399
_cell_length_b 10.162200
_cell_length_c 23.661876
_cell_angle_alpha 90.000000
_cell_angle_beta 90.000000
_cell_angle_gamma 90.000000
_cell_volume 6345.508228
_symmetry_space_group_name_H-M "C C C M"
_symmetry_group_IT_number 66
_symmetry_cell_setting 'orthorhombic'
loop_
_space_group_symop_operation_xyz
x,y,z
-x,-y,z
x,-y,1/2-z
-x,y,1/2-z
-x,-y,-z
x,y,-z
-x,y,1/2+z
x,-y,1/2+z
1/2+x,1/2+y,z
1/2-x,1/2-y,z
1/2+x,1/2-y,1/2-z
1/2-x,1/2+y,1/2-z
1/2-x,1/2-y,-z
1/2+x,1/2+y,-z
1/2-x,1/2+y,1/2+z
1/2+x,1/2-y,1/2+z
loop_
_atom_site_type_symbol
_atom_site_label
_atom_site_fract_x
_atom_site_fract_y
_atom_site_fract_z
Si Si1 0.901882 0.117554 0.789907
Si Si2 0.845478 0.649060 0.763734
Si Si3 0.750000 0.250000 0.807955
Si Si4 0.500000 0.500000 0.750000
Si Si5 0.795385 0.355488 0.500000
Si Si6 0.822251 0.061751 0.120296
Si Si7 0.276767 0.609686 0.000000
Si Si8 0.310868 0.249373 0.118453
O O1 0.887948 0.252416 0.759521
O O2 0.873536 0.111456 0.849652
O O3 0.961437 0.085645 0.787852
O O4 0.879035 0.000000 0.750000
O O5 0.857789 0.500000 0.750000
O O6 0.793839 0.688425 0.730759
O O7 0.835742 0.673675 0.829601
O O8 0.776829 0.134986 0.845017
O O9 0.750000 0.250000 0.500000
O O10 0.766901 0.496048 0.500000
O O11 0.823384 0.320892 0.441389
O O12 0.823963 0.903582 0.122483
O O13 0.810954 0.095655 0.055598
O O14 0.250000 0.750000 0.000000
O O15 0.250000 0.250000 0.124548
#
# Coordination Sequence:
#
# PCOD9496615 Si02
#       8
#    16  16   8   4   8  16   8  16
#     4   9  19  34  56  73  92 126 168 209 282 316
#     4  11  21  29  47  76 103 131 169 215 251 303
#     4  10  22  27  42  69 102 142 166 198 246 292
#     4   8  16  40  58  74  92 128 162 228 278 334
#     4  10  20  28  42  60  84 145 175 189 227 279
#     4  11  19  32  46  71  96 136 174 204 240 309
#     4  12  22  32  44  67 106 144 175 208 246 286
#     4  11  17  29  44  59  95 134 175 201 230 283
#
# _framework density 14.498445
#
# number of rings (size 3 to 8) (size 9 to 14) (size 15 to 20)
#    0.522    1.043    6.957    1.043    0.000    0.000 
#    0.000    0.435    0.000    0.522    0.000    0.000 
#    0.000    0.000    0.000   13.913    0.000    0.696 
#
# Total GULP energy -256124.751161 kJ/mol
# GULP energy per Si atom -5567.929373 kJ/mol
# Density = 1.446545 g / cm^3
# Si number density = 14.498445 Si / 1000 Ang^3
#
#
#
# Elastic Constant Matrix: (Units=GPa)
#
#
# Indices 1 2 3 4 5 6 
#
# 1 72.7025 28.5272 38.5808 0.0000 0.0000 0.0000
# 2 28.5272 122.4770 53.3170 0.0000 0.0000 0.0000
# 3 38.5808 53.3170 141.5294 0.0000 0.0000 0.0000
# 4 0.0000 0.0000 0.0000 20.5356 0.0000 0.0000
# 5 0.0000 0.0000 0.0000 0.0000 35.1465 0.0000
# 6 0.0000 0.0000 0.0000 0.0000 0.0000 16.1355
#
#
#
# Elastic Compliance Matrix: (Units=1/GPa)
#
#
# Indices 1 2 3 4 5 6 
#
# 1 0.016591 -0.002267 -0.003669 0.000000 0.000000 0.000000
# 2 -0.002267 0.010076 -0.003178 0.000000 0.000000 0.000000
# 3 -0.003669 -0.003178 0.009263 0.000000 0.000000 0.000000
# 4 0.000000 0.000000 0.000000 0.048696 0.000000 0.000000
# 5 0.000000 0.000000 0.000000 0.000000 0.028452 0.000000
# 6 0.000000 0.000000 0.000000 0.000000 0.000000 0.061975
#
#
# Mechanical properties :
#
#
# Convention : Reuss Voigt Hill
#
# Bulk Modulus (GPa) = 56.48850 64.17321 60.33086
# Shear Modulus (GPa) = 25.10261 28.78243 26.94252
#
# Velocity S-wave (km/s) = 4.16552 4.46040 4.31548
# Velocity P-wave (km/s) = 7.88554 8.41933 8.15680
#
# Compressibility (1/GPa) = 0.01770272
#
# Stress axis : x y z
#
# Youngs Moduli (GPa) = 60.27308 99.24264 107.95769
#
# Poissons Ratio (x) = 0.22502 0.39605
# Poissons Ratio (y) = 0.13666 0.34307
# Poissons Ratio (z) = 0.22112 0.31538
#
# Static dielectric constant tensor:
#      x y z
#    x 1.451660 0.000000 0.000000 
#    y 0.000000 1.500660 0.000000 
#    z 0.000000 0.000000 1.508980 
# 
# From -- ./inp_files/55838.got.cif
#   From: 2010.05.17/outbox.cif.g08.bks.cpg/sg66_28_cif.got.tgz:55838.got - 2010.06.03 17:51:23.
