data_PCOD9496546
_publ_section_title
;
Structure prediction by ZEFSAII (Michael W. Deem and Ramdas Pophale) SiO2 
 PCOD9496546
Probable space group: C C C M
;
_chemical_formula_sum "Si O2"
_cell_formula_units_Z 72
_cell_length_a 15.443556
_cell_length_b 9.628961
_cell_length_c 24.086611
_cell_angle_alpha 90.000000
_cell_angle_beta 90.000000
_cell_angle_gamma 90.000000
_cell_volume 3581.809085
_symmetry_space_group_name_H-M "C C C M"
_symmetry_group_IT_number 66
_symmetry_cell_setting 'orthorhombic'
loop_
_space_group_symop_operation_xyz
x,y,z
-x,-y,z
x,-y,1/2-z
-x,y,1/2-z
-x,-y,-z
x,y,-z
-x,y,1/2+z
x,-y,1/2+z
1/2+x,1/2+y,z
1/2-x,1/2-y,z
1/2+x,1/2-y,1/2-z
1/2-x,1/2+y,1/2-z
1/2-x,1/2-y,-z
1/2+x,1/2+y,-z
1/2-x,1/2+y,1/2+z
1/2+x,1/2-y,1/2+z
loop_
_atom_site_type_symbol
_atom_site_label
_atom_site_fract_x
_atom_site_fract_y
_atom_site_fract_z
Si Si1 0.835640 0.160472 0.000000
Si Si2 0.588491 0.156599 0.270887
Si Si3 0.451895 0.278489 0.119035
Si Si4 0.512514 0.166100 0.500000
Si Si5 0.364256 0.572868 0.121562
Si Si6 0.250000 0.250000 0.700252
O O1 0.750000 0.250000 0.000000
O O2 0.839239 0.075254 0.943240
O O3 0.918411 0.261590 0.000000
O O4 0.500000 0.228341 0.250000
O O5 0.581698 0.166695 0.336919
O O6 0.670791 0.219831 0.241091
O O7 0.587558 0.000000 0.250000
O O8 0.443040 0.222141 0.056389
O O9 0.398640 0.418537 0.132598
O O10 0.553139 0.322149 0.127069
O O11 0.500000 0.000000 0.500000
O O12 0.286193 0.628114 0.159846
#
# Coordination Sequence:
#
# PCOD9496546 Si02
#       6
#     8  16  16   8  16   8
#     4  10  19  37  65  99 128 169 208 272 323 399
#     4  11  26  43  64  90 134 174 219 271 335 392
#     4  10  22  44  65  97 130 173 215 284 325 400
#     4  10  23  39  71  98 129 173 223 261 339 398
#     4  10  21  39  69  97 132 166 227 269 340 394
#     4  12  24  41  64 101 122 182 222 274 330 410
#
# _framework density 20.101573999999999
#
# number of rings (size 3 to 8) (size 9 to 14) (size 15 to 20)
#    0.000    1.556    3.333    0.667    6.222    2.667 
#    0.000    0.000    0.000    2.000    0.000    0.000 
#    0.000    0.000    0.000    0.000    0.000    0.000 
#
# Total GULP energy -200890.165524 kJ/mol
# GULP energy per Si atom -5580.282376 kJ/mol
# Density = 2.005582 g / cm^3
# Si number density = 20.101574 Si / 1000 Ang^3
#
#
#
# Elastic Constant Matrix: (Units=GPa)
#
#
# Indices 1 2 3 4 5 6 
#
# 1 105.8712 14.9148 55.7574 0.0000 0.0000 0.0000
# 2 14.9148 60.6277 40.3596 0.0000 0.0000 0.0000
# 3 55.7574 40.3596 173.4462 0.0000 0.0000 0.0000
# 4 0.0000 0.0000 0.0000 24.3239 0.0000 0.0000
# 5 0.0000 0.0000 0.0000 0.0000 49.9596 0.0000
# 6 0.0000 0.0000 0.0000 0.0000 0.0000 24.3896
#
#
#
# Elastic Compliance Matrix: (Units=1/GPa)
#
#
# Indices 1 2 3 4 5 6 
#
# 1 0.011380 -0.000431 -0.003558 0.000000 0.000000 0.000000
# 2 -0.000431 0.019534 -0.004407 0.000000 0.000000 0.000000
# 3 -0.003558 -0.004407 0.007935 0.000000 0.000000 0.000000
# 4 0.000000 0.000000 0.000000 0.041112 0.000000 0.000000
# 5 0.000000 0.000000 0.000000 0.000000 0.020016 0.000000
# 6 0.000000 0.000000 0.000000 0.000000 0.000000 0.041001
#
#
# Mechanical properties :
#
#
# Convention : Reuss Voigt Hill
#
# Bulk Modulus (GPa) = 45.33749 62.44540 53.89144
# Shear Modulus (GPa) = 30.28076 34.99551 32.63814
#
# Velocity S-wave (km/s) = 3.88543 4.17698 4.03384
# Velocity P-wave (km/s) = 6.53697 7.37531 6.96876
#
# Compressibility (1/GPa) = 0.02205680
#
# Stress axis : x y z
#
# Youngs Moduli (GPa) = 87.87348 51.19348 126.02892
#
# Poissons Ratio (x) = 0.02206 0.44841
# Poissons Ratio (y) = 0.03787 0.55538
# Poissons Ratio (z) = 0.31265 0.22560
#
# Static dielectric constant tensor:
#      x y z
#    x 1.688220 0.000000 0.000000 
#    y 0.000000 1.917880 0.000000 
#    z 0.000000 0.000000 1.824270 
# 
# From -- ./inp_files/65001.got.cif
#   From: 2010.05.17/outbox.cif.g08.bks.cpg/sg66_33_cif.got.tgz:65001.got - 2010.06.03 17:51:23.
