data_PCOD9496795
_publ_section_title
;
Structure prediction by ZEFSAII (Michael W. Deem and Ramdas Pophale) SiO2 
 PCOD9496795
Probable space group: C C C M
;
_chemical_formula_sum "Si O2"
_cell_formula_units_Z 88
_cell_length_a 12.815801
_cell_length_b 22.746334
_cell_length_c 14.466061
_cell_angle_alpha 90.000000
_cell_angle_beta 90.000000
_cell_angle_gamma 90.000000
_cell_volume 4217.037463
_symmetry_space_group_name_H-M "C C C M"
_symmetry_group_IT_number 66
_symmetry_cell_setting 'orthorhombic'
loop_
_space_group_symop_operation_xyz
x,y,z
-x,-y,z
x,-y,1/2-z
-x,y,1/2-z
-x,-y,-z
x,y,-z
-x,y,1/2+z
x,-y,1/2+z
1/2+x,1/2+y,z
1/2-x,1/2-y,z
1/2+x,1/2-y,1/2-z
1/2-x,1/2+y,1/2-z
1/2-x,1/2-y,-z
1/2+x,1/2+y,-z
1/2-x,1/2+y,1/2+z
1/2+x,1/2-y,1/2+z
loop_
_atom_site_type_symbol
_atom_site_label
_atom_site_fract_x
_atom_site_fract_y
_atom_site_fract_z
Si Si1 0.490540 0.936066 0.394045
Si Si2 0.672591 0.353555 0.220288
Si Si3 0.729892 0.956928 0.164598
Si Si4 0.883181 0.677142 0.386369
Si Si5 0.500000 0.263169 0.750000
Si Si6 0.090136 0.041026 0.394946
O O1 0.525791 0.940519 0.500000
O O2 0.367219 0.928710 0.388299
O O3 0.562133 0.884542 0.357021
O O4 0.500000 0.000000 0.351468
O O5 0.712529 0.400526 0.294398
O O6 0.768458 0.325538 0.160828
O O7 0.599536 0.304986 0.266643
O O8 0.607345 0.396757 0.153255
O O9 0.699929 0.000000 0.250000
O O10 0.805764 0.000718 0.108866
O O11 0.878427 0.682590 0.500000
O O12 0.958505 0.724623 0.336821
O O13 0.061489 0.053192 0.500000
O O14 0.000000 0.000000 0.353046
#
# Coordination Sequence:
#
# PCOD9496795 Si02
#       6
#    16  16  16  16   8  16
#     4  10  20  36  59  88 120 151 189 244 312 384
#     4  11  23  40  63  87 122 168 213 260 322 387
#     4  10  20  33  56  89 123 159 200 250 314 388
#     4  11  25  44  67  95 126 166 221 277 331 402
#     4  12  26  44  64  88 122 164 220 284 330 370
#     4  10  20  35  58  91 129 166 209 262 323 396
#
# _framework density 20.867730000000002
#
# number of rings (size 3 to 8) (size 9 to 14) (size 15 to 20)
#    0.000    1.455    0.000    6.000    0.000    8.000 
#    0.000    1.818    0.000    4.364    0.000    0.000 
#    0.000    0.000    0.000    0.000    0.000    0.000 
#
# Total GULP energy -245341.433807 kJ/mol
# GULP energy per Si atom -5575.941677 kJ/mol
# Density = 2.082023 g / cm^3
# Si number density = 20.867730 Si / 1000 Ang^3
#
#
#
# Elastic Constant Matrix: (Units=GPa)
#
#
# Indices 1 2 3 4 5 6 
#
# 1 101.7682 51.3883 19.6107 0.0000 0.0000 0.0000
# 2 51.3883 124.1375 35.8708 0.0000 0.0000 0.0000
# 3 19.6107 35.8708 68.4247 0.0000 0.0000 0.0000
# 4 0.0000 0.0000 0.0000 15.1053 0.0000 0.0000
# 5 0.0000 0.0000 0.0000 0.0000 21.7754 0.0000
# 6 0.0000 0.0000 0.0000 0.0000 0.0000 40.1076
#
#
#
# Elastic Compliance Matrix: (Units=1/GPa)
#
#
# Indices 1 2 3 4 5 6 
#
# 1 0.012484 -0.004872 -0.001024 0.000000 0.000000 0.000000
# 2 -0.004872 0.011395 -0.004577 0.000000 0.000000 0.000000
# 3 -0.001024 -0.004577 0.017308 0.000000 0.000000 0.000000
# 4 0.000000 0.000000 0.000000 0.066202 0.000000 0.000000
# 5 0.000000 0.000000 0.000000 0.000000 0.045923 0.000000
# 6 0.000000 0.000000 0.000000 0.000000 0.000000 0.024933
#
#
# Mechanical properties :
#
#
# Convention : Reuss Voigt Hill
#
# Bulk Modulus (GPa) = 49.40684 56.45223 52.92954
# Shear Modulus (GPa) = 24.27920 27.89503 26.08711
#
# Velocity S-wave (km/s) = 3.41468 3.66013 3.53954
# Velocity P-wave (km/s) = 6.26692 6.70621 6.49028
#
# Compressibility (1/GPa) = 0.02024011
#
# Stress axis : x y z
#
# Youngs Moduli (GPa) = 80.10479 87.75726 57.77779
#
# Poissons Ratio (x) = 0.42755 0.05915
# Poissons Ratio (y) = 0.39026 0.26447
# Poissons Ratio (z) = 0.08201 0.40170
#
# Static dielectric constant tensor:
#      x y z
#    x 1.882980 0.000000 0.000000 
#    y 0.000000 1.776340 0.000000 
#    z 0.000000 0.000000 1.776400 
# 
# From -- ./inp_files/28227.got.cif
#   From: 2010.05.17/outbox.cif.g08.bks.cpg/sg66_15_cif.got.tgz:28227.got - 2010.06.03 17:51:23.
