data_PCOD9496928
_publ_section_title
;
Structure prediction by ZEFSAII (Michael W. Deem and Ramdas Pophale) SiO2 
 PCOD9496928
Probable space group: C C C M
;
_chemical_formula_sum "Si O2"
_cell_formula_units_Z 116
_cell_length_a 26.534670
_cell_length_b 24.642977
_cell_length_c 8.795852
_cell_angle_alpha 90.000000
_cell_angle_beta 90.000000
_cell_angle_gamma 90.000000
_cell_volume 5751.548361
_symmetry_space_group_name_H-M "C C C M"
_symmetry_group_IT_number 66
_symmetry_cell_setting 'orthorhombic'
loop_
_space_group_symop_operation_xyz
x,y,z
-x,-y,z
x,-y,1/2-z
-x,y,1/2-z
-x,-y,-z
x,y,-z
-x,y,1/2+z
x,-y,1/2+z
1/2+x,1/2+y,z
1/2-x,1/2-y,z
1/2+x,1/2-y,1/2-z
1/2-x,1/2+y,1/2-z
1/2-x,1/2-y,-z
1/2+x,1/2+y,-z
1/2-x,1/2+y,1/2+z
1/2+x,1/2-y,1/2+z
loop_
_atom_site_type_symbol
_atom_site_label
_atom_site_fract_x
_atom_site_fract_y
_atom_site_fract_z
Si Si1 0.500000 0.500000 0.750000
Si Si2 0.419550 0.707083 0.324418
Si Si3 0.314790 0.718453 0.822338
Si Si4 0.917185 0.913558 0.168372
Si Si5 0.548213 0.813657 0.681854
Si Si6 0.214136 0.444904 0.179841
Si Si7 0.666042 0.162563 0.182046
Si Si8 0.688357 0.597595 0.318447
O O1 0.539698 0.541381 0.825977
O O2 0.401742 0.712569 0.500000
O O3 0.374458 0.711182 0.203765
O O4 0.440738 0.646470 0.310140
O O5 0.451845 0.758462 0.281035
O O6 0.307502 0.780273 0.764050
O O7 0.298083 0.659438 0.763304
O O8 0.302035 0.719601 0.000000
O O9 0.869462 0.917744 0.280143
O O10 0.894114 0.914451 0.000000
O O11 0.500000 0.845609 0.750000
O O12 0.542859 0.805461 0.500000
O O13 0.605417 0.835102 0.706038
O O14 0.192061 0.500000 0.250000
O O15 0.187351 0.390770 0.240720
O O16 0.271703 0.439950 0.236360
O O17 0.211884 0.447287 0.000000
O O18 0.674573 0.160153 0.000000
O O19 0.695027 0.595931 0.500000
#
# Coordination Sequence:
#
# PCOD9496928 Si02
#       8
#     4  16  16  16  16  16  16  16
#     4  12  26  40  56  78 114 160 212 262 314 352
#     4   9  17  31  52  79 112 150 194 246 294 348
#     4   8  16  33  58  88 120 156 191 233 297 362
#     4  10  23  41  57  79 111 152 204 257 307 357
#     4  10  20  34  57  89 123 159 193 232 286 352
#     4  12  26  43  64  89 118 156 202 248 299 355
#     4   9  19  38  61  89 126 160 197 242 291 353
#     4  10  21  40  66  91 118 155 198 250 306 362
#
# _framework density 20.168482000000001
#
# number of rings (size 3 to 8) (size 9 to 14) (size 15 to 20)
#    0.000    2.207    0.000    3.517    1.931    5.517 
#    0.000    2.759    0.000    0.414    0.000    2.897 
#    0.000    0.000    0.000    0.000    0.000    0.000 
#
# Total GULP energy -323014.854002 kJ/mol
# GULP energy per Si atom -5569.221621 kJ/mol
# Density = 2.012258 g / cm^3
# Si number density = 20.168482 Si / 1000 Ang^3
#
#
#
# Elastic Constant Matrix: (Units=GPa)
#
#
# Indices 1 2 3 4 5 6 
#
# 1 70.2916 36.8554 32.7161 0.0000 0.0000 0.0000
# 2 36.8554 139.5690 39.6105 0.0000 0.0000 0.0000
# 3 32.7161 39.6105 61.9079 0.0000 0.0000 0.0000
# 4 0.0000 0.0000 0.0000 41.3412 0.0000 0.0000
# 5 0.0000 0.0000 0.0000 0.0000 20.3427 0.0000
# 6 0.0000 0.0000 0.0000 0.0000 0.0000 23.0663
#
#
#
# Elastic Compliance Matrix: (Units=1/GPa)
#
#
# Indices 1 2 3 4 5 6 
#
# 1 0.019692 -0.002745 -0.008650 0.000000 0.000000 0.000000
# 2 -0.002745 0.009137 -0.004396 0.000000 0.000000 0.000000
# 3 -0.008650 -0.004396 0.023537 0.000000 0.000000 0.000000
# 4 0.000000 0.000000 0.000000 0.024189 0.000000 0.000000
# 5 0.000000 0.000000 0.000000 0.000000 0.049158 0.000000
# 6 0.000000 0.000000 0.000000 0.000000 0.000000 0.043353
#
#
# Mechanical properties :
#
#
# Convention : Reuss Voigt Hill
#
# Bulk Modulus (GPa) = 48.11314 54.45917 51.28616
# Shear Modulus (GPa) = 24.08763 27.78913 25.93838
#
# Velocity S-wave (km/s) = 3.45964 3.71597 3.59009
# Velocity P-wave (km/s) = 6.31397 6.74329 6.53216
#
# Compressibility (1/GPa) = 0.02078434
#
# Stress axis : x y z
#
# Youngs Moduli (GPa) = 50.78273 109.44162 42.48667
#
# Poissons Ratio (x) = 0.30041 0.36751
# Poissons Ratio (y) = 0.13940 0.18676
# Poissons Ratio (z) = 0.43927 0.48107
#
# Static dielectric constant tensor:
#      x y z
#    x 1.760100 0.000000 0.000000 
#    y 0.000000 1.773350 0.000000 
#    z 0.000000 0.000000 1.702940 
# 
# From -- ./inp_files/10585.got.cif
#   From: 2010.05.17/outbox.cif.g08.bks.cpg/sg66_6_cif.got.tgz:10585.got - 2010.06.03 17:51:23.
