data_PCOD9496616
_publ_section_title
;
Structure prediction by ZEFSAII (Michael W. Deem and Ramdas Pophale) SiO2 
 PCOD9496616
Probable space group: C C C M
;
_chemical_formula_sum "Si O2"
_cell_formula_units_Z 116
_cell_length_a 25.374612
_cell_length_b 17.980248
_cell_length_c 16.677286
_cell_angle_alpha 90.000000
_cell_angle_beta 90.000000
_cell_angle_gamma 90.000000
_cell_volume 7608.875262
_symmetry_space_group_name_H-M "C C C M"
_symmetry_group_IT_number 66
_symmetry_cell_setting 'orthorhombic'
loop_
_space_group_symop_operation_xyz
x,y,z
-x,-y,z
x,-y,1/2-z
-x,y,1/2-z
-x,-y,-z
x,y,-z
-x,y,1/2+z
x,-y,1/2+z
1/2+x,1/2+y,z
1/2-x,1/2-y,z
1/2+x,1/2-y,1/2-z
1/2-x,1/2+y,1/2-z
1/2-x,1/2-y,-z
1/2+x,1/2+y,-z
1/2-x,1/2+y,1/2+z
1/2+x,1/2-y,1/2+z
loop_
_atom_site_type_symbol
_atom_site_label
_atom_site_fract_x
_atom_site_fract_y
_atom_site_fract_z
Si Si1 0.992372 0.915126 0.345361
Si Si2 0.210971 0.807912 0.192382
Si Si3 0.276913 0.076084 0.211882
Si Si4 0.624491 0.390758 0.094870
Si Si5 0.820662 0.051142 0.594444
Si Si6 0.750000 0.750000 0.000000
Si Si7 0.408112 0.675071 0.404588
Si Si8 0.829174 0.280821 0.349306
O O1 0.933761 0.891273 0.368738
O O2 0.000000 0.916969 0.250000
O O3 0.036630 0.859874 0.378812
O O4 0.000000 0.000000 0.376340
O O5 0.250000 0.750000 0.149623
O O6 0.245034 0.878782 0.219831
O O7 0.162050 0.833298 0.140007
O O8 0.192236 0.766665 0.273638
O O9 0.232260 0.058064 0.145461
O O10 0.318682 0.133523 0.174050
O O11 0.297880 0.000000 0.250000
O O12 0.650753 0.472313 0.106128
O O13 0.621912 0.376830 0.000000
O O14 0.808310 0.061415 0.500000
O O15 0.862687 0.114634 0.617423
O O16 0.794888 0.737809 0.071540
O O17 0.408193 0.682355 0.500000
O O18 0.388119 0.751679 0.365669
#
# Coordination Sequence:
#
# PCOD9496616 Si02
#       8
#    16  16  16  16  16   4  16  16
#     4  11  23  34  49  72 104 143 182 218 259 306
#     4  10  20  34  49  70  99 135 172 217 263 316
#     4  11  20  31  49  71 103 139 176 218 270 332
#     4  11  22  36  50  70  99 142 190 222 251 299
#     4  10  20  28  46  71 102 138 178 222 258 309
#     4  12  16  32  52  84 104 140 178 230 282 332
#     4  11  20  32  49  70 103 141 176 223 265 305
#     4  11  21  31  49  76 107 136 180 225 278 327
#
# _framework density 15.245355
#
# number of rings (size 3 to 8) (size 9 to 14) (size 15 to 20)
#    0.000    1.241    6.897    1.241    2.897    0.828 
#    0.000    0.000    0.000    0.000    0.000    0.000 
#    0.000   13.793    0.000   16.966    0.000    0.000 
#
# Total GULP energy -323137.476466 kJ/mol
# GULP energy per Si atom -5571.335801 kJ/mol
# Density = 1.521066 g / cm^3
# Si number density = 15.245355 Si / 1000 Ang^3
#
#
#
# Elastic Constant Matrix: (Units=GPa)
#
#
# Indices 1 2 3 4 5 6 
#
# 1 105.2112 62.4141 46.8643 0.0000 0.0000 0.0000
# 2 62.4141 93.6240 47.9182 0.0000 0.0000 0.0000
# 3 46.8643 47.9182 62.4404 0.0000 0.0000 0.0000
# 4 0.0000 0.0000 0.0000 14.9126 0.0000 0.0000
# 5 0.0000 0.0000 0.0000 0.0000 17.7083 0.0000
# 6 0.0000 0.0000 0.0000 0.0000 0.0000 25.5422
#
#
#
# Elastic Compliance Matrix: (Units=1/GPa)
#
#
# Indices 1 2 3 4 5 6 
#
# 1 0.017321 -0.008059 -0.006816 0.000000 0.000000 0.000000
# 2 -0.008059 0.021339 -0.010328 0.000000 0.000000 0.000000
# 3 -0.006816 -0.010328 0.029057 0.000000 0.000000 0.000000
# 4 0.000000 0.000000 0.000000 0.067058 0.000000 0.000000
# 5 0.000000 0.000000 0.000000 0.000000 0.056471 0.000000
# 6 0.000000 0.000000 0.000000 0.000000 0.000000 0.039151
#
#
# Mechanical properties :
#
#
# Convention : Reuss Voigt Hill
#
# Bulk Modulus (GPa) = 57.76226 63.96319 60.86272
# Shear Modulus (GPa) = 17.44760 18.57123 18.00942
#
# Velocity S-wave (km/s) = 3.38665 3.49400 3.44074
# Velocity P-wave (km/s) = 7.29816 7.63703 7.46952
#
# Compressibility (1/GPa) = 0.01731234
#
# Stress axis : x y z
#
# Youngs Moduli (GPa) = 57.73210 46.86206 34.41533
#
# Poissons Ratio (x) = 0.37765 0.23458
# Poissons Ratio (y) = 0.46524 0.35543
# Poissons Ratio (z) = 0.39351 0.48398
#
# Static dielectric constant tensor:
#      x y z
#    x 1.498250 0.000000 0.000000 
#    y 0.000000 1.543840 0.000000 
#    z 0.000000 0.000000 1.517920 
# 
# From -- ./inp_files/32643.got.cif
#   From: 2010.05.17/outbox.cif.g08.bks.cpg/sg66_17_cif.got.tgz:32643.got - 2010.06.03 17:51:23.
