data_PCOD9496967
_publ_section_title
;
Structure prediction by ZEFSAII (Michael W. Deem and Ramdas Pophale) SiO2 
 PCOD9496967
Probable space group: C C C M
;
_chemical_formula_sum "Si O2"
_cell_formula_units_Z 112
_cell_length_a 28.362224
_cell_length_b 15.181119
_cell_length_c 14.524753
_cell_angle_alpha 90.000000
_cell_angle_beta 90.000000
_cell_angle_gamma 90.000000
_cell_volume 6253.927222
_symmetry_space_group_name_H-M "C C C M"
_symmetry_group_IT_number 66
_symmetry_cell_setting 'orthorhombic'
loop_
_space_group_symop_operation_xyz
x,y,z
-x,-y,z
x,-y,1/2-z
-x,y,1/2-z
-x,-y,-z
x,y,-z
-x,y,1/2+z
x,-y,1/2+z
1/2+x,1/2+y,z
1/2-x,1/2-y,z
1/2+x,1/2-y,1/2-z
1/2-x,1/2+y,1/2-z
1/2-x,1/2-y,-z
1/2+x,1/2+y,-z
1/2-x,1/2+y,1/2+z
1/2+x,1/2-y,1/2+z
loop_
_atom_site_type_symbol
_atom_site_label
_atom_site_fract_x
_atom_site_fract_y
_atom_site_fract_z
Si Si1 0.947301 0.026934 0.605202
Si Si2 0.137625 0.098476 0.221544
Si Si3 0.302155 0.732410 0.608353
Si Si4 0.055154 0.476251 0.393782
Si Si5 0.400348 0.664837 0.102295
Si Si6 0.946473 0.694221 0.719343
Si Si7 0.107640 0.661771 0.395130
O O1 0.950135 0.063987 0.500000
O O2 0.914319 0.083727 0.673645
O O3 0.921426 0.932985 0.598332
O O4 0.000000 0.000000 0.636061
O O5 0.171625 0.149184 0.152642
O O6 0.136366 0.156363 0.314584
O O7 0.153044 0.000000 0.250000
O O8 0.297602 0.714354 0.500000
O O9 0.250000 0.750000 0.646239
O O10 0.337250 0.816458 0.617126
O O11 0.057393 0.445414 0.500000
O O12 0.068619 0.398815 0.324774
O O13 0.088204 0.562107 0.386533
O O14 0.000000 0.500000 0.376226
O O15 0.438525 0.733069 0.141216
O O16 0.384121 0.689425 0.000000
O O17 0.917778 0.712351 0.812428
O O18 0.000000 0.688826 0.750000
O O19 0.095234 0.690172 0.500000
#
# Coordination Sequence:
#
# PCOD9496967 Si02
#       7
#    16  16  16  16  16  16  16
#     4   9  19  34  54  81 116 151 190 239 293 354
#     4  10  20  36  59  84 114 153 192 237 295 358
#     4  10  21  40  66  93 118 146 192 255 308 346
#     4  10  20  35  52  77 115 155 196 237 282 345
#     4  10  22  35  49  76 110 151 195 240 287 343
#     4  12  22  32  53  78 112 160 200 234 280 346
#     4  10  21  36  55  82 112 146 190 239 289 344
#
# _framework density 17.908747000000002
#
# number of rings (size 3 to 8) (size 9 to 14) (size 15 to 20)
#    0.000    1.857    2.857    1.286    2.000    3.143 
#    0.000    1.429    0.000    0.429    0.000    0.000 
#    0.000    0.000    0.000    0.000    0.000    0.000 
#
# Total GULP energy -312048.862845 kJ/mol
# GULP energy per Si atom -5572.301122 kJ/mol
# Density = 1.786799 g / cm^3
# Si number density = 17.908747 Si / 1000 Ang^3
#
#
#
# Elastic Constant Matrix: (Units=GPa)
#
#
# Indices 1 2 3 4 5 6 
#
# 1 98.7262 30.2148 41.2601 0.0000 0.0000 0.0000
# 2 30.2148 75.4186 34.5225 0.0000 0.0000 0.0000
# 3 41.2601 34.5225 119.8833 0.0000 0.0000 0.0000
# 4 0.0000 0.0000 0.0000 26.1993 0.0000 0.0000
# 5 0.0000 0.0000 0.0000 0.0000 13.1832 0.0000
# 6 0.0000 0.0000 0.0000 0.0000 0.0000 17.3821
#
#
#
# Elastic Compliance Matrix: (Units=1/GPa)
#
#
# Indices 1 2 3 4 5 6 
#
# 1 0.012596 -0.003527 -0.003319 0.000000 0.000000 0.000000
# 2 -0.003527 0.016260 -0.003469 0.000000 0.000000 0.000000
# 3 -0.003319 -0.003469 0.010483 0.000000 0.000000 0.000000
# 4 0.000000 0.000000 0.000000 0.038169 0.000000 0.000000
# 5 0.000000 0.000000 0.000000 0.000000 0.075854 0.000000
# 6 0.000000 0.000000 0.000000 0.000000 0.000000 0.057531
#
#
# Mechanical properties :
#
#
# Convention : Reuss Voigt Hill
#
# Bulk Modulus (GPa) = 53.45054 56.22478 54.83766
# Shear Modulus (GPa) = 21.02982 23.88828 22.45905
#
# Velocity S-wave (km/s) = 3.43049 3.65621 3.54514
# Velocity P-wave (km/s) = 6.75291 7.02048 6.88800
#
# Compressibility (1/GPa) = 0.01870889
#
# Stress axis : x y z
#
# Youngs Moduli (GPa) = 79.39251 61.50082 95.39499
#
# Poissons Ratio (x) = 0.21690 0.31666
# Poissons Ratio (y) = 0.27999 0.33088
# Poissons Ratio (z) = 0.26354 0.21332
#
# Static dielectric constant tensor:
#      x y z
#    x 1.599630 0.000000 0.000000 
#    y 0.000000 1.617270 0.000000 
#    z 0.000000 0.000000 1.679740 
# 
# From -- ./inp_files/33315.got.cif
#   From: 2010.05.17/outbox.cif.g08.bks.cpg/sg66_17_cif.got.tgz:33315.got - 2010.06.03 17:51:23.
