data_PCOD9496191
_publ_section_title
;
Structure prediction by ZEFSAII (Michael W. Deem and Ramdas Pophale) SiO2 
 PCOD9496191
Probable space group: C C C M
;
_chemical_formula_sum "Si O2"
_cell_formula_units_Z 104
_cell_length_a 26.234003
_cell_length_b 23.996283
_cell_length_c 8.836453
_cell_angle_alpha 90.000000
_cell_angle_beta 90.000000
_cell_angle_gamma 90.000000
_cell_volume 5562.711170
_symmetry_space_group_name_H-M "C C C M"
_symmetry_group_IT_number 66
_symmetry_cell_setting 'orthorhombic'
loop_
_space_group_symop_operation_xyz
x,y,z
-x,-y,z
x,-y,1/2-z
-x,y,1/2-z
-x,-y,-z
x,y,-z
-x,y,1/2+z
x,-y,1/2+z
1/2+x,1/2+y,z
1/2-x,1/2-y,z
1/2+x,1/2-y,1/2-z
1/2-x,1/2+y,1/2-z
1/2-x,1/2-y,-z
1/2+x,1/2+y,-z
1/2-x,1/2+y,1/2+z
1/2+x,1/2-y,1/2+z
loop_
_atom_site_type_symbol
_atom_site_label
_atom_site_fract_x
_atom_site_fract_y
_atom_site_fract_z
Si Si1 0.423800 0.945276 0.667359
Si Si2 0.556866 0.342161 0.815690
Si Si3 0.761823 0.939706 0.683181
Si Si4 0.500000 0.147382 0.250000
Si Si5 0.905088 0.723394 0.674016
Si Si6 0.162660 0.374439 0.317815
Si Si7 0.873464 0.939200 0.182498
O O1 0.407105 0.960790 0.500000
O O2 0.465419 0.896242 0.658409
O O3 0.376418 0.920888 0.759514
O O4 0.443454 0.000000 0.750000
O O5 0.500000 0.343494 0.750000
O O6 0.582798 0.284025 0.761814
O O7 0.588670 0.393464 0.750082
O O8 0.555552 0.343388 0.000000
O O9 0.766368 0.943506 0.500000
O O10 0.719390 0.893562 0.722068
O O11 0.816403 0.926895 0.756909
O O12 0.745951 0.000000 0.750000
O O13 0.457514 0.187390 0.323184
O O14 0.890864 0.733114 0.500000
O O15 0.860688 0.684131 0.741272
O O16 0.159716 0.372939 0.500000
O O17 0.886574 0.000000 0.250000
O O18 0.874453 0.940382 0.000000
#
# Coordination Sequence:
#
# PCOD9496191 Si02
#       7
#    16  16  16   8  16  16  16
#     4  11  22  32  47  71 104 144 190 242 294 343
#     4  11  22  39  63  90 120 153 190 231 281 339
#     4  10  19  34  58  85 115 152 193 237 289 343
#     4  10  19  34  50  72 101 142 190 236 290 336
#     4   9  18  34  55  79 110 148 191 235 279 333
#     4   9  19  35  55  80 112 150 194 239 283 334
#     4  11  23  41  64  91 120 149 184 228 283 343
#
# _framework density 18.695919
#
# number of rings (size 3 to 8) (size 9 to 14) (size 15 to 20)
#    0.000    1.846    0.769    4.846    0.000    5.231 
#    0.000    3.077    0.000    4.615    0.000    0.000 
#    0.000    0.000    0.000    0.000    0.000    0.000 
#
# Total GULP energy -289921.415033 kJ/mol
# GULP energy per Si atom -5575.411828 kJ/mol
# Density = 1.865337 g / cm^3
# Si number density = 18.695919 Si / 1000 Ang^3
#
#
#
# Elastic Constant Matrix: (Units=GPa)
#
#
# Indices 1 2 3 4 5 6 
#
# 1 94.7088 91.8154 37.3768 0.0000 0.0000 0.0000
# 2 91.8154 156.1056 48.3425 0.0000 0.0000 0.0000
# 3 37.3768 48.3425 73.7075 0.0000 0.0000 0.0000
# 4 0.0000 0.0000 0.0000 -11.0825 0.0000 0.0000
# 5 0.0000 0.0000 0.0000 0.0000 -27.8953 0.0000
# 6 0.0000 0.0000 0.0000 0.0000 0.0000 31.1933
#
#
#
# Elastic Compliance Matrix: (Units=1/GPa)
#
#
# Indices 1 2 3 4 5 6 
#
# 1 0.025416 -0.013751 -0.003870 0.000000 0.000000 0.000000
# 2 -0.013751 0.015478 -0.003179 0.000000 0.000000 0.000000
# 3 -0.003870 -0.003179 0.017614 0.000000 0.000000 0.000000
# 4 0.000000 0.000000 0.000000 -0.090233 0.000000 0.000000
# 5 0.000000 0.000000 0.000000 0.000000 -0.035848 0.000000
# 6 0.000000 0.000000 0.000000 0.000000 0.000000 0.032058
#
#
# Mechanical properties :
#
#
# Convention : Reuss Voigt Hill
#
# Bulk Modulus (GPa) = 59.13549 75.51017 67.32283
# Shear Modulus (GPa) = 426.58531 8.24223 217.41377
#
# Velocity S-wave (km/s) = 15.12169 2.10194 10.79546
# Velocity P-wave (km/s) = 18.34629 6.80934 13.83751
#
# Compressibility (1/GPa) = 0.01691032
#
# Stress axis : x y z
#
# Youngs Moduli (GPa) = 39.34461 64.60868 56.77188
#
# Poissons Ratio (x) = 0.88840 0.21971
# Poissons Ratio (y) = 0.54101 0.18045
# Poissons Ratio (z) = 0.15226 0.20536
#
# Static dielectric constant tensor:
#      x y z
#    x 1.638930 0.000000 0.000000 
#    y 0.000000 1.653910 0.000000 
#    z 0.000000 0.000000 1.644990 
# 
# From -- ./inp_files/10535.got.cif
#   From: 2010.05.17/outbox.cif.g08.bks.cpg/sg66_6_cif.got.tgz:10535.got - 2010.06.03 17:51:23.
