data_PCOD9496226
_publ_section_title
;
Structure prediction by ZEFSAII (Michael W. Deem and Ramdas Pophale) SiO2 
 PCOD9496226
Probable space group: C C C M
;
_chemical_formula_sum "Si O2"
_cell_formula_units_Z 72
_cell_length_a 10.947892
_cell_length_b 11.063910
_cell_length_c 25.624239
_cell_angle_alpha 90.000000
_cell_angle_beta 90.000000
_cell_angle_gamma 90.000000
_cell_volume 3103.774175
_symmetry_space_group_name_H-M "C C C M"
_symmetry_group_IT_number 66
_symmetry_cell_setting 'orthorhombic'
loop_
_space_group_symop_operation_xyz
x,y,z
-x,-y,z
x,-y,1/2-z
-x,y,1/2-z
-x,-y,-z
x,y,-z
-x,y,1/2+z
x,-y,1/2+z
1/2+x,1/2+y,z
1/2-x,1/2-y,z
1/2+x,1/2-y,1/2-z
1/2-x,1/2+y,1/2-z
1/2-x,1/2-y,-z
1/2+x,1/2+y,-z
1/2-x,1/2+y,1/2+z
1/2+x,1/2-y,1/2+z
loop_
_atom_site_type_symbol
_atom_site_label
_atom_site_fract_x
_atom_site_fract_y
_atom_site_fract_z
Si Si1 0.826729 0.371802 0.000000
Si Si2 0.326290 0.638648 0.610473
Si Si3 0.878191 0.919582 0.000000
Si Si4 0.123931 0.568343 0.885257
Si Si5 0.748463 0.118103 0.219195
Si Si6 0.500000 0.500000 0.317779
O O1 0.750000 0.250000 0.000000
O O2 0.735158 0.486803 0.000000
O O3 0.893030 0.374524 0.056702
O O4 0.250000 0.750000 0.630242
O O5 0.372386 0.659463 0.551877
O O6 0.234017 0.526695 0.608814
O O7 0.436154 0.600379 0.646586
O O8 0.000000 0.000000 0.000000
O O9 0.170883 0.639470 0.834216
O O10 0.000000 0.500000 0.872163
O O11 0.750000 0.250000 0.246065
O O12 0.696028 0.000000 0.250000
O O13 0.887922 0.073314 0.208497
#
# Coordination Sequence:
#
# PCOD9496226 Si02
#       6
#     8  16   8  16  16   8
#     4  10  21  38  64  94 138 186 228 280 356 428
#     4  10  21  36  63  92 134 181 229 284 352 415
#     4  10  19  34  54  91 133 178 235 279 337 418
#     4  10  23  41  64 104 139 177 236 295 352 432
#     4  11  26  49  75 104 142 189 243 301 374 439
#     4  10  23  45  68 100 132 175 232 296 355 432
#
# _framework density 23.197565000000001
#
# number of rings (size 3 to 8) (size 9 to 14) (size 15 to 20)
#    0.000    1.778    1.111    1.667    3.111    5.778 
#    4.000    0.000    0.000    0.000    0.000    0.000 
#    0.000    0.000    0.000    0.000    0.000    0.000 
#
# Total GULP energy -200912.261245 kJ/mol
# GULP energy per Si atom -5580.896146 kJ/mol
# Density = 2.314477 g / cm^3
# Si number density = 23.197565 Si / 1000 Ang^3
#
#
#
# Elastic Constant Matrix: (Units=GPa)
#
#
# Indices 1 2 3 4 5 6 
#
# 1 92.9906 0.8502 45.5322 0.0000 0.0000 0.0000
# 2 0.8502 98.8608 57.5040 0.0000 0.0000 0.0000
# 3 45.5322 57.5040 118.4434 0.0000 0.0000 0.0000
# 4 0.0000 0.0000 0.0000 26.3734 0.0000 0.0000
# 5 0.0000 0.0000 0.0000 0.0000 3.1352 0.0000
# 6 0.0000 0.0000 0.0000 0.0000 0.0000 41.9791
#
#
#
# Elastic Compliance Matrix: (Units=1/GPa)
#
#
# Indices 1 2 3 4 5 6 
#
# 1 0.014468 0.004335 -0.007666 0.000000 0.000000 0.000000
# 2 0.004335 0.015395 -0.009140 0.000000 0.000000 0.000000
# 3 -0.007666 -0.009140 0.015828 0.000000 0.000000 0.000000
# 4 0.000000 0.000000 0.000000 0.037917 0.000000 0.000000
# 5 0.000000 0.000000 0.000000 0.000000 0.318961 0.000000
# 6 0.000000 0.000000 0.000000 0.000000 0.000000 0.023821
#
#
# Mechanical properties :
#
#
# Convention : Reuss Voigt Hill
#
# Bulk Modulus (GPa) = 48.20153 57.56309 52.88231
# Shear Modulus (GPa) = 10.91111 28.05808 19.48459
#
# Velocity S-wave (km/s) = 2.17112 3.48160 2.90132
# Velocity P-wave (km/s) = 5.20661 6.40548 5.83691
#
# Compressibility (1/GPa) = 0.02074623
#
# Stress axis : x y z
#
# Youngs Moduli (GPa) = 69.11858 64.95765 63.18072
#
# Poissons Ratio (x) = -0.28158 0.48436
# Poissons Ratio (y) = -0.29962 0.57750
# Poissons Ratio (z) = 0.52988 0.59374
#
# Static dielectric constant tensor:
#      x y z
#    x -0.068040 0.000000 0.000000 
#    y 0.000000 1.871400 0.000000 
#    z 0.000000 0.000000 2.016810 
# 
# From -- ./inp_files/63401.got.cif
#   From: 2010.05.17/outbox.cif.g08.bks.cpg/sg66_32_cif.got.tgz:63401.got - 2010.06.03 17:51:23.
