data_PCOD9496024
_publ_section_title
;
Structure prediction by ZEFSAII (Michael W. Deem and Ramdas Pophale) SiO2 
 PCOD9496024
Probable space group: C C C M
;
_chemical_formula_sum "Si O2"
_cell_formula_units_Z 116
_cell_length_a 12.858971
_cell_length_b 26.760843
_cell_length_c 15.195802
_cell_angle_alpha 90.000000
_cell_angle_beta 90.000000
_cell_angle_gamma 90.000000
_cell_volume 5229.132339
_symmetry_space_group_name_H-M "C C C M"
_symmetry_group_IT_number 66
_symmetry_cell_setting 'orthorhombic'
loop_
_space_group_symop_operation_xyz
x,y,z
-x,-y,z
x,-y,1/2-z
-x,y,1/2-z
-x,-y,-z
x,y,-z
-x,y,1/2+z
x,-y,1/2+z
1/2+x,1/2+y,z
1/2-x,1/2-y,z
1/2+x,1/2-y,1/2-z
1/2-x,1/2+y,1/2-z
1/2-x,1/2-y,-z
1/2+x,1/2+y,-z
1/2-x,1/2+y,1/2+z
1/2+x,1/2-y,1/2+z
loop_
_atom_site_type_symbol
_atom_site_label
_atom_site_fract_x
_atom_site_fract_y
_atom_site_fract_z
Si Si1 0.772416 0.335466 0.837488
Si Si2 0.222200 0.051327 0.105956
Si Si3 0.699592 0.836720 0.866850
Si Si4 0.468700 0.317319 0.353383
Si Si5 0.765537 0.943400 0.606927
Si Si6 0.999711 0.926535 0.100973
Si Si7 0.750000 0.750000 0.000000
Si Si8 0.487554 0.207805 0.643283
O O1 0.777845 0.324064 0.734340
O O2 0.656415 0.320470 0.866623
O O3 0.787592 0.394689 0.852927
O O4 0.870759 0.307901 0.879752
O O5 0.271423 0.105138 0.123566
O O6 0.104113 0.051646 0.142504
O O7 0.273116 0.998598 0.132813
O O8 0.214562 0.048370 0.000000
O O9 0.577594 0.828632 0.888590
O O10 0.754942 0.794836 0.924656
O O11 0.500000 0.320474 0.250000
O O12 0.513996 0.366813 0.396358
O O13 0.506900 0.264198 0.388008
O O14 0.761832 0.938263 0.500000
O O15 0.886447 0.938499 0.636529
O O16 0.003765 0.943171 0.000000
O O17 0.500000 0.208377 0.750000
#
# Coordination Sequence:
#
# PCOD9496024 Si02
#       8
#    16  16  16  16  16  16   4  16
#     4  10  21  39  62  86 121 166 201 254 305 372
#     4  10  19  35  57  85 121 159 200 260 316 365
#     4  11  24  39  59  90 125 154 210 246 321 375
#     4  10  19  32  55  86 115 154 198 245 302 357
#     4   9  19  37  59  85 118 160 209 254 306 363
#     4   9  18  31  52  83 117 155 193 238 304 374
#     4  12  28  40  64  96 128 164 196 280 312 378
#     4   9  21  37  56  79 114 159 201 245 298 369
#
# _framework density 22.183413000000002
#
# number of rings (size 3 to 8) (size 9 to 14) (size 15 to 20)
#    0.000    2.207    0.690    1.655    7.724    2.207 
#    1.241    0.690    0.000    9.931    0.000    0.000 
#    0.000    0.000    0.000    0.000    0.000    0.000 
#
# Total GULP energy -323293.068414 kJ/mol
# GULP energy per Si atom -5574.018421 kJ/mol
# Density = 2.213292 g / cm^3
# Si number density = 22.183413 Si / 1000 Ang^3
#
#
#
# Elastic Constant Matrix: (Units=GPa)
#
#
# Indices 1 2 3 4 5 6 
#
# 1 56.0802 18.9760 -6.1944 0.0000 0.0000 0.0000
# 2 18.9760 165.0353 13.8322 0.0000 0.0000 0.0000
# 3 -6.1944 13.8322 58.6958 0.0000 0.0000 0.0000
# 4 0.0000 0.0000 0.0000 -73.9548 0.0000 0.0000
# 5 0.0000 0.0000 0.0000 0.0000 -24.2359 0.0000
# 6 0.0000 0.0000 0.0000 0.0000 0.0000 23.1663
#
#
#
# Elastic Compliance Matrix: (Units=1/GPa)
#
#
# Indices 1 2 3 4 5 6 
#
# 1 0.018923 -0.002390 0.002560 0.000000 0.000000 0.000000
# 2 -0.002390 0.006483 -0.001780 0.000000 0.000000 0.000000
# 3 0.002560 -0.001780 0.017727 0.000000 0.000000 0.000000
# 4 0.000000 0.000000 0.000000 -0.013522 0.000000 0.000000
# 5 0.000000 0.000000 0.000000 0.000000 -0.041261 0.000000
# 6 0.000000 0.000000 0.000000 0.000000 0.000000 0.043166
#
#
# Mechanical properties :
#
#
# Convention : Reuss Voigt Hill
#
# Bulk Modulus (GPa) = 25.05451 37.00432 31.02941
# Shear Modulus (GPa) = 104.07728 1.87496 52.97612
#
# Velocity S-wave (km/s) = 6.85701 0.92035 4.89212
# Velocity P-wave (km/s) = 8.60292 4.22453 6.77705
#
# Compressibility (1/GPa) = 0.03991298
#
# Stress axis : x y z
#
# Youngs Moduli (GPa) = 52.84501 154.24093 56.41206
#
# Poissons Ratio (x) = 0.36870 -0.14444
# Poissons Ratio (y) = 0.12632 0.10042
# Poissons Ratio (z) = -0.13530 0.27457
#
# Static dielectric constant tensor:
#      x y z
#    x 1.850010 0.000000 0.000000 
#    y 0.000000 1.818480 0.000000 
#    z 0.000000 0.000000 1.848090 
# 
# From -- ./inp_files/40710.got.cif
#   From: 2010.05.17/outbox.cif.g08.bks.cpg/sg66_21_cif.got.tgz:40710.got - 2010.06.03 17:51:23.
