data_PCOD9496696
_publ_section_title
;
Structure prediction by ZEFSAII (Michael W. Deem and Ramdas Pophale) SiO2 
 PCOD9496696
Probable space group: C C C M
;
_chemical_formula_sum "Si O2"
_cell_formula_units_Z 56
_cell_length_a 23.339458
_cell_length_b 9.055669
_cell_length_c 14.943902
_cell_angle_alpha 90.000000
_cell_angle_beta 90.000000
_cell_angle_gamma 90.000000
_cell_volume 3158.459535
_symmetry_space_group_name_H-M "C C C M"
_symmetry_group_IT_number 66
_symmetry_cell_setting 'orthorhombic'
loop_
_space_group_symop_operation_xyz
x,y,z
-x,-y,z
x,-y,1/2-z
-x,y,1/2-z
-x,-y,-z
x,y,-z
-x,y,1/2+z
x,-y,1/2+z
1/2+x,1/2+y,z
1/2-x,1/2-y,z
1/2+x,1/2-y,1/2-z
1/2-x,1/2+y,1/2-z
1/2-x,1/2-y,-z
1/2+x,1/2+y,-z
1/2-x,1/2+y,1/2+z
1/2+x,1/2-y,1/2+z
loop_
_atom_site_type_symbol
_atom_site_label
_atom_site_fract_x
_atom_site_fract_y
_atom_site_fract_z
Si Si1 0.967846 0.340687 0.000000
Si Si2 0.087438 0.268393 0.000000
Si Si3 0.260530 0.076410 0.343746
Si Si4 0.604882 0.979516 0.354927
Si Si5 0.206749 0.108317 0.000000
O O1 0.929652 0.353468 0.089777
O O2 0.000000 0.500000 0.000000
O O3 0.020068 0.224970 0.000000
O O4 0.095277 0.370754 0.088376
O O5 0.140516 0.156798 0.000000
O O6 0.250000 0.250000 0.342050
O O7 0.327846 0.052952 0.361999
O O8 0.247731 0.000000 0.250000
O O9 0.222881 0.991748 0.415913
O O10 0.589422 0.000000 0.250000
O O11 0.250000 0.250000 0.000000
#
# Coordination Sequence:
#
# PCOD9496696 Si02
#       5
#     8   8  16  16   8
#     4   8  17  31  47  81 115 139 196 232 274 325
#     4  10  20  32  53  83 114 152 185 239 282 335
#     4  11  23  36  58  87 115 153 193 235 291 350
#     4   9  17  31  55  80 114 148 194 239 279 326
#     4  12  20  37  58  81 121 151 186 235 293 340
#
# _framework density 17.730160000000001
#
# number of rings (size 3 to 8) (size 9 to 14) (size 15 to 20)
#    0.000    2.286    2.857    2.143    4.000    5.143 
#    0.000    0.000    0.000    3.429    0.000    2.000 
#    0.000    0.000    0.000    0.000    0.000    0.000 
#
# Total GULP energy -155979.048278 kJ/mol
# GULP energy per Si atom -5570.680296 kJ/mol
# Density = 1.768981 g / cm^3
# Si number density = 17.730160 Si / 1000 Ang^3
#
#
#
# Elastic Constant Matrix: (Units=GPa)
#
#
# Indices 1 2 3 4 5 6 
#
# 1 121.7946 39.9420 91.8791 0.0000 0.0000 0.0000
# 2 39.9420 87.2187 50.6186 0.0000 0.0000 0.0000
# 3 91.8791 50.6186 160.0805 0.0000 0.0000 0.0000
# 4 0.0000 0.0000 0.0000 22.6624 0.0000 0.0000
# 5 0.0000 0.0000 0.0000 0.0000 82.0385 0.0000
# 6 0.0000 0.0000 0.0000 0.0000 0.0000 14.8887
#
#
#
# Elastic Compliance Matrix: (Units=1/GPa)
#
#
# Indices 1 2 3 4 5 6 
#
# 1 0.014838 -0.002269 -0.007799 0.000000 0.000000 0.000000
# 2 -0.002269 0.014389 -0.003248 0.000000 0.000000 0.000000
# 3 -0.007799 -0.003248 0.011750 0.000000 0.000000 0.000000
# 4 0.000000 0.000000 0.000000 0.044126 0.000000 0.000000
# 5 0.000000 0.000000 0.000000 0.000000 0.012189 0.000000
# 6 0.000000 0.000000 0.000000 0.000000 0.000000 0.067165
#
#
# Mechanical properties :
#
#
# Convention : Reuss Voigt Hill
#
# Bulk Modulus (GPa) = 69.70460 81.55256 75.62858
# Shear Modulus (GPa) = 25.52707 36.36154 30.94430
#
# Velocity S-wave (km/s) = 3.79853 4.53352 4.18220
# Velocity P-wave (km/s) = 7.65754 8.57322 8.12828
#
# Compressibility (1/GPa) = 0.01434626
#
# Stress axis : x y z
#
# Youngs Moduli (GPa) = 67.39500 69.49581 85.10619
#
# Poissons Ratio (x) = 0.15768 0.66373
# Poissons Ratio (y) = 0.15291 0.27641
# Poissons Ratio (z) = 0.52560 0.22571
#
# Static dielectric constant tensor:
#      x y z
#    x 1.663210 0.000000 0.000000 
#    y 0.000000 1.593220 0.000000 
#    z 0.000000 0.000000 1.540590 
# 
# From -- ./inp_files/24055.got.cif
#   From: 2010.05.17/outbox.cif.g08.bks.cpg/sg66_13_cif.got.tgz:24055.got - 2010.06.03 17:51:23.
