data_PCOD9496267
_publ_section_title
;
Structure prediction by ZEFSAII (Michael W. Deem and Ramdas Pophale) SiO2 
 PCOD9496267
Probable space group: C C C M
;
_chemical_formula_sum "Si O2"
_cell_formula_units_Z 80
_cell_length_a 10.193112
_cell_length_b 16.319915
_cell_length_c 24.151511
_cell_angle_alpha 90.000000
_cell_angle_beta 90.000000
_cell_angle_gamma 90.000000
_cell_volume 4017.621278
_symmetry_space_group_name_H-M "C C C M"
_symmetry_group_IT_number 66
_symmetry_cell_setting 'orthorhombic'
loop_
_space_group_symop_operation_xyz
x,y,z
-x,-y,z
x,-y,1/2-z
-x,y,1/2-z
-x,-y,-z
x,y,-z
-x,y,1/2+z
x,-y,1/2+z
1/2+x,1/2+y,z
1/2-x,1/2-y,z
1/2+x,1/2-y,1/2-z
1/2-x,1/2+y,1/2-z
1/2-x,1/2-y,-z
1/2+x,1/2+y,-z
1/2-x,1/2+y,1/2+z
1/2+x,1/2-y,1/2+z
loop_
_atom_site_type_symbol
_atom_site_label
_atom_site_fract_x
_atom_site_fract_y
_atom_site_fract_z
Si Si1 0.366580 0.948849 0.063699
Si Si2 0.046861 0.163713 0.832600
Si Si3 0.628866 0.186869 0.844680
Si Si4 0.697539 0.594549 0.266511
Si Si5 0.877283 0.061749 0.436306
O O1 0.379749 0.870293 0.102068
O O2 0.500000 0.000000 0.065605
O O3 0.248479 0.008512 0.081691
O O4 0.339076 0.925375 0.000000
O O5 0.157463 0.147180 0.787044
O O6 0.091706 0.132094 0.892286
O O7 0.996541 0.256578 0.834285
O O8 0.922090 0.109938 0.810172
O O9 0.750000 0.250000 0.851874
O O10 0.671330 0.128816 0.794135
O O11 0.703885 0.500000 0.250000
O O12 0.856951 0.090073 0.500000
O O13 0.000000 0.000000 0.436388
#
# Coordination Sequence:
#
# PCOD9496267 Si02
#       5
#    16  16  16  16  16
#     4  10  22  41  62  88 126 164 200 246 301 361
#     4  10  19  34  57  85 118 150 198 258 303 349
#     4  10  21  37  58  88 120 155 204 253 304 358
#     4  10  19  35  58  80 114 162 207 249 299 360
#     4  10  19  34  61  92 119 155 202 244 292 362
#
# _framework density 19.912281
#
# number of rings (size 3 to 8) (size 9 to 14) (size 15 to 20)
#    0.000    2.000    0.000    6.000    0.000    1.200 
#    0.000   23.000    0.000    4.800    0.000    0.000 
#    0.000    0.000    0.000    0.000    0.000    0.000 
#
# Total GULP energy -223537.885468 kJ/mol
# GULP energy per Si atom -5588.447137 kJ/mol
# Density = 1.986696 g / cm^3
# Si number density = 19.912281 Si / 1000 Ang^3
#
#
#
# Elastic Constant Matrix: (Units=GPa)
#
#
# Indices 1 2 3 4 5 6 
#
# 1 62.0170 39.3545 20.3135 0.0000 0.0000 0.0000
# 2 39.3545 120.1692 68.8676 0.0000 0.0000 0.0000
# 3 20.3135 68.8676 104.9651 0.0000 0.0000 0.0000
# 4 0.0000 0.0000 0.0000 0.1433 0.0000 0.0000
# 5 0.0000 0.0000 0.0000 0.0000 -15.7611 0.0000
# 6 0.0000 0.0000 0.0000 0.0000 0.0000 10.5275
#
#
#
# Elastic Compliance Matrix: (Units=1/GPa)
#
#
# Indices 1 2 3 4 5 6 
#
# 1 0.020386 -0.007076 0.000697 0.000000 0.000000 0.000000
# 2 -0.007076 0.015792 -0.008992 0.000000 0.000000 0.000000
# 3 0.000697 -0.008992 0.015292 0.000000 0.000000 0.000000
# 4 0.000000 0.000000 0.000000 6.980338 0.000000 0.000000
# 5 0.000000 0.000000 0.000000 0.000000 -0.063447 0.000000
# 6 0.000000 0.000000 0.000000 0.000000 0.000000 0.094990
#
#
# Mechanical properties :
#
#
# Convention : Reuss Voigt Hill
#
# Bulk Modulus (GPa) = 48.24158 60.46917 54.35537
# Shear Modulus (GPa) = 0.70413 9.55630 5.13022
#
# Velocity S-wave (km/s) = 0.59530 2.19308 1.60686
# Velocity P-wave (km/s) = 4.97515 6.07013 5.54972
#
# Compressibility (1/GPa) = 0.02072901
#
# Stress axis : x y z
#
# Youngs Moduli (GPa) = 49.05217 63.32330 65.39577
#
# Poissons Ratio (x) = 0.44807 -0.04560
# Poissons Ratio (y) = 0.34709 0.58802
# Poissons Ratio (z) = -0.03420 0.56939
#
# Static dielectric constant tensor:
#      x y z
#    x 1.716730 0.000000 0.000000 
#    y 0.000000 1.669010 0.000000 
#    z 0.000000 0.000000 1.715630 
# 
# From -- ./inp_files/56609.got.cif
#   From: 2010.05.17/outbox.cif.g08.bks.cpg/sg66_29_cif.got.tgz:56609.got - 2010.06.03 17:51:23.
