data_PCOD9496677
_publ_section_title
;
Structure prediction by ZEFSAII (Michael W. Deem and Ramdas Pophale) SiO2 
 PCOD9496677
Probable space group: C C C M
;
_chemical_formula_sum "Si O2"
_cell_formula_units_Z 88
_cell_length_a 24.492493
_cell_length_b 7.507864
_cell_length_c 20.917098
_cell_angle_alpha 90.000000
_cell_angle_beta 90.000000
_cell_angle_gamma 90.000000
_cell_volume 3846.367893
_symmetry_space_group_name_H-M "C C C M"
_symmetry_group_IT_number 66
_symmetry_cell_setting 'orthorhombic'
loop_
_space_group_symop_operation_xyz
x,y,z
-x,-y,z
x,-y,1/2-z
-x,y,1/2-z
-x,-y,-z
x,y,-z
-x,y,1/2+z
x,-y,1/2+z
1/2+x,1/2+y,z
1/2-x,1/2-y,z
1/2+x,1/2-y,1/2-z
1/2-x,1/2+y,1/2-z
1/2-x,1/2-y,-z
1/2+x,1/2+y,-z
1/2-x,1/2+y,1/2+z
1/2+x,1/2-y,1/2+z
loop_
_atom_site_type_symbol
_atom_site_label
_atom_site_fract_x
_atom_site_fract_y
_atom_site_fract_z
Si Si1 0.853205 0.142203 0.928210
Si Si2 0.750000 0.750000 0.144682
Si Si3 0.748211 0.000000 0.750000
Si Si4 0.437878 0.731074 0.680687
Si Si5 0.750000 0.750000 0.647790
Si Si6 0.857644 0.713640 0.072529
Si Si7 0.564435 0.296094 0.823127
O O1 0.794186 0.163741 0.897101
O O2 0.896220 0.239649 0.882359
O O3 0.861885 0.929571 0.931304
O O4 0.855168 0.212026 0.000000
O O5 0.779165 0.881387 0.196779
O O6 0.797284 0.671438 0.100249
O O7 0.718314 0.874434 0.699412
O O8 0.402014 0.826295 0.626903
O O9 0.419312 0.773354 0.752956
O O10 0.501994 0.766285 0.669476
O O11 0.434739 0.513890 0.678514
O O12 0.864995 0.646597 0.000000
#
# Coordination Sequence:
#
# PCOD9496677 Si02
#       7
#    16   8   8  16   8  16  16
#     4  10  20  32  50  76 111 145 174 214 263 318
#     4  11  21  38  52  82 106 142 174 224 262 312
#     4  10  24  34  58  78 102 140 184 222 264 304
#     4   8  15  27  45  71 103 138 176 219 263 306
#     4  11  21  38  52  82 106 142 174 224 262 312
#     4  10  20  32  50  76 111 145 174 214 263 318
#     4   8  15  27  45  71 103 138 176 219 263 306
#
# _framework density 22.878726
#
# number of rings (size 3 to 8) (size 9 to 14) (size 15 to 20)
#    0.000    2.545    1.818    1.636    5.091    0.727 
#    0.000    3.636    0.000    0.000    0.000    2.545 
#    0.000    2.909    0.000    0.000    0.000    0.000 
#
# Total GULP energy -245127.144395 kJ/mol
# GULP energy per Si atom -5571.071464 kJ/mol
# Density = 2.282665 g / cm^3
# Si number density = 22.878726 Si / 1000 Ang^3
#
#
#
# Elastic Constant Matrix: (Units=GPa)
#
#
# Indices 1 2 3 4 5 6 
#
# 1 100.7637 -1.8242 100.2503 0.0000 0.0000 0.0000
# 2 -1.8242 43.3328 19.1024 0.0000 0.0000 0.0000
# 3 100.2503 19.1024 244.1349 0.0000 0.0000 0.0000
# 4 0.0000 0.0000 0.0000 9.7575 0.0000 0.0000
# 5 0.0000 0.0000 0.0000 0.0000 -1.0495 0.0000
# 6 0.0000 0.0000 0.0000 0.0000 0.0000 5.5516
#
#
#
# Elastic Compliance Matrix: (Units=1/GPa)
#
#
# Indices 1 2 3 4 5 6 
#
# 1 0.017433 0.004029 -0.007474 0.000000 0.000000 0.000000
# 2 0.004029 0.024833 -0.003597 0.000000 0.000000 0.000000
# 3 -0.007474 -0.003597 0.007447 0.000000 0.000000 0.000000
# 4 0.000000 0.000000 0.000000 0.102486 0.000000 0.000000
# 5 0.000000 0.000000 0.000000 0.000000 -0.952790 0.000000
# 6 0.000000 0.000000 0.000000 0.000000 0.000000 0.180129
#
#
# Mechanical properties :
#
#
# Convention : Reuss Voigt Hill
#
# Bulk Modulus (GPa) = 28.06868 69.25429 48.66149
# Shear Modulus (GPa) = -8.41038 20.89875 6.24419
#
# Velocity S-wave (km/s) = -1.91939 3.02563 1.65384
# Velocity P-wave (km/s) = 2.71717 6.52240 4.99624
#
# Compressibility (1/GPa) = 0.03562690
#
# Stress axis : x y z
#
# Youngs Moduli (GPa) = 57.36318 40.26969 134.29054
#
# Poissons Ratio (x) = -0.16223 1.00365
# Poissons Ratio (y) = -0.23109 0.48308
# Poissons Ratio (z) = 0.42872 0.14486
#
# Static dielectric constant tensor:
#      x y z
#    x 1.810950 0.000000 0.000000 
#    y 0.000000 2.112510 0.000000 
#    z 0.000000 0.000000 1.817380 
# 
# From -- ./inp_files/47189.got.cif
#   From: 2010.05.17/outbox.cif.g08.bks.cpg/sg66_24_cif.got.tgz:47189.got - 2010.06.03 17:51:23.
