data_PCOD9496231
_publ_section_title
;
Structure prediction by ZEFSAII (Michael W. Deem and Ramdas Pophale) SiO2 
 PCOD9496231
Probable space group: C C C M
;
_chemical_formula_sum "Si O2"
_cell_formula_units_Z 76
_cell_length_a 14.561609
_cell_length_b 12.784813
_cell_length_c 20.393765
_cell_angle_alpha 90.000000
_cell_angle_beta 90.000000
_cell_angle_gamma 90.000000
_cell_volume 3796.655186
_symmetry_space_group_name_H-M "C C C M"
_symmetry_group_IT_number 66
_symmetry_cell_setting 'orthorhombic'
loop_
_space_group_symop_operation_xyz
x,y,z
-x,-y,z
x,-y,1/2-z
-x,y,1/2-z
-x,-y,-z
x,y,-z
-x,y,1/2+z
x,-y,1/2+z
1/2+x,1/2+y,z
1/2-x,1/2-y,z
1/2+x,1/2-y,1/2-z
1/2-x,1/2+y,1/2-z
1/2-x,1/2-y,-z
1/2+x,1/2+y,-z
1/2-x,1/2+y,1/2+z
1/2+x,1/2-y,1/2+z
loop_
_atom_site_type_symbol
_atom_site_label
_atom_site_fract_x
_atom_site_fract_y
_atom_site_fract_z
Si Si1 0.978950 0.121559 0.500000
Si Si2 0.312759 0.352715 0.500000
Si Si3 0.943687 0.403608 0.682337
Si Si4 0.969359 0.168879 0.356310
Si Si5 0.500000 0.500000 0.250000
Si Si6 0.272954 0.000000 0.250000
Si Si7 0.811243 0.854763 0.357649
O O1 0.079158 0.177560 0.500000
O O2 0.935006 0.141208 0.429285
O O3 0.000000 0.000000 0.500000
O O4 0.250000 0.250000 0.500000
O O5 0.295098 0.406066 0.429750
O O6 0.842258 0.439524 0.701348
O O7 0.000000 0.500000 0.648031
O O8 0.000000 0.390189 0.750000
O O9 0.940227 0.287971 0.654188
O O10 0.080818 0.169554 0.354926
O O11 0.948480 0.080725 0.300760
O O12 0.216474 0.924035 0.203622
O O13 0.750000 0.750000 0.354937
#
# Coordination Sequence:
#
# PCOD9496231 Si02
#       7
#     8   8  16  16   4   8  16
#     4  10  20  36  54  80 114 150 182 228 283 329
#     4   8  18  34  53  74 104 146 182 224 272 324
#     4   9  18  34  55  78 111 147 179 225 284 333
#     4  11  21  36  55  85 112 144 188 230 279 332
#     4  12  22  30  58  82 108 134 194 230 270 326
#     4  10  20  34  54  84 112 142 180 230 290 326
#     4  10  19  34  55  79 108 139 182 228 272 329
#
# _framework density 20.017620000000001
#
# number of rings (size 3 to 8) (size 9 to 14) (size 15 to 20)
#    0.000    2.316    2.105    3.158    0.000    0.000 
#    0.000    1.579    0.000    0.000    0.000    4.421 
#    0.000    0.000    0.000    0.000    0.000    0.000 
#
# Total GULP energy -211647.909877 kJ/mol
# GULP energy per Si atom -5569.681839 kJ/mol
# Density = 1.997206 g / cm^3
# Si number density = 20.017620 Si / 1000 Ang^3
#
#
#
# Elastic Constant Matrix: (Units=GPa)
#
#
# Indices 1 2 3 4 5 6 
#
# 1 59.6604 16.3097 17.0442 0.0000 0.0000 0.0000
# 2 16.3097 144.1740 71.1201 0.0000 0.0000 0.0000
# 3 17.0442 71.1201 148.9988 0.0000 0.0000 0.0000
# 4 0.0000 0.0000 0.0000 13.9821 0.0000 0.0000
# 5 0.0000 0.0000 0.0000 0.0000 5.6504 0.0000
# 6 0.0000 0.0000 0.0000 0.0000 0.0000 11.5229
#
#
#
# Elastic Compliance Matrix: (Units=1/GPa)
#
#
# Indices 1 2 3 4 5 6 
#
# 1 0.017512 -0.001299 -0.001383 0.000000 0.000000 0.000000
# 2 -0.001299 0.009168 -0.004228 0.000000 0.000000 0.000000
# 3 -0.001383 -0.004228 0.008888 0.000000 0.000000 0.000000
# 4 0.000000 0.000000 0.000000 0.071520 0.000000 0.000000
# 5 0.000000 0.000000 0.000000 0.000000 0.176978 0.000000
# 6 0.000000 0.000000 0.000000 0.000000 0.000000 0.086784
#
#
# Mechanical properties :
#
#
# Convention : Reuss Voigt Hill
#
# Bulk Modulus (GPa) = 45.98018 62.42014 54.20016
# Shear Modulus (GPa) = 12.75773 22.78835 17.77304
#
# Velocity S-wave (km/s) = 2.52727 3.37770 2.98295
# Velocity P-wave (km/s) = 5.61568 6.81631 6.24492
#
# Compressibility (1/GPa) = 0.02174850
#
# Stress axis : x y z
#
# Youngs Moduli (GPa) = 57.10454 109.06914 112.51511
#
# Poissons Ratio (x) = 0.14164 0.15565
# Poissons Ratio (y) = 0.07416 0.47569
# Poissons Ratio (z) = 0.07899 0.46112
#
# Static dielectric constant tensor:
#      x y z
#    x 1.732500 0.000000 0.000000 
#    y 0.000000 1.758250 0.000000 
#    z 0.000000 0.000000 1.767260 
# 
# From -- ./inp_files/57969.got.cif
#   From: 2010.05.17/outbox.cif.g08.bks.cpg/sg66_29_cif.got.tgz:57969.got - 2010.06.03 17:51:23.
