data_PCOD9496880
_publ_section_title
;
Structure prediction by ZEFSAII (Michael W. Deem and Ramdas Pophale) SiO2 
 PCOD9496880
Probable space group: C C C M
;
_chemical_formula_sum "Si O2"
_cell_formula_units_Z 88
_cell_length_a 11.458259
_cell_length_b 25.868328
_cell_length_c 14.702766
_cell_angle_alpha 90.000000
_cell_angle_beta 90.000000
_cell_angle_gamma 90.000000
_cell_volume 4357.988090
_symmetry_space_group_name_H-M "C C C M"
_symmetry_group_IT_number 66
_symmetry_cell_setting 'orthorhombic'
loop_
_space_group_symop_operation_xyz
x,y,z
-x,-y,z
x,-y,1/2-z
-x,y,1/2-z
-x,-y,-z
x,y,-z
-x,y,1/2+z
x,-y,1/2+z
1/2+x,1/2+y,z
1/2-x,1/2-y,z
1/2+x,1/2-y,1/2-z
1/2-x,1/2+y,1/2-z
1/2-x,1/2-y,-z
1/2+x,1/2+y,-z
1/2-x,1/2+y,1/2+z
1/2+x,1/2-y,1/2+z
loop_
_atom_site_type_symbol
_atom_site_label
_atom_site_fract_x
_atom_site_fract_y
_atom_site_fract_z
Si Si1 0.828657 0.623378 0.500000
Si Si2 0.007867 0.734750 0.640795
Si Si3 0.314504 0.682114 0.850335
Si Si4 0.514140 0.415123 0.148625
Si Si5 0.839795 0.027860 0.000000
Si Si6 0.930627 0.352521 0.500000
Si Si7 0.680678 0.592527 0.000000
Si Si8 0.250000 0.750000 0.687649
O O1 0.782487 0.658626 0.583566
O O2 0.760498 0.570095 0.500000
O O3 0.963319 0.607593 0.500000
O O4 0.033873 0.683050 0.585919
O O5 0.135084 0.760901 0.629287
O O6 0.000000 0.728271 0.750000
O O7 0.896252 0.769910 0.614627
O O8 0.406903 0.636132 0.838691
O O9 0.253274 0.701725 0.758252
O O10 0.500000 0.435524 0.250000
O O11 0.582455 0.456302 0.086785
O O12 0.400213 0.399228 0.089719
O O13 0.797804 0.969369 0.000000
O O14 0.800529 0.374875 0.500000
#
# Coordination Sequence:
#
# PCOD9496880 Si02
#       8
#     8  16  16  16   8   8   8   8
#     4  10  20  40  62  84 110 162 215 246 313 379
#     4  10  22  37  56  87 128 167 204 249 303 352
#     4  10  20  35  61  88 120 168 207 248 292 370
#     4  10  20  38  68  93 124 159 197 251 321 375
#     4   9  22  42  63  90 120 155 202 265 311 382
#     4  12  26  38  60  89 120 175 198 267 299 357
#     4  11  26  41  58  98 126 146 212 265 319 365
#     4  10  20  34  54  84 132 162 196 243 288 361
#
# _framework density 20.192803999999999
#
# number of rings (size 3 to 8) (size 9 to 14) (size 15 to 20)
#    0.000    1.818    0.000    6.000    5.091    3.273 
#    0.000    0.000    0.000    0.000    0.000    0.000 
#    0.000    0.000    0.000    0.000    0.000    0.000 
#
# Total GULP energy -245200.330736 kJ/mol
# GULP energy per Si atom -5572.734789 kJ/mol
# Density = 2.014684 g / cm^3
# Si number density = 20.192804 Si / 1000 Ang^3
#
#
#
# Elastic Constant Matrix: (Units=GPa)
#
#
# Indices 1 2 3 4 5 6 
#
# 1 122.5700 10.2649 9.9044 0.0000 0.0000 0.0000
# 2 10.2649 84.0241 5.7314 0.0000 0.0000 0.0000
# 3 9.9044 5.7314 88.7950 0.0000 0.0000 0.0000
# 4 0.0000 0.0000 0.0000 -7.5454 0.0000 0.0000
# 5 0.0000 0.0000 0.0000 0.0000 15.8771 0.0000
# 6 0.0000 0.0000 0.0000 0.0000 0.0000 29.2959
#
#
#
# Elastic Compliance Matrix: (Units=1/GPa)
#
#
# Indices 1 2 3 4 5 6 
#
# 1 0.008309 -0.000956 -0.000865 0.000000 0.000000 0.000000
# 2 -0.000956 0.012064 -0.000672 0.000000 0.000000 0.000000
# 3 -0.000865 -0.000672 0.011402 0.000000 0.000000 0.000000
# 4 0.000000 0.000000 0.000000 -0.132532 0.000000 0.000000
# 5 0.000000 0.000000 0.000000 0.000000 0.062984 0.000000
# 6 0.000000 0.000000 0.000000 0.000000 0.000000 0.034135
#
#
# Mechanical properties :
#
#
# Convention : Reuss Voigt Hill
#
# Bulk Modulus (GPa) = 37.33002 38.57670 37.95336
# Shear Modulus (GPa) = 486.54178 25.49141 256.01660
#
# Velocity S-wave (km/s) = 15.53934 3.55688 11.27215
# Velocity P-wave (km/s) = 18.45233 6.00118 13.72047
#
# Compressibility (1/GPa) = 0.02678810
#
# Stress axis : x y z
#
# Youngs Moduli (GPa) = 120.35767 82.89137 87.70572
#
# Poissons Ratio (x) = 0.07925 0.07587
# Poissons Ratio (y) = 0.11506 0.05894
# Poissons Ratio (z) = 0.10412 0.05571
#
# Static dielectric constant tensor:
#      x y z
#    x 1.798150 0.000000 0.000000 
#    y 0.000000 1.734350 0.000000 
#    z 0.000000 0.000000 1.717620 
# 
# From -- ./inp_files/26830.got.cif
#   From: 2010.05.17/outbox.cif.g08.bks.cpg/sg66_14_cif.got.tgz:26830.got - 2010.06.03 17:51:23.
