data_PCOD9496945
_publ_section_title
;
Structure prediction by ZEFSAII (Michael W. Deem and Ramdas Pophale) SiO2 
 PCOD9496945
Probable space group: C C C M
;
_chemical_formula_sum "Si O2"
_cell_formula_units_Z 64
_cell_length_a 8.104694
_cell_length_b 15.644168
_cell_length_c 23.801204
_cell_angle_alpha 90.000000
_cell_angle_beta 90.000000
_cell_angle_gamma 90.000000
_cell_volume 3017.783086
_symmetry_space_group_name_H-M "C C C M"
_symmetry_group_IT_number 66
_symmetry_cell_setting 'orthorhombic'
loop_
_space_group_symop_operation_xyz
x,y,z
-x,-y,z
x,-y,1/2-z
-x,y,1/2-z
-x,-y,-z
x,y,-z
-x,y,1/2+z
x,-y,1/2+z
1/2+x,1/2+y,z
1/2-x,1/2-y,z
1/2+x,1/2-y,1/2-z
1/2-x,1/2+y,1/2-z
1/2-x,1/2-y,-z
1/2+x,1/2+y,-z
1/2-x,1/2+y,1/2+z
1/2+x,1/2-y,1/2+z
loop_
_atom_site_type_symbol
_atom_site_label
_atom_site_fract_x
_atom_site_fract_y
_atom_site_fract_z
Si Si1 0.803003 0.014109 0.000000
Si Si2 0.937319 0.590640 0.313742
Si Si3 0.616621 0.419900 0.118023
Si Si4 0.874769 0.329914 0.500000
Si Si5 0.948208 0.262190 0.892999
O O1 0.781958 0.063188 0.940459
O O2 0.708058 0.923576 0.000000
O O3 0.000000 0.000000 0.000000
O O4 0.743319 0.590995 0.330224
O O5 0.999498 0.678064 0.341654
O O6 0.000000 0.500000 0.338363
O O7 0.000000 0.591209 0.250000
O O8 0.500000 0.500000 0.127743
O O9 0.500858 0.336662 0.110046
O O10 0.750000 0.250000 0.500000
O O11 0.985545 0.312192 0.553898
O O12 0.750000 0.250000 0.895346
#
# Coordination Sequence:
#
# PCOD9496945 Si02
#       5
#     8  16  16   8  16
#     4  10  20  34  59  95 133 163 201 252 317 389
#     4  10  22  42  62  85 119 159 207 260 314 375
#     4  10  20  40  64  93 126 162 205 261 316 378
#     4  12  21  34  60  95 129 167 204 252 310 373
#     4  10  22  40  63  91 125 161 205 256 314 377
#
# _framework density 21.207621
#
# number of rings (size 3 to 8) (size 9 to 14) (size 15 to 20)
#    0.000    1.750    0.000    5.625    0.000    3.000 
#    0.000   27.500    0.000    1.500    0.000    0.000 
#    0.000    0.000    0.000    0.000    0.000    0.000 
#
# Total GULP energy -178443.835134 kJ/mol
# GULP energy per Si atom -5576.369848 kJ/mol
# Density = 2.115935 g / cm^3
# Si number density = 21.207621 Si / 1000 Ang^3
#
#
#
# Elastic Constant Matrix: (Units=GPa)
#
#
# Indices 1 2 3 4 5 6 
#
# 1 49.0731 35.3133 42.8609 0.0000 0.0000 0.0000
# 2 35.3133 218.2728 63.4551 0.0000 0.0000 0.0000
# 3 42.8609 63.4551 138.3337 0.0000 0.0000 0.0000
# 4 0.0000 0.0000 0.0000 28.2319 0.0000 0.0000
# 5 0.0000 0.0000 0.0000 0.0000 26.8997 0.0000
# 6 0.0000 0.0000 0.0000 0.0000 0.0000 46.4105
#
#
#
# Elastic Compliance Matrix: (Units=1/GPa)
#
#
# Indices 1 2 3 4 5 6 
#
# 1 0.028987 -0.002399 -0.007881 0.000000 0.000000 0.000000
# 2 -0.002399 0.005485 -0.001773 0.000000 0.000000 0.000000
# 3 -0.007881 -0.001773 0.010484 0.000000 0.000000 0.000000
# 4 0.000000 0.000000 0.000000 0.035421 0.000000 0.000000
# 5 0.000000 0.000000 0.000000 0.000000 0.037175 0.000000
# 6 0.000000 0.000000 0.000000 0.000000 0.000000 0.021547
#
#
# Mechanical properties :
#
#
# Convention : Reuss Voigt Hill
#
# Bulk Modulus (GPa) = 47.95903 76.54870 62.25387
# Shear Modulus (GPa) = 29.38514 37.91176 33.64845
#
# Velocity S-wave (km/s) = 3.72639 4.23265 3.98756
# Velocity P-wave (km/s) = 6.41700 7.74986 7.11471
#
# Compressibility (1/GPa) = 0.02085113
#
# Stress axis : x y z
#
# Youngs Moduli (GPa) = 34.49805 182.32027 95.38406
#
# Poissons Ratio (x) = 0.43731 0.75173
# Poissons Ratio (y) = 0.08275 0.16910
# Poissons Ratio (z) = 0.27188 0.32322
#
# Static dielectric constant tensor:
#      x y z
#    x 1.821250 0.000000 0.000000 
#    y 0.000000 1.878430 0.000000 
#    z 0.000000 0.000000 1.802560 
# 
# From -- ./inp_files/55022.got.cif
#   From: 2010.05.17/outbox.cif.g08.bks.cpg/sg66_28_cif.got.tgz:55022.got - 2010.06.03 17:51:23.
