data_PCOD9496948
_publ_section_title
;
Structure prediction by ZEFSAII (Michael W. Deem and Ramdas Pophale) SiO2 
 PCOD9496948
Probable space group: C C C M
;
_chemical_formula_sum "Si O2"
_cell_formula_units_Z 44
_cell_length_a 13.670075
_cell_length_b 7.946149
_cell_length_c 14.782889
_cell_angle_alpha 90.000000
_cell_angle_beta 90.000000
_cell_angle_gamma 90.000000
_cell_volume 1605.783228
_symmetry_space_group_name_H-M "C C C M"
_symmetry_group_IT_number 66
_symmetry_cell_setting 'orthorhombic'
loop_
_space_group_symop_operation_xyz
x,y,z
-x,-y,z
x,-y,1/2-z
-x,y,1/2-z
-x,-y,-z
x,y,-z
-x,y,1/2+z
x,-y,1/2+z
1/2+x,1/2+y,z
1/2-x,1/2-y,z
1/2+x,1/2-y,1/2-z
1/2-x,1/2+y,1/2-z
1/2-x,1/2-y,-z
1/2+x,1/2+y,-z
1/2-x,1/2+y,1/2+z
1/2+x,1/2-y,1/2+z
loop_
_atom_site_type_symbol
_atom_site_label
_atom_site_fract_x
_atom_site_fract_y
_atom_site_fract_z
Si Si1 0.146585 0.423229 0.000000
Si Si2 0.139741 0.219875 0.328504
Si Si3 0.750000 0.250000 0.656551
Si Si4 0.954240 0.211782 0.000000
Si Si5 0.500000 0.000000 0.750000
O O1 0.207984 0.389165 0.909843
O O2 0.102594 0.607983 0.000000
O O3 0.065067 0.274944 0.000000
O O4 0.250000 0.250000 0.363572
O O5 0.167769 0.174633 0.224081
O O6 0.082466 0.124815 0.407962
O O7 0.069370 0.380655 0.309189
#
# Coordination Sequence:
#
# PCOD9496948 Si02
#       5
#     8  16   8   8   4
#     4  10  20  34  60  90 124 170 217 267 318 395
#     4  10  22  34  60  97 134 166 212 277 312 393
#     4   9  20  35  48  92 136 159 214 273 318 376
#     4  11  19  34  60  91 123 170 219 259 332 379
#     4  12  20  42  68  96 128 174 224 258 340 376
#
# _framework density 27.400957999999999
#
# number of rings (size 3 to 8) (size 9 to 14) (size 15 to 20)
#    1.091    0.727    0.000    7.091    0.000    0.000 
#    0.000    0.000    0.000    1.091    0.000   15.273 
#    0.000    0.000    0.000    0.000    0.000    0.000 
#
# Total GULP energy -122953.187404 kJ/mol
# GULP energy per Si atom -5588.781246 kJ/mol
# Density = 2.733859 g / cm^3
# Si number density = 27.400958 Si / 1000 Ang^3
#
#
#
# Elastic Constant Matrix: (Units=GPa)
#
#
# Indices 1 2 3 4 5 6 
#
# 1 167.5428 55.2791 68.2912 0.0000 0.0000 0.0000
# 2 55.2791 93.1457 40.4312 0.0000 0.0000 0.0000
# 3 68.2912 40.4312 244.4338 0.0000 0.0000 0.0000
# 4 0.0000 0.0000 0.0000 -4.6027 0.0000 0.0000
# 5 0.0000 0.0000 0.0000 0.0000 98.3952 0.0000
# 6 0.0000 0.0000 0.0000 0.0000 0.0000 49.0592
#
#
#
# Elastic Compliance Matrix: (Units=1/GPa)
#
#
# Indices 1 2 3 4 5 6 
#
# 1 0.007931 -0.004035 -0.001548 0.000000 0.000000 0.000000
# 2 -0.004035 0.013619 -0.001125 0.000000 0.000000 0.000000
# 3 -0.001548 -0.001125 0.004710 0.000000 0.000000 0.000000
# 4 0.000000 0.000000 0.000000 -0.217262 0.000000 0.000000
# 5 0.000000 0.000000 0.000000 0.000000 0.010163 0.000000
# 6 0.000000 0.000000 0.000000 0.000000 0.000000 0.020384
#
#
# Mechanical properties :
#
#
# Convention : Reuss Voigt Hill
#
# Bulk Modulus (GPa) = 77.86589 92.56947 85.21768
# Shear Modulus (GPa) = -35.02424 51.31170 8.14373
#
# Velocity S-wave (km/s) = -3.57909 4.33208 1.72584
# Velocity P-wave (km/s) = 3.37625 7.67328 5.92783
#
# Compressibility (1/GPa) = 0.01284259
#
# Stress axis : x y z
#
# Youngs Moduli (GPa) = 126.08788 73.42771 212.32089
#
# Poissons Ratio (x) = 0.29626 0.32877
# Poissons Ratio (y) = 0.50872 0.23895
# Poissons Ratio (z) = 0.19524 0.08264
#
# Static dielectric constant tensor:
#      x y z
#    x 2.068820 0.000000 0.000000 
#    y 0.000000 2.227990 0.000000 
#    z 0.000000 0.000000 2.243060 
# 
# From -- ./inp_files/25225.got.cif
#   From: 2010.05.17/outbox.cif.g08.bks.cpg/sg66_13_cif.got.tgz:25225.got - 2010.06.03 17:51:23.
