data_PCOD9496759
_publ_section_title
;
Structure prediction by ZEFSAII (Michael W. Deem and Ramdas Pophale) SiO2 
 PCOD9496759
Probable space group: C C C M
;
_chemical_formula_sum "Si O2"
_cell_formula_units_Z 108
_cell_length_a 23.825342
_cell_length_b 16.531880
_cell_length_c 13.874726
_cell_angle_alpha 90.000000
_cell_angle_beta 90.000000
_cell_angle_gamma 90.000000
_cell_volume 5464.945094
_symmetry_space_group_name_H-M "C C C M"
_symmetry_group_IT_number 66
_symmetry_cell_setting 'orthorhombic'
loop_
_space_group_symop_operation_xyz
x,y,z
-x,-y,z
x,-y,1/2-z
-x,y,1/2-z
-x,-y,-z
x,y,-z
-x,y,1/2+z
x,-y,1/2+z
1/2+x,1/2+y,z
1/2-x,1/2-y,z
1/2+x,1/2-y,1/2-z
1/2-x,1/2+y,1/2-z
1/2-x,1/2-y,-z
1/2+x,1/2+y,-z
1/2-x,1/2+y,1/2+z
1/2+x,1/2-y,1/2+z
loop_
_atom_site_type_symbol
_atom_site_label
_atom_site_fract_x
_atom_site_fract_y
_atom_site_fract_z
Si Si1 0.231853 0.500000 0.750000
Si Si2 0.524732 0.296821 0.383225
Si Si3 0.173712 0.001055 0.614906
Si Si4 0.050494 0.060968 0.383142
Si Si5 0.318054 0.140927 0.887806
Si Si6 0.500000 0.000000 0.750000
Si Si7 0.847033 0.815500 0.883781
Si Si8 0.048689 0.620758 0.393221
O O1 0.274365 0.460749 0.671504
O O2 0.199982 0.429941 0.812647
O O3 0.526871 0.306237 0.500000
O O4 0.473716 0.352793 0.350591
O O5 0.587878 0.318174 0.350140
O O6 0.517068 0.202706 0.364265
O O7 0.178066 0.011987 0.500000
O O8 0.112706 0.034616 0.646906
O O9 0.176877 0.904430 0.635473
O O10 0.053193 0.059728 0.500000
O O11 0.000000 0.000000 0.357378
O O12 0.313007 0.235049 0.852951
O O13 0.385358 0.136947 0.897435
O O14 0.295429 0.131127 0.000000
O O15 0.538104 0.053270 0.682816
O O16 0.848929 0.807738 0.000000
O O17 0.029364 0.597664 0.500000
#
# Coordination Sequence:
#
# PCOD9496759 Si02
#       8
#     8  16  16  16  16   4  16  16
#     4  12  23  34  47  75 112 149 192 240 286 326
#     4   8  13  26  50  79 109 141 176 215 267 333
#     4  10  20  33  52  81 113 146 186 229 276 337
#     4   9  14  25  51  80 109 149 180 208 266 343
#     4   9  19  37  59  79 102 139 187 243 294 329
#     4  12  20  32  52  82 114 142 174 228 294 342
#     4   8  14  29  55  82 102 128 179 238 285 324
#     4   9  19  34  55  82 109 139 180 228 282 344
#
# _framework density 19.762322000000001
#
# number of rings (size 3 to 8) (size 9 to 14) (size 15 to 20)
#    0.000    2.815    1.481    2.889    0.000    0.593 
#    0.000    5.556    0.000    1.778    0.000   10.370 
#    0.000    0.000    0.000    1.333    0.000    0.000 
#
# Total GULP energy -300859.163191 kJ/mol
# GULP energy per Si atom -5571.465985 kJ/mol
# Density = 1.971734 g / cm^3
# Si number density = 19.762322 Si / 1000 Ang^3
#
#
#
# Elastic Constant Matrix: (Units=GPa)
#
#
# Indices 1 2 3 4 5 6 
#
# 1 69.2389 54.8143 28.2261 0.0000 0.0000 0.0000
# 2 54.8143 121.0443 47.1970 0.0000 0.0000 0.0000
# 3 28.2261 47.1970 95.9716 0.0000 0.0000 0.0000
# 4 0.0000 0.0000 0.0000 22.2986 0.0000 0.0000
# 5 0.0000 0.0000 0.0000 0.0000 26.9147 0.0000
# 6 0.0000 0.0000 0.0000 0.0000 0.0000 17.0168
#
#
#
# Elastic Compliance Matrix: (Units=1/GPa)
#
#
# Indices 1 2 3 4 5 6 
#
# 1 0.022825 -0.009550 -0.002017 0.000000 0.000000 0.000000
# 2 -0.009550 0.014217 -0.004183 0.000000 0.000000 0.000000
# 3 -0.002017 -0.004183 0.013070 0.000000 0.000000 0.000000
# 4 0.000000 0.000000 0.000000 0.044846 0.000000 0.000000
# 5 0.000000 0.000000 0.000000 0.000000 0.037154 0.000000
# 6 0.000000 0.000000 0.000000 0.000000 0.000000 0.058765
#
#
# Mechanical properties :
#
#
# Convention : Reuss Voigt Hill
#
# Bulk Modulus (GPa) = 53.72534 60.74773 57.23654
# Shear Modulus (GPa) = 21.87403 23.64719 22.76061
#
# Velocity S-wave (km/s) = 3.33055 3.46291 3.39738
# Velocity P-wave (km/s) = 6.48343 6.84068 6.66445
#
# Compressibility (1/GPa) = 0.01861319
#
# Stress axis : x y z
#
# Youngs Moduli (GPa) = 43.81104 70.33777 76.51141
#
# Poissons Ratio (x) = 0.67173 0.15429
# Poissons Ratio (y) = 0.41840 0.32004
# Poissons Ratio (z) = 0.08835 0.29422
#
# Static dielectric constant tensor:
#      x y z
#    x 1.730010 0.000000 0.000000 
#    y 0.000000 1.750250 0.000000 
#    z 0.000000 0.000000 1.745250 
# 
# From -- ./inp_files/32523.got.cif
#   From: 2010.05.17/outbox.cif.g08.bks.cpg/sg66_17_cif.got.tgz:32523.got - 2010.06.03 17:51:23.
