data_PCOD9496877
_publ_section_title
;
Structure prediction by ZEFSAII (Michael W. Deem and Ramdas Pophale) SiO2 
 PCOD9496877
Probable space group: C C C M
;
_chemical_formula_sum "Si O2"
_cell_formula_units_Z 96
_cell_length_a 25.053569
_cell_length_b 9.442697
_cell_length_c 20.764738
_cell_angle_alpha 90.000000
_cell_angle_beta 90.000000
_cell_angle_gamma 90.000000
_cell_volume 4912.381779
_symmetry_space_group_name_H-M "C C C M"
_symmetry_group_IT_number 66
_symmetry_cell_setting 'orthorhombic'
loop_
_space_group_symop_operation_xyz
x,y,z
-x,-y,z
x,-y,1/2-z
-x,y,1/2-z
-x,-y,-z
x,y,-z
-x,y,1/2+z
x,-y,1/2+z
1/2+x,1/2+y,z
1/2-x,1/2-y,z
1/2+x,1/2-y,1/2-z
1/2-x,1/2+y,1/2-z
1/2-x,1/2-y,-z
1/2+x,1/2+y,-z
1/2-x,1/2+y,1/2+z
1/2+x,1/2-y,1/2+z
loop_
_atom_site_type_symbol
_atom_site_label
_atom_site_fract_x
_atom_site_fract_y
_atom_site_fract_z
Si Si1 0.293612 0.980248 0.426851
Si Si2 0.940688 0.977345 0.573833
Si Si3 0.614824 0.189446 0.076359
Si Si4 0.124300 0.763393 0.617278
Si Si5 0.780668 0.894098 0.809278
Si Si6 0.562723 0.019857 0.321556
O O1 0.272504 0.972658 0.500000
O O2 0.336906 0.851435 0.417837
O O3 0.250185 0.956808 0.371642
O O4 0.324761 0.129383 0.417981
O O5 0.951491 0.938114 0.500000
O O6 0.902564 0.847900 0.596088
O O7 0.906867 0.121039 0.576126
O O8 0.000000 0.000000 0.604285
O O9 0.583330 0.089284 0.125218
O O10 0.602133 0.166492 0.000000
O O11 0.161266 0.847666 0.667112
O O12 0.080180 0.672541 0.654084
O O13 0.750000 0.750000 0.790859
O O14 0.780851 0.000000 0.750000
O O15 0.500000 0.000000 0.317800
O O16 0.586367 0.000000 0.250000
#
# Coordination Sequence:
#
# PCOD9496877 Si02
#       6
#    16  16  16  16  16  16
#     4   9  19  37  60  84 110 145 193 239 279 333
#     4  10  20  34  54  84 120 152 185 231 287 343
#     4   9  19  35  56  82 113 150 187 229 284 341
#     4  10  21  35  56  83 111 147 189 234 285 334
#     4  10  23  39  58  84 113 149 189 234 289 344
#     4  10  21  37  57  81 110 148 193 236 277 329
#
# _framework density 19.542455
#
# number of rings (size 3 to 8) (size 9 to 14) (size 15 to 20)
#    0.000    2.333    0.000    1.500    0.000   13.333 
#    0.000    0.000    0.000    6.500    0.000    0.000 
#    0.000    0.000    0.000    0.000    0.000    0.000 
#
# Total GULP energy -267457.639393 kJ/mol
# GULP energy per Si atom -5572.034154 kJ/mol
# Density = 1.949798 g / cm^3
# Si number density = 19.542455 Si / 1000 Ang^3
#
#
#
# Elastic Constant Matrix: (Units=GPa)
#
#
# Indices 1 2 3 4 5 6 
#
# 1 69.8454 42.6425 25.5237 0.0000 0.0000 0.0000
# 2 42.6425 115.1901 42.9253 0.0000 0.0000 0.0000
# 3 25.5237 42.9253 83.9027 0.0000 0.0000 0.0000
# 4 0.0000 0.0000 0.0000 29.5420 0.0000 0.0000
# 5 0.0000 0.0000 0.0000 0.0000 -14.0759 0.0000
# 6 0.0000 0.0000 0.0000 0.0000 0.0000 23.4060
#
#
#
# Elastic Compliance Matrix: (Units=1/GPa)
#
#
# Indices 1 2 3 4 5 6 
#
# 1 0.018978 -0.006022 -0.002692 0.000000 0.000000 0.000000
# 2 -0.006022 0.012637 -0.004633 0.000000 0.000000 0.000000
# 3 -0.002692 -0.004633 0.015108 0.000000 0.000000 0.000000
# 4 0.000000 0.000000 0.000000 0.033850 0.000000 0.000000
# 5 0.000000 0.000000 0.000000 0.000000 -0.071043 0.000000
# 6 0.000000 0.000000 0.000000 0.000000 0.000000 0.042724
#
#
# Mechanical properties :
#
#
# Convention : Reuss Voigt Hill
#
# Bulk Modulus (GPa) = 49.93085 54.56900 52.24993
# Shear Modulus (GPa) = 58.39383 18.29752 38.34568
#
# Velocity S-wave (km/s) = 5.47224 3.06321 4.43445
# Velocity P-wave (km/s) = 8.09522 6.36357 7.28106
#
# Compressibility (1/GPa) = 0.02002770
#
# Stress axis : x y z
#
# Youngs Moduli (GPa) = 52.69296 79.13092 66.19017
#
# Poissons Ratio (x) = 0.47654 0.17819
# Poissons Ratio (y) = 0.31733 0.30668
# Poissons Ratio (z) = 0.14186 0.36664
#
# Static dielectric constant tensor:
#      x y z
#    x 1.761330 0.000000 0.000000 
#    y 0.000000 1.695210 0.000000 
#    z 0.000000 0.000000 1.693840 
# 
# From -- ./inp_files/52958.got.cif
#   From: 2010.05.17/outbox.cif.g08.bks.cpg/sg66_27_cif.got.tgz:52958.got - 2010.06.03 17:51:23.
