data_PCOD9496101
_publ_section_title
;
Structure prediction by ZEFSAII (Michael W. Deem and Ramdas Pophale) SiO2 
 PCOD9496101
Probable space group: C C C M
;
_chemical_formula_sum "Si O2"
_cell_formula_units_Z 88
_cell_length_a 7.704064
_cell_length_b 20.037230
_cell_length_c 25.532186
_cell_angle_alpha 90.000000
_cell_angle_beta 90.000000
_cell_angle_gamma 90.000000
_cell_volume 3941.355100
_symmetry_space_group_name_H-M "C C C M"
_symmetry_group_IT_number 66
_symmetry_cell_setting 'orthorhombic'
loop_
_space_group_symop_operation_xyz
x,y,z
-x,-y,z
x,-y,1/2-z
-x,y,1/2-z
-x,-y,-z
x,y,-z
-x,y,1/2+z
x,-y,1/2+z
1/2+x,1/2+y,z
1/2-x,1/2-y,z
1/2+x,1/2-y,1/2-z
1/2-x,1/2+y,1/2-z
1/2-x,1/2-y,-z
1/2+x,1/2+y,-z
1/2-x,1/2+y,1/2+z
1/2+x,1/2-y,1/2+z
loop_
_atom_site_type_symbol
_atom_site_label
_atom_site_fract_x
_atom_site_fract_y
_atom_site_fract_z
Si Si1 0.150853 0.121932 0.386546
Si Si2 0.823409 0.085578 0.000000
Si Si3 0.750000 0.250000 0.335062
Si Si4 0.287200 0.496078 0.310840
Si Si5 0.500000 0.243767 0.750000
Si Si6 0.243389 0.930503 0.500000
Si Si7 0.235589 0.612507 0.613212
Si Si8 0.250000 0.750000 0.169582
O O1 0.228209 0.116698 0.444631
O O2 0.238452 0.070575 0.345823
O O3 0.161555 0.196544 0.366244
O O4 0.945902 0.107003 0.389680
O O5 0.035576 0.085708 0.000000
O O6 0.754840 0.010241 0.000000
O O7 0.613685 0.281835 0.293232
O O8 0.813871 0.312624 0.368678
O O9 0.500000 0.500000 0.309691
O O10 0.232568 0.500000 0.250000
O O11 0.198251 0.556529 0.343163
O O12 0.629825 0.208531 0.789637
O O13 0.323358 0.903648 0.554185
#
# Coordination Sequence:
#
# PCOD9496101 Si02
#       8
#    16   8   8  16   8   8  16   8
#     4  10  19  33  54  84 114 149 190 236 285 332
#     4   9  16  31  54  83 117 146 185 244 292 320
#     4  11  22  37  58  84 116 153 191 232 282 342
#     4   9  18  27  47  79 111 139 188 241 278 318
#     4  10  24  38  56  78 122 160 184 224 290 344
#     4   9  16  31  54  83 117 146 185 244 292 320
#     4  10  19  33  54  84 114 149 190 236 285 332
#     4  11  22  37  58  84 116 153 191 232 282 342
#
# _framework density 22.327345000000001
#
# number of rings (size 3 to 8) (size 9 to 14) (size 15 to 20)
#    0.000    2.182    3.636    0.000    5.091    0.727 
#    0.000    0.000    0.000    2.182    0.000    1.273 
#    0.000    0.000    0.000    0.000    0.000    0.000 
#
# Total GULP energy -244957.000596 kJ/mol
# GULP energy per Si atom -5567.204559 kJ/mol
# Density = 2.227653 g / cm^3
# Si number density = 22.327345 Si / 1000 Ang^3
#
#
#
# Elastic Constant Matrix: (Units=GPa)
#
#
# Indices 1 2 3 4 5 6 
#
# 1 20.7329 -4.5704 18.2117 0.0000 0.0000 0.0000
# 2 -4.5704 95.1223 82.3642 0.0000 0.0000 0.0000
# 3 18.2117 82.3642 240.7700 0.0000 0.0000 0.0000
# 4 0.0000 0.0000 0.0000 22.0757 0.0000 0.0000
# 5 0.0000 0.0000 0.0000 0.0000 2.3650 0.0000
# 6 0.0000 0.0000 0.0000 0.0000 0.0000 12.5809
#
#
#
# Elastic Compliance Matrix: (Units=1/GPa)
#
#
# Indices 1 2 3 4 5 6 
#
# 1 0.056776 0.009160 -0.007428 0.000000 0.000000 0.000000
# 2 0.009160 0.016415 -0.006308 0.000000 0.000000 0.000000
# 3 -0.007428 -0.006308 0.006873 0.000000 0.000000 0.000000
# 4 0.000000 0.000000 0.000000 0.045299 0.000000 0.000000
# 5 0.000000 0.000000 0.000000 0.000000 0.422826 0.000000
# 6 0.000000 0.000000 0.000000 0.000000 0.000000 0.079485
#
#
# Mechanical properties :
#
#
# Convention : Reuss Voigt Hill
#
# Bulk Modulus (GPa) = 14.10211 60.95956 37.53084
# Shear Modulus (GPa) = 7.57043 24.77898 16.17471
#
# Velocity S-wave (km/s) = 1.84337 3.33499 2.69445
# Velocity P-wave (km/s) = 3.29552 6.49549 5.15034
#
# Compressibility (1/GPa) = 0.07091136
#
# Stress axis : x y z
#
# Youngs Moduli (GPa) = 17.61302 60.92000 145.49434
#
# Poissons Ratio (x) = -0.55800 1.08071
# Poissons Ratio (y) = -0.16133 0.91780
# Poissons Ratio (z) = 0.13083 0.38429
#
# Static dielectric constant tensor:
#      x y z
#    x 2.057700 0.000000 0.000000 
#    y 0.000000 1.773330 0.000000 
#    z 0.000000 0.000000 1.841730 
# 
# From -- ./inp_files/55541.got.cif
#   From: 2010.05.17/outbox.cif.g08.bks.cpg/sg66_28_cif.got.tgz:55541.got - 2010.06.03 17:51:23.
