data_PCOD9496712
_publ_section_title
;
Structure prediction by ZEFSAII (Michael W. Deem and Ramdas Pophale) SiO2 
 PCOD9496712
Probable space group: C C C M
;
_chemical_formula_sum "Si O2"
_cell_formula_units_Z 80
_cell_length_a 28.244012
_cell_length_b 13.466689
_cell_length_c 8.898281
_cell_angle_alpha 90.000000
_cell_angle_beta 90.000000
_cell_angle_gamma 90.000000
_cell_volume 3384.490772
_symmetry_space_group_name_H-M "C C C M"
_symmetry_group_IT_number 66
_symmetry_cell_setting 'orthorhombic'
loop_
_space_group_symop_operation_xyz
x,y,z
-x,-y,z
x,-y,1/2-z
-x,y,1/2-z
-x,-y,-z
x,y,-z
-x,y,1/2+z
x,-y,1/2+z
1/2+x,1/2+y,z
1/2-x,1/2-y,z
1/2+x,1/2-y,1/2-z
1/2-x,1/2+y,1/2-z
1/2-x,1/2-y,-z
1/2+x,1/2+y,-z
1/2-x,1/2+y,1/2+z
1/2+x,1/2-y,1/2+z
loop_
_atom_site_type_symbol
_atom_site_label
_atom_site_fract_x
_atom_site_fract_y
_atom_site_fract_z
Si Si1 0.837512 0.871817 0.834412
Si Si2 0.930987 0.898096 0.675238
Si Si3 0.754780 0.370271 0.167295
Si Si4 0.349074 0.133689 0.830484
Si Si5 0.548221 0.184000 0.680764
O O1 0.874403 0.899435 0.705112
O O2 0.784530 0.898811 0.789166
O O3 0.841051 0.752573 0.843176
O O4 0.851586 0.909274 0.000000
O O5 0.942532 0.893301 0.500000
O O6 0.947195 0.797301 0.757901
O O7 0.948536 0.000000 0.750000
O O8 0.750000 0.250000 0.160650
O O9 0.807458 0.397111 0.219386
O O10 0.744631 0.407452 0.000000
O O11 0.403421 0.126153 0.777042
O O12 0.344319 0.092908 0.000000
O O13 0.500000 0.142066 0.750000
O O14 0.546303 0.186922 0.500000
#
# Coordination Sequence:
#
# PCOD9496712 Si02
#       5
#    16  16  16  16  16
#     4   9  16  27  41  57  77  99 123 153 192 234
#     4  11  21  33  46  59  76  99 131 169 207 243
#     4   9  15  22  36  58  79  98 121 149 184 228
#     4   8  15  26  39  55  76  99 122 152 191 234
#     4  10  20  33  46  60  77 100 132 169 208 243
#
# _framework density 23.637236000000001
#
# number of rings (size 3 to 8) (size 9 to 14) (size 15 to 20)
#    0.000    2.600    0.000    4.800    0.000    8.400 
#    0.000    2.000    0.000    0.000    0.000    0.000 
#    0.000    0.000    0.000    0.000    0.000    1.000 
#
# Total GULP energy -223543.856838 kJ/mol
# GULP energy per Si atom -5588.596421 kJ/mol
# Density = 2.358344 g / cm^3
# Si number density = 23.637236 Si / 1000 Ang^3
#
#
#
# Elastic Constant Matrix: (Units=GPa)
#
#
# Indices 1 2 3 4 5 6 
#
# 1 177.0909 -11.4805 44.7969 0.0000 0.0000 0.0000
# 2 -11.4805 67.0451 10.1851 0.0000 0.0000 0.0000
# 3 44.7969 10.1851 102.7813 0.0000 0.0000 0.0000
# 4 0.0000 0.0000 0.0000 18.6167 0.0000 0.0000
# 5 0.0000 0.0000 0.0000 0.0000 31.5938 0.0000
# 6 0.0000 0.0000 0.0000 0.0000 0.0000 -16.6912
#
#
#
# Elastic Compliance Matrix: (Units=1/GPa)
#
#
# Indices 1 2 3 4 5 6 
#
# 1 0.006505 0.001568 -0.002991 0.000000 0.000000 0.000000
# 2 0.001568 0.015521 -0.002222 0.000000 0.000000 0.000000
# 3 -0.002991 -0.002222 0.011253 0.000000 0.000000 0.000000
# 4 0.000000 0.000000 0.000000 0.053715 0.000000 0.000000
# 5 0.000000 0.000000 0.000000 0.000000 0.031652 0.000000
# 6 0.000000 0.000000 0.000000 0.000000 0.000000 -0.059912
#
#
# Mechanical properties :
#
#
# Convention : Reuss Voigt Hill
#
# Bulk Modulus (GPa) = 38.47428 48.21336 43.34382
# Shear Modulus (GPa) = 66.94673 26.93158 46.93915
#
# Velocity S-wave (km/s) = 5.32767 3.37912 4.46108
# Velocity P-wave (km/s) = 7.35919 5.97211 6.70163
#
# Compressibility (1/GPa) = 0.02599139
#
# Stress axis : x y z
#
# Youngs Moduli (GPa) = 153.72849 64.42740 88.86539
#
# Poissons Ratio (x) = -0.10103 0.26576
# Poissons Ratio (y) = -0.24108 0.19742
# Poissons Ratio (z) = 0.45974 0.14313
#
# Static dielectric constant tensor:
#      x y z
#    x 1.920080 0.000000 0.000000 
#    y 0.000000 1.974260 0.000000 
#    z 0.000000 0.000000 1.812210 
# 
# From -- ./inp_files/6688.got.cif
#   From: 2010.05.17/outbox.cif.g08.bks.cpg/sg66_4_cif.got.tgz:6688.got - 2010.06.03 17:51:23.
