data_PCOD9496062
_publ_section_title
;
Structure prediction by ZEFSAII (Michael W. Deem and Ramdas Pophale) SiO2 
 PCOD9496062
Probable space group: C C C M
;
_chemical_formula_sum "Si O2"
_cell_formula_units_Z 116
_cell_length_a 23.745803
_cell_length_b 27.661746
_cell_length_c 7.293088
_cell_angle_alpha 90.000000
_cell_angle_beta 90.000000
_cell_angle_gamma 90.000000
_cell_volume 4790.467560
_symmetry_space_group_name_H-M "C C C M"
_symmetry_group_IT_number 66
_symmetry_cell_setting 'orthorhombic'
loop_
_space_group_symop_operation_xyz
x,y,z
-x,-y,z
x,-y,1/2-z
-x,y,1/2-z
-x,-y,-z
x,y,-z
-x,y,1/2+z
x,-y,1/2+z
1/2+x,1/2+y,z
1/2-x,1/2-y,z
1/2+x,1/2-y,1/2-z
1/2-x,1/2+y,1/2-z
1/2-x,1/2-y,-z
1/2+x,1/2+y,-z
1/2-x,1/2+y,1/2+z
1/2+x,1/2-y,1/2+z
loop_
_atom_site_type_symbol
_atom_site_label
_atom_site_fract_x
_atom_site_fract_y
_atom_site_fract_z
Si Si1 0.286069 0.903601 0.223073
Si Si2 0.000000 0.500000 0.250000
Si Si3 0.938187 0.882847 0.281749
Si Si4 0.167013 0.056060 0.281879
Si Si5 0.065245 0.688439 0.782707
Si Si6 0.910364 0.578699 0.724696
Si Si7 0.761819 0.803990 0.277764
Si Si8 0.112473 0.788123 0.777279
O O1 0.228927 0.929222 0.286522
O O2 0.344920 0.927561 0.276637
O O3 0.278461 0.847482 0.281089
O O4 0.287250 0.903578 0.000000
O O5 0.953222 0.540204 0.191338
O O6 0.931326 0.880709 0.500000
O O7 0.886100 0.913982 0.209611
O O8 0.932878 0.827512 0.215359
O O9 0.000000 0.903256 0.250000
O O10 0.169512 0.065186 0.500000
O O11 0.157391 0.000000 0.250000
O O12 0.075475 0.633796 0.718060
O O13 0.101684 0.733642 0.711516
O O14 0.000000 0.700649 0.750000
O O15 0.076337 0.685667 0.000000
O O16 0.916359 0.574475 0.500000
O O17 0.757735 0.803379 0.500000
O O18 0.750000 0.750000 0.213376
O O19 0.827152 0.811204 0.230361
O O20 0.111464 0.784795 0.000000
#
# Coordination Sequence:
#
# PCOD9496062 Si02
#       8
#    16   4  16  16  16  16  16  16
#     4   9  17  32  52  77 107 137 175 225 273 319
#     4  12  22  36  52  74 108 144 188 224 264 320
#     4  10  20  35  54  80 110 144 178 220 270 322
#     4  10  21  37  57  79 109 141 181 229 274 321
#     4  10  19  33  51  76 108 140 177 220 265 322
#     4  10  21  35  52  75 105 142 182 225 272 319
#     4   9  14  23  45  77 107 134 166 214 272 321
#     4   9  16  28  48  75 109 139 170 214 269 323
#
# _framework density 24.214755
#
# number of rings (size 3 to 8) (size 9 to 14) (size 15 to 20)
#    0.000    2.345    2.069    1.448    0.966    4.138 
#    0.000    1.379    0.000    0.828    0.000    0.000 
#    0.000    2.759    0.000    0.000    0.000    0.000 
#
# Total GULP energy -323798.561228 kJ/mol
# GULP energy per Si atom -5582.733814 kJ/mol
# Density = 2.415964 g / cm^3
# Si number density = 24.214755 Si / 1000 Ang^3
#
#
#
# Elastic Constant Matrix: (Units=GPa)
#
#
# Indices 1 2 3 4 5 6 
#
# 1 188.3321 90.0406 7.6240 0.0000 0.0000 0.0000
# 2 90.0406 168.1142 8.1496 0.0000 0.0000 0.0000
# 3 7.6240 8.1496 107.8338 0.0000 0.0000 0.0000
# 4 0.0000 0.0000 0.0000 -2.8613 0.0000 0.0000
# 5 0.0000 0.0000 0.0000 0.0000 6.9219 0.0000
# 6 0.0000 0.0000 0.0000 0.0000 0.0000 52.0046
#
#
#
# Elastic Compliance Matrix: (Units=1/GPa)
#
#
# Indices 1 2 3 4 5 6 
#
# 1 0.007142 -0.003815 -0.000217 0.000000 0.000000 0.000000
# 2 -0.003815 0.008008 -0.000335 0.000000 0.000000 0.000000
# 3 -0.000217 -0.000335 0.009314 0.000000 0.000000 0.000000
# 4 0.000000 0.000000 0.000000 -0.349496 0.000000 0.000000
# 5 0.000000 0.000000 0.000000 0.000000 0.144468 0.000000
# 6 0.000000 0.000000 0.000000 0.000000 0.000000 0.019229
#
#
# Mechanical properties :
#
#
# Convention : Reuss Voigt Hill
#
# Bulk Modulus (GPa) = 63.57140 75.10096 69.33618
# Shear Modulus (GPa) = -33.93127 35.11079 0.58976
#
# Velocity S-wave (km/s) = -3.74741 3.81198 0.49405
# Velocity P-wave (km/s) = 2.75428 7.10330 5.38716
#
# Compressibility (1/GPa) = 0.01573034
#
# Stress axis : x y z
#
# Youngs Moduli (GPa) = 140.00818 124.87755 107.36291
#
# Poissons Ratio (x) = 0.47640 0.02326
# Poissons Ratio (y) = 0.53412 0.03602
# Poissons Ratio (z) = 0.03034 0.04189
#
# Static dielectric constant tensor:
#      x y z
#    x 1.912430 0.000000 0.000000 
#    y 0.000000 1.860560 0.000000 
#    z 0.000000 0.000000 3.887580 
# 
# From -- ./inp_files/9468.got.cif
#   From: 2010.05.17/outbox.cif.g08.bks.cpg/sg66_5_cif.got.tgz:9468.got - 2010.06.03 17:51:23.
