data_PCOD9496940
_publ_section_title
;
Structure prediction by ZEFSAII (Michael W. Deem and Ramdas Pophale) SiO2 
 PCOD9496940
Probable space group: C C C M
;
_chemical_formula_sum "Si O2"
_cell_formula_units_Z 112
_cell_length_a 21.079264
_cell_length_b 11.433199
_cell_length_c 22.360533
_cell_angle_alpha 90.000000
_cell_angle_beta 90.000000
_cell_angle_gamma 90.000000
_cell_volume 5388.964928
_symmetry_space_group_name_H-M "C C C M"
_symmetry_group_IT_number 66
_symmetry_cell_setting 'orthorhombic'
loop_
_space_group_symop_operation_xyz
x,y,z
-x,-y,z
x,-y,1/2-z
-x,y,1/2-z
-x,-y,-z
x,y,-z
-x,y,1/2+z
x,-y,1/2+z
1/2+x,1/2+y,z
1/2-x,1/2-y,z
1/2+x,1/2-y,1/2-z
1/2-x,1/2+y,1/2-z
1/2-x,1/2-y,-z
1/2+x,1/2+y,-z
1/2-x,1/2+y,1/2+z
1/2+x,1/2-y,1/2+z
loop_
_atom_site_type_symbol
_atom_site_label
_atom_site_fract_x
_atom_site_fract_y
_atom_site_fract_z
Si Si1 0.156569 0.412506 0.571365
Si Si2 0.313550 0.293407 0.660564
Si Si3 0.961894 0.719923 0.566499
Si Si4 0.076030 0.141553 0.751597
Si Si5 0.868174 0.056657 0.067575
Si Si6 0.303284 0.165871 0.930252
Si Si7 0.914739 0.814963 0.885035
O O1 0.168437 0.395640 0.500000
O O2 0.183741 0.309653 0.611471
O O3 0.080555 0.393907 0.578933
O O4 0.182989 0.536215 0.592402
O O5 0.250000 0.250000 0.695094
O O6 0.376961 0.305199 0.701277
O O7 0.317262 0.410712 0.618949
O O8 0.989659 0.708354 0.500000
O O9 0.913877 0.830516 0.565021
O O10 0.016554 0.757443 0.610446
O O11 0.102495 0.180068 0.815738
O O12 0.000000 0.169451 0.750000
O O13 0.079966 0.000000 0.750000
O O14 0.909070 0.945173 0.087844
O O15 0.842420 0.038438 0.000000
O O16 0.250000 0.250000 0.902545
O O17 0.367453 0.237148 0.923088
O O18 0.286932 0.149955 0.000000
#
# Coordination Sequence:
#
# PCOD9496940 Si02
#       7
#    16  16  16  16  16  16  16
#     4   9  20  39  61  88 129 169 209 266 328 394
#     4  11  23  40  63  95 124 166 217 272 330 391
#     4   9  18  33  57  93 129 159 202 260 324 390
#     4  11  24  42  64  90 127 173 222 272 326 387
#     4  10  20  34  58  97 131 156 196 259 335 400
#     4  10  23  40  59  88 126 170 213 260 325 399
#     4  12  22  36  62  88 124 167 213 265 321 386
#
# _framework density 20.783211000000001
#
# number of rings (size 3 to 8) (size 9 to 14) (size 15 to 20)
#    0.000    1.714    1.429    4.714    4.000    3.429 
#    0.000    2.857    0.000    0.857    0.000    0.000 
#    0.000    0.000    0.000    0.000    0.000    0.000 
#
# Total GULP energy -312116.478451 kJ/mol
# GULP energy per Si atom -5573.508544 kJ/mol
# Density = 2.073591 g / cm^3
# Si number density = 20.783211 Si / 1000 Ang^3
#
#
#
# Elastic Constant Matrix: (Units=GPa)
#
#
# Indices 1 2 3 4 5 6 
#
# 1 113.0414 43.7138 28.8309 0.0000 0.0000 0.0000
# 2 43.7138 106.8012 19.8500 0.0000 0.0000 0.0000
# 3 28.8309 19.8500 70.0134 0.0000 0.0000 0.0000
# 4 0.0000 0.0000 0.0000 2.9371 0.0000 0.0000
# 5 0.0000 0.0000 0.0000 0.0000 16.7339 0.0000
# 6 0.0000 0.0000 0.0000 0.0000 0.0000 10.5402
#
#
#
# Elastic Compliance Matrix: (Units=1/GPa)
#
#
# Indices 1 2 3 4 5 6 
#
# 1 0.011276 -0.003961 -0.003520 0.000000 0.000000 0.000000
# 2 -0.003961 0.011275 -0.001566 0.000000 0.000000 0.000000
# 3 -0.003520 -0.001566 0.016177 0.000000 0.000000 0.000000
# 4 0.000000 0.000000 0.000000 0.340474 0.000000 0.000000
# 5 0.000000 0.000000 0.000000 0.000000 0.059759 0.000000
# 6 0.000000 0.000000 0.000000 0.000000 0.000000 0.094875
#
#
# Mechanical properties :
#
#
# Convention : Reuss Voigt Hill
#
# Bulk Modulus (GPa) = 48.46392 52.73837 50.60114
# Shear Modulus (GPa) = 8.94762 19.20633 14.07698
#
# Velocity S-wave (km/s) = 2.07715 3.04324 2.60537
# Velocity P-wave (km/s) = 5.39649 6.14646 5.78365
#
# Compressibility (1/GPa) = 0.02063391
#
# Stress axis : x y z
#
# Youngs Moduli (GPa) = 88.68484 88.68868 61.81805
#
# Poissons Ratio (x) = 0.35129 0.21762
# Poissons Ratio (y) = 0.35128 0.09679
# Poissons Ratio (z) = 0.31220 0.13886
#
# Static dielectric constant tensor:
#      x y z
#    x 1.865960 0.000000 0.000000 
#    y 0.000000 1.751550 0.000000 
#    z 0.000000 0.000000 1.767660 
# 
# From -- ./inp_files/59570.got.cif
#   From: 2010.05.17/outbox.cif.g08.bks.cpg/sg66_30_cif.got.tgz:59570.got - 2010.06.03 17:51:23.
