data_PCOD9496256
_publ_section_title
;
Structure prediction by ZEFSAII (Michael W. Deem and Ramdas Pophale) SiO2 
 PCOD9496256
Probable space group: C C C M
;
_chemical_formula_sum "Si O2"
_cell_formula_units_Z 116
_cell_length_a 26.196535
_cell_length_b 25.645098
_cell_length_c 9.001157
_cell_angle_alpha 90.000000
_cell_angle_beta 90.000000
_cell_angle_gamma 90.000000
_cell_volume 6047.091653
_symmetry_space_group_name_H-M "C C C M"
_symmetry_group_IT_number 66
_symmetry_cell_setting 'orthorhombic'
loop_
_space_group_symop_operation_xyz
x,y,z
-x,-y,z
x,-y,1/2-z
-x,y,1/2-z
-x,-y,-z
x,y,-z
-x,y,1/2+z
x,-y,1/2+z
1/2+x,1/2+y,z
1/2-x,1/2-y,z
1/2+x,1/2-y,1/2-z
1/2-x,1/2+y,1/2-z
1/2-x,1/2-y,-z
1/2+x,1/2+y,-z
1/2-x,1/2+y,1/2+z
1/2+x,1/2-y,1/2+z
loop_
_atom_site_type_symbol
_atom_site_label
_atom_site_fract_x
_atom_site_fract_y
_atom_site_fract_z
Si Si1 0.602879 0.449095 0.168960
Si Si2 0.235707 0.655548 0.322523
Si Si3 0.551280 0.167120 0.179599
Si Si4 0.642800 0.769476 0.178044
Si Si5 0.846672 0.841105 0.320997
Si Si6 0.500000 0.500000 0.250000
Si Si7 0.929536 0.448309 0.167366
Si Si8 0.693560 0.946758 0.670952
O O1 0.625284 0.500000 0.250000
O O2 0.621600 0.392998 0.226508
O O3 0.541558 0.461231 0.173944
O O4 0.619751 0.450998 0.000000
O O5 0.245354 0.655287 0.500000
O O6 0.198357 0.704604 0.290568
O O7 0.288251 0.655201 0.232429
O O8 0.207939 0.602935 0.269372
O O9 0.500000 0.190354 0.250000
O O10 0.600804 0.195204 0.242619
O O11 0.554832 0.107076 0.232451
O O12 0.550708 0.168779 0.000000
O O13 0.635544 0.711838 0.242605
O O14 0.636675 0.769837 0.000000
O O15 0.850064 0.836381 0.500000
O O16 0.945337 0.500000 0.250000
O O17 0.867877 0.448478 0.163675
O O18 0.949009 0.450264 0.000000
O O19 0.712292 0.942401 0.500000
O O20 0.711342 0.000000 0.750000
#
# Coordination Sequence:
#
# PCOD9496256 Si02
#       8
#    16  16  16  16  16   4  16  16
#     4   9  20  38  64  95 125 161 201 245 299 364
#     4  11  23  39  61  89 122 163 211 261 315 376
#     4  11  23  41  62  88 119 158 204 255 312 369
#     4  11  24  43  64  88 119 162 210 259 316 376
#     4  11  24  41  62  93 128 162 206 255 308 373
#     4   8  18  40  70  96 130 160 206 240 298 360
#     4   9  19  34  56  83 114 150 195 244 298 359
#     4  10  19  34  56  85 118 158 204 248 305 366
#
# _framework density 19.182773999999998
#
# number of rings (size 3 to 8) (size 9 to 14) (size 15 to 20)
#    0.414    1.379    1.379    2.690    0.000    6.897 
#    1.241    2.759    0.000    0.000    0.000    0.000 
#    0.000    0.000    0.000    0.000    0.000    0.000 
#
# Total GULP energy -323370.485283 kJ/mol
# GULP energy per Si atom -5575.353195 kJ/mol
# Density = 1.913911 g / cm^3
# Si number density = 19.182774 Si / 1000 Ang^3
#
#
#
# Elastic Constant Matrix: (Units=GPa)
#
#
# Indices 1 2 3 4 5 6 
#
# 1 76.3602 43.2346 23.6641 0.0000 0.0000 0.0000
# 2 43.2346 152.9877 39.5200 0.0000 0.0000 0.0000
# 3 23.6641 39.5200 59.3611 0.0000 0.0000 0.0000
# 4 0.0000 0.0000 0.0000 27.6051 0.0000 0.0000
# 5 0.0000 0.0000 0.0000 0.0000 47.5020 0.0000
# 6 0.0000 0.0000 0.0000 0.0000 0.0000 -14.4781
#
#
#
# Elastic Compliance Matrix: (Units=1/GPa)
#
#
# Indices 1 2 3 4 5 6 
#
# 1 0.016403 -0.003558 -0.004170 0.000000 0.000000 0.000000
# 2 -0.003558 0.008666 -0.004351 0.000000 0.000000 0.000000
# 3 -0.004170 -0.004351 0.021405 0.000000 0.000000 0.000000
# 4 0.000000 0.000000 0.000000 0.036225 0.000000 0.000000
# 5 0.000000 0.000000 0.000000 0.000000 0.021052 0.000000
# 6 0.000000 0.000000 0.000000 0.000000 0.000000 -0.069070
#
#
# Mechanical properties :
#
#
# Convention : Reuss Voigt Hill
#
# Bulk Modulus (GPa) = 44.81197 55.72739 50.26968
# Shear Modulus (GPa) = 75.43981 24.27847 49.85914
#
# Velocity S-wave (km/s) = 6.27792 3.56144 5.10373
# Velocity P-wave (km/s) = 8.71555 6.78422 7.80982
#
# Compressibility (1/GPa) = 0.02231546
#
# Stress axis : x y z
#
# Youngs Moduli (GPa) = 60.96536 115.39363 46.71787
#
# Poissons Ratio (x) = 0.41060 0.19481
# Poissons Ratio (y) = 0.21693 0.20327
# Poissons Ratio (z) = 0.25422 0.50207
#
# Static dielectric constant tensor:
#      x y z
#    x 1.706140 0.000000 0.000000 
#    y 0.000000 1.682030 0.000000 
#    z 0.000000 0.000000 1.658890 
# 
# From -- ./inp_files/11723.got.cif
#   From: 2010.05.17/outbox.cif.g08.bks.cpg/sg66_6_cif.got.tgz:11723.got - 2010.06.03 17:51:23.
