data_PCOD9496871
_publ_section_title
;
Structure prediction by ZEFSAII (Michael W. Deem and Ramdas Pophale) SiO2 
 PCOD9496871
Probable space group: C C C M
;
_chemical_formula_sum "Si O2"
_cell_formula_units_Z 96
_cell_length_a 23.041748
_cell_length_b 11.956195
_cell_length_c 15.011413
_cell_angle_alpha 90.000000
_cell_angle_beta 90.000000
_cell_angle_gamma 90.000000
_cell_volume 4135.518669
_symmetry_space_group_name_H-M "C C C M"
_symmetry_group_IT_number 66
_symmetry_cell_setting 'orthorhombic'
loop_
_space_group_symop_operation_xyz
x,y,z
-x,-y,z
x,-y,1/2-z
-x,y,1/2-z
-x,-y,-z
x,y,-z
-x,y,1/2+z
x,-y,1/2+z
1/2+x,1/2+y,z
1/2-x,1/2-y,z
1/2+x,1/2-y,1/2-z
1/2-x,1/2+y,1/2-z
1/2-x,1/2-y,-z
1/2+x,1/2+y,-z
1/2-x,1/2+y,1/2+z
1/2+x,1/2-y,1/2+z
loop_
_atom_site_type_symbol
_atom_site_label
_atom_site_fract_x
_atom_site_fract_y
_atom_site_fract_z
Si Si1 0.124021 0.261360 0.661544
Si Si2 0.278235 0.919570 0.894508
Si Si3 0.643610 0.477779 0.856481
Si Si4 0.509861 0.125385 0.857661
Si Si5 0.594332 0.284332 0.631194
Si Si6 0.292767 0.159009 0.900793
O O1 0.187619 0.317111 0.651522
O O2 0.115454 0.139921 0.618474
O O3 0.076242 0.344459 0.623978
O O4 0.107482 0.236535 0.763874
O O5 0.210296 0.949805 0.881982
O O6 0.303606 0.037889 0.859929
O O7 0.288491 0.901342 0.000000
O O8 0.645223 0.500000 0.750000
O O9 0.608730 0.586163 0.890792
O O10 0.500000 0.122272 0.750000
O O11 0.466399 0.223900 0.889479
O O12 0.500000 0.000000 0.891303
O O13 0.646148 0.215720 0.589143
O O14 0.250000 0.250000 0.856014
O O15 0.266830 0.137549 0.000000
#
# Coordination Sequence:
#
# PCOD9496871 Si02
#       6
#    16  16  16  16  16  16
#     4  10  22  36  56  85 115 152 195 238 288 348
#     4  11  23  38  58  83 119 159 193 238 290 345
#     4  10  22  36  54  86 117 150 195 239 290 346
#     4   9  18  35  57  84 111 145 193 240 291 341
#     4  10  20  36  60  83 114 153 190 243 290 343
#     4  10  20  34  54  82 111 144 187 233 287 344
#
# _framework density 23.213532000000001
#
# number of rings (size 3 to 8) (size 9 to 14) (size 15 to 20)
#    0.000    2.000    1.667    1.500    2.333    3.333 
#    0.000    4.167    0.000    3.000    0.000    3.500 
#    0.000    0.000    0.000    0.000    0.000    0.000 
#
# Total GULP energy -267519.527241 kJ/mol
# GULP energy per Si atom -5573.323484 kJ/mol
# Density = 2.316070 g / cm^3
# Si number density = 23.213532 Si / 1000 Ang^3
#
#
#
# Elastic Constant Matrix: (Units=GPa)
#
#
# Indices 1 2 3 4 5 6 
#
# 1 108.8342 56.6437 5.5399 0.0000 0.0000 0.0000
# 2 56.6437 198.9167 16.2106 0.0000 0.0000 0.0000
# 3 5.5399 16.2106 45.3380 0.0000 0.0000 0.0000
# 4 0.0000 0.0000 0.0000 22.2004 0.0000 0.0000
# 5 0.0000 0.0000 0.0000 0.0000 25.2480 0.0000
# 6 0.0000 0.0000 0.0000 0.0000 0.0000 38.6838
#
#
#
# Elastic Compliance Matrix: (Units=1/GPa)
#
#
# Indices 1 2 3 4 5 6 
#
# 1 0.010789 -0.003054 -0.000226 0.000000 0.000000 0.000000
# 2 -0.003054 0.006043 -0.001787 0.000000 0.000000 0.000000
# 3 -0.000226 -0.001787 0.022723 0.000000 0.000000 0.000000
# 4 0.000000 0.000000 0.000000 0.045044 0.000000 0.000000
# 5 0.000000 0.000000 0.000000 0.000000 0.039607 0.000000
# 6 0.000000 0.000000 0.000000 0.000000 0.000000 0.025851
#
#
# Mechanical properties :
#
#
# Convention : Reuss Voigt Hill
#
# Bulk Modulus (GPa) = 33.99084 56.65303 45.32194
# Shear Modulus (GPa) = 29.41195 35.53942 32.47568
#
# Velocity S-wave (km/s) = 3.56338 3.91702 3.74438
# Velocity P-wave (km/s) = 5.62181 6.70190 6.18548
#
# Compressibility (1/GPa) = 0.02941969
#
# Stress axis : x y z
#
# Youngs Moduli (GPa) = 92.68489 165.49382 44.00775
#
# Poissons Ratio (x) = 0.50540 0.00996
# Poissons Ratio (y) = 0.28305 0.07866
# Poissons Ratio (z) = 0.02099 0.29579
#
# Static dielectric constant tensor:
#      x y z
#    x 1.876250 0.000000 0.000000 
#    y 0.000000 1.959950 0.000000 
#    z 0.000000 0.000000 1.784590 
# 
# From -- ./inp_files/43604.got.cif
#   From: 2010.05.17/outbox.cif.g08.bks.cpg/sg66_22_cif.got.tgz:43604.got - 2010.06.03 17:51:23.
