data_PCOD9496578
_publ_section_title
;
Structure prediction by ZEFSAII (Michael W. Deem and Ramdas Pophale) SiO2 
 PCOD9496578
Probable space group: C C C M
;
_chemical_formula_sum "Si O2"
_cell_formula_units_Z 64
_cell_length_a 16.101575
_cell_length_b 14.443059
_cell_length_c 13.839988
_cell_angle_alpha 90.000000
_cell_angle_beta 90.000000
_cell_angle_gamma 90.000000
_cell_volume 3218.572218
_symmetry_space_group_name_H-M "C C C M"
_symmetry_group_IT_number 66
_symmetry_cell_setting 'orthorhombic'
loop_
_space_group_symop_operation_xyz
x,y,z
-x,-y,z
x,-y,1/2-z
-x,y,1/2-z
-x,-y,-z
x,y,-z
-x,y,1/2+z
x,-y,1/2+z
1/2+x,1/2+y,z
1/2-x,1/2-y,z
1/2+x,1/2-y,1/2-z
1/2-x,1/2+y,1/2-z
1/2-x,1/2-y,-z
1/2+x,1/2+y,-z
1/2-x,1/2+y,1/2+z
1/2+x,1/2-y,1/2+z
loop_
_atom_site_type_symbol
_atom_site_label
_atom_site_fract_x
_atom_site_fract_y
_atom_site_fract_z
Si Si1 0.273753 0.858639 0.613251
Si Si2 0.960747 0.402360 0.383249
Si Si3 0.964520 0.206501 0.114369
Si Si4 0.112188 0.897673 0.721038
O O1 0.268624 0.884842 0.500000
O O2 0.250000 0.750000 0.618675
O O3 0.366467 0.881476 0.649137
O O4 0.202132 0.905701 0.674490
O O5 0.955845 0.404180 0.500000
O O6 0.017673 0.313634 0.361190
O O7 0.000000 0.500000 0.353359
O O8 0.047633 0.149991 0.146241
O O9 0.893484 0.165231 0.182884
O O10 0.950397 0.196689 0.000000
O O11 0.085957 0.000000 0.750000
#
# Coordination Sequence:
#
# PCOD9496578 Si02
#       4
#    16  16  16  16
#     4  10  19  38  66  88 118 163 207 257 313 382
#     4   9  18  36  63  92 117 152 207 259 313 375
#     4  10  20  38  62  86 120 160 198 254 315 368
#     4  11  23  37  56  91 120 154 207 257 302 378
#
# _framework density 19.884594
#
# number of rings (size 3 to 8) (size 9 to 14) (size 15 to 20)
#    0.000    2.000    2.500    2.250    0.000    3.000 
#    4.500    2.500    0.000    0.750    0.000    0.000 
#    0.000    1.000    0.000    0.000    0.000    0.000 
#
# Total GULP energy -178619.750256 kJ/mol
# GULP energy per Si atom -5581.867196 kJ/mol
# Density = 1.983934 g / cm^3
# Si number density = 19.884594 Si / 1000 Ang^3
#
#
#
# Elastic Constant Matrix: (Units=GPa)
#
#
# Indices 1 2 3 4 5 6 
#
# 1 101.5661 56.4981 33.7305 0.0000 0.0000 0.0000
# 2 56.4981 149.9892 29.2823 0.0000 0.0000 0.0000
# 3 33.7305 29.2823 102.9852 0.0000 0.0000 0.0000
# 4 0.0000 0.0000 0.0000 14.8761 0.0000 0.0000
# 5 0.0000 0.0000 0.0000 0.0000 21.5662 0.0000
# 6 0.0000 0.0000 0.0000 0.0000 0.0000 24.7351
#
#
#
# Elastic Compliance Matrix: (Units=1/GPa)
#
#
# Indices 1 2 3 4 5 6 
#
# 1 0.013336 -0.004416 -0.003112 0.000000 0.000000 0.000000
# 2 -0.004416 0.008521 -0.000977 0.000000 0.000000 0.000000
# 3 -0.003112 -0.000977 0.011007 0.000000 0.000000 0.000000
# 4 0.000000 0.000000 0.000000 0.067222 0.000000 0.000000
# 5 0.000000 0.000000 0.000000 0.000000 0.046369 0.000000
# 6 0.000000 0.000000 0.000000 0.000000 0.000000 0.040428
#
#
# Mechanical properties :
#
#
# Convention : Reuss Voigt Hill
#
# Bulk Modulus (GPa) = 63.07212 65.95137 64.51175
# Shear Modulus (GPa) = 23.90315 27.90410 25.90363
#
# Velocity S-wave (km/s) = 3.47088 3.75013 3.61321
# Velocity P-wave (km/s) = 6.91742 7.21044 7.06545
#
# Compressibility (1/GPa) = 0.01585487
#
# Stress axis : x y z
#
# Youngs Moduli (GPa) = 74.98650 117.35541 90.84990
#
# Poissons Ratio (x) = 0.51821 0.28275
# Poissons Ratio (y) = 0.33112 0.08872
# Poissons Ratio (z) = 0.23338 0.11461
#
# Static dielectric constant tensor:
#      x y z
#    x 1.725910 0.000000 0.000000 
#    y 0.000000 1.725820 0.000000 
#    z 0.000000 0.000000 1.722010 
# 
# From -- ./inp_files/27726.got.cif
#   From: 2010.05.17/outbox.cif.g08.bks.cpg/sg66_14_cif.got.tgz:27726.got - 2010.06.03 17:51:23.
