data_PCOD9496098
_publ_section_title
;
Structure prediction by ZEFSAII (Michael W. Deem and Ramdas Pophale) SiO2 
 PCOD9496098
Probable space group: C C C M
;
_chemical_formula_sum "Si O2"
_cell_formula_units_Z 120
_cell_length_a 18.877336
_cell_length_b 18.076688
_cell_length_c 18.929001
_cell_angle_alpha 90.000000
_cell_angle_beta 90.000000
_cell_angle_gamma 90.000000
_cell_volume 6459.326871
_symmetry_space_group_name_H-M "C C C M"
_symmetry_group_IT_number 66
_symmetry_cell_setting 'orthorhombic'
loop_
_space_group_symop_operation_xyz
x,y,z
-x,-y,z
x,-y,1/2-z
-x,y,1/2-z
-x,-y,-z
x,y,-z
-x,y,1/2+z
x,-y,1/2+z
1/2+x,1/2+y,z
1/2-x,1/2-y,z
1/2+x,1/2-y,1/2-z
1/2-x,1/2+y,1/2-z
1/2-x,1/2-y,-z
1/2+x,1/2+y,-z
1/2-x,1/2+y,1/2+z
1/2+x,1/2-y,1/2+z
loop_
_atom_site_type_symbol
_atom_site_label
_atom_site_fract_x
_atom_site_fract_y
_atom_site_fract_z
Si Si1 0.365390 0.644265 0.080131
Si Si2 0.824621 0.281626 0.841925
Si Si3 0.000000 0.208553 0.750000
Si Si4 0.848492 0.151355 0.419503
Si Si5 0.310256 0.089861 0.082861
Si Si6 0.135165 0.713173 0.685990
Si Si7 0.505331 0.415864 0.369865
Si Si8 0.713468 0.921946 0.584432
O O1 0.374271 0.715898 0.130578
O O2 0.436829 0.596474 0.080883
O O3 0.296292 0.596067 0.102769
O O4 0.352265 0.670488 0.000000
O O5 0.750000 0.250000 0.868583
O O6 0.820240 0.292465 0.758112
O O7 0.834233 0.359978 0.878643
O O8 0.940154 0.263819 0.719771
O O9 0.993787 0.147877 0.812286
O O10 0.855489 0.179497 0.500000
O O11 0.773205 0.110748 0.414193
O O12 0.845109 0.218040 0.363982
O O13 0.917466 0.101180 0.403163
O O14 0.353789 0.141787 0.136480
O O15 0.311621 0.003819 0.103315
O O16 0.331916 0.099077 0.000000
O O17 0.500000 0.500000 0.343264
O O18 0.708813 0.915520 0.500000
#
# Coordination Sequence:
#
# PCOD9496098 Si02
#       8
#    16  16   8  16  16  16  16  16
#     4  10  19  33  54  82 116 156 192 229 276 335
#     4  10  19  33  55  80 110 148 192 232 277 335
#     4  10  23  40  54  79 112 148 190 232 285 340
#     4  10  21  35  55  85 118 153 191 230 276 337
#     4  10  20  36  58  85 116 148 186 241 295 338
#     4  11  21  37  58  78 109 148 192 235 283 344
#     4  11  21  35  56  83 118 158 191 227 275 335
#     4   9  19  34  54  83 116 145 186 243 294 336
#
# _framework density 18.577787000000001
#
# number of rings (size 3 to 8) (size 9 to 14) (size 15 to 20)
#    0.000    1.867    1.333    3.400    0.000    5.333 
#    0.000    0.000    0.000    1.600    0.000    1.867 
#    0.000    0.000    0.000    0.000    0.000    0.000 
#
# Total GULP energy -334021.236127 kJ/mol
# GULP energy per Si atom -5567.020602 kJ/mol
# Density = 1.853550 g / cm^3
# Si number density = 18.577787 Si / 1000 Ang^3
#
#
#
# Elastic Constant Matrix: (Units=GPa)
#
#
# Indices 1 2 3 4 5 6 
#
# 1 48.7356 40.6987 19.2734 0.0000 0.0000 0.0000
# 2 40.6987 135.0106 41.8592 0.0000 0.0000 0.0000
# 3 19.2734 41.8592 57.4394 0.0000 0.0000 0.0000
# 4 0.0000 0.0000 0.0000 -12.3295 0.0000 0.0000
# 5 0.0000 0.0000 0.0000 0.0000 1.3816 0.0000
# 6 0.0000 0.0000 0.0000 0.0000 0.0000 16.0119
#
#
#
# Elastic Compliance Matrix: (Units=1/GPa)
#
#
# Indices 1 2 3 4 5 6 
#
# 1 0.028192 -0.007190 -0.004220 0.000000 0.000000 0.000000
# 2 -0.007190 0.011403 -0.005897 0.000000 0.000000 0.000000
# 3 -0.004220 -0.005897 0.023123 0.000000 0.000000 0.000000
# 4 0.000000 0.000000 0.000000 -0.081106 0.000000 0.000000
# 5 0.000000 0.000000 0.000000 0.000000 0.723787 0.000000
# 6 0.000000 0.000000 0.000000 0.000000 0.000000 0.062453
#
#
# Mechanical properties :
#
#
# Convention : Reuss Voigt Hill
#
# Bulk Modulus (GPa) = 35.58248 49.42759 42.50503
# Shear Modulus (GPa) = 6.15889 10.30309 8.23099
#
# Velocity S-wave (km/s) = 1.82274 2.35753 2.10717
# Velocity P-wave (km/s) = 4.86052 5.83730 5.37116
#
# Compressibility (1/GPa) = 0.02810372
#
# Stress axis : x y z
#
# Youngs Moduli (GPa) = 35.47087 87.69893 43.24670
#
# Poissons Ratio (x) = 0.63057 0.18249
# Poissons Ratio (y) = 0.25504 0.25503
# Poissons Ratio (z) = 0.14968 0.51717
#
# Static dielectric constant tensor:
#      x y z
#    x 1.696600 0.000000 0.000000 
#    y 0.000000 1.636650 0.000000 
#    z 0.000000 0.000000 1.655210 
# 
# From -- ./inp_files/43113.got.cif
#   From: 2010.05.17/outbox.cif.g08.bks.cpg/sg66_22_cif.got.tgz:43113.got - 2010.06.03 17:51:23.
