data_PCOD9496668
_publ_section_title
;
Structure prediction by ZEFSAII (Michael W. Deem and Ramdas Pophale) SiO2 
 PCOD9496668
Probable space group: C C C M
;
_chemical_formula_sum "Si O2"
_cell_formula_units_Z 80
_cell_length_a 14.884312
_cell_length_b 33.468932
_cell_length_c 8.860518
_cell_angle_alpha 90.000000
_cell_angle_beta 90.000000
_cell_angle_gamma 90.000000
_cell_volume 4413.973600
_symmetry_space_group_name_H-M "C C C M"
_symmetry_group_IT_number 66
_symmetry_cell_setting 'orthorhombic'
loop_
_space_group_symop_operation_xyz
x,y,z
-x,-y,z
x,-y,1/2-z
-x,y,1/2-z
-x,-y,-z
x,y,-z
-x,y,1/2+z
x,-y,1/2+z
1/2+x,1/2+y,z
1/2-x,1/2-y,z
1/2+x,1/2-y,1/2-z
1/2-x,1/2+y,1/2-z
1/2-x,1/2-y,-z
1/2+x,1/2+y,-z
1/2-x,1/2+y,1/2+z
1/2+x,1/2-y,1/2+z
loop_
_atom_site_type_symbol
_atom_site_label
_atom_site_fract_x
_atom_site_fract_y
_atom_site_fract_z
Si Si1 0.207193 0.115148 0.180802
Si Si2 0.627124 0.782860 0.673871
Si Si3 0.839421 0.196076 0.173397
Si Si4 0.090100 0.635631 0.677545
Si Si5 0.400726 0.542292 0.818923
O O1 0.157013 0.156290 0.227865
O O2 0.312413 0.119183 0.227320
O O3 0.161783 0.078232 0.264300
O O4 0.202985 0.110500 0.000000
O O5 0.595561 0.787230 0.500000
O O6 0.734126 0.791688 0.670054
O O7 0.612776 0.737108 0.724172
O O8 0.591474 0.817433 0.780392
O O9 0.866307 0.187587 0.000000
O O10 0.084869 0.630705 0.500000
O O11 0.000000 0.617906 0.750000
O O12 0.369153 0.500000 0.750000
O O13 0.500000 0.548970 0.750000
O O14 0.405548 0.540065 0.000000
#
# Coordination Sequence:
#
# PCOD9496668 Si02
#       5
#    16  16  16  16  16
#     4  10  20  34  53  80 110 141 177 219 266 317
#     4   8  14  26  44  65  94 131 175 221 265 309
#     4   8  14  26  45  69  96 132 173 216 264 311
#     4  10  20  32  49  73 105 144 187 229 266 308
#     4  11  22  39  63  88 113 138 165 204 254 315
#
# _framework density 18.124258999999999
#
# number of rings (size 3 to 8) (size 9 to 14) (size 15 to 20)
#    0.000    2.600    0.000    4.800    0.000    3.200 
#    0.000    5.000    0.000    5.400    0.000    4.200 
#    0.000    0.000    0.000    0.000    0.000    0.000 
#
# Total GULP energy -222946.972930 kJ/mol
# GULP energy per Si atom -5573.674323 kJ/mol
# Density = 1.808301 g / cm^3
# Si number density = 18.124259 Si / 1000 Ang^3
#
#
#
# Elastic Constant Matrix: (Units=GPa)
#
#
# Indices 1 2 3 4 5 6 
#
# 1 56.0190 52.5733 32.2235 0.0000 0.0000 0.0000
# 2 52.5733 127.1880 58.6384 0.0000 0.0000 0.0000
# 3 32.2235 58.6384 84.8717 0.0000 0.0000 0.0000
# 4 0.0000 0.0000 0.0000 28.7783 0.0000 0.0000
# 5 0.0000 0.0000 0.0000 0.0000 24.2592 0.0000
# 6 0.0000 0.0000 0.0000 0.0000 0.0000 7.0123
#
#
#
# Elastic Compliance Matrix: (Units=1/GPa)
#
#
# Indices 1 2 3 4 5 6 
#
# 1 0.030134 -0.010538 -0.004160 0.000000 0.000000 0.000000
# 2 -0.010538 0.015222 -0.006516 0.000000 0.000000 0.000000
# 3 -0.004160 -0.006516 0.017864 0.000000 0.000000 0.000000
# 4 0.000000 0.000000 0.000000 0.034748 0.000000 0.000000
# 5 0.000000 0.000000 0.000000 0.000000 0.041221 0.000000
# 6 0.000000 0.000000 0.000000 0.000000 0.000000 0.142607
#
#
# Mechanical properties :
#
#
# Convention : Reuss Voigt Hill
#
# Bulk Modulus (GPa) = 48.09660 61.66099 54.87880
# Shear Modulus (GPa) = 15.09859 20.31953 17.70906
#
# Velocity S-wave (km/s) = 2.88941 3.35195 3.12924
# Velocity P-wave (km/s) = 6.14218 7.00542 6.58795
#
# Compressibility (1/GPa) = 0.02079149
#
# Stress axis : x y z
#
# Youngs Moduli (GPa) = 33.18535 65.69248 55.97751
#
# Poissons Ratio (x) = 0.69225 0.23289
# Poissons Ratio (y) = 0.34970 0.36477
# Poissons Ratio (z) = 0.13806 0.42808
#
# Static dielectric constant tensor:
#      x y z
#    x 1.679690 0.000000 0.000000 
#    y 0.000000 1.613300 0.000000 
#    z 0.000000 0.000000 1.613030 
# 
# From -- ./inp_files/6891.got.cif
#   From: 2010.05.17/outbox.cif.g08.bks.cpg/sg66_4_cif.got.tgz:6891.got - 2010.06.03 17:51:23.
