data_PCOD9496352
_publ_section_title
;
Structure prediction by ZEFSAII (Michael W. Deem and Ramdas Pophale) SiO2 
 PCOD9496352
Probable space group: C C C M
;
_chemical_formula_sum "Si O2"
_cell_formula_units_Z 96
_cell_length_a 20.285122
_cell_length_b 29.936960
_cell_length_c 8.867087
_cell_angle_alpha 90.000000
_cell_angle_beta 90.000000
_cell_angle_gamma 90.000000
_cell_volume 5384.759246
_symmetry_space_group_name_H-M "C C C M"
_symmetry_group_IT_number 66
_symmetry_cell_setting 'orthorhombic'
loop_
_space_group_symop_operation_xyz
x,y,z
-x,-y,z
x,-y,1/2-z
-x,y,1/2-z
-x,-y,-z
x,y,-z
-x,y,1/2+z
x,-y,1/2+z
1/2+x,1/2+y,z
1/2-x,1/2-y,z
1/2+x,1/2-y,1/2-z
1/2-x,1/2+y,1/2-z
1/2-x,1/2-y,-z
1/2+x,1/2+y,-z
1/2-x,1/2+y,1/2+z
1/2+x,1/2-y,1/2+z
loop_
_atom_site_type_symbol
_atom_site_label
_atom_site_fract_x
_atom_site_fract_y
_atom_site_fract_z
Si Si1 0.298748 0.375071 0.820889
Si Si2 0.930830 0.732552 0.680708
Si Si3 0.288513 0.049467 0.319435
Si Si4 0.565129 0.049935 0.179877
Si Si5 0.287304 0.797432 0.820715
Si Si6 0.069664 0.162061 0.319272
O O1 0.266228 0.419309 0.752489
O O2 0.251274 0.334505 0.771409
O O3 0.369676 0.364646 0.749643
O O4 0.303411 0.377923 0.000000
O O5 0.935467 0.729647 0.500000
O O6 0.863585 0.707915 0.725895
O O7 0.922253 0.785158 0.719146
O O8 0.000000 0.716977 0.750000
O O9 0.281825 0.047074 0.500000
O O10 0.362271 0.068993 0.287648
O O11 0.285369 0.000000 0.250000
O O12 0.500000 0.072246 0.250000
O O13 0.567331 0.000000 0.250000
O O14 0.557296 0.046914 0.000000
O O15 0.250000 0.750000 0.804143
O O16 0.284918 0.808660 0.000000
O O17 0.069276 0.158380 0.500000
O O18 0.000000 0.147697 0.250000
#
# Coordination Sequence:
#
# PCOD9496352 Si02
#       6
#    16  16  16  16  16  16
#     4  12  24  36  55  85 114 147 188 232 278 333
#     4   9  18  32  53  77 107 147 186 226 276 330
#     4  10  21  38  58  81 110 146 186 234 285 336
#     4   9  16  27  48  75 102 133 172 217 268 320
#     4  10  19  36  56  77 109 149 185 225 280 332
#     4  10  19  35  56  82 112 145 184 229 275 329
#
# _framework density 17.828095000000001
#
# number of rings (size 3 to 8) (size 9 to 14) (size 15 to 20)
#    0.000    2.000    1.667    3.500    0.000    3.667 
#    0.000    0.833    0.000    0.500    0.000    3.500 
#    0.000    0.000    0.000    0.000    0.000    0.000 
#
# Total GULP energy -267913.223207 kJ/mol
# GULP energy per Si atom -5581.525483 kJ/mol
# Density = 1.778752 g / cm^3
# Si number density = 17.828095 Si / 1000 Ang^3
#
#
#
# Elastic Constant Matrix: (Units=GPa)
#
#
# Indices 1 2 3 4 5 6 
#
# 1 188.5809 50.8601 66.8848 0.0000 0.0000 0.0000
# 2 50.8601 44.3150 33.7321 0.0000 0.0000 0.0000
# 3 66.8848 33.7321 83.8566 0.0000 0.0000 0.0000
# 4 0.0000 0.0000 0.0000 21.4250 0.0000 0.0000
# 5 0.0000 0.0000 0.0000 0.0000 38.9083 0.0000
# 6 0.0000 0.0000 0.0000 0.0000 0.0000 22.2830
#
#
#
# Elastic Compliance Matrix: (Units=1/GPa)
#
#
# Indices 1 2 3 4 5 6 
#
# 1 0.008579 -0.006684 -0.004154 0.000000 0.000000 0.000000
# 2 -0.006684 0.037732 -0.009847 0.000000 0.000000 0.000000
# 3 -0.004154 -0.009847 0.019199 0.000000 0.000000 0.000000
# 4 0.000000 0.000000 0.000000 0.046675 0.000000 0.000000
# 5 0.000000 0.000000 0.000000 0.000000 0.025701 0.000000
# 6 0.000000 0.000000 0.000000 0.000000 0.000000 0.044877
#
#
# Mechanical properties :
#
#
# Convention : Reuss Voigt Hill
#
# Bulk Modulus (GPa) = 41.42358 68.85625 55.13991
# Shear Modulus (GPa) = 21.53506 27.54161 24.53833
#
# Velocity S-wave (km/s) = 3.47930 3.93471 3.71399
# Velocity P-wave (km/s) = 6.27902 7.70382 7.02762
#
# Compressibility (1/GPa) = 0.02414084
#
# Stress axis : x y z
#
# Youngs Moduli (GPa) = 116.56883 26.50255 52.08540
#
# Poissons Ratio (x) = 0.17714 0.21635
# Poissons Ratio (y) = 0.77913 0.51289
# Poissons Ratio (z) = 0.48420 0.26097
#
# Static dielectric constant tensor:
#      x y z
#    x 1.630670 0.000000 0.000000 
#    y 0.000000 1.599420 0.000000 
#    z 0.000000 0.000000 1.590760 
# 
# From -- ./inp_files/7996.got.cif
#   From: 2010.05.17/outbox.cif.g08.bks.cpg/sg66_4_cif.got.tgz:7996.got - 2010.06.03 17:51:23.
