data_PCOD9496996
_publ_section_title
;
Structure prediction by ZEFSAII (Michael W. Deem and Ramdas Pophale) SiO2 
 PCOD9496996
Probable space group: C C C M
;
_chemical_formula_sum "Si O2"
_cell_formula_units_Z 80
_cell_length_a 8.774713
_cell_length_b 28.930910
_cell_length_c 16.199161
_cell_angle_alpha 90.000000
_cell_angle_beta 90.000000
_cell_angle_gamma 90.000000
_cell_volume 4112.326011
_symmetry_space_group_name_H-M "C C C M"
_symmetry_group_IT_number 66
_symmetry_cell_setting 'orthorhombic'
loop_
_space_group_symop_operation_xyz
x,y,z
-x,-y,z
x,-y,1/2-z
-x,y,1/2-z
-x,-y,-z
x,y,-z
-x,y,1/2+z
x,-y,1/2+z
1/2+x,1/2+y,z
1/2-x,1/2-y,z
1/2+x,1/2-y,1/2-z
1/2-x,1/2+y,1/2-z
1/2-x,1/2-y,-z
1/2+x,1/2+y,-z
1/2-x,1/2+y,1/2+z
1/2+x,1/2-y,1/2+z
loop_
_atom_site_type_symbol
_atom_site_label
_atom_site_fract_x
_atom_site_fract_y
_atom_site_fract_z
Si Si1 0.800291 0.361050 0.332613
Si Si2 0.633098 0.120529 0.095356
Si Si3 0.190679 0.198258 0.674303
Si Si4 0.316981 0.051598 0.264183
Si Si5 0.623499 0.710868 0.092002
O O1 0.757338 0.327319 0.255864
O O2 0.753780 0.411846 0.302290
O O3 0.709717 0.337996 0.406575
O O4 0.976924 0.364086 0.358293
O O5 0.745844 0.163940 0.103888
O O6 0.698678 0.076845 0.147147
O O7 0.603812 0.109446 0.000000
O O8 0.250000 0.250000 0.671066
O O9 0.011888 0.205090 0.656952
O O10 0.500000 0.049545 0.250000
O O11 0.257375 0.000000 0.250000
O O12 0.750000 0.750000 0.112117
O O13 0.565052 0.722002 0.000000
#
# Coordination Sequence:
#
# PCOD9496996 Si02
#       5
#    16  16  16  16  16
#     4  10  20  35  55  78 107 144 185 228 274 333
#     4  10  20  35  57  84 114 146 185 236 287 333
#     4  11  22  36  55  78 108 151 193 227 275 339
#     4   8  16  33  55  80 109 139 178 225 274 333
#     4  11  23  36  52  78 112 144 181 233 283 327
#
# _framework density 19.453710000000001
#
# number of rings (size 3 to 8) (size 9 to 14) (size 15 to 20)
#    0.000    2.000    0.000    5.400    0.000    4.800 
#    0.000    9.000    0.000    9.600    0.000    7.000 
#    0.000    0.000    0.000    0.000    0.000    0.000 
#
# Total GULP energy -222850.421678 kJ/mol
# GULP energy per Si atom -5571.260542 kJ/mol
# Density = 1.940943 g / cm^3
# Si number density = 19.453710 Si / 1000 Ang^3
#
#
#
# Elastic Constant Matrix: (Units=GPa)
#
#
# Indices 1 2 3 4 5 6 
#
# 1 70.8948 41.6659 33.8872 0.0000 0.0000 0.0000
# 2 41.6659 178.4304 48.7887 0.0000 0.0000 0.0000
# 3 33.8872 48.7887 118.9136 0.0000 0.0000 0.0000
# 4 0.0000 0.0000 0.0000 13.0699 0.0000 0.0000
# 5 0.0000 0.0000 0.0000 0.0000 23.8899 0.0000
# 6 0.0000 0.0000 0.0000 0.0000 0.0000 21.3980
#
#
#
# Elastic Compliance Matrix: (Units=1/GPa)
#
#
# Indices 1 2 3 4 5 6 
#
# 1 0.017739 -0.003109 -0.003780 0.000000 0.000000 0.000000
# 2 -0.003109 0.006857 -0.001928 0.000000 0.000000 0.000000
# 3 -0.003780 -0.001928 0.010277 0.000000 0.000000 0.000000
# 4 0.000000 0.000000 0.000000 0.076511 0.000000 0.000000
# 5 0.000000 0.000000 0.000000 0.000000 0.041859 0.000000
# 6 0.000000 0.000000 0.000000 0.000000 0.000000 0.046733
#
#
# Mechanical properties :
#
#
# Convention : Reuss Voigt Hill
#
# Bulk Modulus (GPa) = 57.99841 68.54694 63.27267
# Shear Modulus (GPa) = 22.38567 27.93136 25.15852
#
# Velocity S-wave (km/s) = 3.39590 3.79329 3.60008
# Velocity P-wave (km/s) = 6.72714 7.38226 7.06230
#
# Compressibility (1/GPa) = 0.01724185
#
# Stress axis : x y z
#
# Youngs Moduli (GPa) = 56.37233 145.82686 97.30056
#
# Poissons Ratio (x) = 0.45335 0.36777
# Poissons Ratio (y) = 0.17525 0.18755
# Poissons Ratio (z) = 0.21307 0.28109
#
# Static dielectric constant tensor:
#      x y z
#    x 1.750180 0.000000 0.000000 
#    y 0.000000 1.674310 0.000000 
#    z 0.000000 0.000000 1.758990 
# 
# From -- ./inp_files/37155.got.cif
#   From: 2010.05.17/outbox.cif.g08.bks.cpg/sg66_19_cif.got.tgz:37155.got - 2010.06.03 17:51:23.
