data_PCOD9496420
_publ_section_title
;
Structure prediction by ZEFSAII (Michael W. Deem and Ramdas Pophale) SiO2 
 PCOD9496420
Probable space group: C C C M
;
_chemical_formula_sum "Si O2"
_cell_formula_units_Z 96
_cell_length_a 12.111592
_cell_length_b 24.243780
_cell_length_c 16.796554
_cell_angle_alpha 90.000000
_cell_angle_beta 90.000000
_cell_angle_gamma 90.000000
_cell_volume 4931.985116
_symmetry_space_group_name_H-M "C C C M"
_symmetry_group_IT_number 66
_symmetry_cell_setting 'orthorhombic'
loop_
_space_group_symop_operation_xyz
x,y,z
-x,-y,z
x,-y,1/2-z
-x,y,1/2-z
-x,-y,-z
x,y,-z
-x,y,1/2+z
x,-y,1/2+z
1/2+x,1/2+y,z
1/2-x,1/2-y,z
1/2+x,1/2-y,1/2-z
1/2-x,1/2+y,1/2-z
1/2-x,1/2-y,-z
1/2+x,1/2+y,-z
1/2-x,1/2+y,1/2+z
1/2+x,1/2-y,1/2+z
loop_
_atom_site_type_symbol
_atom_site_label
_atom_site_fract_x
_atom_site_fract_y
_atom_site_fract_z
Si Si1 0.829307 0.559657 0.148796
Si Si2 0.083248 0.953108 0.908623
Si Si3 0.118226 0.123704 0.090769
Si Si4 0.880824 0.755046 0.903743
Si Si5 0.508294 0.853536 0.593377
Si Si6 0.819170 0.436042 0.162216
O O1 0.706284 0.581895 0.129299
O O2 0.853906 0.496048 0.126845
O O3 0.841428 0.562859 0.243876
O O4 0.912587 0.601468 0.107484
O O5 0.189226 0.938040 0.857467
O O6 0.001881 0.902027 0.913637
O O7 0.116316 0.969414 0.000000
O O8 0.000000 0.000000 0.876757
O O9 0.099807 0.183574 0.128424
O O10 0.160860 0.131582 0.000000
O O11 0.750000 0.750000 0.889497
O O12 0.957334 0.704430 0.874260
O O13 0.896482 0.754912 0.000000
O O14 0.528463 0.846267 0.500000
O O15 0.616599 0.882883 0.629401
#
# Coordination Sequence:
#
# PCOD9496420 Si02
#       6
#    16  16  16  16  16  16
#     4  11  22  37  58  84 119 162 192 242 302 356
#     4  10  20  36  60  87 116 151 198 249 290 344
#     4  10  19  35  62  90 112 145 204 256 287 339
#     4   9  17  33  60  88 110 140 192 248 294 335
#     4  11  22  37  62  88 116 154 198 248 294 350
#     4  11  24  38  54  86 126 161 191 235 307 366
#
# _framework density 19.464777999999999
#
# number of rings (size 3 to 8) (size 9 to 14) (size 15 to 20)
#    0.000    1.667    3.333    2.000    0.000    4.667 
#    0.000    0.833   11.000    4.000    0.000    0.000 
#    0.000    0.000    0.000    0.000    0.000    0.000 
#
# Total GULP energy -267418.232435 kJ/mol
# GULP energy per Si atom -5571.213176 kJ/mol
# Density = 1.942048 g / cm^3
# Si number density = 19.464778 Si / 1000 Ang^3
#
#
#
# Elastic Constant Matrix: (Units=GPa)
#
#
# Indices 1 2 3 4 5 6 
#
# 1 77.3543 24.4725 2.5763 0.0000 0.0000 0.0000
# 2 24.4725 119.5321 7.5857 0.0000 0.0000 0.0000
# 3 2.5763 7.5857 20.4766 0.0000 0.0000 0.0000
# 4 0.0000 0.0000 0.0000 6.9474 0.0000 0.0000
# 5 0.0000 0.0000 0.0000 0.0000 5.5019 0.0000
# 6 0.0000 0.0000 0.0000 0.0000 0.0000 36.6886
#
#
#
# Elastic Compliance Matrix: (Units=1/GPa)
#
#
# Indices 1 2 3 4 5 6 
#
# 1 0.013833 -0.002787 -0.000708 0.000000 0.000000 0.000000
# 2 -0.002787 0.009129 -0.003031 0.000000 0.000000 0.000000
# 3 -0.000708 -0.003031 0.050048 0.000000 0.000000 0.000000
# 4 0.000000 0.000000 0.000000 0.143938 0.000000 0.000000
# 5 0.000000 0.000000 0.000000 0.000000 0.181754 0.000000
# 6 0.000000 0.000000 0.000000 0.000000 0.000000 0.027256
#
#
# Mechanical properties :
#
#
# Convention : Reuss Voigt Hill
#
# Bulk Modulus (GPa) = 16.67845 31.84798 24.26321
# Shear Modulus (GPa) = 10.89331 22.00950 16.45140
#
# Velocity S-wave (km/s) = 2.36824 3.36629 2.91037
# Velocity P-wave (km/s) = 4.00814 5.61307 4.87708
#
# Compressibility (1/GPa) = 0.05995763
#
# Stress axis : x y z
#
# Youngs Moduli (GPa) = 72.29151 109.54165 19.98069
#
# Poissons Ratio (x) = 0.30531 0.01414
# Poissons Ratio (y) = 0.20149 0.06057
# Poissons Ratio (z) = 0.05118 0.33204
#
# Static dielectric constant tensor:
#      x y z
#    x 1.699070 0.000000 0.000000 
#    y 0.000000 1.752460 0.000000 
#    z 0.000000 0.000000 1.701250 
# 
# From -- ./inp_files/38805.got.cif
#   From: 2010.05.17/outbox.cif.g08.bks.cpg/sg66_20_cif.got.tgz:38805.got - 2010.06.03 17:51:23.
