data_PCOD9496849
_publ_section_title
;
Structure prediction by ZEFSAII (Michael W. Deem and Ramdas Pophale) SiO2 
 PCOD9496849
Probable space group: C C C M
;
_chemical_formula_sum "Si O2"
_cell_formula_units_Z 96
_cell_length_a 18.979312
_cell_length_b 29.201532
_cell_length_c 8.923158
_cell_angle_alpha 90.000000
_cell_angle_beta 90.000000
_cell_angle_gamma 90.000000
_cell_volume 4945.437124
_symmetry_space_group_name_H-M "C C C M"
_symmetry_group_IT_number 66
_symmetry_cell_setting 'orthorhombic'
loop_
_space_group_symop_operation_xyz
x,y,z
-x,-y,z
x,-y,1/2-z
-x,y,1/2-z
-x,-y,-z
x,y,-z
-x,y,1/2+z
x,-y,1/2+z
1/2+x,1/2+y,z
1/2-x,1/2-y,z
1/2+x,1/2-y,1/2-z
1/2-x,1/2+y,1/2-z
1/2-x,1/2-y,-z
1/2+x,1/2+y,-z
1/2-x,1/2+y,1/2+z
1/2+x,1/2-y,1/2+z
loop_
_atom_site_type_symbol
_atom_site_label
_atom_site_fract_x
_atom_site_fract_y
_atom_site_fract_z
Si Si1 0.926339 0.395511 0.319204
Si Si2 0.684736 0.720233 0.171513
Si Si3 0.135326 0.049468 0.320755
Si Si4 0.076943 0.851459 0.818703
Si Si5 0.937981 0.292191 0.664844
Si Si6 0.299218 0.950625 0.820414
O O1 0.926915 0.399824 0.500000
O O2 0.922211 0.342114 0.271819
O O3 0.857118 0.418267 0.252288
O O4 0.000000 0.413595 0.250000
O O5 0.750000 0.750000 0.237909
O O6 0.642526 0.679531 0.256369
O O7 0.627469 0.759981 0.159218
O O8 0.704173 0.705214 0.000000
O O9 0.130243 0.044184 0.500000
O O10 0.092212 0.095024 0.278734
O O11 0.217525 0.059927 0.284102
O O12 0.116370 0.000000 0.250000
O O13 0.000000 0.839526 0.750000
O O14 0.074962 0.847056 0.000000
O O15 0.965830 0.301376 0.500000
O O16 0.000000 0.267770 0.750000
O O17 0.312997 0.000000 0.750000
O O18 0.306364 0.951059 0.000000
#
# Coordination Sequence:
#
# PCOD9496849 Si02
#       6
#    16  16  16  16  16  16
#     4  10  20  34  53  79 109 146 190 237 289 344
#     4  10  22  39  60  89 122 158 200 244 293 352
#     4   9  21  40  62  89 121 156 199 246 301 363
#     4  11  24  42  63  92 126 162 203 250 303 359
#     4   9  19  35  54  78 109 147 189 233 281 336
#     4  10  20  36  56  80 110 146 187 237 292 351
#
# _framework density 19.411833000000001
#
# number of rings (size 3 to 8) (size 9 to 14) (size 15 to 20)
#    0.000    2.167    0.000    2.000    2.333    5.667 
#    0.000    3.333    0.000    0.000    0.000    0.000 
#    0.000    0.000    0.000    0.000    0.000    0.000 
#
# Total GULP energy -267366.878123 kJ/mol
# GULP energy per Si atom -5570.143294 kJ/mol
# Density = 1.936765 g / cm^3
# Si number density = 19.411833 Si / 1000 Ang^3
#
#
#
# Elastic Constant Matrix: (Units=GPa)
#
#
# Indices 1 2 3 4 5 6 
#
# 1 77.4159 63.1687 38.2537 0.0000 0.0000 0.0000
# 2 63.1687 107.4254 37.8194 0.0000 0.0000 0.0000
# 3 38.2537 37.8194 54.7766 0.0000 0.0000 0.0000
# 4 0.0000 0.0000 0.0000 35.1500 0.0000 0.0000
# 5 0.0000 0.0000 0.0000 0.0000 20.5992 0.0000
# 6 0.0000 0.0000 0.0000 0.0000 0.0000 25.3457
#
#
#
# Elastic Compliance Matrix: (Units=1/GPa)
#
#
# Indices 1 2 3 4 5 6 
#
# 1 0.029338 -0.013262 -0.011332 0.000000 0.000000 0.000000
# 2 -0.013262 0.018293 -0.003368 0.000000 0.000000 0.000000
# 3 -0.011332 -0.003368 0.028495 0.000000 0.000000 0.000000
# 4 0.000000 0.000000 0.000000 0.028449 0.000000 0.000000
# 5 0.000000 0.000000 0.000000 0.000000 0.048546 0.000000
# 6 0.000000 0.000000 0.000000 0.000000 0.000000 0.039454
#
#
# Mechanical properties :
#
#
# Convention : Reuss Voigt Hill
#
# Bulk Modulus (GPa) = 49.50085 57.56683 53.53384
# Shear Modulus (GPa) = 19.58979 22.91073 21.25026
#
# Velocity S-wave (km/s) = 3.18019 3.43920 3.31222
# Velocity P-wave (km/s) = 6.24824 6.74468 6.50120
#
# Compressibility (1/GPa) = 0.02020167
#
# Stress axis : x y z
#
# Youngs Moduli (GPa) = 34.08528 54.66554 35.09335
#
# Poissons Ratio (x) = 0.72498 0.39768
# Poissons Ratio (y) = 0.45204 0.11821
# Poissons Ratio (z) = 0.38626 0.18413
#
# Static dielectric constant tensor:
#      x y z
#    x 1.728530 0.000000 0.000000 
#    y 0.000000 1.699960 0.000000 
#    z 0.000000 0.000000 1.633490 
# 
# From -- ./inp_files/7988.got.cif
#   From: 2010.05.17/outbox.cif.g08.bks.cpg/sg66_4_cif.got.tgz:7988.got - 2010.06.03 17:51:23.
