data_PCOD9496467
_publ_section_title
;
Structure prediction by ZEFSAII (Michael W. Deem and Ramdas Pophale) SiO2 
 PCOD9496467
Probable space group: C C C M
;
_chemical_formula_sum "Si O2"
_cell_formula_units_Z 64
_cell_length_a 14.433919
_cell_length_b 10.074939
_cell_length_c 25.599297
_cell_angle_alpha 90.000000
_cell_angle_beta 90.000000
_cell_angle_gamma 90.000000
_cell_volume 3722.671618
_symmetry_space_group_name_H-M "C C C M"
_symmetry_group_IT_number 66
_symmetry_cell_setting 'orthorhombic'
loop_
_space_group_symop_operation_xyz
x,y,z
-x,-y,z
x,-y,1/2-z
-x,y,1/2-z
-x,-y,-z
x,y,-z
-x,y,1/2+z
x,-y,1/2+z
1/2+x,1/2+y,z
1/2-x,1/2-y,z
1/2+x,1/2-y,1/2-z
1/2-x,1/2+y,1/2-z
1/2-x,1/2-y,-z
1/2+x,1/2+y,-z
1/2-x,1/2+y,1/2+z
1/2+x,1/2-y,1/2+z
loop_
_atom_site_type_symbol
_atom_site_label
_atom_site_fract_x
_atom_site_fract_y
_atom_site_fract_z
Si Si1 0.250000 0.250000 0.329165
Si Si2 0.738208 0.016564 0.911125
Si Si3 0.390213 0.659369 0.744399
Si Si4 0.750000 0.250000 0.654566
Si Si5 0.161359 0.853439 0.000000
Si Si6 0.592547 0.918077 0.500000
O O1 0.236374 0.375451 0.365851
O O2 0.337714 0.272247 0.292295
O O3 0.737571 0.875549 0.883327
O O4 0.825104 0.055580 0.948991
O O5 0.651351 0.038298 0.949317
O O6 0.375328 0.500000 0.750000
O O7 0.500000 0.683569 0.750000
O O8 0.337508 0.714964 0.692714
O O9 0.250000 0.750000 0.000000
O O10 0.081404 0.742896 0.000000
O O11 0.500000 0.000000 0.500000
#
# Coordination Sequence:
#
# PCOD9496467 Si02
#       6
#     8  16  16   8   8   8
#     4  11  18  37  64  76 108 163 190 233 292 358
#     4  10  19  36  59  80 111 155 195 230 294 353
#     4  10  22  37  56  85 119 151 194 246 296 351
#     4  11  22  37  58  90 114 157 200 239 294 348
#     4   8  16  34  55  78 107 152 188 227 294 342
#     4  10  20  34  57  90 118 141 199 252 288 346
#
# _framework density 17.191953000000002
#
# number of rings (size 3 to 8) (size 9 to 14) (size 15 to 20)
#    0.000    2.250    6.250    0.000    0.000    4.000 
#    0.000    1.250    0.000    1.500    0.000    0.000 
#    0.000    0.000    0.000    0.000    0.000    0.000 
#
# Total GULP energy -178195.211995 kJ/mol
# GULP energy per Si atom -5568.600375 kJ/mol
# Density = 1.715282 g / cm^3
# Si number density = 17.191953 Si / 1000 Ang^3
#
#
#
# Elastic Constant Matrix: (Units=GPa)
#
#
# Indices 1 2 3 4 5 6 
#
# 1 96.1478 52.2644 54.5701 0.0000 0.0000 0.0000
# 2 52.2644 165.3038 89.6270 0.0000 0.0000 0.0000
# 3 54.5701 89.6270 151.5801 0.0000 0.0000 0.0000
# 4 0.0000 0.0000 0.0000 14.0977 0.0000 0.0000
# 5 0.0000 0.0000 0.0000 0.0000 13.8958 0.0000
# 6 0.0000 0.0000 0.0000 0.0000 0.0000 28.4020
#
#
#
# Elastic Compliance Matrix: (Units=1/GPa)
#
#
# Indices 1 2 3 4 5 6 
#
# 1 0.013710 -0.002441 -0.003492 0.000000 0.000000 0.000000
# 2 -0.002441 0.009339 -0.004643 0.000000 0.000000 0.000000
# 3 -0.003492 -0.004643 0.010600 0.000000 0.000000 0.000000
# 4 0.000000 0.000000 0.000000 0.070934 0.000000 0.000000
# 5 0.000000 0.000000 0.000000 0.000000 0.071964 0.000000
# 6 0.000000 0.000000 0.000000 0.000000 0.000000 0.035209
#
#
# Mechanical properties :
#
#
# Convention : Reuss Voigt Hill
#
# Bulk Modulus (GPa) = 80.02932 89.55055 84.78993
# Shear Modulus (GPa) = 21.09060 25.71710 23.40385
#
# Velocity S-wave (km/s) = 3.50633 3.87186 3.69362
# Velocity P-wave (km/s) = 7.94002 8.49648 8.22296
#
# Compressibility (1/GPa) = 0.01249542
#
# Stress axis : x y z
#
# Youngs Moduli (GPa) = 72.94118 107.08115 94.34210
#
# Poissons Ratio (x) = 0.26140 0.32946
# Poissons Ratio (y) = 0.17806 0.43803
# Poissons Ratio (z) = 0.25472 0.49718
#
# Static dielectric constant tensor:
#      x y z
#    x 1.609940 0.000000 0.000000 
#    y 0.000000 1.246320 0.000000 
#    z 0.000000 0.000000 1.534380 
# 
# From -- ./inp_files/57749.got.cif
#   From: 2010.05.17/outbox.cif.g08.bks.cpg/sg66_29_cif.got.tgz:57749.got - 2010.06.03 17:51:23.
