data_PCOD9496564
_publ_section_title
;
Structure prediction by ZEFSAII (Michael W. Deem and Ramdas Pophale) SiO2 
 PCOD9496564
Probable space group: C C C M
;
_chemical_formula_sum "Si O2"
_cell_formula_units_Z 64
_cell_length_a 7.546314
_cell_length_b 17.100096
_cell_length_c 26.949019
_cell_angle_alpha 90.000000
_cell_angle_beta 90.000000
_cell_angle_gamma 90.000000
_cell_volume 3477.574008
_symmetry_space_group_name_H-M "C C C M"
_symmetry_group_IT_number 66
_symmetry_cell_setting 'orthorhombic'
loop_
_space_group_symop_operation_xyz
x,y,z
-x,-y,z
x,-y,1/2-z
-x,y,1/2-z
-x,-y,-z
x,y,-z
-x,y,1/2+z
x,-y,1/2+z
1/2+x,1/2+y,z
1/2-x,1/2-y,z
1/2+x,1/2-y,1/2-z
1/2-x,1/2+y,1/2-z
1/2-x,1/2-y,-z
1/2+x,1/2+y,-z
1/2-x,1/2+y,1/2+z
1/2+x,1/2-y,1/2+z
loop_
_atom_site_type_symbol
_atom_site_label
_atom_site_fract_x
_atom_site_fract_y
_atom_site_fract_z
Si Si1 0.601532 0.423449 0.147852
Si Si2 0.971212 0.593898 0.693003
Si Si3 0.737779 0.660175 0.882922
Si Si4 0.788394 0.490358 0.556633
O O1 0.500000 0.500000 0.169586
O O2 0.452852 0.358586 0.140829
O O3 0.685043 0.455341 0.095895
O O4 0.767489 0.393736 0.178669
O O5 0.108088 0.636006 0.656009
O O6 0.000000 0.500000 0.687887
O O7 0.000000 0.615848 0.750000
O O8 0.750000 0.750000 0.897148
O O9 0.750641 0.598855 0.927994
O O10 0.738773 0.507198 0.500000
O O11 0.000000 0.500000 0.562042
#
# Coordination Sequence:
#
# PCOD9496564 Si02
#       4
#    16  16  16  16
#     4  10  19  38  62  86 112 154 195 236 292 341
#     4  11  21  40  62  86 114 151 204 246 279 346
#     4  11  23  39  58  89 124 154 190 241 300 346
#     4  10  19  38  65  86 114 155 200 242 288 348
#
# _framework density 18.403635000000001
#
# number of rings (size 3 to 8) (size 9 to 14) (size 15 to 20)
#    0.000    1.500    7.500    0.000    0.000    7.000 
#    4.500    0.000    0.000    3.000    0.000    0.000 
#    0.000    0.000    0.000    0.000    0.000    0.000 
#
# Total GULP energy -178631.887242 kJ/mol
# GULP energy per Si atom -5582.246476 kJ/mol
# Density = 1.836175 g / cm^3
# Si number density = 18.403635 Si / 1000 Ang^3
#
#
#
# Elastic Constant Matrix: (Units=GPa)
#
#
# Indices 1 2 3 4 5 6 
#
# 1 151.5540 21.4462 33.4585 0.0000 0.0000 0.0000
# 2 21.4462 61.0861 7.1916 0.0000 0.0000 0.0000
# 3 33.4585 7.1916 83.7578 0.0000 0.0000 0.0000
# 4 0.0000 0.0000 0.0000 10.4843 0.0000 0.0000
# 5 0.0000 0.0000 0.0000 0.0000 12.2691 0.0000
# 6 0.0000 0.0000 0.0000 0.0000 0.0000 14.9908
#
#
#
# Elastic Compliance Matrix: (Units=1/GPa)
#
#
# Indices 1 2 3 4 5 6 
#
# 1 0.007548 -0.002318 -0.002816 0.000000 0.000000 0.000000
# 2 -0.002318 0.017250 -0.000555 0.000000 0.000000 0.000000
# 3 -0.002816 -0.000555 0.013112 0.000000 0.000000 0.000000
# 4 0.000000 0.000000 0.000000 0.095380 0.000000 0.000000
# 5 0.000000 0.000000 0.000000 0.000000 0.081505 0.000000
# 6 0.000000 0.000000 0.000000 0.000000 0.000000 0.066708
#
#
# Mechanical properties :
#
#
# Convention : Reuss Voigt Hill
#
# Bulk Modulus (GPa) = 37.69257 46.73229 42.21243
# Shear Modulus (GPa) = 16.57136 23.16896 19.87016
#
# Velocity S-wave (km/s) = 3.00399 3.55199 3.28942
# Velocity P-wave (km/s) = 5.70591 6.50156 6.11669
#
# Compressibility (1/GPa) = 0.02653042
#
# Stress axis : x y z
#
# Youngs Moduli (GPa) = 132.48344 57.97225 76.26716
#
# Poissons Ratio (x) = 0.13441 0.21478
# Poissons Ratio (y) = 0.30716 0.04232
# Poissons Ratio (z) = 0.37309 0.03217
#
# Static dielectric constant tensor:
#      x y z
#    x 1.666170 0.000000 0.000000 
#    y 0.000000 1.623470 0.000000 
#    z 0.000000 0.000000 1.646040 
# 
# From -- ./inp_files/66949.got.cif
#   From: 2010.05.17/outbox.cif.g08.bks.cpg/sg66_34_cif.got.tgz:66949.got - 2010.06.03 17:51:23.
