data_PCOD9496443
_publ_section_title
;
Structure prediction by ZEFSAII (Michael W. Deem and Ramdas Pophale) SiO2 
 PCOD9496443
Probable space group: C C C M
;
_chemical_formula_sum "Si O2"
_cell_formula_units_Z 88
_cell_length_a 15.211201
_cell_length_b 17.343049
_cell_length_c 18.390812
_cell_angle_alpha 90.000000
_cell_angle_beta 90.000000
_cell_angle_gamma 90.000000
_cell_volume 4851.654446
_symmetry_space_group_name_H-M "C C C M"
_symmetry_group_IT_number 66
_symmetry_cell_setting 'orthorhombic'
loop_
_space_group_symop_operation_xyz
x,y,z
-x,-y,z
x,-y,1/2-z
-x,y,1/2-z
-x,-y,-z
x,y,-z
-x,y,1/2+z
x,-y,1/2+z
1/2+x,1/2+y,z
1/2-x,1/2-y,z
1/2+x,1/2-y,1/2-z
1/2-x,1/2+y,1/2-z
1/2-x,1/2-y,-z
1/2+x,1/2+y,-z
1/2-x,1/2+y,1/2+z
1/2+x,1/2-y,1/2+z
loop_
_atom_site_type_symbol
_atom_site_label
_atom_site_fract_x
_atom_site_fract_y
_atom_site_fract_z
Si Si1 0.260912 0.081734 0.331340
Si Si2 0.903552 0.308847 0.213040
Si Si3 0.134608 0.805856 0.083867
Si Si4 0.297232 0.412921 0.167672
Si Si5 0.534205 0.413821 0.578390
Si Si6 0.250000 0.250000 0.182479
O O1 0.358289 0.108916 0.307040
O O2 0.216700 0.144316 0.385009
O O3 0.208712 0.087557 0.255002
O O4 0.248395 0.993290 0.356890
O O5 0.894030 0.261814 0.138107
O O6 0.836012 0.264573 0.267349
O O7 0.000000 0.312609 0.250000
O O8 0.050606 0.861556 0.085776
O O9 0.149950 0.782787 0.000000
O O10 0.396616 0.409670 0.142044
O O11 0.257551 0.331328 0.141379
O O12 0.500000 0.500000 0.576349
O O13 0.577530 0.396111 0.500000
#
# Coordination Sequence:
#
# PCOD9496443 Si02
#       6
#    16  16  16  16  16   8
#     4  10  21  35  53  87 113 159 199 237 299 357
#     4  11  21  38  59  83 122 159 198 251 296 350
#     4  11  21  35  57  89 125 155 191 247 315 371
#     4  10  19  36  56  77 122 153 194 244 290 354
#     4  10  20  33  53  86 121 152 188 236 303 370
#     4  10  20  38  56  88 114 148 208 246 294 354
#
# _framework density 18.138141999999998
#
# number of rings (size 3 to 8) (size 9 to 14) (size 15 to 20)
#    0.000    1.636    5.455    1.091    0.000    1.455 
#    0.000    7.727    0.000    4.364    0.000    0.000 
#    0.000   45.091    0.000    0.000    0.000    0.000 
#
# Total GULP energy -245005.077666 kJ/mol
# GULP energy per Si atom -5568.297220 kJ/mol
# Density = 1.809686 g / cm^3
# Si number density = 18.138142 Si / 1000 Ang^3
#
#
#
# Elastic Constant Matrix: (Units=GPa)
#
#
# Indices 1 2 3 4 5 6 
#
# 1 123.8515 43.2481 48.3079 0.0000 0.0000 0.0000
# 2 43.2481 88.5652 14.0014 0.0000 0.0000 0.0000
# 3 48.3079 14.0014 69.3562 0.0000 0.0000 0.0000
# 4 0.0000 0.0000 0.0000 23.4535 0.0000 0.0000
# 5 0.0000 0.0000 0.0000 0.0000 -4.1686 0.0000
# 6 0.0000 0.0000 0.0000 0.0000 0.0000 24.0584
#
#
#
# Elastic Compliance Matrix: (Units=1/GPa)
#
#
# Indices 1 2 3 4 5 6 
#
# 1 0.012967 -0.005066 -0.008009 0.000000 0.000000 0.000000
# 2 -0.005066 0.013642 0.000774 0.000000 0.000000 0.000000
# 3 -0.008009 0.000774 0.019841 0.000000 0.000000 0.000000
# 4 0.000000 0.000000 0.000000 0.042638 0.000000 0.000000
# 5 0.000000 0.000000 0.000000 0.000000 -0.239888 0.000000
# 6 0.000000 0.000000 0.000000 0.000000 0.000000 0.041566
#
#
# Mechanical properties :
#
#
# Convention : Reuss Voigt Hill
#
# Bulk Modulus (GPa) = 45.76913 54.76530 50.26722
# Shear Modulus (GPa) = -64.64094 20.41636 -22.11229
#
# Velocity S-wave (km/s) = -5.97624 3.35864 -3.49536
# Velocity P-wave (km/s) = 4.72570 6.73050 3.38876
#
# Compressibility (1/GPa) = 0.02184879
#
# Stress axis : x y z
#
# Youngs Moduli (GPa) = 77.11822 73.30049 50.40193
#
# Poissons Ratio (x) = 0.37133 0.40368
# Poissons Ratio (y) = 0.39067 -0.03903
# Poissons Ratio (z) = 0.61765 -0.05676
#
# Static dielectric constant tensor:
#      x y z
#    x 1.601390 0.000000 0.000000 
#    y 0.000000 1.667140 0.000000 
#    z 0.000000 0.000000 1.667800 
# 
# From -- ./inp_files/40328.got.cif
#   From: 2010.05.17/outbox.cif.g08.bks.cpg/sg66_21_cif.got.tgz:40328.got - 2010.06.03 17:51:23.
