data_PCOD9496718
_publ_section_title
;
Structure prediction by ZEFSAII (Michael W. Deem and Ramdas Pophale) SiO2 
 PCOD9496718
Probable space group: C C C M
;
_chemical_formula_sum "Si O2"
_cell_formula_units_Z 64
_cell_length_a 7.306866
_cell_length_b 36.507665
_cell_length_c 11.270319
_cell_angle_alpha 90.000000
_cell_angle_beta 90.000000
_cell_angle_gamma 90.000000
_cell_volume 3006.432159
_symmetry_space_group_name_H-M "C C C M"
_symmetry_group_IT_number 66
_symmetry_cell_setting 'orthorhombic'
loop_
_space_group_symop_operation_xyz
x,y,z
-x,-y,z
x,-y,1/2-z
-x,y,1/2-z
-x,-y,-z
x,y,-z
-x,y,1/2+z
x,-y,1/2+z
1/2+x,1/2+y,z
1/2-x,1/2-y,z
1/2+x,1/2-y,1/2-z
1/2-x,1/2+y,1/2-z
1/2-x,1/2-y,-z
1/2+x,1/2+y,-z
1/2-x,1/2+y,1/2+z
1/2+x,1/2-y,1/2+z
loop_
_atom_site_type_symbol
_atom_site_label
_atom_site_fract_x
_atom_site_fract_y
_atom_site_fract_z
Si Si1 0.219750 0.632439 0.371946
Si Si2 0.200878 0.603167 0.128532
Si Si3 0.207099 0.484513 0.371086
Si Si4 0.117492 0.284752 0.869577
O O1 0.295019 0.620037 0.500000
O O2 0.293432 0.617393 0.248134
O O3 0.221194 0.676361 0.367226
O O4 0.006426 0.619163 0.372746
O O5 0.195108 0.559303 0.135821
O O6 0.280565 0.613639 0.000000
O O7 0.291736 0.500000 0.250000
O O8 0.288315 0.494635 0.500000
O O9 0.000000 0.500000 0.373340
O O10 0.250000 0.250000 0.867429
O O11 0.000000 0.283729 0.750000
O O12 0.020044 0.284135 0.000000
#
# Coordination Sequence:
#
# PCOD9496718 Si02
#       4
#    16  16  16  16
#     4   9  15  24  38  54  73  98 131 171 209 250
#     4   9  15  22  34  50  69  98 136 171 205 249
#     4   9  15  20  27  42  65  93 129 167 200 240
#     4  10  20  33  49  69  91 116 148 187 231 278
#
# _framework density 21.287690000000001
#
# number of rings (size 3 to 8) (size 9 to 14) (size 15 to 20)
#    0.000    2.750    2.500    3.000    0.000    3.500 
#    0.000    0.000    0.000    0.000    0.000    0.000 
#    0.000    0.000    0.000    0.000    0.000   20.000 
#
# Total GULP energy -178208.224888 kJ/mol
# GULP energy per Si atom -5569.007028 kJ/mol
# Density = 2.123924 g / cm^3
# Si number density = 21.287690 Si / 1000 Ang^3
#
#
#
# Elastic Constant Matrix: (Units=GPa)
#
#
# Indices 1 2 3 4 5 6 
#
# 1 54.3442 6.9161 21.6901 0.0000 0.0000 0.0000
# 2 6.9161 90.3723 66.2969 0.0000 0.0000 0.0000
# 3 21.6901 66.2969 304.7728 0.0000 0.0000 0.0000
# 4 0.0000 0.0000 0.0000 44.0533 0.0000 0.0000
# 5 0.0000 0.0000 0.0000 0.0000 179.6247 0.0000
# 6 0.0000 0.0000 0.0000 0.0000 0.0000 375.1469
#
#
#
# Elastic Compliance Matrix: (Units=1/GPa)
#
#
# Indices 1 2 3 4 5 6 
#
# 1 0.018962 -0.000549 -0.001230 0.000000 0.000000 0.000000
# 2 -0.000549 0.013182 -0.002828 0.000000 0.000000 0.000000
# 3 -0.001230 -0.002828 0.003984 0.000000 0.000000 0.000000
# 4 0.000000 0.000000 0.000000 0.022700 0.000000 0.000000
# 5 0.000000 0.000000 0.000000 0.000000 0.005567 0.000000
# 6 0.000000 0.000000 0.000000 0.000000 0.000000 0.002666
#
#
# Mechanical properties :
#
#
# Convention : Reuss Voigt Hill
#
# Bulk Modulus (GPa) = 37.15587 71.03282 54.09435
# Shear Modulus (GPa) = 58.65328 143.40406 101.02867
#
# Velocity S-wave (km/s) = 5.25476 8.21651 6.89650
# Velocity P-wave (km/s) = 7.36944 11.11104 9.42772
#
# Compressibility (1/GPa) = 0.02691365
#
# Stress axis : x y z
#
# Youngs Moduli (GPa) = 52.73691 75.85927 251.00681
#
# Poissons Ratio (x) = 0.04163 0.30877
# Poissons Ratio (y) = 0.02894 0.70997
# Poissons Ratio (z) = 0.06487 0.21457
#
# Static dielectric constant tensor:
#      x y z
#    x 1.714030 0.000000 0.000000 
#    y 0.000000 1.717130 0.000000 
#    z 0.000000 0.000000 1.884780 
# 
# From -- ./inp_files/13571.got.cif
#   From: 2010.05.17/outbox.cif.g08.bks.cpg/sg66_7_cif.got.tgz:13571.got - 2010.06.03 17:51:23.
