data_PCOD9496781
_publ_section_title
;
Structure prediction by ZEFSAII (Michael W. Deem and Ramdas Pophale) SiO2 
 PCOD9496781
Probable space group: C C C M
;
_chemical_formula_sum "Si O2"
_cell_formula_units_Z 96
_cell_length_a 18.323530
_cell_length_b 11.451633
_cell_length_c 25.647867
_cell_angle_alpha 90.000000
_cell_angle_beta 90.000000
_cell_angle_gamma 90.000000
_cell_volume 5381.803265
_symmetry_space_group_name_H-M "C C C M"
_symmetry_group_IT_number 66
_symmetry_cell_setting 'orthorhombic'
loop_
_space_group_symop_operation_xyz
x,y,z
-x,-y,z
x,-y,1/2-z
-x,y,1/2-z
-x,-y,-z
x,y,-z
-x,y,1/2+z
x,-y,1/2+z
1/2+x,1/2+y,z
1/2-x,1/2-y,z
1/2+x,1/2-y,1/2-z
1/2-x,1/2+y,1/2-z
1/2-x,1/2-y,-z
1/2+x,1/2+y,-z
1/2-x,1/2+y,1/2+z
1/2+x,1/2-y,1/2+z
loop_
_atom_site_type_symbol
_atom_site_label
_atom_site_fract_x
_atom_site_fract_y
_atom_site_fract_z
Si Si1 0.992954 0.808671 0.189481
Si Si2 0.880910 0.479727 0.939960
Si Si3 0.813352 0.850687 0.500000
Si Si4 0.624293 0.506653 0.689356
Si Si5 0.485196 0.637607 0.000000
Si Si6 0.482545 0.815679 0.585011
Si Si7 0.259971 0.610065 0.111419
O O1 0.000000 0.771115 0.250000
O O2 0.920074 0.886389 0.180184
O O3 0.992502 0.710177 0.145833
O O4 0.062459 0.893714 0.181579
O O5 0.912145 0.607026 0.927499
O O6 0.819581 0.441597 0.899488
O O7 0.948647 0.391355 0.934489
O O8 0.854625 0.474395 0.000000
O O9 0.750000 0.750000 0.500000
O O10 0.899619 0.826781 0.500000
O O11 0.800481 0.908327 0.444048
O O12 0.645669 0.500000 0.750000
O O13 0.692473 0.543373 0.654285
O O14 0.500000 0.500000 0.000000
O O15 0.518364 0.697598 0.948511
O O16 0.250000 0.750000 0.121470
#
# Coordination Sequence:
#
# PCOD9496781 Si02
#       7
#    16  16   8  16   8  16  16
#     4   9  19  37  61  84 114 150 192 242 294 353
#     4  11  21  40  58  82 119 162 196 236 298 365
#     4  10  20  33  54  84 118 150 195 241 291 350
#     4   9  19  37  59  85 113 151 194 240 297 345
#     4  12  24  32  58  96 117 145 203 262 290 345
#     4  11  21  38  60  85 117 153 197 243 303 349
#     4  11  21  35  59  86 115 153 204 245 287 353
#
# _framework density 17.837888
#
# number of rings (size 3 to 8) (size 9 to 14) (size 15 to 20)
#    0.000    1.667    2.500    5.500    4.667    0.000 
#    0.000    7.500    0.000    2.000    0.000    0.000 
#    0.000    0.000    0.000    0.000    0.000    0.000 
#
# Total GULP energy -267637.091547 kJ/mol
# GULP energy per Si atom -5575.772741 kJ/mol
# Density = 1.779729 g / cm^3
# Si number density = 17.837888 Si / 1000 Ang^3
#
#
#
# Elastic Constant Matrix: (Units=GPa)
#
#
# Indices 1 2 3 4 5 6 
#
# 1 104.7963 39.3909 46.1658 0.0000 0.0000 0.0000
# 2 39.3909 88.7060 43.5112 0.0000 0.0000 0.0000
# 3 46.1658 43.5112 97.9896 0.0000 0.0000 0.0000
# 4 0.0000 0.0000 0.0000 30.4624 0.0000 0.0000
# 5 0.0000 0.0000 0.0000 0.0000 31.8561 0.0000
# 6 0.0000 0.0000 0.0000 0.0000 0.0000 16.3035
#
#
#
# Elastic Compliance Matrix: (Units=1/GPa)
#
#
# Indices 1 2 3 4 5 6 
#
# 1 0.012837 -0.003495 -0.004496 0.000000 0.000000 0.000000
# 2 -0.003495 0.015364 -0.005176 0.000000 0.000000 0.000000
# 3 -0.004496 -0.005176 0.014621 0.000000 0.000000 0.000000
# 4 0.000000 0.000000 0.000000 0.032827 0.000000 0.000000
# 5 0.000000 0.000000 0.000000 0.000000 0.031391 0.000000
# 6 0.000000 0.000000 0.000000 0.000000 0.000000 0.061336
#
#
# Mechanical properties :
#
#
# Convention : Reuss Voigt Hill
#
# Bulk Modulus (GPa) = 60.64587 61.06976 60.85782
# Shear Modulus (GPa) = 24.97430 26.55267 25.76349
#
# Velocity S-wave (km/s) = 3.74581 3.86236 3.80453
# Velocity P-wave (km/s) = 7.26500 7.36212 7.31372
#
# Compressibility (1/GPa) = 0.01648917
#
# Stress axis : x y z
#
# Youngs Moduli (GPa) = 77.90259 65.08778 68.39285
#
# Poissons Ratio (x) = 0.22748 0.30748
# Poissons Ratio (y) = 0.27227 0.35397
# Poissons Ratio (z) = 0.35023 0.33687
#
# Static dielectric constant tensor:
#      x y z
#    x 1.623550 0.000000 0.000000 
#    y 0.000000 1.627530 0.000000 
#    z 0.000000 0.000000 1.616100 
# 
# From -- ./inp_files/58812.got.cif
#   From: 2010.05.17/outbox.cif.g08.bks.cpg/sg66_30_cif.got.tgz:58812.got - 2010.06.03 17:51:23.
