data_PCOD9496392
_publ_section_title
;
Structure prediction by ZEFSAII (Michael W. Deem and Ramdas Pophale) SiO2 
 PCOD9496392
Probable space group: C C C M
;
_chemical_formula_sum "Si O2"
_cell_formula_units_Z 96
_cell_length_a 17.076572
_cell_length_b 12.155044
_cell_length_c 22.325198
_cell_angle_alpha 90.000000
_cell_angle_beta 90.000000
_cell_angle_gamma 90.000000
_cell_volume 4633.962854
_symmetry_space_group_name_H-M "C C C M"
_symmetry_group_IT_number 66
_symmetry_cell_setting 'orthorhombic'
loop_
_space_group_symop_operation_xyz
x,y,z
-x,-y,z
x,-y,1/2-z
-x,y,1/2-z
-x,-y,-z
x,y,-z
-x,y,1/2+z
x,-y,1/2+z
1/2+x,1/2+y,z
1/2-x,1/2-y,z
1/2+x,1/2-y,1/2-z
1/2-x,1/2+y,1/2-z
1/2-x,1/2-y,-z
1/2+x,1/2+y,-z
1/2-x,1/2+y,1/2+z
1/2+x,1/2-y,1/2+z
loop_
_atom_site_type_symbol
_atom_site_label
_atom_site_fract_x
_atom_site_fract_y
_atom_site_fract_z
Si Si1 0.309015 0.080046 0.694392
Si Si2 0.979777 0.671354 0.915848
Si Si3 0.424252 0.579343 0.566406
Si Si4 0.129103 0.464640 0.563317
Si Si5 0.947826 0.744810 0.694272
Si Si6 0.128335 0.960605 0.182583
O O1 0.328308 0.041450 0.626726
O O2 0.327125 0.000000 0.750000
O O3 0.366162 0.183141 0.705450
O O4 0.215299 0.088094 0.692490
O O5 0.065715 0.634694 0.937925
O O6 0.995605 0.668674 0.845030
O O7 0.950257 0.792648 0.931349
O O8 0.920073 0.577604 0.935044
O O9 0.500000 0.500000 0.566279
O O10 0.385706 0.562659 0.500000
O O11 0.377270 0.547806 0.627768
O O12 0.174128 0.460210 0.500000
O O13 0.926201 0.859219 0.663183
O O14 0.000000 0.774000 0.750000
O O15 0.104864 0.000000 0.250000
#
# Coordination Sequence:
#
# PCOD9496392 Si02
#       6
#    16  16  16  16  16  16
#     4  10  23  41  58  85 122 158 201 253 311 364
#     4  10  19  35  59  91 121 151 201 262 308 351
#     4  11  22  37  59  89 124 157 201 255 306 362
#     4  10  20  36  62  87 118 157 202 254 309 365
#     4  11  21  36  63  89 117 157 207 257 306 367
#     4  11  24  40  59  85 123 163 201 249 307 374
#
# _framework density 20.716609999999999
#
# number of rings (size 3 to 8) (size 9 to 14) (size 15 to 20)
#    0.000    1.500    1.667    4.500    0.000    2.333 
#    0.000    2.500    0.000    5.000    0.000    0.000 
#    0.000    0.000    0.000    0.000    0.000    0.000 
#
# Total GULP energy -267310.608919 kJ/mol
# GULP energy per Si atom -5568.971019 kJ/mol
# Density = 2.066946 g / cm^3
# Si number density = 20.716610 Si / 1000 Ang^3
#
#
#
# Elastic Constant Matrix: (Units=GPa)
#
#
# Indices 1 2 3 4 5 6 
#
# 1 46.1727 27.4572 35.9330 0.0000 0.0000 0.0000
# 2 27.4572 100.5611 42.8773 0.0000 0.0000 0.0000
# 3 35.9330 42.8773 139.8271 0.0000 0.0000 0.0000
# 4 0.0000 0.0000 0.0000 6.8939 0.0000 0.0000
# 5 0.0000 0.0000 0.0000 0.0000 90.9781 0.0000
# 6 0.0000 0.0000 0.0000 0.0000 0.0000 17.9295
#
#
#
# Elastic Compliance Matrix: (Units=1/GPa)
#
#
# Indices 1 2 3 4 5 6 
#
# 1 0.029545 -0.005556 -0.005889 0.000000 0.000000 0.000000
# 2 -0.005556 0.012485 -0.002401 0.000000 0.000000 0.000000
# 3 -0.005889 -0.002401 0.009401 0.000000 0.000000 0.000000
# 4 0.000000 0.000000 0.000000 0.145055 0.000000 0.000000
# 5 0.000000 0.000000 0.000000 0.000000 0.010992 0.000000
# 6 0.000000 0.000000 0.000000 0.000000 0.000000 0.055774
#
#
# Mechanical properties :
#
#
# Convention : Reuss Voigt Hill
#
# Bulk Modulus (GPa) = 42.12333 55.45509 48.78921
# Shear Modulus (GPa) = 16.73053 35.17985 25.95519
#
# Velocity S-wave (km/s) = 2.84490 4.12533 3.54343
# Velocity P-wave (km/s) = 5.58288 7.03688 6.35162
#
# Compressibility (1/GPa) = 0.02373981
#
# Stress axis : x y z
#
# Youngs Moduli (GPa) = 33.84723 80.09744 106.37044
#
# Poissons Ratio (x) = 0.44502 0.62638
# Poissons Ratio (y) = 0.18806 0.25535
# Poissons Ratio (z) = 0.19932 0.19228
#
# Static dielectric constant tensor:
#      x y z
#    x 1.719970 0.000000 0.000000 
#    y 0.000000 1.748180 0.000000 
#    z 0.000000 0.000000 1.784090 
# 
# From -- ./inp_files/58781.got.cif
#   From: 2010.05.17/outbox.cif.g08.bks.cpg/sg66_30_cif.got.tgz:58781.got - 2010.06.03 17:51:23.
