data_PCOD9496371
_publ_section_title
;
Structure prediction by ZEFSAII (Michael W. Deem and Ramdas Pophale) SiO2 
 PCOD9496371
Probable space group: C C C M
;
_chemical_formula_sum "Si O2"
_cell_formula_units_Z 56
_cell_length_a 5.042629
_cell_length_b 33.936158
_cell_length_c 16.733039
_cell_angle_alpha 90.000000
_cell_angle_beta 90.000000
_cell_angle_gamma 90.000000
_cell_volume 2863.482370
_symmetry_space_group_name_H-M "C C C M"
_symmetry_group_IT_number 66
_symmetry_cell_setting 'orthorhombic'
loop_
_space_group_symop_operation_xyz
x,y,z
-x,-y,z
x,-y,1/2-z
-x,y,1/2-z
-x,-y,-z
x,y,-z
-x,y,1/2+z
x,-y,1/2+z
1/2+x,1/2+y,z
1/2-x,1/2-y,z
1/2+x,1/2-y,1/2-z
1/2-x,1/2+y,1/2-z
1/2-x,1/2-y,-z
1/2+x,1/2+y,-z
1/2-x,1/2+y,1/2+z
1/2+x,1/2-y,1/2+z
loop_
_atom_site_type_symbol
_atom_site_label
_atom_site_fract_x
_atom_site_fract_y
_atom_site_fract_z
Si Si1 0.250000 0.250000 0.808803
Si Si2 0.082579 0.588354 0.408679
Si Si3 0.935814 0.953478 0.340713
Si Si4 0.752798 0.335572 0.308696
O O1 0.500000 0.249643 0.750000
O O2 0.271300 0.292569 0.850963
O O3 0.998902 0.594052 0.500000
O O4 0.353330 0.564126 0.401842
O O5 0.166439 0.629379 0.367541
O O6 0.853923 0.563212 0.363269
O O7 0.000000 0.940101 0.250000
O O8 0.000000 0.000000 0.341785
O O9 0.500000 0.342752 0.250000
O O10 0.000000 0.332544 0.250000
#
# Coordination Sequence:
#
# PCOD9496371 Si02
#       4
#     8  16  16  16
#     4   8  16  30  53  82 107 142 192 238 274 322
#     4  12  24  37  57  87 119 149 184 232 291 343
#     4  11  24  42  62  82 108 148 195 237 281 338
#     4  10  19  35  58  82 112 150 194 236 278 334
#
# _framework density 19.556605999999999
#
# number of rings (size 3 to 8) (size 9 to 14) (size 15 to 20)
#    0.000    1.429    0.000    6.857    0.000    5.714 
#    0.000    0.714    0.000    0.000    0.000   16.000 
#    0.000    0.000    0.000    0.000    0.000    0.000 
#
# Total GULP energy -156018.964713 kJ/mol
# GULP energy per Si atom -5572.105883 kJ/mol
# Density = 1.951209 g / cm^3
# Si number density = 19.556606 Si / 1000 Ang^3
#
#
#
# Elastic Constant Matrix: (Units=GPa)
#
#
# Indices 1 2 3 4 5 6 
#
# 1 126.1224 18.9086 8.6970 0.0000 0.0000 0.0000
# 2 18.9086 158.9264 38.3516 0.0000 0.0000 0.0000
# 3 8.6970 38.3516 78.4018 0.0000 0.0000 0.0000
# 4 0.0000 0.0000 0.0000 -11.8199 0.0000 0.0000
# 5 0.0000 0.0000 0.0000 0.0000 21.0260 0.0000
# 6 0.0000 0.0000 0.0000 0.0000 0.0000 48.9884
#
#
#
# Elastic Compliance Matrix: (Units=1/GPa)
#
#
# Indices 1 2 3 4 5 6 
#
# 1 0.008089 -0.000846 -0.000484 0.000000 0.000000 0.000000
# 2 -0.000846 0.007223 -0.003439 0.000000 0.000000 0.000000
# 3 -0.000484 -0.003439 0.014491 0.000000 0.000000 0.000000
# 4 0.000000 0.000000 0.000000 -0.084603 0.000000 0.000000
# 5 0.000000 0.000000 0.000000 0.000000 0.047560 0.000000
# 6 0.000000 0.000000 0.000000 0.000000 0.000000 0.020413
#
#
# Mechanical properties :
#
#
# Convention : Reuss Voigt Hill
#
# Bulk Modulus (GPa) = 49.34538 55.04055 52.19296
# Shear Modulus (GPa) = 169.69165 31.47178 100.58171
#
# Velocity S-wave (km/s) = 9.32512 4.01592 7.17933
# Velocity P-wave (km/s) = 11.88405 7.05045 9.77086
#
# Compressibility (1/GPa) = 0.02026532
#
# Stress axis : x y z
#
# Youngs Moduli (GPa) = 123.62553 138.45020 69.00894
#
# Poissons Ratio (x) = 0.11709 0.03337
# Poissons Ratio (y) = 0.10455 0.23735
# Poissons Ratio (z) = 0.05979 0.47618
#
# Static dielectric constant tensor:
#      x y z
#    x 1.680290 0.000000 0.000000 
#    y 0.000000 1.847990 0.000000 
#    z 0.000000 0.000000 1.674410 
# 
# From -- ./inp_files/22503.got.cif
#   From: 2010.05.17/outbox.cif.g08.bks.cpg/sg66_12_cif.got.tgz:22503.got - 2010.06.03 17:51:23.
