data_PCOD9496495
_publ_section_title
;
Structure prediction by ZEFSAII (Michael W. Deem and Ramdas Pophale) SiO2 
 PCOD9496495
Probable space group: C C C M
;
_chemical_formula_sum "Si O2"
_cell_formula_units_Z 96
_cell_length_a 29.060977
_cell_length_b 10.383445
_cell_length_c 15.431819
_cell_angle_alpha 90.000000
_cell_angle_beta 90.000000
_cell_angle_gamma 90.000000
_cell_volume 4656.598548
_symmetry_space_group_name_H-M "C C C M"
_symmetry_group_IT_number 66
_symmetry_cell_setting 'orthorhombic'
loop_
_space_group_symop_operation_xyz
x,y,z
-x,-y,z
x,-y,1/2-z
-x,y,1/2-z
-x,-y,-z
x,y,-z
-x,y,1/2+z
x,-y,1/2+z
1/2+x,1/2+y,z
1/2-x,1/2-y,z
1/2+x,1/2-y,1/2-z
1/2-x,1/2+y,1/2-z
1/2-x,1/2-y,-z
1/2+x,1/2+y,-z
1/2-x,1/2+y,1/2+z
1/2+x,1/2-y,1/2+z
loop_
_atom_site_type_symbol
_atom_site_label
_atom_site_fract_x
_atom_site_fract_y
_atom_site_fract_z
Si Si1 0.841090 0.508969 0.145381
Si Si2 0.398688 0.748888 0.658034
Si Si3 0.256516 0.603989 0.896667
Si Si4 0.502750 0.150189 0.355701
Si Si5 0.147181 0.007253 0.599395
Si Si6 0.903604 0.270895 0.133994
O O1 0.842133 0.500000 0.250000
O O2 0.861846 0.647721 0.122592
O O3 0.789367 0.477695 0.117790
O O4 0.874424 0.397124 0.108995
O O5 0.448968 0.784124 0.620746
O O6 0.381573 0.604866 0.643864
O O7 0.402026 0.768354 0.761370
O O8 0.250000 0.750000 0.861784
O O9 0.302419 0.536205 0.861607
O O10 0.263966 0.617370 0.000000
O O11 0.500000 0.152956 0.250000
O O12 0.456911 0.217470 0.390679
O O13 0.500000 0.000000 0.380479
O O14 0.152998 0.965569 0.500000
O O15 0.120395 0.142205 0.601707
#
# Coordination Sequence:
#
# PCOD9496495 Si02
#       6
#    16  16  16  16  16  16
#     4  10  20  35  59  90 114 139 184 239 288 329
#     4  10  21  36  58  90 118 142 181 239 288 329
#     4  10  21  39  60  79 106 153 201 229 270 345
#     4   9  16  32  60  88 114 145 185 228 274 339
#     4  11  24  40  56  79 115 154 191 234 280 333
#     4  10  19  36  62  86 112 150 187 225 283 340
#
# _framework density 20.615905999999999
#
# number of rings (size 3 to 8) (size 9 to 14) (size 15 to 20)
#    0.000    2.000    3.333    0.500    0.000    3.333 
#    0.000    5.833    0.000    1.000    0.000    0.000 
#    0.000    0.000    0.000    0.000    0.000    0.000 
#
# Total GULP energy -268080.728487 kJ/mol
# GULP energy per Si atom -5585.015177 kJ/mol
# Density = 2.056898 g / cm^3
# Si number density = 20.615906 Si / 1000 Ang^3
#
#
#
# Elastic Constant Matrix: (Units=GPa)
#
#
# Indices 1 2 3 4 5 6 
#
# 1 175.8639 56.0370 5.2772 0.0000 0.0000 0.0000
# 2 56.0370 103.3208 1.0472 0.0000 0.0000 0.0000
# 3 5.2772 1.0472 24.9480 0.0000 0.0000 0.0000
# 4 0.0000 0.0000 0.0000 -8.6155 0.0000 0.0000
# 5 0.0000 0.0000 0.0000 0.0000 1.2896 0.0000
# 6 0.0000 0.0000 0.0000 0.0000 0.0000 31.3612
#
#
#
# Elastic Compliance Matrix: (Units=1/GPa)
#
#
# Indices 1 2 3 4 5 6 
#
# 1 0.006916 -0.003738 -0.001306 0.000000 0.000000 0.000000
# 2 -0.003738 0.011703 0.000299 0.000000 0.000000 0.000000
# 3 -0.001306 0.000299 0.040347 0.000000 0.000000 0.000000
# 4 0.000000 0.000000 0.000000 -0.116069 0.000000 0.000000
# 5 0.000000 0.000000 0.000000 0.000000 0.775405 0.000000
# 6 0.000000 0.000000 0.000000 0.000000 0.000000 0.031887
#
#
# Mechanical properties :
#
#
# Convention : Reuss Voigt Hill
#
# Bulk Modulus (GPa) = 20.21133 47.65061 33.93097
# Shear Modulus (GPa) = 6.44189 20.92515 13.68352
#
# Velocity S-wave (km/s) = 1.76960 3.18936 2.57910
# Velocity P-wave (km/s) = 3.74171 6.06023 5.03621
#
# Compressibility (1/GPa) = 0.04947719
#
# Stress axis : x y z
#
# Youngs Moduli (GPa) = 144.58241 85.44902 24.78492
#
# Poissons Ratio (x) = 0.31941 0.03237
# Poissons Ratio (y) = 0.54045 -0.00742
# Poissons Ratio (z) = 0.18884 -0.02559
#
# Static dielectric constant tensor:
#      x y z
#    x 1.728390 0.000000 0.000000 
#    y 0.000000 1.691650 0.000000 
#    z 0.000000 0.000000 1.794220 
# 
# From -- ./inp_files/47291.got.cif
#   From: 2010.05.17/outbox.cif.g08.bks.cpg/sg66_24_cif.got.tgz:47291.got - 2010.06.03 17:51:23.
