data_PCOD9496346
_publ_section_title
;
Structure prediction by ZEFSAII (Michael W. Deem and Ramdas Pophale) SiO2 
 PCOD9496346
Probable space group: C C C M
;
_chemical_formula_sum "Si O2"
_cell_formula_units_Z 104
_cell_length_a 9.252768
_cell_length_b 21.745166
_cell_length_c 26.977736
_cell_angle_alpha 90.000000
_cell_angle_beta 90.000000
_cell_angle_gamma 90.000000
_cell_volume 5428.000772
_symmetry_space_group_name_H-M "C C C M"
_symmetry_group_IT_number 66
_symmetry_cell_setting 'orthorhombic'
loop_
_space_group_symop_operation_xyz
x,y,z
-x,-y,z
x,-y,1/2-z
-x,y,1/2-z
-x,-y,-z
x,y,-z
-x,y,1/2+z
x,-y,1/2+z
1/2+x,1/2+y,z
1/2-x,1/2-y,z
1/2+x,1/2-y,1/2-z
1/2-x,1/2+y,1/2-z
1/2-x,1/2-y,-z
1/2+x,1/2+y,-z
1/2-x,1/2+y,1/2+z
1/2+x,1/2-y,1/2+z
loop_
_atom_site_type_symbol
_atom_site_label
_atom_site_fract_x
_atom_site_fract_y
_atom_site_fract_z
Si Si1 0.463354 0.629589 0.055458
Si Si2 0.076018 0.262002 0.406176
Si Si3 0.479617 0.591708 0.837312
Si Si4 0.500000 0.000000 0.873385
Si Si5 0.266106 0.483244 0.194109
Si Si6 0.087573 0.227137 0.300375
Si Si7 0.617345 0.105899 0.055831
O O1 0.484179 0.702642 0.065014
O O2 0.522246 0.596158 0.104548
O O3 0.291126 0.615429 0.057626
O O4 0.514412 0.612817 0.000000
O O5 0.250000 0.250000 0.404811
O O6 0.027120 0.262495 0.348901
O O7 0.051969 0.327392 0.431137
O O8 0.621932 0.573237 0.806877
O O9 0.359953 0.539570 0.828481
O O10 0.417491 0.656424 0.818799
O O11 0.626442 0.973430 0.838898
O O12 0.433943 0.945945 0.906700
O O13 0.226881 0.500000 0.250000
O O14 0.250000 0.250000 0.292163
O O15 0.000000 0.234599 0.250000
O O16 0.577964 0.088486 0.000000
#
# Coordination Sequence:
#
# PCOD9496346 Si02
#       7
#    16  16  16   8  16  16  16
#     4   9  16  31  60  89 113 149 199 247 289 349
#     4   8  16  31  54  82 114 150 196 240 281 350
#     4  10  20  41  62  85 120 156 200 246 294 360
#     4  12  24  38  56  92 116 150 206 254 292 356
#     4  11  23  41  62  83 114 163 203 243 299 352
#     4  10  20  36  58  90 121 156 196 245 303 350
#     4  10  19  35  55  83 123 158 189 241 308 354
#
# _framework density 19.159908000000001
#
# number of rings (size 3 to 8) (size 9 to 14) (size 15 to 20)
#    0.000    2.154    1.538    3.692    0.000    1.846 
#    5.538    3.077    0.000    0.000    0.000    3.231 
#    0.000    0.000    0.000    0.000    0.000    0.000 
#
# Total GULP energy -290132.754129 kJ/mol
# GULP energy per Si atom -5579.476041 kJ/mol
# Density = 1.911630 g / cm^3
# Si number density = 19.159908 Si / 1000 Ang^3
#
#
#
# Elastic Constant Matrix: (Units=GPa)
#
#
# Indices 1 2 3 4 5 6 
#
# 1 43.8204 15.9752 20.6967 0.0000 0.0000 0.0000
# 2 15.9752 57.2880 18.8854 0.0000 0.0000 0.0000
# 3 20.6967 18.8854 136.9082 0.0000 0.0000 0.0000
# 4 0.0000 0.0000 0.0000 23.2068 0.0000 0.0000
# 5 0.0000 0.0000 0.0000 0.0000 22.9131 0.0000
# 6 0.0000 0.0000 0.0000 0.0000 0.0000 16.0889
#
#
#
# Elastic Compliance Matrix: (Units=1/GPa)
#
#
# Indices 1 2 3 4 5 6 
#
# 1 0.026636 -0.006391 -0.003145 0.000000 0.000000 0.000000
# 2 -0.006391 0.019821 -0.001768 0.000000 0.000000 0.000000
# 3 -0.003145 -0.001768 0.008023 0.000000 0.000000 0.000000
# 4 0.000000 0.000000 0.000000 0.043091 0.000000 0.000000
# 5 0.000000 0.000000 0.000000 0.000000 0.043643 0.000000
# 6 0.000000 0.000000 0.000000 0.000000 0.000000 0.062155
#
#
# Mechanical properties :
#
#
# Convention : Reuss Voigt Hill
#
# Bulk Modulus (GPa) = 31.37531 38.79235 35.08383
# Shear Modulus (GPa) = 21.13270 24.60571 22.86921
#
# Velocity S-wave (km/s) = 3.32469 3.58750 3.45860
# Velocity P-wave (km/s) = 5.58114 6.11971 5.85662
#
# Compressibility (1/GPa) = 0.03187219
#
# Stress axis : x y z
#
# Youngs Moduli (GPa) = 37.54360 50.45250 124.63413
#
# Poissons Ratio (x) = 0.32243 0.39198
# Poissons Ratio (y) = 0.23993 0.22035
# Poissons Ratio (z) = 0.11808 0.08920
#
# Static dielectric constant tensor:
#      x y z
#    x 1.649620 0.000000 0.000000 
#    y 0.000000 1.663160 0.000000 
#    z 0.000000 0.000000 1.690250 
# 
# From -- ./inp_files/62689.got.cif
#   From: 2010.05.17/outbox.cif.g08.bks.cpg/sg66_32_cif.got.tgz:62689.got - 2010.06.03 17:51:23.
