data_PCOD9496998
_publ_section_title
;
Structure prediction by ZEFSAII (Michael W. Deem and Ramdas Pophale) SiO2 
 PCOD9496998
Probable space group: C C C M
;
_chemical_formula_sum "Si O2"
_cell_formula_units_Z 120
_cell_length_a 25.777377
_cell_length_b 16.077309
_cell_length_c 14.283286
_cell_angle_alpha 90.000000
_cell_angle_beta 90.000000
_cell_angle_gamma 90.000000
_cell_volume 5919.434433
_symmetry_space_group_name_H-M "C C C M"
_symmetry_group_IT_number 66
_symmetry_cell_setting 'orthorhombic'
loop_
_space_group_symop_operation_xyz
x,y,z
-x,-y,z
x,-y,1/2-z
-x,y,1/2-z
-x,-y,-z
x,y,-z
-x,y,1/2+z
x,-y,1/2+z
1/2+x,1/2+y,z
1/2-x,1/2-y,z
1/2+x,1/2-y,1/2-z
1/2-x,1/2+y,1/2-z
1/2-x,1/2-y,-z
1/2+x,1/2+y,-z
1/2-x,1/2+y,1/2+z
1/2+x,1/2-y,1/2+z
loop_
_atom_site_type_symbol
_atom_site_label
_atom_site_fract_x
_atom_site_fract_y
_atom_site_fract_z
Si Si1 0.532754 0.173825 0.888550
Si Si2 0.874088 0.595690 0.276808
Si Si3 0.648828 0.616837 0.392863
Si Si4 0.032330 0.136619 0.612724
Si Si5 0.412948 0.807625 0.606754
Si Si6 0.196784 0.708323 0.109732
Si Si7 0.348586 0.500000 0.750000
Si Si8 0.580460 0.393055 0.610695
O O1 0.573137 0.116205 0.834855
O O2 0.536852 0.268889 0.851816
O O3 0.471473 0.156855 0.878873
O O4 0.544938 0.172714 0.000000
O O5 0.870965 0.500000 0.250000
O O6 0.877264 0.650729 0.183255
O O7 0.826297 0.630432 0.336957
O O8 0.661186 0.596596 0.500000
O O9 0.588225 0.596614 0.373196
O O10 0.656125 0.715271 0.382885
O O11 0.680697 0.562759 0.319524
O O12 0.025930 0.143942 0.500000
O O13 0.979277 0.093219 0.642715
O O14 0.398035 0.826415 0.500000
O O15 0.413784 0.707323 0.615824
O O16 0.250000 0.750000 0.144190
O O17 0.203826 0.688567 0.000000
O O18 0.380381 0.560874 0.679496
O O19 0.586402 0.416712 0.500000
#
# Coordination Sequence:
#
# PCOD9496998 Si02
#       8
#    16  16  16  16  16  16   8  16
#     4   9  17  33  56  81 118 164 204 237 276 334
#     4  12  23  35  58  96 124 148 189 253 303 351
#     4  10  20  35  55  79 104 140 189 233 285 346
#     4   8  15  30  50  69 100 147 194 231 262 317
#     4   9  20  37  55  79 122 176 207 224 272 357
#     4  10  22  44  70  88 108 146 196 249 307 366
#     4  12  22  31  48  82 116 150 180 242 293 330
#     4   9  19  33  47  70 109 156 198 230 266 327
#
# _framework density 20.272207000000002
#
# number of rings (size 3 to 8) (size 9 to 14) (size 15 to 20)
#    0.000    2.267    1.333    3.600    0.000    3.733 
#    1.200    3.333    0.000    0.400    0.000    0.000 
#    0.000    0.000    0.000    0.000    0.000    0.000 
#
# Total GULP energy -334965.510764 kJ/mol
# GULP energy per Si atom -5582.758513 kJ/mol
# Density = 2.022607 g / cm^3
# Si number density = 20.272207 Si / 1000 Ang^3
#
#
#
# Elastic Constant Matrix: (Units=GPa)
#
#
# Indices 1 2 3 4 5 6 
#
# 1 33.0091 10.6041 14.3125 0.0000 0.0000 0.0000
# 2 10.6041 85.9618 40.3764 0.0000 0.0000 0.0000
# 3 14.3125 40.3764 95.6529 0.0000 0.0000 0.0000
# 4 0.0000 0.0000 0.0000 105.8644 0.0000 0.0000
# 5 0.0000 0.0000 0.0000 0.0000 15.5966 0.0000
# 6 0.0000 0.0000 0.0000 0.0000 0.0000 7.1487
#
#
#
# Elastic Compliance Matrix: (Units=1/GPa)
#
#
# Indices 1 2 3 4 5 6 
#
# 1 0.032717 -0.002166 -0.003981 0.000000 0.000000 0.000000
# 2 -0.002166 0.014653 -0.005861 0.000000 0.000000 0.000000
# 3 -0.003981 -0.005861 0.013524 0.000000 0.000000 0.000000
# 4 0.000000 0.000000 0.000000 0.009446 0.000000 0.000000
# 5 0.000000 0.000000 0.000000 0.000000 0.064117 0.000000
# 6 0.000000 0.000000 0.000000 0.000000 0.000000 0.139886
#
#
# Mechanical properties :
#
#
# Convention : Reuss Voigt Hill
#
# Bulk Modulus (GPa) = 27.11670 38.35663 32.73667
# Shear Modulus (GPa) = 16.09519 35.67732 25.88626
#
# Velocity S-wave (km/s) = 2.82077 4.19968 3.57730
# Velocity P-wave (km/s) = 4.90044 6.51754 5.76596
#
# Compressibility (1/GPa) = 0.03687764
#
# Stress axis : x y z
#
# Youngs Moduli (GPa) = 30.56545 68.24393 73.94108
#
# Poissons Ratio (x) = 0.14781 0.29437
# Poissons Ratio (y) = 0.06620 0.43339
# Poissons Ratio (z) = 0.12168 0.40000
#
# Static dielectric constant tensor:
#      x y z
#    x 1.754550 0.000000 0.000000 
#    y 0.000000 1.732300 0.000000 
#    z 0.000000 0.000000 1.757550 
# 
# From -- ./inp_files/34008.got.cif
#   From: 2010.05.17/outbox.cif.g08.bks.cpg/sg66_18_cif.got.tgz:34008.got - 2010.06.03 17:51:23.
