data_PCOD9496463
_publ_section_title
;
Structure prediction by ZEFSAII (Michael W. Deem and Ramdas Pophale) SiO2 
 PCOD9496463
Probable space group: C C C M
;
_chemical_formula_sum "Si O2"
_cell_formula_units_Z 104
_cell_length_a 28.758942
_cell_length_b 21.296175
_cell_length_c 8.986287
_cell_angle_alpha 90.000000
_cell_angle_beta 90.000000
_cell_angle_gamma 90.000000
_cell_volume 5503.700553
_symmetry_space_group_name_H-M "C C C M"
_symmetry_group_IT_number 66
_symmetry_cell_setting 'orthorhombic'
loop_
_space_group_symop_operation_xyz
x,y,z
-x,-y,z
x,-y,1/2-z
-x,y,1/2-z
-x,-y,-z
x,y,-z
-x,y,1/2+z
x,-y,1/2+z
1/2+x,1/2+y,z
1/2-x,1/2-y,z
1/2+x,1/2-y,1/2-z
1/2-x,1/2+y,1/2-z
1/2-x,1/2-y,-z
1/2+x,1/2+y,-z
1/2-x,1/2+y,1/2+z
1/2+x,1/2-y,1/2+z
loop_
_atom_site_type_symbol
_atom_site_label
_atom_site_fract_x
_atom_site_fract_y
_atom_site_fract_z
Si Si1 0.952299 0.893835 0.331995
Si Si2 0.948947 0.566681 0.819642
Si Si3 0.689351 0.604706 0.166885
Si Si4 0.617917 0.500000 0.750000
Si Si5 0.294236 0.067206 0.820505
Si Si6 0.871472 0.653996 0.319834
Si Si7 0.375981 0.300345 0.678373
O O1 0.964837 0.877443 0.500000
O O2 0.916964 0.952662 0.332889
O O3 0.922335 0.836224 0.264466
O O4 0.000000 0.908369 0.250000
O O5 0.933062 0.500000 0.750000
O O6 0.914468 0.619423 0.759050
O O7 0.000000 0.577353 0.750000
O O8 0.950360 0.563818 0.000000
O O9 0.653047 0.546810 0.166554
O O10 0.740076 0.581107 0.213249
O O11 0.667494 0.658628 0.267854
O O12 0.693429 0.629697 0.000000
O O13 0.326019 0.120016 0.745350
O O14 0.306675 0.000000 0.750000
O O15 0.300429 0.065922 0.000000
O O16 0.873678 0.647332 0.500000
O O17 0.872449 0.727724 0.281511
O O18 0.377895 0.304355 0.500000
#
# Coordination Sequence:
#
# PCOD9496463 Si02
#       7
#    16  16  16   8  16  16  16
#     4  10  21  36  56  83 115 150 193 241 289 345
#     4  11  22  39  63  91 120 153 192 240 293 352
#     4  10  21  37  60  86 114 151 197 244 291 349
#     4  10  19  36  58  84 116 156 195 238 294 348
#     4  11  23  39  60  90 120 152 194 243 298 353
#     4  11  23  41  61  85 118 157 198 242 295 353
#     4   9  22  41  59  80 113 156 198 240 292 355
#
# _framework density 18.896377999999999
#
# number of rings (size 3 to 8) (size 9 to 14) (size 15 to 20)
#    0.000    1.692    0.769    3.923    0.000    8.000 
#    0.000    4.615    0.000    0.000    0.000    0.000 
#    0.000    0.000    0.000    0.000    0.000    0.000 
#
# Total GULP energy -290174.279753 kJ/mol
# GULP energy per Si atom -5580.274611 kJ/mol
# Density = 1.885337 g / cm^3
# Si number density = 18.896378 Si / 1000 Ang^3
#
#
#
# Elastic Constant Matrix: (Units=GPa)
#
#
# Indices 1 2 3 4 5 6 
#
# 1 104.1649 68.6278 40.9565 0.0000 0.0000 0.0000
# 2 68.6278 152.2971 50.3617 0.0000 0.0000 0.0000
# 3 40.9565 50.3617 82.9346 0.0000 0.0000 0.0000
# 4 0.0000 0.0000 0.0000 22.9716 0.0000 0.0000
# 5 0.0000 0.0000 0.0000 0.0000 23.1711 0.0000
# 6 0.0000 0.0000 0.0000 0.0000 0.0000 16.1811
#
#
#
# Elastic Compliance Matrix: (Units=1/GPa)
#
#
# Indices 1 2 3 4 5 6 
#
# 1 0.014661 -0.005271 -0.004040 0.000000 0.000000 0.000000
# 2 -0.005271 0.010111 -0.003537 0.000000 0.000000 0.000000
# 3 -0.004040 -0.003537 0.016200 0.000000 0.000000 0.000000
# 4 0.000000 0.000000 0.000000 0.043532 0.000000 0.000000
# 5 0.000000 0.000000 0.000000 0.000000 0.043157 0.000000
# 6 0.000000 0.000000 0.000000 0.000000 0.000000 0.061800
#
#
# Mechanical properties :
#
#
# Convention : Reuss Voigt Hill
#
# Bulk Modulus (GPa) = 65.45422 73.25429 69.35426
# Shear Modulus (GPa) = 22.70160 24.42812 23.56486
#
# Velocity S-wave (km/s) = 3.46984 3.59937 3.53520
# Velocity P-wave (km/s) = 7.12508 7.49162 7.31065
#
# Compressibility (1/GPa) = 0.01527785
#
# Stress axis : x y z
#
# Youngs Moduli (GPa) = 68.20798 98.90465 61.72709
#
# Poissons Ratio (x) = 0.52130 0.24935
# Poissons Ratio (y) = 0.35950 0.21832
# Poissons Ratio (z) = 0.27553 0.34981
#
# Static dielectric constant tensor:
#      x y z
#    x 1.658880 0.000000 0.000000 
#    y 0.000000 1.645270 0.000000 
#    z 0.000000 0.000000 1.686680 
# 
# From -- ./inp_files/8320.got.cif
#   From: 2010.05.17/outbox.cif.g08.bks.cpg/sg66_5_cif.got.tgz:8320.got - 2010.06.03 17:51:23.
