data_PCOD9496061
_publ_section_title
;
Structure prediction by ZEFSAII (Michael W. Deem and Ramdas Pophale) SiO2 
 PCOD9496061
Probable space group: C C C M
;
_chemical_formula_sum "Si O2"
_cell_formula_units_Z 116
_cell_length_a 25.723170
_cell_length_b 17.338220
_cell_length_c 13.755892
_cell_angle_alpha 90.000000
_cell_angle_beta 90.000000
_cell_angle_gamma 90.000000
_cell_volume 6135.045029
_symmetry_space_group_name_H-M "C C C M"
_symmetry_group_IT_number 66
_symmetry_cell_setting 'orthorhombic'
loop_
_space_group_symop_operation_xyz
x,y,z
-x,-y,z
x,-y,1/2-z
-x,y,1/2-z
-x,-y,-z
x,y,-z
-x,y,1/2+z
x,-y,1/2+z
1/2+x,1/2+y,z
1/2-x,1/2-y,z
1/2+x,1/2-y,1/2-z
1/2-x,1/2+y,1/2-z
1/2-x,1/2-y,-z
1/2+x,1/2+y,-z
1/2-x,1/2+y,1/2+z
1/2+x,1/2-y,1/2+z
loop_
_atom_site_type_symbol
_atom_site_label
_atom_site_fract_x
_atom_site_fract_y
_atom_site_fract_z
Si Si1 0.224390 0.052498 0.113127
Si Si2 0.068002 0.102125 0.390775
Si Si3 0.912686 0.706668 0.792292
Si Si4 0.753185 0.629212 0.614202
Si Si5 0.000000 0.000000 0.250000
Si Si6 0.478129 0.225689 0.392586
Si Si7 0.171675 0.588120 0.725762
Si Si8 0.160604 0.848957 0.236874
O O1 0.278982 0.085998 0.153369
O O2 0.180673 0.091830 0.180657
O O3 0.231718 0.959866 0.122483
O O4 0.216080 0.070103 0.000000
O O5 0.071231 0.071479 0.500000
O O6 0.039999 0.185209 0.393332
O O7 0.124062 0.111703 0.343264
O O8 0.035273 0.050424 0.319436
O O9 0.941157 0.689720 0.689308
O O10 0.875822 0.635575 0.817137
O O11 0.874661 0.780649 0.781276
O O12 0.961444 0.721592 0.862682
O O13 0.757442 0.648238 0.500000
O O14 0.806776 0.627062 0.674523
O O15 0.710995 0.677841 0.675192
O O16 0.470161 0.193307 0.500000
O O17 0.157964 0.500000 0.750000
#
# Coordination Sequence:
#
# PCOD9496061 Si02
#       8
#    16  16  16  16   4  16  16  16
#     4   9  19  34  51  76 112 148 177 213 262 316
#     4  10  21  36  52  73 105 143 179 221 269 312
#     4  10  20  35  57  80  99 136 177 221 268 319
#     4   9  18  33  51  74 109 146 175 209 259 313
#     4  12  22  32  52  78 108 136 184 240 260 300
#     4   9  20  40  56  72 104 139 172 216 272 322
#     4   9  19  36  56  77 107 137 170 212 270 331
#     4  10  19  33  51  76 105 139 182 224 256 310
#
# _framework density 18.907767
#
# number of rings (size 3 to 8) (size 9 to 14) (size 15 to 20)
#    0.000    2.483    0.000    3.517    1.931    4.414 
#    0.000    3.448    0.000    0.828    0.000    0.000 
#    0.000    0.000    0.000    0.000    0.000    0.000 
#
# Total GULP energy -323562.510630 kJ/mol
# GULP energy per Si atom -5578.663976 kJ/mol
# Density = 1.886473 g / cm^3
# Si number density = 18.907767 Si / 1000 Ang^3
#
#
#
# Elastic Constant Matrix: (Units=GPa)
#
#
# Indices 1 2 3 4 5 6 
#
# 1 94.8108 26.3800 20.5184 0.0000 0.0000 0.0000
# 2 26.3800 25.8378 12.7767 0.0000 0.0000 0.0000
# 3 20.5184 12.7767 105.2792 0.0000 0.0000 0.0000
# 4 0.0000 0.0000 0.0000 13.3145 0.0000 0.0000
# 5 0.0000 0.0000 0.0000 0.0000 -0.3431 0.0000
# 6 0.0000 0.0000 0.0000 0.0000 0.0000 14.9702
#
#
#
# Elastic Compliance Matrix: (Units=1/GPa)
#
#
# Indices 1 2 3 4 5 6 
#
# 1 0.014856 -0.014613 -0.001122 0.000000 0.000000 0.000000
# 2 -0.014613 0.055548 -0.003893 0.000000 0.000000 0.000000
# 3 -0.001122 -0.003893 0.010190 0.000000 0.000000 0.000000
# 4 0.000000 0.000000 0.000000 0.075106 0.000000 0.000000
# 5 0.000000 0.000000 0.000000 0.000000 -2.914664 0.000000
# 6 0.000000 0.000000 0.000000 0.000000 0.000000 0.066799
#
#
# Mechanical properties :
#
#
# Convention : Reuss Voigt Hill
#
# Bulk Modulus (GPa) = 24.19131 38.36423 31.27777
# Shear Modulus (GPa) = -1.89456 16.67183 7.38863
#
# Velocity S-wave (km/s) = -1.00209 2.97264 1.97894
# Velocity P-wave (km/s) = 3.38869 5.66713 4.66903
#
# Compressibility (1/GPa) = 0.04133715
#
# Stress axis : x y z
#
# Youngs Moduli (GPa) = 67.31275 18.00248 98.13826
#
# Poissons Ratio (x) = 0.26307 0.11010
# Poissons Ratio (y) = 0.98364 0.38208
# Poissons Ratio (z) = 0.07552 0.07009
#
# Static dielectric constant tensor:
#      x y z
#    x 1.423240 0.000000 0.000000 
#    y 0.000000 1.651910 0.000000 
#    z 0.000000 0.000000 1.665480 
# 
# From -- ./inp_files/32655.got.cif
#   From: 2010.05.17/outbox.cif.g08.bks.cpg/sg66_17_cif.got.tgz:32655.got - 2010.06.03 17:51:23.
