data_PCOD9496814
_publ_section_title
;
Structure prediction by ZEFSAII (Michael W. Deem and Ramdas Pophale) SiO2 
 PCOD9496814
Probable space group: C C C M
;
_chemical_formula_sum "Si O2"
_cell_formula_units_Z 80
_cell_length_a 11.815278
_cell_length_b 33.734394
_cell_length_c 11.112213
_cell_angle_alpha 90.000000
_cell_angle_beta 90.000000
_cell_angle_gamma 90.000000
_cell_volume 4429.119673
_symmetry_space_group_name_H-M "C C C M"
_symmetry_group_IT_number 66
_symmetry_cell_setting 'orthorhombic'
loop_
_space_group_symop_operation_xyz
x,y,z
-x,-y,z
x,-y,1/2-z
-x,y,1/2-z
-x,-y,-z
x,y,-z
-x,y,1/2+z
x,-y,1/2+z
1/2+x,1/2+y,z
1/2-x,1/2-y,z
1/2+x,1/2-y,1/2-z
1/2-x,1/2+y,1/2-z
1/2-x,1/2-y,-z
1/2+x,1/2+y,-z
1/2-x,1/2+y,1/2+z
1/2+x,1/2-y,1/2+z
loop_
_atom_site_type_symbol
_atom_site_label
_atom_site_fract_x
_atom_site_fract_y
_atom_site_fract_z
Si Si1 0.807274 0.191171 0.865857
Si Si2 0.958250 0.308990 0.131565
Si Si3 0.377157 0.732908 0.629297
Si Si4 0.922027 0.110025 0.133968
Si Si5 0.128684 0.017635 0.630269
O O1 0.674393 0.200723 0.854431
O O2 0.875388 0.208442 0.753021
O O3 0.826922 0.143982 0.863411
O O4 0.842506 0.205428 0.000000
O O5 0.000000 0.331899 0.250000
O O6 0.036061 0.269588 0.130408
O O7 0.972036 0.328084 0.000000
O O8 0.394654 0.711200 0.500000
O O9 0.250000 0.750000 0.624721
O O10 0.878819 0.065009 0.141282
O O11 0.000000 0.116605 0.250000
O O12 0.977308 0.113578 0.000000
O O13 0.179542 0.007477 0.500000
O O14 0.183530 0.000000 0.750000
O O15 0.000000 0.000000 0.627590
#
# Coordination Sequence:
#
# PCOD9496814 Si02
#       5
#    16  16  16  16  16
#     4  10  22  37  52  72  99 131 168 209 255 304
#     4  10  20  35  54  72  94 126 165 210 259 302
#     4  10  20  35  54  75  96 125 170 218 260 298
#     4  10  20  34  50  73 104 137 170 203 244 298
#     4   9  15  26  48  73  98 130 163 194 236 291
#
# _framework density 18.062280000000001
#
# number of rings (size 3 to 8) (size 9 to 14) (size 15 to 20)
#    0.000    2.200    4.000    0.000    0.000    2.800 
#    0.000    4.000    0.000    0.000    0.000    0.000 
#    0.000    0.800    0.000   10.000    0.000    0.000 
#
# Total GULP energy -222811.412340 kJ/mol
# GULP energy per Si atom -5570.285308 kJ/mol
# Density = 1.802117 g / cm^3
# Si number density = 18.062280 Si / 1000 Ang^3
#
#
#
# Elastic Constant Matrix: (Units=GPa)
#
#
# Indices 1 2 3 4 5 6 
#
# 1 81.8869 26.3671 34.5468 0.0000 0.0000 0.0000
# 2 26.3671 74.8069 29.5401 0.0000 0.0000 0.0000
# 3 34.5468 29.5401 214.4795 0.0000 0.0000 0.0000
# 4 0.0000 0.0000 0.0000 24.0876 0.0000 0.0000
# 5 0.0000 0.0000 0.0000 0.0000 0.3355 0.0000
# 6 0.0000 0.0000 0.0000 0.0000 0.0000 6.8213
#
#
#
# Elastic Compliance Matrix: (Units=1/GPa)
#
#
# Indices 1 2 3 4 5 6 
#
# 1 0.014343 -0.004381 -0.001707 0.000000 0.000000 0.000000
# 2 -0.004381 0.015475 -0.001426 0.000000 0.000000 0.000000
# 3 -0.001707 -0.001426 0.005134 0.000000 0.000000 0.000000
# 4 0.000000 0.000000 0.000000 0.041515 0.000000 0.000000
# 5 0.000000 0.000000 0.000000 0.000000 2.980895 0.000000
# 6 0.000000 0.000000 0.000000 0.000000 0.000000 0.146600
#
#
# Mechanical properties :
#
#
# Convention : Reuss Voigt Hill
#
# Bulk Modulus (GPa) = 50.19102 61.34238 55.76670
# Shear Modulus (GPa) = 1.55008 24.96347 13.25678
#
# Velocity S-wave (km/s) = 0.92739 3.72166 2.71209
# Velocity P-wave (km/s) = 5.38468 7.24590 6.38349
#
# Compressibility (1/GPa) = 0.01992388
#
# Stress axis : x y z
#
# Youngs Moduli (GPa) = 69.72129 64.62024 194.79049
#
# Poissons Ratio (x) = 0.28313 0.33247
# Poissons Ratio (y) = 0.30548 0.27770
# Poissons Ratio (z) = 0.11900 0.09213
#
# Static dielectric constant tensor:
#      x y z
#    x 1.607660 0.000000 0.000000 
#    y 0.000000 1.605310 0.000000 
#    z 0.000000 0.000000 1.772470 
# 
# From -- ./inp_files/14981.got.cif
#   From: 2010.05.17/outbox.cif.g08.bks.cpg/sg66_8_cif.got.tgz:14981.got - 2010.06.03 17:51:23.
