data_PCOD9496301
_publ_section_title
;
Structure prediction by ZEFSAII (Michael W. Deem and Ramdas Pophale) SiO2 
 PCOD9496301
Probable space group: C C C M
;
_chemical_formula_sum "Si O2"
_cell_formula_units_Z 96
_cell_length_a 30.236998
_cell_length_b 19.219651
_cell_length_c 8.404688
_cell_angle_alpha 90.000000
_cell_angle_beta 90.000000
_cell_angle_gamma 90.000000
_cell_volume 4884.338616
_symmetry_space_group_name_H-M "C C C M"
_symmetry_group_IT_number 66
_symmetry_cell_setting 'orthorhombic'
loop_
_space_group_symop_operation_xyz
x,y,z
-x,-y,z
x,-y,1/2-z
-x,y,1/2-z
-x,-y,-z
x,y,-z
-x,y,1/2+z
x,-y,1/2+z
1/2+x,1/2+y,z
1/2-x,1/2-y,z
1/2+x,1/2-y,1/2-z
1/2-x,1/2+y,1/2-z
1/2-x,1/2-y,-z
1/2+x,1/2+y,-z
1/2-x,1/2+y,1/2+z
1/2+x,1/2-y,1/2+z
loop_
_atom_site_type_symbol
_atom_site_label
_atom_site_fract_x
_atom_site_fract_y
_atom_site_fract_z
Si Si1 0.953977 0.283110 0.683193
Si Si2 0.950807 0.921814 0.811236
Si Si3 0.118386 0.190465 0.683582
Si Si4 0.201715 0.726946 0.691533
Si Si5 0.333415 0.926038 0.692972
Si Si6 0.066267 0.425669 0.312496
O O1 0.947170 0.263208 0.500000
O O2 0.914516 0.255299 0.790529
O O3 0.953780 0.365432 0.704430
O O4 0.000000 0.255737 0.750000
O O5 0.910547 0.871870 0.759299
O O6 0.000000 0.901229 0.750000
O O7 0.942904 0.000000 0.750000
O O8 0.953112 0.922128 0.000000
O O9 0.124997 0.174343 0.500000
O O10 0.164334 0.217937 0.755418
O O11 0.201829 0.727968 0.500000
O O12 0.250000 0.750000 0.749772
O O13 0.190588 0.646673 0.735660
O O14 0.338955 0.927936 0.500000
O O15 0.381071 0.923142 0.778060
O O16 0.312862 0.000000 0.750000
O O17 0.051047 0.500000 0.250000
O O18 0.057640 0.415770 0.500000
#
# Coordination Sequence:
#
# PCOD9496301 Si02
#       6
#    16  16  16  16  16  16
#     4  12  24  39  57  83 117 156 200 247 297 352
#     4  11  22  40  65  95 130 167 209 255 308 376
#     4  12  24  40  62  90 122 160 203 252 307 365
#     4  10  22  41  64  90 121 161 206 258 317 373
#     4  10  19  34  59  86 116 154 199 246 298 359
#     4  11  21  35  55  81 113 153 196 242 289 344
#
# _framework density 19.654658000000001
#
# number of rings (size 3 to 8) (size 9 to 14) (size 15 to 20)
#    0.000    1.000    1.667    8.500    0.000    1.333 
#    0.000    2.500    0.000    2.000    0.000    0.000 
#    0.000    0.000    0.000    0.000    0.000    0.000 
#
# Total GULP energy -268139.052669 kJ/mol
# GULP energy per Si atom -5586.230264 kJ/mol
# Density = 1.960992 g / cm^3
# Si number density = 19.654658 Si / 1000 Ang^3
#
#
#
# Elastic Constant Matrix: (Units=GPa)
#
#
# Indices 1 2 3 4 5 6 
#
# 1 136.8322 58.3935 17.5585 0.0000 0.0000 0.0000
# 2 58.3935 147.3266 26.1587 0.0000 0.0000 0.0000
# 3 17.5585 26.1587 88.1803 0.0000 0.0000 0.0000
# 4 0.0000 0.0000 0.0000 32.4122 0.0000 0.0000
# 5 0.0000 0.0000 0.0000 0.0000 23.5650 0.0000
# 6 0.0000 0.0000 0.0000 0.0000 0.0000 43.7337
#
#
#
# Elastic Compliance Matrix: (Units=1/GPa)
#
#
# Indices 1 2 3 4 5 6 
#
# 1 0.008844 -0.003370 -0.000761 0.000000 0.000000 0.000000
# 2 -0.003370 0.008449 -0.001835 0.000000 0.000000 0.000000
# 3 -0.000761 -0.001835 0.012036 0.000000 0.000000 0.000000
# 4 0.000000 0.000000 0.000000 0.030853 0.000000 0.000000
# 5 0.000000 0.000000 0.000000 0.000000 0.042436 0.000000
# 6 0.000000 0.000000 0.000000 0.000000 0.000000 0.022866
#
#
# Mechanical properties :
#
#
# Convention : Reuss Voigt Hill
#
# Bulk Modulus (GPa) = 57.48414 64.06227 60.77321
# Shear Modulus (GPa) = 34.91217 37.95741 36.43479
#
# Velocity S-wave (km/s) = 4.21917 4.39933 4.31019
# Velocity P-wave (km/s) = 7.28325 7.64658 7.46712
#
# Compressibility (1/GPa) = 0.01739610
#
# Stress axis : x y z
#
# Youngs Moduli (GPa) = 113.06875 118.35234 83.08092
#
# Poissons Ratio (x) = 0.39888 0.06325
# Poissons Ratio (y) = 0.38107 0.15249
# Poissons Ratio (z) = 0.08608 0.21723
#
# Static dielectric constant tensor:
#      x y z
#    x 1.636810 0.000000 0.000000 
#    y 0.000000 1.738830 0.000000 
#    z 0.000000 0.000000 1.664040 
# 
# From -- ./inp_files/10247.got.cif
#   From: 2010.05.17/outbox.cif.g08.bks.cpg/sg66_6_cif.got.tgz:10247.got - 2010.06.03 17:51:23.
