data_PCOD9496257
_publ_section_title
;
Structure prediction by ZEFSAII (Michael W. Deem and Ramdas Pophale) SiO2 
 PCOD9496257
Probable space group: C C C M
;
_chemical_formula_sum "Si O2"
_cell_formula_units_Z 88
_cell_length_a 15.291975
_cell_length_b 17.357439
_cell_length_c 18.607458
_cell_angle_alpha 90.000000
_cell_angle_beta 90.000000
_cell_angle_gamma 90.000000
_cell_volume 4938.968706
_symmetry_space_group_name_H-M "C C C M"
_symmetry_group_IT_number 66
_symmetry_cell_setting 'orthorhombic'
loop_
_space_group_symop_operation_xyz
x,y,z
-x,-y,z
x,-y,1/2-z
-x,y,1/2-z
-x,-y,-z
x,y,-z
-x,y,1/2+z
x,-y,1/2+z
1/2+x,1/2+y,z
1/2-x,1/2-y,z
1/2+x,1/2-y,1/2-z
1/2-x,1/2+y,1/2-z
1/2-x,1/2-y,-z
1/2+x,1/2+y,-z
1/2-x,1/2+y,1/2+z
1/2+x,1/2-y,1/2+z
loop_
_atom_site_type_symbol
_atom_site_label
_atom_site_fract_x
_atom_site_fract_y
_atom_site_fract_z
Si Si1 0.826023 0.685820 0.917730
Si Si2 0.705393 0.449006 0.416150
Si Si3 0.586272 0.257879 0.286780
Si Si4 0.834923 0.119359 0.087166
Si Si5 0.474835 0.587872 0.352292
Si Si6 0.250000 0.750000 0.182104
O O1 0.750000 0.750000 0.920768
O O2 0.776687 0.610411 0.886293
O O3 0.897124 0.719444 0.863861
O O4 0.856875 0.674018 0.000000
O O5 0.725304 0.450922 0.500000
O O6 0.703418 0.536189 0.389845
O O7 0.605395 0.421402 0.407579
O O8 0.500000 0.225967 0.250000
O O9 0.568450 0.349869 0.298121
O O10 0.668054 0.240876 0.235768
O O11 0.778295 0.181625 0.129046
O O12 0.936281 0.121548 0.113421
O O13 0.832435 0.125956 0.000000
O O14 0.500000 0.500000 0.328899
#
# Coordination Sequence:
#
# PCOD9496257 Si02
#       6
#    16  16  16  16  16   8
#     4  10  19  34  60  85 112 153 197 238 284 337
#     4   9  17  33  58  90 119 146 191 251 296 344
#     4  12  23  39  54  85 122 158 193 238 285 349
#     4  10  21  36  57  86 120 157 195 238 298 362
#     4  10  19  34  56  87 121 152 186 235 306 365
#     4  12  23  40  55  80 120 166 198 238 293 356
#
# _framework density 17.817485000000001
#
# number of rings (size 3 to 8) (size 9 to 14) (size 15 to 20)
#    0.000    1.636    4.545    0.818    0.000    3.273 
#    0.000    2.727    0.000    2.182    0.000    3.818 
#    0.000    0.000    0.000    0.000    0.000    0.000 
#
# Total GULP energy -245059.621894 kJ/mol
# GULP energy per Si atom -5569.536861 kJ/mol
# Density = 1.777693 g / cm^3
# Si number density = 17.817485 Si / 1000 Ang^3
#
#
#
# Elastic Constant Matrix: (Units=GPa)
#
#
# Indices 1 2 3 4 5 6 
#
# 1 109.4299 56.8973 53.2732 0.0000 0.0000 0.0000
# 2 56.8973 99.8292 38.3921 0.0000 0.0000 0.0000
# 3 53.2732 38.3921 79.4288 0.0000 0.0000 0.0000
# 4 0.0000 0.0000 0.0000 -12.3720 0.0000 0.0000
# 5 0.0000 0.0000 0.0000 0.0000 27.5726 0.0000
# 6 0.0000 0.0000 0.0000 0.0000 0.0000 35.3399
#
#
#
# Elastic Compliance Matrix: (Units=1/GPa)
#
#
# Indices 1 2 3 4 5 6 
#
# 1 0.016191 -0.006205 -0.007860 0.000000 0.000000 0.000000
# 2 -0.006205 0.014682 -0.002935 0.000000 0.000000 0.000000
# 3 -0.007860 -0.002935 0.019280 0.000000 0.000000 0.000000
# 4 0.000000 0.000000 0.000000 -0.080828 0.000000 0.000000
# 5 0.000000 0.000000 0.000000 0.000000 0.036268 0.000000
# 6 0.000000 0.000000 0.000000 0.000000 0.000000 0.028297
#
#
# Mechanical properties :
#
#
# Convention : Reuss Voigt Hill
#
# Bulk Modulus (GPa) = 61.90681 65.09035 63.49858
# Shear Modulus (GPa) = 68.23522 19.44977 43.84249
#
# Velocity S-wave (km/s) = 6.19515 3.30754 4.96587
# Velocity P-wave (km/s) = 9.27327 7.15524 8.28224
#
# Compressibility (1/GPa) = 0.01615331
#
# Stress axis : x y z
#
# Youngs Moduli (GPa) = 61.76203 68.10836 51.86629
#
# Poissons Ratio (x) = 0.42263 0.40768
# Poissons Ratio (y) = 0.38325 0.15222
# Poissons Ratio (z) = 0.48546 0.19989
#
# Static dielectric constant tensor:
#      x y z
#    x 1.596270 0.000000 0.000000 
#    y 0.000000 1.660510 0.000000 
#    z 0.000000 0.000000 1.649070 
# 
# From -- ./inp_files/40361.got.cif
#   From: 2010.05.17/outbox.cif.g08.bks.cpg/sg66_21_cif.got.tgz:40361.got - 2010.06.03 17:51:23.
