data_PCOD9496768
_publ_section_title
;
Structure prediction by ZEFSAII (Michael W. Deem and Ramdas Pophale) SiO2 
 PCOD9496768
Probable space group: C C C M
;
_chemical_formula_sum "Si O2"
_cell_formula_units_Z 116
_cell_length_a 9.730871
_cell_length_b 23.284913
_cell_length_c 27.067517
_cell_angle_alpha 90.000000
_cell_angle_beta 90.000000
_cell_angle_gamma 90.000000
_cell_volume 6133.025255
_symmetry_space_group_name_H-M "C C C M"
_symmetry_group_IT_number 66
_symmetry_cell_setting 'orthorhombic'
loop_
_space_group_symop_operation_xyz
x,y,z
-x,-y,z
x,-y,1/2-z
-x,y,1/2-z
-x,-y,-z
x,y,-z
-x,y,1/2+z
x,-y,1/2+z
1/2+x,1/2+y,z
1/2-x,1/2-y,z
1/2+x,1/2-y,1/2-z
1/2-x,1/2+y,1/2-z
1/2-x,1/2-y,-z
1/2+x,1/2+y,-z
1/2-x,1/2+y,1/2+z
1/2+x,1/2-y,1/2+z
loop_
_atom_site_type_symbol
_atom_site_label
_atom_site_fract_x
_atom_site_fract_y
_atom_site_fract_z
Si Si1 0.388341 0.668934 0.942186
Si Si2 0.892028 0.230479 0.710122
Si Si3 0.719536 0.082499 0.799704
Si Si4 0.064553 0.300674 0.557257
Si Si5 0.000000 0.500000 0.750000
Si Si6 0.466405 0.438483 0.373516
Si Si7 0.796970 0.111895 0.689782
Si Si8 0.482249 0.154045 0.155940
O O1 0.223468 0.678936 0.938038
O O2 0.445850 0.732718 0.930139
O O3 0.441804 0.616032 0.909506
O O4 0.417798 0.657976 0.000000
O O5 0.750000 0.250000 0.735255
O O6 0.851135 0.176078 0.677900
O O7 0.000000 0.210947 0.750000
O O8 0.950538 0.285031 0.681615
O O9 0.832247 0.060441 0.838179
O O10 0.792004 0.102097 0.748689
O O11 0.629194 0.132865 0.824350
O O12 0.604428 0.036801 0.783338
O O13 0.024814 0.307988 0.500000
O O14 0.982418 0.336598 0.597509
O O15 0.500000 0.500000 0.398328
O O16 0.597616 0.428230 0.338139
O O17 0.639291 0.111225 0.672191
#
# Coordination Sequence:
#
# PCOD9496768 Si02
#       8
#    16  16  16  16   4  16  16  16
#     4   9  19  39  63  90 120 155 200 250 308 373
#     4  10  20  33  53  81 120 155 189 239 294 357
#     4  12  23  40  61  83 116 168 210 247 293 356
#     4   9  18  36  65  94 118 149 198 253 305 372
#     4  12  24  40  62  80 114 160 214 260 282 336
#     4  12  25  39  59  89 119 162 205 254 304 351
#     4  11  23  39  54  86 126 158 197 241 298 359
#     4  11  20  37  60  87 118 155 201 242 303 358
#
# _framework density 18.913993999999999
#
# number of rings (size 3 to 8) (size 9 to 14) (size 15 to 20)
#    0.000    1.379    2.759    5.379    0.000    0.828 
#    2.483    0.690    0.000    5.379    0.000    2.897 
#    0.000    0.000    0.000    0.000    0.000    0.000 
#
# Total GULP energy -323625.734319 kJ/mol
# GULP energy per Si atom -5579.754040 kJ/mol
# Density = 1.887094 g / cm^3
# Si number density = 18.913994 Si / 1000 Ang^3
#
#
#
# Elastic Constant Matrix: (Units=GPa)
#
#
# Indices 1 2 3 4 5 6 
#
# 1 57.4130 29.9770 30.1515 0.0000 0.0000 0.0000
# 2 29.9770 92.9294 38.1422 0.0000 0.0000 0.0000
# 3 30.1515 38.1422 93.0482 0.0000 0.0000 0.0000
# 4 0.0000 0.0000 0.0000 23.0586 0.0000 0.0000
# 5 0.0000 0.0000 0.0000 0.0000 12.5612 0.0000
# 6 0.0000 0.0000 0.0000 0.0000 0.0000 34.6654
#
#
#
# Elastic Compliance Matrix: (Units=1/GPa)
#
#
# Indices 1 2 3 4 5 6 
#
# 1 0.022921 -0.005224 -0.005286 0.000000 0.000000 0.000000
# 2 -0.005224 0.014128 -0.004099 0.000000 0.000000 0.000000
# 3 -0.005286 -0.004099 0.014140 0.000000 0.000000 0.000000
# 4 0.000000 0.000000 0.000000 0.043368 0.000000 0.000000
# 5 0.000000 0.000000 0.000000 0.000000 0.079610 0.000000
# 6 0.000000 0.000000 0.000000 0.000000 0.000000 0.028847
#
#
# Mechanical properties :
#
#
# Convention : Reuss Voigt Hill
#
# Bulk Modulus (GPa) = 45.51225 48.88134 47.19679
# Shear Modulus (GPa) = 20.87188 23.73170 22.30179
#
# Velocity S-wave (km/s) = 3.32552 3.54604 3.43755
# Velocity P-wave (km/s) = 6.23382 6.53192 6.38461
#
# Compressibility (1/GPa) = 0.02197211
#
# Stress axis : x y z
#
# Youngs Moduli (GPa) = 43.62724 70.77972 70.72111
#
# Poissons Ratio (x) = 0.36978 0.37383
# Poissons Ratio (y) = 0.22793 0.28985
# Poissons Ratio (z) = 0.23061 0.29009
#
# Static dielectric constant tensor:
#      x y z
#    x 1.672700 0.000000 0.000000 
#    y 0.000000 1.703780 0.000000 
#    z 0.000000 0.000000 1.640810 
# 
# From -- ./inp_files/62898.got.cif
#   From: 2010.05.17/outbox.cif.g08.bks.cpg/sg66_32_cif.got.tgz:62898.got - 2010.06.03 17:51:23.
