data_PCOD9496830
_publ_section_title
;
Structure prediction by ZEFSAII (Michael W. Deem and Ramdas Pophale) SiO2 
 PCOD9496830
Probable space group: C C C M
;
_chemical_formula_sum "Si O2"
_cell_formula_units_Z 64
_cell_length_a 15.048830
_cell_length_b 27.505428
_cell_length_c 8.707000
_cell_angle_alpha 90.000000
_cell_angle_beta 90.000000
_cell_angle_gamma 90.000000
_cell_volume 3604.040709
_symmetry_space_group_name_H-M "C C C M"
_symmetry_group_IT_number 66
_symmetry_cell_setting 'orthorhombic'
loop_
_space_group_symop_operation_xyz
x,y,z
-x,-y,z
x,-y,1/2-z
-x,y,1/2-z
-x,-y,-z
x,y,-z
-x,y,1/2+z
x,-y,1/2+z
1/2+x,1/2+y,z
1/2-x,1/2-y,z
1/2+x,1/2-y,1/2-z
1/2-x,1/2+y,1/2-z
1/2-x,1/2-y,-z
1/2+x,1/2+y,-z
1/2-x,1/2+y,1/2+z
1/2+x,1/2-y,1/2+z
loop_
_atom_site_type_symbol
_atom_site_label
_atom_site_fract_x
_atom_site_fract_y
_atom_site_fract_z
Si Si1 0.722664 0.364903 0.317375
Si Si2 0.403033 0.283717 0.316821
Si Si3 0.403436 0.168531 0.682857
Si Si4 0.404574 0.445990 0.316269
O O1 0.718126 0.369223 0.500000
O O2 0.670834 0.316565 0.262527
O O3 0.823648 0.360265 0.261305
O O4 0.671192 0.409566 0.239539
O O5 0.500000 0.296309 0.250000
O O6 0.401444 0.292049 0.500000
O O7 0.388856 0.226341 0.288595
O O8 0.500000 0.156179 0.750000
O O9 0.402214 0.161260 0.500000
O O10 0.389776 0.500000 0.250000
O O11 0.500000 0.429208 0.250000
O O12 0.409197 0.447594 0.500000
#
# Coordination Sequence:
#
# PCOD9496830 Si02
#       4
#    16  16  16  16
#     4  12  23  35  54  80 109 144 184 223 267 319
#     4  10  20  34  52  77 110 145 182 224 270 320
#     4  10  21  37  55  77 107 144 184 227 272 317
#     4  11  22  39  60  84 113 142 175 217 268 323
#
# _framework density 17.757847000000002
#
# number of rings (size 3 to 8) (size 9 to 14) (size 15 to 20)
#    0.000    1.250    0.000    8.250    0.000    6.000 
#    0.000    0.000    0.000    0.750    0.000    5.250 
#    0.000    0.000    0.000    0.000    0.000    0.000 
#
# Total GULP energy -178994.458290 kJ/mol
# GULP energy per Si atom -5593.576822 kJ/mol
# Density = 1.771743 g / cm^3
# Si number density = 17.757847 Si / 1000 Ang^3
#
#
#
# Elastic Constant Matrix: (Units=GPa)
#
#
# Indices 1 2 3 4 5 6 
#
# 1 154.4673 68.2394 79.7645 0.0000 0.0000 0.0000
# 2 68.2394 59.9537 59.0021 0.0000 0.0000 0.0000
# 3 79.7645 59.0021 152.8557 0.0000 0.0000 0.0000
# 4 0.0000 0.0000 0.0000 28.1754 0.0000 0.0000
# 5 0.0000 0.0000 0.0000 0.0000 34.1901 0.0000
# 6 0.0000 0.0000 0.0000 0.0000 0.0000 23.9282
#
#
#
# Elastic Compliance Matrix: (Units=1/GPa)
#
#
# Indices 1 2 3 4 5 6 
#
# 1 0.013312 -0.013409 -0.001771 0.000000 0.000000 0.000000
# 2 -0.013409 0.040404 -0.008599 0.000000 0.000000 0.000000
# 3 -0.001771 -0.008599 0.010785 0.000000 0.000000 0.000000
# 4 0.000000 0.000000 0.000000 0.035492 0.000000 0.000000
# 5 0.000000 0.000000 0.000000 0.000000 0.029248 0.000000
# 6 0.000000 0.000000 0.000000 0.000000 0.000000 0.041792
#
#
# Mechanical properties :
#
#
# Convention : Reuss Voigt Hill
#
# Bulk Modulus (GPa) = 59.01696 86.80986 72.91341
# Shear Modulus (GPa) = 22.29772 27.94345 25.12058
#
# Velocity S-wave (km/s) = 3.54737 3.97115 3.76522
# Velocity P-wave (km/s) = 7.07707 8.36768 7.74929
#
# Compressibility (1/GPa) = 0.01694428
#
# Stress axis : x y z
#
# Youngs Moduli (GPa) = 75.12002 24.74998 92.72020
#
# Poissons Ratio (x) = 0.33188 0.16418
# Poissons Ratio (y) = 1.00730 0.79726
# Poissons Ratio (z) = 0.13301 0.21281
#
# Static dielectric constant tensor:
#      x y z
#    x 1.591920 0.000000 0.000000 
#    y 0.000000 1.596040 0.000000 
#    z 0.000000 0.000000 1.587090 
# 
# From -- ./inp_files/3979.got.cif
#   From: 2010.05.17/outbox.cif.g08.bks.cpg/sg66_2_cif.got.tgz:3979.got - 2010.06.03 17:51:23.
