data_PCOD9496801
_publ_section_title
;
Structure prediction by ZEFSAII (Michael W. Deem and Ramdas Pophale) SiO2 
 PCOD9496801
Probable space group: C C C M
;
_chemical_formula_sum "Si O2"
_cell_formula_units_Z 100
_cell_length_a 14.846296
_cell_length_b 21.369103
_cell_length_c 14.891437
_cell_angle_alpha 90.000000
_cell_angle_beta 90.000000
_cell_angle_gamma 90.000000
_cell_volume 4724.338594
_symmetry_space_group_name_H-M "C C C M"
_symmetry_group_IT_number 66
_symmetry_cell_setting 'orthorhombic'
loop_
_space_group_symop_operation_xyz
x,y,z
-x,-y,z
x,-y,1/2-z
-x,y,1/2-z
-x,-y,-z
x,y,-z
-x,y,1/2+z
x,-y,1/2+z
1/2+x,1/2+y,z
1/2-x,1/2-y,z
1/2+x,1/2-y,1/2-z
1/2-x,1/2+y,1/2-z
1/2-x,1/2-y,-z
1/2+x,1/2+y,-z
1/2-x,1/2+y,1/2+z
1/2+x,1/2-y,1/2+z
loop_
_atom_site_type_symbol
_atom_site_label
_atom_site_fract_x
_atom_site_fract_y
_atom_site_fract_z
Si Si1 0.307056 0.157702 0.854103
Si Si2 0.992968 0.294905 0.646209
Si Si3 0.250000 0.750000 0.500000
Si Si4 0.339606 0.586436 0.106030
Si Si5 0.680316 0.445102 0.609158
Si Si6 0.021582 0.849686 0.391088
Si Si7 0.804775 0.311620 0.145266
O O1 0.407866 0.167837 0.891989
O O2 0.243882 0.196217 0.921380
O O3 0.270195 0.087598 0.854106
O O4 0.305549 0.185390 0.754047
O O5 0.093112 0.306514 0.609808
O O6 0.000000 0.313426 0.750000
O O7 0.968062 0.221574 0.640475
O O8 0.332666 0.516007 0.141246
O O9 0.424941 0.625023 0.142317
O O10 0.249945 0.627106 0.116984
O O11 0.357694 0.580085 0.000000
O O12 0.684889 0.446057 0.500000
O O13 0.597595 0.399657 0.635168
O O14 0.021828 0.846172 0.500000
O O15 0.750000 0.250000 0.116973
#
# Coordination Sequence:
#
# PCOD9496801 Si02
#       7
#    16  16   4  16  16  16  16
#     4  11  23  37  60  91 123 155 197 250 311 362
#     4  10  23  38  57  86 122 154 191 247 303 353
#     4  12  20  36  64  96 120 156 194 256 314 350
#     4  10  22  40  59  85 121 166 208 242 292 361
#     4  10  21  37  59  89 125 156 196 251 304 362
#     4  10  20  33  58  88 120 156 192 240 300 359
#     4  11  22  41  60  84 121 161 204 250 295 357
#
# _framework density 21.166983999999999
#
# number of rings (size 3 to 8) (size 9 to 14) (size 15 to 20)
#    0.000    1.600    3.200    1.440    5.600    3.520 
#    0.000    0.800    0.000    7.680    0.000    0.000 
#    0.000    0.000    0.000    0.000    0.000    0.000 
#
# Total GULP energy -278906.302097 kJ/mol
# GULP energy per Si atom -5578.126042 kJ/mol
# Density = 2.111881 g / cm^3
# Si number density = 21.166984 Si / 1000 Ang^3
#
#
#
# Elastic Constant Matrix: (Units=GPa)
#
#
# Indices 1 2 3 4 5 6 
#
# 1 126.1786 50.8452 -25.5078 0.0000 0.0000 0.0000
# 2 50.8452 57.8309 -14.9771 0.0000 0.0000 0.0000
# 3 -25.5078 -14.9771 49.3453 0.0000 0.0000 0.0000
# 4 0.0000 0.0000 0.0000 24.2133 0.0000 0.0000
# 5 0.0000 0.0000 0.0000 0.0000 14.7357 0.0000
# 6 0.0000 0.0000 0.0000 0.0000 0.0000 31.9356
#
#
#
# Elastic Compliance Matrix: (Units=1/GPa)
#
#
# Indices 1 2 3 4 5 6 
#
# 1 0.012800 -0.010354 0.003474 0.000000 0.000000 0.000000
# 2 -0.010354 0.027142 0.002886 0.000000 0.000000 0.000000
# 3 0.003474 0.002886 0.022937 0.000000 0.000000 0.000000
# 4 0.000000 0.000000 0.000000 0.041300 0.000000 0.000000
# 5 0.000000 0.000000 0.000000 0.000000 0.067862 0.000000
# 6 0.000000 0.000000 0.000000 0.000000 0.000000 0.031313
#
#
# Mechanical properties :
#
#
# Convention : Reuss Voigt Hill
#
# Bulk Modulus (GPa) = 18.21784 28.23059 23.22422
# Shear Modulus (GPa) = 21.77324 29.04321 25.40822
#
# Velocity S-wave (km/s) = 3.21072 3.70820 3.46840
# Velocity P-wave (km/s) = 4.72974 5.63031 5.19956
#
# Compressibility (1/GPa) = 0.05489124
#
# Stress axis : x y z
#
# Youngs Moduli (GPa) = 78.12614 36.84260 43.59754
#
# Poissons Ratio (x) = 0.38147 -0.15145
# Poissons Ratio (y) = 0.80892 -0.12582
# Poissons Ratio (z) = -0.27140 -0.10633
#
# Static dielectric constant tensor:
#      x y z
#    x 1.838180 0.000000 0.000000 
#    y 0.000000 1.732400 0.000000 
#    z 0.000000 0.000000 1.782570 
# 
# From -- ./inp_files/40564.got.cif
#   From: 2010.05.17/outbox.cif.g08.bks.cpg/sg66_21_cif.got.tgz:40564.got - 2010.06.03 17:51:23.
