data_PCOD9496988
_publ_section_title
;
Structure prediction by ZEFSAII (Michael W. Deem and Ramdas Pophale) SiO2 
 PCOD9496988
Probable space group: C C C M
;
_chemical_formula_sum "Si O2"
_cell_formula_units_Z 96
_cell_length_a 20.528977
_cell_length_b 15.142950
_cell_length_c 14.971938
_cell_angle_alpha 90.000000
_cell_angle_beta 90.000000
_cell_angle_gamma 90.000000
_cell_volume 4654.315470
_symmetry_space_group_name_H-M "C C C M"
_symmetry_group_IT_number 66
_symmetry_cell_setting 'orthorhombic'
loop_
_space_group_symop_operation_xyz
x,y,z
-x,-y,z
x,-y,1/2-z
-x,y,1/2-z
-x,-y,-z
x,y,-z
-x,y,1/2+z
x,-y,1/2+z
1/2+x,1/2+y,z
1/2-x,1/2-y,z
1/2+x,1/2-y,1/2-z
1/2-x,1/2+y,1/2-z
1/2-x,1/2-y,-z
1/2+x,1/2+y,-z
1/2-x,1/2+y,1/2+z
1/2+x,1/2-y,1/2+z
loop_
_atom_site_type_symbol
_atom_site_label
_atom_site_fract_x
_atom_site_fract_y
_atom_site_fract_z
Si Si1 0.827505 0.586995 0.395069
Si Si2 0.680181 0.261724 0.795327
Si Si3 0.063026 0.946991 0.604439
Si Si4 0.687558 0.447348 0.109302
Si Si5 0.029353 0.403285 0.397228
Si Si6 0.052230 0.759330 0.679726
O O1 0.833241 0.567666 0.500000
O O2 0.813997 0.689535 0.374311
O O3 0.763152 0.534507 0.364298
O O4 0.899550 0.579872 0.354432
O O5 0.750000 0.250000 0.747276
O O6 0.670033 0.355920 0.841811
O O7 0.620450 0.243125 0.729283
O O8 0.063993 0.969158 0.500000
O O9 0.059372 0.841604 0.613559
O O10 0.132971 0.982472 0.637896
O O11 0.000000 0.000000 0.641671
O O12 0.687305 0.437156 0.000000
O O13 0.038884 0.373276 0.500000
O O14 0.000000 0.500000 0.397575
O O15 0.982037 0.329977 0.355408
O O16 0.000000 0.795442 0.750000
#
# Coordination Sequence:
#
# PCOD9496988 Si02
#       6
#    16  16  16  16  16  16
#     4   9  17  34  60  86 111 147 198 250 292 334
#     4  10  20  35  54  86 122 155 192 235 294 353
#     4  10  22  38  58  85 118 157 199 239 288 354
#     4   9  18  34  58  86 118 156 200 245 287 343
#     4  10  22  41  64  85 108 146 201 256 297 341
#     4  12  23  38  59  86 122 158 190 238 299 366
#
# _framework density 20.626018999999999
#
# number of rings (size 3 to 8) (size 9 to 14) (size 15 to 20)
#    0.000    2.000    1.667    2.000    0.000    4.667 
#    3.000    0.000    0.000    1.000    0.000    0.000 
#    0.000    0.000    0.000    0.000    0.000    0.000 
#
# Total GULP energy -267284.517104 kJ/mol
# GULP energy per Si atom -5568.427440 kJ/mol
# Density = 2.057907 g / cm^3
# Si number density = 20.626019 Si / 1000 Ang^3
#
#
#
# Elastic Constant Matrix: (Units=GPa)
#
#
# Indices 1 2 3 4 5 6 
#
# 1 188.8044 46.5715 24.0490 0.0000 0.0000 0.0000
# 2 46.5715 69.4638 1.1179 0.0000 0.0000 0.0000
# 3 24.0490 1.1179 32.0500 0.0000 0.0000 0.0000
# 4 0.0000 0.0000 0.0000 47.1869 0.0000 0.0000
# 5 0.0000 0.0000 0.0000 0.0000 20.8084 0.0000
# 6 0.0000 0.0000 0.0000 0.0000 0.0000 27.1175
#
#
#
# Elastic Compliance Matrix: (Units=1/GPa)
#
#
# Indices 1 2 3 4 5 6 
#
# 1 0.007111 -0.004684 -0.005172 0.000000 0.000000 0.000000
# 2 -0.004684 0.017490 0.002905 0.000000 0.000000 0.000000
# 3 -0.005172 0.002905 0.034981 0.000000 0.000000 0.000000
# 4 0.000000 0.000000 0.000000 0.021192 0.000000 0.000000
# 5 0.000000 0.000000 0.000000 0.000000 0.048057 0.000000
# 6 0.000000 0.000000 0.000000 0.000000 0.000000 0.036877
#
#
# Mechanical properties :
#
#
# Convention : Reuss Voigt Hill
#
# Bulk Modulus (GPa) = 21.89233 48.19945 35.04589
# Shear Modulus (GPa) = 25.66251 33.59456 29.62854
#
# Velocity S-wave (km/s) = 3.53112 4.04015 3.79418
# Velocity P-wave (km/s) = 5.22131 6.72181 6.01851
#
# Compressibility (1/GPa) = 0.04567810
#
# Stress axis : x y z
#
# Youngs Moduli (GPa) = 140.63332 57.17671 28.58703
#
# Poissons Ratio (x) = 0.26782 0.14786
# Poissons Ratio (y) = 0.65874 -0.08304
# Poissons Ratio (z) = 0.72738 -0.16608
#
# Static dielectric constant tensor:
#      x y z
#    x 1.801290 0.000000 0.000000 
#    y 0.000000 1.716000 0.000000 
#    z 0.000000 0.000000 1.803120 
# 
# From -- ./inp_files/28368.got.cif
#   From: 2010.05.17/outbox.cif.g08.bks.cpg/sg66_15_cif.got.tgz:28368.got - 2010.06.03 17:51:23.
