data_PCOD9496491
_publ_section_title
;
Structure prediction by ZEFSAII (Michael W. Deem and Ramdas Pophale) SiO2 
 PCOD9496491
Probable space group: C C C M
;
_chemical_formula_sum "Si O2"
_cell_formula_units_Z 112
_cell_length_a 23.395825
_cell_length_b 16.216586
_cell_length_c 14.846204
_cell_angle_alpha 90.000000
_cell_angle_beta 90.000000
_cell_angle_gamma 90.000000
_cell_volume 5632.655857
_symmetry_space_group_name_H-M "C C C M"
_symmetry_group_IT_number 66
_symmetry_cell_setting 'orthorhombic'
loop_
_space_group_symop_operation_xyz
x,y,z
-x,-y,z
x,-y,1/2-z
-x,y,1/2-z
-x,-y,-z
x,y,-z
-x,y,1/2+z
x,-y,1/2+z
1/2+x,1/2+y,z
1/2-x,1/2-y,z
1/2+x,1/2-y,1/2-z
1/2-x,1/2+y,1/2-z
1/2-x,1/2-y,-z
1/2+x,1/2+y,-z
1/2-x,1/2+y,1/2+z
1/2+x,1/2-y,1/2+z
loop_
_atom_site_type_symbol
_atom_site_label
_atom_site_fract_x
_atom_site_fract_y
_atom_site_fract_z
Si Si1 0.688570 0.794472 0.395523
Si Si2 0.156834 0.267916 0.099219
Si Si3 0.818530 0.586840 0.768331
Si Si4 0.954197 0.173894 0.364207
Si Si5 0.907563 0.994678 0.857031
Si Si6 0.712021 0.593989 0.106224
Si Si7 0.420910 0.318965 0.348906
O O1 0.681602 0.817943 0.500000
O O2 0.750000 0.750000 0.386439
O O3 0.690945 0.870521 0.327484
O O4 0.634519 0.736234 0.368716
O O5 0.154252 0.342069 0.169312
O O6 0.095197 0.226540 0.091992
O O7 0.197305 0.190536 0.125689
O O8 0.175150 0.296796 0.000000
O O9 0.849157 0.500000 0.750000
O O10 0.761077 0.567609 0.825177
O O11 0.949931 0.077176 0.390649
O O12 0.934761 0.176344 0.258479
O O13 0.016848 0.208455 0.383696
O O14 0.844986 0.958205 0.875976
O O15 0.917000 0.000000 0.750000
O O16 0.911153 0.088921 0.886940
O O17 0.725347 0.585657 0.000000
#
# Coordination Sequence:
#
# PCOD9496491 Si02
#       7
#    16  16  16  16  16  16  16
#     4  11  26  43  61  87 123 167 210 250 304 372
#     4  10  20  38  62  90 120 153 202 254 304 362
#     4  12  25  40  62  83 115 159 205 266 314 357
#     4   9  18  34  61  94 125 165 208 245 297 362
#     4   9  18  31  55  94 133 169 199 237 287 368
#     4  10  21  36  59  90 124 163 203 246 302 365
#     4  10  19  36  61  89 131 170 202 246 297 366
#
# _framework density 19.884049000000001
#
# number of rings (size 3 to 8) (size 9 to 14) (size 15 to 20)
#    0.000    1.857    1.429    2.571    6.000    5.143 
#    0.000    0.000    0.000    6.000    0.000    2.000 
#    0.000    0.000    0.000    0.000    0.000    0.000 
#
# Total GULP energy -312477.771596 kJ/mol
# GULP energy per Si atom -5579.960207 kJ/mol
# Density = 1.983879 g / cm^3
# Si number density = 19.884049 Si / 1000 Ang^3
#
#
#
# Elastic Constant Matrix: (Units=GPa)
#
#
# Indices 1 2 3 4 5 6 
#
# 1 88.9073 10.8763 8.2189 0.0000 0.0000 0.0000
# 2 10.8763 83.9526 46.2737 0.0000 0.0000 0.0000
# 3 8.2189 46.2737 98.6325 0.0000 0.0000 0.0000
# 4 0.0000 0.0000 0.0000 1194.6894 0.0000 0.0000
# 5 0.0000 0.0000 0.0000 0.0000 -9.3673 0.0000
# 6 0.0000 0.0000 0.0000 0.0000 0.0000 17.3998
#
#
#
# Elastic Compliance Matrix: (Units=1/GPa)
#
#
# Indices 1 2 3 4 5 6 
#
# 1 0.011438 -0.001290 -0.000348 0.000000 0.000000 0.000000
# 2 -0.001290 0.016212 -0.007498 0.000000 0.000000 0.000000
# 3 -0.000348 -0.007498 0.013685 0.000000 0.000000 0.000000
# 4 0.000000 0.000000 0.000000 0.000837 0.000000 0.000000
# 5 0.000000 0.000000 0.000000 0.000000 -0.106754 0.000000
# 6 0.000000 0.000000 0.000000 0.000000 0.000000 0.057472
#
#
# Mechanical properties :
#
#
# Convention : Reuss Voigt Hill
#
# Bulk Modulus (GPa) = 43.36057 44.69224 44.02641
# Shear Modulus (GPa) = 265.26910 254.28596 259.77753
#
# Velocity S-wave (km/s) = 11.56277 11.32087 11.44246
# Velocity P-wave (km/s) = 14.14629 13.90712 14.02721
#
# Compressibility (1/GPa) = 0.02306243
#
# Stress axis : x y z
#
# Youngs Moduli (GPa) = 87.43063 61.68446 73.07040
#
# Poissons Ratio (x) = 0.07958 0.02542
# Poissons Ratio (y) = 0.11279 0.54790
# Poissons Ratio (z) = 0.03041 0.46252
#
# Static dielectric constant tensor:
#      x y z
#    x 1.706950 0.000000 0.000000 
#    y 0.000000 1.694680 0.000000 
#    z 0.000000 0.000000 1.766090 
# 
# From -- ./inp_files/32499.got.cif
#   From: 2010.05.17/outbox.cif.g08.bks.cpg/sg66_17_cif.got.tgz:32499.got - 2010.06.03 17:51:23.
