data_PCOD9496800
_publ_section_title
;
Structure prediction by ZEFSAII (Michael W. Deem and Ramdas Pophale) SiO2 
 PCOD9496800
Probable space group: C C C M
;
_chemical_formula_sum "Si O2"
_cell_formula_units_Z 52
_cell_length_a 9.867597
_cell_length_b 15.125041
_cell_length_c 17.348177
_cell_angle_alpha 90.000000
_cell_angle_beta 90.000000
_cell_angle_gamma 90.000000
_cell_volume 2589.177411
_symmetry_space_group_name_H-M "C C C M"
_symmetry_group_IT_number 66
_symmetry_cell_setting 'orthorhombic'
loop_
_space_group_symop_operation_xyz
x,y,z
-x,-y,z
x,-y,1/2-z
-x,y,1/2-z
-x,-y,-z
x,y,-z
-x,y,1/2+z
x,-y,1/2+z
1/2+x,1/2+y,z
1/2-x,1/2-y,z
1/2+x,1/2-y,1/2-z
1/2-x,1/2+y,1/2-z
1/2-x,1/2-y,-z
1/2+x,1/2+y,-z
1/2-x,1/2+y,1/2+z
1/2+x,1/2-y,1/2+z
loop_
_atom_site_type_symbol
_atom_site_label
_atom_site_fract_x
_atom_site_fract_y
_atom_site_fract_z
Si Si1 0.285292 0.937710 0.366743
Si Si2 0.500000 0.000000 0.250000
Si Si3 0.000000 0.000000 0.870302
Si Si4 0.443780 0.354945 0.500000
Si Si5 0.834339 0.579844 0.500000
Si Si6 0.616899 0.176744 0.500000
O O1 0.401620 0.940678 0.302861
O O2 0.299914 0.852422 0.423208
O O3 0.137745 0.962722 0.332132
O O4 0.313079 0.018322 0.425828
O O5 0.969255 0.082616 0.926510
O O6 0.280909 0.344995 0.500000
O O7 0.545585 0.272551 0.500000
O O8 0.984647 0.615093 0.500000
#
# Coordination Sequence:
#
# PCOD9496800 Si02
#       6
#    16   4   8   8   8   8
#     4  10  20  33  58  77 114 137 191 214 282 320
#     4  12  20  36  56  80  96 162 176 224 260 344
#     4   9  20  37  48  84 110 146 172 236 270 350
#     4   9  18  30  59  81 115 138 180 220 298 314
#     4   9  16  34  51  87 106 140 173 234 265 331
#     4  11  17  31  56  91 106 140 178 244 257 336
#
# _framework density 20.083599
#
# number of rings (size 3 to 8) (size 9 to 14) (size 15 to 20)
#    0.000    2.154    3.077    4.154    0.000    3.077 
#    0.000    0.000    0.000   14.769    0.000    0.000 
#    0.000    0.000    0.000    0.000    0.000    0.000 
#
# Total GULP energy -144738.187101 kJ/mol
# GULP energy per Si atom -5566.853350 kJ/mol
# Density = 2.003789 g / cm^3
# Si number density = 20.083599 Si / 1000 Ang^3
#
#
#
# Elastic Constant Matrix: (Units=GPa)
#
#
# Indices 1 2 3 4 5 6 
#
# 1 170.3957 37.7892 38.8272 0.0000 0.0000 0.0000
# 2 37.7892 108.8991 10.8600 0.0000 0.0000 0.0000
# 3 38.8272 10.8600 76.0449 0.0000 0.0000 0.0000
# 4 0.0000 0.0000 0.0000 4.6809 0.0000 0.0000
# 5 0.0000 0.0000 0.0000 0.0000 24.9457 0.0000
# 6 0.0000 0.0000 0.0000 0.0000 0.0000 37.4344
#
#
#
# Elastic Compliance Matrix: (Units=1/GPa)
#
#
# Indices 1 2 3 4 5 6 
#
# 1 0.007098 -0.002132 -0.003320 0.000000 0.000000 0.000000
# 2 -0.002132 0.009956 -0.000333 0.000000 0.000000 0.000000
# 3 -0.003320 -0.000333 0.014893 0.000000 0.000000 0.000000
# 4 0.000000 0.000000 0.000000 0.213634 0.000000 0.000000
# 5 0.000000 0.000000 0.000000 0.000000 0.040087 0.000000
# 6 0.000000 0.000000 0.000000 0.000000 0.000000 0.026713
#
#
# Mechanical properties :
#
#
# Convention : Reuss Voigt Hill
#
# Bulk Modulus (GPa) = 49.07556 58.92142 53.99849
# Shear Modulus (GPa) = 15.11750 31.26976 23.19363
#
# Velocity S-wave (km/s) = 2.74657 3.95014 3.40200
# Velocity P-wave (km/s) = 5.87766 7.08566 6.50974
#
# Compressibility (1/GPa) = 0.02037674
#
# Stress axis : x y z
#
# Youngs Moduli (GPa) = 140.88597 100.44318 67.14723
#
# Poissons Ratio (x) = 0.21415 0.22290
# Poissons Ratio (y) = 0.30037 0.02238
# Poissons Ratio (z) = 0.46769 0.03347
#
# Static dielectric constant tensor:
#      x y z
#    x 1.828080 0.000000 0.000000 
#    y 0.000000 1.718150 0.000000 
#    z 0.000000 0.000000 1.716110 
# 
# From -- ./inp_files/37825.got.cif
#   From: 2010.05.17/outbox.cif.g08.bks.cpg/sg66_19_cif.got.tgz:37825.got - 2010.06.03 17:51:23.
