data_PCOD9496453
_publ_section_title
;
Structure prediction by ZEFSAII (Michael W. Deem and Ramdas Pophale) SiO2 
 PCOD9496453
Probable space group: C C C M
;
_chemical_formula_sum "Si O2"
_cell_formula_units_Z 112
_cell_length_a 12.293424
_cell_length_b 25.120329
_cell_length_c 17.922683
_cell_angle_alpha 90.000000
_cell_angle_beta 90.000000
_cell_angle_gamma 90.000000
_cell_volume 5534.790759
_symmetry_space_group_name_H-M "C C C M"
_symmetry_group_IT_number 66
_symmetry_cell_setting 'orthorhombic'
loop_
_space_group_symop_operation_xyz
x,y,z
-x,-y,z
x,-y,1/2-z
-x,y,1/2-z
-x,-y,-z
x,y,-z
-x,y,1/2+z
x,-y,1/2+z
1/2+x,1/2+y,z
1/2-x,1/2-y,z
1/2+x,1/2-y,1/2-z
1/2-x,1/2+y,1/2-z
1/2-x,1/2-y,-z
1/2+x,1/2+y,-z
1/2-x,1/2+y,1/2+z
1/2+x,1/2-y,1/2+z
loop_
_atom_site_type_symbol
_atom_site_label
_atom_site_fract_x
_atom_site_fract_y
_atom_site_fract_z
Si Si1 0.351764 0.387748 0.834093
Si Si2 0.591084 0.607519 0.342463
Si Si3 0.247248 0.192319 0.582864
Si Si4 0.926731 0.447779 0.088509
Si Si5 0.175050 0.697254 0.300442
Si Si6 0.790897 0.994709 0.339812
Si Si7 0.046096 0.336374 0.350555
O O1 0.382390 0.390326 0.745851
O O2 0.470700 0.374659 0.866055
O O3 0.255488 0.345513 0.837726
O O4 0.312480 0.444875 0.863715
O O5 0.677361 0.647134 0.378444
O O6 0.610433 0.545260 0.358731
O O7 0.202843 0.198855 0.500000
O O8 0.250000 0.250000 0.620862
O O9 0.372510 0.176207 0.582914
O O10 0.811573 0.465468 0.123236
O O11 0.975995 0.399040 0.137086
O O12 0.000000 0.500000 0.094484
O O13 0.916949 0.434792 0.000000
O O14 0.250000 0.750000 0.292611
O O15 0.121919 0.675125 0.222659
O O16 0.062325 0.699139 0.347283
O O17 0.776047 0.000000 0.250000
#
# Coordination Sequence:
#
# PCOD9496453 Si02
#       7
#    16  16  16  16  16  16  16
#     4  10  20  35  57  88 126 159 198 258 327 386
#     4  10  20  34  60  86 121 160 203 259 321 382
#     4  11  23  39  62  89 120 166 223 268 317 387
#     4  11  23  39  63  92 128 175 221 270 331 398
#     4  11  24  38  60  95 125 163 202 266 339 396
#     4  10  19  36  57  90 123 162 211 262 325 388
#     4  11  22  40  63  90 129 163 213 266 329 394
#
# _framework density 20.235634000000001
#
# number of rings (size 3 to 8) (size 9 to 14) (size 15 to 20)
#    0.000    1.429    2.857    3.000    2.000    4.286 
#    0.000    0.714    0.000    5.143    0.000    0.000 
#    0.000    0.000    0.000    0.000    0.000    0.000 
#
# Total GULP energy -311994.302886 kJ/mol
# GULP energy per Si atom -5571.326837 kJ/mol
# Density = 2.018958 g / cm^3
# Si number density = 20.235634 Si / 1000 Ang^3
#
#
#
# Elastic Constant Matrix: (Units=GPa)
#
#
# Indices 1 2 3 4 5 6 
#
# 1 133.5591 51.1584 20.2655 0.0000 0.0000 0.0000
# 2 51.1584 138.7057 31.3972 0.0000 0.0000 0.0000
# 3 20.2655 31.3972 35.0320 0.0000 0.0000 0.0000
# 4 0.0000 0.0000 0.0000 20.5330 0.0000 0.0000
# 5 0.0000 0.0000 0.0000 0.0000 -8.0793 0.0000
# 6 0.0000 0.0000 0.0000 0.0000 0.0000 34.0881
#
#
#
# Elastic Compliance Matrix: (Units=1/GPa)
#
#
# Indices 1 2 3 4 5 6 
#
# 1 0.008929 -0.002665 -0.002777 0.000000 0.000000 0.000000
# 2 -0.002665 0.009840 -0.007277 0.000000 0.000000 0.000000
# 3 -0.002777 -0.007277 0.036674 0.000000 0.000000 0.000000
# 4 0.000000 0.000000 0.000000 0.048702 0.000000 0.000000
# 5 0.000000 0.000000 0.000000 0.000000 -0.123774 0.000000
# 6 0.000000 0.000000 0.000000 0.000000 0.000000 0.029336
#
#
# Mechanical properties :
#
#
# Convention : Reuss Voigt Hill
#
# Bulk Modulus (GPa) = 33.32808 56.99323 45.16066
# Shear Modulus (GPa) = 110.74924 22.94008 66.84466
#
# Velocity S-wave (km/s) = 7.40599 3.37062 5.75368
# Velocity P-wave (km/s) = 9.46769 6.58590 8.15510
#
# Compressibility (1/GPa) = 0.03000473
#
# Stress axis : x y z
#
# Youngs Moduli (GPa) = 111.98908 101.63032 27.26720
#
# Poissons Ratio (x) = 0.27082 0.07573
# Poissons Ratio (y) = 0.29842 0.19843
# Poissons Ratio (z) = 0.31103 0.73958
#
# Static dielectric constant tensor:
#      x y z
#    x 1.910880 0.000000 0.000000 
#    y 0.000000 1.785980 0.000000 
#    z 0.000000 0.000000 1.749860 
# 
# From -- ./inp_files/49124.got.cif
#   From: 2010.05.17/outbox.cif.g08.bks.cpg/sg66_25_cif.got.tgz:49124.got - 2010.06.03 17:51:23.
