data_PCOD9496896
_publ_section_title
;
Structure prediction by ZEFSAII (Michael W. Deem and Ramdas Pophale) SiO2 
 PCOD9496896
Probable space group: C C C M
;
_chemical_formula_sum "Si O2"
_cell_formula_units_Z 80
_cell_length_a 15.825985
_cell_length_b 10.394140
_cell_length_c 25.076892
_cell_angle_alpha 90.000000
_cell_angle_beta 90.000000
_cell_angle_gamma 90.000000
_cell_volume 4125.086135
_symmetry_space_group_name_H-M "C C C M"
_symmetry_group_IT_number 66
_symmetry_cell_setting 'orthorhombic'
loop_
_space_group_symop_operation_xyz
x,y,z
-x,-y,z
x,-y,1/2-z
-x,y,1/2-z
-x,-y,-z
x,y,-z
-x,y,1/2+z
x,-y,1/2+z
1/2+x,1/2+y,z
1/2-x,1/2-y,z
1/2+x,1/2-y,1/2-z
1/2-x,1/2+y,1/2-z
1/2-x,1/2-y,-z
1/2+x,1/2+y,-z
1/2-x,1/2+y,1/2+z
1/2+x,1/2-y,1/2+z
loop_
_atom_site_type_symbol
_atom_site_label
_atom_site_fract_x
_atom_site_fract_y
_atom_site_fract_z
Si Si1 0.759161 0.954887 0.436581
Si Si2 0.501170 0.655087 0.688131
Si Si3 0.451817 0.881101 0.439941
Si Si4 0.614049 0.768274 0.596675
Si Si5 0.165899 0.795389 0.377471
O O1 0.746227 0.971306 0.500000
O O2 0.672727 0.897029 0.409441
O O3 0.827017 0.842230 0.426645
O O4 0.803669 0.079351 0.410060
O O5 0.500000 0.500000 0.684621
O O6 0.500000 0.692647 0.750000
O O7 0.576884 0.722969 0.654412
O O8 0.412386 0.688885 0.661227
O O9 0.432778 0.920511 0.500000
O O10 0.528483 0.779603 0.437663
O O11 0.369073 0.815561 0.416696
O O12 0.500000 0.000000 0.411148
O O13 0.250000 0.750000 0.347948
#
# Coordination Sequence:
#
# PCOD9496896 Si02
#       5
#    16  16  16  16  16
#     4  11  21  35  58  91 129 163 199 244 302 368
#     4  10  21  43  64  83 112 156 205 255 311 357
#     4  10  20  34  55  82 120 166 202 238 298 360
#     4  10  20  36  58  85 120 157 200 250 293 366
#     4  11  23  38  58  89 122 155 202 254 299 365
#
# _framework density 19.393533999999999
#
# number of rings (size 3 to 8) (size 9 to 14) (size 15 to 20)
#    0.000    1.600    2.000    4.200    0.000    3.200 
#    3.600    3.000    0.000   20.400    0.000    0.000 
#    0.000    0.000    0.000    0.000    0.000    0.000 
#
# Total GULP energy -222775.622417 kJ/mol
# GULP energy per Si atom -5569.390560 kJ/mol
# Density = 1.934939 g / cm^3
# Si number density = 19.393534 Si / 1000 Ang^3
#
#
#
# Elastic Constant Matrix: (Units=GPa)
#
#
# Indices 1 2 3 4 5 6 
#
# 1 140.1307 32.8895 39.2701 0.0000 0.0000 0.0000
# 2 32.8895 93.0917 34.9566 0.0000 0.0000 0.0000
# 3 39.2701 34.9566 126.0268 0.0000 0.0000 0.0000
# 4 0.0000 0.0000 0.0000 0.6016 0.0000 0.0000
# 5 0.0000 0.0000 0.0000 0.0000 5.3291 0.0000
# 6 0.0000 0.0000 0.0000 0.0000 0.0000 38.3550
#
#
#
# Elastic Compliance Matrix: (Units=1/GPa)
#
#
# Indices 1 2 3 4 5 6 
#
# 1 0.008191 -0.002160 -0.001953 0.000000 0.000000 0.000000
# 2 -0.002160 0.012561 -0.002811 0.000000 0.000000 0.000000
# 3 -0.001953 -0.002811 0.009323 0.000000 0.000000 0.000000
# 4 0.000000 0.000000 0.000000 1.662182 0.000000 0.000000
# 5 0.000000 0.000000 0.000000 0.000000 0.187648 0.000000
# 6 0.000000 0.000000 0.000000 0.000000 0.000000 0.026072
#
#
# Mechanical properties :
#
#
# Convention : Reuss Voigt Hill
#
# Bulk Modulus (GPa) = 61.62947 63.72017 62.67482
# Shear Modulus (GPa) = 2.59709 25.66603 14.13156
#
# Velocity S-wave (km/s) = 1.15847 3.64185 2.70232
# Velocity P-wave (km/s) = 5.79972 7.11420 6.49032
#
# Compressibility (1/GPa) = 0.01622600
#
# Stress axis : x y z
#
# Youngs Moduli (GPa) = 122.09208 79.61235 107.26133
#
# Poissons Ratio (x) = 0.17199 0.20948
# Poissons Ratio (y) = 0.26377 0.30150
# Poissons Ratio (z) = 0.23844 0.22378
#
# Static dielectric constant tensor:
#      x y z
#    x 1.700920 0.000000 0.000000 
#    y 0.000000 1.801480 0.000000 
#    z 0.000000 0.000000 1.659770 
# 
# From -- ./inp_files/64471.got.cif
#   From: 2010.05.17/outbox.cif.g08.bks.cpg/sg66_33_cif.got.tgz:64471.got - 2010.06.03 17:51:23.
