data_PCOD9496930
_publ_section_title
;
Structure prediction by ZEFSAII (Michael W. Deem and Ramdas Pophale) SiO2 
 PCOD9496930
Probable space group: C C C M
;
_chemical_formula_sum "Si O2"
_cell_formula_units_Z 52
_cell_length_a 15.665258
_cell_length_b 9.180894
_cell_length_c 21.530337
_cell_angle_alpha 90.000000
_cell_angle_beta 90.000000
_cell_angle_gamma 90.000000
_cell_volume 3096.516173
_symmetry_space_group_name_H-M "C C C M"
_symmetry_group_IT_number 66
_symmetry_cell_setting 'orthorhombic'
loop_
_space_group_symop_operation_xyz
x,y,z
-x,-y,z
x,-y,1/2-z
-x,y,1/2-z
-x,-y,-z
x,y,-z
-x,y,1/2+z
x,-y,1/2+z
1/2+x,1/2+y,z
1/2-x,1/2-y,z
1/2+x,1/2-y,1/2-z
1/2-x,1/2+y,1/2-z
1/2-x,1/2-y,-z
1/2+x,1/2+y,-z
1/2-x,1/2+y,1/2+z
1/2+x,1/2-y,1/2+z
loop_
_atom_site_type_symbol
_atom_site_label
_atom_site_fract_x
_atom_site_fract_y
_atom_site_fract_z
Si Si1 0.418584 0.588101 0.129036
Si Si2 0.083236 0.590124 0.925476
Si Si3 0.000000 0.000000 0.250000
Si Si4 0.258484 0.421589 0.074256
O O1 0.500000 0.500000 0.101368
O O2 0.413722 0.750350 0.103593
O O3 0.440425 0.589066 0.202504
O O4 0.334406 0.498516 0.111528
O O5 0.169224 0.500995 0.911964
O O6 0.000000 0.500000 0.904971
O O7 0.077874 0.606721 0.000000
O O8 0.250000 0.250000 0.087595
O O9 0.275444 0.437144 0.000000
#
# Coordination Sequence:
#
# PCOD9496930 Si02
#       4
#    16  16   4  16
#     4  10  20  38  58  74 118 148 193 235 275 317
#     4  10  20  34  58  92 119 143 178 225 290 354
#     4   8  24  40  56  76 110 148 214 234 256 328
#     4  10  20  34  57  91 120 143 178 227 291 351
#
# _framework density 16.793067000000001
#
# number of rings (size 3 to 8) (size 9 to 14) (size 15 to 20)
#    0.923    1.231    0.000    3.692    0.000    7.385 
#    0.000    3.846    0.000    0.000    0.000    0.000 
#    0.000    0.000    0.000    0.000    0.000    0.000 
#
# Total GULP energy -144887.292381 kJ/mol
# GULP energy per Si atom -5572.588168 kJ/mol
# Density = 1.675484 g / cm^3
# Si number density = 16.793067 Si / 1000 Ang^3
#
#
#
# Elastic Constant Matrix: (Units=GPa)
#
#
# Indices 1 2 3 4 5 6 
#
# 1 158.2614 95.8426 70.7456 0.0000 0.0000 0.0000
# 2 95.8426 177.7696 62.7083 0.0000 0.0000 0.0000
# 3 70.7456 62.7083 53.6346 0.0000 0.0000 0.0000
# 4 0.0000 0.0000 0.0000 -7.4089 0.0000 0.0000
# 5 0.0000 0.0000 0.0000 0.0000 14.2031 0.0000
# 6 0.0000 0.0000 0.0000 0.0000 0.0000 30.1062
#
#
#
# Elastic Compliance Matrix: (Units=1/GPa)
#
#
# Indices 1 2 3 4 5 6 
#
# 1 0.015799 -0.001986 -0.018517 0.000000 0.000000 0.000000
# 2 -0.001986 0.009823 -0.008866 0.000000 0.000000 0.000000
# 3 -0.018517 -0.008866 0.053436 0.000000 0.000000 0.000000
# 4 0.000000 0.000000 0.000000 -0.134973 0.000000 0.000000
# 5 0.000000 0.000000 0.000000 0.000000 0.070407 0.000000
# 6 0.000000 0.000000 0.000000 0.000000 0.000000 0.033216
#
#
# Mechanical properties :
#
#
# Convention : Reuss Voigt Hill
#
# Bulk Modulus (GPa) = 49.21387 94.25095 71.73241
# Shear Modulus (GPa) = 44.16235 18.07138 31.11686
#
# Velocity S-wave (km/s) = 5.13372 3.28399 4.30927
# Velocity P-wave (km/s) = 8.03180 8.40394 8.21997
#
# Compressibility (1/GPa) = 0.02031947
#
# Stress axis : x y z
#
# Youngs Moduli (GPa) = 63.29585 101.79867 18.71413
#
# Poissons Ratio (x) = 0.20214 0.34654
# Poissons Ratio (y) = 0.12569 0.16592
# Poissons Ratio (z) = 1.17208 0.90254
#
# Static dielectric constant tensor:
#      x y z
#    x 1.563760 0.000000 0.000000 
#    y 0.000000 1.533760 0.000000 
#    z 0.000000 0.000000 1.560320 
# 
# From -- ./inp_files/54800.got.cif
#   From: 2010.05.17/outbox.cif.g08.bks.cpg/sg66_28_cif.got.tgz:54800.got - 2010.06.03 17:51:23.
