data_PCOD9496551
_publ_section_title
;
Structure prediction by ZEFSAII (Michael W. Deem and Ramdas Pophale) SiO2 
 PCOD9496551
Probable space group: C C C M
;
_chemical_formula_sum "Si O2"
_cell_formula_units_Z 60
_cell_length_a 8.134725
_cell_length_b 19.531187
_cell_length_c 18.607879
_cell_angle_alpha 90.000000
_cell_angle_beta 90.000000
_cell_angle_gamma 90.000000
_cell_volume 2956.435356
_symmetry_space_group_name_H-M "C C C M"
_symmetry_group_IT_number 66
_symmetry_cell_setting 'orthorhombic'
loop_
_space_group_symop_operation_xyz
x,y,z
-x,-y,z
x,-y,1/2-z
-x,y,1/2-z
-x,-y,-z
x,y,-z
-x,y,1/2+z
x,-y,1/2+z
1/2+x,1/2+y,z
1/2-x,1/2-y,z
1/2+x,1/2-y,1/2-z
1/2-x,1/2+y,1/2-z
1/2-x,1/2-y,-z
1/2+x,1/2+y,-z
1/2-x,1/2+y,1/2+z
1/2+x,1/2-y,1/2+z
loop_
_atom_site_type_symbol
_atom_site_label
_atom_site_fract_x
_atom_site_fract_y
_atom_site_fract_z
Si Si1 0.054167 0.572741 0.870910
Si Si2 0.750000 0.250000 0.682246
Si Si3 0.067681 0.276926 0.581531
Si Si4 0.753087 0.398597 0.264695
Si Si5 0.000000 0.000000 0.250000
O O1 0.071525 0.640179 0.918249
O O2 0.208083 0.574645 0.815598
O O3 0.000000 0.500000 0.904107
O O4 0.906273 0.587243 0.815584
O O5 0.584542 0.243381 0.633467
O O6 0.727913 0.317756 0.730242
O O7 0.036156 0.252318 0.500000
O O8 0.250000 0.250000 0.602746
O O9 0.607846 0.445660 0.293835
#
# Coordination Sequence:
#
# PCOD9496551 Si02
#       5
#    16   8  16  16   4
#     4  10  19  38  55  78 118 153 189 239 295 359
#     4  10  23  38  60  84 119 154 192 246 304 348
#     4  10  23  40  59  83 112 155 205 247 286 342
#     4  10  21  33  55  87 116 152 186 237 304 363
#     4  12  20  30  56  88 122 148 188 232 296 368
#
# _framework density 20.294709999999998
#
# number of rings (size 3 to 8) (size 9 to 14) (size 15 to 20)
#    0.000    1.867    2.667    1.200    5.600    2.667 
#    0.000    0.000    0.000    0.000    0.000   14.933 
#    0.000    0.000    0.000    0.000    0.000    0.000 
#
# Total GULP energy -167066.424093 kJ/mol
# GULP energy per Si atom -5568.880803 kJ/mol
# Density = 2.024852 g / cm^3
# Si number density = 20.294710 Si / 1000 Ang^3
#
#
#
# Elastic Constant Matrix: (Units=GPa)
#
#
# Indices 1 2 3 4 5 6 
#
# 1 112.4648 55.9369 25.1469 0.0000 0.0000 0.0000
# 2 55.9369 182.7796 16.3704 0.0000 0.0000 0.0000
# 3 25.1469 16.3704 50.3349 0.0000 0.0000 0.0000
# 4 0.0000 0.0000 0.0000 2.0152 0.0000 0.0000
# 5 0.0000 0.0000 0.0000 0.0000 2.3500 0.0000
# 6 0.0000 0.0000 0.0000 0.0000 0.0000 35.3748
#
#
#
# Elastic Compliance Matrix: (Units=1/GPa)
#
#
# Indices 1 2 3 4 5 6 
#
# 1 0.011488 -0.003092 -0.004734 0.000000 0.000000 0.000000
# 2 -0.003092 0.006467 -0.000559 0.000000 0.000000 0.000000
# 3 -0.004734 -0.000559 0.022414 0.000000 0.000000 0.000000
# 4 0.000000 0.000000 0.000000 0.496241 0.000000 0.000000
# 5 0.000000 0.000000 0.000000 0.000000 0.425541 0.000000
# 6 0.000000 0.000000 0.000000 0.000000 0.000000 0.028269
#
#
# Mechanical properties :
#
#
# Convention : Reuss Voigt Hill
#
# Bulk Modulus (GPa) = 42.37227 60.05417 51.21322
# Shear Modulus (GPa) = 4.92584 24.48966 14.70775
#
# Velocity S-wave (km/s) = 1.55962 3.47753 2.69496
# Velocity P-wave (km/s) = 4.91600 6.76606 5.91382
#
# Compressibility (1/GPa) = 0.02360034
#
# Stress axis : x y z
#
# Youngs Moduli (GPa) = 87.04846 154.62439 44.61582
#
# Poissons Ratio (x) = 0.47805 0.21120
# Poissons Ratio (y) = 0.26913 0.02493
# Poissons Ratio (z) = 0.41206 0.08640
#
# Static dielectric constant tensor:
#      x y z
#    x 1.844950 0.000000 0.000000 
#    y 0.000000 1.785620 0.000000 
#    z 0.000000 0.000000 1.716950 
# 
# From -- ./inp_files/36115.got.cif
#   From: 2010.05.17/outbox.cif.g08.bks.cpg/sg66_19_cif.got.tgz:36115.got - 2010.06.03 17:51:23.
