data_PCOD9496155
_publ_section_title
;
Structure prediction by ZEFSAII (Michael W. Deem and Ramdas Pophale) SiO2 
 PCOD9496155
Probable space group: C C C M
;
_chemical_formula_sum "Si O2"
_cell_formula_units_Z 48
_cell_length_a 7.201001
_cell_length_b 20.938248
_cell_length_c 11.313604
_cell_angle_alpha 90.000000
_cell_angle_beta 90.000000
_cell_angle_gamma 90.000000
_cell_volume 1705.823857
_symmetry_space_group_name_H-M "C C C M"
_symmetry_group_IT_number 66
_symmetry_cell_setting 'orthorhombic'
loop_
_space_group_symop_operation_xyz
x,y,z
-x,-y,z
x,-y,1/2-z
-x,y,1/2-z
-x,-y,-z
x,y,-z
-x,y,1/2+z
x,-y,1/2+z
1/2+x,1/2+y,z
1/2-x,1/2-y,z
1/2+x,1/2-y,1/2-z
1/2-x,1/2+y,1/2-z
1/2-x,1/2-y,-z
1/2+x,1/2+y,-z
1/2-x,1/2+y,1/2+z
1/2+x,1/2-y,1/2+z
loop_
_atom_site_type_symbol
_atom_site_label
_atom_site_fract_x
_atom_site_fract_y
_atom_site_fract_z
Si Si1 0.000000 0.718017 0.250000
Si Si2 0.210945 0.596662 0.500000
Si Si3 0.539638 0.768896 0.000000
Si Si4 0.385401 0.567094 0.000000
Si Si5 0.722455 0.397225 0.752628
O O1 0.966486 0.752823 0.373796
O O2 0.176705 0.670749 0.260219
O O3 0.060058 0.653788 0.500000
O O4 0.434809 0.615600 0.500000
O O5 0.203048 0.567618 0.633337
O O6 0.750000 0.750000 0.000000
O O7 0.500000 0.500000 0.000000
O O8 0.258785 0.575341 0.115656
O O9 0.500000 0.394896 0.750000
#
# Coordination Sequence:
#
# PCOD9496155 Si02
#       5
#     8   8   8   8  16
#     4  10  20  40  66  85 122 168 201 254 320 368
#     4   8  18  34  54  77 114 150 192 248 288 350
#     4  10  21  41  60  92 124 156 209 265 305 383
#     4  10  19  33  57  88 119 160 201 249 307 365
#     4   9  18  34  59  84 114 158 201 246 300 362
#
# _framework density 28.138898000000001
#
# number of rings (size 3 to 8) (size 9 to 14) (size 15 to 20)
#    0.000    2.667    0.000    1.000    0.000    6.000 
#   24.000    0.833    0.000   54.000    0.000    0.000 
#    0.000    0.000    0.000    0.000    0.000    0.000 
#
# Total GULP energy -133830.119882 kJ/mol
# GULP energy per Si atom -5576.254995 kJ/mol
# Density = 2.807485 g / cm^3
# Si number density = 28.138898 Si / 1000 Ang^3
#
#
#
# Elastic Constant Matrix: (Units=GPa)
#
#
# Indices 1 2 3 4 5 6 
#
# 1 99.7190 11.6250 10.0138 0.0000 0.0000 0.0000
# 2 11.6250 63.3730 31.3479 0.0000 0.0000 0.0000
# 3 10.0138 31.3479 393.3203 0.0000 0.0000 0.0000
# 4 0.0000 0.0000 0.0000 -14.3925 0.0000 0.0000
# 5 0.0000 0.0000 0.0000 0.0000 35.2150 0.0000
# 6 0.0000 0.0000 0.0000 0.0000 0.0000 32.0002
#
#
#
# Elastic Compliance Matrix: (Units=1/GPa)
#
#
# Indices 1 2 3 4 5 6 
#
# 1 0.010252 -0.001823 -0.000116 0.000000 0.000000 0.000000
# 2 -0.001823 0.016752 -0.001289 0.000000 0.000000 0.000000
# 3 -0.000116 -0.001289 0.002648 0.000000 0.000000 0.000000
# 4 0.000000 0.000000 0.000000 -0.069481 0.000000 0.000000
# 5 0.000000 0.000000 0.000000 0.000000 0.028397 0.000000
# 6 0.000000 0.000000 0.000000 0.000000 0.000000 0.031250
#
#
# Mechanical properties :
#
#
# Convention : Reuss Voigt Hill
#
# Bulk Modulus (GPa) = 43.11019 73.59842 58.35431
# Shear Modulus (GPa) = 147.03264 44.12623 95.57944
#
# Velocity S-wave (km/s) = 7.23643 3.96429 5.83445
# Velocity P-wave (km/s) = 9.22903 6.86778 8.13453
#
# Compressibility (1/GPa) = 0.02319637
#
# Stress axis : x y z
#
# Youngs Moduli (GPa) = 97.53841 59.69604 377.62756
#
# Poissons Ratio (x) = 0.10885 0.04369
# Poissons Ratio (y) = 0.17786 0.48664
# Poissons Ratio (z) = 0.01128 0.07693
#
# Static dielectric constant tensor:
#      x y z
#    x 2.143790 0.000000 0.000000 
#    y 0.000000 2.287300 0.000000 
#    z 0.000000 0.000000 2.360490 
# 
# From -- ./inp_files/13210.got.cif
#   From: 2010.05.17/outbox.cif.g08.bks.cpg/sg66_7_cif.got.tgz:13210.got - 2010.06.03 17:51:23.
