data_PCOD9496838
_publ_section_title
;
Structure prediction by ZEFSAII (Michael W. Deem and Ramdas Pophale) SiO2 
 PCOD9496838
Probable space group: C C C M
;
_chemical_formula_sum "Si O2"
_cell_formula_units_Z 56
_cell_length_a 12.575373
_cell_length_b 8.062118
_cell_length_c 22.445990
_cell_angle_alpha 90.000000
_cell_angle_beta 90.000000
_cell_angle_gamma 90.000000
_cell_volume 2275.667415
_symmetry_space_group_name_H-M "C C C M"
_symmetry_group_IT_number 66
_symmetry_cell_setting 'orthorhombic'
loop_
_space_group_symop_operation_xyz
x,y,z
-x,-y,z
x,-y,1/2-z
-x,y,1/2-z
-x,-y,-z
x,y,-z
-x,y,1/2+z
x,-y,1/2+z
1/2+x,1/2+y,z
1/2-x,1/2-y,z
1/2+x,1/2-y,1/2-z
1/2-x,1/2+y,1/2-z
1/2-x,1/2-y,-z
1/2+x,1/2+y,-z
1/2-x,1/2+y,1/2+z
1/2+x,1/2-y,1/2+z
loop_
_atom_site_type_symbol
_atom_site_label
_atom_site_fract_x
_atom_site_fract_y
_atom_site_fract_z
Si Si1 0.250000 0.750000 0.740361
Si Si2 0.621978 0.854300 0.866698
Si Si3 0.201379 0.988428 0.429811
Si Si4 0.573008 0.662551 0.334795
O O1 0.307019 0.872854 0.693191
O O2 0.344187 0.685011 0.781612
O O3 0.674238 0.984951 0.911531
O O4 0.650331 0.680899 0.901859
O O5 0.503250 0.819873 0.844947
O O6 0.187867 0.992858 0.500000
O O7 0.138427 0.128268 0.394735
O O8 0.500000 0.500000 0.323011
#
# Coordination Sequence:
#
# PCOD9496838 Si02
#       4
#     8  16  16  16
#     4  10  20  34  52  82 114 140 186 232 274 334
#     4   9  19  31  54  84 110 145 184 230 276 329
#     4   9  18  33  55  84 113 145 188 229 272 330
#     4  10  21  36  58  82 109 148 184 226 282 329
#
# _framework density 24.608166000000001
#
# number of rings (size 3 to 8) (size 9 to 14) (size 15 to 20)
#    0.000    2.857    0.000    2.571    0.000   22.286 
#    0.000    2.143    0.000   12.000    0.000    0.000 
#    0.000    0.000    0.000    0.000    0.000    0.000 
#
# Total GULP energy -156504.874492 kJ/mol
# GULP energy per Si atom -5589.459803 kJ/mol
# Density = 2.455216 g / cm^3
# Si number density = 24.608166 Si / 1000 Ang^3
#
#
#
# Elastic Constant Matrix: (Units=GPa)
#
#
# Indices 1 2 3 4 5 6 
#
# 1 96.6723 23.9734 59.3264 0.0000 0.0000 0.0000
# 2 23.9734 90.1892 27.6914 0.0000 0.0000 0.0000
# 3 59.3264 27.6914 230.0089 0.0000 0.0000 0.0000
# 4 0.0000 0.0000 0.0000 15.7005 0.0000 0.0000
# 5 0.0000 0.0000 0.0000 0.0000 16.3937 0.0000
# 6 0.0000 0.0000 0.0000 0.0000 0.0000 35.7474
#
#
#
# Elastic Compliance Matrix: (Units=1/GPa)
#
#
# Indices 1 2 3 4 5 6 
#
# 1 0.012803 -0.002481 -0.003004 0.000000 0.000000 0.000000
# 2 -0.002481 0.011994 -0.000804 0.000000 0.000000 0.000000
# 3 -0.003004 -0.000804 0.005219 0.000000 0.000000 0.000000
# 4 0.000000 0.000000 0.000000 0.063692 0.000000 0.000000
# 5 0.000000 0.000000 0.000000 0.000000 0.060999 0.000000
# 6 0.000000 0.000000 0.000000 0.000000 0.000000 0.027974
#
#
# Mechanical properties :
#
#
# Convention : Reuss Voigt Hill
#
# Bulk Modulus (GPa) = 57.34305 70.98364 64.16335
# Shear Modulus (GPa) = 24.86679 33.96026 29.41352
#
# Velocity S-wave (km/s) = 3.18230 3.71892 3.46103
# Velocity P-wave (km/s) = 6.07089 6.88104 6.48862
#
# Compressibility (1/GPa) = 0.01743891
#
# Stress axis : x y z
#
# Youngs Moduli (GPa) = 78.10868 83.37396 191.60148
#
# Poissons Ratio (x) = 0.20684 0.57548
# Poissons Ratio (y) = 0.19378 0.15407
# Poissons Ratio (z) = 0.23460 0.06704
#
# Static dielectric constant tensor:
#      x y z
#    x 2.058760 0.000000 0.000000 
#    y 0.000000 2.181450 0.000000 
#    z 0.000000 0.000000 1.838120 
# 
# From -- ./inp_files/56263.got.cif
#   From: 2010.05.17/outbox.cif.g08.bks.cpg/sg66_29_cif.got.tgz:56263.got - 2010.06.03 17:51:23.
