data_PCOD9496409
_publ_section_title
;
Structure prediction by ZEFSAII (Michael W. Deem and Ramdas Pophale) SiO2 
 PCOD9496409
Probable space group: C C C M
;
_chemical_formula_sum "Si O2"
_cell_formula_units_Z 64
_cell_length_a 21.808290
_cell_length_b 8.787919
_cell_length_c 15.223036
_cell_angle_alpha 90.000000
_cell_angle_beta 90.000000
_cell_angle_gamma 90.000000
_cell_volume 2917.487025
_symmetry_space_group_name_H-M "C C C M"
_symmetry_group_IT_number 66
_symmetry_cell_setting 'orthorhombic'
loop_
_space_group_symop_operation_xyz
x,y,z
-x,-y,z
x,-y,1/2-z
-x,y,1/2-z
-x,-y,-z
x,y,-z
-x,y,1/2+z
x,-y,1/2+z
1/2+x,1/2+y,z
1/2-x,1/2-y,z
1/2+x,1/2-y,1/2-z
1/2-x,1/2+y,1/2-z
1/2-x,1/2-y,-z
1/2+x,1/2+y,-z
1/2-x,1/2+y,1/2+z
1/2+x,1/2-y,1/2+z
loop_
_atom_site_type_symbol
_atom_site_label
_atom_site_fract_x
_atom_site_fract_y
_atom_site_fract_z
Si Si1 0.686391 0.934024 0.349195
Si Si2 0.442474 0.402363 0.898524
Si Si3 0.062922 0.564423 0.349161
Si Si4 0.821167 0.069779 0.847947
O O1 0.753885 0.966669 0.387587
O O2 0.676106 0.752778 0.345127
O O3 0.689920 0.000000 0.250000
O O4 0.626483 0.008831 0.391682
O O5 0.500000 0.500000 0.866001
O O6 0.437202 0.245705 0.846629
O O7 0.380133 0.498524 0.893845
O O8 0.454790 0.361267 0.000000
O O9 0.063989 0.500000 0.250000
O O10 0.000000 0.500000 0.389629
O O11 0.822763 0.000000 0.750000
#
# Coordination Sequence:
#
# PCOD9496409 Si02
#       4
#    16  16  16  16
#     4   9  18  33  56  90 121 148 190 248 301 337
#     4  11  25  42  59  84 121 159 194 241 300 351
#     4  10  20  37  61  88 116 149 197 243 284 347
#     4  10  19  35  61  86 117 156 197 244 290 348
#
# _framework density 21.936689000000001
#
# number of rings (size 3 to 8) (size 9 to 14) (size 15 to 20)
#    0.000    2.000    0.000    4.500    0.000    6.000 
#    0.000    6.250    0.000    0.000    0.000    0.000 
#    0.000    0.000    0.000    0.000    0.000    0.000 
#
# Total GULP energy -178722.422125 kJ/mol
# GULP energy per Si atom -5585.075691 kJ/mol
# Density = 2.188676 g / cm^3
# Si number density = 21.936689 Si / 1000 Ang^3
#
#
#
# Elastic Constant Matrix: (Units=GPa)
#
#
# Indices 1 2 3 4 5 6 
#
# 1 235.6771 94.2167 7.6671 0.0000 0.0000 0.0000
# 2 94.2167 161.5260 20.0106 0.0000 0.0000 0.0000
# 3 7.6671 20.0106 54.6253 0.0000 0.0000 0.0000
# 4 0.0000 0.0000 0.0000 -9.5354 0.0000 0.0000
# 5 0.0000 0.0000 0.0000 0.0000 -14.7095 0.0000
# 6 0.0000 0.0000 0.0000 0.0000 0.0000 43.2743
#
#
#
# Elastic Compliance Matrix: (Units=1/GPa)
#
#
# Indices 1 2 3 4 5 6 
#
# 1 0.005543 -0.003286 0.000426 0.000000 0.000000 0.000000
# 2 -0.003286 0.008433 -0.002628 0.000000 0.000000 0.000000
# 3 0.000426 -0.002628 0.019210 0.000000 0.000000 0.000000
# 4 0.000000 0.000000 0.000000 -0.104873 0.000000 0.000000
# 5 0.000000 0.000000 0.000000 0.000000 -0.067983 0.000000
# 6 0.000000 0.000000 0.000000 0.000000 0.000000 0.023108
#
#
# Mechanical properties :
#
#
# Convention : Reuss Voigt Hill
#
# Bulk Modulus (GPa) = 45.02664 77.29080 61.15872
# Shear Modulus (GPa) = -50.92536 25.80150 -12.56193
#
# Velocity S-wave (km/s) = -4.82339 3.43327 -2.39560
# Velocity P-wave (km/s) = 3.23262 7.14328 4.50426
#
# Compressibility (1/GPa) = 0.02220907
#
# Stress axis : x y z
#
# Youngs Moduli (GPa) = 180.41370 118.58010 52.05753
#
# Poissons Ratio (x) = 0.38963 -0.02216
# Poissons Ratio (y) = 0.59281 0.13681
# Poissons Ratio (z) = -0.07680 0.31164
#
# Static dielectric constant tensor:
#      x y z
#    x 1.885370 0.000000 0.000000 
#    y 0.000000 1.804920 0.000000 
#    z 0.000000 0.000000 1.800750 
# 
# From -- ./inp_files/42364.got.cif
#   From: 2010.05.17/outbox.cif.g08.bks.cpg/sg66_22_cif.got.tgz:42364.got - 2010.06.03 17:51:23.
