data_PCOD9496662
_publ_section_title
;
Structure prediction by ZEFSAII (Michael W. Deem and Ramdas Pophale) SiO2 
 PCOD9496662
Probable space group: C C C M
;
_chemical_formula_sum "Si O2"
_cell_formula_units_Z 128
_cell_length_a 21.265176
_cell_length_b 21.265176
_cell_length_c 11.365322
_cell_angle_alpha 90.000000
_cell_angle_beta 90.000000
_cell_angle_gamma 90.000000
_cell_volume 5139.486239
_symmetry_space_group_name_H-M "C C C M"
_symmetry_group_IT_number 66
_symmetry_cell_setting 'orthorhombic'
loop_
_space_group_symop_operation_xyz
x,y,z
-x,-y,z
x,-y,1/2-z
-x,y,1/2-z
-x,-y,-z
x,y,-z
-x,y,1/2+z
x,-y,1/2+z
1/2+x,1/2+y,z
1/2-x,1/2-y,z
1/2+x,1/2-y,1/2-z
1/2-x,1/2+y,1/2-z
1/2-x,1/2-y,-z
1/2+x,1/2+y,-z
1/2-x,1/2+y,1/2+z
1/2+x,1/2-y,1/2+z
loop_
_atom_site_type_symbol
_atom_site_label
_atom_site_fract_x
_atom_site_fract_y
_atom_site_fract_z
Si Si1 0.103722 0.490388 0.627038
Si Si2 0.617479 0.338627 0.127897
Si Si3 0.192261 0.626151 0.126148
Si Si4 0.964106 0.313282 0.372767
Si Si5 0.509612 0.603722 0.872962
Si Si6 0.161373 0.382521 0.872103
Si Si7 0.626151 0.692261 0.126148
Si Si8 0.186718 0.964106 0.872767
O O1 0.069180 0.500000 0.750000
O O2 0.073430 0.500862 0.500000
O O3 0.132147 0.420476 0.625490
O O4 0.161894 0.541319 0.634387
O O5 0.541319 0.338106 0.134387
O O6 0.652224 0.310130 0.240985
O O7 0.631140 0.413073 0.127734
O O8 0.636927 0.313527 0.000000
O O9 0.189870 0.652224 0.259015
O O10 0.252176 0.580425 0.125098
O O11 0.192459 0.661196 0.000000
O O12 0.999027 0.315268 0.500000
O O13 0.913073 0.368860 0.372266
O O14 0.919575 0.252176 0.374902
O O15 0.000000 0.314601 0.250000
O O16 0.500000 0.569180 0.750000
O O17 0.579524 0.632147 0.874510
O O18 0.499138 0.573430 0.000000
O O19 0.186473 0.363073 0.000000
O O20 0.661196 0.692459 0.000000
O O21 0.185399 0.000000 0.750000
O O22 0.184732 0.999027 0.000000
#
# Coordination Sequence:
#
# PCOD9496662 Si02
#       8
#    16  16  16  16  16  16  16  16
#     4   8  13  23  41  62  83 110 145 183 221 263
#     4   9  17  29  46  69  96 124 155 194 239 284
#     4   9  17  30  49  71  92 119 160 202 236 279
#     4  10  20  32  48  73 102 127 155 196 243 288
#     4   8  13  23  41  62  83 110 145 183 221 263
#     4   9  17  29  46  69  96 124 155 194 239 284
#     4   9  17  30  49  71  92 119 160 202 236 279
#     4  10  20  32  48  73 102 127 155 196 243 288
#
# _framework density 24.905214000000001
#
# number of rings (size 3 to 8) (size 9 to 14) (size 15 to 20)
#    0.000    3.000    0.000    2.250    0.000    4.000 
#    0.000    0.000    0.000    7.500    0.000   45.500 
#    0.000    0.000    0.000    0.000    0.000    0.000 
#
# Total GULP energy -356300.436085 kJ/mol
# GULP energy per Si atom -5567.194314 kJ/mol
# Density = 2.484853 g / cm^3
# Si number density = 24.905214 Si / 1000 Ang^3
#
#
#
# Elastic Constant Matrix: (Units=GPa)
#
#
# Indices 1 2 3 4 5 6 
#
# 1 34.0059 -0.5176 20.5897 0.0000 0.0000 0.0000
# 2 -0.5176 34.0055 20.5898 0.0000 0.0000 0.0000
# 3 20.5897 20.5898 353.8353 0.0000 0.0000 0.0000
# 4 0.0000 0.0000 0.0000 20.4853 0.0000 0.0000
# 5 0.0000 0.0000 0.0000 0.0000 20.4854 0.0000
# 6 0.0000 0.0000 0.0000 0.0000 0.0000 13.1137
#
#
#
# Elastic Compliance Matrix: (Units=1/GPa)
#
#
# Indices 1 2 3 4 5 6 
#
# 1 0.030564 0.001598 -0.001872 0.000000 0.000000 0.000000
# 2 0.001598 0.030565 -0.001872 0.000000 0.000000 0.000000
# 3 -0.001872 -0.001872 0.003044 0.000000 0.000000 0.000000
# 4 0.000000 0.000000 0.000000 0.048815 0.000000 0.000000
# 5 0.000000 0.000000 0.000000 0.000000 0.048815 0.000000
# 6 0.000000 0.000000 0.000000 0.000000 0.000000 0.076256
#
#
# Mechanical properties :
#
#
# Convention : Reuss Voigt Hill
#
# Bulk Modulus (GPa) = 16.69917 55.90783 36.30350
# Shear Modulus (GPa) = 19.06141 36.22919 27.64530
#
# Velocity S-wave (km/s) = 2.76951 3.81817 3.33531
# Velocity P-wave (km/s) = 4.11662 6.47571 5.42593
#
# Compressibility (1/GPa) = 0.05988322
#
# Stress axis : x y z
#
# Youngs Moduli (GPa) = 32.71810 32.71762 328.51663
#
# Poissons Ratio (x) = -0.05230 0.61483
# Poissons Ratio (y) = -0.05230 0.61484
# Poissons Ratio (z) = 0.06123 0.06123
#
# Static dielectric constant tensor:
#      x y z
#    x 1.989340 0.000000 0.000000 
#    y 0.000000 1.989340 0.000000 
#    z 0.000000 0.000000 2.135510 
# 
# From -- ./inp_files/20058.got.cif
#   From: 2010.05.17/outbox.cif.g08.bks.cpg/sg66_11_cif.got.tgz:20058.got - 2010.06.03 17:51:23.
