data_PCOD9496541
_publ_section_title
;
Structure prediction by ZEFSAII (Michael W. Deem and Ramdas Pophale) SiO2 
 PCOD9496541
Probable space group: C C C M
;
_chemical_formula_sum "Si O2"
_cell_formula_units_Z 84
_cell_length_a 10.909209
_cell_length_b 23.019406
_cell_length_c 14.522831
_cell_angle_alpha 90.000000
_cell_angle_beta 90.000000
_cell_angle_gamma 90.000000
_cell_volume 3647.024312
_symmetry_space_group_name_H-M "C C C M"
_symmetry_group_IT_number 66
_symmetry_cell_setting 'orthorhombic'
loop_
_space_group_symop_operation_xyz
x,y,z
-x,-y,z
x,-y,1/2-z
-x,y,1/2-z
-x,-y,-z
x,y,-z
-x,y,1/2+z
x,-y,1/2+z
1/2+x,1/2+y,z
1/2-x,1/2-y,z
1/2+x,1/2-y,1/2-z
1/2-x,1/2+y,1/2-z
1/2-x,1/2-y,-z
1/2+x,1/2+y,-z
1/2-x,1/2+y,1/2+z
1/2+x,1/2-y,1/2+z
loop_
_atom_site_type_symbol
_atom_site_label
_atom_site_fract_x
_atom_site_fract_y
_atom_site_fract_z
Si Si1 0.235247 0.316607 0.893391
Si Si2 0.634952 0.900393 0.742564
Si Si3 0.633348 0.207680 0.891699
Si Si4 0.890893 0.068097 0.177764
Si Si5 0.000000 0.000000 0.000000
Si Si6 0.014174 0.818160 0.893935
O O1 0.250000 0.250000 0.859238
O O2 0.161199 0.362601 0.834378
O O3 0.375323 0.339568 0.892326
O O4 0.193412 0.313168 0.000000
O O5 0.500000 0.928132 0.750000
O O6 0.629015 0.850648 0.664585
O O7 0.753917 0.938977 0.717478
O O8 0.750000 0.250000 0.875143
O O9 0.523147 0.251338 0.865095
O O10 0.629174 0.194534 0.000000
O O11 0.000000 0.056842 0.250000
O O12 0.903282 0.137529 0.160751
O O13 0.922790 0.035321 0.082647
O O14 0.055791 0.818972 0.000000
#
# Coordination Sequence:
#
# PCOD9496541 Si02
#       6
#    16  16  16  16   4  16
#     4  10  21  37  56  90 145 200 242 277 324 404
#     4  12  25  38  64 104 150 191 232 286 352 441
#     4  10  20  32  56  97 149 202 244 280 327 406
#     4  12  25  47  76 106 134 174 235 304 373 441
#     4  12  30  52  84 110 122 164 244 334 398 432
#     4  10  19  37  63  95 135 186 241 285 328 403
#
# _framework density 23.032475000000002
#
# number of rings (size 3 to 8) (size 9 to 14) (size 15 to 20)
#    0.000    1.143    4.762    2.000    1.333    3.048 
#    0.000    0.000    0.000    3.429    0.000    0.000 
#    0.000    0.000    0.000    0.000    0.000    0.000 
#
# Total GULP energy -234283.594888 kJ/mol
# GULP energy per Si atom -5578.180831 kJ/mol
# Density = 2.298005 g / cm^3
# Si number density = 23.032475 Si / 1000 Ang^3
#
#
#
# Elastic Constant Matrix: (Units=GPa)
#
#
# Indices 1 2 3 4 5 6 
#
# 1 184.4388 31.1813 50.9475 0.0000 0.0000 0.0000
# 2 31.1813 90.2440 37.4987 0.0000 0.0000 0.0000
# 3 50.9475 37.4987 138.0114 0.0000 0.0000 0.0000
# 4 0.0000 0.0000 0.0000 34.4797 0.0000 0.0000
# 5 0.0000 0.0000 0.0000 0.0000 11.6146 0.0000
# 6 0.0000 0.0000 0.0000 0.0000 0.0000 -39.9361
#
#
#
# Elastic Compliance Matrix: (Units=1/GPa)
#
#
# Indices 1 2 3 4 5 6 
#
# 1 0.006178 -0.001338 -0.001917 0.000000 0.000000 0.000000
# 2 -0.001338 0.012781 -0.002979 0.000000 0.000000 0.000000
# 3 -0.001917 -0.002979 0.008763 0.000000 0.000000 0.000000
# 4 0.000000 0.000000 0.000000 0.029003 0.000000 0.000000
# 5 0.000000 0.000000 0.000000 0.000000 0.086099 0.000000
# 6 0.000000 0.000000 0.000000 0.000000 0.000000 -0.025040
#
#
# Mechanical properties :
#
#
# Convention : Reuss Voigt Hill
#
# Bulk Modulus (GPa) = 65.55625 72.43877 68.99751
# Shear Modulus (GPa) = 36.94539 20.76942 28.85741
#
# Velocity S-wave (km/s) = 4.00941 3.00616 3.54347
# Velocity P-wave (km/s) = 7.06811 6.60063 6.83837
#
# Compressibility (1/GPa) = 0.01525408
#
# Stress axis : x y z
#
# Youngs Moduli (GPa) = 161.87612 78.24035 114.11883
#
# Poissons Ratio (x) = 0.10468 0.21876
# Poissons Ratio (y) = 0.21658 0.33994
# Poissons Ratio (z) = 0.31031 0.23306
#
# Static dielectric constant tensor:
#      x y z
#    x 2.015700 0.000000 0.000000 
#    y 0.000000 1.854840 0.000000 
#    z 0.000000 0.000000 1.863950 
# 
# From -- ./inp_files/26559.got.cif
#   From: 2010.05.17/outbox.cif.g08.bks.cpg/sg66_14_cif.got.tgz:26559.got - 2010.06.03 17:51:23.
