data_PCOD9496716
_publ_section_title
;
Structure prediction by ZEFSAII (Michael W. Deem and Ramdas Pophale) SiO2 
 PCOD9496716
Probable space group: C C C M
;
_chemical_formula_sum "Si O2"
_cell_formula_units_Z 100
_cell_length_a 11.891380
_cell_length_b 15.319702
_cell_length_c 31.100245
_cell_angle_alpha 90.000000
_cell_angle_beta 90.000000
_cell_angle_gamma 90.000000
_cell_volume 5665.606209
_symmetry_space_group_name_H-M "C C C M"
_symmetry_group_IT_number 66
_symmetry_cell_setting 'orthorhombic'
loop_
_space_group_symop_operation_xyz
x,y,z
-x,-y,z
x,-y,1/2-z
-x,y,1/2-z
-x,-y,-z
x,y,-z
-x,y,1/2+z
x,-y,1/2+z
1/2+x,1/2+y,z
1/2-x,1/2-y,z
1/2+x,1/2-y,1/2-z
1/2-x,1/2+y,1/2-z
1/2-x,1/2-y,-z
1/2+x,1/2+y,-z
1/2-x,1/2+y,1/2+z
1/2+x,1/2-y,1/2+z
loop_
_atom_site_type_symbol
_atom_site_label
_atom_site_fract_x
_atom_site_fract_y
_atom_site_fract_z
Si Si1 0.900370 0.428121 0.548472
Si Si2 0.652783 0.321582 0.148572
Si Si3 0.676677 0.896861 0.807975
Si Si4 0.629273 0.605240 0.744111
Si Si5 0.500000 0.000000 0.250000
Si Si6 0.509473 0.174963 0.375829
Si Si7 0.299150 0.961212 0.879078
O O1 0.864847 0.407012 0.500000
O O2 0.943779 0.346274 0.576661
O O3 0.814023 0.478630 0.579363
O O4 0.000000 0.500000 0.545495
O O5 0.750000 0.250000 0.149400
O O6 0.652623 0.363028 0.195949
O O7 0.545084 0.268581 0.132796
O O8 0.694851 0.396736 0.116951
O O9 0.778395 0.861448 0.778602
O O10 0.608376 0.836385 0.841021
O O11 0.582007 0.938556 0.777295
O O12 0.717705 0.975861 0.838438
O O13 0.634785 0.500000 0.750000
O O14 0.500000 0.632837 0.750000
O O15 0.412214 0.098465 0.370515
#
# Coordination Sequence:
#
# PCOD9496716 Si02
#       7
#    16  16  16  16   4  16  16
#     4   8  14  26  47  72 100 135 175 217 266 340
#     4  10  20  33  47  70 104 140 170 221 278 316
#     4  11  18  30  51  71  92 134 186 224 254 311
#     4  11  23  36  48  66  99 143 181 220 263 318
#     4  12  16  24  50  72  90 120 186 226 244 292
#     4   9  18  29  47  72 103 133 173 225 280 318
#     4   9  15  30  45  71 102 132 171 219 272 327
#
# _framework density 17.650361
#
# number of rings (size 3 to 8) (size 9 to 14) (size 15 to 20)
#    0.000    2.240    4.000    0.960    2.240    1.280 
#    0.000    0.800    0.000    4.800    0.000    0.000 
#    0.000   20.480    0.000    0.000    0.000    0.000 
#
# Total GULP energy -278412.441211 kJ/mol
# GULP energy per Si atom -5568.248824 kJ/mol
# Density = 1.761019 g / cm^3
# Si number density = 17.650361 Si / 1000 Ang^3
#
#
#
# Elastic Constant Matrix: (Units=GPa)
#
#
# Indices 1 2 3 4 5 6 
#
# 1 84.4710 34.1151 50.3072 0.0000 0.0000 0.0000
# 2 34.1151 68.9091 46.4669 0.0000 0.0000 0.0000
# 3 50.3072 46.4669 143.4840 0.0000 0.0000 0.0000
# 4 0.0000 0.0000 0.0000 12.9820 0.0000 0.0000
# 5 0.0000 0.0000 0.0000 0.0000 2.9977 0.0000
# 6 0.0000 0.0000 0.0000 0.0000 0.0000 -13.6012
#
#
#
# Elastic Compliance Matrix: (Units=1/GPa)
#
#
# Indices 1 2 3 4 5 6 
#
# 1 0.016411 -0.005431 -0.003995 0.000000 0.000000 0.000000
# 2 -0.005431 0.020363 -0.004691 0.000000 0.000000 0.000000
# 3 -0.003995 -0.004691 0.009889 0.000000 0.000000 0.000000
# 4 0.000000 0.000000 0.000000 0.077029 0.000000 0.000000
# 5 0.000000 0.000000 0.000000 0.000000 0.333585 0.000000
# 6 0.000000 0.000000 0.000000 0.000000 0.000000 -0.073523
#
#
# Mechanical properties :
#
#
# Convention : Reuss Voigt Hill
#
# Bulk Modulus (GPa) = 54.25697 62.07137 58.16417
# Shear Modulus (GPa) = 11.95795 11.54071 11.74933
#
# Velocity S-wave (km/s) = 2.60569 2.55983 2.58286
# Velocity P-wave (km/s) = 6.31343 6.63178 6.47456
#
# Compressibility (1/GPa) = 0.01843081
#
# Stress axis : x y z
#
# Youngs Moduli (GPa) = 60.93481 49.10775 101.12026
#
# Poissons Ratio (x) = 0.26668 0.40400
# Poissons Ratio (y) = 0.33091 0.47431
# Poissons Ratio (z) = 0.24345 0.23034
#
# Static dielectric constant tensor:
#      x y z
#    x 1.642110 0.000000 0.000000 
#    y 0.000000 1.635790 0.000000 
#    z 0.000000 0.000000 1.658950 
# 
# From -- ./inp_files/69030.got.cif
#   From: 2010.05.17/outbox.cif.g08.bks.cpg/sg66_35_cif.got.tgz:69030.got - 2010.06.03 17:51:23.
