data_PCOD9496518
_publ_section_title
;
Structure prediction by ZEFSAII (Michael W. Deem and Ramdas Pophale) SiO2 
 PCOD9496518
Probable space group: C C C M
;
_chemical_formula_sum "Si O2"
_cell_formula_units_Z 112
_cell_length_a 15.426334
_cell_length_b 14.829210
_cell_length_c 28.486257
_cell_angle_alpha 90.000000
_cell_angle_beta 90.000000
_cell_angle_gamma 90.000000
_cell_volume 6516.526019
_symmetry_space_group_name_H-M "C C C M"
_symmetry_group_IT_number 66
_symmetry_cell_setting 'orthorhombic'
loop_
_space_group_symop_operation_xyz
x,y,z
-x,-y,z
x,-y,1/2-z
-x,y,1/2-z
-x,-y,-z
x,y,-z
-x,y,1/2+z
x,-y,1/2+z
1/2+x,1/2+y,z
1/2-x,1/2-y,z
1/2+x,1/2-y,1/2-z
1/2-x,1/2+y,1/2-z
1/2-x,1/2-y,-z
1/2+x,1/2+y,-z
1/2-x,1/2+y,1/2+z
1/2+x,1/2-y,1/2+z
loop_
_atom_site_type_symbol
_atom_site_label
_atom_site_fract_x
_atom_site_fract_y
_atom_site_fract_z
Si Si1 0.225869 0.506884 0.306514
Si Si2 0.083054 0.038802 0.302864
Si Si3 0.904485 0.614174 0.054080
Si Si4 0.988451 0.240805 0.803175
Si Si5 0.112052 0.401248 0.553430
Si Si6 0.826763 0.677405 0.645946
Si Si7 0.162002 0.693747 0.649439
O O1 0.222627 0.500000 0.250000
O O2 0.326371 0.495945 0.322642
O O3 0.186396 0.416437 0.327454
O O4 0.180271 0.597877 0.324502
O O5 0.058740 0.143467 0.298728
O O6 0.084917 0.000000 0.250000
O O7 0.000000 0.000000 0.329499
O O8 0.878422 0.509043 0.060641
O O9 0.862244 0.671540 0.095555
O O10 0.009060 0.617678 0.058642
O O11 0.883011 0.639393 0.000000
O O12 0.919765 0.291219 0.835490
O O13 0.000000 0.275865 0.750000
O O14 0.082838 0.251110 0.826733
O O15 0.136442 0.380601 0.500000
O O16 0.165531 0.345434 0.591146
O O17 0.750000 0.750000 0.655509
O O18 0.250000 0.750000 0.652918
#
# Coordination Sequence:
#
# PCOD9496518 Si02
#       7
#    16  16  16  16  16  16  16
#     4  11  24  39  56  83 123 162 197 248 294 344
#     4  10  19  37  60  76 108 164 211 236 275 336
#     4   9  18  37  63  85 109 149 193 241 302 366
#     4  12  24  38  58  88 119 160 204 244 286 348
#     4   9  18  37  63  85 111 147 191 244 304 364
#     4  12  23  38  61  90 118 151 202 251 301 354
#     4  12  25  38  59  90 120 154 203 248 296 353
#
# _framework density 17.187072000000001
#
# number of rings (size 3 to 8) (size 9 to 14) (size 15 to 20)
#    0.000    1.286    5.714    2.571    2.000    2.286 
#    0.000    1.429    0.000    0.000    0.000    0.000 
#    0.000    9.143    0.000    0.000    0.000    0.000 
#
# Total GULP energy -312011.583267 kJ/mol
# GULP energy per Si atom -5571.635415 kJ/mol
# Density = 1.714795 g / cm^3
# Si number density = 17.187072 Si / 1000 Ang^3
#
#
#
# Elastic Constant Matrix: (Units=GPa)
#
#
# Indices 1 2 3 4 5 6 
#
# 1 78.0470 17.3048 25.0838 0.0000 0.0000 0.0000
# 2 17.3048 71.9645 30.6467 0.0000 0.0000 0.0000
# 3 25.0838 30.6467 102.5592 0.0000 0.0000 0.0000
# 4 0.0000 0.0000 0.0000 -16.6469 0.0000 0.0000
# 5 0.0000 0.0000 0.0000 0.0000 19.7750 0.0000
# 6 0.0000 0.0000 0.0000 0.0000 0.0000 22.1038
#
#
#
# Elastic Compliance Matrix: (Units=1/GPa)
#
#
# Indices 1 2 3 4 5 6 
#
# 1 0.014209 -0.002219 -0.002812 0.000000 0.000000 0.000000
# 2 -0.002219 0.016268 -0.004319 0.000000 0.000000 0.000000
# 3 -0.002812 -0.004319 0.011729 0.000000 0.000000 0.000000
# 4 0.000000 0.000000 0.000000 -0.060071 0.000000 0.000000
# 5 0.000000 0.000000 0.000000 0.000000 0.050569 0.000000
# 6 0.000000 0.000000 0.000000 0.000000 0.000000 0.045241
#
#
# Mechanical properties :
#
#
# Convention : Reuss Voigt Hill
#
# Bulk Modulus (GPa) = 42.54174 44.29349 43.41762
# Shear Modulus (GPa) = 47.85648 17.01543 32.43595
#
# Velocity S-wave (km/s) = 5.28251 3.14986 4.34894
# Velocity P-wave (km/s) = 7.87480 6.24949 7.10875
#
# Compressibility (1/GPa) = 0.02350632
#
# Stress axis : x y z
#
# Youngs Moduli (GPa) = 70.38002 61.46865 85.26094
#
# Poissons Ratio (x) = 0.13641 0.23975
# Poissons Ratio (y) = 0.15618 0.36821
# Poissons Ratio (z) = 0.19791 0.26546
#
# Static dielectric constant tensor:
#      x y z
#    x 1.948920 0.000000 0.000000 
#    y 0.000000 0.581530 0.000000 
#    z 0.000000 0.000000 1.577060 
# 
# From -- ./inp_files/58235.got.cif
#   From: 2010.05.17/outbox.cif.g08.bks.cpg/sg66_30_cif.got.tgz:58235.got - 2010.06.03 17:51:23.
