data_PCOD9496906
_publ_section_title
;
Structure prediction by ZEFSAII (Michael W. Deem and Ramdas Pophale) SiO2 
 PCOD9496906
Probable space group: C C C M
;
_chemical_formula_sum "Si O2"
_cell_formula_units_Z 116
_cell_length_a 18.039615
_cell_length_b 24.415430
_cell_length_c 14.502015
_cell_angle_alpha 90.000000
_cell_angle_beta 90.000000
_cell_angle_gamma 90.000000
_cell_volume 6387.339377
_symmetry_space_group_name_H-M "C C C M"
_symmetry_group_IT_number 66
_symmetry_cell_setting 'orthorhombic'
loop_
_space_group_symop_operation_xyz
x,y,z
-x,-y,z
x,-y,1/2-z
-x,y,1/2-z
-x,-y,-z
x,y,-z
-x,y,1/2+z
x,-y,1/2+z
1/2+x,1/2+y,z
1/2-x,1/2-y,z
1/2+x,1/2-y,1/2-z
1/2-x,1/2+y,1/2-z
1/2-x,1/2-y,-z
1/2+x,1/2+y,-z
1/2-x,1/2+y,1/2+z
1/2+x,1/2-y,1/2+z
loop_
_atom_site_type_symbol
_atom_site_label
_atom_site_fract_x
_atom_site_fract_y
_atom_site_fract_z
Si Si1 0.364596 0.147156 0.307034
Si Si2 0.138539 0.616047 0.602406
Si Si3 0.977850 0.561093 0.606129
Si Si4 0.000000 0.000000 0.250000
Si Si5 0.729347 0.454870 0.328666
Si Si6 0.805590 0.128697 0.178753
Si Si7 0.839365 0.759417 0.606305
Si Si8 0.391017 0.465660 0.598381
O O1 0.357995 0.151863 0.195878
O O2 0.420617 0.098261 0.335387
O O3 0.282012 0.132644 0.341563
O O4 0.380087 0.205848 0.353533
O O5 0.152788 0.640062 0.500000
O O6 0.198633 0.567603 0.619464
O O7 0.055751 0.592544 0.602408
O O8 0.949349 0.555848 0.500000
O O9 0.000000 0.500000 0.639192
O O10 0.052317 0.966072 0.182528
O O11 0.750397 0.500000 0.250000
O O12 0.692935 0.403187 0.275948
O O13 0.666913 0.484709 0.388029
O O14 0.845074 0.187005 0.170063
O O15 0.843213 0.088811 0.106361
O O16 0.861616 0.769206 0.500000
O O17 0.750000 0.750000 0.605239
O O18 0.428092 0.468988 0.500000
#
# Coordination Sequence:
#
# PCOD9496906 Si02
#       8
#    16  16  16   4  16  16  16  16
#     4  10  20  34  56  77 113 152 183 238 293 323
#     4  10  21  34  50  75 110 151 196 225 260 328
#     4  10  22  34  49  80 114 151 192 233 279 335
#     4  12  22  40  52  82 116 134 170 220 266 354
#     4   9  18  34  54  82 111 145 181 223 273 329
#     4   9  18  34  56  85 112 138 186 234 281 336
#     4   9  17  31  54  84 108 134 181 239 288 327
#     4  11  21  35  59  82 112 148 175 217 279 337
#
# _framework density 18.160927000000001
#
# number of rings (size 3 to 8) (size 9 to 14) (size 15 to 20)
#    0.000    2.207    2.069    1.862    5.793    2.207 
#    0.000    0.000    3.034   11.172    0.000    0.000 
#    0.000    0.000    0.000    0.000    0.000    0.000 
#
# Total GULP energy -322980.548083 kJ/mol
# GULP energy per Si atom -5568.630139 kJ/mol
# Density = 1.811959 g / cm^3
# Si number density = 18.160927 Si / 1000 Ang^3
#
#
#
# Elastic Constant Matrix: (Units=GPa)
#
#
# Indices 1 2 3 4 5 6 
#
# 1 61.8310 22.6900 30.4042 0.0000 0.0000 0.0000
# 2 22.6900 107.5337 38.4044 0.0000 0.0000 0.0000
# 3 30.4042 38.4044 117.2633 0.0000 0.0000 0.0000
# 4 0.0000 0.0000 0.0000 -2.5333 0.0000 0.0000
# 5 0.0000 0.0000 0.0000 0.0000 -4.9319 0.0000
# 6 0.0000 0.0000 0.0000 0.0000 0.0000 18.2489
#
#
#
# Elastic Compliance Matrix: (Units=1/GPa)
#
#
# Indices 1 2 3 4 5 6 
#
# 1 0.019142 -0.002567 -0.004123 0.000000 0.000000 0.000000
# 2 -0.002567 0.010875 -0.002896 0.000000 0.000000 0.000000
# 3 -0.004123 -0.002896 0.010545 0.000000 0.000000 0.000000
# 4 0.000000 0.000000 0.000000 -0.394744 0.000000 0.000000
# 5 0.000000 0.000000 0.000000 0.000000 -0.202760 0.000000
# 6 0.000000 0.000000 0.000000 0.000000 0.000000 0.054798
#
#
# Mechanical properties :
#
#
# Convention : Reuss Voigt Hill
#
# Bulk Modulus (GPa) = 46.74709 52.18058 49.46384
# Shear Modulus (GPa) = -10.50768 15.16537 2.32884
#
# Velocity S-wave (km/s) = -2.40799 2.89287 1.13363
# Velocity P-wave (km/s) = 4.25031 6.32083 5.38600
#
# Compressibility (1/GPa) = 0.02139170
#
# Stress axis : x y z
#
# Youngs Moduli (GPa) = 52.24049 91.95105 94.82925
#
# Poissons Ratio (x) = 0.23601 0.39094
# Poissons Ratio (y) = 0.13409 0.27465
# Poissons Ratio (z) = 0.21537 0.26631
#
# Static dielectric constant tensor:
#      x y z
#    x 1.622490 0.000000 0.000000 
#    y 0.000000 1.635170 0.000000 
#    z 0.000000 0.000000 1.683230 
# 
# From -- ./inp_files/30365.got.cif
#   From: 2010.05.17/outbox.cif.g08.bks.cpg/sg66_16_cif.got.tgz:30365.got - 2010.06.03 17:51:23.
