data_PCOD9496322
_publ_section_title
;
Structure prediction by ZEFSAII (Michael W. Deem and Ramdas Pophale) SiO2 
 PCOD9496322
Probable space group: C C C M
;
_chemical_formula_sum "Si O2"
_cell_formula_units_Z 52
_cell_length_a 10.883741
_cell_length_b 13.475850
_cell_length_c 15.027094
_cell_angle_alpha 90.000000
_cell_angle_beta 90.000000
_cell_angle_gamma 90.000000
_cell_volume 2203.988731
_symmetry_space_group_name_H-M "C C C M"
_symmetry_group_IT_number 66
_symmetry_cell_setting 'orthorhombic'
loop_
_space_group_symop_operation_xyz
x,y,z
-x,-y,z
x,-y,1/2-z
-x,y,1/2-z
-x,-y,-z
x,y,-z
-x,y,1/2+z
x,-y,1/2+z
1/2+x,1/2+y,z
1/2-x,1/2-y,z
1/2+x,1/2-y,1/2-z
1/2-x,1/2+y,1/2-z
1/2-x,1/2-y,-z
1/2+x,1/2+y,-z
1/2-x,1/2+y,1/2+z
1/2+x,1/2-y,1/2+z
loop_
_atom_site_type_symbol
_atom_site_label
_atom_site_fract_x
_atom_site_fract_y
_atom_site_fract_z
Si Si1 0.572283 0.105609 0.642834
Si Si2 0.679221 0.540127 0.097539
Si Si3 0.828835 0.652866 0.340222
Si Si4 0.000000 0.000000 0.750000
O O1 0.460990 0.176590 0.614720
O O2 0.622323 0.117691 0.743620
O O3 0.500000 0.000000 0.629962
O O4 0.701365 0.109927 0.594520
O O5 0.744255 0.432900 0.117432
O O6 0.588236 0.558659 0.180757
O O7 0.621957 0.541647 0.000000
O O8 0.750000 0.750000 0.332169
#
# Coordination Sequence:
#
# PCOD9496322 Si02
#       4
#    16  16  16   4
#     4   9  18  39  63  88 123 172 218 251 308 377
#     4  11  22  39  65  91 121 166 215 263 314 376
#     4  10  19  34  61  94 130 164 203 256 323 378
#     4  12  22  40  62  86 120 160 212 278 308 370
#
# _framework density 23.593586999999999
#
# number of rings (size 3 to 8) (size 9 to 14) (size 15 to 20)
#    0.000    1.846    3.077    6.000    0.000    8.615 
#    0.000    0.000    0.000    0.923    0.000    0.000 
#    0.000    0.000    0.000    0.000    0.000    0.000 
#
# Total GULP energy -144769.845324 kJ/mol
# GULP energy per Si atom -5568.070974 kJ/mol
# Density = 2.353989 g / cm^3
# Si number density = 23.593587 Si / 1000 Ang^3
#
#
#
# Elastic Constant Matrix: (Units=GPa)
#
#
# Indices 1 2 3 4 5 6 
#
# 1 193.2953 23.6028 51.3517 0.0000 0.0000 0.0000
# 2 23.6028 23.2117 -5.8928 0.0000 0.0000 0.0000
# 3 51.3517 -5.8928 150.2857 0.0000 0.0000 0.0000
# 4 0.0000 0.0000 0.0000 -1.5150 0.0000 0.0000
# 5 0.0000 0.0000 0.0000 0.0000 -62.7359 0.0000
# 6 0.0000 0.0000 0.0000 0.0000 0.0000 36.6189
#
#
#
# Elastic Compliance Matrix: (Units=1/GPa)
#
#
# Indices 1 2 3 4 5 6 
#
# 1 0.006794 -0.007573 -0.002618 0.000000 0.000000 0.000000
# 2 -0.007573 0.051956 0.004625 0.000000 0.000000 0.000000
# 3 -0.002618 0.004625 0.007730 0.000000 0.000000 0.000000
# 4 0.000000 0.000000 0.000000 -0.660057 0.000000 0.000000
# 5 0.000000 0.000000 0.000000 0.000000 -0.015940 0.000000
# 6 0.000000 0.000000 0.000000 0.000000 0.000000 0.027308
#
#
# Mechanical properties :
#
#
# Convention : Reuss Voigt Hill
#
# Bulk Modulus (GPa) = 18.06772 56.10178 37.08475
# Shear Modulus (GPa) = -9.04770 14.32233 2.63731
#
# Velocity S-wave (km/s) = -1.96039 2.46650 1.05841
# Velocity P-wave (km/s) = 1.59698 5.65168 4.15282
#
# Compressibility (1/GPa) = 0.05534733
#
# Stress axis : x y z
#
# Youngs Moduli (GPa) = 147.19448 19.24693 129.36611
#
# Poissons Ratio (x) = 0.14576 0.33872
# Poissons Ratio (y) = 1.11469 -0.59830
# Poissons Ratio (z) = 0.38540 -0.08901
#
# Static dielectric constant tensor:
#      x y z
#    x 2.021060 0.000000 0.000000 
#    y 0.000000 1.934640 0.000000 
#    z 0.000000 0.000000 2.034650 
# 
# From -- ./inp_files/25523.got.cif
#   From: 2010.05.17/outbox.cif.g08.bks.cpg/sg66_13_cif.got.tgz:25523.got - 2010.06.03 17:51:23.
