data_PCOD9496614
_publ_section_title
;
Structure prediction by ZEFSAII (Michael W. Deem and Ramdas Pophale) SiO2 
 PCOD9496614
Probable space group: C C C M
;
_chemical_formula_sum "Si O2"
_cell_formula_units_Z 88
_cell_length_a 16.541050
_cell_length_b 7.572521
_cell_length_c 25.816325
_cell_angle_alpha 90.000000
_cell_angle_beta 90.000000
_cell_angle_gamma 90.000000
_cell_volume 3233.686999
_symmetry_space_group_name_H-M "C C C M"
_symmetry_group_IT_number 66
_symmetry_cell_setting 'orthorhombic'
loop_
_space_group_symop_operation_xyz
x,y,z
-x,-y,z
x,-y,1/2-z
-x,y,1/2-z
-x,-y,-z
x,y,-z
-x,y,1/2+z
x,-y,1/2+z
1/2+x,1/2+y,z
1/2-x,1/2-y,z
1/2+x,1/2-y,1/2-z
1/2-x,1/2+y,1/2-z
1/2-x,1/2-y,-z
1/2+x,1/2+y,-z
1/2-x,1/2+y,1/2+z
1/2+x,1/2-y,1/2+z
loop_
_atom_site_type_symbol
_atom_site_label
_atom_site_fract_x
_atom_site_fract_y
_atom_site_fract_z
Si Si1 0.338887 0.638538 0.169818
Si Si2 0.588664 0.798750 0.766262
Si Si3 0.842915 0.809690 0.443138
Si Si4 0.404119 0.285029 0.940919
Si Si5 0.500000 0.500000 0.867055
Si Si6 0.188105 0.590922 0.635879
O O1 0.346718 0.711658 0.227475
O O2 0.359966 0.750944 0.116908
O O3 0.419111 0.515276 0.166544
O O4 0.248726 0.947423 0.159810
O O5 0.500000 0.726048 0.750000
O O6 0.622731 0.835937 0.823268
O O7 0.582702 0.000000 0.750000
O O8 0.879663 0.763796 0.500000
O O9 0.750000 0.750000 0.447413
O O10 0.853982 0.025659 0.439097
O O11 0.481208 0.338269 0.906253
O O12 0.358770 0.112440 0.918964
O O13 0.425142 0.257185 0.000000
O O14 0.250000 0.750000 0.629475
#
# Coordination Sequence:
#
# PCOD9496614 Si02
#       6
#    16  16  16  16   8  16
#     4  11  25  44  73 101 143 188 241 310 371 445
#     4  11  29  51  72  99 142 192 244 313 383 455
#     4   9  19  36  62  98 134 177 228 285 353 423
#     4  10  21  40  67 103 148 191 242 306 366 438
#     4  10  19  42  67 106 142 192 252 296 364 448
#     4  12  25  43  67 108 139 187 250 306 370 447
#
# _framework density 27.213519000000002
#
# number of rings (size 3 to 8) (size 9 to 14) (size 15 to 20)
#    0.000    1.455    3.636    1.364    5.091    1.818 
#    0.000    0.000    0.000    0.000    0.000    3.818 
#    0.000    0.000    0.000    0.000    0.000    0.000 
#
# Total GULP energy -245005.491807 kJ/mol
# GULP energy per Si atom -5568.306632 kJ/mol
# Density = 2.715158 g / cm^3
# Si number density = 27.213519 Si / 1000 Ang^3
#
#
#
# Elastic Constant Matrix: (Units=GPa)
#
#
# Indices 1 2 3 4 5 6 
#
# 1 156.4443 30.0070 37.0680 0.0000 0.0000 0.0000
# 2 30.0070 45.1752 -3.5940 0.0000 0.0000 0.0000
# 3 37.0680 -3.5940 139.5969 0.0000 0.0000 0.0000
# 4 0.0000 0.0000 0.0000 24.0821 0.0000 0.0000
# 5 0.0000 0.0000 0.0000 0.0000 38.2147 0.0000
# 6 0.0000 0.0000 0.0000 0.0000 0.0000 44.4033
#
#
#
# Elastic Compliance Matrix: (Units=1/GPa)
#
#
# Indices 1 2 3 4 5 6 
#
# 1 0.007978 -0.005479 -0.002260 0.000000 0.000000 0.000000
# 2 -0.005479 0.025945 0.002123 0.000000 0.000000 0.000000
# 3 -0.002260 0.002123 0.007818 0.000000 0.000000 0.000000
# 4 0.000000 0.000000 0.000000 0.041525 0.000000 0.000000
# 5 0.000000 0.000000 0.000000 0.000000 0.026168 0.000000
# 6 0.000000 0.000000 0.000000 0.000000 0.000000 0.022521
#
#
# Mechanical properties :
#
#
# Convention : Reuss Voigt Hill
#
# Bulk Modulus (GPa) = 32.77721 52.01981 42.39851
# Shear Modulus (GPa) = 32.60384 39.85573 36.22978
#
# Velocity S-wave (km/s) = 3.46508 3.83110 3.65268
# Velocity P-wave (km/s) = 5.29902 6.22308 5.77955
#
# Compressibility (1/GPa) = 0.03050900
#
# Stress axis : x y z
#
# Youngs Moduli (GPa) = 125.33809 38.54381 127.90750
#
# Poissons Ratio (x) = 0.21119 0.28902
# Poissons Ratio (y) = 0.68677 -0.27154
# Poissons Ratio (z) = 0.28322 -0.08183
#
# Static dielectric constant tensor:
#      x y z
#    x 2.207580 0.000000 0.000000 
#    y 0.000000 2.581990 0.000000 
#    z 0.000000 0.000000 1.987980 
# 
# From -- ./inp_files/59393.got.cif
#   From: 2010.05.17/outbox.cif.g08.bks.cpg/sg66_30_cif.got.tgz:59393.got - 2010.06.03 17:51:23.
