data_PCOD9496130
_publ_section_title
;
Structure prediction by ZEFSAII (Michael W. Deem and Ramdas Pophale) SiO2 
 PCOD9496130
Probable space group: C C C M
;
_chemical_formula_sum "Si O2"
_cell_formula_units_Z 80
_cell_length_a 22.585720
_cell_length_b 14.622008
_cell_length_c 9.741544
_cell_angle_alpha 90.000000
_cell_angle_beta 90.000000
_cell_angle_gamma 90.000000
_cell_volume 3217.131059
_symmetry_space_group_name_H-M "C C C M"
_symmetry_group_IT_number 66
_symmetry_cell_setting 'orthorhombic'
loop_
_space_group_symop_operation_xyz
x,y,z
-x,-y,z
x,-y,1/2-z
-x,y,1/2-z
-x,-y,-z
x,y,-z
-x,y,1/2+z
x,-y,1/2+z
1/2+x,1/2+y,z
1/2-x,1/2-y,z
1/2+x,1/2-y,1/2-z
1/2-x,1/2+y,1/2-z
1/2-x,1/2-y,-z
1/2+x,1/2+y,-z
1/2-x,1/2+y,1/2+z
1/2+x,1/2-y,1/2+z
loop_
_atom_site_type_symbol
_atom_site_label
_atom_site_fract_x
_atom_site_fract_y
_atom_site_fract_z
Si Si1 0.424411 0.936630 0.500000
Si Si2 0.000000 0.641835 0.250000
Si Si3 0.592390 0.599615 0.000000
Si Si4 0.769683 0.144561 0.500000
Si Si5 0.639722 0.596535 0.500000
Si Si6 0.902948 0.784473 0.751256
Si Si7 0.325624 0.119065 0.205933
Si Si8 0.728323 0.857972 0.500000
O O1 0.473269 0.911899 0.378270
O O2 0.372633 0.942109 0.377637
O O3 0.948810 0.709785 0.303584
O O4 0.662236 0.622366 0.000000
O O5 0.567944 0.650109 0.134378
O O6 0.595900 0.490745 0.000000
O O7 0.750000 0.250000 0.500000
O O8 0.737116 0.105225 0.366350
O O9 0.624951 0.654987 0.634129
O O10 0.710717 0.583870 0.500000
O O11 0.853353 0.720213 0.821410
O O12 0.311180 0.121856 0.366490
O O13 0.750000 0.750000 0.500000
#
# Coordination Sequence:
#
# PCOD9496130 Si02
#       8
#     8   8   8   8   8  16  16   8
#     4   9  20  33  53  84 110 134 181 239 302 331
#     4  10  20  36  57  78 104 150 195 258 292 318
#     4  12  24  36  51  77 113 150 197 238 276 338
#     4  11  17  32  57  77 102 140 195 227 282 347
#     4  12  25  35  50  78 115 152 190 242 285 331
#     4  11  20  37  53  74 106 144 198 240 289 326
#     4  10  19  33  56  83 101 140 189 237 283 352
#     4  12  20  34  56  82 109 143 190 234 291 359
#
# _framework density 24.866876000000001
#
# number of rings (size 3 to 8) (size 9 to 14) (size 15 to 20)
#    0.000    1.200    4.000    5.400    0.000    2.400 
#    0.000    3.000    0.000    0.000    0.000    0.000 
#    0.000    0.000    0.000  275.400    0.000    0.600 
#
# Total GULP energy -222688.492525 kJ/mol
# GULP energy per Si atom -5567.212313 kJ/mol
# Density = 2.481028 g / cm^3
# Si number density = 24.866876 Si / 1000 Ang^3
#
#
#
# Elastic Constant Matrix: (Units=GPa)
#
#
# Indices 1 2 3 4 5 6 
#
# 1 82.3922 11.6310 55.3930 0.0000 0.0000 0.0000
# 2 11.6310 107.4742 20.7874 0.0000 0.0000 0.0000
# 3 55.3930 20.7874 177.1951 0.0000 0.0000 0.0000
# 4 0.0000 0.0000 0.0000 4.0411 0.0000 0.0000
# 5 0.0000 0.0000 0.0000 0.0000 44.1984 0.0000
# 6 0.0000 0.0000 0.0000 0.0000 0.0000 7.1582
#
#
#
# Elastic Compliance Matrix: (Units=1/GPa)
#
#
# Indices 1 2 3 4 5 6 
#
# 1 0.015426 -0.000754 -0.004734 0.000000 0.000000 0.000000
# 2 -0.000754 0.009557 -0.000886 0.000000 0.000000 0.000000
# 3 -0.004734 -0.000886 0.007227 0.000000 0.000000 0.000000
# 4 0.000000 0.000000 0.000000 0.247459 0.000000 0.000000
# 5 0.000000 0.000000 0.000000 0.000000 0.022625 0.000000
# 6 0.000000 0.000000 0.000000 0.000000 0.000000 0.139699
#
#
# Mechanical properties :
#
#
# Convention : Reuss Voigt Hill
#
# Bulk Modulus (GPa) = 51.37638 60.29826 55.83732
# Shear Modulus (GPa) = 10.84060 29.69623 20.26841
#
# Velocity S-wave (km/s) = 2.09020 3.45948 2.85805
# Velocity P-wave (km/s) = 5.15079 6.34495 5.77880
#
# Compressibility (1/GPa) = 0.01946420
#
# Stress axis : x y z
#
# Youngs Moduli (GPa) = 64.82501 104.63071 138.36502
#
# Poissons Ratio (x) = 0.07887 0.65501
# Poissons Ratio (y) = 0.04887 0.12253
# Poissons Ratio (z) = 0.30688 0.09266
#
# Static dielectric constant tensor:
#      x y z
#    x 1.990600 0.000000 0.000000 
#    y 0.000000 2.074130 0.000000 
#    z 0.000000 0.000000 1.996060 
# 
# From -- ./inp_files/8965.got.cif
#   From: 2010.05.17/outbox.cif.g08.bks.cpg/sg66_5_cif.got.tgz:8965.got - 2010.06.03 17:51:23.
