data_PCOD9496779
_publ_section_title
;
Structure prediction by ZEFSAII (Michael W. Deem and Ramdas Pophale) SiO2 
 PCOD9496779
Probable space group: C C C M
;
_chemical_formula_sum "Si O2"
_cell_formula_units_Z 72
_cell_length_a 21.334013
_cell_length_b 13.956515
_cell_length_c 11.411680
_cell_angle_alpha 90.000000
_cell_angle_beta 90.000000
_cell_angle_gamma 90.000000
_cell_volume 3397.810288
_symmetry_space_group_name_H-M "C C C M"
_symmetry_group_IT_number 66
_symmetry_cell_setting 'orthorhombic'
loop_
_space_group_symop_operation_xyz
x,y,z
-x,-y,z
x,-y,1/2-z
-x,y,1/2-z
-x,-y,-z
x,y,-z
-x,y,1/2+z
x,-y,1/2+z
1/2+x,1/2+y,z
1/2-x,1/2-y,z
1/2+x,1/2-y,1/2-z
1/2-x,1/2+y,1/2-z
1/2-x,1/2-y,-z
1/2+x,1/2+y,-z
1/2-x,1/2+y,1/2+z
1/2+x,1/2-y,1/2+z
loop_
_atom_site_type_symbol
_atom_site_label
_atom_site_fract_x
_atom_site_fract_y
_atom_site_fract_z
Si Si1 0.369394 0.240018 0.131944
Si Si2 0.250000 0.750000 0.798746
Si Si3 0.736155 0.537116 0.626007
Si Si4 0.906235 0.043242 0.630638
Si Si5 0.428657 0.960899 0.370674
O O1 0.311681 0.232180 0.220225
O O2 0.401856 0.342648 0.146783
O O3 0.418600 0.153120 0.139868
O O4 0.343023 0.238186 0.000000
O O5 0.262063 0.652004 0.867985
O O6 0.762961 0.500000 0.750000
O O7 0.763244 0.504856 0.500000
O O8 0.664976 0.497842 0.626021
O O9 0.932290 0.023066 0.500000
O O10 0.933607 0.000000 0.750000
O O11 0.403548 0.988999 0.500000
O O12 0.500000 0.000000 0.371538
O O13 0.400201 0.000000 0.250000
#
# Coordination Sequence:
#
# PCOD9496779 Si02
#       5
#    16   8  16  16  16
#     4  10  20  33  54  83 112 155 199 239 298 360
#     4  12  20  32  50  80 121 158 199 242 287 362
#     4  10  20  34  50  70 105 156 202 245 285 336
#     4   9  16  32  50  70 103 146 190 231 276 339
#     4   9  19  39  63  86 114 148 195 251 304 354
#
# _framework density 21.190117000000001
#
# number of rings (size 3 to 8) (size 9 to 14) (size 15 to 20)
#    0.000    2.222    4.444    0.667    0.000    1.778 
#    0.000    5.556    0.000    0.000    0.000    3.111 
#    0.000   23.111    0.000    0.000    0.000    0.000 
#
# Total GULP energy -200530.772568 kJ/mol
# GULP energy per Si atom -5570.299238 kJ/mol
# Density = 2.114189 g / cm^3
# Si number density = 21.190117 Si / 1000 Ang^3
#
#
#
# Elastic Constant Matrix: (Units=GPa)
#
#
# Indices 1 2 3 4 5 6 
#
# 1 105.9713 30.6470 29.9403 0.0000 0.0000 0.0000
# 2 30.6470 131.0040 67.1001 0.0000 0.0000 0.0000
# 3 29.9403 67.1001 233.9055 0.0000 0.0000 0.0000
# 4 0.0000 0.0000 0.0000 29.7633 0.0000 0.0000
# 5 0.0000 0.0000 0.0000 0.0000 -26.0812 0.0000
# 6 0.0000 0.0000 0.0000 0.0000 0.0000 23.8205
#
#
#
# Elastic Compliance Matrix: (Units=1/GPa)
#
#
# Indices 1 2 3 4 5 6 
#
# 1 0.010227 -0.002018 -0.000730 0.000000 0.000000 0.000000
# 2 -0.002018 0.009347 -0.002423 0.000000 0.000000 0.000000
# 3 -0.000730 -0.002423 0.005064 0.000000 0.000000 0.000000
# 4 0.000000 0.000000 0.000000 0.033598 0.000000 0.000000
# 5 0.000000 0.000000 0.000000 0.000000 -0.038342 0.000000
# 6 0.000000 0.000000 0.000000 0.000000 0.000000 0.041981
#
#
# Mechanical properties :
#
#
# Convention : Reuss Voigt Hill
#
# Bulk Modulus (GPa) = 69.95883 80.69507 75.32695
# Shear Modulus (GPa) = 64.95077 28.38008 46.66542
#
# Velocity S-wave (km/s) = 5.54238 3.66363 4.69788
# Velocity P-wave (km/s) = 8.60487 7.48734 8.06549
#
# Compressibility (1/GPa) = 0.01429412
#
# Stress axis : x y z
#
# Youngs Moduli (GPa) = 97.78510 106.99136 197.48365
#
# Poissons Ratio (x) = 0.21596 0.14416
# Poissons Ratio (y) = 0.19738 0.47848
# Poissons Ratio (z) = 0.07138 0.25923
#
# Static dielectric constant tensor:
#      x y z
#    x 1.711240 0.000000 0.000000 
#    y 0.000000 1.743690 0.000000 
#    z 0.000000 0.000000 1.846410 
# 
# From -- ./inp_files/20494.got.cif
#   From: 2010.05.17/outbox.cif.g08.bks.cpg/sg66_11_cif.got.tgz:20494.got - 2010.06.03 17:51:23.
