data_PCOD9496952
_publ_section_title
;
Structure prediction by ZEFSAII (Michael W. Deem and Ramdas Pophale) SiO2 
 PCOD9496952
Probable space group: C C C M
;
_chemical_formula_sum "Si O2"
_cell_formula_units_Z 80
_cell_length_a 9.094644
_cell_length_b 18.098480
_cell_length_c 25.128051
_cell_angle_alpha 90.000000
_cell_angle_beta 90.000000
_cell_angle_gamma 90.000000
_cell_volume 4136.057910
_symmetry_space_group_name_H-M "C C C M"
_symmetry_group_IT_number 66
_symmetry_cell_setting 'orthorhombic'
loop_
_space_group_symop_operation_xyz
x,y,z
-x,-y,z
x,-y,1/2-z
-x,y,1/2-z
-x,-y,-z
x,y,-z
-x,y,1/2+z
x,-y,1/2+z
1/2+x,1/2+y,z
1/2-x,1/2-y,z
1/2+x,1/2-y,1/2-z
1/2-x,1/2+y,1/2-z
1/2-x,1/2-y,-z
1/2+x,1/2+y,-z
1/2-x,1/2+y,1/2+z
1/2+x,1/2-y,1/2+z
loop_
_atom_site_type_symbol
_atom_site_label
_atom_site_fract_x
_atom_site_fract_y
_atom_site_fract_z
Si Si1 0.867251 0.057992 0.061518
Si Si2 0.049246 0.195492 0.902820
Si Si3 0.647766 0.850716 0.060030
Si Si4 0.581685 0.931665 0.629748
Si Si5 0.413177 0.780444 0.804843
O O1 0.735205 0.046479 0.102702
O O2 0.932365 0.139493 0.072598
O O3 0.818426 0.052423 0.000000
O O4 0.000000 0.000000 0.069218
O O5 0.207372 0.155059 0.903425
O O6 0.075190 0.269254 0.937498
O O7 0.996643 0.225766 0.845986
O O8 0.528847 0.906550 0.082653
O O9 0.694012 0.868148 0.000000
O O10 0.596982 0.860406 0.667090
O O11 0.500000 0.000000 0.657336
O O12 0.500000 0.785082 0.750000
O O13 0.250000 0.750000 0.796312
#
# Coordination Sequence:
#
# PCOD9496952 Si02
#       5
#    16  16  16  16  16
#     4  11  22  37  61  91 134 179 213 253 313 388
#     4  10  20  38  60  91 124 163 213 265 313 375
#     4  10  20  34  60  93 130 173 210 250 308 376
#     4  11  24  41  62  94 134 166 211 265 317 384
#     4  11  25  45  71  92 117 162 215 272 334 381
#
# _framework density 19.342089000000001
#
# number of rings (size 3 to 8) (size 9 to 14) (size 15 to 20)
#    0.000    1.400    2.000    4.200    5.600    3.600 
#    0.000    3.000    0.000    0.600    0.000    0.000 
#    0.000    0.000    0.000    0.000    0.000    0.000 
#
# Total GULP energy -223531.278823 kJ/mol
# GULP energy per Si atom -5588.281971 kJ/mol
# Density = 1.929807 g / cm^3
# Si number density = 19.342089 Si / 1000 Ang^3
#
#
#
# Elastic Constant Matrix: (Units=GPa)
#
#
# Indices 1 2 3 4 5 6 
#
# 1 118.9869 42.0435 63.5807 0.0000 0.0000 0.0000
# 2 42.0435 88.6552 33.0153 0.0000 0.0000 0.0000
# 3 63.5807 33.0153 129.3570 0.0000 0.0000 0.0000
# 4 0.0000 0.0000 0.0000 5.4520 0.0000 0.0000
# 5 0.0000 0.0000 0.0000 0.0000 27.9849 0.0000
# 6 0.0000 0.0000 0.0000 0.0000 0.0000 37.9424
#
#
#
# Elastic Compliance Matrix: (Units=1/GPa)
#
#
# Indices 1 2 3 4 5 6 
#
# 1 0.012590 -0.004051 -0.005154 0.000000 0.000000 0.000000
# 2 -0.004051 0.013768 -0.001523 0.000000 0.000000 0.000000
# 3 -0.005154 -0.001523 0.010653 0.000000 0.000000 0.000000
# 4 0.000000 0.000000 0.000000 0.183421 0.000000 0.000000
# 5 0.000000 0.000000 0.000000 0.000000 0.035734 0.000000
# 6 0.000000 0.000000 0.000000 0.000000 0.000000 0.026356
#
#
# Mechanical properties :
#
#
# Convention : Reuss Voigt Hill
#
# Bulk Modulus (GPa) = 64.29111 68.25314 66.27212
# Shear Modulus (GPa) = 16.17280 27.49982 21.83631
#
# Velocity S-wave (km/s) = 2.89476 3.77471 3.36363
# Velocity P-wave (km/s) = 6.66963 7.37305 7.03014
#
# Compressibility (1/GPa) = 0.01555425
#
# Stress axis : x y z
#
# Youngs Moduli (GPa) = 79.42905 72.63255 93.87460
#
# Poissons Ratio (x) = 0.29425 0.48384
# Poissons Ratio (y) = 0.32178 0.14295
# Poissons Ratio (z) = 0.40939 0.11060
#
# Static dielectric constant tensor:
#      x y z
#    x 1.678790 0.000000 0.000000 
#    y 0.000000 1.708730 0.000000 
#    z 0.000000 0.000000 1.629600 
# 
# From -- ./inp_files/62376.got.cif
#   From: 2010.05.17/outbox.cif.g08.bks.cpg/sg66_32_cif.got.tgz:62376.got - 2010.06.03 17:51:23.
