data_PCOD9496428
_publ_section_title
;
Structure prediction by ZEFSAII (Michael W. Deem and Ramdas Pophale) SiO2 
 PCOD9496428
Probable space group: C C C M
;
_chemical_formula_sum "Si O2"
_cell_formula_units_Z 120
_cell_length_a 12.525124
_cell_length_b 27.404562
_cell_length_c 19.554903
_cell_angle_alpha 90.000000
_cell_angle_beta 90.000000
_cell_angle_gamma 90.000000
_cell_volume 6712.133185
_symmetry_space_group_name_H-M "C C C M"
_symmetry_group_IT_number 66
_symmetry_cell_setting 'orthorhombic'
loop_
_space_group_symop_operation_xyz
x,y,z
-x,-y,z
x,-y,1/2-z
-x,y,1/2-z
-x,-y,-z
x,y,-z
-x,y,1/2+z
x,-y,1/2+z
1/2+x,1/2+y,z
1/2-x,1/2-y,z
1/2+x,1/2-y,1/2-z
1/2-x,1/2+y,1/2-z
1/2-x,1/2-y,-z
1/2+x,1/2+y,-z
1/2-x,1/2+y,1/2+z
1/2+x,1/2-y,1/2+z
loop_
_atom_site_type_symbol
_atom_site_label
_atom_site_fract_x
_atom_site_fract_y
_atom_site_fract_z
Si Si1 0.108679 0.632560 0.663389
Si Si2 0.800682 0.097451 0.422699
Si Si3 0.372678 0.232185 0.081430
Si Si4 0.986178 0.830671 0.082836
Si Si5 0.126313 0.399907 0.307523
Si Si6 0.122642 0.998590 0.875400
Si Si7 0.691364 0.608106 0.580403
Si Si8 0.784324 0.500000 0.250000
O O1 0.195731 0.600998 0.622864
O O2 0.106004 0.684257 0.625408
O O3 0.141340 0.636207 0.743014
O O4 0.993141 0.607130 0.665007
O O5 0.773871 0.113031 0.500000
O O6 0.890518 0.133943 0.393787
O O7 0.852257 0.044169 0.423688
O O8 0.250000 0.250000 0.090891
O O9 0.453094 0.275915 0.101421
O O10 0.385387 0.222580 0.000000
O O11 0.100091 0.853185 0.102399
O O12 0.984630 0.832968 0.000000
O O13 0.208816 0.390087 0.368458
O O14 0.147007 0.453219 0.273671
O O15 0.144440 0.946449 0.909884
O O16 0.203875 0.007320 0.813194
O O17 0.000000 0.000000 0.852792
O O18 0.717211 0.615555 0.500000
#
# Coordination Sequence:
#
# PCOD9496428 Si02
#       8
#    16  16  16  16  16  16  16   8
#     4  11  22  40  59  84 115 156 207 254 287 350
#     4  11  20  33  58  92 122 152 191 244 301 353
#     4  10  19  35  63  93 119 154 200 250 303 357
#     4   9  18  34  59  90 122 155 187 237 307 360
#     4  10  24  42  62  82 116 166 206 238 304 349
#     4  11  20  33  58  92 124 153 194 242 298 358
#     4  10  21  38  59  88 125 157 193 243 300 368
#     4  10  21  41  58  80 118 168 202 236 282 374
#
# _framework density 17.878070999999998
#
# number of rings (size 3 to 8) (size 9 to 14) (size 15 to 20)
#    0.000    1.733    4.000    1.000    0.000    2.667 
#    0.000    4.000    0.000    4.800    0.000    0.000 
#    0.000    0.000    0.000    0.000    0.000    0.000 
#
# Total GULP energy -334590.839570 kJ/mol
# GULP energy per Si atom -5576.513993 kJ/mol
# Density = 1.783738 g / cm^3
# Si number density = 17.878071 Si / 1000 Ang^3
#
#
#
# Elastic Constant Matrix: (Units=GPa)
#
#
# Indices 1 2 3 4 5 6 
#
# 1 131.3510 64.1286 60.7549 0.0000 0.0000 0.0000
# 2 64.1286 117.9577 43.7596 0.0000 0.0000 0.0000
# 3 60.7549 43.7596 82.0515 0.0000 0.0000 0.0000
# 4 0.0000 0.0000 0.0000 29.8576 0.0000 0.0000
# 5 0.0000 0.0000 0.0000 0.0000 18.8406 0.0000
# 6 0.0000 0.0000 0.0000 0.0000 0.0000 30.0300
#
#
#
# Elastic Compliance Matrix: (Units=1/GPa)
#
#
# Indices 1 2 3 4 5 6 
#
# 1 0.013205 -0.004428 -0.007416 0.000000 0.000000 0.000000
# 2 -0.004428 0.012053 -0.003150 0.000000 0.000000 0.000000
# 3 -0.007416 -0.003150 0.019359 0.000000 0.000000 0.000000
# 4 0.000000 0.000000 0.000000 0.033492 0.000000 0.000000
# 5 0.000000 0.000000 0.000000 0.000000 0.053077 0.000000
# 6 0.000000 0.000000 0.000000 0.000000 0.000000 0.033300
#
#
# Mechanical properties :
#
#
# Convention : Reuss Voigt Hill
#
# Bulk Modulus (GPa) = 68.35501 74.29404 71.32452
# Shear Modulus (GPa) = 25.08137 26.59343 25.83740
#
# Velocity S-wave (km/s) = 3.74961 3.86098 3.80570
# Velocity P-wave (km/s) = 7.55401 7.84362 7.70018
#
# Compressibility (1/GPa) = 0.01462951
#
# Stress axis : x y z
#
# Youngs Moduli (GPa) = 75.72678 82.96480 51.65635
#
# Poissons Ratio (x) = 0.36736 0.38311
# Poissons Ratio (y) = 0.33531 0.16270
# Poissons Ratio (z) = 0.56162 0.26131
#
# Static dielectric constant tensor:
#      x y z
#    x 1.603440 0.000000 0.000000 
#    y 0.000000 1.626710 0.000000 
#    z 0.000000 0.000000 1.609500 
# 
# From -- ./inp_files/49050.got.cif
#   From: 2010.05.17/outbox.cif.g08.bks.cpg/sg66_25_cif.got.tgz:49050.got - 2010.06.03 17:51:23.
