data_PCOD9496007
_publ_section_title
;
Structure prediction by ZEFSAII (Michael W. Deem and Ramdas Pophale) SiO2 
 PCOD9496007
Probable space group: C C C M
;
_chemical_formula_sum "Si O2"
_cell_formula_units_Z 80
_cell_length_a 7.517235
_cell_length_b 17.226104
_cell_length_c 26.158237
_cell_angle_alpha 90.000000
_cell_angle_beta 90.000000
_cell_angle_gamma 90.000000
_cell_volume 3387.300001
_symmetry_space_group_name_H-M "C C C M"
_symmetry_group_IT_number 66
_symmetry_cell_setting 'orthorhombic'
loop_
_space_group_symop_operation_xyz
x,y,z
-x,-y,z
x,-y,1/2-z
-x,y,1/2-z
-x,-y,-z
x,y,-z
-x,y,1/2+z
x,-y,1/2+z
1/2+x,1/2+y,z
1/2-x,1/2-y,z
1/2+x,1/2-y,1/2-z
1/2-x,1/2+y,1/2-z
1/2-x,1/2-y,-z
1/2+x,1/2+y,-z
1/2-x,1/2+y,1/2+z
1/2+x,1/2-y,1/2+z
loop_
_atom_site_type_symbol
_atom_site_label
_atom_site_fract_x
_atom_site_fract_y
_atom_site_fract_z
Si Si1 0.486613 0.387717 0.556095
Si Si2 0.538355 0.761455 0.112607
Si Si3 0.681478 0.464959 0.157058
Si Si4 0.881238 0.430836 0.588687
Si Si5 0.854837 0.181953 0.788970
O O1 0.420052 0.407983 0.500000
O O2 0.479321 0.296061 0.567360
O O3 0.383217 0.429323 0.602196
O O4 0.696281 0.410289 0.560580
O O5 0.750000 0.750000 0.120038
O O6 0.513209 0.851182 0.098235
O O7 0.441544 0.727460 0.162655
O O8 0.500000 0.500000 0.179619
O O9 0.814499 0.533390 0.142888
O O10 0.747721 0.392924 0.190130
O O11 0.000000 0.500000 0.565576
O O12 0.750000 0.250000 0.760858
O O13 0.000000 0.152290 0.750000
#
# Coordination Sequence:
#
# PCOD9496007 Si02
#       5
#    16  16  16  16  16
#     4   9  19  36  55  75 106 150 187 213 256 322
#     4   9  19  36  57  78 107 143 181 219 262 317
#     4   9  20  37  57  78 106 144 179 216 263 320
#     4  10  19  32  54  81 109 136 173 228 274 303
#     4  11  22  37  58  81 106 138 176 216 264 321
#
# _framework density 23.617629999999998
#
# number of rings (size 3 to 8) (size 9 to 14) (size 15 to 20)
#    0.000    2.400    0.000    3.000    0.000    8.000 
#    0.000    0.000    0.000   24.600    0.000    0.000 
#    0.000    0.000    0.000    0.000    0.000    0.000 
#
# Total GULP energy -223443.507725 kJ/mol
# GULP energy per Si atom -5586.087693 kJ/mol
# Density = 2.356388 g / cm^3
# Si number density = 23.617630 Si / 1000 Ang^3
#
#
#
# Elastic Constant Matrix: (Units=GPa)
#
#
# Indices 1 2 3 4 5 6 
#
# 1 35.0717 3.5597 -6.8695 0.0000 0.0000 0.0000
# 2 3.5597 193.7177 24.5194 0.0000 0.0000 0.0000
# 3 -6.8695 24.5194 52.6537 0.0000 0.0000 0.0000
# 4 0.0000 0.0000 0.0000 -41.6879 0.0000 0.0000
# 5 0.0000 0.0000 0.0000 0.0000 12.7933 0.0000
# 6 0.0000 0.0000 0.0000 0.0000 0.0000 28.7004
#
#
#
# Elastic Compliance Matrix: (Units=1/GPa)
#
#
# Indices 1 2 3 4 5 6 
#
# 1 0.029477 -0.001093 0.004355 0.000000 0.000000 0.000000
# 2 -0.001093 0.005526 -0.002716 0.000000 0.000000 0.000000
# 3 0.004355 -0.002716 0.020825 0.000000 0.000000 0.000000
# 4 0.000000 0.000000 0.000000 -0.023988 0.000000 0.000000
# 5 0.000000 0.000000 0.000000 0.000000 0.078166 0.000000
# 6 0.000000 0.000000 0.000000 0.000000 0.000000 0.034843
#
#
# Mechanical properties :
#
#
# Convention : Reuss Voigt Hill
#
# Bulk Modulus (GPa) = 17.56863 35.98467 26.77665
# Shear Modulus (GPa) = 30.72580 17.31006 24.01793
#
# Velocity S-wave (km/s) = 3.61081 2.71020 3.19242
# Velocity P-wave (km/s) = 4.98386 5.00630 4.99509
#
# Compressibility (1/GPa) = 0.05691963
#
# Stress axis : x y z
#
# Youngs Moduli (GPa) = 33.92487 180.96312 48.01953
#
# Poissons Ratio (x) = 0.19776 -0.20911
# Poissons Ratio (y) = 0.03707 0.13042
# Poissons Ratio (z) = -0.14773 0.49147
#
# Static dielectric constant tensor:
#      x y z
#    x 1.920710 0.000000 0.000000 
#    y 0.000000 1.952180 0.000000 
#    z 0.000000 0.000000 1.844160 
# 
# From -- ./inp_files/62390.got.cif
#   From: 2010.05.17/outbox.cif.g08.bks.cpg/sg66_32_cif.got.tgz:62390.got - 2010.06.03 17:51:23.
