data_PCOD9496889
_publ_section_title
;
Structure prediction by ZEFSAII (Michael W. Deem and Ramdas Pophale) SiO2 
 PCOD9496889
Probable space group: C C C M
;
_chemical_formula_sum "Si O2"
_cell_formula_units_Z 64
_cell_length_a 15.231222
_cell_length_b 8.331447
_cell_length_c 27.614801
_cell_angle_alpha 90.000000
_cell_angle_beta 90.000000
_cell_angle_gamma 90.000000
_cell_volume 3504.266299
_symmetry_space_group_name_H-M "C C C M"
_symmetry_group_IT_number 66
_symmetry_cell_setting 'orthorhombic'
loop_
_space_group_symop_operation_xyz
x,y,z
-x,-y,z
x,-y,1/2-z
-x,y,1/2-z
-x,-y,-z
x,y,-z
-x,y,1/2+z
x,-y,1/2+z
1/2+x,1/2+y,z
1/2-x,1/2-y,z
1/2+x,1/2-y,1/2-z
1/2-x,1/2+y,1/2-z
1/2-x,1/2-y,-z
1/2+x,1/2+y,-z
1/2-x,1/2+y,1/2+z
1/2+x,1/2-y,1/2+z
loop_
_atom_site_type_symbol
_atom_site_label
_atom_site_fract_x
_atom_site_fract_y
_atom_site_fract_z
Si Si1 0.844535 0.158464 0.054989
Si Si2 0.081266 0.376893 0.363322
Si Si3 0.089313 0.072178 0.695964
Si Si4 0.735692 0.562705 0.872561
O O1 0.750000 0.250000 0.054832
O O2 0.910153 0.254345 0.090788
O O3 0.816913 0.990537 0.079219
O O4 0.876200 0.147923 0.000000
O O5 0.083222 0.262234 0.315637
O O6 0.170670 0.477367 0.367439
O O7 0.000000 0.500000 0.364370
O O8 0.092313 0.000000 0.750000
O O9 0.174553 0.005730 0.669622
O O10 0.000000 0.000000 0.673751
O O11 0.750000 0.750000 0.869854
#
# Coordination Sequence:
#
# PCOD9496889 Si02
#       4
#    16  16  16  16
#     4   8  16  32  53  78 110 146 184 224 266 317
#     4  10  20  36  57  81 111 144 180 223 273 324
#     4  10  21  38  57  79 105 137 179 227 276 327
#     4  10  20  34  55  81 110 145 180 222 272 321
#
# _framework density 18.263452000000001
#
# number of rings (size 3 to 8) (size 9 to 14) (size 15 to 20)
#    0.000    2.500    0.000    3.750    0.000    3.000 
#    0.000    7.500    0.000   25.500    0.000    0.000 
#    0.000    0.000    0.000    0.000    0.000    0.000 
#
# Total GULP energy -178184.584220 kJ/mol
# GULP energy per Si atom -5568.268257 kJ/mol
# Density = 1.822188 g / cm^3
# Si number density = 18.263452 Si / 1000 Ang^3
#
#
#
# Elastic Constant Matrix: (Units=GPa)
#
#
# Indices 1 2 3 4 5 6 
#
# 1 112.0005 63.6544 48.6321 0.0000 0.0000 0.0000
# 2 63.6544 130.0870 34.9343 0.0000 0.0000 0.0000
# 3 48.6321 34.9343 95.0094 0.0000 0.0000 0.0000
# 4 0.0000 0.0000 0.0000 -17.1379 0.0000 0.0000
# 5 0.0000 0.0000 0.0000 0.0000 -3.9774 0.0000
# 6 0.0000 0.0000 0.0000 0.0000 0.0000 37.0755
#
#
#
# Elastic Compliance Matrix: (Units=1/GPa)
#
#
# Indices 1 2 3 4 5 6 
#
# 1 0.014443 -0.005639 -0.005320 0.000000 0.000000 0.000000
# 2 -0.005639 0.010731 -0.001059 0.000000 0.000000 0.000000
# 3 -0.005320 -0.001059 0.013638 0.000000 0.000000 0.000000
# 4 0.000000 0.000000 0.000000 -0.058350 0.000000 0.000000
# 5 0.000000 0.000000 0.000000 0.000000 -0.251422 0.000000
# 6 0.000000 0.000000 0.000000 0.000000 0.000000 0.026972
#
#
# Mechanical properties :
#
#
# Convention : Reuss Voigt Hill
#
# Bulk Modulus (GPa) = 67.67642 70.17095 68.92368
# Shear Modulus (GPa) = -23.25278 15.85045 -3.70117
#
# Velocity S-wave (km/s) = -3.57205 2.94917 -1.42511
# Velocity P-wave (km/s) = 4.48591 7.07826 5.92559
#
# Compressibility (1/GPa) = 0.01477620
#
# Stress axis : x y z
#
# Youngs Moduli (GPa) = 69.23712 93.18948 73.32611
#
# Poissons Ratio (x) = 0.52548 0.39007
# Poissons Ratio (y) = 0.39041 0.07768
# Poissons Ratio (z) = 0.36831 0.09872
#
# Static dielectric constant tensor:
#      x y z
#    x 1.558430 0.000000 0.000000 
#    y 0.000000 1.621820 0.000000 
#    z 0.000000 0.000000 1.668240 
# 
# From -- ./inp_files/67883.got.cif
#   From: 2010.05.17/outbox.cif.g08.bks.cpg/sg66_34_cif.got.tgz:67883.got - 2010.06.03 17:51:23.
