data_PCOD9496074
_publ_section_title
;
Structure prediction by ZEFSAII (Michael W. Deem and Ramdas Pophale) SiO2 
 PCOD9496074
Probable space group: C C C M
;
_chemical_formula_sum "Si O2"
_cell_formula_units_Z 96
_cell_length_a 18.851383
_cell_length_b 29.103408
_cell_length_c 9.224193
_cell_angle_alpha 90.000000
_cell_angle_beta 90.000000
_cell_angle_gamma 90.000000
_cell_volume 5060.756551
_symmetry_space_group_name_H-M "C C C M"
_symmetry_group_IT_number 66
_symmetry_cell_setting 'orthorhombic'
loop_
_space_group_symop_operation_xyz
x,y,z
-x,-y,z
x,-y,1/2-z
-x,y,1/2-z
-x,-y,-z
x,y,-z
-x,y,1/2+z
x,-y,1/2+z
1/2+x,1/2+y,z
1/2-x,1/2-y,z
1/2+x,1/2-y,1/2-z
1/2-x,1/2+y,1/2-z
1/2-x,1/2-y,-z
1/2+x,1/2+y,-z
1/2-x,1/2+y,1/2+z
1/2+x,1/2-y,1/2+z
loop_
_atom_site_type_symbol
_atom_site_label
_atom_site_fract_x
_atom_site_fract_y
_atom_site_fract_z
Si Si1 0.390117 0.454401 0.667880
Si Si2 0.423476 0.773619 0.827887
Si Si3 0.719041 0.952407 0.330131
Si Si4 0.440827 0.367206 0.162701
Si Si5 0.810130 0.348087 0.827727
Si Si6 0.682602 0.703262 0.833048
O O1 0.411566 0.500000 0.750000
O O2 0.408051 0.456897 0.500000
O O3 0.304729 0.449748 0.680813
O O4 0.425858 0.412023 0.745339
O O5 0.500000 0.771477 0.750000
O O6 0.386497 0.823807 0.812587
O O7 0.364707 0.739607 0.756861
O O8 0.430999 0.763536 0.000000
O O9 0.700540 0.957015 0.500000
O O10 0.692236 0.901776 0.279780
O O11 0.697440 0.000000 0.250000
O O12 0.500000 0.339104 0.250000
O O13 0.368092 0.340535 0.158549
O O14 0.464723 0.376327 0.000000
O O15 0.753425 0.315627 0.744167
O O16 0.791249 0.347706 0.000000
O O17 0.693495 0.718335 0.000000
#
# Coordination Sequence:
#
# PCOD9496074 Si02
#       6
#    16  16  16  16  16  16
#     4  10  19  33  53  74 103 141 182 233 285 340
#     4  11  24  41  62  86 119 157 196 240 293 350
#     4   9  18  33  56  85 116 148 186 233 287 342
#     4  11  23  36  51  74 105 145 190 235 284 337
#     4  10  21  39  62  89 119 156 195 238 290 346
#     4  11  23  38  59  87 117 151 195 242 286 340
#
# _framework density 18.969495999999999
#
# number of rings (size 3 to 8) (size 9 to 14) (size 15 to 20)
#    0.000    1.667    1.667    3.000    0.000    8.333 
#    0.000    1.667    0.000    0.500    0.000    3.500 
#    0.000    0.000    0.000    0.000    0.000    0.000 
#
# Total GULP energy -267798.599190 kJ/mol
# GULP energy per Si atom -5579.137483 kJ/mol
# Density = 1.892632 g / cm^3
# Si number density = 18.969496 Si / 1000 Ang^3
#
#
#
# Elastic Constant Matrix: (Units=GPa)
#
#
# Indices 1 2 3 4 5 6 
#
# 1 75.5698 62.6129 51.5844 0.0000 0.0000 0.0000
# 2 62.6129 125.7885 69.8212 0.0000 0.0000 0.0000
# 3 51.5844 69.8212 134.5874 0.0000 0.0000 0.0000
# 4 0.0000 0.0000 0.0000 25.0595 0.0000 0.0000
# 5 0.0000 0.0000 0.0000 0.0000 -0.8554 0.0000
# 6 0.0000 0.0000 0.0000 0.0000 0.0000 -49.4096
#
#
#
# Elastic Compliance Matrix: (Units=1/GPa)
#
#
# Indices 1 2 3 4 5 6 
#
# 1 0.024127 -0.009658 -0.004237 0.000000 0.000000 0.000000
# 2 -0.009658 0.015031 -0.004096 0.000000 0.000000 0.000000
# 3 -0.004237 -0.004096 0.011179 0.000000 0.000000 0.000000
# 4 0.000000 0.000000 0.000000 0.039905 0.000000 0.000000
# 5 0.000000 0.000000 0.000000 0.000000 -1.168992 0.000000
# 6 0.000000 0.000000 0.000000 0.000000 0.000000 -0.020239
#
#
# Mechanical properties :
#
#
# Convention : Reuss Voigt Hill
#
# Bulk Modulus (GPa) = 69.66206 78.22031 73.94119
# Shear Modulus (GPa) = -4.72490 5.08737 0.18123
#
# Velocity S-wave (km/s) = -1.57994 1.63942 0.30943
# Velocity P-wave (km/s) = 5.78573 6.70133 6.26029
#
# Compressibility (1/GPa) = 0.01435502
#
# Stress axis : x y z
#
# Youngs Moduli (GPa) = 41.44768 66.53095 89.45290
#
# Poissons Ratio (x) = 0.64252 0.37903
# Poissons Ratio (y) = 0.40028 0.36640
# Poissons Ratio (z) = 0.17562 0.27251
#
# Static dielectric constant tensor:
#      x y z
#    x 1.677040 0.000000 0.000000 
#    y 0.000000 1.854390 0.000000 
#    z 0.000000 0.000000 1.675150 
# 
# From -- ./inp_files/7965.got.cif
#   From: 2010.05.17/outbox.cif.g08.bks.cpg/sg66_4_cif.got.tgz:7965.got - 2010.06.03 17:51:23.
