data_PCOD9496555
_publ_section_title
;
Structure prediction by ZEFSAII (Michael W. Deem and Ramdas Pophale) SiO2 
 PCOD9496555
Probable space group: C C C M
;
_chemical_formula_sum "Si O2"
_cell_formula_units_Z 88
_cell_length_a 10.934973
_cell_length_b 16.031006
_cell_length_c 23.729039
_cell_angle_alpha 90.000000
_cell_angle_beta 90.000000
_cell_angle_gamma 90.000000
_cell_volume 4159.667738
_symmetry_space_group_name_H-M "C C C M"
_symmetry_group_IT_number 66
_symmetry_cell_setting 'orthorhombic'
loop_
_space_group_symop_operation_xyz
x,y,z
-x,-y,z
x,-y,1/2-z
-x,y,1/2-z
-x,-y,-z
x,y,-z
-x,y,1/2+z
x,-y,1/2+z
1/2+x,1/2+y,z
1/2-x,1/2-y,z
1/2+x,1/2-y,1/2-z
1/2-x,1/2+y,1/2-z
1/2-x,1/2-y,-z
1/2+x,1/2+y,-z
1/2-x,1/2+y,1/2+z
1/2+x,1/2-y,1/2+z
loop_
_atom_site_type_symbol
_atom_site_label
_atom_site_fract_x
_atom_site_fract_y
_atom_site_fract_z
Si Si1 0.633221 0.192386 0.000000
Si Si2 0.272289 0.413183 0.775172
Si Si3 0.951787 0.763877 0.908104
Si Si4 0.000000 0.637167 0.750000
Si Si5 0.744830 0.120694 0.596729
Si Si6 0.376667 0.282495 0.684539
Si Si7 0.146702 0.500667 0.500000
O O1 0.750000 0.250000 0.000000
O O2 0.547063 0.216931 0.947755
O O3 0.677301 0.097004 0.000000
O O4 0.316896 0.500000 0.750000
O O5 0.123929 0.409257 0.767460
O O6 0.290470 0.408437 0.841914
O O7 0.337132 0.339633 0.738100
O O8 0.856387 0.830480 0.932848
O O9 0.860066 0.689401 0.889349
O O10 0.032171 0.815268 0.862566
O O11 0.949502 0.700416 0.703384
O O12 0.693904 0.049954 0.555301
O O13 0.250000 0.250000 0.658896
O O14 0.000000 0.500000 0.500000
#
# Coordination Sequence:
#
# PCOD9496555 Si02
#       7
#     8  16  16   8  16  16   8
#     4  12  27  47  73 105 138 181 229 294 357 422
#     4  11  24  39  62 101 140 183 233 284 353 406
#     4  11  22  44  71  99 135 185 239 280 353 426
#     4  10  19  38  59  84 124 180 230 274 329 412
#     4  11  24  43  73 103 138 189 233 298 349 419
#     4  10  21  37  64  95 132 178 230 286 341 418
#     4  12  25  47  73 109 140 172 243 300 352 413
#
# _framework density 21.155533999999999
#
# number of rings (size 3 to 8) (size 9 to 14) (size 15 to 20)
#    0.000    1.091    3.636    2.455    5.091    7.273 
#    0.000    7.727    0.000    0.000    0.000    0.000 
#    0.000    0.000    0.000    0.000    0.000    0.000 
#
# Total GULP energy -245346.132702 kJ/mol
# GULP energy per Si atom -5576.048470 kJ/mol
# Density = 2.110738 g / cm^3
# Si number density = 21.155534 Si / 1000 Ang^3
#
#
#
# Elastic Constant Matrix: (Units=GPa)
#
#
# Indices 1 2 3 4 5 6 
#
# 1 117.7745 51.9812 48.8229 0.0000 0.0000 0.0000
# 2 51.9812 133.8598 56.2178 0.0000 0.0000 0.0000
# 3 48.8229 56.2178 125.0497 0.0000 0.0000 0.0000
# 4 0.0000 0.0000 0.0000 23.7809 0.0000 0.0000
# 5 0.0000 0.0000 0.0000 0.0000 -273.4135 0.0000
# 6 0.0000 0.0000 0.0000 0.0000 0.0000 20.9601
#
#
#
# Elastic Compliance Matrix: (Units=1/GPa)
#
#
# Indices 1 2 3 4 5 6 
#
# 1 0.011061 -0.003059 -0.002943 0.000000 0.000000 0.000000
# 2 -0.003059 0.010055 -0.003326 0.000000 0.000000 0.000000
# 3 -0.002943 -0.003326 0.010641 0.000000 0.000000 0.000000
# 4 0.000000 0.000000 0.000000 0.042051 0.000000 0.000000
# 5 0.000000 0.000000 0.000000 0.000000 -0.003657 0.000000
# 6 0.000000 0.000000 0.000000 0.000000 0.000000 0.047710
#
#
# Mechanical properties :
#
#
# Convention : Reuss Voigt Hill
#
# Bulk Modulus (GPa) = 76.33269 76.74753 76.54011
# Shear Modulus (GPa) = 35.49001 -31.09037 2.19982
#
# Velocity S-wave (km/s) = 4.10027 -3.83771 1.02083
# Velocity P-wave (km/s) = 7.65351 4.08891 6.13577
#
# Compressibility (1/GPa) = 0.01310055
#
# Stress axis : x y z
#
# Youngs Moduli (GPa) = 90.40656 99.44929 93.97392
#
# Poissons Ratio (x) = 0.30424 0.27659
# Poissons Ratio (y) = 0.27657 0.31257
# Poissons Ratio (z) = 0.26609 0.33078
#
# Static dielectric constant tensor:
#      x y z
#    x 1.835220 0.000000 0.000000 
#    y 0.000000 1.762390 0.000000 
#    z 0.000000 0.000000 1.964990 
# 
# From -- ./inp_files/56777.got.cif
#   From: 2010.05.17/outbox.cif.g08.bks.cpg/sg66_29_cif.got.tgz:56777.got - 2010.06.03 17:51:23.
