data_PCOD9496723
_publ_section_title
;
Structure prediction by ZEFSAII (Michael W. Deem and Ramdas Pophale) SiO2 
 PCOD9496723
Probable space group: C C C M
;
_chemical_formula_sum "Si O2"
_cell_formula_units_Z 116
_cell_length_a 27.676569
_cell_length_b 26.575781
_cell_length_c 9.506283
_cell_angle_alpha 90.000000
_cell_angle_beta 90.000000
_cell_angle_gamma 90.000000
_cell_volume 6992.122460
_symmetry_space_group_name_H-M "C C C M"
_symmetry_group_IT_number 66
_symmetry_cell_setting 'orthorhombic'
loop_
_space_group_symop_operation_xyz
x,y,z
-x,-y,z
x,-y,1/2-z
-x,y,1/2-z
-x,-y,-z
x,y,-z
-x,y,1/2+z
x,-y,1/2+z
1/2+x,1/2+y,z
1/2-x,1/2-y,z
1/2+x,1/2-y,1/2-z
1/2-x,1/2+y,1/2-z
1/2-x,1/2-y,-z
1/2+x,1/2+y,-z
1/2-x,1/2+y,1/2+z
1/2+x,1/2-y,1/2+z
loop_
_atom_site_type_symbol
_atom_site_label
_atom_site_fract_x
_atom_site_fract_y
_atom_site_fract_z
Si Si1 0.278300 0.802503 0.843347
Si Si2 0.834390 0.552256 0.167262
Si Si3 0.577181 0.085167 0.841263
Si Si4 0.500000 0.000000 0.250000
Si Si5 0.952322 0.298854 0.835004
Si Si6 0.722940 0.450106 0.336568
Si Si7 0.137585 0.743642 0.332858
Si Si8 0.805470 0.845352 0.164143
O O1 0.250000 0.750000 0.858503
O O2 0.320912 0.791565 0.734313
O O3 0.237831 0.835872 0.771451
O O4 0.294480 0.818707 0.000000
O O5 0.839256 0.500000 0.250000
O O6 0.878403 0.583686 0.232219
O O7 0.778585 0.567830 0.192251
O O8 0.841116 0.547088 0.000000
O O9 0.537817 0.040022 0.820971
O O10 0.554037 0.140421 0.827920
O O11 0.596582 0.079937 0.000000
O O12 0.909010 0.270784 0.756085
O O13 0.000000 0.285487 0.750000
O O14 0.954184 0.285666 0.000000
O O15 0.713190 0.500000 0.250000
O O16 0.722801 0.463916 0.500000
O O17 0.685244 0.404555 0.316662
O O18 0.132160 0.734849 0.500000
O O19 0.154852 0.801837 0.313387
O O20 0.789645 0.839130 0.000000
#
# Coordination Sequence:
#
# PCOD9496723 Si02
#       8
#    16  16  16   4  16  16  16  16
#     4   9  17  29  46  72 102 131 168 214 258 301
#     4  10  20  33  50  70  96 129 168 208 255 305
#     4  11  24  38  54  74  96 124 166 219 270 317
#     4  12  22  40  60  74  90 124 174 220 272 312
#     4  11  24  41  56  77 104 132 169 216 271 323
#     4   9  19  34  50  74 105 139 172 209 250 301
#     4  10  20  35  55  76 101 136 174 214 261 313
#     4   9  18  33  52  75 104 139 177 212 254 310
#
# _framework density 16.590098000000001
#
# number of rings (size 3 to 8) (size 9 to 14) (size 15 to 20)
#    0.000    2.069    1.379    1.862    1.931    4.966 
#    0.000    0.000    0.000    0.000    0.000    0.000 
#    0.000    0.552    0.000    6.345    0.000    1.931 
#
# Total GULP energy -323023.040976 kJ/mol
# GULP energy per Si atom -5569.362775 kJ/mol
# Density = 1.655234 g / cm^3
# Si number density = 16.590098 Si / 1000 Ang^3
#
#
#
# Elastic Constant Matrix: (Units=GPa)
#
#
# Indices 1 2 3 4 5 6 
#
# 1 63.8371 31.3004 55.2755 0.0000 0.0000 0.0000
# 2 31.3004 70.2022 57.7177 0.0000 0.0000 0.0000
# 3 55.2755 57.7177 118.2385 0.0000 0.0000 0.0000
# 4 0.0000 0.0000 0.0000 19.3302 0.0000 0.0000
# 5 0.0000 0.0000 0.0000 0.0000 22.1285 0.0000
# 6 0.0000 0.0000 0.0000 0.0000 0.0000 20.7904
#
#
#
# Elastic Compliance Matrix: (Units=1/GPa)
#
#
# Indices 1 2 3 4 5 6 
#
# 1 0.026629 -0.002736 -0.011113 0.000000 0.000000 0.000000
# 2 -0.002736 0.024075 -0.010473 0.000000 0.000000 0.000000
# 3 -0.011113 -0.010473 0.018765 0.000000 0.000000 0.000000
# 4 0.000000 0.000000 0.000000 0.051733 0.000000 0.000000
# 5 0.000000 0.000000 0.000000 0.000000 0.045191 0.000000
# 6 0.000000 0.000000 0.000000 0.000000 0.000000 0.048099
#
#
# Mechanical properties :
#
#
# Convention : Reuss Voigt Hill
#
# Bulk Modulus (GPa) = 48.01983 60.09612 54.05797
# Shear Modulus (GPa) = 18.51312 19.64875 19.08093
#
# Velocity S-wave (km/s) = 3.34415 3.44520 3.39505
# Velocity P-wave (km/s) = 6.62713 7.22001 6.92991
#
# Compressibility (1/GPa) = 0.02082473
#
# Stress axis : x y z
#
# Youngs Moduli (GPa) = 37.55260 41.53676 53.28958
#
# Poissons Ratio (x) = 0.11364 0.59223
# Poissons Ratio (y) = 0.10274 0.55811
# Poissons Ratio (z) = 0.41734 0.43502
#
# Static dielectric constant tensor:
#      x y z
#    x 1.583250 0.000000 0.000000 
#    y 0.000000 1.601930 0.000000 
#    z 0.000000 0.000000 1.574170 
# 
# From -- ./inp_files/11714.got.cif
#   From: 2010.05.17/outbox.cif.g08.bks.cpg/sg66_6_cif.got.tgz:11714.got - 2010.06.03 17:51:23.
