data_PCOD9496464
_publ_section_title
;
Structure prediction by ZEFSAII (Michael W. Deem and Ramdas Pophale) SiO2 
 PCOD9496464
Probable space group: C C C M
;
_chemical_formula_sum "Si O2"
_cell_formula_units_Z 96
_cell_length_a 11.560492
_cell_length_b 24.901099
_cell_length_c 17.045675
_cell_angle_alpha 90.000000
_cell_angle_beta 90.000000
_cell_angle_gamma 90.000000
_cell_volume 4906.920663
_symmetry_space_group_name_H-M "C C C M"
_symmetry_group_IT_number 66
_symmetry_cell_setting 'orthorhombic'
loop_
_space_group_symop_operation_xyz
x,y,z
-x,-y,z
x,-y,1/2-z
-x,y,1/2-z
-x,-y,-z
x,y,-z
-x,y,1/2+z
x,-y,1/2+z
1/2+x,1/2+y,z
1/2-x,1/2-y,z
1/2+x,1/2-y,1/2-z
1/2-x,1/2+y,1/2-z
1/2-x,1/2-y,-z
1/2+x,1/2+y,-z
1/2-x,1/2+y,1/2+z
1/2+x,1/2-y,1/2+z
loop_
_atom_site_type_symbol
_atom_site_label
_atom_site_fract_x
_atom_site_fract_y
_atom_site_fract_z
Si Si1 0.183147 0.963769 0.000000
Si Si2 0.974433 0.761757 0.089228
Si Si3 0.326521 0.648845 0.361195
Si Si4 0.180897 0.195089 0.695812
Si Si5 0.425694 0.136740 0.092520
Si Si6 0.578039 0.578287 0.000000
Si Si7 0.172702 0.614526 0.089635
O O1 0.253475 0.939355 0.074091
O O2 0.055391 0.938638 0.000000
O O3 0.162502 0.026834 0.000000
O O4 0.069284 0.786569 0.146931
O O5 0.854120 0.793104 0.100645
O O6 0.958633 0.699101 0.104075
O O7 0.014182 0.769576 0.000000
O O8 0.354578 0.659735 0.270779
O O9 0.194718 0.629077 0.364303
O O10 0.397908 0.610734 0.419809
O O11 0.250000 0.250000 0.718268
O O12 0.262485 0.157621 0.642471
O O13 0.541042 0.104866 0.116158
O O14 0.402624 0.127632 0.000000
O O15 0.162971 0.637446 0.000000
#
# Coordination Sequence:
#
# PCOD9496464 Si02
#       7
#     8  16  16  16  16   8  16
#     4   9  22  43  73  90 108 155 217 277 314 368
#     4  11  21  35  57  84 126 174 210 246 298 371
#     4  12  24  37  57  88 129 167 202 255 312 383
#     4  12  23  36  57  94 131 165 206 241 301 373
#     4  10  19  36  58  86 123 165 208 242 305 377
#     4  11  22  45  65  89 118 161 208 269 330 354
#     4   9  20  39  63  89 118 159 208 260 303 363
#
# _framework density 19.564204
#
# number of rings (size 3 to 8) (size 9 to 14) (size 15 to 20)
#    0.500    0.833    3.333    3.500    0.000    2.667 
#    0.000    2.500    0.000    2.000    0.000    2.333 
#    0.000    0.000    0.000    0.000    0.000    0.000 
#
# Total GULP energy -267684.392799 kJ/mol
# GULP energy per Si atom -5576.758183 kJ/mol
# Density = 1.951968 g / cm^3
# Si number density = 19.564204 Si / 1000 Ang^3
#
#
#
# Elastic Constant Matrix: (Units=GPa)
#
#
# Indices 1 2 3 4 5 6 
#
# 1 65.3408 10.7604 -2.1743 0.0000 0.0000 0.0000
# 2 10.7604 56.6698 10.4926 0.0000 0.0000 0.0000
# 3 -2.1743 10.4926 68.2289 0.0000 0.0000 0.0000
# 4 0.0000 0.0000 0.0000 -8.8875 0.0000 0.0000
# 5 0.0000 0.0000 0.0000 0.0000 10.3749 0.0000
# 6 0.0000 0.0000 0.0000 0.0000 0.0000 28.9406
#
#
#
# Elastic Compliance Matrix: (Units=1/GPa)
#
#
# Indices 1 2 3 4 5 6 
#
# 1 0.015864 -0.003197 0.000997 0.000000 0.000000 0.000000
# 2 -0.003197 0.018807 -0.002994 0.000000 0.000000 0.000000
# 3 0.000997 -0.002994 0.015149 0.000000 0.000000 0.000000
# 4 0.000000 0.000000 0.000000 -0.112517 0.000000 0.000000
# 5 0.000000 0.000000 0.000000 0.000000 0.096387 0.000000
# 6 0.000000 0.000000 0.000000 0.000000 0.000000 0.034554
#
#
# Mechanical properties :
#
#
# Convention : Reuss Voigt Hill
#
# Bulk Modulus (GPa) = 25.35976 25.37742 25.36859
# Shear Modulus (GPa) = 54.48107 17.49632 35.98870
#
# Velocity S-wave (km/s) = 5.28278 2.99373 4.29361
# Velocity P-wave (km/s) = 7.08525 4.99494 6.12986
#
# Compressibility (1/GPa) = 0.03943255
#
# Stress axis : x y z
#
# Youngs Moduli (GPa) = 63.03568 53.17034 66.01187
#
# Poissons Ratio (x) = 0.16998 -0.06583
# Poissons Ratio (y) = 0.20152 0.19765
# Poissons Ratio (z) = -0.06286 0.15920
#
# Static dielectric constant tensor:
#      x y z
#    x 1.738040 0.000000 0.000000 
#    y 0.000000 1.659880 0.000000 
#    z 0.000000 0.000000 1.701230 
# 
# From -- ./inp_files/39045.got.cif
#   From: 2010.05.17/outbox.cif.g08.bks.cpg/sg66_20_cif.got.tgz:39045.got - 2010.06.03 17:51:23.
