data_PCOD9496653
_publ_section_title
;
Structure prediction by ZEFSAII (Michael W. Deem and Ramdas Pophale) SiO2 
 PCOD9496653
Probable space group: C C C M
;
_chemical_formula_sum "Si O2"
_cell_formula_units_Z 96
_cell_length_a 33.636562
_cell_length_b 19.236638
_cell_length_c 8.652720
_cell_angle_alpha 90.000000
_cell_angle_beta 90.000000
_cell_angle_gamma 90.000000
_cell_volume 5598.780260
_symmetry_space_group_name_H-M "C C C M"
_symmetry_group_IT_number 66
_symmetry_cell_setting 'orthorhombic'
loop_
_space_group_symop_operation_xyz
x,y,z
-x,-y,z
x,-y,1/2-z
-x,y,1/2-z
-x,-y,-z
x,y,-z
-x,y,1/2+z
x,-y,1/2+z
1/2+x,1/2+y,z
1/2-x,1/2-y,z
1/2+x,1/2-y,1/2-z
1/2-x,1/2+y,1/2-z
1/2-x,1/2-y,-z
1/2+x,1/2+y,-z
1/2-x,1/2+y,1/2+z
1/2+x,1/2-y,1/2+z
loop_
_atom_site_type_symbol
_atom_site_label
_atom_site_fract_x
_atom_site_fract_y
_atom_site_fract_z
Si Si1 0.242798 0.923391 0.686529
Si Si2 0.880922 0.710663 0.186719
Si Si3 0.043574 0.214788 0.315097
Si Si4 0.666528 0.076354 0.686753
Si Si5 0.588144 0.425268 0.815132
Si Si6 0.663906 0.350090 0.313420
O O1 0.242445 0.925876 0.500000
O O2 0.287950 0.906230 0.734316
O O3 0.208260 0.870646 0.735966
O O4 0.233466 0.000000 0.750000
O O5 0.923519 0.731378 0.254158
O O6 0.863180 0.637028 0.237638
O O7 0.850810 0.773200 0.231121
O O8 0.883521 0.710494 0.000000
O O9 0.042861 0.216729 0.500000
O O10 0.059167 0.137900 0.266737
O O11 0.000000 0.227881 0.250000
O O12 0.665812 0.073966 0.500000
O O13 0.656974 0.000000 0.750000
O O14 0.576397 0.500000 0.750000
O O15 0.631701 0.403643 0.754031
O O16 0.588946 0.428031 0.000000
O O17 0.662178 0.354219 0.500000
#
# Coordination Sequence:
#
# PCOD9496653 Si02
#       6
#    16  16  16  16  16  16
#     4   9  17  28  43  66  96 131 169 205 239 275
#     4   9  18  33  52  73  97 126 160 198 242 290
#     4  10  21  36  54  75  98 125 157 195 240 290
#     4   9  18  32  50  72  98 128 161 198 241 289
#     4  10  20  32  47  69  98 132 168 203 238 277
#     4   9  17  29  46  68  96 131 169 207 242 277
#
# _framework density 17.146592999999999
#
# number of rings (size 3 to 8) (size 9 to 14) (size 15 to 20)
#    0.000    2.667    0.000    1.500    0.000    5.667 
#    0.000    5.000    0.000    0.500    0.000   12.833 
#    0.000    0.000    0.000    0.000    0.000    0.000 
#
# Total GULP energy -267668.695252 kJ/mol
# GULP energy per Si atom -5576.431151 kJ/mol
# Density = 1.710757 g / cm^3
# Si number density = 17.146593 Si / 1000 Ang^3
#
#
#
# Elastic Constant Matrix: (Units=GPa)
#
#
# Indices 1 2 3 4 5 6 
#
# 1 143.1033 104.7089 30.6876 0.0000 0.0000 0.0000
# 2 104.7089 109.9349 27.0576 0.0000 0.0000 0.0000
# 3 30.6876 27.0576 13.0383 0.0000 0.0000 0.0000
# 4 0.0000 0.0000 0.0000 22.9889 0.0000 0.0000
# 5 0.0000 0.0000 0.0000 0.0000 19.5655 0.0000
# 6 0.0000 0.0000 0.0000 0.0000 0.0000 10.5035
#
#
#
# Elastic Compliance Matrix: (Units=1/GPa)
#
#
# Indices 1 2 3 4 5 6 
#
# 1 0.025263 -0.019270 -0.019471 0.000000 0.000000 0.000000
# 2 -0.019270 0.033292 -0.023733 0.000000 0.000000 0.000000
# 3 -0.019471 -0.023733 0.171776 0.000000 0.000000 0.000000
# 4 0.000000 0.000000 0.000000 0.043499 0.000000 0.000000
# 5 0.000000 0.000000 0.000000 0.000000 0.051110 0.000000
# 6 0.000000 0.000000 0.000000 0.000000 0.000000 0.095206
#
#
# Mechanical properties :
#
#
# Convention : Reuss Voigt Hill
#
# Bulk Modulus (GPa) = 9.48918 65.66498 37.57708
# Shear Modulus (GPa) = 8.61738 17.51974 13.06856
#
# Velocity S-wave (km/s) = 2.24424 3.19997 2.76373
# Velocity P-wave (km/s) = 3.50166 7.21335 5.66984
#
# Compressibility (1/GPa) = 0.10538321
#
# Stress axis : x y z
#
# Youngs Moduli (GPa) = 39.58292 30.03749 5.82153
#
# Poissons Ratio (x) = 0.57883 0.11335
# Poissons Ratio (y) = 0.76277 0.13816
# Poissons Ratio (z) = 0.77071 0.71288
#
# Static dielectric constant tensor:
#      x y z
#    x 1.571600 0.000000 0.000000 
#    y 0.000000 1.567360 0.000000 
#    z 0.000000 0.000000 1.581070 
# 
# From -- ./inp_files/10237.got.cif
#   From: 2010.05.17/outbox.cif.g08.bks.cpg/sg66_6_cif.got.tgz:10237.got - 2010.06.03 17:51:23.
