data_PCOD9496441
_publ_section_title
;
Structure prediction by ZEFSAII (Michael W. Deem and Ramdas Pophale) SiO2 
 PCOD9496441
Probable space group: C C C M
;
_chemical_formula_sum "Si O2"
_cell_formula_units_Z 64
_cell_length_a 29.345036
_cell_length_b 8.608920
_cell_length_c 14.501894
_cell_angle_alpha 90.000000
_cell_angle_beta 90.000000
_cell_angle_gamma 90.000000
_cell_volume 3663.599956
_symmetry_space_group_name_H-M "C C C M"
_symmetry_group_IT_number 66
_symmetry_cell_setting 'orthorhombic'
loop_
_space_group_symop_operation_xyz
x,y,z
-x,-y,z
x,-y,1/2-z
-x,y,1/2-z
-x,-y,-z
x,y,-z
-x,y,1/2+z
x,-y,1/2+z
1/2+x,1/2+y,z
1/2-x,1/2-y,z
1/2+x,1/2-y,1/2-z
1/2-x,1/2+y,1/2-z
1/2-x,1/2-y,-z
1/2+x,1/2+y,-z
1/2-x,1/2+y,1/2+z
1/2+x,1/2-y,1/2+z
loop_
_atom_site_type_symbol
_atom_site_label
_atom_site_fract_x
_atom_site_fract_y
_atom_site_fract_z
Si Si1 0.817013 0.927402 0.000000
Si Si2 0.853871 0.436023 0.148559
Si Si3 0.552768 0.459960 0.500000
Si Si4 0.620771 0.420180 0.150564
Si Si5 0.389316 0.841919 0.500000
Si Si6 0.774964 0.583184 0.500000
O O1 0.842666 0.762016 0.000000
O O2 0.837065 0.014554 0.089958
O O3 0.763171 0.949010 0.000000
O O4 0.845512 0.500000 0.250000
O O5 0.874315 0.264094 0.155990
O O6 0.886626 0.549684 0.089786
O O7 0.807798 0.427039 0.088399
O O8 0.500000 0.500000 0.500000
O O9 0.577106 0.533143 0.410269
O O10 0.569200 0.279843 0.500000
O O11 0.619940 0.500000 0.250000
O O12 0.750000 0.750000 0.500000
#
# Coordination Sequence:
#
# PCOD9496441 Si02
#       6
#     8  16   8  16   8   8
#     4  10  19  36  55  77 111 154 193 236 289 338
#     4  11  21  36  56  83 114 155 196 237 287 338
#     4  10  21  39  63  88 107 141 186 233 295 361
#     4  10  20  37  59  80 112 153 189 229 286 353
#     4   9  20  38  58  82 115 147 187 244 291 348
#     4  11  20  38  52  80 118 149 200 248 281 323
#
# _framework density 17.469156999999999
#
# number of rings (size 3 to 8) (size 9 to 14) (size 15 to 20)
#    0.000    2.000    2.500    5.250    0.000    3.500 
#    4.500    2.500    0.000    1.500    0.000    0.000 
#    0.000    0.000    0.000    0.000    0.000    0.000 
#
# Total GULP energy -178573.058955 kJ/mol
# GULP energy per Si atom -5580.408092 kJ/mol
# Density = 1.742940 g / cm^3
# Si number density = 17.469157 Si / 1000 Ang^3
#
#
#
# Elastic Constant Matrix: (Units=GPa)
#
#
# Indices 1 2 3 4 5 6 
#
# 1 116.1154 48.7299 59.6103 0.0000 0.0000 0.0000
# 2 48.7299 158.8734 74.8112 0.0000 0.0000 0.0000
# 3 59.6103 74.8112 187.3556 0.0000 0.0000 0.0000
# 4 0.0000 0.0000 0.0000 32.3724 0.0000 0.0000
# 5 0.0000 0.0000 0.0000 0.0000 -0.4040 0.0000
# 6 0.0000 0.0000 0.0000 0.0000 0.0000 17.2928
#
#
#
# Elastic Compliance Matrix: (Units=1/GPa)
#
#
# Indices 1 2 3 4 5 6 
#
# 1 0.010830 -0.002093 -0.002610 0.000000 0.000000 0.000000
# 2 -0.002093 0.008156 -0.002591 0.000000 0.000000 0.000000
# 3 -0.002610 -0.002591 0.007202 0.000000 0.000000 0.000000
# 4 0.000000 0.000000 0.000000 0.030891 0.000000 0.000000
# 5 0.000000 0.000000 0.000000 0.000000 -2.475535 0.000000
# 6 0.000000 0.000000 0.000000 0.000000 0.000000 0.057828
#
#
# Mechanical properties :
#
#
# Convention : Reuss Voigt Hill
#
# Bulk Modulus (GPa) = 86.19766 92.07191 89.13479
# Shear Modulus (GPa) = -2.13477 28.46511 13.16517
#
# Velocity S-wave (km/s) = -1.10665 4.04102 2.74820
# Velocity P-wave (km/s) = 6.91498 8.63672 7.82336
#
# Compressibility (1/GPa) = 0.01160124
#
# Stress axis : x y z
#
# Youngs Moduli (GPa) = 92.33255 122.60511 138.84078
#
# Poissons Ratio (x) = 0.25659 0.36240
# Poissons Ratio (y) = 0.19323 0.35973
# Poissons Ratio (z) = 0.24101 0.31766
#
# Static dielectric constant tensor:
#      x y z
#    x 1.577870 0.000000 0.000000 
#    y 0.000000 1.623840 0.000000 
#    z 0.000000 0.000000 1.569330 
# 
# From -- ./inp_files/24597.got.cif
#   From: 2010.05.17/outbox.cif.g08.bks.cpg/sg66_13_cif.got.tgz:24597.got - 2010.06.03 17:51:23.
