data_PCOD9496331
_publ_section_title
;
Structure prediction by ZEFSAII (Michael W. Deem and Ramdas Pophale) SiO2 
 PCOD9496331
Probable space group: C C C M
;
_chemical_formula_sum "Si O2"
_cell_formula_units_Z 88
_cell_length_a 9.431973
_cell_length_b 19.633651
_cell_length_c 22.729641
_cell_angle_alpha 90.000000
_cell_angle_beta 90.000000
_cell_angle_gamma 90.000000
_cell_volume 4209.167342
_symmetry_space_group_name_H-M "C C C M"
_symmetry_group_IT_number 66
_symmetry_cell_setting 'orthorhombic'
loop_
_space_group_symop_operation_xyz
x,y,z
-x,-y,z
x,-y,1/2-z
-x,y,1/2-z
-x,-y,-z
x,y,-z
-x,y,1/2+z
x,-y,1/2+z
1/2+x,1/2+y,z
1/2-x,1/2-y,z
1/2+x,1/2-y,1/2-z
1/2-x,1/2+y,1/2-z
1/2-x,1/2-y,-z
1/2+x,1/2+y,-z
1/2-x,1/2+y,1/2+z
1/2+x,1/2-y,1/2+z
loop_
_atom_site_type_symbol
_atom_site_label
_atom_site_fract_x
_atom_site_fract_y
_atom_site_fract_z
Si Si1 0.500000 0.000000 0.347241
Si Si2 0.851943 0.182955 0.147201
Si Si3 0.307342 0.112076 0.130674
Si Si4 0.013482 0.080099 0.929739
Si Si5 0.262829 0.069834 0.265478
Si Si6 0.407142 0.227389 0.196010
O O1 0.411251 0.948524 0.386860
O O2 0.605172 0.958339 0.304210
O O3 0.750000 0.250000 0.137394
O O4 0.794790 0.130147 0.195308
O O5 0.893217 0.132454 0.093526
O O6 0.997340 0.210281 0.175267
O O7 0.162559 0.107055 0.096070
O O8 0.288436 0.099160 0.200826
O O9 0.386535 0.183442 0.136502
O O10 0.015129 0.080414 0.000000
O O11 0.000000 0.000000 0.910327
O O12 0.177924 0.000000 0.250000
O O13 0.500000 0.196496 0.250000
O O14 0.250000 0.250000 0.215313
#
# Coordination Sequence:
#
# PCOD9496331 Si02
#       6
#     8  16  16  16  16  16
#     4  10  19  34  63  98 135 176 220 288 353 442
#     4  12  25  43  70 107 142 187 242 297 362 440
#     4  11  20  38  62  93 136 178 225 281 360 432
#     4  11  26  47  69  95 134 187 250 318 371 425
#     4  10  20  37  65 101 137 177 225 278 357 435
#     4  12  23  39  62  99 143 183 219 273 350 427
#
# _framework density 20.906746999999999
#
# number of rings (size 3 to 8) (size 9 to 14) (size 15 to 20)
#    0.000    0.909    1.818    9.545    0.000    0.364 
#    0.000    5.909    0.000    3.273    0.000    0.000 
#    0.000    0.000    0.000    0.000    0.000    0.000 
#
# Total GULP energy -245378.645424 kJ/mol
# GULP energy per Si atom -5576.787396 kJ/mol
# Density = 2.085916 g / cm^3
# Si number density = 20.906747 Si / 1000 Ang^3
#
#
#
# Elastic Constant Matrix: (Units=GPa)
#
#
# Indices 1 2 3 4 5 6 
#
# 1 116.7800 71.0799 30.9280 0.0000 0.0000 0.0000
# 2 71.0799 157.9109 38.6560 0.0000 0.0000 0.0000
# 3 30.9280 38.6560 58.1273 0.0000 0.0000 0.0000
# 4 0.0000 0.0000 0.0000 23.8098 0.0000 0.0000
# 5 0.0000 0.0000 0.0000 0.0000 31.4428 0.0000
# 6 0.0000 0.0000 0.0000 0.0000 0.0000 47.4572
#
#
#
# Elastic Compliance Matrix: (Units=1/GPa)
#
#
# Indices 1 2 3 4 5 6 
#
# 1 0.012342 -0.004716 -0.003431 0.000000 0.000000 0.000000
# 2 -0.004716 0.009366 -0.003719 0.000000 0.000000 0.000000
# 3 -0.003431 -0.003719 0.021503 0.000000 0.000000 0.000000
# 4 0.000000 0.000000 0.000000 0.041999 0.000000 0.000000
# 5 0.000000 0.000000 0.000000 0.000000 0.031804 0.000000
# 6 0.000000 0.000000 0.000000 0.000000 0.000000 0.021072
#
#
# Mechanical properties :
#
#
# Convention : Reuss Voigt Hill
#
# Bulk Modulus (GPa) = 51.33838 68.23843 59.78840
# Shear Modulus (GPa) = 29.70712 33.35224 31.52968
#
# Velocity S-wave (km/s) = 3.77362 3.99844 3.88765
# Velocity P-wave (km/s) = 6.60274 7.35030 6.98653
#
# Compressibility (1/GPa) = 0.01947861
#
# Stress axis : x y z
#
# Youngs Moduli (GPa) = 81.02454 106.77148 46.50600
#
# Poissons Ratio (x) = 0.50349 0.15955
# Poissons Ratio (y) = 0.38208 0.17298
# Poissons Ratio (z) = 0.27798 0.39713
#
# Static dielectric constant tensor:
#      x y z
#    x 1.801780 0.000000 0.000000 
#    y 0.000000 1.786990 0.000000 
#    z 0.000000 0.000000 1.714870 
# 
# From -- ./inp_files/55485.got.cif
#   From: 2010.05.17/outbox.cif.g08.bks.cpg/sg66_28_cif.got.tgz:55485.got - 2010.06.03 17:51:23.
