data_PCOD9496904
_publ_section_title
;
Structure prediction by ZEFSAII (Michael W. Deem and Ramdas Pophale) SiO2 
 PCOD9496904
Probable space group: C C C M
;
_chemical_formula_sum "Si O2"
_cell_formula_units_Z 88
_cell_length_a 19.686965
_cell_length_b 9.128810
_cell_length_c 23.882023
_cell_angle_alpha 90.000000
_cell_angle_beta 90.000000
_cell_angle_gamma 90.000000
_cell_volume 4292.042854
_symmetry_space_group_name_H-M "C C C M"
_symmetry_group_IT_number 66
_symmetry_cell_setting 'orthorhombic'
loop_
_space_group_symop_operation_xyz
x,y,z
-x,-y,z
x,-y,1/2-z
-x,y,1/2-z
-x,-y,-z
x,y,-z
-x,y,1/2+z
x,-y,1/2+z
1/2+x,1/2+y,z
1/2-x,1/2-y,z
1/2+x,1/2-y,1/2-z
1/2-x,1/2+y,1/2-z
1/2-x,1/2-y,-z
1/2+x,1/2+y,-z
1/2-x,1/2+y,1/2+z
1/2+x,1/2-y,1/2+z
loop_
_atom_site_type_symbol
_atom_site_label
_atom_site_fract_x
_atom_site_fract_y
_atom_site_fract_z
Si Si1 0.865359 0.383029 0.702820
Si Si2 0.175528 0.255482 0.564020
Si Si3 0.631843 0.420254 0.435726
Si Si4 0.464430 0.348870 0.169320
Si Si5 0.944387 0.406655 0.876238
Si Si6 0.250000 0.250000 0.124344
O O1 0.843166 0.500000 0.750000
O O2 0.909634 0.231648 0.710875
O O3 0.920329 0.479034 0.669909
O O4 0.801163 0.340049 0.664565
O O5 0.185090 0.303297 0.500000
O O6 0.250000 0.250000 0.591289
O O7 0.122596 0.363181 0.591416
O O8 0.143406 0.094248 0.565009
O O9 0.615095 0.377204 0.500000
O O10 0.576512 0.378328 0.388921
O O11 0.701942 0.347745 0.414928
O O12 0.500000 0.500000 0.187287
O O13 0.523322 0.235510 0.152226
O O14 0.000000 0.500000 0.910708
#
# Coordination Sequence:
#
# PCOD9496904 Si02
#       6
#    16  16  16  16  16   8
#     4  10  23  44  64  90 123 166 213 274 326 373
#     4  10  20  34  55  87 126 168 211 256 322 386
#     4  10  20  35  62  94 129 168 208 258 315 388
#     4  10  20  38  64  92 125 165 211 260 314 378
#     4  10  21  38  61  87 125 169 207 269 319 372
#     4  10  21  42  64  90 128 164 219 254 330 390
#
# _framework density 20.503057999999999
#
# number of rings (size 3 to 8) (size 9 to 14) (size 15 to 20)
#    0.000    2.000    1.818    1.364    0.000    4.727 
#    4.909   10.909    0.000    0.000    0.000    0.000 
#    0.000    0.000    0.000    0.000    0.000    0.000 
#
# Total GULP energy -245283.856900 kJ/mol
# GULP energy per Si atom -5574.633111 kJ/mol
# Density = 2.045639 g / cm^3
# Si number density = 20.503058 Si / 1000 Ang^3
#
#
#
# Elastic Constant Matrix: (Units=GPa)
#
#
# Indices 1 2 3 4 5 6 
#
# 1 82.9186 30.2504 13.6510 0.0000 0.0000 0.0000
# 2 30.2504 101.5513 22.9584 0.0000 0.0000 0.0000
# 3 13.6510 22.9584 56.1382 0.0000 0.0000 0.0000
# 4 0.0000 0.0000 0.0000 15.7876 0.0000 0.0000
# 5 0.0000 0.0000 0.0000 0.0000 9.7072 0.0000
# 6 0.0000 0.0000 0.0000 0.0000 0.0000 46.6824
#
#
#
# Elastic Compliance Matrix: (Units=1/GPa)
#
#
# Indices 1 2 3 4 5 6 
#
# 1 0.013699 -0.003667 -0.001832 0.000000 0.000000 0.000000
# 2 -0.003667 0.011832 -0.003947 0.000000 0.000000 0.000000
# 3 -0.001832 -0.003947 0.019873 0.000000 0.000000 0.000000
# 4 0.000000 0.000000 0.000000 0.063341 0.000000 0.000000
# 5 0.000000 0.000000 0.000000 0.000000 0.103016 0.000000
# 6 0.000000 0.000000 0.000000 0.000000 0.000000 0.021421
#
#
# Mechanical properties :
#
#
# Convention : Reuss Voigt Hill
#
# Bulk Modulus (GPa) = 37.71750 41.59196 39.65473
# Shear Modulus (GPa) = 19.16365 26.01867 22.59116
#
# Velocity S-wave (km/s) = 3.06056 3.56619 3.32300
# Velocity P-wave (km/s) = 5.56105 6.10628 5.84004
#
# Compressibility (1/GPa) = 0.02651289
#
# Stress axis : x y z
#
# Youngs Moduli (GPa) = 72.99670 84.51775 50.31992
#
# Poissons Ratio (x) = 0.30990 0.09217
# Poissons Ratio (y) = 0.26765 0.19862
# Poissons Ratio (z) = 0.13371 0.33361
#
# Static dielectric constant tensor:
#      x y z
#    x 1.775290 0.000000 0.000000 
#    y 0.000000 1.801930 0.000000 
#    z 0.000000 0.000000 1.759980 
# 
# From -- ./inp_files/59367.got.cif
#   From: 2010.05.17/outbox.cif.g08.bks.cpg/sg66_30_cif.got.tgz:59367.got - 2010.06.03 17:51:23.
