data_PCOD9496737
_publ_section_title
;
Structure prediction by ZEFSAII (Michael W. Deem and Ramdas Pophale) SiO2 
 PCOD9496737
Probable space group: C C C M
;
_chemical_formula_sum "Si O2"
_cell_formula_units_Z 120
_cell_length_a 16.180177
_cell_length_b 20.739120
_cell_length_c 20.818819
_cell_angle_alpha 90.000000
_cell_angle_beta 90.000000
_cell_angle_gamma 90.000000
_cell_volume 6986.017708
_symmetry_space_group_name_H-M "C C C M"
_symmetry_group_IT_number 66
_symmetry_cell_setting 'orthorhombic'
loop_
_space_group_symop_operation_xyz
x,y,z
-x,-y,z
x,-y,1/2-z
-x,y,1/2-z
-x,-y,-z
x,y,-z
-x,y,1/2+z
x,-y,1/2+z
1/2+x,1/2+y,z
1/2-x,1/2-y,z
1/2+x,1/2-y,1/2-z
1/2-x,1/2+y,1/2-z
1/2-x,1/2-y,-z
1/2+x,1/2+y,-z
1/2-x,1/2+y,1/2+z
1/2+x,1/2-y,1/2+z
loop_
_atom_site_type_symbol
_atom_site_label
_atom_site_fract_x
_atom_site_fract_y
_atom_site_fract_z
Si Si1 0.903117 0.514315 0.928303
Si Si2 0.633941 0.113150 0.855965
Si Si3 0.895373 0.768574 0.072363
Si Si4 0.368408 0.857261 0.647545
Si Si5 0.200722 0.182556 0.673929
Si Si6 0.298954 0.681496 0.687244
Si Si7 0.409030 0.751081 0.074259
Si Si8 0.000000 0.366999 0.250000
O O1 0.864357 0.449239 0.900498
O O2 0.894270 0.575132 0.881982
O O3 0.000000 0.500000 0.932502
O O4 0.871948 0.529245 0.000000
O O5 0.727128 0.130213 0.834812
O O6 0.603836 0.178328 0.893131
O O7 0.567350 0.100441 0.798330
O O8 0.865514 0.696924 0.092536
O O9 0.858711 0.815321 0.126603
O O10 0.994292 0.765309 0.074712
O O11 0.935855 0.666671 0.200445
O O12 0.131212 0.784331 0.500000
O O13 0.278124 0.865856 0.677904
O O14 0.250000 0.250000 0.678355
O O15 0.159473 0.172861 0.743546
O O16 0.139477 0.197124 0.615380
O O17 0.250000 0.750000 0.688027
O O18 0.380575 0.753668 0.000000
#
# Coordination Sequence:
#
# PCOD9496737 Si02
#       8
#    16  16  16  16  16  16  16   8
#     4  11  22  34  48  70  99 138 175 210 244 291
#     4  11  21  33  51  71 102 135 174 208 247 293
#     4  10  20  33  51  74 101 133 167 207 253 304
#     4  11  21  33  51  71 102 135 174 208 247 293
#     4   9  19  32  49  72  98 128 167 209 251 296
#     4   9  19  32  49  72  98 128 167 209 251 296
#     4  10  20  33  51  74 101 133 167 207 253 304
#     4  12  20  33  50  72  98 144 170 215 242 294
#
# _framework density 17.177167000000001
#
# number of rings (size 3 to 8) (size 9 to 14) (size 15 to 20)
#    0.000    1.733    4.000    0.800    1.867    9.600 
#    0.000    0.000    0.000    0.000    0.000    0.933 
#    0.000    5.333    0.000    0.000    0.000    0.000 
#
# Total GULP energy -334062.694173 kJ/mol
# GULP energy per Si atom -5567.711570 kJ/mol
# Density = 1.713807 g / cm^3
# Si number density = 17.177167 Si / 1000 Ang^3
#
#
#
# Elastic Constant Matrix: (Units=GPa)
#
#
# Indices 1 2 3 4 5 6 
#
# 1 43.6368 20.4874 41.8617 0.0000 0.0000 0.0000
# 2 20.4874 43.4715 25.0457 0.0000 0.0000 0.0000
# 3 41.8617 25.0457 139.1940 0.0000 0.0000 0.0000
# 4 0.0000 0.0000 0.0000 2.8363 0.0000 0.0000
# 5 0.0000 0.0000 0.0000 0.0000 26.1925 0.0000
# 6 0.0000 0.0000 0.0000 0.0000 0.0000 22.3137
#
#
#
# Elastic Compliance Matrix: (Units=1/GPa)
#
#
# Indices 1 2 3 4 5 6 
#
# 1 0.037397 -0.012434 -0.009010 0.000000 0.000000 0.000000
# 2 -0.012434 0.029798 -0.001622 0.000000 0.000000 0.000000
# 3 -0.009010 -0.001622 0.010186 0.000000 0.000000 0.000000
# 4 0.000000 0.000000 0.000000 0.352570 0.000000 0.000000
# 5 0.000000 0.000000 0.000000 0.000000 0.038179 0.000000
# 6 0.000000 0.000000 0.000000 0.000000 0.000000 0.044816
#
#
# Mechanical properties :
#
#
# Convention : Reuss Voigt Hill
#
# Bulk Modulus (GPa) = 32.00061 44.56577 38.28319
# Shear Modulus (GPa) = 8.77973 19.52900 14.15436
#
# Velocity S-wave (km/s) = 2.26327 3.37548 2.87369
# Velocity P-wave (km/s) = 5.04975 6.41817 5.77464
#
# Compressibility (1/GPa) = 0.03124941
#
# Stress axis : x y z
#
# Youngs Moduli (GPa) = 26.73988 33.55911 98.17660
#
# Poissons Ratio (x) = 0.41727 0.88454
# Poissons Ratio (y) = 0.33248 0.15927
# Poissons Ratio (z) = 0.24092 0.05444
#
# Static dielectric constant tensor:
#      x y z
#    x 1.612910 0.000000 0.000000 
#    y 0.000000 1.557310 0.000000 
#    z 0.000000 0.000000 1.656070 
# 
# From -- ./inp_files/42045.got.cif
#   From: 2010.05.17/outbox.cif.g08.bks.cpg/sg66_22_cif.got.tgz:42045.got - 2010.06.03 17:51:23.
