data_PCOD9496334
_publ_section_title
;
Structure prediction by ZEFSAII (Michael W. Deem and Ramdas Pophale) SiO2 
 PCOD9496334
Probable space group: C C C M
;
_chemical_formula_sum "Si O2"
_cell_formula_units_Z 84
_cell_length_a 5.179327
_cell_length_b 31.209956
_cell_length_c 28.933671
_cell_angle_alpha 90.000000
_cell_angle_beta 90.000000
_cell_angle_gamma 90.000000
_cell_volume 4677.028610
_symmetry_space_group_name_H-M "C C C M"
_symmetry_group_IT_number 66
_symmetry_cell_setting 'orthorhombic'
loop_
_space_group_symop_operation_xyz
x,y,z
-x,-y,z
x,-y,1/2-z
-x,y,1/2-z
-x,-y,-z
x,y,-z
-x,y,1/2+z
x,-y,1/2+z
1/2+x,1/2+y,z
1/2-x,1/2-y,z
1/2+x,1/2-y,1/2-z
1/2-x,1/2+y,1/2-z
1/2-x,1/2-y,-z
1/2+x,1/2+y,-z
1/2-x,1/2+y,1/2+z
1/2+x,1/2-y,1/2+z
loop_
_atom_site_type_symbol
_atom_site_label
_atom_site_fract_x
_atom_site_fract_y
_atom_site_fract_z
Si Si1 0.573671 0.047625 0.184714
Si Si2 0.950029 0.573370 0.579014
Si Si3 0.071345 0.899871 0.701835
Si Si4 0.005316 0.778374 0.054729
Si Si5 0.500000 0.000000 0.500000
Si Si6 0.952542 0.128517 0.597298
O O1 0.555219 0.051151 0.129236
O O2 0.357647 0.080625 0.202840
O O3 0.860114 0.061926 0.198532
O O4 0.500000 0.000000 0.198734
O O5 0.974263 0.537555 0.540150
O O6 0.687642 0.600695 0.576687
O O7 0.190351 0.606142 0.579703
O O8 0.041502 0.874995 0.653335
O O9 0.000000 0.876824 0.750000
O O10 0.250000 0.750000 0.069519
O O11 0.750000 0.750000 0.060525
O O12 0.978925 0.822899 0.081258
O O13 0.036237 0.787855 0.000000
#
# Coordination Sequence:
#
# PCOD9496334 Si02
#       6
#    16  16  16  16   4  16
#     4  10  19  35  48  73 107 137 185 232 274 306
#     4  10  23  35  54  79 112 152 187 229 261 323
#     4  10  21  34  54  76 102 141 182 225 272 324
#     4  10  21  37  60  86 110 137 176 221 273 335
#     4  12  24  38  56  82 110 158 200 230 260 314
#     4  10  22  40  57  81 113 146 181 225 282 323
#
# _framework density 17.960121999999998
#
# number of rings (size 3 to 8) (size 9 to 14) (size 15 to 20)
#    0.000    1.905    0.952    2.286    2.667    3.810 
#    0.000    0.000    0.000    1.143    0.000    0.000 
#    0.000    0.000    0.000    0.000    0.000    0.000 
#
# Total GULP energy -233967.207732 kJ/mol
# GULP energy per Si atom -5570.647803 kJ/mol
# Density = 1.791924 g / cm^3
# Si number density = 17.960122 Si / 1000 Ang^3
#
#
#
# Elastic Constant Matrix: (Units=GPa)
#
#
# Indices 1 2 3 4 5 6 
#
# 1 93.4815 14.6356 13.3466 0.0000 0.0000 0.0000
# 2 14.6356 101.2748 43.5205 0.0000 0.0000 0.0000
# 3 13.3466 43.5205 114.5966 0.0000 0.0000 0.0000
# 4 0.0000 0.0000 0.0000 -19.5306 0.0000 0.0000
# 5 0.0000 0.0000 0.0000 0.0000 -14.8352 0.0000
# 6 0.0000 0.0000 0.0000 0.0000 0.0000 8.2192
#
#
#
# Elastic Compliance Matrix: (Units=1/GPa)
#
#
# Indices 1 2 3 4 5 6 
#
# 1 0.011008 -0.001243 -0.000810 0.000000 0.000000 0.000000
# 2 -0.001243 0.011940 -0.004390 0.000000 0.000000 0.000000
# 3 -0.000810 -0.004390 0.010488 0.000000 0.000000 0.000000
# 4 0.000000 0.000000 0.000000 -0.051202 0.000000 0.000000
# 5 0.000000 0.000000 0.000000 0.000000 -0.067407 0.000000
# 6 0.000000 0.000000 0.000000 0.000000 0.000000 0.121666
#
#
# Mechanical properties :
#
#
# Convention : Reuss Voigt Hill
#
# Bulk Modulus (GPa) = 48.66098 50.26205 49.46151
# Shear Modulus (GPa) = 88.92497 10.62737 49.77617
#
# Velocity S-wave (km/s) = 7.04414 2.43517 5.27020
# Velocity P-wave (km/s) = 9.65985 5.99607 8.03945
#
# Compressibility (1/GPa) = 0.02055035
#
# Stress axis : x y z
#
# Youngs Moduli (GPa) = 90.84702 83.75137 95.34960
#
# Poissons Ratio (x) = 0.10407 0.07724
# Poissons Ratio (y) = 0.11289 0.41856
# Poissons Ratio (z) = 0.07359 0.36765
#
# Static dielectric constant tensor:
#      x y z
#    x 1.629650 0.000000 0.000000 
#    y 0.000000 1.557120 0.000000 
#    z 0.000000 0.000000 1.654830 
# 
# From -- ./inp_files/67289.got.cif
#   From: 2010.05.17/outbox.cif.g08.bks.cpg/sg66_34_cif.got.tgz:67289.got - 2010.06.03 17:51:23.
