data_PCOD9496543
_publ_section_title
;
Structure prediction by ZEFSAII (Michael W. Deem and Ramdas Pophale) SiO2 
 PCOD9496543
Probable space group: C C C M
;
_chemical_formula_sum "Si O2"
_cell_formula_units_Z 88
_cell_length_a 19.483726
_cell_length_b 9.287606
_cell_length_c 23.849996
_cell_angle_alpha 90.000000
_cell_angle_beta 90.000000
_cell_angle_gamma 90.000000
_cell_volume 4315.827793
_symmetry_space_group_name_H-M "C C C M"
_symmetry_group_IT_number 66
_symmetry_cell_setting 'orthorhombic'
loop_
_space_group_symop_operation_xyz
x,y,z
-x,-y,z
x,-y,1/2-z
-x,y,1/2-z
-x,-y,-z
x,y,-z
-x,y,1/2+z
x,-y,1/2+z
1/2+x,1/2+y,z
1/2-x,1/2-y,z
1/2+x,1/2-y,1/2-z
1/2-x,1/2+y,1/2-z
1/2-x,1/2-y,-z
1/2+x,1/2+y,-z
1/2-x,1/2+y,1/2+z
1/2+x,1/2-y,1/2+z
loop_
_atom_site_type_symbol
_atom_site_label
_atom_site_fract_x
_atom_site_fract_y
_atom_site_fract_z
Si Si1 0.812000 0.141008 0.000000
Si Si2 0.186154 0.852692 0.713953
Si Si3 0.905032 0.404875 0.000000
Si Si4 0.000000 0.000000 0.640493
Si Si5 0.354035 0.424335 0.908464
Si Si6 0.000000 0.500000 0.399066
Si Si7 0.829506 0.701324 0.000000
Si Si8 0.960204 0.713516 0.802837
O O1 0.750000 0.250000 0.000000
O O2 0.814768 0.038932 0.946371
O O3 0.877153 0.244761 0.000000
O O4 0.250000 0.750000 0.728643
O O5 0.187124 0.896474 0.648404
O O6 0.115373 0.762335 0.716463
O O7 0.183696 0.000000 0.750000
O O8 0.848149 0.533408 0.000000
O O9 0.948215 0.425410 0.057126
O O10 0.070110 0.982929 0.605788
O O11 0.999563 0.858036 0.678519
O O12 0.360651 0.279658 0.945330
O O13 0.037792 0.609927 0.356725
O O14 0.750000 0.750000 0.000000
O O15 0.000000 0.651983 0.750000
#
# Coordination Sequence:
#
# PCOD9496543 Si02
#       8
#     8  16   8   8  16   8   8  16
#     4  11  24  37  58  87 120 159 200 250 306 363
#     4  11  25  44  67  95 128 168 211 262 320 385
#     4  11  22  40  58  88 126 155 209 263 304 373
#     4  10  19  37  64  88 114 153 203 258 310 364
#     4  10  22  40  62  88 118 159 205 252 310 376
#     4  11  25  38  60  90 123 165 200 258 322 363
#     4  11  22  39  62  85 122 171 208 253 322 384
#     4  11  22  41  64  91 124 161 207 258 316 380
#
# _framework density 20.390063000000001
#
# number of rings (size 3 to 8) (size 9 to 14) (size 15 to 20)
#    0.000    1.273    0.000    7.636    0.000    6.545 
#    0.000    0.000    0.000    0.000    0.000    0.000 
#    0.000    0.000    0.000    0.000    0.000    0.000 
#
# Total GULP energy -245839.389674 kJ/mol
# GULP energy per Si atom -5587.258856 kJ/mol
# Density = 2.034365 g / cm^3
# Si number density = 20.390063 Si / 1000 Ang^3
#
#
#
# Elastic Constant Matrix: (Units=GPa)
#
#
# Indices 1 2 3 4 5 6 
#
# 1 103.9460 34.0346 36.4458 0.0000 0.0000 0.0000
# 2 34.0346 101.6476 47.3440 0.0000 0.0000 0.0000
# 3 36.4458 47.3440 140.5287 0.0000 0.0000 0.0000
# 4 0.0000 0.0000 0.0000 943.1179 0.0000 0.0000
# 5 0.0000 0.0000 0.0000 0.0000 10.3414 0.0000
# 6 0.0000 0.0000 0.0000 0.0000 0.0000 35.8450
#
#
#
# Elastic Compliance Matrix: (Units=1/GPa)
#
#
# Indices 1 2 3 4 5 6 
#
# 1 0.011240 -0.002853 -0.001954 0.000000 0.000000 0.000000
# 2 -0.002853 0.012393 -0.003435 0.000000 0.000000 0.000000
# 3 -0.001954 -0.003435 0.008780 0.000000 0.000000 0.000000
# 4 0.000000 0.000000 0.000000 0.001060 0.000000 0.000000
# 5 0.000000 0.000000 0.000000 0.000000 0.096699 0.000000
# 6 0.000000 0.000000 0.000000 0.000000 0.000000 0.027898
#
#
# Mechanical properties :
#
#
# Convention : Reuss Voigt Hill
#
# Bulk Modulus (GPa) = 62.78139 64.64124 63.71132
# Shear Modulus (GPa) = 27.79874 213.08071 120.43973
#
# Velocity S-wave (km/s) = 3.69636 10.23372 7.69390
# Velocity P-wave (km/s) = 7.00532 13.09236 10.49963
#
# Compressibility (1/GPa) = 0.01592829
#
# Stress axis : x y z
#
# Youngs Moduli (GPa) = 88.97060 80.68837 113.89513
#
# Poissons Ratio (x) = 0.23024 0.22251
# Poissons Ratio (y) = 0.25387 0.39126
# Poissons Ratio (z) = 0.17382 0.27719
#
# Static dielectric constant tensor:
#      x y z
#    x 1.669650 0.000000 0.000000 
#    y 0.000000 1.754260 0.000000 
#    z 0.000000 0.000000 1.718410 
# 
# From -- ./inp_files/59427.got.cif
#   From: 2010.05.17/outbox.cif.g08.bks.cpg/sg66_30_cif.got.tgz:59427.got - 2010.06.03 17:51:23.
