data_PCOD9496503
_publ_section_title
;
Structure prediction by ZEFSAII (Michael W. Deem and Ramdas Pophale) SiO2 
 PCOD9496503
Probable space group: C C C M
;
_chemical_formula_sum "Si O2"
_cell_formula_units_Z 104
_cell_length_a 24.394025
_cell_length_b 9.761997
_cell_length_c 20.271956
_cell_angle_alpha 90.000000
_cell_angle_beta 90.000000
_cell_angle_gamma 90.000000
_cell_volume 4827.450056
_symmetry_space_group_name_H-M "C C C M"
_symmetry_group_IT_number 66
_symmetry_cell_setting 'orthorhombic'
loop_
_space_group_symop_operation_xyz
x,y,z
-x,-y,z
x,-y,1/2-z
-x,y,1/2-z
-x,-y,-z
x,y,-z
-x,y,1/2+z
x,-y,1/2+z
1/2+x,1/2+y,z
1/2-x,1/2-y,z
1/2+x,1/2-y,1/2-z
1/2-x,1/2+y,1/2-z
1/2-x,1/2-y,-z
1/2+x,1/2+y,-z
1/2-x,1/2+y,1/2+z
1/2+x,1/2-y,1/2+z
loop_
_atom_site_type_symbol
_atom_site_label
_atom_site_fract_x
_atom_site_fract_y
_atom_site_fract_z
Si Si1 0.903469 0.139464 0.500000
Si Si2 0.783230 0.557561 0.133358
Si Si3 0.180820 0.824106 0.694559
Si Si4 0.273952 0.598249 0.500000
Si Si5 0.071202 0.929877 0.354140
Si Si6 0.026779 0.231530 0.356375
Si Si7 0.632084 0.125842 0.200128
Si Si8 0.494149 0.163106 0.000000
O O1 0.839025 0.113592 0.500000
O O2 0.926652 0.075248 0.433336
O O3 0.929798 0.291815 0.500000
O O4 0.815153 0.703877 0.138111
O O5 0.737028 0.591351 0.188991
O O6 0.750270 0.533137 0.066387
O O7 0.825783 0.437474 0.147143
O O8 0.130931 0.919065 0.675249
O O9 0.164183 0.746401 0.761201
O O10 0.250000 0.750000 0.500000
O O11 0.036061 0.795137 0.332184
O O12 0.048157 0.079093 0.340407
O O13 0.072651 0.329248 0.325776
O O14 0.020686 0.273991 0.433345
O O15 0.624250 0.000000 0.250000
O O16 0.500000 0.000000 0.000000
#
# Coordination Sequence:
#
# PCOD9496503 Si02
#       8
#     8  16  16   8  16  16  16   8
#     4  10  19  36  64 100 127 165 215 268 338 390
#     4  10  21  40  61  97 129 165 226 276 339 403
#     4  10  20  41  62  88 126 175 223 268 333 398
#     4  12  18  33  66  95 123 159 213 284 317 393
#     4  10  20  40  68  94 127 164 217 277 329 403
#     4  10  23  42  65  97 127 167 218 270 340 400
#     4  10  24  44  60  89 136 179 220 283 338 409
#     4  10  23  41  66  99 136 178 209 273 347 424
#
# _framework density 21.543465000000001
#
# number of rings (size 3 to 8) (size 9 to 14) (size 15 to 20)
#    0.000    1.846    3.077    0.462    0.000    9.846 
#   16.615    3.846    0.000    0.923    0.000    0.000 
#    0.000    0.000    0.000    0.000    0.000    0.000 
#
# Total GULP energy -290054.500857 kJ/mol
# GULP energy per Si atom -5577.971170 kJ/mol
# Density = 2.149443 g / cm^3
# Si number density = 21.543465 Si / 1000 Ang^3
#
#
#
# Elastic Constant Matrix: (Units=GPa)
#
#
# Indices 1 2 3 4 5 6 
#
# 1 109.0148 28.2789 30.9249 0.0000 0.0000 0.0000
# 2 28.2789 59.9775 16.6426 0.0000 0.0000 0.0000
# 3 30.9249 16.6426 70.4837 0.0000 0.0000 0.0000
# 4 0.0000 0.0000 0.0000 18.6927 0.0000 0.0000
# 5 0.0000 0.0000 0.0000 0.0000 24.9578 0.0000
# 6 0.0000 0.0000 0.0000 0.0000 0.0000 28.3336
#
#
#
# Elastic Compliance Matrix: (Units=1/GPa)
#
#
# Indices 1 2 3 4 5 6 
#
# 1 0.011416 -0.004273 -0.004000 0.000000 0.000000 0.000000
# 2 -0.004273 0.019441 -0.002716 0.000000 0.000000 0.000000
# 3 -0.004000 -0.002716 0.016584 0.000000 0.000000 0.000000
# 4 0.000000 0.000000 0.000000 0.053497 0.000000 0.000000
# 5 0.000000 0.000000 0.000000 0.000000 0.040068 0.000000
# 6 0.000000 0.000000 0.000000 0.000000 0.000000 0.035294
#
#
# Mechanical properties :
#
#
# Convention : Reuss Voigt Hill
#
# Bulk Modulus (GPa) = 39.27081 43.46320 41.36700
# Shear Modulus (GPa) = 24.18214 25.30546 24.74380
#
# Velocity S-wave (km/s) = 3.35398 3.43100 3.39271
# Velocity P-wave (km/s) = 5.76777 5.99284 5.88138
#
# Compressibility (1/GPa) = 0.02546421
#
# Stress axis : x y z
#
# Youngs Moduli (GPa) = 87.59542 51.43762 60.29937
#
# Poissons Ratio (x) = 0.21978 0.24120
# Poissons Ratio (y) = 0.37427 0.16376
# Poissons Ratio (z) = 0.35038 0.13969
#
# Static dielectric constant tensor:
#      x y z
#    x 1.833040 0.000000 0.000000 
#    y 0.000000 1.780210 0.000000 
#    z 0.000000 0.000000 1.846720 
# 
# From -- ./inp_files/53082.got.cif
#   From: 2010.05.17/outbox.cif.g08.bks.cpg/sg66_27_cif.got.tgz:53082.got - 2010.06.03 17:51:23.
