data_PCOD9496663
_publ_section_title
;
Structure prediction by ZEFSAII (Michael W. Deem and Ramdas Pophale) SiO2 
 PCOD9496663
Probable space group: C C C M
;
_chemical_formula_sum "Si O2"
_cell_formula_units_Z 68
_cell_length_a 5.488541
_cell_length_b 37.896566
_cell_length_c 14.726144
_cell_angle_alpha 90.000000
_cell_angle_beta 90.000000
_cell_angle_gamma 90.000000
_cell_volume 3062.991657
_symmetry_space_group_name_H-M "C C C M"
_symmetry_group_IT_number 66
_symmetry_cell_setting 'orthorhombic'
loop_
_space_group_symop_operation_xyz
x,y,z
-x,-y,z
x,-y,1/2-z
-x,y,1/2-z
-x,-y,-z
x,y,-z
-x,y,1/2+z
x,-y,1/2+z
1/2+x,1/2+y,z
1/2-x,1/2-y,z
1/2+x,1/2-y,1/2-z
1/2-x,1/2+y,1/2-z
1/2-x,1/2-y,-z
1/2+x,1/2+y,-z
1/2-x,1/2+y,1/2+z
1/2+x,1/2-y,1/2+z
loop_
_atom_site_type_symbol
_atom_site_label
_atom_site_fract_x
_atom_site_fract_y
_atom_site_fract_z
Si Si1 0.892350 0.535533 0.852230
Si Si2 0.001015 0.150946 0.640692
Si Si3 0.500000 0.500000 0.750000
Si Si4 0.997673 0.386599 0.638701
Si Si5 0.998867 0.766035 0.606840
O O1 0.617776 0.527095 0.823345
O O2 0.958665 0.573023 0.892235
O O3 0.000000 0.500000 0.895986
O O4 0.000000 0.536102 0.750000
O O5 0.743581 0.134657 0.609801
O O6 0.000000 0.148471 0.750000
O O7 0.245912 0.130596 0.609742
O O8 0.009264 0.191956 0.615904
O O9 0.000000 0.386591 0.750000
O O10 0.999245 0.756755 0.500000
O O11 0.750000 0.750000 0.646054
O O12 0.250000 0.750000 0.644756
#
# Coordination Sequence:
#
# PCOD9496663 Si02
#       5
#    16  16   4  16  16
#     4   8  15  22  35  57  86 130 169 194 227 277
#     4  10  20  32  48  73  99 128 156 192 242 288
#     4   8  14  20  36  54  84 128 176 196 226 276
#     4   9  18  28  43  64 100 131 159 196 237 282
#     4  10  21  37  56  74  95 123 157 197 238 284
#
# _framework density 22.200517999999999
#
# number of rings (size 3 to 8) (size 9 to 14) (size 15 to 20)
#    0.000    3.059    0.000    1.412   11.529    0.941 
#    0.000    0.000    0.000    0.000    0.000    0.000 
#    0.000    5.647    0.000    0.000    0.000    0.000 
#
# Total GULP energy -189395.632165 kJ/mol
# GULP energy per Si atom -5570.459770 kJ/mol
# Density = 2.214999 g / cm^3
# Si number density = 22.200518 Si / 1000 Ang^3
#
#
#
# Elastic Constant Matrix: (Units=GPa)
#
#
# Indices 1 2 3 4 5 6 
#
# 1 196.7209 106.6940 8.1573 0.0000 0.0000 0.0000
# 2 106.6940 172.9100 -18.0105 0.0000 0.0000 0.0000
# 3 8.1573 -18.0105 72.8799 0.0000 0.0000 0.0000
# 4 0.0000 0.0000 0.0000 36.1176 0.0000 0.0000
# 5 0.0000 0.0000 0.0000 0.0000 -19.2243 0.0000
# 6 0.0000 0.0000 0.0000 0.0000 0.0000 62.8602
#
#
#
# Elastic Compliance Matrix: (Units=1/GPa)
#
#
# Indices 1 2 3 4 5 6 
#
# 1 0.007958 -0.005136 -0.002160 0.000000 0.000000 0.000000
# 2 -0.005136 0.009250 0.002861 0.000000 0.000000 0.000000
# 3 -0.002160 0.002861 0.014670 0.000000 0.000000 0.000000
# 4 0.000000 0.000000 0.000000 0.027687 0.000000 0.000000
# 5 0.000000 0.000000 0.000000 0.000000 -0.052017 0.000000
# 6 0.000000 0.000000 0.000000 0.000000 0.000000 0.015908
#
#
# Mechanical properties :
#
#
# Convention : Reuss Voigt Hill
#
# Bulk Modulus (GPa) = 43.46119 70.68805 57.07462
# Shear Modulus (GPa) = 125.01319 38.99536 82.00427
#
# Velocity S-wave (km/s) = 7.51220 4.19562 6.08426
# Velocity P-wave (km/s) = 9.73978 7.44183 8.66730
#
# Compressibility (1/GPa) = 0.02300903
#
# Stress axis : x y z
#
# Youngs Moduli (GPa) = 125.65526 108.10484 68.16662
#
# Poissons Ratio (x) = 0.55519 0.14723
# Poissons Ratio (y) = 0.64532 -0.19501
# Poissons Ratio (z) = 0.27140 -0.30927
#
# Static dielectric constant tensor:
#      x y z
#    x 1.655510 0.000000 0.000000 
#    y 0.000000 1.833390 0.000000 
#    z 0.000000 0.000000 1.840070 
# 
# From -- ./inp_files/45889.got.cif
#   From: 2010.05.17/outbox.cif.g08.bks.cpg/sg66_23_cif.got.tgz:45889.got - 2010.06.03 17:51:23.
