data_PCOD9496419
_publ_section_title
;
Structure prediction by ZEFSAII (Michael W. Deem and Ramdas Pophale) SiO2 
 PCOD9496419
Probable space group: C C C M
;
_chemical_formula_sum "Si O2"
_cell_formula_units_Z 80
_cell_length_a 7.440529
_cell_length_b 16.758960
_cell_length_c 25.965626
_cell_angle_alpha 90.000000
_cell_angle_beta 90.000000
_cell_angle_gamma 90.000000
_cell_volume 3237.797441
_symmetry_space_group_name_H-M "C C C M"
_symmetry_group_IT_number 66
_symmetry_cell_setting 'orthorhombic'
loop_
_space_group_symop_operation_xyz
x,y,z
-x,-y,z
x,-y,1/2-z
-x,y,1/2-z
-x,-y,-z
x,y,-z
-x,y,1/2+z
x,-y,1/2+z
1/2+x,1/2+y,z
1/2-x,1/2-y,z
1/2+x,1/2-y,1/2-z
1/2-x,1/2+y,1/2-z
1/2-x,1/2-y,-z
1/2+x,1/2+y,-z
1/2-x,1/2+y,1/2+z
1/2+x,1/2-y,1/2+z
loop_
_atom_site_type_symbol
_atom_site_label
_atom_site_fract_x
_atom_site_fract_y
_atom_site_fract_z
Si Si1 0.785918 0.914913 0.175110
Si Si2 0.506332 0.218641 0.694806
Si Si3 0.768585 0.846151 0.555854
Si Si4 0.278994 0.590935 0.833191
Si Si5 0.865776 0.816961 0.090898
O O1 0.665700 0.847291 0.201294
O O2 0.756854 0.889567 0.115473
O O3 0.005173 0.911003 0.178806
O O4 0.722205 0.003892 0.186065
O O5 0.500000 0.262137 0.750000
O O6 0.325646 0.167060 0.688153
O O7 0.551565 0.267668 0.641930
O O8 0.689057 0.865548 0.500000
O O9 0.750000 0.750000 0.564540
O O10 0.728483 0.898361 0.606220
O O11 0.983098 0.852557 0.555937
O O12 0.750000 0.750000 0.064190
#
# Coordination Sequence:
#
# PCOD9496419 Si02
#       5
#    16  16  16  16  16
#     4   9  21  38  56  85 117 155 191 241 301 347
#     4  11  22  38  61  84 115 160 205 242 293 358
#     4  10  19  35  62  89 113 154 199 238 300 361
#     4  10  20  39  61  81 122 155 187 250 300 345
#     4   9  19  39  55  84 117 148 193 249 290 345
#
# _framework density 24.708155000000001
#
# number of rings (size 3 to 8) (size 9 to 14) (size 15 to 20)
#    0.000    2.200    2.000    0.600    0.000    2.800 
#   21.600   10.000    0.000    3.600    0.000    0.000 
#    0.000    0.000    0.000    0.000    0.000    0.000 
#
# Total GULP energy -222726.059813 kJ/mol
# GULP energy per Si atom -5568.151495 kJ/mol
# Density = 2.465192 g / cm^3
# Si number density = 24.708155 Si / 1000 Ang^3
#
#
#
# Elastic Constant Matrix: (Units=GPa)
#
#
# Indices 1 2 3 4 5 6 
#
# 1 64.1522 9.4175 5.8449 0.0000 0.0000 0.0000
# 2 9.4175 111.8895 22.6670 0.0000 0.0000 0.0000
# 3 5.8449 22.6670 144.7240 0.0000 0.0000 0.0000
# 4 0.0000 0.0000 0.0000 5.8912 0.0000 0.0000
# 5 0.0000 0.0000 0.0000 0.0000 17.0875 0.0000
# 6 0.0000 0.0000 0.0000 0.0000 0.0000 32.6158
#
#
#
# Elastic Compliance Matrix: (Units=1/GPa)
#
#
# Indices 1 2 3 4 5 6 
#
# 1 0.015811 -0.001241 -0.000444 0.000000 0.000000 0.000000
# 2 -0.001241 0.009328 -0.001411 0.000000 0.000000 0.000000
# 3 -0.000444 -0.001411 0.007149 0.000000 0.000000 0.000000
# 4 0.000000 0.000000 0.000000 0.169744 0.000000 0.000000
# 5 0.000000 0.000000 0.000000 0.000000 0.058522 0.000000
# 6 0.000000 0.000000 0.000000 0.000000 0.000000 0.030660
#
#
# Mechanical properties :
#
#
# Convention : Reuss Voigt Hill
#
# Bulk Modulus (GPa) = 38.32111 44.06937 41.19524
# Shear Modulus (GPa) = 16.33436 29.97465 23.15450
#
# Velocity S-wave (km/s) = 2.57396 3.48681 3.06456
# Velocity P-wave (km/s) = 4.93729 5.83824 5.40657
#
# Compressibility (1/GPa) = 0.02609527
#
# Stress axis : x y z
#
# Youngs Moduli (GPa) = 63.24891 107.20839 139.88736
#
# Poissons Ratio (x) = 0.13302 0.06214
# Poissons Ratio (y) = 0.07848 0.19735
# Poissons Ratio (z) = 0.02810 0.15125
#
# Static dielectric constant tensor:
#      x y z
#    x 2.217420 0.000000 0.000000 
#    y 0.000000 2.030930 0.000000 
#    z 0.000000 0.000000 2.007590 
# 
# From -- ./inp_files/62415.got.cif
#   From: 2010.05.17/outbox.cif.g08.bks.cpg/sg66_32_cif.got.tgz:62415.got - 2010.06.03 17:51:23.
