data_PCOD9496575
_publ_section_title
;
Structure prediction by ZEFSAII (Michael W. Deem and Ramdas Pophale) SiO2 
 PCOD9496575
Probable space group: C C C M
;
_chemical_formula_sum "Si O2"
_cell_formula_units_Z 52
_cell_length_a 5.187962
_cell_length_b 30.516372
_cell_length_c 13.388124
_cell_angle_alpha 90.000000
_cell_angle_beta 90.000000
_cell_angle_gamma 90.000000
_cell_volume 2119.578047
_symmetry_space_group_name_H-M "C C C M"
_symmetry_group_IT_number 66
_symmetry_cell_setting 'orthorhombic'
loop_
_space_group_symop_operation_xyz
x,y,z
-x,-y,z
x,-y,1/2-z
-x,y,1/2-z
-x,-y,-z
x,y,-z
-x,y,1/2+z
x,-y,1/2+z
1/2+x,1/2+y,z
1/2-x,1/2-y,z
1/2+x,1/2-y,1/2-z
1/2-x,1/2+y,1/2-z
1/2-x,1/2-y,-z
1/2+x,1/2+y,-z
1/2-x,1/2+y,1/2+z
1/2+x,1/2-y,1/2+z
loop_
_atom_site_type_symbol
_atom_site_label
_atom_site_fract_x
_atom_site_fract_y
_atom_site_fract_z
Si Si1 0.648566 0.297348 0.622046
Si Si2 0.352970 0.847159 0.880044
Si Si3 0.749214 0.946731 0.318382
Si Si4 0.500000 0.500000 0.500000
O O1 0.642902 0.295796 0.500000
O O2 0.750000 0.250000 0.654766
O O3 0.364582 0.312446 0.652913
O O4 0.860595 0.333479 0.651435
O O5 0.283972 0.896518 0.853590
O O6 0.354107 0.844666 0.000000
O O7 0.500000 0.955789 0.250000
O O8 0.000000 0.948386 0.250000
O O9 0.813422 0.977581 0.412284
#
# Coordination Sequence:
#
# PCOD9496575 Si02
#       4
#    16  16  16   4
#     4   9  17  30  59 100 142 192 255 305 363 444
#     4  10  19  38  65 100 145 198 244 310 383 445
#     4  12  28  50  80 115 152 200 254 320 399 477
#     4  12  30  58  84 116 158 198 258 338 396 492
#
# _framework density 24.533185
#
# number of rings (size 3 to 8) (size 9 to 14) (size 15 to 20)
#    0.000    1.538    1.538    3.231    0.000    8.615 
#    0.000    0.000    0.000   18.462    0.000    0.000 
#    0.000    0.000    0.000    0.000    0.000    0.000 
#
# Total GULP energy -145195.633817 kJ/mol
# GULP energy per Si atom -5584.447455 kJ/mol
# Density = 2.447735 g / cm^3
# Si number density = 24.533185 Si / 1000 Ang^3
#
#
#
# Elastic Constant Matrix: (Units=GPa)
#
#
# Indices 1 2 3 4 5 6 
#
# 1 194.4014 51.7670 82.2179 0.0000 0.0000 0.0000
# 2 51.7670 123.6668 29.0470 0.0000 0.0000 0.0000
# 3 82.2179 29.0470 152.8869 0.0000 0.0000 0.0000
# 4 0.0000 0.0000 0.0000 1.2351 0.0000 0.0000
# 5 0.0000 0.0000 0.0000 0.0000 50.9158 0.0000
# 6 0.0000 0.0000 0.0000 0.0000 0.0000 50.2412
#
#
#
# Elastic Compliance Matrix: (Units=1/GPa)
#
#
# Indices 1 2 3 4 5 6 
#
# 1 0.007188 -0.002199 -0.003447 0.000000 0.000000 0.000000
# 2 -0.002199 0.009137 -0.000553 0.000000 0.000000 0.000000
# 3 -0.003447 -0.000553 0.008500 0.000000 0.000000 0.000000
# 4 0.000000 0.000000 0.000000 0.809670 0.000000 0.000000
# 5 0.000000 0.000000 0.000000 0.000000 0.019640 0.000000
# 6 0.000000 0.000000 0.000000 0.000000 0.000000 0.019904
#
#
# Mechanical properties :
#
#
# Convention : Reuss Voigt Hill
#
# Bulk Modulus (GPa) = 80.48578 88.55766 84.52172
# Shear Modulus (GPa) = 5.61432 41.00662 23.31047
#
# Velocity S-wave (km/s) = 1.51441 4.09280 3.08581
# Velocity P-wave (km/s) = 5.99467 7.64919 6.87191
#
# Compressibility (1/GPa) = 0.01242455
#
# Stress axis : x y z
#
# Youngs Moduli (GPa) = 139.12847 109.44858 117.64898
#
# Poissons Ratio (x) = 0.24068 0.40559
# Poissons Ratio (y) = 0.30594 0.06510
# Poissons Ratio (z) = 0.47964 0.06056
#
# Static dielectric constant tensor:
#      x y z
#    x 2.059910 0.000000 0.000000 
#    y 0.000000 1.921010 0.000000 
#    z 0.000000 0.000000 1.995110 
# 
# From -- ./inp_files/22498.got.cif
#   From: 2010.05.17/outbox.cif.g08.bks.cpg/sg66_12_cif.got.tgz:22498.got - 2010.06.03 17:51:23.
