data_PCOD9496379
_publ_section_title
;
Structure prediction by ZEFSAII (Michael W. Deem and Ramdas Pophale) SiO2 
 PCOD9496379
Probable space group: C C C M
;
_chemical_formula_sum "Si O2"
_cell_formula_units_Z 80
_cell_length_a 23.662522
_cell_length_b 11.079763
_cell_length_c 15.360876
_cell_angle_alpha 90.000000
_cell_angle_beta 90.000000
_cell_angle_gamma 90.000000
_cell_volume 4027.239750
_symmetry_space_group_name_H-M "C C C M"
_symmetry_group_IT_number 66
_symmetry_cell_setting 'orthorhombic'
loop_
_space_group_symop_operation_xyz
x,y,z
-x,-y,z
x,-y,1/2-z
-x,y,1/2-z
-x,-y,-z
x,y,-z
-x,y,1/2+z
x,-y,1/2+z
1/2+x,1/2+y,z
1/2-x,1/2-y,z
1/2+x,1/2-y,1/2-z
1/2-x,1/2+y,1/2-z
1/2-x,1/2-y,-z
1/2+x,1/2+y,-z
1/2-x,1/2+y,1/2+z
1/2+x,1/2-y,1/2+z
loop_
_atom_site_type_symbol
_atom_site_label
_atom_site_fract_x
_atom_site_fract_y
_atom_site_fract_z
Si Si1 0.271958 0.473841 0.345039
Si Si2 0.565748 0.518324 0.854179
Si Si3 0.162946 0.796570 0.599703
Si Si4 0.844795 0.623077 0.736335
Si Si5 0.361972 0.701891 0.092707
O O1 0.299240 0.500000 0.250000
O O2 0.288497 0.598498 0.392856
O O3 0.209730 0.426780 0.319053
O O4 0.301887 0.362418 0.391154
O O5 0.500000 0.500000 0.875517
O O6 0.570716 0.500000 0.750000
O O7 0.602661 0.636200 0.880850
O O8 0.596678 0.410352 0.903119
O O9 0.163310 0.751100 0.500000
O O10 0.170945 0.695881 0.675549
O O11 0.878596 0.500000 0.750000
O O12 0.875417 0.713923 0.673014
O O13 0.363262 0.764880 0.000000
#
# Coordination Sequence:
#
# PCOD9496379 Si02
#       5
#    16  16  16  16  16
#     4  10  19  35  59  77 112 157 193 246 297 335
#     4  10  19  37  69  97 117 150 193 249 323 368
#     4  11  22  40  62  89 123 157 201 257 309 355
#     4  11  24  38  57  79 122 165 201 243 286 353
#     4  11  21  36  59  87 119 150 191 247 304 355
#
# _framework density 19.864722
#
# number of rings (size 3 to 8) (size 9 to 14) (size 15 to 20)
#    0.000    1.400    4.000    4.200    2.800    4.800 
#    0.000   10.000    0.000    2.400    0.000    2.800 
#    0.000    0.000    0.000    0.000    0.000    0.000 
#
# Total GULP energy -222844.547264 kJ/mol
# GULP energy per Si atom -5571.113682 kJ/mol
# Density = 1.981951 g / cm^3
# Si number density = 19.864722 Si / 1000 Ang^3
#
#
#
# Elastic Constant Matrix: (Units=GPa)
#
#
# Indices 1 2 3 4 5 6 
#
# 1 70.5007 -3.1590 -6.7508 0.0000 0.0000 0.0000
# 2 -3.1590 99.1595 32.0144 0.0000 0.0000 0.0000
# 3 -6.7508 32.0144 137.5394 0.0000 0.0000 0.0000
# 4 0.0000 0.0000 0.0000 -0.0372 0.0000 0.0000
# 5 0.0000 0.0000 0.0000 0.0000 21.1265 0.0000
# 6 0.0000 0.0000 0.0000 0.0000 0.0000 10.2496
#
#
#
# Elastic Compliance Matrix: (Units=1/GPa)
#
#
# Indices 1 2 3 4 5 6 
#
# 1 0.014257 0.000247 0.000642 0.000000 0.000000 0.000000
# 2 0.000247 0.010908 -0.002527 0.000000 0.000000 0.000000
# 3 0.000642 -0.002527 0.007890 0.000000 0.000000 0.000000
# 4 0.000000 0.000000 0.000000-26.905117 0.000000 0.000000
# 5 0.000000 0.000000 0.000000 0.000000 0.047334 0.000000
# 6 0.000000 0.000000 0.000000 0.000000 0.000000 0.097565
#
#
# Mechanical properties :
#
#
# Convention : Reuss Voigt Hill
#
# Bulk Modulus (GPa) = 33.57967 39.04541 36.31254
# Shear Modulus (GPa) = -0.18717 25.27412 12.54348
#
# Velocity S-wave (km/s) = -0.30729 3.57082 2.51558
# Velocity P-wave (km/s) = 4.10061 6.05800 5.17273
#
# Compressibility (1/GPa) = 0.02977992
#
# Stress axis : x y z
#
# Youngs Moduli (GPa) = 70.14191 91.67177 126.73680
#
# Poissons Ratio (x) = -0.02263 -0.08141
# Poissons Ratio (y) = -0.01731 0.32026
# Poissons Ratio (z) = -0.04505 0.23165
#
# Static dielectric constant tensor:
#      x y z
#    x 1.758740 0.000000 0.000000 
#    y 0.000000 1.790040 0.000000 
#    z 0.000000 0.000000 1.780100 
# 
# From -- ./inp_files/32075.got.cif
#   From: 2010.05.17/outbox.cif.g08.bks.cpg/sg66_17_cif.got.tgz:32075.got - 2010.06.03 17:51:23.
