data_PCOD9496051
_publ_section_title
;
Structure prediction by ZEFSAII (Michael W. Deem and Ramdas Pophale) SiO2 
 PCOD9496051
Probable space group: C C C M
;
_chemical_formula_sum "Si O2"
_cell_formula_units_Z 112
_cell_length_a 27.332338
_cell_length_b 12.681085
_cell_length_c 16.530148
_cell_angle_alpha 90.000000
_cell_angle_beta 90.000000
_cell_angle_gamma 90.000000
_cell_volume 5729.410482
_symmetry_space_group_name_H-M "C C C M"
_symmetry_group_IT_number 66
_symmetry_cell_setting 'orthorhombic'
loop_
_space_group_symop_operation_xyz
x,y,z
-x,-y,z
x,-y,1/2-z
-x,y,1/2-z
-x,-y,-z
x,y,-z
-x,y,1/2+z
x,-y,1/2+z
1/2+x,1/2+y,z
1/2-x,1/2-y,z
1/2+x,1/2-y,1/2-z
1/2-x,1/2+y,1/2-z
1/2-x,1/2-y,-z
1/2+x,1/2+y,-z
1/2-x,1/2+y,1/2+z
1/2+x,1/2-y,1/2+z
loop_
_atom_site_type_symbol
_atom_site_label
_atom_site_fract_x
_atom_site_fract_y
_atom_site_fract_z
Si Si1 0.380586 0.086858 0.191915
Si Si2 0.853488 0.117492 0.092953
Si Si3 0.057376 0.005653 0.153055
Si Si4 0.392589 0.279961 0.902995
Si Si5 0.297163 0.393166 0.094119
Si Si6 0.204394 0.494740 0.404077
Si Si7 0.199389 0.293899 0.698770
O O1 0.409929 0.179193 0.147652
O O2 0.339211 0.142705 0.247048
O O3 0.405348 0.000000 0.250000
O O4 0.349528 0.028132 0.122574
O O5 0.909152 0.086224 0.114885
O O6 0.829969 0.200299 0.154213
O O7 0.824646 0.006140 0.098591
O O8 0.849878 0.154214 0.000000
O O9 0.064427 0.000000 0.250000
O O10 0.077062 0.116291 0.118713
O O11 0.000000 0.000000 0.135279
O O12 0.336510 0.308537 0.875712
O O13 0.392747 0.263410 0.000000
O O14 0.243833 0.419325 0.127916
O O15 0.290290 0.364849 0.000000
O O16 0.208861 0.490918 0.500000
O O17 0.216072 0.381279 0.367019
O O18 0.250000 0.250000 0.735409
#
# Coordination Sequence:
#
# PCOD9496051 Si02
#       7
#    16  16  16  16  16  16  16
#     4  10  23  36  47  74 108 148 195 243 284 338
#     4  10  19  33  53  79 109 147 186 229 282 341
#     4  10  21  38  60  91 125 150 179 229 296 365
#     4  10  20  36  58  81 110 155 196 238 293 349
#     4   8  16  28  45  72 103 137 183 228 274 324
#     4  10  19  33  49  68  99 144 195 242 274 328
#     4  11  21  32  49  74 108 147 190 239 294 343
#
# _framework density 19.548258000000001
#
# number of rings (size 3 to 8) (size 9 to 14) (size 15 to 20)
#    0.000    2.143    1.429    3.000    2.000    1.714 
#    0.000    2.143    0.000    0.000    0.000   17.000 
#    0.000   24.000    0.000    0.000    0.000    0.000 
#
# Total GULP energy -312397.543816 kJ/mol
# GULP energy per Si atom -5578.527568 kJ/mol
# Density = 1.950377 g / cm^3
# Si number density = 19.548258 Si / 1000 Ang^3
#
#
#
# Elastic Constant Matrix: (Units=GPa)
#
#
# Indices 1 2 3 4 5 6 
#
# 1 45.9651 11.2425 7.6977 0.0000 0.0000 0.0000
# 2 11.2425 88.1424 33.9671 0.0000 0.0000 0.0000
# 3 7.6977 33.9671 58.1675 0.0000 0.0000 0.0000
# 4 0.0000 0.0000 0.0000 30.8599 0.0000 0.0000
# 5 0.0000 0.0000 0.0000 0.0000 18.4973 0.0000
# 6 0.0000 0.0000 0.0000 0.0000 0.0000 14.6439
#
#
#
# Elastic Compliance Matrix: (Units=1/GPa)
#
#
# Indices 1 2 3 4 5 6 
#
# 1 0.022584 -0.002231 -0.001686 0.000000 0.000000 0.000000
# 2 -0.002231 0.014860 -0.008382 0.000000 0.000000 0.000000
# 3 -0.001686 -0.008382 0.022310 0.000000 0.000000 0.000000
# 4 0.000000 0.000000 0.000000 0.032405 0.000000 0.000000
# 5 0.000000 0.000000 0.000000 0.000000 0.054062 0.000000
# 6 0.000000 0.000000 0.000000 0.000000 0.000000 0.068288
#
#
# Mechanical properties :
#
#
# Convention : Reuss Voigt Hill
#
# Bulk Modulus (GPa) = 28.44532 33.12107 30.78320
# Shear Modulus (GPa) = 19.93427 22.09140 21.01284
#
# Velocity S-wave (km/s) = 3.19681 3.36534 3.28216
# Velocity P-wave (km/s) = 5.31122 5.66398 5.49043
#
# Compressibility (1/GPa) = 0.03515516
#
# Stress axis : x y z
#
# Youngs Moduli (GPa) = 44.27988 67.29431 44.82344
#
# Poissons Ratio (x) = 0.15012 0.07557
# Poissons Ratio (y) = 0.09878 0.37573
# Poissons Ratio (z) = 0.07466 0.56409
#
# Static dielectric constant tensor:
#      x y z
#    x 1.679080 0.000000 0.000000 
#    y 0.000000 1.699890 0.000000 
#    z 0.000000 0.000000 1.701630 
# 
# From -- ./inp_files/33800.got.cif
#   From: 2010.05.17/outbox.cif.g08.bks.cpg/sg66_17_cif.got.tgz:33800.got - 2010.06.03 17:51:23.
