data_PCOD9496088
_publ_section_title
;
Structure prediction by ZEFSAII (Michael W. Deem and Ramdas Pophale) SiO2 
 PCOD9496088
Probable space group: C C C M
;
_chemical_formula_sum "Si O2"
_cell_formula_units_Z 112
_cell_length_a 29.719892
_cell_length_b 14.965380
_cell_length_c 14.819884
_cell_angle_alpha 90.000000
_cell_angle_beta 90.000000
_cell_angle_gamma 90.000000
_cell_volume 6591.432061
_symmetry_space_group_name_H-M "C C C M"
_symmetry_group_IT_number 66
_symmetry_cell_setting 'orthorhombic'
loop_
_space_group_symop_operation_xyz
x,y,z
-x,-y,z
x,-y,1/2-z
-x,y,1/2-z
-x,-y,-z
x,y,-z
-x,y,1/2+z
x,-y,1/2+z
1/2+x,1/2+y,z
1/2-x,1/2-y,z
1/2+x,1/2-y,1/2-z
1/2-x,1/2+y,1/2-z
1/2-x,1/2-y,-z
1/2+x,1/2+y,-z
1/2-x,1/2+y,1/2+z
1/2+x,1/2-y,1/2+z
loop_
_atom_site_type_symbol
_atom_site_label
_atom_site_fract_x
_atom_site_fract_y
_atom_site_fract_z
Si Si1 0.788580 0.822874 0.391605
Si Si2 0.339803 0.031386 0.343429
Si Si3 0.257393 0.477955 0.891755
Si Si4 0.200487 0.206234 0.105600
Si Si5 0.450465 0.148678 0.745286
Si Si6 0.353003 0.775498 0.224726
Si Si7 0.066029 0.505634 0.398717
O O1 0.793465 0.816624 0.500000
O O2 0.750000 0.750000 0.365432
O O3 0.834406 0.801443 0.339936
O O4 0.774172 0.923352 0.368004
O O5 0.333357 0.136133 0.326214
O O6 0.380328 0.010149 0.408356
O O7 0.360633 0.000000 0.250000
O O8 0.294142 0.977497 0.358684
O O9 0.289136 0.396070 0.863952
O O10 0.254978 0.471948 0.000000
O O11 0.250000 0.250000 0.107731
O O12 0.168615 0.256712 0.176810
O O13 0.185274 0.208739 0.000000
O O14 0.500000 0.191612 0.750000
O O15 0.406426 0.209854 0.731789
O O16 0.451101 0.077796 0.661834
O O17 0.443031 0.092280 0.837326
O O18 0.048055 0.511402 0.500000
#
# Coordination Sequence:
#
# PCOD9496088 Si02
#       7
#    16  16  16  16  16  16  16
#     4  10  20  33  52  79 108 138 176 217 256 309
#     4  11  19  31  47  77 107 145 181 210 248 305
#     4  10  21  34  51  75 108 148 183 215 254 307
#     4  10  22  36  51  76 109 142 179 217 254 310
#     4  10  22  38  51  74 104 132 180 230 270 319
#     4  11  21  35  52  74 103 142 174 218 267 308
#     4  10  19  33  54  76 104 140 177 218 264 313
#
# _framework density 16.991755000000001
#
# number of rings (size 3 to 8) (size 9 to 14) (size 15 to 20)
#    0.000    1.714    4.286    2.571    2.000    4.000 
#    0.000    0.000    0.000    0.000    0.000    2.000 
#    0.000    3.429    0.000    0.000    0.000    0.000 
#
# Total GULP energy -312066.457999 kJ/mol
# GULP energy per Si atom -5572.615321 kJ/mol
# Density = 1.695308 g / cm^3
# Si number density = 16.991755 Si / 1000 Ang^3
#
#
#
# Elastic Constant Matrix: (Units=GPa)
#
#
# Indices 1 2 3 4 5 6 
#
# 1 118.6311 29.6842 25.9402 0.0000 0.0000 0.0000
# 2 29.6842 57.9059 13.9826 0.0000 0.0000 0.0000
# 3 25.9402 13.9826 71.4871 0.0000 0.0000 0.0000
# 4 0.0000 0.0000 0.0000 -9.6817 0.0000 0.0000
# 5 0.0000 0.0000 0.0000 0.0000 -4.2539 0.0000
# 6 0.0000 0.0000 0.0000 0.0000 0.0000 12.7521
#
#
#
# Elastic Compliance Matrix: (Units=1/GPa)
#
#
# Indices 1 2 3 4 5 6 
#
# 1 0.010179 -0.004541 -0.002806 0.000000 0.000000 0.000000
# 2 -0.004541 0.020151 -0.002294 0.000000 0.000000 0.000000
# 3 -0.002806 -0.002294 0.015455 0.000000 0.000000 0.000000
# 4 0.000000 0.000000 0.000000 -0.103288 0.000000 0.000000
# 5 0.000000 0.000000 0.000000 0.000000 -0.235081 0.000000
# 6 0.000000 0.000000 0.000000 0.000000 0.000000 0.078419
#
#
# Mechanical properties :
#
#
# Convention : Reuss Voigt Hill
#
# Bulk Modulus (GPa) = 37.72822 43.02645 40.37734
# Shear Modulus (GPa) = -26.87453 11.65779 -7.60837
#
# Velocity S-wave (km/s) = -3.98128 2.62216 -2.11835
# Velocity P-wave (km/s) = 1.05734 5.87746 4.22271
#
# Compressibility (1/GPa) = 0.02650536
#
# Stress axis : x y z
#
# Youngs Moduli (GPa) = 98.24014 49.62544 64.70309
#
# Poissons Ratio (x) = 0.22533 0.18153
# Poissons Ratio (y) = 0.44608 0.14841
# Poissons Ratio (z) = 0.27561 0.11383
#
# Static dielectric constant tensor:
#      x y z
#    x 1.602060 0.000000 0.000000 
#    y 0.000000 1.696000 0.000000 
#    z 0.000000 0.000000 1.610730 
# 
# From -- ./inp_files/33970.got.cif
#   From: 2010.05.17/outbox.cif.g08.bks.cpg/sg66_17_cif.got.tgz:33970.got - 2010.06.03 17:51:23.
