data_PCOD9496502
_publ_section_title
;
Structure prediction by ZEFSAII (Michael W. Deem and Ramdas Pophale) SiO2 
 PCOD9496502
Probable space group: C C C M
;
_chemical_formula_sum "Si O2"
_cell_formula_units_Z 112
_cell_length_a 22.165287
_cell_length_b 11.421411
_cell_length_c 21.898362
_cell_angle_alpha 90.000000
_cell_angle_beta 90.000000
_cell_angle_gamma 90.000000
_cell_volume 5543.764201
_symmetry_space_group_name_H-M "C C C M"
_symmetry_group_IT_number 66
_symmetry_cell_setting 'orthorhombic'
loop_
_space_group_symop_operation_xyz
x,y,z
-x,-y,z
x,-y,1/2-z
-x,y,1/2-z
-x,-y,-z
x,y,-z
-x,y,1/2+z
x,-y,1/2+z
1/2+x,1/2+y,z
1/2-x,1/2-y,z
1/2+x,1/2-y,1/2-z
1/2-x,1/2+y,1/2-z
1/2-x,1/2-y,-z
1/2+x,1/2+y,-z
1/2-x,1/2+y,1/2+z
1/2+x,1/2-y,1/2+z
loop_
_atom_site_type_symbol
_atom_site_label
_atom_site_fract_x
_atom_site_fract_y
_atom_site_fract_z
Si Si1 0.581496 0.298842 0.115608
Si Si2 0.024589 0.631394 0.571117
Si Si3 0.372485 0.762178 0.369933
Si Si4 0.697372 0.168968 0.928261
Si Si5 0.926390 0.140108 0.749525
Si Si6 0.228227 0.585130 0.574651
Si Si7 0.367486 0.533128 0.570163
O O1 0.522074 0.230784 0.094278
O O2 0.635665 0.235105 0.081360
O O3 0.591172 0.295993 0.187926
O O4 0.589993 0.436487 0.100589
O O5 0.039890 0.652043 0.500000
O O6 0.000000 0.500000 0.574146
O O7 0.081407 0.635116 0.615709
O O8 0.389791 0.701638 0.305740
O O9 0.306949 0.812549 0.389080
O O10 0.391648 0.662261 0.418602
O O11 0.750000 0.250000 0.900496
O O12 0.694942 0.035512 0.908022
O O13 0.711024 0.157925 0.000000
O O14 0.000000 0.149582 0.750000
O O15 0.912936 0.000000 0.750000
O O16 0.225680 0.608081 0.500000
O O17 0.297670 0.551352 0.591102
O O18 0.363585 0.499795 0.500000
#
# Coordination Sequence:
#
# PCOD9496502 Si02
#       7
#    16  16  16  16  16  16  16
#     4  12  22  40  66  94 126 171 224 265 320 392
#     4  11  24  41  63  97 136 166 204 270 338 394
#     4  12  23  41  64  92 128 175 221 259 333 393
#     4  10  19  36  63  94 131 170 208 259 326 394
#     4  11  24  46  65  86 123 179 219 271 327 380
#     4  10  21  39  64  97 138 174 205 265 339 396
#     4  11  22  37  65 101 132 162 211 274 334 400
#
# _framework density 20.20288
#
# number of rings (size 3 to 8) (size 9 to 14) (size 15 to 20)
#    0.000    1.000    4.286    3.857    0.000    4.000 
#    0.000    6.429    3.143    0.000    0.000    0.000 
#    0.000    0.000    0.000    0.000    0.000    0.000 
#
# Total GULP energy -312126.066911 kJ/mol
# GULP energy per Si atom -5573.679766 kJ/mol
# Density = 2.015690 g / cm^3
# Si number density = 20.202880 Si / 1000 Ang^3
#
#
#
# Elastic Constant Matrix: (Units=GPa)
#
#
# Indices 1 2 3 4 5 6 
#
# 1 59.3135 18.5630 15.8122 0.0000 0.0000 0.0000
# 2 18.5630 103.7285 33.0372 0.0000 0.0000 0.0000
# 3 15.8122 33.0372 78.5410 0.0000 0.0000 0.0000
# 4 0.0000 0.0000 0.0000 42.6092 0.0000 0.0000
# 5 0.0000 0.0000 0.0000 0.0000 78.6794 0.0000
# 6 0.0000 0.0000 0.0000 0.0000 0.0000 20.8679
#
#
#
# Elastic Compliance Matrix: (Units=1/GPa)
#
#
# Indices 1 2 3 4 5 6 
#
# 1 0.018332 -0.002431 -0.002668 0.000000 0.000000 0.000000
# 2 -0.002431 0.011454 -0.004329 0.000000 0.000000 0.000000
# 3 -0.002668 -0.004329 0.015090 0.000000 0.000000 0.000000
# 4 0.000000 0.000000 0.000000 0.023469 0.000000 0.000000
# 5 0.000000 0.000000 0.000000 0.000000 0.012710 0.000000
# 6 0.000000 0.000000 0.000000 0.000000 0.000000 0.047920
#
#
# Mechanical properties :
#
#
# Convention : Reuss Voigt Hill
#
# Bulk Modulus (GPa) = 38.43078 41.82309 40.12694
# Shear Modulus (GPa) = 31.94804 40.04269 35.99537
#
# Velocity S-wave (km/s) = 3.98095 4.45683 4.22559
# Velocity P-wave (km/s) = 6.33990 6.87247 6.61155
#
# Compressibility (1/GPa) = 0.02602081
#
# Stress axis : x y z
#
# Youngs Moduli (GPa) = 54.55054 87.30399 66.26837
#
# Poissons Ratio (x) = 0.21222 0.17681
# Poissons Ratio (y) = 0.13260 0.28685
# Poissons Ratio (z) = 0.14555 0.37791
#
# Static dielectric constant tensor:
#      x y z
#    x 1.861450 0.000000 0.000000 
#    y 0.000000 1.805980 0.000000 
#    z 0.000000 0.000000 1.704760 
# 
# From -- ./inp_files/59539.got.cif
#   From: 2010.05.17/outbox.cif.g08.bks.cpg/sg66_30_cif.got.tgz:59539.got - 2010.06.03 17:51:23.
