data_PCOD9496247
_publ_section_title
;
Structure prediction by ZEFSAII (Michael W. Deem and Ramdas Pophale) SiO2 
 PCOD9496247
Probable space group: C C C M
;
_chemical_formula_sum "Si O2"
_cell_formula_units_Z 64
_cell_length_a 14.823993
_cell_length_b 8.338893
_cell_length_c 25.349786
_cell_angle_alpha 90.000000
_cell_angle_beta 90.000000
_cell_angle_gamma 90.000000
_cell_volume 3133.631325
_symmetry_space_group_name_H-M "C C C M"
_symmetry_group_IT_number 66
_symmetry_cell_setting 'orthorhombic'
loop_
_space_group_symop_operation_xyz
x,y,z
-x,-y,z
x,-y,1/2-z
-x,y,1/2-z
-x,-y,-z
x,y,-z
-x,y,1/2+z
x,-y,1/2+z
1/2+x,1/2+y,z
1/2-x,1/2-y,z
1/2+x,1/2-y,1/2-z
1/2-x,1/2+y,1/2-z
1/2-x,1/2-y,-z
1/2+x,1/2+y,-z
1/2-x,1/2+y,1/2+z
1/2+x,1/2-y,1/2+z
loop_
_atom_site_type_symbol
_atom_site_label
_atom_site_fract_x
_atom_site_fract_y
_atom_site_fract_z
Si Si1 0.503829 0.695254 0.189985
Si Si2 0.346868 0.170789 0.500000
Si Si3 0.919862 0.638245 0.000000
Si Si4 0.852605 0.193735 0.891218
Si Si5 0.146811 0.809457 0.603292
O O1 0.500000 0.500000 0.191451
O O2 0.500000 0.753410 0.250000
O O3 0.416619 0.745159 0.156406
O O4 0.591910 0.740765 0.155969
O O5 0.250000 0.250000 0.500000
O O6 0.388992 0.229763 0.554462
O O7 0.334343 0.981874 0.500000
O O8 0.906744 0.741765 0.947491
O O9 0.000000 0.500000 0.000000
O O10 0.750000 0.250000 0.883078
O O11 0.854123 0.002401 0.897822
O O12 0.250000 0.750000 0.603524
#
# Coordination Sequence:
#
# PCOD9496247 Si02
#       5
#    16   8   8  16  16
#     4   9  20  38  58  82 114 154 198 241 288 347
#     4  10  19  34  56  81 112 145 181 225 280 346
#     4  12  24  38  59  87 123 155 192 245 297 350
#     4  10  20  37  61  86 116 153 194 238 292 356
#     4  11  22  37  60  89 120 153 194 245 298 350
#
# _framework density 20.423590999999998
#
# number of rings (size 3 to 8) (size 9 to 14) (size 15 to 20)
#    0.000    1.750    0.000    5.625    0.000    1.000 
#    0.000    5.000    0.000   17.250    0.000    0.000 
#    0.000    0.000    0.000    0.000    0.000    0.000 
#
# Total GULP energy -178634.819286 kJ/mol
# GULP energy per Si atom -5582.338103 kJ/mol
# Density = 2.037711 g / cm^3
# Si number density = 20.423591 Si / 1000 Ang^3
#
#
#
# Elastic Constant Matrix: (Units=GPa)
#
#
# Indices 1 2 3 4 5 6 
#
# 1 151.1247 25.4658 88.0630 0.0000 0.0000 0.0000
# 2 25.4658 71.2135 39.0691 0.0000 0.0000 0.0000
# 3 88.0630 39.0691 227.7604 0.0000 0.0000 0.0000
# 4 0.0000 0.0000 0.0000 16.0059 0.0000 0.0000
# 5 0.0000 0.0000 0.0000 0.0000 26.1619 0.0000
# 6 0.0000 0.0000 0.0000 0.0000 0.0000 23.1639
#
#
#
# Elastic Compliance Matrix: (Units=1/GPa)
#
#
# Indices 1 2 3 4 5 6 
#
# 1 0.008665 -0.001391 -0.003111 0.000000 0.000000 0.000000
# 2 -0.001391 0.015724 -0.002159 0.000000 0.000000 0.000000
# 3 -0.003111 -0.002159 0.005964 0.000000 0.000000 0.000000
# 4 0.000000 0.000000 0.000000 0.062477 0.000000 0.000000
# 5 0.000000 0.000000 0.000000 0.000000 0.038224 0.000000
# 6 0.000000 0.000000 0.000000 0.000000 0.000000 0.043171
#
#
# Mechanical properties :
#
#
# Convention : Reuss Voigt Hill
#
# Bulk Modulus (GPa) = 58.72445 83.92160 71.32302
# Shear Modulus (GPa) = 25.87657 32.89972 29.38815
#
# Velocity S-wave (km/s) = 3.56335 4.01792 3.79744
# Velocity P-wave (km/s) = 6.76355 7.91862 7.36377
#
# Compressibility (1/GPa) = 0.01702868
#
# Stress axis : x y z
#
# Youngs Moduli (GPa) = 115.41166 63.59506 167.67202
#
# Poissons Ratio (x) = 0.08849 0.52171
# Poissons Ratio (y) = 0.16059 0.36206
# Poissons Ratio (z) = 0.35910 0.13732
#
# Static dielectric constant tensor:
#      x y z
#    x 1.834930 0.000000 0.000000 
#    y 0.000000 1.742720 0.000000 
#    z 0.000000 0.000000 1.737830 
# 
# From -- ./inp_files/57734.got.cif
#   From: 2010.05.17/outbox.cif.g08.bks.cpg/sg66_29_cif.got.tgz:57734.got - 2010.06.03 17:51:23.
