data_PCOD9496657
_publ_section_title
;
Structure prediction by ZEFSAII (Michael W. Deem and Ramdas Pophale) SiO2 
 PCOD9496657
Probable space group: C C C M
;
_chemical_formula_sum "Si O2"
_cell_formula_units_Z 128
_cell_length_a 16.988827
_cell_length_b 17.948955
_cell_length_c 23.935582
_cell_angle_alpha 90.000000
_cell_angle_beta 90.000000
_cell_angle_gamma 90.000000
_cell_volume 7298.717502
_symmetry_space_group_name_H-M "C C C M"
_symmetry_group_IT_number 66
_symmetry_cell_setting 'orthorhombic'
loop_
_space_group_symop_operation_xyz
x,y,z
-x,-y,z
x,-y,1/2-z
-x,y,1/2-z
-x,-y,-z
x,y,-z
-x,y,1/2+z
x,-y,1/2+z
1/2+x,1/2+y,z
1/2-x,1/2-y,z
1/2+x,1/2-y,1/2-z
1/2-x,1/2+y,1/2-z
1/2-x,1/2-y,-z
1/2+x,1/2+y,-z
1/2-x,1/2+y,1/2+z
1/2+x,1/2-y,1/2+z
loop_
_atom_site_type_symbol
_atom_site_label
_atom_site_fract_x
_atom_site_fract_y
_atom_site_fract_z
Si Si1 0.324104 0.201052 0.180160
Si Si2 0.569361 0.761718 0.614414
Si Si3 0.199045 0.173676 0.438282
Si Si4 0.741251 0.411881 0.749832
Si Si5 0.679874 0.097275 0.866841
Si Si6 0.090967 0.517918 0.563186
Si Si7 0.587346 0.304907 0.238556
Si Si8 0.599489 0.195930 0.564413
O O1 0.250000 0.250000 0.197617
O O2 0.293261 0.119136 0.197689
O O3 0.393821 0.237256 0.217635
O O4 0.340801 0.213404 0.114875
O O5 0.612682 0.701093 0.576041
O O6 0.617345 0.839422 0.615005
O O7 0.580155 0.729999 0.676845
O O8 0.483908 0.776283 0.588998
O O9 0.205635 0.142892 0.500000
O O10 0.250000 0.250000 0.435109
O O11 0.237476 0.117121 0.395695
O O12 0.724041 0.500000 0.750000
O O13 0.799971 0.398695 0.801989
O O14 0.659686 0.364294 0.756714
O O15 0.645417 0.021539 0.891488
O O16 0.108612 0.489418 0.500000
O O17 0.098579 0.606368 0.562702
O O18 0.000000 0.500000 0.575101
O O19 0.500000 0.337055 0.250000
O O20 0.613028 0.221704 0.500000
#
# Coordination Sequence:
#
# PCOD9496657 Si02
#       8
#    16  16  16  16  16  16  16  16
#     4  10  22  38  59  82 110 146 186 235 287 334
#     4  11  19  32  54  83 110 144 187 231 281 333
#     4   9  18  28  46  78 112 144 181 224 274 328
#     4  11  23  38  58  85 114 149 192 237 286 346
#     4  11  19  32  55  76 115 153 186 229 271 333
#     4  10  20  32  47  74 114 156 187 216 265 328
#     4  11  21  38  62  83 112 145 186 240 294 340
#     4  11  22  36  55  79 111 149 192 237 277 334
#
# _framework density 17.537327999999999
#
# number of rings (size 3 to 8) (size 9 to 14) (size 15 to 20)
#    0.000    1.500    5.000    1.500    0.000    1.500 
#    0.000    0.000    0.000    0.000    0.000    0.000 
#    0.000    3.250    0.000    0.000    0.000    0.000 
#
# Total GULP energy -356364.447639 kJ/mol
# GULP energy per Si atom -5568.194494 kJ/mol
# Density = 1.749741 g / cm^3
# Si number density = 17.537328 Si / 1000 Ang^3
#
#
#
# Elastic Constant Matrix: (Units=GPa)
#
#
# Indices 1 2 3 4 5 6 
#
# 1 78.3836 20.0840 18.3933 0.0000 0.0000 0.0000
# 2 20.0840 52.8118 10.7932 0.0000 0.0000 0.0000
# 3 18.3933 10.7932 84.1738 0.0000 0.0000 0.0000
# 4 0.0000 0.0000 0.0000 21.5574 0.0000 0.0000
# 5 0.0000 0.0000 0.0000 0.0000 28.5226 0.0000
# 6 0.0000 0.0000 0.0000 0.0000 0.0000 14.5780
#
#
#
# Elastic Compliance Matrix: (Units=1/GPa)
#
#
# Indices 1 2 3 4 5 6 
#
# 1 0.014651 -0.005050 -0.002554 0.000000 0.000000 0.000000
# 2 -0.005050 0.021185 -0.001613 0.000000 0.000000 0.000000
# 3 -0.002554 -0.001613 0.012645 0.000000 0.000000 0.000000
# 4 0.000000 0.000000 0.000000 0.046388 0.000000 0.000000
# 5 0.000000 0.000000 0.000000 0.000000 0.035060 0.000000
# 6 0.000000 0.000000 0.000000 0.000000 0.000000 0.068597
#
#
# Mechanical properties :
#
#
# Convention : Reuss Voigt Hill
#
# Bulk Modulus (GPa) = 33.28027 34.87890 34.07958
# Shear Modulus (GPa) = 22.02888 24.00486 23.01687
#
# Velocity S-wave (km/s) = 3.54801 3.70373 3.62671
# Velocity P-wave (km/s) = 5.98352 6.18237 6.08376
#
# Compressibility (1/GPa) = 0.03004783
#
# Stress axis : x y z
#
# Youngs Moduli (GPa) = 68.25492 47.20279 79.08203
#
# Poissons Ratio (x) = 0.23836 0.20197
# Poissons Ratio (y) = 0.34467 0.12756
# Poissons Ratio (z) = 0.17432 0.07614
#
# Static dielectric constant tensor:
#      x y z
#    x 1.598800 0.000000 0.000000 
#    y 0.000000 1.602400 0.000000 
#    z 0.000000 0.000000 1.627410 
# 
# From -- ./inp_files/51318.got.cif
#   From: 2010.05.17/outbox.cif.g08.bks.cpg/sg66_26_cif.got.tgz:51318.got - 2010.06.03 17:51:23.
