data_PCOD9496548
_publ_section_title
;
Structure prediction by ZEFSAII (Michael W. Deem and Ramdas Pophale) SiO2 
 PCOD9496548
Probable space group: C C C M
;
_chemical_formula_sum "Si O2"
_cell_formula_units_Z 96
_cell_length_a 14.852465
_cell_length_b 23.741842
_cell_length_c 13.806503
_cell_angle_alpha 90.000000
_cell_angle_beta 90.000000
_cell_angle_gamma 90.000000
_cell_volume 4868.516427
_symmetry_space_group_name_H-M "C C C M"
_symmetry_group_IT_number 66
_symmetry_cell_setting 'orthorhombic'
loop_
_space_group_symop_operation_xyz
x,y,z
-x,-y,z
x,-y,1/2-z
-x,y,1/2-z
-x,-y,-z
x,y,-z
-x,y,1/2+z
x,-y,1/2+z
1/2+x,1/2+y,z
1/2-x,1/2-y,z
1/2+x,1/2-y,1/2-z
1/2-x,1/2+y,1/2-z
1/2-x,1/2-y,-z
1/2+x,1/2+y,-z
1/2-x,1/2+y,1/2+z
1/2+x,1/2-y,1/2+z
loop_
_atom_site_type_symbol
_atom_site_label
_atom_site_fract_x
_atom_site_fract_y
_atom_site_fract_z
Si Si1 0.384421 0.368249 0.617030
Si Si2 0.757598 0.579195 0.116840
Si Si3 0.052168 0.942968 0.384092
Si Si4 0.393958 0.867705 0.233397
Si Si5 0.356696 0.756270 0.110800
Si Si6 0.217300 0.448479 0.384834
O O1 0.374248 0.363252 0.500000
O O2 0.479864 0.395499 0.636799
O O3 0.384054 0.304436 0.653051
O O4 0.305013 0.411596 0.646070
O O5 0.651372 0.577631 0.145849
O O6 0.826041 0.619577 0.175908
O O7 0.782464 0.514177 0.139477
O O8 0.764123 0.588689 0.000000
O O9 0.062757 0.951220 0.500000
O O10 0.000000 0.000000 0.351846
O O11 0.500000 0.871101 0.250000
O O12 0.375967 0.808151 0.181014
O O13 0.366579 0.916545 0.158955
O O14 0.250000 0.750000 0.101341
O O15 0.392530 0.765313 0.000000
O O16 0.216786 0.445797 0.500000
#
# Coordination Sequence:
#
# PCOD9496548 Si02
#       6
#    16  16  16  16  16  16
#     4   9  16  31  62  97 122 149 193 253 319 373
#     4  10  22  39  62  94 133 169 203 247 315 395
#     4   9  15  30  60  96 130 160 189 237 313 394
#     4  12  26  42  59  86 126 170 216 268 311 359
#     4  10  20  40  69  93 114 153 214 275 317 360
#     4  10  19  37  66  94 120 157 206 262 316 372
#
# _framework density 19.718533000000001
#
# number of rings (size 3 to 8) (size 9 to 14) (size 15 to 20)
#    0.000    2.000    3.333    1.000    0.000    2.667 
#    3.000    2.500    0.000    0.500    0.000    0.000 
#    0.000    0.000    0.000    0.000    0.000    0.167 
#
# Total GULP energy -267610.806636 kJ/mol
# GULP energy per Si atom -5575.225138 kJ/mol
# Density = 1.967365 g / cm^3
# Si number density = 19.718533 Si / 1000 Ang^3
#
#
#
# Elastic Constant Matrix: (Units=GPa)
#
#
# Indices 1 2 3 4 5 6 
#
# 1 129.4344 57.9099 28.2733 0.0000 0.0000 0.0000
# 2 57.9099 123.8554 32.6354 0.0000 0.0000 0.0000
# 3 28.2733 32.6354 88.3945 0.0000 0.0000 0.0000
# 4 0.0000 0.0000 0.0000 12.5477 0.0000 0.0000
# 5 0.0000 0.0000 0.0000 0.0000 40.5622 0.0000
# 6 0.0000 0.0000 0.0000 0.0000 0.0000 43.1733
#
#
#
# Elastic Compliance Matrix: (Units=1/GPa)
#
#
# Indices 1 2 3 4 5 6 
#
# 1 0.009977 -0.004236 -0.001627 0.000000 0.000000 0.000000
# 2 -0.004236 0.010743 -0.002611 0.000000 0.000000 0.000000
# 3 -0.001627 -0.002611 0.012797 0.000000 0.000000 0.000000
# 4 0.000000 0.000000 0.000000 0.079696 0.000000 0.000000
# 5 0.000000 0.000000 0.000000 0.000000 0.024653 0.000000
# 6 0.000000 0.000000 0.000000 0.000000 0.000000 0.023162
#
#
# Mechanical properties :
#
#
# Convention : Reuss Voigt Hill
#
# Bulk Modulus (GPa) = 60.35775 64.36907 62.36341
# Shear Modulus (GPa) = 27.24798 34.11436 30.68117
#
# Velocity S-wave (km/s) = 3.72135 4.16392 3.94884
# Velocity P-wave (km/s) = 7.01004 7.47211 7.24476
#
# Compressibility (1/GPa) = 0.01656788
#
# Stress axis : x y z
#
# Youngs Moduli (GPa) = 100.23550 93.08798 78.14052
#
# Poissons Ratio (x) = 0.39431 0.12714
# Poissons Ratio (y) = 0.42459 0.20405
# Poissons Ratio (z) = 0.16310 0.24308
#
# Static dielectric constant tensor:
#      x y z
#    x 1.673200 0.000000 0.000000 
#    y 0.000000 1.718650 0.000000 
#    z 0.000000 0.000000 1.783550 
# 
# From -- ./inp_files/28366.got.cif
#   From: 2010.05.17/outbox.cif.g08.bks.cpg/sg66_15_cif.got.tgz:28366.got - 2010.06.03 17:51:23.
