data_PCOD9496879
_publ_section_title
;
Structure prediction by ZEFSAII (Michael W. Deem and Ramdas Pophale) SiO2 
 PCOD9496879
Probable space group: C C C M
;
_chemical_formula_sum "Si O2"
_cell_formula_units_Z 112
_cell_length_a 23.825467
_cell_length_b 14.695088
_cell_length_c 15.719377
_cell_angle_alpha 90.000000
_cell_angle_beta 90.000000
_cell_angle_gamma 90.000000
_cell_volume 5503.626371
_symmetry_space_group_name_H-M "C C C M"
_symmetry_group_IT_number 66
_symmetry_cell_setting 'orthorhombic'
loop_
_space_group_symop_operation_xyz
x,y,z
-x,-y,z
x,-y,1/2-z
-x,y,1/2-z
-x,-y,-z
x,y,-z
-x,y,1/2+z
x,-y,1/2+z
1/2+x,1/2+y,z
1/2-x,1/2-y,z
1/2+x,1/2-y,1/2-z
1/2-x,1/2+y,1/2-z
1/2-x,1/2-y,-z
1/2+x,1/2+y,-z
1/2-x,1/2+y,1/2+z
1/2+x,1/2-y,1/2+z
loop_
_atom_site_type_symbol
_atom_site_label
_atom_site_fract_x
_atom_site_fract_y
_atom_site_fract_z
Si Si1 0.963872 0.260951 0.175981
Si Si2 0.840380 0.778564 0.736229
Si Si3 0.473180 0.591510 0.599354
Si Si4 0.715050 0.591362 0.596308
Si Si5 0.556680 0.946825 0.401729
Si Si6 0.174445 0.573367 0.184011
Si Si7 0.839633 0.106174 0.597904
O O1 0.906477 0.219622 0.212851
O O2 0.952760 0.338377 0.106868
O O3 0.000000 0.308152 0.250000
O O4 0.001535 0.179578 0.142551
O O5 0.808506 0.837180 0.664546
O O6 0.827616 0.671653 0.728806
O O7 0.826699 0.821664 0.827944
O O8 0.500000 0.500000 0.636100
O O9 0.489344 0.596202 0.500000
O O10 0.406350 0.589253 0.604117
O O11 0.699843 0.618256 0.500000
O O12 0.781861 0.584215 0.607525
O O13 0.689903 0.490924 0.612473
O O14 0.566770 0.972240 0.500000
O O15 0.613279 0.960301 0.347171
O O16 0.500000 0.000000 0.374457
O O17 0.197450 0.500000 0.250000
O O18 0.827225 0.135254 0.500000
#
# Coordination Sequence:
#
# PCOD9496879 Si02
#       7
#    16  16  16  16  16  16  16
#     4  11  22  36  59  91 124 165 208 261 316 377
#     4  11  23  40  64  94 126 168 216 261 321 381
#     4  10  20  34  54  84 124 166 207 251 305 373
#     4  11  24  43  68  95 128 166 209 268 326 385
#     4  10  24  42  65  92 123 165 212 268 324 379
#     4  11  25  42  67  94 127 166 214 270 322 385
#     4  10  21  39  62  90 126 166 207 257 315 382
#
# _framework density 20.350218999999999
#
# number of rings (size 3 to 8) (size 9 to 14) (size 15 to 20)
#    0.000    1.429    1.429    3.429    4.000    5.429 
#    0.000    1.429    0.000    3.429    0.000    0.000 
#    0.000    0.000    0.000    0.000    0.000    0.000 
#
# Total GULP energy -312814.577928 kJ/mol
# GULP energy per Si atom -5585.974606 kJ/mol
# Density = 2.030390 g / cm^3
# Si number density = 20.350219 Si / 1000 Ang^3
#
#
#
# Elastic Constant Matrix: (Units=GPa)
#
#
# Indices 1 2 3 4 5 6 
#
# 1 79.7790 21.5659 27.0745 0.0000 0.0000 0.0000
# 2 21.5659 78.2253 50.4298 0.0000 0.0000 0.0000
# 3 27.0745 50.4298 110.8079 0.0000 0.0000 0.0000
# 4 0.0000 0.0000 0.0000 24.3687 0.0000 0.0000
# 5 0.0000 0.0000 0.0000 0.0000 21.6602 0.0000
# 6 0.0000 0.0000 0.0000 0.0000 0.0000 5.7656
#
#
#
# Elastic Compliance Matrix: (Units=1/GPa)
#
#
# Indices 1 2 3 4 5 6 
#
# 1 0.013963 -0.002335 -0.002349 0.000000 0.000000 0.000000
# 2 -0.002335 0.018482 -0.007841 0.000000 0.000000 0.000000
# 3 -0.002349 -0.007841 0.013167 0.000000 0.000000 0.000000
# 4 0.000000 0.000000 0.000000 0.041036 0.000000 0.000000
# 5 0.000000 0.000000 0.000000 0.000000 0.046168 0.000000
# 6 0.000000 0.000000 0.000000 0.000000 0.000000 0.173442
#
#
# Mechanical properties :
#
#
# Convention : Reuss Voigt Hill
#
# Bulk Modulus (GPa) = 48.63269 51.88362 50.25815
# Shear Modulus (GPa) = 14.78580 21.67503 18.23042
#
# Velocity S-wave (km/s) = 2.69842 3.26713 2.99630
# Velocity P-wave (km/s) = 5.80158 6.30737 6.05975
#
# Compressibility (1/GPa) = 0.02056230
#
# Stress axis : x y z
#
# Youngs Moduli (GPa) = 71.61778 54.10618 75.94734
#
# Poissons Ratio (x) = 0.12635 0.17840
# Poissons Ratio (y) = 0.16724 0.59549
# Poissons Ratio (z) = 0.16823 0.42424
#
# Static dielectric constant tensor:
#      x y z
#    x 1.732860 0.000000 0.000000 
#    y 0.000000 1.682590 0.000000 
#    z 0.000000 0.000000 1.728140 
# 
# From -- ./inp_files/32437.got.cif
#   From: 2010.05.17/outbox.cif.g08.bks.cpg/sg66_17_cif.got.tgz:32437.got - 2010.06.03 17:51:23.
