data_PCOD9496715
_publ_section_title
;
Structure prediction by ZEFSAII (Michael W. Deem and Ramdas Pophale) SiO2 
 PCOD9496715
Probable space group: C C C M
;
_chemical_formula_sum "Si O2"
_cell_formula_units_Z 96
_cell_length_a 30.775016
_cell_length_b 21.386065
_cell_length_c 8.942610
_cell_angle_alpha 90.000000
_cell_angle_beta 90.000000
_cell_angle_gamma 90.000000
_cell_volume 5885.636832
_symmetry_space_group_name_H-M "C C C M"
_symmetry_group_IT_number 66
_symmetry_cell_setting 'orthorhombic'
loop_
_space_group_symop_operation_xyz
x,y,z
-x,-y,z
x,-y,1/2-z
-x,y,1/2-z
-x,-y,-z
x,y,-z
-x,y,1/2+z
x,-y,1/2+z
1/2+x,1/2+y,z
1/2-x,1/2-y,z
1/2+x,1/2-y,1/2-z
1/2-x,1/2+y,1/2-z
1/2-x,1/2-y,-z
1/2+x,1/2+y,-z
1/2-x,1/2+y,1/2+z
1/2+x,1/2-y,1/2+z
loop_
_atom_site_type_symbol
_atom_site_label
_atom_site_fract_x
_atom_site_fract_y
_atom_site_fract_z
Si Si1 0.563009 0.436060 0.173976
Si Si2 0.366681 0.262846 0.323778
Si Si3 0.044634 0.802631 0.678764
Si Si4 0.163267 0.094424 0.331582
Si Si5 0.213766 0.697853 0.319083
Si Si6 0.249243 0.063653 0.823832
O O1 0.548304 0.500000 0.250000
O O2 0.549092 0.374263 0.262961
O O3 0.615634 0.435264 0.177346
O O4 0.549602 0.431347 0.000000
O O5 0.373427 0.251519 0.500000
O O6 0.412810 0.267214 0.240447
O O7 0.345173 0.331839 0.309704
O O8 0.332140 0.215959 0.252388
O O9 0.043268 0.801406 0.500000
O O10 0.000000 0.777772 0.750000
O O11 0.180452 0.083974 0.500000
O O12 0.198231 0.070174 0.215434
O O13 0.210548 0.699440 0.500000
O O14 0.250000 0.750000 0.276570
O O15 0.229229 0.628778 0.272095
O O16 0.265840 0.000000 0.750000
O O17 0.254963 0.059525 0.000000
#
# Coordination Sequence:
#
# PCOD9496715 Si02
#       6
#    16  16  16  16  16  16
#     4  10  20  33  47  68  94 127 170 214 261 313
#     4  10  20  34  54  78 101 130 170 215 259 311
#     4  11  22  37  55  73  97 127 162 211 263 313
#     4   9  18  31  47  68  96 129 169 213 257 302
#     4  10  20  35  53  76 104 138 178 218 261 310
#     4  11  22  33  48  70 102 138 175 217 259 307
#
# _framework density 16.310894999999999
#
# number of rings (size 3 to 8) (size 9 to 14) (size 15 to 20)
#    0.000    1.833    1.667    4.500    0.000    6.667 
#    0.000    1.667    0.000    0.000    0.000    0.000 
#    0.000    0.667    0.000    7.000    0.000    3.833 
#
# Total GULP energy -268046.818135 kJ/mol
# GULP energy per Si atom -5584.308711 kJ/mol
# Density = 1.627377 g / cm^3
# Si number density = 16.310895 Si / 1000 Ang^3
#
#
#
# Elastic Constant Matrix: (Units=GPa)
#
#
# Indices 1 2 3 4 5 6 
#
# 1 105.5164 48.2299 50.8356 0.0000 0.0000 0.0000
# 2 48.2299 88.9368 43.4440 0.0000 0.0000 0.0000
# 3 50.8356 43.4440 89.6118 0.0000 0.0000 0.0000
# 4 0.0000 0.0000 0.0000 23.5128 0.0000 0.0000
# 5 0.0000 0.0000 0.0000 0.0000 26.4887 0.0000
# 6 0.0000 0.0000 0.0000 0.0000 0.0000 -1.1415
#
#
#
# Elastic Compliance Matrix: (Units=1/GPa)
#
#
# Indices 1 2 3 4 5 6 
#
# 1 0.014602 -0.005074 -0.005824 0.000000 0.000000 0.000000
# 2 -0.005074 0.016496 -0.005119 0.000000 0.000000 0.000000
# 3 -0.005824 -0.005119 0.016945 0.000000 0.000000 0.000000
# 4 0.000000 0.000000 0.000000 0.042530 0.000000 0.000000
# 5 0.000000 0.000000 0.000000 0.000000 0.037752 0.000000
# 6 0.000000 0.000000 0.000000 0.000000 0.000000 -0.876007
#
#
# Mechanical properties :
#
#
# Convention : Reuss Voigt Hill
#
# Bulk Modulus (GPa) = 62.46246 63.23155 62.84701
# Shear Modulus (GPa) = -7.03916 19.20903 6.08494
#
# Velocity S-wave (km/s) = -2.07966 3.43546 1.93357
# Velocity P-wave (km/s) = 5.71064 7.38831 6.60297
#
# Compressibility (1/GPa) = 0.01600962
#
# Stress axis : x y z
#
# Youngs Moduli (GPa) = 68.48299 60.62084 59.01553
#
# Poissons Ratio (x) = 0.30758 0.34369
# Poissons Ratio (y) = 0.34747 0.30210
# Poissons Ratio (z) = 0.39883 0.31032
#
# Static dielectric constant tensor:
#      x y z
#    x 1.551960 0.000000 0.000000 
#    y 0.000000 1.547370 0.000000 
#    z 0.000000 0.000000 1.551950 
# 
# From -- ./inp_files/8013.got.cif
#   From: 2010.05.17/outbox.cif.g08.bks.cpg/sg66_5_cif.got.tgz:8013.got - 2010.06.03 17:51:23.
