data_PCOD9496320
_publ_section_title
;
Structure prediction by ZEFSAII (Michael W. Deem and Ramdas Pophale) SiO2 
 PCOD9496320
Probable space group: C C C M
;
_chemical_formula_sum "Si O2"
_cell_formula_units_Z 48
_cell_length_a 5.210036
_cell_length_b 25.643429
_cell_length_c 16.354722
_cell_angle_alpha 90.000000
_cell_angle_beta 90.000000
_cell_angle_gamma 90.000000
_cell_volume 2185.043002
_symmetry_space_group_name_H-M "C C C M"
_symmetry_group_IT_number 66
_symmetry_cell_setting 'orthorhombic'
loop_
_space_group_symop_operation_xyz
x,y,z
-x,-y,z
x,-y,1/2-z
-x,y,1/2-z
-x,-y,-z
x,y,-z
-x,y,1/2+z
x,-y,1/2+z
1/2+x,1/2+y,z
1/2-x,1/2-y,z
1/2+x,1/2-y,1/2-z
1/2-x,1/2+y,1/2-z
1/2-x,1/2-y,-z
1/2+x,1/2+y,-z
1/2-x,1/2+y,1/2+z
1/2+x,1/2-y,1/2+z
loop_
_atom_site_type_symbol
_atom_site_label
_atom_site_fract_x
_atom_site_fract_y
_atom_site_fract_z
Si Si1 0.138170 0.694481 0.595349
Si Si2 0.247926 0.023346 0.656957
Si Si3 0.625299 0.355230 0.162128
O O1 0.067761 0.699172 0.500000
O O2 0.250000 0.750000 0.624012
O O3 0.380352 0.655348 0.604106
O O4 0.878966 0.678047 0.641813
O O5 0.222616 0.085145 0.660788
O O6 0.500000 0.000000 0.617319
O O7 0.248787 0.000000 0.750000
O O8 0.000000 0.000000 0.614894
O O9 0.500000 0.344070 0.250000
#
# Coordination Sequence:
#
# PCOD9496320 Si02
#       3
#    16  16  16
#     4  11  26  47  68  94 141 192 220 265 350 417
#     4  10  19  34  60  97 129 172 207 267 337 412
#     4  12  23  40  73 107 128 171 237 289 322 390
#
# _framework density 21.967528999999999
#
# number of rings (size 3 to 8) (size 9 to 14) (size 15 to 20)
#    0.000    1.000    3.333    5.000    4.667    5.333 
#    0.000    0.000    0.000   20.000    0.000    0.000 
#    0.000    0.000    0.000    0.000    0.000    0.000 
#
# Total GULP energy -134053.141001 kJ/mol
# GULP energy per Si atom -5585.547542 kJ/mol
# Density = 2.191753 g / cm^3
# Si number density = 21.967529 Si / 1000 Ang^3
#
#
#
# Elastic Constant Matrix: (Units=GPa)
#
#
# Indices 1 2 3 4 5 6 
#
# 1 263.7219 88.6461 50.3071 0.0000 0.0000 0.0000
# 2 88.6461 135.7273 49.2156 0.0000 0.0000 0.0000
# 3 50.3071 49.2156 47.0525 0.0000 0.0000 0.0000
# 4 0.0000 0.0000 0.0000 102.8688 0.0000 0.0000
# 5 0.0000 0.0000 0.0000 0.0000 10.7882 0.0000
# 6 0.0000 0.0000 0.0000 0.0000 0.0000 42.6339
#
#
#
# Elastic Compliance Matrix: (Units=1/GPa)
#
#
# Indices 1 2 3 4 5 6 
#
# 1 0.005141 -0.002198 -0.003197 0.000000 0.000000 0.000000
# 2 -0.002198 0.012810 -0.011048 0.000000 0.000000 0.000000
# 3 -0.003197 -0.011048 0.036227 0.000000 0.000000 0.000000
# 4 0.000000 0.000000 0.000000 0.009721 0.000000 0.000000
# 5 0.000000 0.000000 0.000000 0.000000 0.092694 0.000000
# 6 0.000000 0.000000 0.000000 0.000000 0.000000 0.023456
#
#
# Mechanical properties :
#
#
# Convention : Reuss Voigt Hill
#
# Bulk Modulus (GPa) = 46.96919 91.42658 69.19789
# Shear Modulus (GPa) = 22.72409 48.48039 35.60224
#
# Velocity S-wave (km/s) = 3.21976 4.70287 4.03013
# Velocity P-wave (km/s) = 5.93718 8.43793 7.29550
#
# Compressibility (1/GPa) = 0.02129055
#
# Stress axis : x y z
#
# Youngs Moduli (GPa) = 194.52968 78.06678 27.60371
#
# Poissons Ratio (x) = 0.17161 0.08825
# Poissons Ratio (y) = 0.42762 0.30497
# Poissons Ratio (z) = 0.62190 0.86250
#
# Static dielectric constant tensor:
#      x y z
#    x 1.804400 0.000000 0.000000 
#    y 0.000000 1.814560 0.000000 
#    z 0.000000 0.000000 1.802920 
# 
# From -- ./inp_files/22215.got.cif
#   From: 2010.05.17/outbox.cif.g08.bks.cpg/sg66_12_cif.got.tgz:22215.got - 2010.06.03 17:51:23.
