data_PCOD9496478
_publ_section_title
;
Structure prediction by ZEFSAII (Michael W. Deem and Ramdas Pophale) SiO2 
 PCOD9496478
Probable space group: C C C M
;
_chemical_formula_sum "Si O2"
_cell_formula_units_Z 88
_cell_length_a 17.532201
_cell_length_b 12.354547
_cell_length_c 18.132706
_cell_angle_alpha 90.000000
_cell_angle_beta 90.000000
_cell_angle_gamma 90.000000
_cell_volume 3927.587661
_symmetry_space_group_name_H-M "C C C M"
_symmetry_group_IT_number 66
_symmetry_cell_setting 'orthorhombic'
loop_
_space_group_symop_operation_xyz
x,y,z
-x,-y,z
x,-y,1/2-z
-x,y,1/2-z
-x,-y,-z
x,y,-z
-x,y,1/2+z
x,-y,1/2+z
1/2+x,1/2+y,z
1/2-x,1/2-y,z
1/2+x,1/2-y,1/2-z
1/2-x,1/2+y,1/2-z
1/2-x,1/2-y,-z
1/2+x,1/2+y,-z
1/2-x,1/2+y,1/2+z
1/2+x,1/2-y,1/2+z
loop_
_atom_site_type_symbol
_atom_site_label
_atom_site_fract_x
_atom_site_fract_y
_atom_site_fract_z
Si Si1 0.750000 0.750000 0.373197
Si Si2 0.794506 0.587179 0.912375
Si Si3 0.974223 0.183771 0.914243
Si Si4 0.639473 0.316930 0.633066
Si Si5 0.889624 0.611764 0.417539
Si Si6 0.864851 0.114799 0.211360
O O1 0.818711 0.696250 0.417413
O O2 0.786354 0.843468 0.323153
O O3 0.710002 0.599937 0.877919
O O4 0.832537 0.703458 0.899741
O O5 0.851960 0.494886 0.882162
O O6 0.783762 0.567128 0.000000
O O7 0.958417 0.310610 0.891687
O O8 0.925523 0.118748 0.854421
O O9 0.061982 0.152141 0.907239
O O10 0.950450 0.171534 0.000000
O O11 0.620136 0.305470 0.719634
O O12 0.911619 0.578493 0.500000
O O13 0.864948 0.000000 0.250000
#
# Coordination Sequence:
#
# PCOD9496478 Si02
#       6
#     8  16  16  16  16  16
#     4  10  19  36  60  84 115 156 198 242 292 358
#     4  10  20  36  60  92 125 161 204 251 304 366
#     4  10  22  41  62  87 119 160 206 252 302 363
#     4  11  21  37  59  88 124 159 199 252 308 364
#     4   9  19  35  58  87 119 156 202 249 296 352
#     4  11  24  41  62  89 122 158 198 248 306 363
#
# _framework density 22.405611
#
# number of rings (size 3 to 8) (size 9 to 14) (size 15 to 20)
#    0.000    1.818    0.000    5.182    0.000    2.909 
#    0.000    9.091    0.000    4.364    0.000    0.000 
#    0.000    0.000    0.000    0.000    0.000    0.000 
#
# Total GULP energy -245485.294465 kJ/mol
# GULP energy per Si atom -5579.211238 kJ/mol
# Density = 2.235461 g / cm^3
# Si number density = 22.405611 Si / 1000 Ang^3
#
#
#
# Elastic Constant Matrix: (Units=GPa)
#
#
# Indices 1 2 3 4 5 6 
#
# 1 93.9709 26.1321 39.1417 0.0000 0.0000 0.0000
# 2 26.1321 95.8666 13.8872 0.0000 0.0000 0.0000
# 3 39.1417 13.8872 111.8446 0.0000 0.0000 0.0000
# 4 0.0000 0.0000 0.0000 24.8365 0.0000 0.0000
# 5 0.0000 0.0000 0.0000 0.0000 14.5233 0.0000
# 6 0.0000 0.0000 0.0000 0.0000 0.0000 17.5921
#
#
#
# Elastic Compliance Matrix: (Units=1/GPa)
#
#
# Indices 1 2 3 4 5 6 
#
# 1 0.013251 -0.002994 -0.004266 0.000000 0.000000 0.000000
# 2 -0.002994 0.011299 -0.000355 0.000000 0.000000 0.000000
# 3 -0.004266 -0.000355 0.010478 0.000000 0.000000 0.000000
# 4 0.000000 0.000000 0.000000 0.040263 0.000000 0.000000
# 5 0.000000 0.000000 0.000000 0.000000 0.068855 0.000000
# 6 0.000000 0.000000 0.000000 0.000000 0.000000 0.056844
#
#
# Mechanical properties :
#
#
# Convention : Reuss Voigt Hill
#
# Bulk Modulus (GPa) = 50.51021 51.11157 50.81089
# Shear Modulus (GPa) = 22.43980 26.22514 24.33247
#
# Velocity S-wave (km/s) = 3.16812 3.42493 3.29902
# Velocity P-wave (km/s) = 5.99793 6.20497 6.10233
#
# Compressibility (1/GPa) = 0.01979798
#
# Stress axis : x y z
#
# Youngs Moduli (GPa) = 75.46610 88.50528 95.43916
#
# Poissons Ratio (x) = 0.26500 0.40711
# Poissons Ratio (y) = 0.22596 0.03389
# Poissons Ratio (z) = 0.32191 0.03142
#
# Static dielectric constant tensor:
#      x y z
#    x 1.841850 0.000000 0.000000 
#    y 0.000000 1.885870 0.000000 
#    z 0.000000 0.000000 1.819250 
# 
# From -- ./inp_files/50914.got.cif
#   From: 2010.05.17/outbox.cif.g08.bks.cpg/sg66_26_cif.got.tgz:50914.got - 2010.06.03 17:51:23.
