data_PCOD9496618
_publ_section_title
;
Structure prediction by ZEFSAII (Michael W. Deem and Ramdas Pophale) SiO2 
 PCOD9496618
Probable space group: C C C M
;
_chemical_formula_sum "Si O2"
_cell_formula_units_Z 96
_cell_length_a 15.922534
_cell_length_b 26.672476
_cell_length_c 14.222438
_cell_angle_alpha 90.000000
_cell_angle_beta 90.000000
_cell_angle_gamma 90.000000
_cell_volume 6040.175635
_symmetry_space_group_name_H-M "C C C M"
_symmetry_group_IT_number 66
_symmetry_cell_setting 'orthorhombic'
loop_
_space_group_symop_operation_xyz
x,y,z
-x,-y,z
x,-y,1/2-z
-x,y,1/2-z
-x,-y,-z
x,y,-z
-x,y,1/2+z
x,-y,1/2+z
1/2+x,1/2+y,z
1/2-x,1/2-y,z
1/2+x,1/2-y,1/2-z
1/2-x,1/2+y,1/2-z
1/2-x,1/2-y,-z
1/2+x,1/2+y,-z
1/2-x,1/2+y,1/2+z
1/2+x,1/2-y,1/2+z
loop_
_atom_site_type_symbol
_atom_site_label
_atom_site_fract_x
_atom_site_fract_y
_atom_site_fract_z
Si Si1 0.838144 0.220495 0.604469
Si Si2 0.502398 0.600797 0.111288
Si Si3 0.233606 0.847849 0.235645
Si Si4 0.864507 0.941403 0.259738
Si Si5 0.909815 0.293451 0.249650
Si Si6 0.596120 0.700248 0.611000
O O1 0.865887 0.205712 0.500000
O O2 0.750000 0.250000 0.597027
O O3 0.816136 0.175334 0.674425
O O4 0.898138 0.259978 0.656140
O O5 0.578539 0.579792 0.173582
O O6 0.421640 0.569809 0.148531
O O7 0.476651 0.658892 0.132399
O O8 0.515018 0.595537 0.000000
O O9 0.217759 0.906930 0.235327
O O10 0.328537 0.828408 0.239168
O O11 0.183009 0.824480 0.147687
O O12 0.849638 0.000000 0.250000
O O13 0.911164 0.251701 0.167632
O O14 0.000000 0.319646 0.250000
O O15 0.597251 0.707985 0.500000
#
# Coordination Sequence:
#
# PCOD9496618 Si02
#       6
#    16  16  16  16  16  16
#     4   8  15  29  47  66  90 118 145 180 230 285
#     4   9  18  31  49  73  99 121 147 190 238 288
#     4   9  19  33  46  64  93 125 158 195 232 273
#     4  10  20  32  48  68  94 126 161 197 233 277
#     4  10  20  30  45  68  95 123 157 195 229 275
#     4   9  18  31  48  70  96 125 154 184 227 288
#
# _framework density 15.893578
#
# number of rings (size 3 to 8) (size 9 to 14) (size 15 to 20)
#    0.000    2.833    0.000    2.500    7.000    4.000 
#    0.000    0.000    0.000    0.500    0.000    0.000 
#    0.000    0.000    0.000   19.667    0.000    0.000 
#
# Total GULP energy -267563.767277 kJ/mol
# GULP energy per Si atom -5574.245152 kJ/mol
# Density = 1.585740 g / cm^3
# Si number density = 15.893578 Si / 1000 Ang^3
#
#
#
# Elastic Constant Matrix: (Units=GPa)
#
#
# Indices 1 2 3 4 5 6 
#
# 1 109.2421 49.8638 19.6200 0.0000 0.0000 0.0000
# 2 49.8638 99.5575 16.4837 0.0000 0.0000 0.0000
# 3 19.6200 16.4837 94.8456 0.0000 0.0000 0.0000
# 4 0.0000 0.0000 0.0000 11.1416 0.0000 0.0000
# 5 0.0000 0.0000 0.0000 0.0000 10.0200 0.0000
# 6 0.0000 0.0000 0.0000 0.0000 0.0000 15.6940
#
#
#
# Elastic Compliance Matrix: (Units=1/GPa)
#
#
# Indices 1 2 3 4 5 6 
#
# 1 0.012068 -0.005798 -0.001489 0.000000 0.000000 0.000000
# 2 -0.005798 0.013127 -0.001082 0.000000 0.000000 0.000000
# 3 -0.001489 -0.001082 0.011039 0.000000 0.000000 0.000000
# 4 0.000000 0.000000 0.000000 0.089753 0.000000 0.000000
# 5 0.000000 0.000000 0.000000 0.000000 0.099800 0.000000
# 6 0.000000 0.000000 0.000000 0.000000 0.000000 0.063719
#
#
# Mechanical properties :
#
#
# Convention : Reuss Voigt Hill
#
# Bulk Modulus (GPa) = 51.28875 52.84224 52.06550
# Shear Modulus (GPa) = 15.98754 21.88297 18.93526
#
# Velocity S-wave (km/s) = 3.17505 3.71461 3.45538
# Velocity P-wave (km/s) = 6.76620 7.19149 6.98208
#
# Compressibility (1/GPa) = 0.01949745
#
# Stress axis : x y z
#
# Youngs Moduli (GPa) = 82.86563 76.17650 90.58385
#
# Poissons Ratio (x) = 0.44165 0.13486
# Poissons Ratio (y) = 0.48043 0.09803
# Poissons Ratio (z) = 0.12337 0.08243
#
# Static dielectric constant tensor:
#      x y z
#    x 1.553500 0.000000 0.000000 
#    y 0.000000 1.522580 0.000000 
#    z 0.000000 0.000000 1.552240 
# 
# From -- ./inp_files/28950.got.cif
#   From: 2010.05.17/outbox.cif.g08.bks.cpg/sg66_15_cif.got.tgz:28950.got - 2010.06.03 17:51:23.
