data_PCOD9496863
_publ_section_title
;
Structure prediction by ZEFSAII (Michael W. Deem and Ramdas Pophale) SiO2 
 PCOD9496863
Probable space group: C C C M
;
_chemical_formula_sum "Si O2"
_cell_formula_units_Z 68
_cell_length_a 27.768312
_cell_length_b 5.055021
_cell_length_c 30.262016
_cell_angle_alpha 90.000000
_cell_angle_beta 90.000000
_cell_angle_gamma 90.000000
_cell_volume 4247.861038
_symmetry_space_group_name_H-M "C C C M"
_symmetry_group_IT_number 66
_symmetry_cell_setting 'orthorhombic'
loop_
_space_group_symop_operation_xyz
x,y,z
-x,-y,z
x,-y,1/2-z
-x,y,1/2-z
-x,-y,-z
x,y,-z
-x,y,1/2+z
x,-y,1/2+z
1/2+x,1/2+y,z
1/2-x,1/2-y,z
1/2+x,1/2-y,1/2-z
1/2-x,1/2+y,1/2-z
1/2-x,1/2-y,-z
1/2+x,1/2+y,-z
1/2-x,1/2+y,1/2+z
1/2+x,1/2-y,1/2+z
loop_
_atom_site_type_symbol
_atom_site_label
_atom_site_fract_x
_atom_site_fract_y
_atom_site_fract_z
Si Si1 0.713974 0.493556 0.500000
Si Si2 0.250000 0.250000 0.721497
Si Si3 0.593725 0.240097 0.778865
Si Si4 0.000000 0.500000 0.750000
Si Si5 0.694912 0.648493 0.904771
Si Si6 0.169690 0.357779 0.348571
O O1 0.750000 0.750000 0.500000
O O2 0.684250 0.447529 0.545077
O O3 0.750000 0.250000 0.500000
O O4 0.269139 0.500000 0.750000
O O5 0.208671 0.380135 0.690891
O O6 0.601559 0.500000 0.750000
O O7 0.536592 0.175389 0.779039
O O8 0.619759 0.226140 0.825528
O O9 0.614944 0.000000 0.750000
O O10 0.750000 0.750000 0.904361
O O11 0.689279 0.386422 0.876504
O O12 0.666745 0.885218 0.879961
#
# Coordination Sequence:
#
# PCOD9496863 Si02
#       6
#     8   8  16   4  16  16
#     4  10  20  34  54  72  98 143 185 215 271 300
#     4  12  22  32  44  65 102 143 176 206 236 306
#     4  10  20  36  53  73 100 139 172 220 262 308
#     4   8  22  36  58  72 102 130 186 216 278 298
#     4  11  20  35  49  74 104 139 177 223 249 309
#     4  12  21  33  50  72 105 136 183 213 260 300
#
# _framework density 16.008057000000001
#
# number of rings (size 3 to 8) (size 9 to 14) (size 15 to 20)
#    0.706    0.471    2.353    7.412    0.000    0.000 
#    0.000    0.000    0.000    0.000    0.000    0.000 
#    0.000    5.647    0.000    0.000    0.000    0.000 
#
# Total GULP energy -189288.604428 kJ/mol
# GULP energy per Si atom -5567.311895 kJ/mol
# Density = 1.597162 g / cm^3
# Si number density = 16.008057 Si / 1000 Ang^3
#
#
#
# Elastic Constant Matrix: (Units=GPa)
#
#
# Indices 1 2 3 4 5 6 
#
# 1 59.4706 -0.1528 34.0885 0.0000 0.0000 0.0000
# 2 -0.1528 117.7345 43.0647 0.0000 0.0000 0.0000
# 3 34.0885 43.0647 109.9444 0.0000 0.0000 0.0000
# 4 0.0000 0.0000 0.0000 22.6179 0.0000 0.0000
# 5 0.0000 0.0000 0.0000 0.0000 5.9948 0.0000
# 6 0.0000 0.0000 0.0000 0.0000 0.0000 350.3855
#
#
#
# Elastic Compliance Matrix: (Units=1/GPa)
#
#
# Indices 1 2 3 4 5 6 
#
# 1 0.021235 0.002843 -0.007697 0.000000 0.000000 0.000000
# 2 0.002843 0.010295 -0.004914 0.000000 0.000000 0.000000
# 3 -0.007697 -0.004914 0.013407 0.000000 0.000000 0.000000
# 4 0.000000 0.000000 0.000000 0.044213 0.000000 0.000000
# 5 0.000000 0.000000 0.000000 0.000000 0.166812 0.000000
# 6 0.000000 0.000000 0.000000 0.000000 0.000000 0.002854
#
#
# Mechanical properties :
#
#
# Convention : Reuss Voigt Hill
#
# Bulk Modulus (GPa) = 39.37063 49.01670 44.19366
# Shear Modulus (GPa) = 17.43267 89.80958 53.62113
#
# Velocity S-wave (km/s) = 3.30357 7.49830 5.79388
# Velocity P-wave (km/s) = 6.26092 10.27874 8.51034
#
# Compressibility (1/GPa) = 0.02539965
#
# Stress axis : x y z
#
# Youngs Moduli (GPa) = 47.09315 97.13656 74.58851
#
# Poissons Ratio (x) = -0.27617 0.57414
# Poissons Ratio (y) = -0.13389 0.36652
# Poissons Ratio (z) = 0.36250 0.47732
#
# Static dielectric constant tensor:
#      x y z
#    x 1.588780 0.000000 0.000000 
#    y 0.000000 1.562590 0.000000 
#    z 0.000000 0.000000 1.369900 
# 
# From -- ./inp_files/66369.got.cif
#   From: 2010.05.17/outbox.cif.g08.bks.cpg/sg66_34_cif.got.tgz:66369.got - 2010.06.03 17:51:23.
