data_PCOD9496282
_publ_section_title
;
Structure prediction by ZEFSAII (Michael W. Deem and Ramdas Pophale) SiO2 
 PCOD9496282
Probable space group: C C C M
;
_chemical_formula_sum "Si O2"
_cell_formula_units_Z 88
_cell_length_a 18.750580
_cell_length_b 12.859765
_cell_length_c 18.886432
_cell_angle_alpha 90.000000
_cell_angle_beta 90.000000
_cell_angle_gamma 90.000000
_cell_volume 4554.048565
_symmetry_space_group_name_H-M "C C C M"
_symmetry_group_IT_number 66
_symmetry_cell_setting 'orthorhombic'
loop_
_space_group_symop_operation_xyz
x,y,z
-x,-y,z
x,-y,1/2-z
-x,y,1/2-z
-x,-y,-z
x,y,-z
-x,y,1/2+z
x,-y,1/2+z
1/2+x,1/2+y,z
1/2-x,1/2-y,z
1/2+x,1/2-y,1/2-z
1/2-x,1/2+y,1/2-z
1/2-x,1/2-y,-z
1/2+x,1/2+y,-z
1/2-x,1/2+y,1/2+z
1/2+x,1/2-y,1/2+z
loop_
_atom_site_type_symbol
_atom_site_label
_atom_site_fract_x
_atom_site_fract_y
_atom_site_fract_z
Si Si1 0.404311 0.184054 0.196973
Si Si2 0.750000 0.750000 0.838914
Si Si3 0.818597 0.820004 0.586076
Si Si4 0.049584 0.696781 0.854151
Si Si5 0.261507 0.530915 0.419299
Si Si6 0.098180 0.506289 0.420563
O O1 0.326449 0.235775 0.198833
O O2 0.471522 0.244745 0.161516
O O3 0.424444 0.157719 0.277083
O O4 0.404501 0.085382 0.144788
O O5 0.742000 0.642402 0.882335
O O6 0.819840 0.820414 0.500000
O O7 0.750000 0.750000 0.607325
O O8 0.891571 0.773484 0.615272
O O9 0.809042 0.938733 0.611836
O O10 0.051856 0.595628 0.904623
O O11 0.283772 0.550623 0.500000
O O12 0.182521 0.479835 0.421421
O O13 0.083746 0.548040 0.500000
#
# Coordination Sequence:
#
# PCOD9496282 Si02
#       6
#    16   8  16  16  16  16
#     4  10  24  37  54  82 117 156 203 237 291 354
#     4  10  21  40  58  76 111 164 200 230 282 356
#     4  10  19  34  60  91 118 147 190 244 299 352
#     4  11  21  37  55  84 121 151 187 254 300 350
#     4   9  18  34  57  87 116 148 191 241 287 348
#     4  10  19  34  58  86 117 153 192 241 302 356
#
# _framework density 19.323464999999999
#
# number of rings (size 3 to 8) (size 9 to 14) (size 15 to 20)
#    0.000    2.000    1.818    1.909    1.273    4.364 
#    0.000    1.818    0.000    4.364    0.000    0.000 
#    0.000    0.000    0.000    0.000    0.000    0.000 
#
# Total GULP energy -245049.921260 kJ/mol
# GULP energy per Si atom -5569.316392 kJ/mol
# Density = 1.927948 g / cm^3
# Si number density = 19.323465 Si / 1000 Ang^3
#
#
#
# Elastic Constant Matrix: (Units=GPa)
#
#
# Indices 1 2 3 4 5 6 
#
# 1 113.4853 26.7259 15.3589 0.0000 0.0000 0.0000
# 2 26.7259 74.2758 20.9701 0.0000 0.0000 0.0000
# 3 15.3589 20.9701 50.4813 0.0000 0.0000 0.0000
# 4 0.0000 0.0000 0.0000 6.5930 0.0000 0.0000
# 5 0.0000 0.0000 0.0000 0.0000 26.6356 0.0000
# 6 0.0000 0.0000 0.0000 0.0000 0.0000 25.4332
#
#
#
# Elastic Compliance Matrix: (Units=1/GPa)
#
#
# Indices 1 2 3 4 5 6 
#
# 1 0.009756 -0.003028 -0.001711 0.000000 0.000000 0.000000
# 2 -0.003028 0.016192 -0.005805 0.000000 0.000000 0.000000
# 3 -0.001711 -0.005805 0.022741 0.000000 0.000000 0.000000
# 4 0.000000 0.000000 0.000000 0.151677 0.000000 0.000000
# 5 0.000000 0.000000 0.000000 0.000000 0.037544 0.000000
# 6 0.000000 0.000000 0.000000 0.000000 0.000000 0.039319
#
#
# Mechanical properties :
#
#
# Convention : Reuss Voigt Hill
#
# Bulk Modulus (GPa) = 36.22827 40.48357 38.35592
# Shear Modulus (GPa) = 16.25936 23.41153 19.83545
#
# Velocity S-wave (km/s) = 2.90389 3.48452 3.20737
# Velocity P-wave (km/s) = 5.48019 6.09796 5.79731
#
# Compressibility (1/GPa) = 0.02760275
#
# Stress axis : x y z
#
# Youngs Moduli (GPa) = 102.49876 61.76057 43.97316
#
# Poissons Ratio (x) = 0.18698 0.07522
# Poissons Ratio (y) = 0.31032 0.25526
# Poissons Ratio (z) = 0.17534 0.35851
#
# Static dielectric constant tensor:
#      x y z
#    x 1.755380 0.000000 0.000000 
#    y 0.000000 1.675380 0.000000 
#    z 0.000000 0.000000 1.665020 
# 
# From -- ./inp_files/38668.got.cif
#   From: 2010.05.17/outbox.cif.g08.bks.cpg/sg66_20_cif.got.tgz:38668.got - 2010.06.03 17:51:23.
