data_PCOD9496111
_publ_section_title
;
Structure prediction by ZEFSAII (Michael W. Deem and Ramdas Pophale) SiO2 
 PCOD9496111
Probable space group: C C C M
;
_chemical_formula_sum "Si O2"
_cell_formula_units_Z 80
_cell_length_a 27.708959
_cell_length_b 8.125710
_cell_length_c 15.816963
_cell_angle_alpha 90.000000
_cell_angle_beta 90.000000
_cell_angle_gamma 90.000000
_cell_volume 3561.267754
_symmetry_space_group_name_H-M "C C C M"
_symmetry_group_IT_number 66
_symmetry_cell_setting 'orthorhombic'
loop_
_space_group_symop_operation_xyz
x,y,z
-x,-y,z
x,-y,1/2-z
-x,y,1/2-z
-x,-y,-z
x,y,-z
-x,y,1/2+z
x,-y,1/2+z
1/2+x,1/2+y,z
1/2-x,1/2-y,z
1/2+x,1/2-y,1/2-z
1/2-x,1/2+y,1/2-z
1/2-x,1/2-y,-z
1/2+x,1/2+y,-z
1/2-x,1/2+y,1/2+z
1/2+x,1/2-y,1/2+z
loop_
_atom_site_type_symbol
_atom_site_label
_atom_site_fract_x
_atom_site_fract_y
_atom_site_fract_z
Si Si1 0.881853 0.771341 0.398441
Si Si2 0.719227 0.413731 0.593782
Si Si3 0.388517 0.635970 0.397414
Si Si4 0.790741 0.355238 0.804874
Si Si5 0.053985 0.457655 0.896636
O O1 0.875100 0.763223 0.500000
O O2 0.905044 0.949215 0.378788
O O3 0.831100 0.750085 0.350925
O O4 0.913407 0.614187 0.374448
O O5 0.706382 0.476425 0.500000
O O6 0.750000 0.250000 0.583991
O O7 0.667316 0.364690 0.633748
O O8 0.755092 0.547290 0.632401
O O9 0.387594 0.654810 0.500000
O O10 0.421201 0.787322 0.366300
O O11 0.813872 0.500000 0.750000
O O12 0.750000 0.250000 0.755587
O O13 0.000000 0.500000 0.867703
O O14 0.052340 0.448077 0.000000
#
# Coordination Sequence:
#
# PCOD9496111 Si02
#       5
#    16  16  16  16  16
#     4  10  20  36  59  83 112 153 197 237 285 351
#     4  10  19  33  55  80 110 151 193 234 283 346
#     4   9  17  30  51  80 111 148 189 227 275 338
#     4  12  24  37  53  79 115 151 194 245 299 347
#     4   9  18  32  53  85 120 147 180 236 294 339
#
# _framework density 22.463909999999998
#
# number of rings (size 3 to 8) (size 9 to 14) (size 15 to 20)
#    0.000    2.000    2.000    2.400    0.000    4.800 
#    0.000    4.000    0.000    0.600    0.000    0.000 
#    0.000    0.000    0.000    0.000    0.000    0.000 
#
# Total GULP energy -223243.978571 kJ/mol
# GULP energy per Si atom -5581.099464 kJ/mol
# Density = 2.241278 g / cm^3
# Si number density = 22.463910 Si / 1000 Ang^3
#
#
#
# Elastic Constant Matrix: (Units=GPa)
#
#
# Indices 1 2 3 4 5 6 
#
# 1 134.8596 92.3768 17.5715 0.0000 0.0000 0.0000
# 2 92.3768 193.5601 19.4608 0.0000 0.0000 0.0000
# 3 17.5715 19.4608 28.3136 0.0000 0.0000 0.0000
# 4 0.0000 0.0000 0.0000 -10.2470 0.0000 0.0000
# 5 0.0000 0.0000 0.0000 0.0000 11.2472 0.0000
# 6 0.0000 0.0000 0.0000 0.0000 0.0000 38.0900
#
#
#
# Elastic Compliance Matrix: (Units=1/GPa)
#
#
# Indices 1 2 3 4 5 6 
#
# 1 0.011342 -0.005055 -0.003565 0.000000 0.000000 0.000000
# 2 -0.005055 0.007802 -0.002226 0.000000 0.000000 0.000000
# 3 -0.003565 -0.002226 0.039061 0.000000 0.000000 0.000000
# 4 0.000000 0.000000 0.000000 -0.097590 0.000000 0.000000
# 5 0.000000 0.000000 0.000000 0.000000 0.088911 0.000000
# 6 0.000000 0.000000 0.000000 0.000000 0.000000 0.026254
#
#
# Mechanical properties :
#
#
# Convention : Reuss Voigt Hill
#
# Bulk Modulus (GPa) = 27.38606 68.39460 47.89033
# Shear Modulus (GPa) = 45.60278 22.97299 34.28789
#
# Velocity S-wave (km/s) = 4.51049 3.20138 3.91110
# Velocity P-wave (km/s) = 6.27245 6.64663 6.46225
#
# Compressibility (1/GPa) = 0.03651493
#
# Stress axis : x y z
#
# Youngs Moduli (GPa) = 88.16914 128.16519 25.60098
#
# Poissons Ratio (x) = 0.64781 0.09126
# Poissons Ratio (y) = 0.44565 0.05699
# Poissons Ratio (z) = 0.31429 0.28530
#
# Static dielectric constant tensor:
#      x y z
#    x 1.801320 0.000000 0.000000 
#    y 0.000000 1.903670 0.000000 
#    z 0.000000 0.000000 1.886490 
# 
# From -- ./inp_files/44075.got.cif
#   From: 2010.05.17/outbox.cif.g08.bks.cpg/sg66_23_cif.got.tgz:44075.got - 2010.06.03 17:51:23.
