data_PCOD9496351
_publ_section_title
;
Structure prediction by ZEFSAII (Michael W. Deem and Ramdas Pophale) SiO2 
 PCOD9496351
Probable space group: C C C M
;
_chemical_formula_sum "Si O2"
_cell_formula_units_Z 116
_cell_length_a 22.939538
_cell_length_b 27.616276
_cell_length_c 9.013855
_cell_angle_alpha 90.000000
_cell_angle_beta 90.000000
_cell_angle_gamma 90.000000
_cell_volume 5710.318721
_symmetry_space_group_name_H-M "C C C M"
_symmetry_group_IT_number 66
_symmetry_cell_setting 'orthorhombic'
loop_
_space_group_symop_operation_xyz
x,y,z
-x,-y,z
x,-y,1/2-z
-x,y,1/2-z
-x,-y,-z
x,y,-z
-x,y,1/2+z
x,-y,1/2+z
1/2+x,1/2+y,z
1/2-x,1/2-y,z
1/2+x,1/2-y,1/2-z
1/2-x,1/2+y,1/2-z
1/2-x,1/2-y,-z
1/2+x,1/2+y,-z
1/2-x,1/2+y,1/2+z
1/2+x,1/2-y,1/2+z
loop_
_atom_site_type_symbol
_atom_site_label
_atom_site_fract_x
_atom_site_fract_y
_atom_site_fract_z
Si Si1 0.939949 0.256198 0.324552
Si Si2 0.119457 0.644918 0.323477
Si Si3 0.000000 0.000000 0.250000
Si Si4 0.263865 0.146844 0.324925
Si Si5 0.230109 0.049193 0.827279
Si Si6 0.868809 0.825955 0.325313
Si Si7 0.935155 0.550901 0.679763
Si Si8 0.903938 0.921037 0.835444
O O1 0.943595 0.251638 0.500000
O O2 0.925482 0.312013 0.290062
O O3 0.892381 0.219621 0.262426
O O4 0.000000 0.241867 0.250000
O O5 0.119817 0.635349 0.500000
O O6 0.181875 0.665114 0.269721
O O7 0.102673 0.596474 0.234650
O O8 0.954337 0.961486 0.178198
O O9 0.275976 0.150129 0.500000
O O10 0.255925 0.092035 0.269881
O O11 0.200330 0.169181 0.296092
O O12 0.159530 0.053940 0.822369
O O13 0.247834 0.000000 0.750000
O O14 0.247362 0.052553 0.000000
O O15 0.877287 0.819424 0.500000
O O16 0.901327 0.875839 0.276701
O O17 0.913609 0.500000 0.750000
O O18 0.937771 0.548328 0.500000
O O19 0.000000 0.557625 0.750000
O O20 0.907968 0.899406 0.000000
#
# Coordination Sequence:
#
# PCOD9496351 Si02
#       8
#    16  16   4  16  16  16  16  16
#     4  11  25  44  68  95 126 163 206 253 310 369
#     4  11  24  42  65  96 129 165 208 258 311 372
#     4  12  22  36  56  90 122 164 212 262 314 372
#     4  10  22  40  62  90 121 160 205 256 312 371
#     4  10  19  35  56  80 113 157 203 252 307 367
#     4  10  23  43  66  90 123 163 209 261 314 373
#     4  11  22  39  64  95 133 174 213 258 309 372
#     4  10  22  37  56  83 119 160 205 257 313 369
#
# _framework density 20.314104
#
# number of rings (size 3 to 8) (size 9 to 14) (size 15 to 20)
#    0.000    1.517    0.690    4.345    0.966    7.724 
#    0.000    5.517    0.000    0.000    0.000    0.000 
#    0.000    0.000    0.000    0.000    0.000    0.000 
#
# Total GULP energy -323903.719425 kJ/mol
# GULP energy per Si atom -5584.546887 kJ/mol
# Density = 2.026787 g / cm^3
# Si number density = 20.314104 Si / 1000 Ang^3
#
#
#
# Elastic Constant Matrix: (Units=GPa)
#
#
# Indices 1 2 3 4 5 6 
#
# 1 47.0211 13.9911 21.5713 0.0000 0.0000 0.0000
# 2 13.9911 80.5502 46.1506 0.0000 0.0000 0.0000
# 3 21.5713 46.1506 75.8300 0.0000 0.0000 0.0000
# 4 0.0000 0.0000 0.0000 28.3902 0.0000 0.0000
# 5 0.0000 0.0000 0.0000 0.0000 25.2915 0.0000
# 6 0.0000 0.0000 0.0000 0.0000 0.0000 -26.3219
#
#
#
# Elastic Compliance Matrix: (Units=1/GPa)
#
#
# Indices 1 2 3 4 5 6 
#
# 1 0.024467 -0.000402 -0.006715 0.000000 0.000000 0.000000
# 2 -0.000402 0.019068 -0.011490 0.000000 0.000000 0.000000
# 3 -0.006715 -0.011490 0.022091 0.000000 0.000000 0.000000
# 4 0.000000 0.000000 0.000000 0.035223 0.000000 0.000000
# 5 0.000000 0.000000 0.000000 0.000000 0.039539 0.000000
# 6 0.000000 0.000000 0.000000 0.000000 0.000000 -0.037991
#
#
# Mechanical properties :
#
#
# Convention : Reuss Voigt Hill
#
# Bulk Modulus (GPa) = 35.19885 40.75856 37.97871
# Shear Modulus (GPa) = 33.53829 13.58452 23.56140
#
# Velocity S-wave (km/s) = 4.06764 2.58877 3.40936
# Velocity P-wave (km/s) = 6.27900 5.38919 5.85104
#
# Compressibility (1/GPa) = 0.02841002
#
# Stress axis : x y z
#
# Youngs Moduli (GPa) = 40.87054 52.44447 45.26773
#
# Poissons Ratio (x) = 0.02110 0.30399
# Poissons Ratio (y) = 0.01644 0.52014
# Poissons Ratio (z) = 0.27446 0.60260
#
# Static dielectric constant tensor:
#      x y z
#    x 1.747710 0.000000 0.000000 
#    y 0.000000 1.644870 0.000000 
#    z 0.000000 0.000000 1.686890 
# 
# From -- ./inp_files/9443.got.cif
#   From: 2010.05.17/outbox.cif.g08.bks.cpg/sg66_5_cif.got.tgz:9443.got - 2010.06.03 17:51:23.
