data_PCOD9496369
_publ_section_title
;
Structure prediction by ZEFSAII (Michael W. Deem and Ramdas Pophale) SiO2 
 PCOD9496369
Probable space group: C C C M
;
_chemical_formula_sum "Si O2"
_cell_formula_units_Z 96
_cell_length_a 19.402508
_cell_length_b 11.396286
_cell_length_c 25.977914
_cell_angle_alpha 90.000000
_cell_angle_beta 90.000000
_cell_angle_gamma 90.000000
_cell_volume 5744.146208
_symmetry_space_group_name_H-M "C C C M"
_symmetry_group_IT_number 66
_symmetry_cell_setting 'orthorhombic'
loop_
_space_group_symop_operation_xyz
x,y,z
-x,-y,z
x,-y,1/2-z
-x,y,1/2-z
-x,-y,-z
x,y,-z
-x,y,1/2+z
x,-y,1/2+z
1/2+x,1/2+y,z
1/2-x,1/2-y,z
1/2+x,1/2-y,1/2-z
1/2-x,1/2+y,1/2-z
1/2-x,1/2-y,-z
1/2+x,1/2+y,-z
1/2-x,1/2+y,1/2+z
1/2+x,1/2-y,1/2+z
loop_
_atom_site_type_symbol
_atom_site_label
_atom_site_fract_x
_atom_site_fract_y
_atom_site_fract_z
Si Si1 0.962992 0.776768 0.194122
Si Si2 0.100972 0.164742 0.560075
Si Si3 0.500000 0.500000 0.874784
Si Si4 0.463851 0.885637 0.111396
Si Si5 0.818730 0.322748 0.279367
Si Si6 0.750000 0.750000 0.396650
Si Si7 0.175057 0.562315 0.830603
O O1 0.974619 0.895554 0.162280
O O2 0.882618 0.753747 0.202269
O O3 0.000000 0.779895 0.250000
O O4 0.993222 0.672059 0.158534
O O5 0.099232 0.136192 0.500000
O O6 0.055262 0.280142 0.573191
O O7 0.179960 0.204712 0.574612
O O8 0.062676 0.059387 0.591875
O O9 0.393551 0.931883 0.136218
O O10 0.500000 0.000000 0.088356
O O11 0.750000 0.250000 0.272839
O O12 0.838551 0.376881 0.224226
O O13 0.804959 0.429819 0.318183
O O14 0.770261 0.640328 0.360878
#
# Coordination Sequence:
#
# PCOD9496369 Si02
#       7
#    16  16   8  16  16   8  16
#     4  11  21  36  55  82 116 152 190 221 270 339
#     4  10  22  40  62  82 106 143 190 245 302 345
#     4  10  24  38  58  84 112 150 188 240 284 336
#     4  10  19  35  58  82 108 140 186 232 278 332
#     4  11  22  32  52  78 117 155 189 218 267 324
#     4  10  21  38  58  84 112 140 192 238 291 338
#     4  10  20  35  51  80 112 152 183 227 264 333
#
# _framework density 16.712667
#
# number of rings (size 3 to 8) (size 9 to 14) (size 15 to 20)
#    0.000    1.667    4.167    0.750    2.333    0.667 
#    3.000    0.000    0.000    0.000    0.000    1.167 
#    0.000    0.000    0.000    0.000    0.000    0.000 
#
# Total GULP energy -267465.225068 kJ/mol
# GULP energy per Si atom -5572.192189 kJ/mol
# Density = 1.667463 g / cm^3
# Si number density = 16.712667 Si / 1000 Ang^3
#
#
#
# Elastic Constant Matrix: (Units=GPa)
#
#
# Indices 1 2 3 4 5 6 
#
# 1 78.9604 21.8840 22.4247 0.0000 0.0000 0.0000
# 2 21.8840 80.1863 20.8950 0.0000 0.0000 0.0000
# 3 22.4247 20.8950 68.5554 0.0000 0.0000 0.0000
# 4 0.0000 0.0000 0.0000 8.7285 0.0000 0.0000
# 5 0.0000 0.0000 0.0000 0.0000 8.2175 0.0000
# 6 0.0000 0.0000 0.0000 0.0000 0.0000 18.8379
#
#
#
# Elastic Compliance Matrix: (Units=1/GPa)
#
#
# Indices 1 2 3 4 5 6 
#
# 1 0.014586 -0.002974 -0.003865 0.000000 0.000000 0.000000
# 2 -0.002974 0.014153 -0.003341 0.000000 0.000000 0.000000
# 3 -0.003865 -0.003341 0.016869 0.000000 0.000000 0.000000
# 4 0.000000 0.000000 0.000000 0.114568 0.000000 0.000000
# 5 0.000000 0.000000 0.000000 0.000000 0.121691 0.000000
# 6 0.000000 0.000000 0.000000 0.000000 0.000000 0.053085
#
#
# Mechanical properties :
#
#
# Convention : Reuss Voigt Hill
#
# Bulk Modulus (GPa) = 39.60469 39.78992 39.69731
# Shear Modulus (GPa) = 13.74654 17.98999 15.86826
#
# Velocity S-wave (km/s) = 2.87108 3.28446 3.08470
# Velocity P-wave (km/s) = 5.89403 6.18413 6.04082
#
# Compressibility (1/GPa) = 0.02524954
#
# Stress axis : x y z
#
# Youngs Moduli (GPa) = 68.55714 70.65571 59.27938
#
# Poissons Ratio (x) = 0.21011 0.22911
# Poissons Ratio (y) = 0.20387 0.19805
# Poissons Ratio (z) = 0.26497 0.23606
#
# Static dielectric constant tensor:
#      x y z
#    x 1.567070 0.000000 0.000000 
#    y 0.000000 1.585390 0.000000 
#    z 0.000000 0.000000 1.544480 
# 
# From -- ./inp_files/58809.got.cif
#   From: 2010.05.17/outbox.cif.g08.bks.cpg/sg66_30_cif.got.tgz:58809.got - 2010.06.03 17:51:23.
