data_PCOD9496659
_publ_section_title
;
Structure prediction by ZEFSAII (Michael W. Deem and Ramdas Pophale) SiO2 
 PCOD9496659
Probable space group: C C C M
;
_chemical_formula_sum "Si O2"
_cell_formula_units_Z 88
_cell_length_a 5.626555
_cell_length_b 31.475473
_cell_length_c 27.375186
_cell_angle_alpha 90.000000
_cell_angle_beta 90.000000
_cell_angle_gamma 90.000000
_cell_volume 4848.103830
_symmetry_space_group_name_H-M "C C C M"
_symmetry_group_IT_number 66
_symmetry_cell_setting 'orthorhombic'
loop_
_space_group_symop_operation_xyz
x,y,z
-x,-y,z
x,-y,1/2-z
-x,y,1/2-z
-x,-y,-z
x,y,-z
-x,y,1/2+z
x,-y,1/2+z
1/2+x,1/2+y,z
1/2-x,1/2-y,z
1/2+x,1/2-y,1/2-z
1/2-x,1/2+y,1/2-z
1/2-x,1/2-y,-z
1/2+x,1/2+y,-z
1/2-x,1/2+y,1/2+z
1/2+x,1/2-y,1/2+z
loop_
_atom_site_type_symbol
_atom_site_label
_atom_site_fract_x
_atom_site_fract_y
_atom_site_fract_z
Si Si1 0.963029 0.673374 0.629841
Si Si2 0.751830 0.017234 0.557292
Si Si3 0.227190 0.381595 0.944174
Si Si4 0.250080 0.801052 0.222410
Si Si5 0.750000 0.750000 0.880301
Si Si6 0.408986 0.693347 0.944666
O O1 0.767973 0.671617 0.672262
O O2 0.841026 0.691778 0.581403
O O3 0.089161 0.633253 0.605050
O O4 0.135779 0.711009 0.648899
O O5 0.751368 0.003460 0.500000
O O6 0.760023 0.068180 0.558394
O O7 0.500000 0.000000 0.577768
O O8 0.000000 0.000000 0.578867
O O9 0.465556 0.353017 0.942750
O O10 0.124285 0.372961 0.000000
O O11 0.500000 0.810790 0.250000
O O12 0.250000 0.750000 0.212162
O O13 0.000000 0.809821 0.250000
O O14 0.568231 0.725281 0.914305
O O15 0.394580 0.706579 0.000000
#
# Coordination Sequence:
#
# PCOD9496659 Si02
#       6
#    16  16  16  16   8  16
#     4  11  22  34  54  73 105 141 186 234 281 327
#     4   9  18  32  52  76 107 148 190 224 262 320
#     4   9  20  34  51  78 111 150 188 227 276 327
#     4  10  23  38  58  77 101 137 185 234 283 332
#     4  10  21  32  48  70  98 142 194 226 265 318
#     4  10  20  32  48  70 105 144 182 223 268 319
#
# _framework density 18.151426000000001
#
# number of rings (size 3 to 8) (size 9 to 14) (size 15 to 20)
#    0.000    2.182    0.000    2.455   11.455    2.909 
#    0.000    0.000    0.000    0.000    0.000    0.000 
#    0.000    0.727    2.182    0.000    0.000    0.000 
#
# Total GULP energy -244953.609408 kJ/mol
# GULP energy per Si atom -5567.127487 kJ/mol
# Density = 1.811011 g / cm^3
# Si number density = 18.151426 Si / 1000 Ang^3
#
#
#
# Elastic Constant Matrix: (Units=GPa)
#
#
# Indices 1 2 3 4 5 6 
#
# 1 84.7194 33.6627 21.4230 0.0000 0.0000 0.0000
# 2 33.6627 72.8562 14.0110 0.0000 0.0000 0.0000
# 3 21.4230 14.0110 69.5880 0.0000 0.0000 0.0000
# 4 0.0000 0.0000 0.0000 12.0696 0.0000 0.0000
# 5 0.0000 0.0000 0.0000 0.0000 26.3902 0.0000
# 6 0.0000 0.0000 0.0000 0.0000 0.0000 13.7785
#
#
#
# Elastic Compliance Matrix: (Units=1/GPa)
#
#
# Indices 1 2 3 4 5 6 
#
# 1 0.015192 -0.006366 -0.003395 0.000000 0.000000 0.000000
# 2 -0.006366 0.016946 -0.001452 0.000000 0.000000 0.000000
# 3 -0.003395 -0.001452 0.015708 0.000000 0.000000 0.000000
# 4 0.000000 0.000000 0.000000 0.082853 0.000000 0.000000
# 5 0.000000 0.000000 0.000000 0.000000 0.037893 0.000000
# 6 0.000000 0.000000 0.000000 0.000000 0.000000 0.072577
#
#
# Mechanical properties :
#
#
# Convention : Reuss Voigt Hill
#
# Bulk Modulus (GPa) = 39.34057 40.59520 39.96788
# Shear Modulus (GPa) = 18.37768 20.98543 19.68156
#
# Velocity S-wave (km/s) = 3.18538 3.40388 3.29644
# Velocity P-wave (km/s) = 5.93712 6.15320 6.04613
#
# Compressibility (1/GPa) = 0.02541905
#
# Stress axis : x y z
#
# Youngs Moduli (GPa) = 65.82490 59.00936 63.66240
#
# Poissons Ratio (x) = 0.37568 0.21614
# Poissons Ratio (y) = 0.41907 0.09245
# Poissons Ratio (z) = 0.22348 0.08569
#
# Static dielectric constant tensor:
#      x y z
#    x 1.717570 0.000000 0.000000 
#    y 0.000000 1.650810 0.000000 
#    z 0.000000 0.000000 1.683560 
# 
# From -- ./inp_files/60416.got.cif
#   From: 2010.05.17/outbox.cif.g08.bks.cpg/sg66_31_cif.got.tgz:60416.got - 2010.06.03 17:51:23.
