data_PCOD9496630
_publ_section_title
;
Structure prediction by ZEFSAII (Michael W. Deem and Ramdas Pophale) SiO2 
 PCOD9496630
Probable space group: C C C M
;
_chemical_formula_sum "Si O2"
_cell_formula_units_Z 68
_cell_length_a 13.693058
_cell_length_b 16.824245
_cell_length_c 11.384279
_cell_angle_alpha 90.000000
_cell_angle_beta 90.000000
_cell_angle_gamma 90.000000
_cell_volume 2622.657402
_symmetry_space_group_name_H-M "C C C M"
_symmetry_group_IT_number 66
_symmetry_cell_setting 'orthorhombic'
loop_
_space_group_symop_operation_xyz
x,y,z
-x,-y,z
x,-y,1/2-z
-x,y,1/2-z
-x,-y,-z
x,y,-z
-x,y,1/2+z
x,-y,1/2+z
1/2+x,1/2+y,z
1/2-x,1/2-y,z
1/2+x,1/2-y,1/2-z
1/2-x,1/2+y,1/2-z
1/2-x,1/2-y,-z
1/2+x,1/2+y,-z
1/2-x,1/2+y,1/2+z
1/2+x,1/2-y,1/2+z
loop_
_atom_site_type_symbol
_atom_site_label
_atom_site_fract_x
_atom_site_fract_y
_atom_site_fract_z
Si Si1 0.500000 0.500000 0.750000
Si Si2 0.375363 0.366112 0.631052
Si Si3 0.850814 0.586923 0.125628
Si Si4 0.332576 0.317786 0.127801
Si Si5 0.642567 0.102400 0.125120
O O1 0.434034 0.445255 0.665692
O O2 0.401605 0.337789 0.500000
O O3 0.388506 0.314174 0.749606
O O4 0.258432 0.380083 0.625175
O O5 0.733778 0.601866 0.129197
O O6 0.870712 0.493186 0.124242
O O7 0.891685 0.624986 0.244424
O O8 0.883962 0.619952 0.000000
O O9 0.250000 0.250000 0.128917
O O10 0.382052 0.315285 0.000000
O O11 0.604225 0.133476 0.000000
#
# Coordination Sequence:
#
# PCOD9496630 Si02
#       5
#     4  16  16  16  16
#     4  12  22  32  48  70  98 128 164 206 250 296
#     4  10  20  31  44  63  87 118 155 196 242 289
#     4   8  12  19  32  49  68  91 122 161 205 253
#     4   9  17  29  44  60  80 110 150 195 240 286
#     4   8  13  22  35  51  72  98 130 168 210 255
#
# _framework density 25.927900000000001
#
# number of rings (size 3 to 8) (size 9 to 14) (size 15 to 20)
#    0.000    3.059    0.000    3.176    0.000    4.235 
#    0.000    0.000    0.000    0.000    0.000    0.000 
#    0.000    0.000    0.000    0.000    0.000   29.412 
#
# Total GULP energy -189522.292121 kJ/mol
# GULP energy per Si atom -5574.185062 kJ/mol
# Density = 2.586889 g / cm^3
# Si number density = 25.927900 Si / 1000 Ang^3
#
#
#
# Elastic Constant Matrix: (Units=GPa)
#
#
# Indices 1 2 3 4 5 6 
#
# 1 106.3840 1.9712 24.6948 0.0000 0.0000 0.0000
# 2 1.9712 63.2264 22.1115 0.0000 0.0000 0.0000
# 3 24.6948 22.1115 414.5021 0.0000 0.0000 0.0000
# 4 0.0000 0.0000 0.0000 8.2138 0.0000 0.0000
# 5 0.0000 0.0000 0.0000 0.0000 -27.5272 0.0000
# 6 0.0000 0.0000 0.0000 0.0000 0.0000 -4.0155
#
#
#
# Elastic Compliance Matrix: (Units=1/GPa)
#
#
# Indices 1 2 3 4 5 6 
#
# 1 0.009532 -0.000100 -0.000563 0.000000 0.000000 0.000000
# 2 -0.000100 0.016118 -0.000854 0.000000 0.000000 0.000000
# 3 -0.000563 -0.000854 0.002492 0.000000 0.000000 0.000000
# 4 0.000000 0.000000 0.000000 0.121747 0.000000 0.000000
# 5 0.000000 0.000000 0.000000 0.000000 -0.036328 0.000000
# 6 0.000000 0.000000 0.000000 0.000000 0.000000 -0.249038
#
#
# Mechanical properties :
#
#
# Convention : Reuss Voigt Hill
#
# Bulk Modulus (GPa) = 39.82763 75.74083 57.78423
# Shear Modulus (GPa) = -40.29867 31.02322 -4.63773
#
# Velocity S-wave (km/s) = -3.94669 3.46283 -1.33887
# Velocity P-wave (km/s) = 2.31823 6.72783 4.46596
#
# Compressibility (1/GPa) = 0.02510820
#
# Stress axis : x y z
#
# Youngs Moduli (GPa) = 104.90590 62.04279 401.34937
#
# Poissons Ratio (x) = 0.00623 0.22578
# Poissons Ratio (y) = 0.01054 0.34268
# Poissons Ratio (z) = 0.05901 0.05297
#
# Static dielectric constant tensor:
#      x y z
#    x 2.037020 0.000000 0.000000 
#    y 0.000000 2.010480 0.000000 
#    z 0.000000 0.000000 2.132690 
# 
# From -- ./inp_files/16138.got.cif
#   From: 2010.05.17/outbox.cif.g08.bks.cpg/sg66_9_cif.got.tgz:16138.got - 2010.06.03 17:51:23.
