data_PCOD9496497
_publ_section_title
;
Structure prediction by ZEFSAII (Michael W. Deem and Ramdas Pophale) SiO2 
 PCOD9496497
Probable space group: C C C M
;
_chemical_formula_sum "Si O2"
_cell_formula_units_Z 112
_cell_length_a 13.315281
_cell_length_b 19.333863
_cell_length_c 25.799250
_cell_angle_alpha 90.000000
_cell_angle_beta 90.000000
_cell_angle_gamma 90.000000
_cell_volume 6641.651045
_symmetry_space_group_name_H-M "C C C M"
_symmetry_group_IT_number 66
_symmetry_cell_setting 'orthorhombic'
loop_
_space_group_symop_operation_xyz
x,y,z
-x,-y,z
x,-y,1/2-z
-x,y,1/2-z
-x,-y,-z
x,y,-z
-x,y,1/2+z
x,-y,1/2+z
1/2+x,1/2+y,z
1/2-x,1/2-y,z
1/2+x,1/2-y,1/2-z
1/2-x,1/2+y,1/2-z
1/2-x,1/2-y,-z
1/2+x,1/2+y,-z
1/2-x,1/2+y,1/2+z
1/2+x,1/2-y,1/2+z
loop_
_atom_site_type_symbol
_atom_site_label
_atom_site_fract_x
_atom_site_fract_y
_atom_site_fract_z
Si Si1 0.140284 0.715119 0.560761
Si Si2 0.485317 0.286664 0.854511
Si Si3 0.143060 0.598544 0.356898
Si Si4 0.717530 0.967115 0.692851
Si Si5 0.579812 0.408388 0.205528
Si Si6 0.553334 0.149561 0.806079
Si Si7 0.203303 0.183015 0.783816
O O1 0.119257 0.708513 0.500000
O O2 0.250000 0.750000 0.567164
O O3 0.147573 0.641136 0.589758
O O4 0.055295 0.761913 0.589578
O O5 0.532175 0.361531 0.840201
O O6 0.555338 0.225711 0.831532
O O7 0.382409 0.287976 0.821638
O O8 0.175544 0.519454 0.350439
O O9 0.216967 0.639889 0.317229
O O10 0.029415 0.606397 0.337845
O O11 0.838408 0.962795 0.685399
O O12 0.655013 0.895228 0.693086
O O13 0.699561 0.000000 0.750000
O O14 0.500000 0.429664 0.250000
O O15 0.650791 0.360696 0.240404
O O16 0.500000 0.156960 0.750000
O O17 0.250000 0.250000 0.758392
#
# Coordination Sequence:
#
# PCOD9496497 Si02
#       7
#    16  16  16  16  16  16  16
#     4  10  19  36  63  85 101 130 180 244 292 311
#     4  10  20  33  51  80 105 137 177 230 275 316
#     4  11  20  33  52  78 116 140 174 225 267 324
#     4  12  23  33  46  73 113 157 186 208 245 334
#     4  10  23  33  48  73 111 154 184 205 262 327
#     4  11  19  30  50  76 108 146 182 215 260 312
#     4  11  16  31  50  76 113 140 170 216 271 312
#
# _framework density 16.863275999999999
#
# number of rings (size 3 to 8) (size 9 to 14) (size 15 to 20)
#    0.000    1.286    7.143    1.714    2.000    0.286 
#    0.000    0.000    0.000    7.714    0.000    6.000 
#    0.000    0.000    0.000    0.000    0.000    0.000 
#
# Total GULP energy -312040.922974 kJ/mol
# GULP energy per Si atom -5572.159339 kJ/mol
# Density = 1.682489 g / cm^3
# Si number density = 16.863276 Si / 1000 Ang^3
#
#
#
# Elastic Constant Matrix: (Units=GPa)
#
#
# Indices 1 2 3 4 5 6 
#
# 1 78.4903 21.8932 22.8856 0.0000 0.0000 0.0000
# 2 21.8932 56.2736 25.5396 0.0000 0.0000 0.0000
# 3 22.8856 25.5396 98.0937 0.0000 0.0000 0.0000
# 4 0.0000 0.0000 0.0000 13.8176 0.0000 0.0000
# 5 0.0000 0.0000 0.0000 0.0000 18.9396 0.0000
# 6 0.0000 0.0000 0.0000 0.0000 0.0000 35.3885
#
#
#
# Elastic Compliance Matrix: (Units=1/GPa)
#
#
# Indices 1 2 3 4 5 6 
#
# 1 0.014698 -0.004720 -0.002200 0.000000 0.000000 0.000000
# 2 -0.004720 0.021667 -0.004540 0.000000 0.000000 0.000000
# 3 -0.002200 -0.004540 0.011890 0.000000 0.000000 0.000000
# 4 0.000000 0.000000 0.000000 0.072371 0.000000 0.000000
# 5 0.000000 0.000000 0.000000 0.000000 0.052800 0.000000
# 6 0.000000 0.000000 0.000000 0.000000 0.000000 0.028258
#
#
# Mechanical properties :
#
#
# Convention : Reuss Voigt Hill
#
# Bulk Modulus (GPa) = 39.47138 41.49936 40.48537
# Shear Modulus (GPa) = 21.45467 24.46508 22.95988
#
# Velocity S-wave (km/s) = 3.57076 3.81306 3.69390
# Velocity P-wave (km/s) = 6.36066 6.63691 6.50025
#
# Compressibility (1/GPa) = 0.02533481
#
# Stress axis : x y z
#
# Youngs Moduli (GPa) = 68.03421 46.15301 84.10621
#
# Poissons Ratio (x) = 0.21783 0.18506
# Poissons Ratio (y) = 0.32111 0.38185
# Poissons Ratio (z) = 0.14970 0.20954
#
# Static dielectric constant tensor:
#      x y z
#    x 1.636330 0.000000 0.000000 
#    y 0.000000 1.666010 0.000000 
#    z 0.000000 0.000000 1.553540 
# 
# From -- ./inp_files/63933.got.cif
#   From: 2010.05.17/outbox.cif.g08.bks.cpg/sg66_32_cif.got.tgz:63933.got - 2010.06.03 17:51:23.
