data_PCOD9496552
_publ_section_title
;
Structure prediction by ZEFSAII (Michael W. Deem and Ramdas Pophale) SiO2 
 PCOD9496552
Probable space group: C C C M
;
_chemical_formula_sum "Si O2"
_cell_formula_units_Z 88
_cell_length_a 23.076778
_cell_length_b 9.054405
_cell_length_c 23.963002
_cell_angle_alpha 90.000000
_cell_angle_beta 90.000000
_cell_angle_gamma 90.000000
_cell_volume 5006.985256
_symmetry_space_group_name_H-M "C C C M"
_symmetry_group_IT_number 66
_symmetry_cell_setting 'orthorhombic'
loop_
_space_group_symop_operation_xyz
x,y,z
-x,-y,z
x,-y,1/2-z
-x,y,1/2-z
-x,-y,-z
x,y,-z
-x,y,1/2+z
x,-y,1/2+z
1/2+x,1/2+y,z
1/2-x,1/2-y,z
1/2+x,1/2-y,1/2-z
1/2-x,1/2+y,1/2-z
1/2-x,1/2-y,-z
1/2+x,1/2+y,-z
1/2-x,1/2+y,1/2+z
1/2+x,1/2-y,1/2+z
loop_
_atom_site_type_symbol
_atom_site_label
_atom_site_fract_x
_atom_site_fract_y
_atom_site_fract_z
Si Si1 0.343892 0.291539 0.562225
Si Si2 0.750000 0.750000 0.151741
Si Si3 0.229550 0.503473 0.062542
Si Si4 0.372940 0.695128 0.293018
Si Si5 0.412023 0.631649 0.172426
Si Si6 0.484254 0.158454 0.815600
O O1 0.369880 0.304719 0.500000
O O2 0.288418 0.400171 0.563585
O O3 0.320721 0.124797 0.569337
O O4 0.382818 0.335052 0.613811
O O5 0.767641 0.615765 0.111065
O O6 0.693363 0.707361 0.187923
O O7 0.224331 0.437908 0.000000
O O8 0.380673 0.707886 0.226056
O O9 0.401824 0.539782 0.312280
O O10 0.415907 0.814140 0.320386
O O11 0.476170 0.701615 0.167366
O O12 0.500000 0.149675 0.750000
O O13 0.500000 0.000000 0.841486
#
# Coordination Sequence:
#
# PCOD9496552 Si02
#       6
#    16   8  16  16  16  16
#     4   9  18  35  56  78 102 146 194 222 268 324
#     4  12  21  34  52  86 123 134 178 232 276 330
#     4   9  19  34  53  75 109 152 188 219 264 330
#     4  10  22  35  52  87 113 151 178 215 285 330
#     4  10  19  38  57  77 113 146 183 229 269 327
#     4   9  19  36  58  80 105 146 189 218 263 333
#
# _framework density 17.575445999999999
#
# number of rings (size 3 to 8) (size 9 to 14) (size 15 to 20)
#    0.000    2.364    1.818    1.909    2.545    3.636 
#    0.000    0.000    0.000    4.909    0.000    0.000 
#    0.000    0.000    0.000    0.000    0.000    0.000 
#
# Total GULP energy -244951.644893 kJ/mol
# GULP energy per Si atom -5567.082838 kJ/mol
# Density = 1.753544 g / cm^3
# Si number density = 17.575446 Si / 1000 Ang^3
#
#
#
# Elastic Constant Matrix: (Units=GPa)
#
#
# Indices 1 2 3 4 5 6 
#
# 1 73.1172 17.2640 29.9508 0.0000 0.0000 0.0000
# 2 17.2640 59.8821 18.1153 0.0000 0.0000 0.0000
# 3 29.9508 18.1153 101.0527 0.0000 0.0000 0.0000
# 4 0.0000 0.0000 0.0000 17.1749 0.0000 0.0000
# 5 0.0000 0.0000 0.0000 0.0000 9.5640 0.0000
# 6 0.0000 0.0000 0.0000 0.0000 0.0000 16.7811
#
#
#
# Elastic Compliance Matrix: (Units=1/GPa)
#
#
# Indices 1 2 3 4 5 6 
#
# 1 0.016196 -0.003402 -0.004191 0.000000 0.000000 0.000000
# 2 -0.003402 0.018371 -0.002285 0.000000 0.000000 0.000000
# 3 -0.004191 -0.002285 0.011548 0.000000 0.000000 0.000000
# 4 0.000000 0.000000 0.000000 0.058224 0.000000 0.000000
# 5 0.000000 0.000000 0.000000 0.000000 0.104559 0.000000
# 6 0.000000 0.000000 0.000000 0.000000 0.000000 0.059591
#
#
# Mechanical properties :
#
#
# Convention : Reuss Voigt Hill
#
# Bulk Modulus (GPa) = 37.93553 40.52356 39.22954
# Shear Modulus (GPa) = 16.83322 19.95212 18.39267
#
# Velocity S-wave (km/s) = 3.09814 3.37297 3.23847
# Velocity P-wave (km/s) = 5.86764 6.18678 6.02932
#
# Compressibility (1/GPa) = 0.02636051
#
# Stress axis : x y z
#
# Youngs Moduli (GPa) = 61.74189 54.43214 86.59864
#
# Poissons Ratio (x) = 0.18516 0.36290
# Poissons Ratio (y) = 0.21003 0.19789
# Poissons Ratio (z) = 0.25874 0.12439
#
# Static dielectric constant tensor:
#      x y z
#    x 1.593520 0.000000 0.000000 
#    y 0.000000 1.648980 0.000000 
#    z 0.000000 0.000000 1.586570 
# 
# From -- ./inp_files/59374.got.cif
#   From: 2010.05.17/outbox.cif.g08.bks.cpg/sg66_30_cif.got.tgz:59374.got - 2010.06.03 17:51:23.
