data_PCOD9496824
_publ_section_title
;
Structure prediction by ZEFSAII (Michael W. Deem and Ramdas Pophale) SiO2 
 PCOD9496824
Probable space group: C C C M
;
_chemical_formula_sum "Si O2"
_cell_formula_units_Z 88
_cell_length_a 28.497761
_cell_length_b 11.843771
_cell_length_c 14.489882
_cell_angle_alpha 90.000000
_cell_angle_beta 90.000000
_cell_angle_gamma 90.000000
_cell_volume 4890.638815
_symmetry_space_group_name_H-M "C C C M"
_symmetry_group_IT_number 66
_symmetry_cell_setting 'orthorhombic'
loop_
_space_group_symop_operation_xyz
x,y,z
-x,-y,z
x,-y,1/2-z
-x,y,1/2-z
-x,-y,-z
x,y,-z
-x,y,1/2+z
x,-y,1/2+z
1/2+x,1/2+y,z
1/2-x,1/2-y,z
1/2+x,1/2-y,1/2-z
1/2-x,1/2+y,1/2-z
1/2-x,1/2-y,-z
1/2+x,1/2+y,-z
1/2-x,1/2+y,1/2+z
1/2+x,1/2-y,1/2+z
loop_
_atom_site_type_symbol
_atom_site_label
_atom_site_fract_x
_atom_site_fract_y
_atom_site_fract_z
Si Si1 0.944049 0.985430 0.107345
Si Si2 0.312122 0.864239 0.000000
Si Si3 0.101091 0.837723 0.751210
Si Si4 0.202294 0.901071 0.000000
Si Si5 0.750000 0.250000 0.301983
Si Si6 0.805617 0.944683 0.165516
Si Si7 0.839023 0.375715 0.205667
O O1 0.919820 0.090377 0.162649
O O2 0.932525 0.871534 0.165466
O O3 0.928861 0.980081 0.000000
O O4 0.000000 0.000000 0.109503
O O5 0.258684 0.908116 0.000000
O O6 0.310544 0.728466 0.000000
O O7 0.335481 0.895919 0.903811
O O8 0.149113 0.893254 0.713866
O O9 0.117335 0.709875 0.772708
O O10 0.183833 0.964821 0.910803
O O11 0.773983 0.157468 0.366584
O O12 0.791485 0.307791 0.239992
O O13 0.777551 0.000000 0.250000
O O14 0.842494 0.500000 0.250000
#
# Coordination Sequence:
#
# PCOD9496824 Si02
#       7
#    16   8  16   8   8  16  16
#     4  10  21  39  66  97 122 143 181 238 303 371
#     4  11  22  34  54  74 102 160 206 250 285 332
#     4  10  21  35  59  88 119 155 184 240 295 355
#     4  11  22  33  52  76 104 150 212 249 288 332
#     4  10  20  34  52  72 114 162 200 246 292 324
#     4  11  20  32  49  75 109 149 194 250 282 335
#     4  11  23  39  54  82 116 159 207 249 292 338
#
# _framework density 17.993559000000001
#
# number of rings (size 3 to 8) (size 9 to 14) (size 15 to 20)
#    0.000    1.455    1.818    7.091    2.545    0.364 
#    1.636    0.909    0.000    2.182    0.000    2.545 
#    0.000    0.000    0.000    0.000    0.000    0.000 
#
# Total GULP energy -245186.963888 kJ/mol
# GULP energy per Si atom -5572.430997 kJ/mol
# Density = 1.795261 g / cm^3
# Si number density = 17.993559 Si / 1000 Ang^3
#
#
#
# Elastic Constant Matrix: (Units=GPa)
#
#
# Indices 1 2 3 4 5 6 
#
# 1 67.7142 43.6296 36.6420 0.0000 0.0000 0.0000
# 2 43.6296 98.5978 57.5402 0.0000 0.0000 0.0000
# 3 36.6420 57.5402 151.9248 0.0000 0.0000 0.0000
# 4 0.0000 0.0000 0.0000 18.2085 0.0000 0.0000
# 5 0.0000 0.0000 0.0000 0.0000 22.7738 0.0000
# 6 0.0000 0.0000 0.0000 0.0000 0.0000 20.6711
#
#
#
# Elastic Compliance Matrix: (Units=1/GPa)
#
#
# Indices 1 2 3 4 5 6 
#
# 1 0.021118 -0.008181 -0.001995 0.000000 0.000000 0.000000
# 2 -0.008181 0.016189 -0.004158 0.000000 0.000000 0.000000
# 3 -0.001995 -0.004158 0.008638 0.000000 0.000000 0.000000
# 4 0.000000 0.000000 0.000000 0.054919 0.000000 0.000000
# 5 0.000000 0.000000 0.000000 0.000000 0.043910 0.000000
# 6 0.000000 0.000000 0.000000 0.000000 0.000000 0.048377
#
#
# Mechanical properties :
#
#
# Convention : Reuss Voigt Hill
#
# Bulk Modulus (GPa) = 57.87867 65.98446 61.93156
# Shear Modulus (GPa) = 21.97036 24.35902 23.16469
#
# Velocity S-wave (km/s) = 3.49809 3.68334 3.59191
# Velocity P-wave (km/s) = 6.96790 7.40541 7.18999
#
# Compressibility (1/GPa) = 0.01727752
#
# Stress axis : x y z
#
# Youngs Moduli (GPa) = 47.35189 61.77070 115.76295
#
# Poissons Ratio (x) = 0.50532 0.23096
# Poissons Ratio (y) = 0.38737 0.48138
# Poissons Ratio (z) = 0.09447 0.25687
#
# Static dielectric constant tensor:
#      x y z
#    x 1.669150 0.000000 0.000000 
#    y 0.000000 1.715950 0.000000 
#    z 0.000000 0.000000 1.638570 
# 
# From -- ./inp_files/33227.got.cif
#   From: 2010.05.17/outbox.cif.g08.bks.cpg/sg66_17_cif.got.tgz:33227.got - 2010.06.03 17:51:23.
