data_PCOD9496790
_publ_section_title
;
Structure prediction by ZEFSAII (Michael W. Deem and Ramdas Pophale) SiO2 
 PCOD9496790
Probable space group: C C C M
;
_chemical_formula_sum "Si O2"
_cell_formula_units_Z 64
_cell_length_a 13.640964
_cell_length_b 12.224398
_cell_length_c 17.335069
_cell_angle_alpha 90.000000
_cell_angle_beta 90.000000
_cell_angle_gamma 90.000000
_cell_volume 2890.667360
_symmetry_space_group_name_H-M "C C C M"
_symmetry_group_IT_number 66
_symmetry_cell_setting 'orthorhombic'
loop_
_space_group_symop_operation_xyz
x,y,z
-x,-y,z
x,-y,1/2-z
-x,y,1/2-z
-x,-y,-z
x,y,-z
-x,y,1/2+z
x,-y,1/2+z
1/2+x,1/2+y,z
1/2-x,1/2-y,z
1/2+x,1/2-y,1/2-z
1/2-x,1/2+y,1/2-z
1/2-x,1/2-y,-z
1/2+x,1/2+y,-z
1/2-x,1/2+y,1/2+z
1/2+x,1/2-y,1/2+z
loop_
_atom_site_type_symbol
_atom_site_label
_atom_site_fract_x
_atom_site_fract_y
_atom_site_fract_z
Si Si1 0.913127 0.251582 0.588531
Si Si2 0.883596 0.483613 0.661787
Si Si3 0.853375 0.279400 0.881559
Si Si4 0.116322 0.124102 0.763214
O O1 0.884959 0.235106 0.500000
O O2 0.872301 0.366637 0.622077
O O3 0.872224 0.162674 0.648726
O O4 0.034138 0.253568 0.591450
O O5 0.851989 0.500000 0.750000
O O6 0.845911 0.589713 0.619045
O O7 0.000000 0.500000 0.663735
O O8 0.750000 0.250000 0.919813
O O9 0.849334 0.214855 0.798754
O O10 0.000000 0.122440 0.750000
O O11 0.150430 0.000000 0.750000
#
# Coordination Sequence:
#
# PCOD9496790 Si02
#       4
#    16  16  16  16
#     4  10  20  36  61  87 114 151 199 250 293 348
#     4   9  16  31  56  84 111 150 204 242 285 352
#     4  10  20  33  55  88 119 154 195 245 298 353
#     4   9  18  36  57  81 107 152 204 236 280 359
#
# _framework density 22.140215999999999
#
# number of rings (size 3 to 8) (size 9 to 14) (size 15 to 20)
#    0.000    2.500    2.500    0.000    0.000    6.000 
#    0.000   10.000    0.000    0.750    0.000    0.000 
#    0.000    0.000    0.000    0.000    0.000    0.000 
#
# Total GULP energy -178256.692615 kJ/mol
# GULP energy per Si atom -5570.521644 kJ/mol
# Density = 2.208982 g / cm^3
# Si number density = 22.140216 Si / 1000 Ang^3
#
#
#
# Elastic Constant Matrix: (Units=GPa)
#
#
# Indices 1 2 3 4 5 6 
#
# 1 114.3220 38.5086 13.8596 0.0000 0.0000 0.0000
# 2 38.5086 162.1177 84.4825 0.0000 0.0000 0.0000
# 3 13.8596 84.4825 192.9809 0.0000 0.0000 0.0000
# 4 0.0000 0.0000 0.0000 24.5622 0.0000 0.0000
# 5 0.0000 0.0000 0.0000 0.0000 -29.6592 0.0000
# 6 0.0000 0.0000 0.0000 0.0000 0.0000 -22.1760
#
#
#
# Elastic Compliance Matrix: (Units=1/GPa)
#
#
# Indices 1 2 3 4 5 6 
#
# 1 0.009531 -0.002471 0.000397 0.000000 0.000000 0.000000
# 2 -0.002471 0.008632 -0.003601 0.000000 0.000000 0.000000
# 3 0.000397 -0.003601 0.006730 0.000000 0.000000 0.000000
# 4 0.000000 0.000000 0.000000 0.040713 0.000000 0.000000
# 5 0.000000 0.000000 0.000000 0.000000 -0.033716 0.000000
# 6 0.000000 0.000000 0.000000 0.000000 0.000000 -0.045094
#
#
# Mechanical properties :
#
#
# Convention : Reuss Voigt Hill
#
# Bulk Modulus (GPa) = 73.83926 82.56911 78.20419
# Shear Modulus (GPa) = 1878.80613 16.71672 947.76142
#
# Velocity S-wave (km/s) = 29.16224 2.75078 20.71236
# Velocity P-wave (km/s) = 34.16634 6.88939 24.64551
#
# Compressibility (1/GPa) = 0.01354293
#
# Stress axis : x y z
#
# Youngs Moduli (GPa) = 104.91619 115.84659 148.58911
#
# Poissons Ratio (x) = 0.28626 -0.05902
# Poissons Ratio (y) = 0.25925 0.53514
# Poissons Ratio (z) = -0.04168 0.41722
#
# Static dielectric constant tensor:
#      x y z
#    x 1.851450 0.000000 0.000000 
#    y 0.000000 1.816810 0.000000 
#    z 0.000000 0.000000 1.834850 
# 
# From -- ./inp_files/39796.got.cif
#   From: 2010.05.17/outbox.cif.g08.bks.cpg/sg66_20_cif.got.tgz:39796.got - 2010.06.03 17:51:23.
