data_PCOD9496134
_publ_section_title
;
Structure prediction by ZEFSAII (Michael W. Deem and Ramdas Pophale) SiO2 
 PCOD9496134
Probable space group: C C C M
;
_chemical_formula_sum "Si O2"
_cell_formula_units_Z 116
_cell_length_a 26.806347
_cell_length_b 9.286747
_cell_length_c 22.196386
_cell_angle_alpha 90.000000
_cell_angle_beta 90.000000
_cell_angle_gamma 90.000000
_cell_volume 5525.651847
_symmetry_space_group_name_H-M "C C C M"
_symmetry_group_IT_number 66
_symmetry_cell_setting 'orthorhombic'
loop_
_space_group_symop_operation_xyz
x,y,z
-x,-y,z
x,-y,1/2-z
-x,y,1/2-z
-x,-y,-z
x,y,-z
-x,y,1/2+z
x,-y,1/2+z
1/2+x,1/2+y,z
1/2-x,1/2-y,z
1/2+x,1/2-y,1/2-z
1/2-x,1/2+y,1/2-z
1/2-x,1/2-y,-z
1/2+x,1/2+y,-z
1/2-x,1/2+y,1/2+z
1/2+x,1/2-y,1/2+z
loop_
_atom_site_type_symbol
_atom_site_label
_atom_site_fract_x
_atom_site_fract_y
_atom_site_fract_z
Si Si1 0.000000 0.000000 0.250000
Si Si2 0.919316 0.104713 0.665335
Si Si3 0.202690 0.668814 0.383580
Si Si4 0.680361 0.652930 0.236529
Si Si5 0.157396 0.413937 0.686996
Si Si6 0.550476 0.919528 0.620599
Si Si7 0.451353 0.396591 0.430406
Si Si8 0.595683 0.821026 0.063490
O O1 0.032696 0.905624 0.293807
O O2 0.874558 0.116939 0.711743
O O3 0.922442 0.240584 0.622500
O O4 0.915061 0.971336 0.618830
O O5 0.250000 0.750000 0.413065
O O6 0.199072 0.761742 0.321817
O O7 0.193293 0.504929 0.358401
O O8 0.155082 0.683944 0.427221
O O9 0.706186 0.500000 0.250000
O O10 0.677650 0.756966 0.294067
O O11 0.155680 0.500000 0.750000
O O12 0.099884 0.407375 0.663309
O O13 0.538046 0.763140 0.593815
O O14 0.500000 0.000000 0.643900
O O15 0.572153 0.021954 0.567988
O O16 0.500000 0.500000 0.428765
O O17 0.433983 0.390999 0.500000
O O18 0.581209 0.751967 0.000000
#
# Coordination Sequence:
#
# PCOD9496134 Si02
#       8
#     4  16  16  16  16  16  16  16
#     4  12  24  36  58  82 124 168 210 242 300 368
#     4  11  22  37  56  82 116 162 203 253 303 364
#     4   9  20  38  59  86 116 151 198 249 316 384
#     4  10  19  33  56  83 117 154 196 247 300 367
#     4   9  20  38  57  83 124 162 202 254 310 378
#     4  11  23  36  55  85 118 162 212 261 319 366
#     4  11  23  38  54  77 110 158 217 265 308 360
#     4  10  22  41  62  87 118 155 206 262 313 367
#
# _framework density 20.992999000000001
#
# number of rings (size 3 to 8) (size 9 to 14) (size 15 to 20)
#    0.000    1.793    1.379    3.310    0.000    4.414 
#    0.000    0.000    0.000    0.000    0.000    0.000 
#    0.000   13.241    0.000    0.000    0.000    6.759 
#
# Total GULP energy -323246.011426 kJ/mol
# GULP energy per Si atom -5573.207094 kJ/mol
# Density = 2.094522 g / cm^3
# Si number density = 20.992999 Si / 1000 Ang^3
#
#
#
# Elastic Constant Matrix: (Units=GPa)
#
#
# Indices 1 2 3 4 5 6 
#
# 1 85.7821 25.4500 3.1396 0.0000 0.0000 0.0000
# 2 25.4500 136.7540 24.2400 0.0000 0.0000 0.0000
# 3 3.1396 24.2400 72.2551 0.0000 0.0000 0.0000
# 4 0.0000 0.0000 0.0000 6.2945 0.0000 0.0000
# 5 0.0000 0.0000 0.0000 0.0000 51.0174 0.0000
# 6 0.0000 0.0000 0.0000 0.0000 0.0000 17.7473
#
#
#
# Elastic Compliance Matrix: (Units=1/GPa)
#
#
# Indices 1 2 3 4 5 6 
#
# 1 0.012343 -0.002341 0.000249 0.000000 0.000000 0.000000
# 2 -0.002341 0.008219 -0.002655 0.000000 0.000000 0.000000
# 3 0.000249 -0.002655 0.014720 0.000000 0.000000 0.000000
# 4 0.000000 0.000000 0.000000 0.158868 0.000000 0.000000
# 5 0.000000 0.000000 0.000000 0.000000 0.019601 0.000000
# 6 0.000000 0.000000 0.000000 0.000000 0.000000 0.056346
#
#
# Mechanical properties :
#
#
# Convention : Reuss Voigt Hill
#
# Bulk Modulus (GPa) = 38.78010 44.49450 41.63730
# Shear Modulus (GPa) = 17.34978 31.14262 24.24620
#
# Velocity S-wave (km/s) = 2.87793 3.85577 3.40217
# Velocity P-wave (km/s) = 5.43657 6.40809 5.94222
#
# Compressibility (1/GPa) = 0.02578642
#
# Stress axis : x y z
#
# Youngs Moduli (GPa) = 81.01817 121.67248 67.93531
#
# Poissons Ratio (x) = 0.28486 -0.01692
# Poissons Ratio (y) = 0.18968 0.18040
# Poissons Ratio (z) = -0.02018 0.32310
#
# Static dielectric constant tensor:
#      x y z
#    x 1.789800 0.000000 0.000000 
#    y 0.000000 1.849210 0.000000 
#    z 0.000000 0.000000 1.735450 
# 
# From -- ./inp_files/60196.got.cif
#   From: 2010.05.17/outbox.cif.g08.bks.cpg/sg66_31_cif.got.tgz:60196.got - 2010.06.03 17:51:23.
