data_PCOD9496344
_publ_section_title
;
Structure prediction by ZEFSAII (Michael W. Deem and Ramdas Pophale) SiO2 
 PCOD9496344
Probable space group: C C C M
;
_chemical_formula_sum "Si O2"
_cell_formula_units_Z 96
_cell_length_a 11.294427
_cell_length_b 16.630318
_cell_length_c 27.751442
_cell_angle_alpha 90.000000
_cell_angle_beta 90.000000
_cell_angle_gamma 90.000000
_cell_volume 5212.550926
_symmetry_space_group_name_H-M "C C C M"
_symmetry_group_IT_number 66
_symmetry_cell_setting 'orthorhombic'
loop_
_space_group_symop_operation_xyz
x,y,z
-x,-y,z
x,-y,1/2-z
-x,y,1/2-z
-x,-y,-z
x,y,-z
-x,y,1/2+z
x,-y,1/2+z
1/2+x,1/2+y,z
1/2-x,1/2-y,z
1/2+x,1/2-y,1/2-z
1/2-x,1/2+y,1/2-z
1/2-x,1/2-y,-z
1/2+x,1/2+y,-z
1/2-x,1/2+y,1/2+z
1/2+x,1/2-y,1/2+z
loop_
_atom_site_type_symbol
_atom_site_label
_atom_site_fract_x
_atom_site_fract_y
_atom_site_fract_z
Si Si1 0.554806 0.230862 0.155890
Si Si2 0.136794 0.977545 0.356029
Si Si3 0.736434 0.635713 0.309180
Si Si4 0.110044 0.167556 0.784294
Si Si5 0.057830 0.269384 0.054561
Si Si6 0.280759 0.387983 0.945638
O O1 0.643803 0.306539 0.162480
O O2 0.630437 0.157020 0.176130
O O3 0.439130 0.253351 0.188127
O O4 0.525797 0.220474 0.100147
O O5 0.134290 0.896356 0.325285
O O6 0.201757 0.955708 0.405679
O O7 0.198529 0.046572 0.324190
O O8 0.000000 0.000000 0.365516
O O9 0.716249 0.662103 0.253771
O O10 0.000000 0.141539 0.750000
O O11 0.159588 0.337306 0.058815
O O12 0.119378 0.181675 0.059470
O O13 0.008639 0.274572 0.000000
O O14 0.287766 0.420266 0.000000
#
# Coordination Sequence:
#
# PCOD9496344 Si02
#       6
#    16  16  16  16  16  16
#     4  10  19  38  54  84 111 145 193 233 284 334
#     4  12  19  34  58  85 111 152 183 231 296 342
#     4  10  22  34  54  83 120 141 185 244 277 341
#     4  10  19  35  55  79 109 151 188 227 285 343
#     4   9  17  36  60  82 113 150 192 241 285 341
#     4   9  19  34  56  89 114 142 191 239 284 343
#
# _framework density 18.417085
#
# number of rings (size 3 to 8) (size 9 to 14) (size 15 to 20)
#    0.000    2.000    5.000    1.500    0.000    0.333 
#   15.000    4.167    0.000    2.000    0.000    0.000 
#    0.000    0.000    0.000    0.000    0.000    0.000 
#
# Total GULP energy -267510.165763 kJ/mol
# GULP energy per Si atom -5573.128453 kJ/mol
# Density = 1.837517 g / cm^3
# Si number density = 18.417085 Si / 1000 Ang^3
#
#
#
# Elastic Constant Matrix: (Units=GPa)
#
#
# Indices 1 2 3 4 5 6 
#
# 1 35.2613 20.2317 46.6524 0.0000 0.0000 0.0000
# 2 20.2317 48.4365 22.9022 0.0000 0.0000 0.0000
# 3 46.6524 22.9022 148.2880 0.0000 0.0000 0.0000
# 4 0.0000 0.0000 0.0000 -0.2721 0.0000 0.0000
# 5 0.0000 0.0000 0.0000 0.0000 22.9413 0.0000
# 6 0.0000 0.0000 0.0000 0.0000 0.0000 19.2088
#
#
#
# Elastic Compliance Matrix: (Units=1/GPa)
#
#
# Indices 1 2 3 4 5 6 
#
# 1 0.059507 -0.017265 -0.016055 0.000000 0.000000 0.000000
# 2 -0.017265 0.027281 0.001218 0.000000 0.000000 0.000000
# 3 -0.016055 0.001218 0.011606 0.000000 0.000000 0.000000
# 4 0.000000 0.000000 0.000000 -3.674737 0.000000 0.000000
# 5 0.000000 0.000000 0.000000 0.000000 0.043589 0.000000
# 6 0.000000 0.000000 0.000000 0.000000 0.000000 0.052059
#
#
# Mechanical properties :
#
#
# Convention : Reuss Voigt Hill
#
# Bulk Modulus (GPa) = 29.24675 45.72871 37.48773
# Shear Modulus (GPa) = -1.46839 17.85557 8.19359
#
# Velocity S-wave (km/s) = -0.89388 3.11708 2.11153
# Velocity P-wave (km/s) = 3.85348 6.15128 5.13262
#
# Compressibility (1/GPa) = 0.03419183
#
# Stress axis : x y z
#
# Youngs Moduli (GPa) = 16.80476 36.65567 86.15879
#
# Poissons Ratio (x) = 0.63284 1.38327
# Poissons Ratio (y) = 0.29013 -0.10496
# Poissons Ratio (z) = 0.26980 -0.04465
#
# Static dielectric constant tensor:
#      x y z
#    x 1.674030 0.000000 0.000000 
#    y 0.000000 1.627650 0.000000 
#    z 0.000000 0.000000 1.644890 
# 
# From -- ./inp_files/63696.got.cif
#   From: 2010.05.17/outbox.cif.g08.bks.cpg/sg66_32_cif.got.tgz:63696.got - 2010.06.03 17:51:23.
