data_PCOD9496955
_publ_section_title
;
Structure prediction by ZEFSAII (Michael W. Deem and Ramdas Pophale) SiO2 
 PCOD9496955
Probable space group: C C C M
;
_chemical_formula_sum "Si O2"
_cell_formula_units_Z 116
_cell_length_a 13.354274
_cell_length_b 25.342114
_cell_length_c 18.174896
_cell_angle_alpha 90.000000
_cell_angle_beta 90.000000
_cell_angle_gamma 90.000000
_cell_volume 6150.848886
_symmetry_space_group_name_H-M "C C C M"
_symmetry_group_IT_number 66
_symmetry_cell_setting 'orthorhombic'
loop_
_space_group_symop_operation_xyz
x,y,z
-x,-y,z
x,-y,1/2-z
-x,y,1/2-z
-x,-y,-z
x,y,-z
-x,y,1/2+z
x,-y,1/2+z
1/2+x,1/2+y,z
1/2-x,1/2-y,z
1/2+x,1/2-y,1/2-z
1/2-x,1/2+y,1/2-z
1/2-x,1/2-y,-z
1/2+x,1/2+y,-z
1/2-x,1/2+y,1/2+z
1/2+x,1/2-y,1/2+z
loop_
_atom_site_type_symbol
_atom_site_label
_atom_site_fract_x
_atom_site_fract_y
_atom_site_fract_z
Si Si1 0.997373 0.911611 0.413714
Si Si2 0.325063 0.537319 0.185261
Si Si3 0.181488 0.339042 0.881341
Si Si4 0.250000 0.750000 0.500000
Si Si5 0.776369 0.048791 0.416022
Si Si6 0.049986 0.191700 0.669443
Si Si7 0.969094 0.312545 0.836072
Si Si8 0.737501 0.150146 0.213735
O O1 0.972139 0.913803 0.500000
O O2 0.914636 0.941522 0.365647
O O3 0.997428 0.851575 0.384488
O O4 0.106527 0.936590 0.403983
O O5 0.364403 0.500000 0.250000
O O6 0.253605 0.499461 0.137679
O O7 0.268097 0.588586 0.215857
O O8 0.224997 0.294928 0.935561
O O9 0.217643 0.397302 0.902655
O O10 0.217504 0.330051 0.796835
O O11 0.060680 0.337304 0.880435
O O12 0.764111 0.032020 0.500000
O O13 0.036438 0.251105 0.642644
O O14 0.167076 0.179773 0.680096
O O15 0.000000 0.185570 0.750000
O O16 0.860635 0.339567 0.835561
O O17 0.000000 0.313797 0.750000
#
# Coordination Sequence:
#
# PCOD9496955 Si02
#       8
#    16  16  16   4  16  16  16  16
#     4  10  23  37  56  88 128 163 198 248 319 394
#     4  11  22  38  63  89 118 162 212 265 312 373
#     4  11  23  39  59  93 127 159 210 252 328 379
#     4  12  28  36  68  96 134 176 194 280 324 410
#     4  11  22  39  59  86 127 165 202 261 325 381
#     4  10  20  34  61  95 120 161 205 255 314 378
#     4   9  21  37  61  85 120 159 201 259 307 373
#     4  10  21  40  63  90 124 159 212 263 312 375
#
# _framework density 18.859186000000001
#
# number of rings (size 3 to 8) (size 9 to 14) (size 15 to 20)
#    0.000    1.655    2.069    2.069    9.655    1.655 
#    0.000    0.690    7.586    4.138    0.000    0.000 
#    0.000    0.000    0.000    0.000    0.000    0.000 
#
# Total GULP energy -323455.053974 kJ/mol
# GULP energy per Si atom -5576.811275 kJ/mol
# Density = 1.881626 g / cm^3
# Si number density = 18.859186 Si / 1000 Ang^3
#
#
#
# Elastic Constant Matrix: (Units=GPa)
#
#
# Indices 1 2 3 4 5 6 
#
# 1 58.9377 40.9048 20.2319 0.0000 0.0000 0.0000
# 2 40.9048 105.9458 42.6738 0.0000 0.0000 0.0000
# 3 20.2319 42.6738 88.1759 0.0000 0.0000 0.0000
# 4 0.0000 0.0000 0.0000 15.6311 0.0000 0.0000
# 5 0.0000 0.0000 0.0000 0.0000 11.8254 0.0000
# 6 0.0000 0.0000 0.0000 0.0000 0.0000 12.3893
#
#
#
# Elastic Compliance Matrix: (Units=1/GPa)
#
#
# Indices 1 2 3 4 5 6 
#
# 1 0.023285 -0.008494 -0.001232 0.000000 0.000000 0.000000
# 2 -0.008494 0.014823 -0.005225 0.000000 0.000000 0.000000
# 3 -0.001232 -0.005225 0.014152 0.000000 0.000000 0.000000
# 4 0.000000 0.000000 0.000000 0.063975 0.000000 0.000000
# 5 0.000000 0.000000 0.000000 0.000000 0.084564 0.000000
# 6 0.000000 0.000000 0.000000 0.000000 0.000000 0.080715
#
#
# Mechanical properties :
#
#
# Convention : Reuss Voigt Hill
#
# Bulk Modulus (GPa) = 44.72531 51.18671 47.95601
# Shear Modulus (GPa) = 15.68048 17.91908 16.79978
#
# Velocity S-wave (km/s) = 2.88662 3.08580 2.98787
# Velocity P-wave (km/s) = 5.90567 6.31638 6.11447
#
# Compressibility (1/GPa) = 0.02235870
#
# Stress axis : x y z
#
# Youngs Moduli (GPa) = 42.94596 67.46417 70.66037
#
# Poissons Ratio (x) = 0.57304 0.08705
# Poissons Ratio (y) = 0.36478 0.36918
# Poissons Ratio (z) = 0.05291 0.35248
#
# Static dielectric constant tensor:
#      x y z
#    x 1.652890 0.000000 0.000000 
#    y 0.000000 1.655600 0.000000 
#    z 0.000000 0.000000 1.666020 
# 
# From -- ./inp_files/39124.got.cif
#   From: 2010.05.17/outbox.cif.g08.bks.cpg/sg66_20_cif.got.tgz:39124.got - 2010.06.03 17:51:23.
