data_PCOD9496367
_publ_section_title
;
Structure prediction by ZEFSAII (Michael W. Deem and Ramdas Pophale) SiO2 
 PCOD9496367
Probable space group: C C C M
;
_chemical_formula_sum "Si O2"
_cell_formula_units_Z 64
_cell_length_a 26.885557
_cell_length_b 8.055808
_cell_length_c 14.441823
_cell_angle_alpha 90.000000
_cell_angle_beta 90.000000
_cell_angle_gamma 90.000000
_cell_volume 3127.880576
_symmetry_space_group_name_H-M "C C C M"
_symmetry_group_IT_number 66
_symmetry_cell_setting 'orthorhombic'
loop_
_space_group_symop_operation_xyz
x,y,z
-x,-y,z
x,-y,1/2-z
-x,y,1/2-z
-x,-y,-z
x,y,-z
-x,y,1/2+z
x,-y,1/2+z
1/2+x,1/2+y,z
1/2-x,1/2-y,z
1/2+x,1/2-y,1/2-z
1/2-x,1/2+y,1/2-z
1/2-x,1/2-y,-z
1/2+x,1/2+y,-z
1/2-x,1/2+y,1/2+z
1/2+x,1/2-y,1/2+z
loop_
_atom_site_type_symbol
_atom_site_label
_atom_site_fract_x
_atom_site_fract_y
_atom_site_fract_z
Si Si1 0.984309 0.187340 0.357535
Si Si2 0.095525 0.289611 0.000000
Si Si3 0.800798 0.553586 0.000000
Si Si4 0.345682 0.322297 0.500000
Si Si5 0.226847 0.935333 0.147942
Si Si6 0.446181 0.159284 0.500000
O O1 0.930015 0.214036 0.406382
O O2 0.000000 0.208314 0.250000
O O3 0.019559 0.312744 0.412076
O O4 0.000000 0.000000 0.381185
O O5 0.155500 0.309866 0.000000
O O6 0.077938 0.480579 0.000000
O O7 0.765171 0.549878 0.089803
O O8 0.824189 0.366586 0.000000
O O9 0.323194 0.414190 0.411330
O O10 0.404002 0.300114 0.500000
O O11 0.250000 0.750000 0.151850
O O12 0.218631 0.000000 0.250000
#
# Coordination Sequence:
#
# PCOD9496367 Si02
#       6
#    16   8   8   8  16   8
#     4  10  21  38  55  78 116 150 178 228 287 337
#     4  10  19  35  58  85 108 145 190 233 277 328
#     4   8  17  35  55  79 114 145 181 229 283 326
#     4   8  17  35  55  77 112 151 177 223 287 340
#     4   9  17  35  56  79 114 148 182 230 281 331
#     4  10  19  35  58  81 108 145 192 230 275 331
#
# _framework density 20.46114
#
# number of rings (size 3 to 8) (size 9 to 14) (size 15 to 20)
#    0.000    2.750    0.000    4.500    0.000    2.000 
#   18.000    5.000    0.000    0.000    0.000    0.000 
#    0.000    0.000    0.000    0.000    0.000    0.000 
#
# Total GULP energy -178400.965083 kJ/mol
# GULP energy per Si atom -5575.030159 kJ/mol
# Density = 2.041457 g / cm^3
# Si number density = 20.461140 Si / 1000 Ang^3
#
#
#
# Elastic Constant Matrix: (Units=GPa)
#
#
# Indices 1 2 3 4 5 6 
#
# 1 112.4487 32.6841 44.8931 0.0000 0.0000 0.0000
# 2 32.6841 79.7196 39.4020 0.0000 0.0000 0.0000
# 3 44.8931 39.4020 152.4886 0.0000 0.0000 0.0000
# 4 0.0000 0.0000 0.0000 -188.6725 0.0000 0.0000
# 5 0.0000 0.0000 0.0000 0.0000 33.8181 0.0000
# 6 0.0000 0.0000 0.0000 0.0000 0.0000 34.6202
#
#
#
# Elastic Compliance Matrix: (Units=1/GPa)
#
#
# Indices 1 2 3 4 5 6 
#
# 1 0.010771 -0.003266 -0.002327 0.000000 0.000000 0.000000
# 2 -0.003266 0.015371 -0.003010 0.000000 0.000000 0.000000
# 3 -0.002327 -0.003010 0.008021 0.000000 0.000000 0.000000
# 4 0.000000 0.000000 0.000000 -0.005300 0.000000 0.000000
# 5 0.000000 0.000000 0.000000 0.000000 0.029570 0.000000
# 6 0.000000 0.000000 0.000000 0.000000 0.000000 0.028885
#
#
# Mechanical properties :
#
#
# Convention : Reuss Voigt Hill
#
# Bulk Modulus (GPa) = 58.97519 64.29058 61.63289
# Shear Modulus (GPa) = 45.38185 -8.86832 18.25676
#
# Velocity S-wave (km/s) = 4.71462 -2.08414 2.99032
# Velocity P-wave (km/s) = 7.65000 5.06927 6.48922
#
# Compressibility (1/GPa) = 0.01695628
#
# Stress axis : x y z
#
# Youngs Moduli (GPa) = 92.83935 65.05860 124.67540
#
# Poissons Ratio (x) = 0.21247 0.29015
# Poissons Ratio (y) = 0.30320 0.37530
# Poissons Ratio (z) = 0.21606 0.19584
#
# Static dielectric constant tensor:
#      x y z
#    x 1.755920 0.000000 0.000000 
#    y 0.000000 1.756640 0.000000 
#    z 0.000000 0.000000 1.726830 
# 
# From -- ./inp_files/33606.got.cif
#   From: 2010.05.17/outbox.cif.g08.bks.cpg/sg66_17_cif.got.tgz:33606.got - 2010.06.03 17:51:23.
