data_PCOD9496894
_publ_section_title
;
Structure prediction by ZEFSAII (Michael W. Deem and Ramdas Pophale) SiO2 
 PCOD9496894
Probable space group: C C C M
;
_chemical_formula_sum "Si O2"
_cell_formula_units_Z 96
_cell_length_a 23.957971
_cell_length_b 11.090757
_cell_length_c 15.151652
_cell_angle_alpha 90.000000
_cell_angle_beta 90.000000
_cell_angle_gamma 90.000000
_cell_volume 4025.976280
_symmetry_space_group_name_H-M "C C C M"
_symmetry_group_IT_number 66
_symmetry_cell_setting 'orthorhombic'
loop_
_space_group_symop_operation_xyz
x,y,z
-x,-y,z
x,-y,1/2-z
-x,y,1/2-z
-x,-y,-z
x,y,-z
-x,y,1/2+z
x,-y,1/2+z
1/2+x,1/2+y,z
1/2-x,1/2-y,z
1/2+x,1/2-y,1/2-z
1/2-x,1/2+y,1/2-z
1/2-x,1/2-y,-z
1/2+x,1/2+y,-z
1/2-x,1/2+y,1/2+z
1/2+x,1/2-y,1/2+z
loop_
_atom_site_type_symbol
_atom_site_label
_atom_site_fract_x
_atom_site_fract_y
_atom_site_fract_z
Si Si1 0.016055 0.167233 0.151949
Si Si2 0.812619 0.267740 0.392587
Si Si3 0.582852 0.094280 0.607186
Si Si4 0.081365 0.667437 0.103638
Si Si5 0.311597 0.291937 0.608619
Si Si6 0.122939 0.030761 0.894803
O O1 0.958612 0.216163 0.109081
O O2 0.942708 0.938970 0.120114
O O3 0.000000 0.137982 0.250000
O O4 0.050854 0.292795 0.148220
O O5 0.810196 0.264348 0.500000
O O6 0.750000 0.250000 0.359942
O O7 0.851373 0.383347 0.373855
O O8 0.846471 0.150848 0.362289
O O9 0.574088 0.107553 0.500000
O O10 0.562763 0.963047 0.637729
O O11 0.142154 0.696948 0.139917
O O12 0.088414 0.645414 0.000000
O O13 0.310477 0.294702 0.500000
O O14 0.250000 0.250000 0.636181
O O15 0.340635 0.417609 0.638039
O O16 0.128016 0.025060 0.000000
#
# Coordination Sequence:
#
# PCOD9496894 Si02
#       6
#    16  16  16  16  16  16
#     4  11  22  36  55  81 112 156 204 252 294 351
#     4   8  14  24  45  76 109 145 181 227 285 348
#     4   9  18  32  52  82 116 149 191 243 302 364
#     4  10  20  34  55  82 116 155 193 241 301 363
#     4   9  19  34  56  87 117 148 190 242 297 356
#     4   9  18  34  55  82 120 155 191 245 305 363
#
# _framework density 23.845147999999998
#
# number of rings (size 3 to 8) (size 9 to 14) (size 15 to 20)
#    0.000    2.667    0.000    3.000    2.333    3.333 
#    0.000    4.167    0.000    4.000    4.333    0.000 
#    0.000    0.000    0.000    0.000    0.000    5.833 
#
# Total GULP energy -267618.783760 kJ/mol
# GULP energy per Si atom -5575.391328 kJ/mol
# Density = 2.379088 g / cm^3
# Si number density = 23.845148 Si / 1000 Ang^3
#
#
#
# Elastic Constant Matrix: (Units=GPa)
#
#
# Indices 1 2 3 4 5 6 
#
# 1 187.6762 65.8918 -1.8158 0.0000 0.0000 0.0000
# 2 65.8918 162.4866 17.6408 0.0000 0.0000 0.0000
# 3 -1.8158 17.6408 30.9035 0.0000 0.0000 0.0000
# 4 0.0000 0.0000 0.0000 10.2952 0.0000 0.0000
# 5 0.0000 0.0000 0.0000 0.0000 61.8526 0.0000
# 6 0.0000 0.0000 0.0000 0.0000 0.0000 16.3448
#
#
#
# Elastic Compliance Matrix: (Units=1/GPa)
#
#
# Indices 1 2 3 4 5 6 
#
# 1 0.006322 -0.002776 0.001956 0.000000 0.000000 0.000000
# 2 -0.002776 0.007780 -0.004604 0.000000 0.000000 0.000000
# 3 0.001956 -0.004604 0.035102 0.000000 0.000000 0.000000
# 4 0.000000 0.000000 0.000000 0.097132 0.000000 0.000000
# 5 0.000000 0.000000 0.000000 0.000000 0.016167 0.000000
# 6 0.000000 0.000000 0.000000 0.000000 0.000000 0.061182
#
#
# Mechanical properties :
#
#
# Convention : Reuss Voigt Hill
#
# Bulk Modulus (GPa) = 26.07181 60.49998 43.28589
# Shear Modulus (GPa) = 20.21683 37.65516 28.93599
#
# Velocity S-wave (km/s) = 2.91492 3.97817 3.48731
# Velocity P-wave (km/s) = 4.72087 6.82116 5.86578
#
# Compressibility (1/GPa) = 0.03835561
#
# Stress axis : x y z
#
# Youngs Moduli (GPa) = 158.18036 128.53543 28.48845
#
# Poissons Ratio (x) = 0.35682 -0.05573
# Poissons Ratio (y) = 0.43911 0.13117
# Poissons Ratio (z) = -0.30942 0.59180
#
# Static dielectric constant tensor:
#      x y z
#    x 1.987420 0.000000 0.000000 
#    y 0.000000 1.883600 0.000000 
#    z 0.000000 0.000000 1.960760 
# 
# From -- ./inp_files/43566.got.cif
#   From: 2010.05.17/outbox.cif.g08.bks.cpg/sg66_22_cif.got.tgz:43566.got - 2010.06.03 17:51:23.
