data_PCOD9496177
_publ_section_title
;
Structure prediction by ZEFSAII (Michael W. Deem and Ramdas Pophale) SiO2 
 PCOD9496177
Probable space group: C C C M
;
_chemical_formula_sum "Si O2"
_cell_formula_units_Z 48
_cell_length_a 13.970353
_cell_length_b 5.364969
_cell_length_c 27.028058
_cell_angle_alpha 90.000000
_cell_angle_beta 90.000000
_cell_angle_gamma 90.000000
_cell_volume 2025.766752
_symmetry_space_group_name_H-M "C C C M"
_symmetry_group_IT_number 66
_symmetry_cell_setting 'orthorhombic'
loop_
_space_group_symop_operation_xyz
x,y,z
-x,-y,z
x,-y,1/2-z
-x,y,1/2-z
-x,-y,-z
x,y,-z
-x,y,1/2+z
x,-y,1/2+z
1/2+x,1/2+y,z
1/2-x,1/2-y,z
1/2+x,1/2-y,1/2-z
1/2-x,1/2+y,1/2-z
1/2-x,1/2-y,-z
1/2+x,1/2+y,-z
1/2-x,1/2+y,1/2+z
1/2+x,1/2-y,1/2+z
loop_
_atom_site_type_symbol
_atom_site_label
_atom_site_fract_x
_atom_site_fract_y
_atom_site_fract_z
Si Si1 0.394488 0.721741 0.848375
Si Si2 0.564153 0.756056 0.000000
Si Si3 0.113321 0.267605 0.889415
Si Si4 0.686351 0.500000 0.750000
O O1 0.502506 0.744502 0.869878
O O2 0.345084 0.502593 0.878833
O O3 0.380337 0.617400 0.793159
O O4 0.352976 0.994258 0.858522
O O5 0.500000 0.500000 0.000000
O O6 0.618576 0.786612 0.948262
O O7 0.500000 0.000000 0.000000
O O8 0.750000 0.750000 0.763503
#
# Coordination Sequence:
#
# PCOD9496177 Si02
#       4
#    16   8  16   8
#     4  10  20  36  55  82 115 145 192 242 294 346
#     4  12  16  30  54  96 132 144 170 210 306 402
#     4  10  19  33  59  94 118 144 173 233 313 356
#     4  12  26  43  58  77 108 166 220 252 282 332
#
# _framework density 23.694731000000001
#
# number of rings (size 3 to 8) (size 9 to 14) (size 15 to 20)
#    0.000    1.333    6.667    2.000    0.000    2.667 
#    0.000    6.667    0.000    0.000    0.000   39.667 
#    0.000    0.000    0.000    0.000    0.000    0.000 
#
# Total GULP energy -133635.226281 kJ/mol
# GULP energy per Si atom -5568.134428 kJ/mol
# Density = 2.364080 g / cm^3
# Si number density = 23.694731 Si / 1000 Ang^3
#
#
#
# Elastic Constant Matrix: (Units=GPa)
#
#
# Indices 1 2 3 4 5 6 
#
# 1 109.0684 3.5783 17.2693 0.0000 0.0000 0.0000
# 2 3.5783 243.4589 49.0943 0.0000 0.0000 0.0000
# 3 17.2693 49.0943 207.4967 0.0000 0.0000 0.0000
# 4 0.0000 0.0000 0.0000 44.6774 0.0000 0.0000
# 5 0.0000 0.0000 0.0000 0.0000 -16.5125 0.0000
# 6 0.0000 0.0000 0.0000 0.0000 0.0000 -5.6445
#
#
#
# Elastic Compliance Matrix: (Units=1/GPa)
#
#
# Indices 1 2 3 4 5 6 
#
# 1 0.009291 0.000020 -0.000778 0.000000 0.000000 0.000000
# 2 0.000020 0.004313 -0.001022 0.000000 0.000000 0.000000
# 3 -0.000778 -0.001022 0.005126 0.000000 0.000000 0.000000
# 4 0.000000 0.000000 0.000000 0.022383 0.000000 0.000000
# 5 0.000000 0.000000 0.000000 0.000000 -0.060560 0.000000
# 6 0.000000 0.000000 0.000000 0.000000 0.000000 -0.177164
#
#
# Mechanical properties :
#
#
# Convention : Reuss Voigt Hill
#
# Bulk Modulus (GPa) = 65.91770 77.76752 71.84261
# Shear Modulus (GPa) = -26.59660 37.17622 5.28981
#
# Velocity S-wave (km/s) = -3.35396 3.96531 1.49577
# Velocity P-wave (km/s) = 3.58904 7.33872 5.77659
#
# Compressibility (1/GPa) = 0.01517043
#
# Stress axis : x y z
#
# Youngs Moduli (GPa) = 107.63000 231.84069 195.08484
#
# Poissons Ratio (x) = -0.00472 0.15179
# Poissons Ratio (y) = -0.00219 0.19942
# Poissons Ratio (z) = 0.08374 0.23700
#
# Static dielectric constant tensor:
#      x y z
#    x 1.820320 0.000000 0.000000 
#    y 0.000000 1.931080 0.000000 
#    z 0.000000 0.000000 2.211580 
# 
# From -- ./inp_files/65409.got.cif
#   From: 2010.05.17/outbox.cif.g08.bks.cpg/sg66_33_cif.got.tgz:65409.got - 2010.06.03 17:51:23.
