data_PCOD9496730
_publ_section_title
;
Structure prediction by ZEFSAII (Michael W. Deem and Ramdas Pophale) SiO2 
 PCOD9496730
Probable space group: C C C M
;
_chemical_formula_sum "Si O2"
_cell_formula_units_Z 96
_cell_length_a 19.323160
_cell_length_b 32.631337
_cell_length_c 8.740544
_cell_angle_alpha 90.000000
_cell_angle_beta 90.000000
_cell_angle_gamma 90.000000
_cell_volume 5511.267385
_symmetry_space_group_name_H-M "C C C M"
_symmetry_group_IT_number 66
_symmetry_cell_setting 'orthorhombic'
loop_
_space_group_symop_operation_xyz
x,y,z
-x,-y,z
x,-y,1/2-z
-x,y,1/2-z
-x,-y,-z
x,y,-z
-x,y,1/2+z
x,-y,1/2+z
1/2+x,1/2+y,z
1/2-x,1/2-y,z
1/2+x,1/2-y,1/2-z
1/2-x,1/2+y,1/2-z
1/2-x,1/2-y,-z
1/2+x,1/2+y,-z
1/2-x,1/2+y,1/2+z
1/2+x,1/2-y,1/2+z
loop_
_atom_site_type_symbol
_atom_site_label
_atom_site_fract_x
_atom_site_fract_y
_atom_site_fract_z
Si Si1 0.832007 0.956181 0.816611
Si Si2 0.577339 0.880526 0.184679
Si Si3 0.422408 0.617036 0.816531
Si Si4 0.077938 0.792251 0.817235
Si Si5 0.670588 0.043565 0.684268
Si Si6 0.421933 0.790233 0.316899
O O1 0.876315 0.918991 0.751220
O O2 0.751159 0.951027 0.772828
O O3 0.855265 0.000000 0.750000
O O4 0.836824 0.957018 0.000000
O O5 0.500000 0.884315 0.250000
O O6 0.624951 0.918029 0.236778
O O7 0.606726 0.835226 0.224340
O O8 0.572974 0.881844 0.000000
O O9 0.500000 0.614147 0.750000
O O10 0.393338 0.662669 0.778702
O O11 0.425850 0.613856 0.000000
O O12 0.111702 0.751078 0.749699
O O13 0.000000 0.793187 0.750000
O O14 0.074377 0.788439 0.000000
O O15 0.667333 0.041765 0.500000
O O16 0.646514 0.000000 0.750000
O O17 0.500000 0.791212 0.250000
O O18 0.424962 0.786738 0.500000
#
# Coordination Sequence:
#
# PCOD9496730 Si02
#       6
#    16  16  16  16  16  16
#     4  10  20  35  54  72  93 124 160 197 238 285
#     4   9  18  31  47  71 100 127 158 198 240 280
#     4  10  20  33  50  74 101 126 156 195 237 280
#     4   9  16  26  42  65  94 124 153 188 229 274
#     4   9  19  35  52  70  94 125 161 198 238 286
#     4   9  15  24  41  64  92 124 156 190 229 275
#
# _framework density 17.418861
#
# number of rings (size 3 to 8) (size 9 to 14) (size 15 to 20)
#    0.000    2.667    0.000    3.000    0.000    4.667 
#    0.000    3.333    0.000    1.000    0.000    7.000 
#    0.000    0.000    0.000    0.000    0.000    0.000 
#
# Total GULP energy -267367.731367 kJ/mol
# GULP energy per Si atom -5570.161070 kJ/mol
# Density = 1.737921 g / cm^3
# Si number density = 17.418861 Si / 1000 Ang^3
#
#
#
# Elastic Constant Matrix: (Units=GPa)
#
#
# Indices 1 2 3 4 5 6 
#
# 1 34.8692 66.1829 18.0143 0.0000 0.0000 0.0000
# 2 66.1829 230.0797 57.2734 0.0000 0.0000 0.0000
# 3 18.0143 57.2734 47.1094 0.0000 0.0000 0.0000
# 4 0.0000 0.0000 0.0000 24.1679 0.0000 0.0000
# 5 0.0000 0.0000 0.0000 0.0000 12.4766 0.0000
# 6 0.0000 0.0000 0.0000 0.0000 0.0000 -12.5730
#
#
#
# Elastic Compliance Matrix: (Units=1/GPa)
#
#
# Indices 1 2 3 4 5 6 
#
# 1 0.063454 -0.017513 -0.002974 0.000000 0.000000 0.000000
# 2 -0.017513 0.011066 -0.006757 0.000000 0.000000 0.000000
# 3 -0.002974 -0.006757 0.030579 0.000000 0.000000 0.000000
# 4 0.000000 0.000000 0.000000 0.041377 0.000000 0.000000
# 5 0.000000 0.000000 0.000000 0.000000 0.080150 0.000000
# 6 0.000000 0.000000 0.000000 0.000000 0.000000 -0.079536
#
#
# Mechanical properties :
#
#
# Convention : Reuss Voigt Hill
#
# Bulk Modulus (GPa) = 19.75766 66.11106 42.93436
# Shear Modulus (GPa) = 22.88888 16.18680 19.53784
#
# Velocity S-wave (km/s) = 3.62889 3.05170 3.35274
# Velocity P-wave (km/s) = 5.37826 7.10305 6.29996
#
# Compressibility (1/GPa) = 0.05061328
#
# Stress axis : x y z
#
# Youngs Moduli (GPa) = 15.75938 90.36908 32.70270
#
# Poissons Ratio (x) = 1.58259 0.09724
# Poissons Ratio (y) = 0.27599 0.22096
# Poissons Ratio (z) = 0.04686 0.61058
#
# Static dielectric constant tensor:
#      x y z
#    x 1.557000 0.000000 0.000000 
#    y 0.000000 1.647200 0.000000 
#    z 0.000000 0.000000 1.585870 
# 
# From -- ./inp_files/8040.got.cif
#   From: 2010.05.17/outbox.cif.g08.bks.cpg/sg66_5_cif.got.tgz:8040.got - 2010.06.03 17:51:23.
