data_PCOD9496160
_publ_section_title
;
Structure prediction by ZEFSAII (Michael W. Deem and Ramdas Pophale) SiO2 
 PCOD9496160
Probable space group: C C C M
;
_chemical_formula_sum "Si O2"
_cell_formula_units_Z 116
_cell_length_a 10.179399
_cell_length_b 24.067841
_cell_length_c 25.068278
_cell_angle_alpha 90.000000
_cell_angle_beta 90.000000
_cell_angle_gamma 90.000000
_cell_volume 6141.631763
_symmetry_space_group_name_H-M "C C C M"
_symmetry_group_IT_number 66
_symmetry_cell_setting 'orthorhombic'
loop_
_space_group_symop_operation_xyz
x,y,z
-x,-y,z
x,-y,1/2-z
-x,y,1/2-z
-x,-y,-z
x,y,-z
-x,y,1/2+z
x,-y,1/2+z
1/2+x,1/2+y,z
1/2-x,1/2-y,z
1/2+x,1/2-y,1/2-z
1/2-x,1/2+y,1/2-z
1/2-x,1/2-y,-z
1/2+x,1/2+y,-z
1/2-x,1/2+y,1/2+z
1/2+x,1/2-y,1/2+z
loop_
_atom_site_type_symbol
_atom_site_label
_atom_site_fract_x
_atom_site_fract_y
_atom_site_fract_z
Si Si1 0.791795 0.393389 0.059589
Si Si2 0.933536 0.192536 0.907913
Si Si3 0.284289 0.949369 0.175828
Si Si4 0.608321 0.457632 0.364565
Si Si5 0.000000 0.500000 0.250000
Si Si6 0.068672 0.867185 0.196873
Si Si7 0.526231 0.190548 0.560854
Si Si8 0.709649 0.635773 0.936918
O O1 0.679126 0.345597 0.065214
O O2 0.790155 0.431499 0.112778
O O3 0.931082 0.362280 0.060906
O O4 0.775574 0.419152 0.000000
O O5 0.915395 0.181051 0.845603
O O6 0.943764 0.257933 0.916721
O O7 0.073858 0.168425 0.927186
O O8 0.412443 0.962895 0.209771
O O9 0.204137 0.899996 0.204057
O O10 0.198457 0.005576 0.173747
O O11 0.500000 0.500000 0.389203
O O12 0.525863 0.412891 0.331036
O O13 0.691967 0.422818 0.406931
O O14 0.000000 0.848093 0.250000
O O15 0.554756 0.207528 0.500000
O O16 0.666520 0.171710 0.584202
O O17 0.728368 0.626977 0.000000
#
# Coordination Sequence:
#
# PCOD9496160 Si02
#       8
#    16  16  16  16   4  16  16  16
#     4  10  21  37  57  83 114 149 187 231 282 342
#     4  10  19  33  58  83 108 145 190 230 272 334
#     4  10  22  36  56  82 108 144 190 230 276 337
#     4   9  19  34  55  80 105 142 183 228 277 327
#     4  12  24  36  56  76 108 152 188 232 280 336
#     4   9  18  36  58  80 105 137 184 238 280 326
#     4  10  20  34  54  80 114 150 180 222 280 337
#     4  10  20  32  52  83 115 144 178 222 273 328
#
# _framework density 18.887488000000001
#
# number of rings (size 3 to 8) (size 9 to 14) (size 15 to 20)
#    0.000    2.207    0.000    3.724    1.931    4.966 
#    0.000    0.345    1.517    4.966    0.000    0.000 
#    0.000    0.000    0.000    0.000    0.000    0.000 
#
# Total GULP energy -323256.624131 kJ/mol
# GULP energy per Si atom -5573.390071 kJ/mol
# Density = 1.884450 g / cm^3
# Si number density = 18.887488 Si / 1000 Ang^3
#
#
#
# Elastic Constant Matrix: (Units=GPa)
#
#
# Indices 1 2 3 4 5 6 
#
# 1 95.1626 6.9064 21.3996 0.0000 0.0000 0.0000
# 2 6.9064 39.3579 9.8702 0.0000 0.0000 0.0000
# 3 21.3996 9.8702 79.4536 0.0000 0.0000 0.0000
# 4 0.0000 0.0000 0.0000 10.2608 0.0000 0.0000
# 5 0.0000 0.0000 0.0000 0.0000 26.6812 0.0000
# 6 0.0000 0.0000 0.0000 0.0000 0.0000 19.1099
#
#
#
# Elastic Compliance Matrix: (Units=1/GPa)
#
#
# Indices 1 2 3 4 5 6 
#
# 1 0.011245 -0.001253 -0.002873 0.000000 0.000000 0.000000
# 2 -0.001253 0.026364 -0.002938 0.000000 0.000000 0.000000
# 3 -0.002873 -0.002938 0.013725 0.000000 0.000000 0.000000
# 4 0.000000 0.000000 0.000000 0.097459 0.000000 0.000000
# 5 0.000000 0.000000 0.000000 0.000000 0.037480 0.000000
# 6 0.000000 0.000000 0.000000 0.000000 0.000000 0.052329
#
#
# Mechanical properties :
#
#
# Convention : Reuss Voigt Hill
#
# Bulk Modulus (GPa) = 26.87649 32.25850 29.56750
# Shear Modulus (GPa) = 18.85856 22.93021 20.89438
#
# Velocity S-wave (km/s) = 3.16328 3.48809 3.32965
# Velocity P-wave (km/s) = 5.25381 5.77397 5.52002
#
# Compressibility (1/GPa) = 0.03720724
#
# Stress axis : x y z
#
# Youngs Moduli (GPa) = 88.92567 37.92988 72.86104
#
# Poissons Ratio (x) = 0.04752 0.20934
# Poissons Ratio (y) = 0.11140 0.21405
# Poissons Ratio (z) = 0.25550 0.11143
#
# Static dielectric constant tensor:
#      x y z
#    x 1.688300 0.000000 0.000000 
#    y 0.000000 1.659990 0.000000 
#    z 0.000000 0.000000 1.680650 
# 
# From -- ./inp_files/55917.got.cif
#   From: 2010.05.17/outbox.cif.g08.bks.cpg/sg66_28_cif.got.tgz:55917.got - 2010.06.03 17:51:23.
