data_PCOD9496274
_publ_section_title
;
Structure prediction by ZEFSAII (Michael W. Deem and Ramdas Pophale) SiO2 
 PCOD9496274
Probable space group: C C C M
;
_chemical_formula_sum "Si O2"
_cell_formula_units_Z 116
_cell_length_a 13.272219
_cell_length_b 23.969330
_cell_length_c 14.600011
_cell_angle_alpha 90.000000
_cell_angle_beta 90.000000
_cell_angle_gamma 90.000000
_cell_volume 4644.645976
_symmetry_space_group_name_H-M "C C C M"
_symmetry_group_IT_number 66
_symmetry_cell_setting 'orthorhombic'
loop_
_space_group_symop_operation_xyz
x,y,z
-x,-y,z
x,-y,1/2-z
-x,y,1/2-z
-x,-y,-z
x,y,-z
-x,y,1/2+z
x,-y,1/2+z
1/2+x,1/2+y,z
1/2-x,1/2-y,z
1/2+x,1/2-y,1/2-z
1/2-x,1/2+y,1/2-z
1/2-x,1/2-y,-z
1/2+x,1/2+y,-z
1/2-x,1/2+y,1/2+z
1/2+x,1/2-y,1/2+z
loop_
_atom_site_type_symbol
_atom_site_label
_atom_site_fract_x
_atom_site_fract_y
_atom_site_fract_z
Si Si1 0.914951 0.364650 0.108359
Si Si2 0.505303 0.372024 0.610574
Si Si3 0.778586 0.693190 0.847818
Si Si4 0.250000 0.250000 0.500000
Si Si5 0.078464 0.452171 0.111754
Si Si6 0.207418 0.157070 0.342019
Si Si7 0.208758 0.074785 0.102817
Si Si8 0.525807 0.241358 0.608985
O O1 0.809664 0.379490 0.153881
O O2 0.014622 0.397264 0.137902
O O3 0.928118 0.297774 0.116177
O O4 0.904085 0.376458 0.000000
O O5 0.505675 0.375273 0.500000
O O6 0.392152 0.380111 0.645850
O O7 0.596955 0.412140 0.642265
O O8 0.522228 0.306147 0.633374
O O9 0.750000 0.750000 0.898151
O O10 0.715692 0.686960 0.755337
O O11 0.755826 0.637452 0.901969
O O12 0.894368 0.707236 0.831586
O O13 0.213492 0.203572 0.421203
O O14 0.193998 0.456240 0.145861
O O15 0.000000 0.500000 0.137782
O O16 0.087207 0.452457 0.000000
O O17 0.192875 0.052348 0.000000
O O18 0.549869 0.237855 0.500000
#
# Coordination Sequence:
#
# PCOD9496274 Si02
#       8
#    16  16  16   4  16  16  16  16
#     4  10  19  34  58  79 109 156 199 248 302 367
#     4  10  20  34  55  75 111 163 207 240 284 363
#     4  12  23  34  48  83 117 154 200 252 295 350
#     4  12  20  40  52  68 114 162 218 240 284 356
#     4   9  18  35  62  92 114 141 191 254 318 371
#     4  12  24  36  52  77 115 162 207 249 295 363
#     4  10  20  37  57  81 114 154 194 242 306 364
#     4  10  20  33  54  77 112 157 202 249 297 355
#
# _framework density 24.974993000000001
#
# number of rings (size 3 to 8) (size 9 to 14) (size 15 to 20)
#    0.000    1.517    4.828    1.241    1.931    1.655 
#    0.000    0.000    0.000    2.483    0.000    4.828 
#    0.000    2.207    0.000    0.138    0.000    0.000 
#
# Total GULP energy -323193.856097 kJ/mol
# GULP energy per Si atom -5572.307864 kJ/mol
# Density = 2.491815 g / cm^3
# Si number density = 24.974993 Si / 1000 Ang^3
#
#
#
# Elastic Constant Matrix: (Units=GPa)
#
#
# Indices 1 2 3 4 5 6 
#
# 1 228.7821 18.1895 15.7485 0.0000 0.0000 0.0000
# 2 18.1895 33.2475 0.7639 0.0000 0.0000 0.0000
# 3 15.7485 0.7639 103.1456 0.0000 0.0000 0.0000
# 4 0.0000 0.0000 0.0000 5.4009 0.0000 0.0000
# 5 0.0000 0.0000 0.0000 0.0000 19.1396 0.0000
# 6 0.0000 0.0000 0.0000 0.0000 0.0000 38.0980
#
#
#
# Elastic Compliance Matrix: (Units=1/GPa)
#
#
# Indices 1 2 3 4 5 6 
#
# 1 0.004618 -0.002511 -0.000686 0.000000 0.000000 0.000000
# 2 -0.002511 0.031448 0.000150 0.000000 0.000000 0.000000
# 3 -0.000686 0.000150 0.009799 0.000000 0.000000 0.000000
# 4 0.000000 0.000000 0.000000 0.185154 0.000000 0.000000
# 5 0.000000 0.000000 0.000000 0.000000 0.052248 0.000000
# 6 0.000000 0.000000 0.000000 0.000000 0.000000 0.026248
#
#
# Mechanical properties :
#
#
# Convention : Reuss Voigt Hill
#
# Bulk Modulus (GPa) = 25.14410 48.28655 36.71533
# Shear Modulus (GPa) = 15.20383 34.55924 24.88154
#
# Velocity S-wave (km/s) = 2.46999 3.72392 3.15978
# Velocity P-wave (km/s) = 4.26896 6.15354 5.29576
#
# Compressibility (1/GPa) = 0.03977076
#
# Stress axis : x y z
#
# Youngs Moduli (GPa) = 216.55178 31.79900 102.05405
#
# Poissons Ratio (x) = 0.07983 0.07006
# Poissons Ratio (y) = 0.54368 -0.01535
# Poissons Ratio (z) = 0.14866 -0.00478
#
# Static dielectric constant tensor:
#      x y z
#    x 2.188810 0.000000 0.000000 
#    y 0.000000 2.017220 0.000000 
#    z 0.000000 0.000000 1.972520 
# 
# From -- ./inp_files/39228.got.cif
#   From: 2010.05.17/outbox.cif.g08.bks.cpg/sg66_20_cif.got.tgz:39228.got - 2010.06.03 17:51:23.
