data_PCOD9496968
_publ_section_title
;
Structure prediction by ZEFSAII (Michael W. Deem and Ramdas Pophale) SiO2 
 PCOD9496968
Probable space group: C C C M
;
_chemical_formula_sum "Si O2"
_cell_formula_units_Z 116
_cell_length_a 9.363453
_cell_length_b 28.637005
_cell_length_c 24.101466
_cell_angle_alpha 90.000000
_cell_angle_beta 90.000000
_cell_angle_gamma 90.000000
_cell_volume 6462.597229
_symmetry_space_group_name_H-M "C C C M"
_symmetry_group_IT_number 66
_symmetry_cell_setting 'orthorhombic'
loop_
_space_group_symop_operation_xyz
x,y,z
-x,-y,z
x,-y,1/2-z
-x,y,1/2-z
-x,-y,-z
x,y,-z
-x,y,1/2+z
x,-y,1/2+z
1/2+x,1/2+y,z
1/2-x,1/2-y,z
1/2+x,1/2-y,1/2-z
1/2-x,1/2+y,1/2-z
1/2-x,1/2-y,-z
1/2+x,1/2+y,-z
1/2-x,1/2+y,1/2+z
1/2+x,1/2-y,1/2+z
loop_
_atom_site_type_symbol
_atom_site_label
_atom_site_fract_x
_atom_site_fract_y
_atom_site_fract_z
Si Si1 0.936507 0.206811 0.164998
Si Si2 0.500000 0.500000 0.750000
Si Si3 0.237267 0.566571 0.256238
Si Si4 0.873681 0.712140 0.135730
Si Si5 0.787134 0.194720 0.939938
Si Si6 0.979987 0.447410 0.156433
Si Si7 0.499993 0.866310 0.064282
Si Si8 0.290711 0.674071 0.733518
O O1 0.887879 0.180818 0.110177
O O2 0.814457 0.203023 0.210821
O O3 0.984182 0.257855 0.145271
O O4 0.072983 0.183905 0.194420
O O5 0.621563 0.463294 0.727759
O O6 0.158564 0.553430 0.197804
O O7 0.279671 0.620357 0.251728
O O8 0.115178 0.562080 0.303080
O O9 0.750000 0.750000 0.121410
O O10 0.839191 0.690691 0.195870
O O11 0.889580 0.670792 0.091661
O O12 0.750000 0.250000 0.935634
O O13 0.646200 0.163440 0.937532
O O14 0.856614 0.188310 0.000000
O O15 0.980238 0.409374 0.107082
O O16 0.000000 0.500000 0.134556
O O17 0.534729 0.878881 0.000000
#
# Coordination Sequence:
#
# PCOD9496968 Si02
#       8
#    16   4  16  16  16  16  16  16
#     4  10  20  35  52  80 121 157 192 237 295 344
#     4  12  20  34  64 100 114 154 188 236 312 392
#     4  11  21  38  63  90 125 155 192 246 312 379
#     4  10  21  38  53  84 123 162 201 246 290 359
#     4  10  20  35  56  81 111 154 208 250 287 344
#     4  11  22  43  63  91 122 156 202 260 317 364
#     4  11  23  40  64  88 112 162 217 254 299 353
#     4  10  21  37  52  86 121 159 195 234 299 363
#
# _framework density 17.949439999999999
#
# number of rings (size 3 to 8) (size 9 to 14) (size 15 to 20)
#    0.000    1.517    4.138    2.069    0.000    3.310 
#   12.414    2.069    0.000    0.000    0.000    0.966 
#    0.000    0.000    0.000    0.000    0.000    0.000 
#
# Total GULP energy -323148.458812 kJ/mol
# GULP energy per Si atom -5571.525152 kJ/mol
# Density = 1.790859 g / cm^3
# Si number density = 17.949440 Si / 1000 Ang^3
#
#
#
# Elastic Constant Matrix: (Units=GPa)
#
#
# Indices 1 2 3 4 5 6 
#
# 1 50.5387 22.2835 41.1402 0.0000 0.0000 0.0000
# 2 22.2835 120.6118 47.9803 0.0000 0.0000 0.0000
# 3 41.1402 47.9803 141.6623 0.0000 0.0000 0.0000
# 4 0.0000 0.0000 0.0000 25.9899 0.0000 0.0000
# 5 0.0000 0.0000 0.0000 0.0000 22.4214 0.0000
# 6 0.0000 0.0000 0.0000 0.0000 0.0000 24.6280
#
#
#
# Elastic Compliance Matrix: (Units=1/GPa)
#
#
# Indices 1 2 3 4 5 6 
#
# 1 0.026369 -0.002110 -0.006943 0.000000 0.000000 0.000000
# 2 -0.002110 0.009751 -0.002690 0.000000 0.000000 0.000000
# 3 -0.006943 -0.002690 0.009987 0.000000 0.000000 0.000000
# 4 0.000000 0.000000 0.000000 0.038477 0.000000 0.000000
# 5 0.000000 0.000000 0.000000 0.000000 0.044600 0.000000
# 6 0.000000 0.000000 0.000000 0.000000 0.000000 0.040604
#
#
# Mechanical properties :
#
#
# Convention : Reuss Voigt Hill
#
# Bulk Modulus (GPa) = 44.20730 59.51342 51.86036
# Shear Modulus (GPa) = 24.89872 28.03511 26.46691
#
# Velocity S-wave (km/s) = 3.72850 3.95637 3.84412
# Velocity P-wave (km/s) = 6.57403 7.35517 6.97554
#
# Compressibility (1/GPa) = 0.02262070
#
# Stress axis : x y z
#
# Youngs Moduli (GPa) = 37.92315 102.55463 100.13504
#
# Poissons Ratio (x) = 0.21636 0.69527
# Poissons Ratio (y) = 0.08001 0.26935
# Poissons Ratio (z) = 0.26331 0.27586
#
# Static dielectric constant tensor:
#      x y z
#    x 1.665570 0.000000 0.000000 
#    y 0.000000 1.627120 0.000000 
#    z 0.000000 0.000000 1.629400 
# 
# From -- ./inp_files/55999.got.cif
#   From: 2010.05.17/outbox.cif.g08.bks.cpg/sg66_28_cif.got.tgz:55999.got - 2010.06.03 17:51:23.
