data_PCOD9496149
_publ_section_title
;
Structure prediction by ZEFSAII (Michael W. Deem and Ramdas Pophale) SiO2 
 PCOD9496149
Probable space group: C C C M
;
_chemical_formula_sum "Si O2"
_cell_formula_units_Z 116
_cell_length_a 26.873803
_cell_length_b 13.269006
_cell_length_c 14.771773
_cell_angle_alpha 90.000000
_cell_angle_beta 90.000000
_cell_angle_gamma 90.000000
_cell_volume 5267.446640
_symmetry_space_group_name_H-M "C C C M"
_symmetry_group_IT_number 66
_symmetry_cell_setting 'orthorhombic'
loop_
_space_group_symop_operation_xyz
x,y,z
-x,-y,z
x,-y,1/2-z
-x,y,1/2-z
-x,-y,-z
x,y,-z
-x,y,1/2+z
x,-y,1/2+z
1/2+x,1/2+y,z
1/2-x,1/2-y,z
1/2+x,1/2-y,1/2-z
1/2-x,1/2+y,1/2-z
1/2-x,1/2-y,-z
1/2+x,1/2+y,-z
1/2-x,1/2+y,1/2+z
1/2+x,1/2-y,1/2+z
loop_
_atom_site_type_symbol
_atom_site_label
_atom_site_fract_x
_atom_site_fract_y
_atom_site_fract_z
Si Si1 0.862930 0.538152 0.610863
Si Si2 0.527199 0.101641 0.890599
Si Si3 0.995241 0.826342 0.647426
Si Si4 0.305672 0.229545 0.610859
Si Si5 0.848302 0.685996 0.898795
Si Si6 0.384234 0.396218 0.606913
Si Si7 0.603116 0.382812 0.396592
Si Si8 0.250000 0.250000 0.000000
O O1 0.861282 0.534415 0.500000
O O2 0.915627 0.586866 0.636078
O O3 0.821868 0.618188 0.639556
O O4 0.855627 0.423899 0.643421
O O5 0.503275 0.205032 0.857547
O O6 0.500000 0.000000 0.861754
O O7 0.525330 0.106923 0.000000
O O8 0.940981 0.858344 0.614040
O O9 0.000000 0.860394 0.750000
O O10 0.043550 0.872735 0.600316
O O11 0.306433 0.230762 0.500000
O O12 0.250000 0.250000 0.641081
O O13 0.345045 0.314182 0.641703
O O14 0.874785 0.781479 0.852833
O O15 0.873397 0.677071 0.000000
O O16 0.791213 0.712937 0.922426
O O17 0.373772 0.404585 0.500000
O O18 0.381818 0.509956 0.644263
O O19 0.622936 0.382429 0.500000
#
# Coordination Sequence:
#
# PCOD9496149 Si02
#       8
#    16  16  16  16  16  16  16   4
#     4   9  15  27  47  72 108 140 175 220 269 330
#     4  10  19  33  57  81 110 149 188 227 275 338
#     4  12  24  36  53  79 116 151 188 236 285 339
#     4   9  17  29  48  80 111 143 178 227 283 337
#     4   8  16  29  47  78 108 143 175 218 279 330
#     4  10  20  36  55  79 113 145 187 235 282 335
#     4  10  20  35  55  78 108 147 189 229 281 346
#     4   8  16  28  48  80 122 140 172 230 282 342
#
# _framework density 22.022054000000001
#
# number of rings (size 3 to 8) (size 9 to 14) (size 15 to 20)
#    0.414    1.931    1.379    2.483    0.000    5.793 
#    2.483    0.000    0.000    0.000    1.793    0.000 
#    4.138    0.000    0.000    0.000    0.000    0.000 
#
# Total GULP energy -323123.826487 kJ/mol
# GULP energy per Si atom -5571.100457 kJ/mol
# Density = 2.197193 g / cm^3
# Si number density = 22.022054 Si / 1000 Ang^3
#
#
#
# Elastic Constant Matrix: (Units=GPa)
#
#
# Indices 1 2 3 4 5 6 
#
# 1 72.4180 33.9017 3.2956 0.0000 0.0000 0.0000
# 2 33.9017 163.4816 6.9903 0.0000 0.0000 0.0000
# 3 3.2956 6.9903 48.1535 0.0000 0.0000 0.0000
# 4 0.0000 0.0000 0.0000 -15.5835 0.0000 0.0000
# 5 0.0000 0.0000 0.0000 0.0000 -24.2780 0.0000
# 6 0.0000 0.0000 0.0000 0.0000 0.0000 26.8958
#
#
#
# Elastic Compliance Matrix: (Units=1/GPa)
#
#
# Indices 1 2 3 4 5 6 
#
# 1 0.015310 -0.003150 -0.000591 0.000000 0.000000 0.000000
# 2 -0.003150 0.006803 -0.000772 0.000000 0.000000 0.000000
# 3 -0.000591 -0.000772 0.020919 0.000000 0.000000 0.000000
# 4 0.000000 0.000000 0.000000 -0.064171 0.000000 0.000000
# 5 0.000000 0.000000 0.000000 0.000000 -0.041190 0.000000
# 6 0.000000 0.000000 0.000000 0.000000 0.000000 0.037181
#
#
# Mechanical properties :
#
#
# Convention : Reuss Voigt Hill
#
# Bulk Modulus (GPa) = 29.40481 41.38092 35.39286
# Shear Modulus (GPa) = -1044.57337 13.39791 -515.58773
#
# Velocity S-wave (km/s) = -21.80276 2.46922 -15.31769
# Velocity P-wave (km/s) = 24.90848 5.19239 17.22602
#
# Compressibility (1/GPa) = 0.03400805
#
# Stress axis : x y z
#
# Youngs Moduli (GPa) = 65.31653 146.99276 47.80250
#
# Poissons Ratio (x) = 0.46297 0.02823
# Poissons Ratio (y) = 0.20572 0.03690
# Poissons Ratio (z) = 0.03857 0.11348
#
# Static dielectric constant tensor:
#      x y z
#    x 1.779030 0.000000 0.000000 
#    y 0.000000 1.835850 0.000000 
#    z 0.000000 0.000000 1.846160 
# 
# From -- ./inp_files/44781.got.cif
#   From: 2010.05.17/outbox.cif.g08.bks.cpg/sg66_23_cif.got.tgz:44781.got - 2010.06.03 17:51:23.
