data_PCOD9496408
_publ_section_title
;
Structure prediction by ZEFSAII (Michael W. Deem and Ramdas Pophale) SiO2 
 PCOD9496408
Probable space group: C C C M
;
_chemical_formula_sum "Si O2"
_cell_formula_units_Z 112
_cell_length_a 14.205453
_cell_length_b 12.874407
_cell_length_c 31.301344
_cell_angle_alpha 90.000000
_cell_angle_beta 90.000000
_cell_angle_gamma 90.000000
_cell_volume 5724.602125
_symmetry_space_group_name_H-M "C C C M"
_symmetry_group_IT_number 66
_symmetry_cell_setting 'orthorhombic'
loop_
_space_group_symop_operation_xyz
x,y,z
-x,-y,z
x,-y,1/2-z
-x,y,1/2-z
-x,-y,-z
x,y,-z
-x,y,1/2+z
x,-y,1/2+z
1/2+x,1/2+y,z
1/2-x,1/2-y,z
1/2+x,1/2-y,1/2-z
1/2-x,1/2+y,1/2-z
1/2-x,1/2-y,-z
1/2+x,1/2+y,-z
1/2-x,1/2+y,1/2+z
1/2+x,1/2-y,1/2+z
loop_
_atom_site_type_symbol
_atom_site_label
_atom_site_fract_x
_atom_site_fract_y
_atom_site_fract_z
Si Si1 0.916622 0.576945 0.571806
Si Si2 0.073992 0.413336 0.675347
Si Si3 0.523739 0.321809 0.201031
Si Si4 0.929620 0.098118 0.620705
Si Si5 0.774735 0.133213 0.176005
Si Si6 0.209226 0.946906 0.916298
Si Si7 0.454140 0.690865 0.047063
O O1 0.927161 0.588835 0.623458
O O2 0.811171 0.535914 0.563796
O O3 0.921578 0.690628 0.551359
O O4 0.000000 0.500000 0.557601
O O5 0.045418 0.299307 0.691556
O O6 0.183148 0.433828 0.688288
O O7 0.000000 0.500000 0.689764
O O8 0.500000 0.336692 0.250000
O O9 0.442851 0.354925 0.167605
O O10 0.619569 0.386726 0.191412
O O11 0.971475 0.173747 0.584899
O O12 0.831408 0.051974 0.604865
O O13 0.000000 0.000000 0.619539
O O14 0.750000 0.250000 0.189692
O O15 0.780050 0.128897 0.124637
O O16 0.132143 0.889588 0.945452
O O17 0.494022 0.671500 0.000000
#
# Coordination Sequence:
#
# PCOD9496408 Si02
#       7
#    16  16  16  16  16  16  16
#     4  10  20  37  63  86 114 159 198 238 296 347
#     4   9  18  35  64  83 114 159 202 240 289 349
#     4  11  20  34  62  85 117 156 194 245 298 356
#     4  10  20  37  57  85 121 152 194 240 298 349
#     4   9  16  33  59  82 114 152 195 238 294 339
#     4  10  19  35  61  86 114 155 196 244 284 343
#     4  11  21  36  61  90 119 152 195 245 292 349
#
# _framework density 19.564679000000002
#
# number of rings (size 3 to 8) (size 9 to 14) (size 15 to 20)
#    0.000    2.000    4.286    2.143    0.000    4.571 
#    0.000    0.714   37.714    0.857    0.000    0.000 
#    0.000    0.000    0.000    0.000    0.000    0.000 
#
# Total GULP energy -312175.425377 kJ/mol
# GULP energy per Si atom -5574.561167 kJ/mol
# Density = 1.952015 g / cm^3
# Si number density = 19.564679 Si / 1000 Ang^3
#
#
#
# Elastic Constant Matrix: (Units=GPa)
#
#
# Indices 1 2 3 4 5 6 
#
# 1 79.9746 47.4152 22.3234 0.0000 0.0000 0.0000
# 2 47.4152 57.0808 22.6366 0.0000 0.0000 0.0000
# 3 22.3234 22.6366 83.6422 0.0000 0.0000 0.0000
# 4 0.0000 0.0000 0.0000 -12.7355 0.0000 0.0000
# 5 0.0000 0.0000 0.0000 0.0000 3.8590 0.0000
# 6 0.0000 0.0000 0.0000 0.0000 0.0000 29.6508
#
#
#
# Elastic Compliance Matrix: (Units=1/GPa)
#
#
# Indices 1 2 3 4 5 6 
#
# 1 0.024739 -0.020087 -0.001166 0.000000 0.000000 0.000000
# 2 -0.020087 0.035936 -0.004364 0.000000 0.000000 0.000000
# 3 -0.001166 -0.004364 0.013448 0.000000 0.000000 0.000000
# 4 0.000000 0.000000 0.000000 -0.078521 0.000000 0.000000
# 5 0.000000 0.000000 0.000000 0.000000 0.259136 0.000000
# 6 0.000000 0.000000 0.000000 0.000000 0.000000 0.033726
#
#
# Mechanical properties :
#
#
# Convention : Reuss Voigt Hill
#
# Bulk Modulus (GPa) = 43.69321 45.04976 44.37148
# Shear Modulus (GPa) = 14.39561 12.70969 13.55265
#
# Velocity S-wave (km/s) = 2.71550 2.55154 2.63479
# Velocity P-wave (km/s) = 5.67566 5.63529 5.65551
#
# Compressibility (1/GPa) = 0.02288685
#
# Stress axis : x y z
#
# Youngs Moduli (GPa) = 40.42226 27.82746 74.35993
#
# Poissons Ratio (x) = 0.55898 0.08672
# Poissons Ratio (y) = 0.81197 0.32453
# Poissons Ratio (z) = 0.04714 0.12145
#
# Static dielectric constant tensor:
#      x y z
#    x 1.743090 0.000000 0.000000 
#    y 0.000000 1.696190 0.000000 
#    z 0.000000 0.000000 1.691040 
# 
# From -- ./inp_files/69545.got.cif
#   From: 2010.05.17/outbox.cif.g08.bks.cpg/sg66_35_cif.got.tgz:69545.got - 2010.06.03 17:51:23.
