data_PCOD9496544
_publ_section_title
;
Structure prediction by ZEFSAII (Michael W. Deem and Ramdas Pophale) SiO2 
 PCOD9496544
Probable space group: C C C M
;
_chemical_formula_sum "Si O2"
_cell_formula_units_Z 80
_cell_length_a 21.622825
_cell_length_b 11.422370
_cell_length_c 15.087443
_cell_angle_alpha 90.000000
_cell_angle_beta 90.000000
_cell_angle_gamma 90.000000
_cell_volume 3726.355628
_symmetry_space_group_name_H-M "C C C M"
_symmetry_group_IT_number 66
_symmetry_cell_setting 'orthorhombic'
loop_
_space_group_symop_operation_xyz
x,y,z
-x,-y,z
x,-y,1/2-z
-x,y,1/2-z
-x,-y,-z
x,y,-z
-x,y,1/2+z
x,-y,1/2+z
1/2+x,1/2+y,z
1/2-x,1/2-y,z
1/2+x,1/2-y,1/2-z
1/2-x,1/2+y,1/2-z
1/2-x,1/2-y,-z
1/2+x,1/2+y,-z
1/2-x,1/2+y,1/2+z
1/2+x,1/2-y,1/2+z
loop_
_atom_site_type_symbol
_atom_site_label
_atom_site_fract_x
_atom_site_fract_y
_atom_site_fract_z
Si Si1 0.392282 0.778589 0.597876
Si Si2 0.464329 0.797822 0.099210
Si Si3 0.102452 0.130053 0.726818
Si Si4 0.763181 0.121109 0.806061
Si Si5 0.141934 0.476444 0.355293
O O1 0.385863 0.724226 0.500000
O O2 0.463127 0.824236 0.607301
O O3 0.380970 0.694065 0.680591
O O4 0.351809 0.895477 0.603726
O O5 0.446844 0.704052 0.173192
O O6 0.417825 0.906112 0.111849
O O7 0.454949 0.750628 0.000000
O O8 0.165096 0.126820 0.667703
O O9 0.082115 0.000000 0.750000
O O10 0.750000 0.250000 0.764373
O O11 0.704210 0.099307 0.869188
O O12 0.761861 0.000000 0.750000
O O13 0.133063 0.500000 0.250000
#
# Coordination Sequence:
#
# PCOD9496544 Si02
#       5
#    16  16  16  16  16
#     4  11  24  41  64  97 133 170 219 275 329 398
#     4  11  23  39  62  96 133 169 216 273 334 399
#     4  11  23  41  65  92 129 178 224 269 333 392
#     4  10  19  37  65  93 124 171 219 274 326 395
#     4  11  20  37  66  94 126 167 217 269 341 392
#
# _framework density 21.468698
#
# number of rings (size 3 to 8) (size 9 to 14) (size 15 to 20)
#    0.000    1.200    4.000    3.000    0.000    4.800 
#    0.000    5.000    0.000   33.000    0.000    0.000 
#    0.000    0.000    0.000    0.000    0.000    0.000 
#
# Total GULP energy -223099.505005 kJ/mol
# GULP energy per Si atom -5577.487625 kJ/mol
# Density = 2.141983 g / cm^3
# Si number density = 21.468698 Si / 1000 Ang^3
#
#
#
# Elastic Constant Matrix: (Units=GPa)
#
#
# Indices 1 2 3 4 5 6 
#
# 1 68.0826 11.8805 7.6234 0.0000 0.0000 0.0000
# 2 11.8805 133.7771 35.8068 0.0000 0.0000 0.0000
# 3 7.6234 35.8068 90.7522 0.0000 0.0000 0.0000
# 4 0.0000 0.0000 0.0000 -6.5144 0.0000 0.0000
# 5 0.0000 0.0000 0.0000 0.0000 5.4652 0.0000
# 6 0.0000 0.0000 0.0000 0.0000 0.0000 28.4441
#
#
#
# Elastic Compliance Matrix: (Units=1/GPa)
#
#
# Indices 1 2 3 4 5 6 
#
# 1 0.014974 -0.001110 -0.000820 0.000000 0.000000 0.000000
# 2 -0.001110 0.008440 -0.003237 0.000000 0.000000 0.000000
# 3 -0.000820 -0.003237 0.012365 0.000000 0.000000 0.000000
# 4 0.000000 0.000000 0.000000 -0.153506 0.000000 0.000000
# 5 0.000000 0.000000 0.000000 0.000000 0.182976 0.000000
# 6 0.000000 0.000000 0.000000 0.000000 0.000000 0.035157
#
#
# Mechanical properties :
#
#
# Convention : Reuss Voigt Hill
#
# Bulk Modulus (GPa) = 39.30067 44.80371 42.05219
# Shear Modulus (GPa) = 41.93904 21.29906 31.61905
#
# Velocity S-wave (km/s) = 4.42463 3.15318 3.84187
# Velocity P-wave (km/s) = 6.66700 5.84562 6.26978
#
# Compressibility (1/GPa) = 0.02544486
#
# Stress axis : x y z
#
# Youngs Moduli (GPa) = 66.78428 118.48200 80.87359
#
# Poissons Ratio (x) = 0.13156 0.06629
# Poissons Ratio (y) = 0.07416 0.26177
# Poissons Ratio (z) = 0.05474 0.38350
#
# Static dielectric constant tensor:
#      x y z
#    x 1.835280 0.000000 0.000000 
#    y 0.000000 1.792430 0.000000 
#    z 0.000000 0.000000 1.824520 
# 
# From -- ./inp_files/26363.got.cif
#   From: 2010.05.17/outbox.cif.g08.bks.cpg/sg66_14_cif.got.tgz:26363.got - 2010.06.03 17:51:23.
