data_PCOD9496927
_publ_section_title
;
Structure prediction by ZEFSAII (Michael W. Deem and Ramdas Pophale) SiO2 
 PCOD9496927
Probable space group: C C C M
;
_chemical_formula_sum "Si O2"
_cell_formula_units_Z 80
_cell_length_a 12.619413
_cell_length_b 17.907258
_cell_length_c 13.608491
_cell_angle_alpha 90.000000
_cell_angle_beta 90.000000
_cell_angle_gamma 90.000000
_cell_volume 3075.234336
_symmetry_space_group_name_H-M "C C C M"
_symmetry_group_IT_number 66
_symmetry_cell_setting 'orthorhombic'
loop_
_space_group_symop_operation_xyz
x,y,z
-x,-y,z
x,-y,1/2-z
-x,y,1/2-z
-x,-y,-z
x,y,-z
-x,y,1/2+z
x,-y,1/2+z
1/2+x,1/2+y,z
1/2-x,1/2-y,z
1/2+x,1/2-y,1/2-z
1/2-x,1/2+y,1/2-z
1/2-x,1/2-y,-z
1/2+x,1/2+y,-z
1/2-x,1/2+y,1/2+z
1/2+x,1/2-y,1/2+z
loop_
_atom_site_type_symbol
_atom_site_label
_atom_site_fract_x
_atom_site_fract_y
_atom_site_fract_z
Si Si1 0.866437 0.631878 0.389406
Si Si2 0.594178 0.906285 0.112985
Si Si3 0.821367 0.904798 0.814558
Si Si4 0.113569 0.255664 0.787983
Si Si5 0.859293 0.053387 0.103196
O O1 0.885543 0.662233 0.500000
O O2 0.848343 0.696892 0.308787
O O3 0.763213 0.581069 0.398153
O O4 0.969848 0.581822 0.362454
O O5 0.695958 0.927775 0.178604
O O6 0.595909 0.816304 0.127418
O O7 0.612858 0.928601 0.000000
O O8 0.826449 0.816306 0.828685
O O9 0.882208 0.917844 0.711982
O O10 0.870660 0.964034 0.889474
O O11 0.000000 0.228704 0.750000
O O12 0.905774 0.081185 0.000000
#
# Coordination Sequence:
#
# PCOD9496927 Si02
#       5
#    16  16  16  16  16
#     4   9  19  37  59  86 121 159 199 246 300 363
#     4  10  20  34  57  89 122 157 199 243 298 362
#     4  11  22  36  58  86 116 157 200 250 299 356
#     4  10  21  38  58  85 119 156 202 250 304 355
#     4  10  22  38  56  83 120 159 199 243 298 362
#
# _framework density 26.014277
#
# number of rings (size 3 to 8) (size 9 to 14) (size 15 to 20)
#    0.000    2.000    2.000    1.200    0.000    4.000 
#    0.000    9.000    0.000    1.200    0.000    0.000 
#    0.000    0.000    0.000    0.000    0.000    0.000 
#
# Total GULP energy -222995.833006 kJ/mol
# GULP energy per Si atom -5574.895825 kJ/mol
# Density = 2.595507 g / cm^3
# Si number density = 26.014277 Si / 1000 Ang^3
#
#
#
# Elastic Constant Matrix: (Units=GPa)
#
#
# Indices 1 2 3 4 5 6 
#
# 1 97.1988 -2.0930 14.1842 0.0000 0.0000 0.0000
# 2 -2.0930 104.2288 10.6501 0.0000 0.0000 0.0000
# 3 14.1842 10.6501 123.9162 0.0000 0.0000 0.0000
# 4 0.0000 0.0000 0.0000 -1.9815 0.0000 0.0000
# 5 0.0000 0.0000 0.0000 0.0000 18.2702 0.0000
# 6 0.0000 0.0000 0.0000 0.0000 0.0000 24.0498
#
#
#
# Elastic Compliance Matrix: (Units=1/GPa)
#
#
# Indices 1 2 3 4 5 6 
#
# 1 0.010475 0.000336 -0.001228 0.000000 0.000000 0.000000
# 2 0.000336 0.009690 -0.000871 0.000000 0.000000 0.000000
# 3 -0.001228 -0.000871 0.008285 0.000000 0.000000 0.000000
# 4 0.000000 0.000000 0.000000 -0.504657 0.000000 0.000000
# 5 0.000000 0.000000 0.000000 0.000000 0.054734 0.000000
# 6 0.000000 0.000000 0.000000 0.000000 0.000000 0.041580
#
#
# Mechanical properties :
#
#
# Convention : Reuss Voigt Hill
#
# Bulk Modulus (GPa) = 40.12288 41.20293 40.66291
# Shear Modulus (GPa) = -13.58483 28.24118 7.32818
#
# Velocity S-wave (km/s) = -2.28766 3.29842 1.68021
# Velocity P-wave (km/s) = 2.91188 5.51172 4.40784
#
# Compressibility (1/GPa) = 0.02492344
#
# Stress axis : x y z
#
# Youngs Moduli (GPa) = 95.46904 103.19870 120.69431
#
# Poissons Ratio (x) = -0.03465 0.14819
# Poissons Ratio (y) = -0.03206 0.10516
# Poissons Ratio (z) = 0.11722 0.08991
#
# Static dielectric constant tensor:
#      x y z
#    x 2.200700 0.000000 0.000000 
#    y 0.000000 2.034290 0.000000 
#    z 0.000000 0.000000 2.102470 
# 
# From -- ./inp_files/29973.got.cif
#   From: 2010.05.17/outbox.cif.g08.bks.cpg/sg66_15_cif.got.tgz:29973.got - 2010.06.03 17:51:23.
