data_PCOD9496982
_publ_section_title
;
Structure prediction by ZEFSAII (Michael W. Deem and Ramdas Pophale) SiO2 
 PCOD9496982
Probable space group: C C C M
;
_chemical_formula_sum "Si O2"
_cell_formula_units_Z 116
_cell_length_a 27.816208
_cell_length_b 27.233981
_cell_length_c 8.247922
_cell_angle_alpha 90.000000
_cell_angle_beta 90.000000
_cell_angle_gamma 90.000000
_cell_volume 6248.180981
_symmetry_space_group_name_H-M "C C C M"
_symmetry_group_IT_number 66
_symmetry_cell_setting 'orthorhombic'
loop_
_space_group_symop_operation_xyz
x,y,z
-x,-y,z
x,-y,1/2-z
-x,y,1/2-z
-x,-y,-z
x,y,-z
-x,y,1/2+z
x,-y,1/2+z
1/2+x,1/2+y,z
1/2-x,1/2-y,z
1/2+x,1/2-y,1/2-z
1/2-x,1/2+y,1/2-z
1/2-x,1/2-y,-z
1/2+x,1/2+y,-z
1/2-x,1/2+y,1/2+z
1/2+x,1/2-y,1/2+z
loop_
_atom_site_type_symbol
_atom_site_label
_atom_site_fract_x
_atom_site_fract_y
_atom_site_fract_z
Si Si1 0.948717 0.209000 0.694090
Si Si2 0.424576 0.817837 0.188187
Si Si3 0.252284 0.362503 0.693807
Si Si4 0.070600 0.577171 0.687771
Si Si5 0.847908 0.174812 0.688897
Si Si6 0.681890 0.779915 0.690977
Si Si7 0.322236 0.055074 0.304415
Si Si8 0.000000 0.500000 0.250000
O O1 0.946546 0.209949 0.500000
O O2 0.943919 0.265306 0.753908
O O3 0.902244 0.178875 0.756191
O O4 0.000000 0.189381 0.750000
O O5 0.440821 0.865644 0.284943
O O6 0.366591 0.812409 0.200622
O O7 0.436849 0.824744 0.000000
O O8 0.248035 0.361156 0.500000
O O9 0.308166 0.360816 0.736453
O O10 0.225723 0.312785 0.751938
O O11 0.220172 0.408203 0.749459
O O12 0.060865 0.563196 0.500000
O O13 0.126572 0.569710 0.728131
O O14 0.039511 0.541235 0.802276
O O15 0.850889 0.163626 0.500000
O O16 0.827971 0.230032 0.715147
O O17 0.688927 0.767257 0.500000
O O18 0.326823 0.057751 0.500000
O O19 0.311275 0.000000 0.250000
#
# Coordination Sequence:
#
# PCOD9496982 Si02
#       8
#    16  16  16  16  16  16  16   4
#     4  10  21  37  54  77 108 143 182 220 262 312
#     4  10  20  36  56  76 102 135 176 223 272 325
#     4  10  20  35  54  77 106 141 175 212 264 329
#     4  12  25  41  59  76  99 133 178 231 286 337
#     4  10  21  33  49  79 111 137 175 222 260 311
#     4   9  17  32  51  73 103 141 173 208 260 322
#     4  11  23  41  61  82 106 136 179 225 276 332
#     4  12  30  44  56  74 102 136 182 236 296 332
#
# _framework density 18.565404000000001
#
# number of rings (size 3 to 8) (size 9 to 14) (size 15 to 20)
#    0.000    1.655    2.069    2.690    0.966    7.172 
#    0.000    0.000    0.000    0.000    0.000    0.000 
#    0.000    0.552    0.000    6.069    0.000    4.414 
#
# Total GULP energy -323653.159996 kJ/mol
# GULP energy per Si atom -5580.226896 kJ/mol
# Density = 1.852315 g / cm^3
# Si number density = 18.565404 Si / 1000 Ang^3
#
#
#
# Elastic Constant Matrix: (Units=GPa)
#
#
# Indices 1 2 3 4 5 6 
#
# 1 151.4763 42.4989 14.3981 0.0000 0.0000 0.0000
# 2 42.4989 45.1720 4.4668 0.0000 0.0000 0.0000
# 3 14.3981 4.4668 41.9811 0.0000 0.0000 0.0000
# 4 0.0000 0.0000 0.0000 13.5091 0.0000 0.0000
# 5 0.0000 0.0000 0.0000 0.0000 19.8957 0.0000
# 6 0.0000 0.0000 0.0000 0.0000 0.0000 29.5925
#
#
#
# Elastic Compliance Matrix: (Units=1/GPa)
#
#
# Indices 1 2 3 4 5 6 
#
# 1 0.009175 -0.008410 -0.002252 0.000000 0.000000 0.000000
# 2 -0.008410 0.030081 -0.000316 0.000000 0.000000 0.000000
# 3 -0.002252 -0.000316 0.024626 0.000000 0.000000 0.000000
# 4 0.000000 0.000000 0.000000 0.074024 0.000000 0.000000
# 5 0.000000 0.000000 0.000000 0.000000 0.050262 0.000000
# 6 0.000000 0.000000 0.000000 0.000000 0.000000 0.033792
#
#
# Mechanical properties :
#
#
# Convention : Reuss Voigt Hill
#
# Bulk Modulus (GPa) = 23.85135 40.15077 32.00106
# Shear Modulus (GPa) = 19.38794 24.41717 21.90256
#
# Velocity S-wave (km/s) = 3.23508 3.63050 3.43848
# Velocity P-wave (km/s) = 5.17971 6.26479 5.74791
#
# Compressibility (1/GPa) = 0.04192635
#
# Stress axis : x y z
#
# Youngs Moduli (GPa) = 108.98982 33.24384 40.60703
#
# Poissons Ratio (x) = 0.27957 0.09145
# Poissons Ratio (y) = 0.91655 0.01285
# Poissons Ratio (z) = 0.24544 0.01052
#
# Static dielectric constant tensor:
#      x y z
#    x 1.692080 0.000000 0.000000 
#    y 0.000000 1.621320 0.000000 
#    z 0.000000 0.000000 1.679700 
# 
# From -- ./inp_files/10633.got.cif
#   From: 2010.05.17/outbox.cif.g08.bks.cpg/sg66_6_cif.got.tgz:10633.got - 2010.06.03 17:51:23.
