data_PCOD9496043
_publ_section_title
;
Structure prediction by ZEFSAII (Michael W. Deem and Ramdas Pophale) SiO2 
 PCOD9496043
Probable space group: C C C M
;
_chemical_formula_sum "Si O2"
_cell_formula_units_Z 72
_cell_length_a 8.231915
_cell_length_b 25.914389
_cell_length_c 15.296894
_cell_angle_alpha 90.000000
_cell_angle_beta 90.000000
_cell_angle_gamma 90.000000
_cell_volume 3263.210640
_symmetry_space_group_name_H-M "C C C M"
_symmetry_group_IT_number 66
_symmetry_cell_setting 'orthorhombic'
loop_
_space_group_symop_operation_xyz
x,y,z
-x,-y,z
x,-y,1/2-z
-x,y,1/2-z
-x,-y,-z
x,y,-z
-x,y,1/2+z
x,-y,1/2+z
1/2+x,1/2+y,z
1/2-x,1/2-y,z
1/2+x,1/2-y,1/2-z
1/2-x,1/2+y,1/2-z
1/2-x,1/2-y,-z
1/2+x,1/2+y,-z
1/2-x,1/2+y,1/2+z
1/2+x,1/2-y,1/2+z
loop_
_atom_site_type_symbol
_atom_site_label
_atom_site_fract_x
_atom_site_fract_y
_atom_site_fract_z
Si Si1 0.174371 0.694481 0.899644
Si Si2 0.605103 0.419584 0.500000
Si Si3 0.000000 0.360017 0.250000
Si Si4 0.529165 0.375967 0.155693
Si Si5 0.282369 0.050193 0.692184
Si Si6 0.240326 0.529648 0.000000
O O1 0.250000 0.750000 0.876950
O O2 0.035103 0.675593 0.833582
O O3 0.325532 0.654972 0.890781
O O4 0.118818 0.695345 0.000000
O O5 0.613878 0.384754 0.413159
O O6 0.418394 0.442277 0.500000
O O7 0.721968 0.468587 0.500000
O O8 0.854027 0.401290 0.244981
O O9 0.500000 0.350754 0.250000
O O10 0.597442 0.433165 0.177107
O O11 0.345592 0.044128 0.592005
O O12 0.304961 0.000000 0.750000
#
# Coordination Sequence:
#
# PCOD9496043 Si02
#       6
#    16   8   8  16  16   8
#     4  10  22  42  66  89 116 159 206 260 321 372
#     4   9  16  30  49  88 116 157 193 247 293 358
#     4  10  23  38  64  88 118 158 207 248 292 384
#     4  10  19  32  59  87 122 156 201 253 303 366
#     4  10  20  36  53  87 122 166 202 240 298 362
#     4   9  18  30  55  78 124 160 199 233 297 360
#
# _framework density 22.064159
#
# number of rings (size 3 to 8) (size 9 to 14) (size 15 to 20)
#    0.000    2.222    1.111    1.667    6.222    2.222 
#    2.000    1.111    7.333    0.667    0.000    0.000 
#    0.000    0.000    0.000    0.000    0.000    0.000 
#
# Total GULP energy -200606.567999 kJ/mol
# GULP energy per Si atom -5572.404667 kJ/mol
# Density = 2.201394 g / cm^3
# Si number density = 22.064159 Si / 1000 Ang^3
#
#
#
# Elastic Constant Matrix: (Units=GPa)
#
#
# Indices 1 2 3 4 5 6 
#
# 1 16.9643 13.4519 44.2318 0.0000 0.0000 0.0000
# 2 13.4519 116.0136 65.8590 0.0000 0.0000 0.0000
# 3 44.2318 65.8590 191.2060 0.0000 0.0000 0.0000
# 4 0.0000 0.0000 0.0000 30.1045 0.0000 0.0000
# 5 0.0000 0.0000 0.0000 0.0000 32.5211 0.0000
# 6 0.0000 0.0000 0.0000 0.0000 0.0000 26.5211
#
#
#
# Elastic Compliance Matrix: (Units=1/GPa)
#
#
# Indices 1 2 3 4 5 6 
#
# 1 0.149297 0.002853 -0.035520 0.000000 0.000000 0.000000
# 2 0.002853 0.010769 -0.004369 0.000000 0.000000 0.000000
# 3 -0.035520 -0.004369 0.014952 0.000000 0.000000 0.000000
# 4 0.000000 0.000000 0.000000 0.033218 0.000000 0.000000
# 5 0.000000 0.000000 0.000000 0.000000 0.030749 0.000000
# 6 0.000000 0.000000 0.000000 0.000000 0.000000 0.037706
#
#
# Mechanical properties :
#
#
# Convention : Reuss Voigt Hill
#
# Bulk Modulus (GPa) = 9.90633 63.47438 36.69036
# Shear Modulus (GPa) = 13.00690 31.20542 22.10616
#
# Velocity S-wave (km/s) = 2.43060 3.76480 3.16872
# Velocity P-wave (km/s) = 3.51804 6.90861 5.48204
#
# Compressibility (1/GPa) = 0.10094558
#
# Stress axis : x y z
#
# Youngs Moduli (GPa) = 6.69806 92.85681 66.88221
#
# Poissons Ratio (x) = -0.26489 2.37562
# Poissons Ratio (y) = -0.01911 0.29223
# Poissons Ratio (z) = 0.23791 0.40572
#
# Static dielectric constant tensor:
#      x y z
#    x 1.895500 0.000000 0.000000 
#    y 0.000000 1.814780 0.000000 
#    z 0.000000 0.000000 1.961190 
# 
# From -- ./inp_files/24552.got.cif
#   From: 2010.05.17/outbox.cif.g08.bks.cpg/sg66_13_cif.got.tgz:24552.got - 2010.06.03 17:51:23.
