data_PCOD9496127
_publ_section_title
;
Structure prediction by ZEFSAII (Michael W. Deem and Ramdas Pophale) SiO2 
 PCOD9496127
Probable space group: C C C M
;
_chemical_formula_sum "Si O2"
_cell_formula_units_Z 96
_cell_length_a 7.303797
_cell_length_b 23.709597
_cell_length_c 25.161996
_cell_angle_alpha 90.000000
_cell_angle_beta 90.000000
_cell_angle_gamma 90.000000
_cell_volume 4357.304947
_symmetry_space_group_name_H-M "C C C M"
_symmetry_group_IT_number 66
_symmetry_cell_setting 'orthorhombic'
loop_
_space_group_symop_operation_xyz
x,y,z
-x,-y,z
x,-y,1/2-z
-x,y,1/2-z
-x,-y,-z
x,y,-z
-x,y,1/2+z
x,-y,1/2+z
1/2+x,1/2+y,z
1/2-x,1/2-y,z
1/2+x,1/2-y,1/2-z
1/2-x,1/2+y,1/2-z
1/2-x,1/2-y,-z
1/2+x,1/2+y,-z
1/2-x,1/2+y,1/2+z
1/2+x,1/2-y,1/2+z
loop_
_atom_site_type_symbol
_atom_site_label
_atom_site_fract_x
_atom_site_fract_y
_atom_site_fract_z
Si Si1 0.796206 0.600958 0.846284
Si Si2 0.805118 0.693756 0.235019
Si Si3 0.035900 0.205154 0.560527
Si Si4 0.633554 0.361837 0.161563
Si Si5 0.217619 0.014469 0.310312
Si Si6 0.603308 0.828354 0.940624
O O1 0.854018 0.636752 0.795520
O O2 0.579710 0.618702 0.842456
O O3 0.810145 0.534261 0.844512
O O4 0.907374 0.625657 0.895316
O O5 0.750000 0.750000 0.201078
O O6 0.684033 0.676358 0.286700
O O7 0.000000 0.716691 0.250000
O O8 0.104506 0.195913 0.500000
O O9 0.821736 0.186081 0.560057
O O10 0.011832 0.271861 0.570292
O O11 0.146395 0.172895 0.606594
O O12 0.738590 0.421176 0.171186
O O13 0.274270 0.000000 0.250000
O O14 0.000000 0.000000 0.311908
O O15 0.558530 0.847848 0.000000
#
# Coordination Sequence:
#
# PCOD9496127 Si02
#       6
#    16  16  16  16  16  16
#     4  10  19  33  56  78 109 150 192 229 279 335
#     4  12  26  37  52  81 113 142 178 230 287 343
#     4   8  15  28  51  81 110 146 189 236 285 333
#     4  10  19  35  56  77 110 152 188 230 278 338
#     4   9  16  30  50  77 109 149 193 229 275 331
#     4   8  15  27  48  80 113 145 189 237 282 333
#
# _framework density 22.031967000000002
#
# number of rings (size 3 to 8) (size 9 to 14) (size 15 to 20)
#    0.000    2.500    1.667    2.500    7.000    0.000 
#    0.000    2.500    0.000    6.500    0.000    0.000 
#    0.000    2.667    0.000    0.000    0.000    0.000 
#
# Total GULP energy -267451.934354 kJ/mol
# GULP energy per Si atom -5571.915299 kJ/mol
# Density = 2.198182 g / cm^3
# Si number density = 22.031967 Si / 1000 Ang^3
#
#
#
# Elastic Constant Matrix: (Units=GPa)
#
#
# Indices 1 2 3 4 5 6 
#
# 1 37.7669 26.4165 16.5327 0.0000 0.0000 0.0000
# 2 26.4165 161.2986 103.8860 0.0000 0.0000 0.0000
# 3 16.5327 103.8860 160.6294 0.0000 0.0000 0.0000
# 4 0.0000 0.0000 0.0000 54.4638 0.0000 0.0000
# 5 0.0000 0.0000 0.0000 0.0000 5.1358 0.0000
# 6 0.0000 0.0000 0.0000 0.0000 0.0000 29.8677
#
#
#
# Elastic Compliance Matrix: (Units=1/GPa)
#
#
# Indices 1 2 3 4 5 6 
#
# 1 0.029906 -0.004997 0.000154 0.000000 0.000000 0.000000
# 2 -0.004997 0.011461 -0.006898 0.000000 0.000000 0.000000
# 3 0.000154 -0.006898 0.010671 0.000000 0.000000 0.000000
# 4 0.000000 0.000000 0.000000 0.018361 0.000000 0.000000
# 5 0.000000 0.000000 0.000000 0.000000 0.194711 0.000000
# 6 0.000000 0.000000 0.000000 0.000000 0.000000 0.033481
#
#
# Mechanical properties :
#
#
# Convention : Reuss Voigt Hill
#
# Bulk Modulus (GPa) = 35.01953 72.59614 53.80784
# Shear Modulus (GPa) = 15.07882 32.08411 23.58146
#
# Velocity S-wave (km/s) = 2.61895 3.82023 3.27514
# Velocity P-wave (km/s) = 5.00746 7.24436 6.22717
#
# Compressibility (1/GPa) = 0.02855549
#
# Stress axis : x y z
#
# Youngs Moduli (GPa) = 33.43809 87.25547 93.71358
#
# Poissons Ratio (x) = 0.43599 -0.01439
# Poissons Ratio (y) = 0.16708 0.64642
# Poissons Ratio (z) = -0.00513 0.60187
#
# Static dielectric constant tensor:
#      x y z
#    x 1.866420 0.000000 0.000000 
#    y 0.000000 1.860950 0.000000 
#    z 0.000000 0.000000 1.759980 
# 
# From -- ./inp_files/55643.got.cif
#   From: 2010.05.17/outbox.cif.g08.bks.cpg/sg66_28_cif.got.tgz:55643.got - 2010.06.03 17:51:23.
