data_PCOD9496506
_publ_section_title
;
Structure prediction by ZEFSAII (Michael W. Deem and Ramdas Pophale) SiO2 
 PCOD9496506
Probable space group: C C C M
;
_chemical_formula_sum "Si O2"
_cell_formula_units_Z 128
_cell_length_a 16.805659
_cell_length_b 22.782570
_cell_length_c 20.505221
_cell_angle_alpha 90.000000
_cell_angle_beta 90.000000
_cell_angle_gamma 90.000000
_cell_volume 7850.959099
_symmetry_space_group_name_H-M "C C C M"
_symmetry_group_IT_number 66
_symmetry_cell_setting 'orthorhombic'
loop_
_space_group_symop_operation_xyz
x,y,z
-x,-y,z
x,-y,1/2-z
-x,y,1/2-z
-x,-y,-z
x,y,-z
-x,y,1/2+z
x,-y,1/2+z
1/2+x,1/2+y,z
1/2-x,1/2-y,z
1/2+x,1/2-y,1/2-z
1/2-x,1/2+y,1/2-z
1/2-x,1/2-y,-z
1/2+x,1/2+y,-z
1/2-x,1/2+y,1/2+z
1/2+x,1/2-y,1/2+z
loop_
_atom_site_type_symbol
_atom_site_label
_atom_site_fract_x
_atom_site_fract_y
_atom_site_fract_z
Si Si1 0.187715 0.198596 0.424422
Si Si2 0.550453 0.746333 0.350096
Si Si3 0.794148 0.524028 0.178007
Si Si4 0.119780 0.249243 0.794795
Si Si5 0.434058 0.866767 0.923530
Si Si6 0.745049 0.848344 0.216811
Si Si7 0.929466 0.452265 0.426365
Si Si8 0.776601 0.599435 0.360293
O O1 0.170500 0.210000 0.500000
O O2 0.250000 0.250000 0.402283
O O3 0.107048 0.197855 0.382570
O O4 0.231674 0.137128 0.414254
O O5 0.585074 0.756867 0.278030
O O6 0.456019 0.738459 0.341286
O O7 0.566926 0.801725 0.396043
O O8 0.819366 0.500000 0.250000
O O9 0.751017 0.586796 0.185390
O O10 0.867104 0.536587 0.129993
O O11 0.748277 0.467268 0.149683
O O12 0.178861 0.193392 0.793605
O O13 0.171075 0.308248 0.807814
O O14 0.522269 0.892317 0.915929
O O15 0.368792 0.901979 0.881932
O O16 0.413645 0.869905 0.000000
O O17 0.732774 0.863633 0.293389
O O18 0.894830 0.453695 0.500000
O O19 0.000000 0.500000 0.425174
#
# Coordination Sequence:
#
# PCOD9496506 Si02
#       8
#    16  16  16  16  16  16  16  16
#     4  11  20  31  52  81 114 144 172 214 267 324
#     4  11  20  32  50  81 105 141 175 217 273 323
#     4  10  22  35  53  76 107 146 185 227 267 316
#     4  10  20  33  57  74 105 140 177 225 272 318
#     4  11  20  31  49  75 111 145 175 209 256 323
#     4  10  19  37  52  77 105 139 180 226 264 317
#     4  10  20  33  47  70 108 148 182 215 255 315
#     4  11  19  32  48  76 108 142 178 211 261 321
#
# _framework density 16.303740000000001
#
# number of rings (size 3 to 8) (size 9 to 14) (size 15 to 20)
#    0.000    1.500    5.000    1.500    0.000    0.750 
#    0.000    0.000    0.000    2.250    0.000    7.000 
#    0.000    0.000    0.000    0.000    0.000    0.000 
#
# Total GULP energy -356590.051239 kJ/mol
# GULP energy per Si atom -5571.719551 kJ/mol
# Density = 1.626663 g / cm^3
# Si number density = 16.303740 Si / 1000 Ang^3
#
#
#
# Elastic Constant Matrix: (Units=GPa)
#
#
# Indices 1 2 3 4 5 6 
#
# 1 70.1963 31.0620 14.1162 0.0000 0.0000 0.0000
# 2 31.0620 99.4515 17.2020 0.0000 0.0000 0.0000
# 3 14.1162 17.2020 29.6348 0.0000 0.0000 0.0000
# 4 0.0000 0.0000 0.0000 18.0255 0.0000 0.0000
# 5 0.0000 0.0000 0.0000 0.0000 17.4815 0.0000
# 6 0.0000 0.0000 0.0000 0.0000 0.0000 17.8037
#
#
#
# Elastic Compliance Matrix: (Units=1/GPa)
#
#
# Indices 1 2 3 4 5 6 
#
# 1 0.017353 -0.004436 -0.005691 0.000000 0.000000 0.000000
# 2 -0.004436 0.012311 -0.005033 0.000000 0.000000 0.000000
# 3 -0.005691 -0.005033 0.039377 0.000000 0.000000 0.000000
# 4 0.000000 0.000000 0.000000 0.055477 0.000000 0.000000
# 5 0.000000 0.000000 0.000000 0.000000 0.057203 0.000000
# 6 0.000000 0.000000 0.000000 0.000000 0.000000 0.056168
#
#
# Mechanical properties :
#
#
# Convention : Reuss Voigt Hill
#
# Bulk Modulus (GPa) = 25.82605 36.00480 30.91542
# Shear Modulus (GPa) = 17.78624 19.78897 18.78761
#
# Velocity S-wave (km/s) = 3.30651 3.48770 3.39831
# Velocity P-wave (km/s) = 5.51836 6.19277 5.86527
#
# Compressibility (1/GPa) = 0.03872059
#
# Stress axis : x y z
#
# Youngs Moduli (GPa) = 57.62705 81.22734 25.39570
#
# Poissons Ratio (x) = 0.36028 0.14453
# Poissons Ratio (y) = 0.25561 0.12783
# Poissons Ratio (z) = 0.32797 0.40885
#
# Static dielectric constant tensor:
#      x y z
#    x 1.549660 0.000000 0.000000 
#    y 0.000000 1.600790 0.000000 
#    z 0.000000 0.000000 1.554700 
# 
# From -- ./inp_files/51306.got.cif
#   From: 2010.05.17/outbox.cif.g08.bks.cpg/sg66_26_cif.got.tgz:51306.got - 2010.06.03 17:51:23.
