data_PCOD9496355
_publ_section_title
;
Structure prediction by ZEFSAII (Michael W. Deem and Ramdas Pophale) SiO2 
 PCOD9496355
Probable space group: C C C M
;
_chemical_formula_sum "Si O2"
_cell_formula_units_Z 64
_cell_length_a 8.769874
_cell_length_b 14.079948
_cell_length_c 22.389915
_cell_angle_alpha 90.000000
_cell_angle_beta 90.000000
_cell_angle_gamma 90.000000
_cell_volume 2764.692596
_symmetry_space_group_name_H-M "C C C M"
_symmetry_group_IT_number 66
_symmetry_cell_setting 'orthorhombic'
loop_
_space_group_symop_operation_xyz
x,y,z
-x,-y,z
x,-y,1/2-z
-x,y,1/2-z
-x,-y,-z
x,y,-z
-x,y,1/2+z
x,-y,1/2+z
1/2+x,1/2+y,z
1/2-x,1/2-y,z
1/2+x,1/2-y,1/2-z
1/2-x,1/2+y,1/2-z
1/2-x,1/2-y,-z
1/2+x,1/2+y,-z
1/2-x,1/2+y,1/2+z
1/2+x,1/2-y,1/2+z
loop_
_atom_site_type_symbol
_atom_site_label
_atom_site_fract_x
_atom_site_fract_y
_atom_site_fract_z
Si Si1 0.883041 0.588217 0.828348
Si Si2 0.336451 0.339007 0.277876
Si Si3 0.153250 0.036708 0.392875
Si Si4 0.052271 0.387580 0.563974
O O1 0.789639 0.625056 0.771150
O O2 0.750678 0.553807 0.872686
O O3 0.000000 0.500000 0.814369
O O4 0.982665 0.652578 0.874061
O O5 0.500000 0.313214 0.250000
O O6 0.250000 0.250000 0.305199
O O7 0.374245 0.414187 0.328802
O O8 0.265747 0.104309 0.429299
O O9 0.000000 0.000000 0.422002
O O10 0.008396 0.344965 0.500000
O O11 0.000000 0.500000 0.562032
#
# Coordination Sequence:
#
# PCOD9496355 Si02
#       4
#    16  16  16  16
#     4   9  20  36  61  82 115 152 195 233 294 344
#     4  12  26  37  55  88 124 157 194 242 292 357
#     4  10  19  35  56  85 116 152 188 240 287 347
#     4   8  17  33  57  86 114 143 192 242 290 341
#
# _framework density 23.149048000000001
#
# number of rings (size 3 to 8) (size 9 to 14) (size 15 to 20)
#    0.000    2.750    2.500    0.750    7.000    4.500 
#    0.000    0.000    0.000    1.500    0.000    0.000 
#    0.000    0.000    0.000    0.000    0.000    0.000 
#
# Total GULP energy -178171.896073 kJ/mol
# GULP energy per Si atom -5567.871752 kJ/mol
# Density = 2.309636 g / cm^3
# Si number density = 23.149048 Si / 1000 Ang^3
#
#
#
# Elastic Constant Matrix: (Units=GPa)
#
#
# Indices 1 2 3 4 5 6 
#
# 1 152.1784 27.7898 20.3227 0.0000 0.0000 0.0000
# 2 27.7898 13.6737 9.6393 0.0000 0.0000 0.0000
# 3 20.3227 9.6393 104.8549 0.0000 0.0000 0.0000
# 4 0.0000 0.0000 0.0000 -11.3750 0.0000 0.0000
# 5 0.0000 0.0000 0.0000 0.0000 1.6369 0.0000
# 6 0.0000 0.0000 0.0000 0.0000 0.0000 29.5656
#
#
#
# Elastic Compliance Matrix: (Units=1/GPa)
#
#
# Indices 1 2 3 4 5 6 
#
# 1 0.010450 -0.021183 -0.000078 0.000000 0.000000 0.000000
# 2 -0.021183 0.121141 -0.007031 0.000000 0.000000 0.000000
# 3 -0.000078 -0.007031 0.010198 0.000000 0.000000 0.000000
# 4 0.000000 0.000000 0.000000 -0.087912 0.000000 0.000000
# 5 0.000000 0.000000 0.000000 0.000000 0.610896 0.000000
# 6 0.000000 0.000000 0.000000 0.000000 0.000000 0.033823
#
#
# Mechanical properties :
#
#
# Convention : Reuss Voigt Hill
#
# Bulk Modulus (GPa) = 11.73633 42.91228 27.32431
# Shear Modulus (GPa) = 6.38096 18.16252 12.27174
#
# Velocity S-wave (km/s) = 1.66206 2.80409 2.30493
# Velocity P-wave (km/s) = 2.96043 5.39088 4.34889
#
# Compressibility (1/GPa) = 0.08520548
#
# Stress axis : x y z
#
# Youngs Moduli (GPa) = 95.69437 8.25486 98.05404
#
# Poissons Ratio (x) = 0.17486 0.00765
# Poissons Ratio (y) = 2.02709 0.68940
# Poissons Ratio (z) = 0.00747 0.05804
#
# Static dielectric constant tensor:
#      x y z
#    x 2.079400 0.000000 0.000000 
#    y 0.000000 1.901210 0.000000 
#    z 0.000000 0.000000 1.939930 
# 
# From -- ./inp_files/55151.got.cif
#   From: 2010.05.17/outbox.cif.g08.bks.cpg/sg66_28_cif.got.tgz:55151.got - 2010.06.03 17:51:23.
