data_PCOD9496389
_publ_section_title
;
Structure prediction by ZEFSAII (Michael W. Deem and Ramdas Pophale) SiO2 
 PCOD9496389
Probable space group: C C C M
;
_chemical_formula_sum "Si O2"
_cell_formula_units_Z 96
_cell_length_a 19.036399
_cell_length_b 29.279433
_cell_length_c 8.889262
_cell_angle_alpha 90.000000
_cell_angle_beta 90.000000
_cell_angle_gamma 90.000000
_cell_volume 4954.652132
_symmetry_space_group_name_H-M "C C C M"
_symmetry_group_IT_number 66
_symmetry_cell_setting 'orthorhombic'
loop_
_space_group_symop_operation_xyz
x,y,z
-x,-y,z
x,-y,1/2-z
-x,y,1/2-z
-x,-y,-z
x,y,-z
-x,y,1/2+z
x,-y,1/2+z
1/2+x,1/2+y,z
1/2-x,1/2-y,z
1/2+x,1/2-y,1/2-z
1/2-x,1/2+y,1/2-z
1/2-x,1/2-y,-z
1/2+x,1/2+y,-z
1/2-x,1/2+y,1/2+z
1/2+x,1/2-y,1/2+z
loop_
_atom_site_type_symbol
_atom_site_label
_atom_site_fract_x
_atom_site_fract_y
_atom_site_fract_z
Si Si1 0.940050 0.363406 0.331250
Si Si2 0.686650 0.797769 0.173424
Si Si3 0.216031 0.049314 0.819281
Si Si4 0.184305 0.852203 0.820900
Si Si5 0.882668 0.546485 0.180547
Si Si6 0.077973 0.225527 0.679061
O O1 0.964759 0.369508 0.500000
O O2 0.865755 0.340155 0.333199
O O3 0.925483 0.411418 0.254005
O O4 0.000000 0.335331 0.250000
O O5 0.755354 0.817953 0.255044
O O6 0.637840 0.759503 0.252583
O O7 0.701308 0.785278 0.000000
O O8 0.186389 0.097205 0.753092
O O9 0.299809 0.051633 0.786774
O O10 0.191997 0.000000 0.750000
O O11 0.206264 0.048388 0.000000
O O12 0.111312 0.825000 0.797145
O O13 0.196122 0.856868 0.000000
O O14 0.908158 0.500000 0.250000
O O15 0.889050 0.546541 0.000000
O O16 0.073290 0.234131 0.500000
O O17 0.000000 0.229215 0.750000
#
# Coordination Sequence:
#
# PCOD9496389 Si02
#       6
#    16  16  16  16  16  16
#     4  10  21  35  49  72 106 145 191 240 287 343
#     4  11  22  39  61  86 118 157 202 249 299 355
#     4  10  19  35  59  88 121 155 196 244 300 359
#     4  11  23  39  62  92 124 157 200 250 299 356
#     4   9  18  33  49  70 102 139 185 236 286 343
#     4  11  25  43  62  89 123 159 200 248 303 364
#
# _framework density 19.375730999999998
#
# number of rings (size 3 to 8) (size 9 to 14) (size 15 to 20)
#    0.000    1.667    1.667    3.000    0.000    9.000 
#    0.000    1.667    0.000    0.500    0.000    3.500 
#    0.000    0.000    0.000    0.000    0.000    0.000 
#
# Total GULP energy -267518.603586 kJ/mol
# GULP energy per Si atom -5573.304241 kJ/mol
# Density = 1.933163 g / cm^3
# Si number density = 19.375731 Si / 1000 Ang^3
#
#
#
# Elastic Constant Matrix: (Units=GPa)
#
#
# Indices 1 2 3 4 5 6 
#
# 1 64.3750 67.2986 40.8570 0.0000 0.0000 0.0000
# 2 67.2986 145.2359 65.4887 0.0000 0.0000 0.0000
# 3 40.8570 65.4887 89.4850 0.0000 0.0000 0.0000
# 4 0.0000 0.0000 0.0000 26.9008 0.0000 0.0000
# 5 0.0000 0.0000 0.0000 0.0000 -33.1095 0.0000
# 6 0.0000 0.0000 0.0000 0.0000 0.0000 94.9035
#
#
#
# Elastic Compliance Matrix: (Units=1/GPa)
#
#
# Indices 1 2 3 4 5 6 
#
# 1 0.031900 -0.012260 -0.005593 0.000000 0.000000 0.000000
# 2 -0.012260 0.014988 -0.005371 0.000000 0.000000 0.000000
# 3 -0.005593 -0.005371 0.017660 0.000000 0.000000 0.000000
# 4 0.000000 0.000000 0.000000 0.037174 0.000000 0.000000
# 5 0.000000 0.000000 0.000000 0.000000 -0.030203 0.000000
# 6 0.000000 0.000000 0.000000 0.000000 0.000000 0.010537
#
#
# Mechanical properties :
#
#
# Convention : Reuss Voigt Hill
#
# Bulk Modulus (GPa) = 55.24846 71.82048 63.53447
# Shear Modulus (GPa) = 37.16448 26.10241 31.63345
#
# Velocity S-wave (km/s) = 4.38436 3.67436 4.04497
# Velocity P-wave (km/s) = 7.36249 7.42624 7.39443
#
# Compressibility (1/GPa) = 0.01810005
#
# Stress axis : x y z
#
# Youngs Moduli (GPa) = 31.34784 66.71869 56.62657
#
# Poissons Ratio (x) = 0.81796 0.31669
# Poissons Ratio (y) = 0.38432 0.30417
# Poissons Ratio (z) = 0.17532 0.35837
#
# Static dielectric constant tensor:
#      x y z
#    x 1.667350 0.000000 0.000000 
#    y 0.000000 1.731250 0.000000 
#    z 0.000000 0.000000 1.705430 
# 
# From -- ./inp_files/8005.got.cif
#   From: 2010.05.17/outbox.cif.g08.bks.cpg/sg66_5_cif.got.tgz:8005.got - 2010.06.03 17:51:23.
