data_PCOD9496031
_publ_section_title
;
Structure prediction by ZEFSAII (Michael W. Deem and Ramdas Pophale) SiO2 
 PCOD9496031
Probable space group: C C C M
;
_chemical_formula_sum "Si O2"
_cell_formula_units_Z 64
_cell_length_a 22.173782
_cell_length_b 7.707725
_cell_length_c 16.869436
_cell_angle_alpha 90.000000
_cell_angle_beta 90.000000
_cell_angle_gamma 90.000000
_cell_volume 2883.145419
_symmetry_space_group_name_H-M "C C C M"
_symmetry_group_IT_number 66
_symmetry_cell_setting 'orthorhombic'
loop_
_space_group_symop_operation_xyz
x,y,z
-x,-y,z
x,-y,1/2-z
-x,y,1/2-z
-x,-y,-z
x,y,-z
-x,y,1/2+z
x,-y,1/2+z
1/2+x,1/2+y,z
1/2-x,1/2-y,z
1/2+x,1/2-y,1/2-z
1/2-x,1/2+y,1/2-z
1/2-x,1/2-y,-z
1/2+x,1/2+y,-z
1/2-x,1/2+y,1/2+z
1/2+x,1/2-y,1/2+z
loop_
_atom_site_type_symbol
_atom_site_label
_atom_site_fract_x
_atom_site_fract_y
_atom_site_fract_z
Si Si1 0.189542 0.932172 0.906207
Si Si2 0.064757 0.945870 0.841207
Si Si3 0.933649 0.420984 0.090652
Si Si4 0.313850 0.034218 0.342996
O O1 0.124883 0.012912 0.884294
O O2 0.248751 0.028764 0.873865
O O3 0.187754 0.739883 0.866267
O O4 0.195447 0.911627 0.000000
O O5 0.064931 0.739146 0.849545
O O6 0.067471 0.000000 0.750000
O O7 0.000000 0.000000 0.875872
O O8 0.875122 0.532633 0.115230
O O9 0.000000 0.500000 0.093343
O O10 0.923271 0.359612 0.000000
O O11 0.317808 0.000000 0.250000
#
# Coordination Sequence:
#
# PCOD9496031 Si02
#       4
#    16  16  16  16
#     4  10  20  37  58  80 110 148 190 231 281 342
#     4  10  21  36  58  88 118 149 190 238 288 338
#     4  10  22  40  61  85 116 155 195 235 285 344
#     4  10  19  32  56  84 110 141 187 238 284 334
#
# _framework density 22.197980000000001
#
# number of rings (size 3 to 8) (size 9 to 14) (size 15 to 20)
#    0.000    2.000    0.000    6.000    0.000   10.500 
#    0.000    0.000    0.000    0.000    0.000   36.750 
#    0.000    0.000    0.000    0.000    0.000    0.000 
#
# Total GULP energy -178535.464833 kJ/mol
# GULP energy per Si atom -5579.233276 kJ/mol
# Density = 2.214746 g / cm^3
# Si number density = 22.197980 Si / 1000 Ang^3
#
#
#
# Elastic Constant Matrix: (Units=GPa)
#
#
# Indices 1 2 3 4 5 6 
#
# 1 244.6737 9.8753 52.0040 0.0000 0.0000 0.0000
# 2 9.8753 34.3422 29.7702 0.0000 0.0000 0.0000
# 3 52.0040 29.7702 165.5194 0.0000 0.0000 0.0000
# 4 0.0000 0.0000 0.0000 29.5035 0.0000 0.0000
# 5 0.0000 0.0000 0.0000 0.0000 43.4183 0.0000
# 6 0.0000 0.0000 0.0000 0.0000 0.0000 37.2021
#
#
#
# Elastic Compliance Matrix: (Units=1/GPa)
#
#
# Indices 1 2 3 4 5 6 
#
# 1 0.004380 -0.000079 -0.001362 0.000000 0.000000 0.000000
# 2 -0.000079 0.034499 -0.006180 0.000000 0.000000 0.000000
# 3 -0.001362 -0.006180 0.007581 0.000000 0.000000 0.000000
# 4 0.000000 0.000000 0.000000 0.033894 0.000000 0.000000
# 5 0.000000 0.000000 0.000000 0.000000 0.023032 0.000000
# 6 0.000000 0.000000 0.000000 0.000000 0.000000 0.026880
#
#
# Mechanical properties :
#
#
# Convention : Reuss Voigt Hill
#
# Bulk Modulus (GPa) = 32.03302 69.75936 50.89619
# Shear Modulus (GPa) = 32.06907 45.55049 38.80978
#
# Velocity S-wave (km/s) = 3.80502 4.53483 4.18586
# Velocity P-wave (km/s) = 5.81087 7.67553 6.80735
#
# Compressibility (1/GPa) = 0.03121779
#
# Stress axis : x y z
#
# Youngs Moduli (GPa) = 228.32533 28.98652 131.90818
#
# Poissons Ratio (x) = 0.00229 0.17964
# Poissons Ratio (y) = 0.01800 0.81521
# Poissons Ratio (z) = 0.31095 0.17914
#
# Static dielectric constant tensor:
#      x y z
#    x 1.983110 0.000000 0.000000 
#    y 0.000000 1.837340 0.000000 
#    z 0.000000 0.000000 1.743950 
# 
# From -- ./inp_files/24151.got.cif
#   From: 2010.05.17/outbox.cif.g08.bks.cpg/sg66_13_cif.got.tgz:24151.got - 2010.06.03 17:51:23.
