data_PCOD9496534
_publ_section_title
;
Structure prediction by ZEFSAII (Michael W. Deem and Ramdas Pophale) SiO2 
 PCOD9496534
Probable space group: C C C M
;
_chemical_formula_sum "Si O2"
_cell_formula_units_Z 88
_cell_length_a 7.474920
_cell_length_b 21.170089
_cell_length_c 21.455159
_cell_angle_alpha 90.000000
_cell_angle_beta 90.000000
_cell_angle_gamma 90.000000
_cell_volume 3395.165664
_symmetry_space_group_name_H-M "C C C M"
_symmetry_group_IT_number 66
_symmetry_cell_setting 'orthorhombic'
loop_
_space_group_symop_operation_xyz
x,y,z
-x,-y,z
x,-y,1/2-z
-x,y,1/2-z
-x,-y,-z
x,y,-z
-x,y,1/2+z
x,-y,1/2+z
1/2+x,1/2+y,z
1/2-x,1/2-y,z
1/2+x,1/2-y,1/2-z
1/2-x,1/2+y,1/2-z
1/2-x,1/2-y,-z
1/2+x,1/2+y,-z
1/2-x,1/2+y,1/2+z
1/2+x,1/2-y,1/2+z
loop_
_atom_site_type_symbol
_atom_site_label
_atom_site_fract_x
_atom_site_fract_y
_atom_site_fract_z
Si Si1 0.106802 0.833209 0.362310
Si Si2 0.901910 0.580617 0.315332
Si Si3 0.256341 0.467280 0.130960
Si Si4 0.297774 0.462700 0.500000
Si Si5 0.471573 0.154677 0.500000
Si Si6 0.108710 0.137196 0.000000
Si Si7 0.521211 0.794133 0.362151
O O1 0.071148 0.827284 0.436261
O O2 0.312822 0.813594 0.350747
O O3 0.978281 0.777780 0.337714
O O4 0.111919 0.909180 0.351937
O O5 0.057386 0.562728 0.364992
O O6 0.860559 0.653269 0.327282
O O7 0.000000 0.574078 0.250000
O O8 0.751617 0.527893 0.323814
O O9 0.281569 0.497185 0.063120
O O10 0.518711 0.576794 0.500000
O O11 0.151495 0.407018 0.500000
O O12 0.676970 0.130755 0.500000
O O13 0.442487 0.193896 0.435971
#
# Coordination Sequence:
#
# PCOD9496534 Si02
#       7
#    16  16  16   8   8   8  16
#     4   9  18  33  55  82 121 160 213 242 319 399
#     4  10  20  35  59  93 119 153 224 283 322 385
#     4  10  20  33  57  89 124 162 201 268 324 379
#     4  12  23  36  60  96 138 165 218 260 324 399
#     4  10  19  37  62  92 131 164 218 260 319 395
#     4  10  22  36  55  94 133 182 195 258 323 396
#     4   9  17  34  60  87 116 167 207 265 322 387
#
# _framework density 25.919207
#
# number of rings (size 3 to 8) (size 9 to 14) (size 15 to 20)
#    0.000    2.182    1.818    2.182    2.545    7.273 
#    0.000    1.818    0.000   10.909    0.000   24.182 
#    0.000    0.000    0.000    0.000    0.000    0.000 
#
# Total GULP energy -245781.974274 kJ/mol
# GULP energy per Si atom -5585.953961 kJ/mol
# Density = 2.586021 g / cm^3
# Si number density = 25.919207 Si / 1000 Ang^3
#
#
#
# Elastic Constant Matrix: (Units=GPa)
#
#
# Indices 1 2 3 4 5 6 
#
# 1 59.4121 78.7333 16.9387 0.0000 0.0000 0.0000
# 2 78.7333 277.0129 52.9024 0.0000 0.0000 0.0000
# 3 16.9387 52.9024 75.9146 0.0000 0.0000 0.0000
# 4 0.0000 0.0000 0.0000 5.7504 0.0000 0.0000
# 5 0.0000 0.0000 0.0000 0.0000 -29.1354 0.0000
# 6 0.0000 0.0000 0.0000 0.0000 0.0000 55.0413
#
#
#
# Elastic Compliance Matrix: (Units=1/GPa)
#
#
# Indices 1 2 3 4 5 6 
#
# 1 0.027042 -0.007537 -0.000782 0.000000 0.000000 0.000000
# 2 -0.007537 0.006265 -0.002684 0.000000 0.000000 0.000000
# 3 -0.000782 -0.002684 0.015218 0.000000 0.000000 0.000000
# 4 0.000000 0.000000 0.000000 0.173900 0.000000 0.000000
# 5 0.000000 0.000000 0.000000 0.000000 -0.034323 0.000000
# 6 0.000000 0.000000 0.000000 0.000000 0.000000 0.018168
#
#
# Mechanical properties :
#
#
# Convention : Reuss Voigt Hill
#
# Bulk Modulus (GPa) = 37.70827 78.83203 58.27015
# Shear Modulus (GPa) = 21.08681 23.91561 22.50121
#
# Velocity S-wave (km/s) = 2.85539 3.04089 2.94960
# Velocity P-wave (km/s) = 5.04490 6.54293 5.84213
#
# Compressibility (1/GPa) = 0.02651938
#
# Stress axis : x y z
#
# Youngs Moduli (GPa) = 36.97928 159.62713 65.71381
#
# Poissons Ratio (x) = 1.20306 0.05138
# Poissons Ratio (y) = 0.27870 0.17637
# Poissons Ratio (z) = 0.02891 0.42843
#
# Static dielectric constant tensor:
#      x y z
#    x 2.025690 0.000000 0.000000 
#    y 0.000000 2.153420 0.000000 
#    z 0.000000 0.000000 2.025380 
# 
# From -- ./inp_files/64734.got.cif
#   From: 2010.05.17/outbox.cif.g08.bks.cpg/sg66_33_cif.got.tgz:64734.got - 2010.06.03 17:51:23.
