data_PCOD9496803
_publ_section_title
;
Structure prediction by ZEFSAII (Michael W. Deem and Ramdas Pophale) SiO2 
 PCOD9496803
Probable space group: C C C M
;
_chemical_formula_sum "Si O2"
_cell_formula_units_Z 48
_cell_length_a 14.460207
_cell_length_b 9.168562
_cell_length_c 13.705596
_cell_angle_alpha 90.000000
_cell_angle_beta 90.000000
_cell_angle_gamma 90.000000
_cell_volume 1817.078384
_symmetry_space_group_name_H-M "C C C M"
_symmetry_group_IT_number 66
_symmetry_cell_setting 'orthorhombic'
loop_
_space_group_symop_operation_xyz
x,y,z
-x,-y,z
x,-y,1/2-z
-x,y,1/2-z
-x,-y,-z
x,y,-z
-x,y,1/2+z
x,-y,1/2+z
1/2+x,1/2+y,z
1/2-x,1/2-y,z
1/2+x,1/2-y,1/2-z
1/2-x,1/2+y,1/2-z
1/2-x,1/2-y,-z
1/2+x,1/2+y,-z
1/2-x,1/2+y,1/2+z
1/2+x,1/2-y,1/2+z
loop_
_atom_site_type_symbol
_atom_site_label
_atom_site_fract_x
_atom_site_fract_y
_atom_site_fract_z
Si Si1 0.256504 0.079720 0.000000
Si Si2 0.646800 0.321188 0.000000
Si Si3 0.411249 0.080359 0.149563
Si Si4 0.851854 0.172996 0.225124
O O1 0.250000 0.250000 0.000000
O O2 0.320631 0.042634 0.090248
O O3 0.162378 0.995230 0.000000
O O4 0.750000 0.250000 0.000000
O O5 0.612565 0.295925 0.887407
O O6 0.408814 0.247583 0.186848
O O7 0.500000 0.000000 0.103408
O O8 0.401896 0.000000 0.250000
O O9 0.750000 0.250000 0.230215
O O10 0.848633 0.000000 0.250000
#
# Coordination Sequence:
#
# PCOD9496803 Si02
#       4
#     8   8  16  16
#     4  12  23  39  68 102 134 174 233 298 349 403
#     4  10  20  33  59  96 128 164 221 294 343 389
#     4  11  24  42  63  94 140 190 228 276 352 431
#     4  11  21  38  65  99 135 176 238 300 351 412
#
# _framework density 26.416034
#
# number of rings (size 3 to 8) (size 9 to 14) (size 15 to 20)
#    0.000    1.000    0.000   10.500    0.000    0.000 
#    0.000    5.833    0.000    0.000    0.000   42.000 
#    0.000    0.000    0.000    0.000    0.000    0.000 
#
# Total GULP energy -133977.877132 kJ/mol
# GULP energy per Si atom -5582.411547 kJ/mol
# Density = 2.635591 g / cm^3
# Si number density = 26.416034 Si / 1000 Ang^3
#
#
#
# Elastic Constant Matrix: (Units=GPa)
#
#
# Indices 1 2 3 4 5 6 
#
# 1 74.6848 29.0321 31.8530 0.0000 0.0000 0.0000
# 2 29.0321 204.8296 15.8733 0.0000 0.0000 0.0000
# 3 31.8530 15.8733 178.1802 0.0000 0.0000 0.0000
# 4 0.0000 0.0000 0.0000 23.1262 0.0000 0.0000
# 5 0.0000 0.0000 0.0000 0.0000 39.8197 0.0000
# 6 0.0000 0.0000 0.0000 0.0000 0.0000 21.8460
#
#
#
# Elastic Compliance Matrix: (Units=1/GPa)
#
#
# Indices 1 2 3 4 5 6 
#
# 1 0.015240 -0.001962 -0.002550 0.000000 0.000000 0.000000
# 2 -0.001962 0.005169 -0.000110 0.000000 0.000000 0.000000
# 3 -0.002550 -0.000110 0.006078 0.000000 0.000000 0.000000
# 4 0.000000 0.000000 0.000000 0.043241 0.000000 0.000000
# 5 0.000000 0.000000 0.000000 0.000000 0.025113 0.000000
# 6 0.000000 0.000000 0.000000 0.000000 0.000000 0.045775
#
#
# Mechanical properties :
#
#
# Convention : Reuss Voigt Hill
#
# Bulk Modulus (GPa) = 57.99428 67.91240 62.95334
# Shear Modulus (GPa) = 32.13227 42.35411 37.24319
#
# Velocity S-wave (km/s) = 3.49147 4.00853 3.75890
# Velocity P-wave (km/s) = 6.18511 6.86942 6.53623
#
# Compressibility (1/GPa) = 0.01724308
#
# Stress axis : x y z
#
# Youngs Moduli (GPa) = 65.61734 193.46996 164.53189
#
# Poissons Ratio (x) = 0.37968 0.41949
# Poissons Ratio (y) = 0.12877 0.01804
# Poissons Ratio (z) = 0.16730 0.02121
#
# Static dielectric constant tensor:
#      x y z
#    x 2.194260 0.000000 0.000000 
#    y 0.000000 2.285030 0.000000 
#    z 0.000000 0.000000 2.054030 
# 
# From -- ./inp_files/29353.got.cif
#   From: 2010.05.17/outbox.cif.g08.bks.cpg/sg66_15_cif.got.tgz:29353.got - 2010.06.03 17:51:23.
