data_PCOD9496721
_publ_section_title
;
Structure prediction by ZEFSAII (Michael W. Deem and Ramdas Pophale) SiO2 
 PCOD9496721
Probable space group: C C C M
;
_chemical_formula_sum "Si O2"
_cell_formula_units_Z 80
_cell_length_a 18.382987
_cell_length_b 27.899257
_cell_length_c 8.761107
_cell_angle_alpha 90.000000
_cell_angle_beta 90.000000
_cell_angle_gamma 90.000000
_cell_volume 4493.323655
_symmetry_space_group_name_H-M "C C C M"
_symmetry_group_IT_number 66
_symmetry_cell_setting 'orthorhombic'
loop_
_space_group_symop_operation_xyz
x,y,z
-x,-y,z
x,-y,1/2-z
-x,y,1/2-z
-x,-y,-z
x,y,-z
-x,y,1/2+z
x,-y,1/2+z
1/2+x,1/2+y,z
1/2-x,1/2-y,z
1/2+x,1/2-y,1/2-z
1/2-x,1/2+y,1/2-z
1/2-x,1/2-y,-z
1/2+x,1/2+y,-z
1/2-x,1/2+y,1/2+z
1/2+x,1/2-y,1/2+z
loop_
_atom_site_type_symbol
_atom_site_label
_atom_site_fract_x
_atom_site_fract_y
_atom_site_fract_z
Si Si1 0.421290 0.708799 0.682844
Si Si2 0.367673 0.815473 0.317201
Si Si3 0.731792 0.950460 0.682832
Si Si4 0.575456 0.086551 0.182782
Si Si5 0.284314 0.345893 0.683593
O O1 0.500000 0.696991 0.750000
O O2 0.421337 0.703995 0.500000
O O3 0.402006 0.764151 0.720135
O O4 0.358169 0.676254 0.753867
O O5 0.367731 0.821528 0.500000
O O6 0.411043 0.859270 0.241123
O O7 0.285326 0.818959 0.255147
O O8 0.732309 0.953436 0.500000
O O9 0.647801 0.941954 0.731961
O O10 0.774320 0.901993 0.725504
O O11 0.759830 0.000000 0.750000
O O12 0.500000 0.068028 0.250000
O O13 0.572294 0.086649 0.000000
O O14 0.280587 0.342027 0.500000
#
# Coordination Sequence:
#
# PCOD9496721 Si02
#       5
#    16  16  16  16  16
#     4  11  23  36  53  79 109 141 176 214 258 307
#     4  10  20  34  53  78 108 143 181 214 250 301
#     4   9  20  36  54  76 100 131 172 216 263 314
#     4  10  20  33  49  74 107 142 179 216 258 305
#     4  10  21  37  56  79 107 138 174 215 259 308
#
# _framework density 17.804192
#
# number of rings (size 3 to 8) (size 9 to 14) (size 15 to 20)
#    0.000    2.000    0.000    4.800    0.000   12.400 
#    0.000    2.000    0.000    0.600    0.000    4.200 
#    0.000    0.000    0.000    0.000    0.000    0.000 
#
# Total GULP energy -223442.141520 kJ/mol
# GULP energy per Si atom -5586.053538 kJ/mol
# Density = 1.776367 g / cm^3
# Si number density = 17.804192 Si / 1000 Ang^3
#
#
#
# Elastic Constant Matrix: (Units=GPa)
#
#
# Indices 1 2 3 4 5 6 
#
# 1 68.6224 9.2257 9.2815 0.0000 0.0000 0.0000
# 2 9.2257 55.7216 14.1077 0.0000 0.0000 0.0000
# 3 9.2815 14.1077 33.2541 0.0000 0.0000 0.0000
# 4 0.0000 0.0000 0.0000 25.5167 0.0000 0.0000
# 5 0.0000 0.0000 0.0000 0.0000 65.6325 0.0000
# 6 0.0000 0.0000 0.0000 0.0000 0.0000 1.6788
#
#
#
# Elastic Compliance Matrix: (Units=1/GPa)
#
#
# Indices 1 2 3 4 5 6 
#
# 1 0.015274 -0.001624 -0.003574 0.000000 0.000000 0.000000
# 2 -0.001624 0.020279 -0.008150 0.000000 0.000000 0.000000
# 3 -0.003574 -0.008150 0.034527 0.000000 0.000000 0.000000
# 4 0.000000 0.000000 0.000000 0.039190 0.000000 0.000000
# 5 0.000000 0.000000 0.000000 0.000000 0.015236 0.000000
# 6 0.000000 0.000000 0.000000 0.000000 0.000000 0.595651
#
#
# Mechanical properties :
#
#
# Convention : Reuss Voigt Hill
#
# Bulk Modulus (GPa) = 23.05023 24.75865 23.90444
# Shear Modulus (GPa) = 6.56759 26.89781 16.73270
#
# Velocity S-wave (km/s) = 1.92271 3.89106 3.06897
# Velocity P-wave (km/s) = 4.23128 5.84153 5.10035
#
# Compressibility (1/GPa) = 0.04338351
#
# Stress axis : x y z
#
# Youngs Moduli (GPa) = 65.46957 49.31300 28.96323
#
# Poissons Ratio (x) = 0.08008 0.10352
# Poissons Ratio (y) = 0.10632 0.23604
# Poissons Ratio (z) = 0.23400 0.40189
#
# Static dielectric constant tensor:
#      x y z
#    x 1.596790 0.000000 0.000000 
#    y 0.000000 1.601800 0.000000 
#    z 0.000000 0.000000 1.594980 
# 
# From -- ./inp_files/6642.got.cif
#   From: 2010.05.17/outbox.cif.g08.bks.cpg/sg66_4_cif.got.tgz:6642.got - 2010.06.03 17:51:23.
