data_PCOD9496641
_publ_section_title
;
Structure prediction by ZEFSAII (Michael W. Deem and Ramdas Pophale) SiO2 
 PCOD9496641
Probable space group: C C C M
;
_chemical_formula_sum "Si O2"
_cell_formula_units_Z 116
_cell_length_a 12.413461
_cell_length_b 26.203018
_cell_length_c 18.967342
_cell_angle_alpha 90.000000
_cell_angle_beta 90.000000
_cell_angle_gamma 90.000000
_cell_volume 6169.510026
_symmetry_space_group_name_H-M "C C C M"
_symmetry_group_IT_number 66
_symmetry_cell_setting 'orthorhombic'
loop_
_space_group_symop_operation_xyz
x,y,z
-x,-y,z
x,-y,1/2-z
-x,y,1/2-z
-x,-y,-z
x,y,-z
-x,y,1/2+z
x,-y,1/2+z
1/2+x,1/2+y,z
1/2-x,1/2-y,z
1/2+x,1/2-y,1/2-z
1/2-x,1/2+y,1/2-z
1/2-x,1/2-y,-z
1/2+x,1/2+y,-z
1/2-x,1/2+y,1/2+z
1/2+x,1/2-y,1/2+z
loop_
_atom_site_type_symbol
_atom_site_label
_atom_site_fract_x
_atom_site_fract_y
_atom_site_fract_z
Si Si1 0.264452 0.365186 0.827382
Si Si2 0.376291 0.443806 0.725097
Si Si3 0.500000 0.000000 0.250000
Si Si4 0.733448 0.552638 0.420018
Si Si5 0.125790 0.454807 0.121315
Si Si6 0.863791 0.781043 0.080550
Si Si7 0.056215 0.384868 0.422227
Si Si8 0.550724 0.803269 0.822933
O O1 0.314645 0.397742 0.763917
O O2 0.206367 0.407259 0.875907
O O3 0.346388 0.331825 0.873514
O O4 0.168664 0.326661 0.806284
O O5 0.335781 0.500000 0.750000
O O6 0.500000 0.440811 0.750000
O O7 0.354209 0.442642 0.641600
O O8 0.422819 0.032389 0.198739
O O9 0.691274 0.551848 0.500000
O O10 0.806450 0.502194 0.407023
O O11 0.821231 0.597793 0.413231
O O12 0.020378 0.434996 0.080637
O O13 0.750000 0.750000 0.077980
O O14 0.940664 0.742694 0.122128
O O15 0.895319 0.791511 0.000000
O O16 0.041353 0.361451 0.500000
O O17 0.016598 0.348151 0.360484
O O18 0.500000 0.786572 0.750000
#
# Coordination Sequence:
#
# PCOD9496641 Si02
#       8
#    16  16   4  16  16  16  16  16
#     4  10  21  35  57  83 113 156 201 246 295 360
#     4  11  23  41  58  77 105 151 204 259 298 343
#     4  12  20  28  50  84 130 176 194 236 292 360
#     4  11  21  36  56  82 120 159 198 245 302 360
#     4  11  20  30  52  84 125 159 198 237 289 362
#     4   9  19  37  57  82 113 147 190 243 298 342
#     4  10  20  31  50  84 125 159 184 225 294 377
#     4  10  20  33  58  88 120 151 189 238 303 374
#
# _framework density 18.802142
#
# number of rings (size 3 to 8) (size 9 to 14) (size 15 to 20)
#    0.000    1.655    2.759    2.483    3.862    5.517 
#    0.000    2.069    0.000    0.000    0.000    0.000 
#    0.000   11.586    0.000    0.000    0.000    0.000 
#
# Total GULP energy -323595.583472 kJ/mol
# GULP energy per Si atom -5579.234198 kJ/mol
# Density = 1.875935 g / cm^3
# Si number density = 18.802142 Si / 1000 Ang^3
#
#
#
# Elastic Constant Matrix: (Units=GPa)
#
#
# Indices 1 2 3 4 5 6 
#
# 1 53.8089 16.3722 44.6485 0.0000 0.0000 0.0000
# 2 16.3722 77.7174 40.0783 0.0000 0.0000 0.0000
# 3 44.6485 40.0783 155.0999 0.0000 0.0000 0.0000
# 4 0.0000 0.0000 0.0000 12.5557 0.0000 0.0000
# 5 0.0000 0.0000 0.0000 0.0000 12.1948 0.0000
# 6 0.0000 0.0000 0.0000 0.0000 0.0000 13.2290
#
#
#
# Elastic Compliance Matrix: (Units=1/GPa)
#
#
# Indices 1 2 3 4 5 6 
#
# 1 0.024625 -0.001767 -0.006632 0.000000 0.000000 0.000000
# 2 -0.001767 0.014972 -0.003360 0.000000 0.000000 0.000000
# 3 -0.006632 -0.003360 0.009225 0.000000 0.000000 0.000000
# 4 0.000000 0.000000 0.000000 0.079645 0.000000 0.000000
# 5 0.000000 0.000000 0.000000 0.000000 0.082002 0.000000
# 6 0.000000 0.000000 0.000000 0.000000 0.000000 0.075591
#
#
# Mechanical properties :
#
#
# Convention : Reuss Voigt Hill
#
# Bulk Modulus (GPa) = 39.52106 54.31381 46.91743
# Shear Modulus (GPa) = 15.72253 19.96437 17.84345
#
# Velocity S-wave (km/s) = 2.89487 3.26208 3.08395
# Velocity P-wave (km/s) = 5.67792 6.56795 6.13909
#
# Compressibility (1/GPa) = 0.02530297
#
# Stress axis : x y z
#
# Youngs Moduli (GPa) = 40.60889 66.79026 108.40238
#
# Poissons Ratio (x) = 0.11805 0.71894
# Poissons Ratio (y) = 0.07178 0.36424
# Poissons Ratio (z) = 0.26932 0.22442
#
# Static dielectric constant tensor:
#      x y z
#    x 1.662230 0.000000 0.000000 
#    y 0.000000 1.654290 0.000000 
#    z 0.000000 0.000000 1.666600 
# 
# From -- ./inp_files/39202.got.cif
#   From: 2010.05.17/outbox.cif.g08.bks.cpg/sg66_20_cif.got.tgz:39202.got - 2010.06.03 17:51:23.
