data_PCOD9496742
_publ_section_title
;
Structure prediction by ZEFSAII (Michael W. Deem and Ramdas Pophale) SiO2 
 PCOD9496742
Probable space group: C C C M
;
_chemical_formula_sum "Si O2"
_cell_formula_units_Z 80
_cell_length_a 18.862041
_cell_length_b 27.394183
_cell_length_c 8.824957
_cell_angle_alpha 90.000000
_cell_angle_beta 90.000000
_cell_angle_gamma 90.000000
_cell_volume 4559.945322
_symmetry_space_group_name_H-M "C C C M"
_symmetry_group_IT_number 66
_symmetry_cell_setting 'orthorhombic'
loop_
_space_group_symop_operation_xyz
x,y,z
-x,-y,z
x,-y,1/2-z
-x,y,1/2-z
-x,-y,-z
x,y,-z
-x,y,1/2+z
x,-y,1/2+z
1/2+x,1/2+y,z
1/2-x,1/2-y,z
1/2+x,1/2-y,1/2-z
1/2-x,1/2+y,1/2-z
1/2-x,1/2-y,-z
1/2+x,1/2+y,-z
1/2-x,1/2+y,1/2+z
1/2+x,1/2-y,1/2+z
loop_
_atom_site_type_symbol
_atom_site_label
_atom_site_fract_x
_atom_site_fract_y
_atom_site_fract_z
Si Si1 0.789840 0.601018 0.179610
Si Si2 0.573092 0.054105 0.180398
Si Si3 0.360278 0.447407 0.819111
Si Si4 0.276996 0.303904 0.681617
Si Si5 0.074269 0.850277 0.180635
O O1 0.858673 0.584294 0.269683
O O2 0.722102 0.566288 0.213113
O O3 0.766295 0.654783 0.230374
O O4 0.803131 0.598832 0.000000
O O5 0.500000 0.074382 0.250000
O O6 0.581444 0.000000 0.250000
O O7 0.567442 0.050900 0.000000
O O8 0.377483 0.500000 0.750000
O O9 0.405342 0.403253 0.748301
O O10 0.369862 0.447924 0.000000
O O11 0.267851 0.311022 0.500000
O O12 0.250000 0.250000 0.719640
O O13 0.359772 0.314446 0.715507
O O14 0.000000 0.833866 0.250000
O O15 0.068312 0.854360 0.000000
#
# Coordination Sequence:
#
# PCOD9496742 Si02
#       5
#    16  16  16  16  16
#     4  10  20  34  53  78 106 137 175 219 265 314
#     4  11  21  34  52  75 106 142 179 218 263 315
#     4  10  20  33  51  76 106 139 176 213 252 302
#     4   9  19  37  59  80 103 136 176 218 266 316
#     4  10  20  35  55  78 106 137 171 211 257 308
#
# _framework density 17.544070000000001
#
# number of rings (size 3 to 8) (size 9 to 14) (size 15 to 20)
#    0.000    2.000    0.000    4.800    0.000    5.600 
#    0.000    3.000    0.000    2.400    0.000    0.000 
#    0.000    0.000    0.000    0.000    0.000    0.000 
#
# Total GULP energy -223375.863598 kJ/mol
# GULP energy per Si atom -5584.396590 kJ/mol
# Density = 1.750414 g / cm^3
# Si number density = 17.544070 Si / 1000 Ang^3
#
#
#
# Elastic Constant Matrix: (Units=GPa)
#
#
# Indices 1 2 3 4 5 6 
#
# 1 119.2960 38.7340 60.7695 0.0000 0.0000 0.0000
# 2 38.7340 82.1981 32.1317 0.0000 0.0000 0.0000
# 3 60.7695 32.1317 87.4189 0.0000 0.0000 0.0000
# 4 0.0000 0.0000 0.0000 25.5401 0.0000 0.0000
# 5 0.0000 0.0000 0.0000 0.0000 33.5829 0.0000
# 6 0.0000 0.0000 0.0000 0.0000 0.0000 9.0310
#
#
#
# Elastic Compliance Matrix: (Units=1/GPa)
#
#
# Indices 1 2 3 4 5 6 
#
# 1 0.013655 -0.003181 -0.008323 0.000000 0.000000 0.000000
# 2 -0.003181 0.014948 -0.003283 0.000000 0.000000 0.000000
# 3 -0.008323 -0.003283 0.018432 0.000000 0.000000 0.000000
# 4 0.000000 0.000000 0.000000 0.039154 0.000000 0.000000
# 5 0.000000 0.000000 0.000000 0.000000 0.029777 0.000000
# 6 0.000000 0.000000 0.000000 0.000000 0.000000 0.110729
#
#
# Mechanical properties :
#
#
# Convention : Reuss Voigt Hill
#
# Bulk Modulus (GPa) = 57.27216 61.35371 59.31294
# Shear Modulus (GPa) = 19.07739 24.11599 21.59669
#
# Velocity S-wave (km/s) = 3.30115 3.71157 3.51236
# Velocity P-wave (km/s) = 6.87355 7.30855 7.09438
#
# Compressibility (1/GPa) = 0.01746049
#
# Stress axis : x y z
#
# Youngs Moduli (GPa) = 73.23191 66.89818 54.25408
#
# Poissons Ratio (x) = 0.21281 0.45157
# Poissons Ratio (y) = 0.23296 0.17811
# Poissons Ratio (z) = 0.60953 0.21962
#
# Static dielectric constant tensor:
#      x y z
#    x 1.606440 0.000000 0.000000 
#    y 0.000000 1.562960 0.000000 
#    z 0.000000 0.000000 1.583940 
# 
# From -- ./inp_files/6671.got.cif
#   From: 2010.05.17/outbox.cif.g08.bks.cpg/sg66_4_cif.got.tgz:6671.got - 2010.06.03 17:51:23.
