data_PCOD9496698
_publ_section_title
;
Structure prediction by ZEFSAII (Michael W. Deem and Ramdas Pophale) SiO2 
 PCOD9496698
Probable space group: C C C M
;
_chemical_formula_sum "Si O2"
_cell_formula_units_Z 88
_cell_length_a 17.027738
_cell_length_b 9.369792
_cell_length_c 28.548693
_cell_angle_alpha 90.000000
_cell_angle_beta 90.000000
_cell_angle_gamma 90.000000
_cell_volume 4554.840145
_symmetry_space_group_name_H-M "C C C M"
_symmetry_group_IT_number 66
_symmetry_cell_setting 'orthorhombic'
loop_
_space_group_symop_operation_xyz
x,y,z
-x,-y,z
x,-y,1/2-z
-x,y,1/2-z
-x,-y,-z
x,y,-z
-x,y,1/2+z
x,-y,1/2+z
1/2+x,1/2+y,z
1/2-x,1/2-y,z
1/2+x,1/2-y,1/2-z
1/2-x,1/2+y,1/2-z
1/2-x,1/2-y,-z
1/2+x,1/2+y,-z
1/2-x,1/2+y,1/2+z
1/2+x,1/2-y,1/2+z
loop_
_atom_site_type_symbol
_atom_site_label
_atom_site_fract_x
_atom_site_fract_y
_atom_site_fract_z
Si Si1 0.312370 0.059700 0.845791
Si Si2 0.956521 0.849670 0.447881
Si Si3 0.623888 0.750945 0.312136
Si Si4 0.750000 0.750000 0.767225
Si Si5 0.300581 0.392307 0.601610
Si Si6 0.978953 0.667461 0.860999
O O1 0.265017 0.118448 0.801704
O O2 0.385134 0.165773 0.855173
O O3 0.345775 0.904602 0.831313
O O4 0.256099 0.026466 0.889771
O O5 0.965545 0.788054 0.500000
O O6 0.866504 0.890074 0.437437
O O7 0.990012 0.747108 0.407338
O O8 0.000000 0.000000 0.445312
O O9 0.672311 0.730235 0.264650
O O10 0.653916 0.633763 0.349115
O O11 0.529723 0.765962 0.317795
O O12 0.250000 0.250000 0.593976
O O13 0.000000 0.500000 0.864570
#
# Coordination Sequence:
#
# PCOD9496698 Si02
#       6
#    16  16  16   8  16  16
#     4  10  20  32  54  83 109 147 193 242 279 334
#     4  10  22  39  61  86 118 152 189 240 300 362
#     4   9  18  35  53  76 112 151 187 233 283 335
#     4  12  20  28  52  82 114 148 192 238 282 336
#     4   9  18  37  60  80 112 153 190 234 290 345
#     4   9  20  39  59  81 115 155 191 238 298 349
#
# _framework density 19.320108000000001
#
# number of rings (size 3 to 8) (size 9 to 14) (size 15 to 20)
#    0.000    2.364    2.727    1.636    2.545    1.455 
#    0.000    3.636    0.000    2.182    0.000    0.000 
#    0.000    0.000    0.000    0.000    0.000    0.000 
#
# Total GULP energy -245130.092171 kJ/mol
# GULP energy per Si atom -5571.138458 kJ/mol
# Density = 1.927613 g / cm^3
# Si number density = 19.320108 Si / 1000 Ang^3
#
#
#
# Elastic Constant Matrix: (Units=GPa)
#
#
# Indices 1 2 3 4 5 6 
#
# 1 135.1897 39.5814 48.5218 0.0000 0.0000 0.0000
# 2 39.5814 19.3712 20.5874 0.0000 0.0000 0.0000
# 3 48.5218 20.5874 81.6128 0.0000 0.0000 0.0000
# 4 0.0000 0.0000 0.0000 25.7455 0.0000 0.0000
# 5 0.0000 0.0000 0.0000 0.0000 28.9939 0.0000
# 6 0.0000 0.0000 0.0000 0.0000 0.0000 21.5802
#
#
#
# Elastic Compliance Matrix: (Units=1/GPa)
#
#
# Indices 1 2 3 4 5 6 
#
# 1 0.018651 -0.035968 -0.002016 0.000000 0.000000 0.000000
# 2 -0.035968 0.139896 -0.013905 0.000000 0.000000 0.000000
# 3 -0.002016 -0.013905 0.016959 0.000000 0.000000 0.000000
# 4 0.000000 0.000000 0.000000 0.038842 0.000000 0.000000
# 5 0.000000 0.000000 0.000000 0.000000 0.034490 0.000000
# 6 0.000000 0.000000 0.000000 0.000000 0.000000 0.046339
#
#
# Mechanical properties :
#
#
# Convention : Reuss Voigt Hill
#
# Bulk Modulus (GPa) = 13.94160 50.39497 32.16829
# Shear Modulus (GPa) = 11.82411 23.76279 17.79345
#
# Velocity S-wave (km/s) = 2.47657 3.51087 3.03806
# Velocity P-wave (km/s) = 3.92551 6.52501 5.38449
#
# Compressibility (1/GPa) = 0.07172779
#
# Stress axis : x y z
#
# Youngs Moduli (GPa) = 53.61507 7.14817 58.96563
#
# Poissons Ratio (x) = 0.25711 0.11886
# Poissons Ratio (y) = 1.92845 0.81992
# Poissons Ratio (z) = 0.10807 0.09940
#
# Static dielectric constant tensor:
#      x y z
#    x 2.097650 0.000000 0.000000 
#    y 0.000000 1.676970 0.000000 
#    z 0.000000 0.000000 1.659810 
# 
# From -- ./inp_files/69935.got.cif
#   From: 2010.05.17/outbox.cif.g08.bks.cpg/sg66_35_cif.got.tgz:69935.got - 2010.06.03 17:51:23.
