data_PCOD9496817
_publ_section_title
;
Structure prediction by ZEFSAII (Michael W. Deem and Ramdas Pophale) SiO2 
 PCOD9496817
Probable space group: C C C M
;
_chemical_formula_sum "Si O2"
_cell_formula_units_Z 116
_cell_length_a 29.418625
_cell_length_b 26.594062
_cell_length_c 7.976307
_cell_angle_alpha 90.000000
_cell_angle_beta 90.000000
_cell_angle_gamma 90.000000
_cell_volume 6240.349425
_symmetry_space_group_name_H-M "C C C M"
_symmetry_group_IT_number 66
_symmetry_cell_setting 'orthorhombic'
loop_
_space_group_symop_operation_xyz
x,y,z
-x,-y,z
x,-y,1/2-z
-x,y,1/2-z
-x,-y,-z
x,y,-z
-x,y,1/2+z
x,-y,1/2+z
1/2+x,1/2+y,z
1/2-x,1/2-y,z
1/2+x,1/2-y,1/2-z
1/2-x,1/2+y,1/2-z
1/2-x,1/2-y,-z
1/2+x,1/2+y,-z
1/2-x,1/2+y,1/2+z
1/2+x,1/2-y,1/2+z
loop_
_atom_site_type_symbol
_atom_site_label
_atom_site_fract_x
_atom_site_fract_y
_atom_site_fract_z
Si Si1 0.951139 0.299741 0.298794
Si Si2 0.337570 0.058251 0.302639
Si Si3 0.500000 0.000000 0.250000
Si Si4 0.236094 0.941948 0.701079
Si Si5 0.859332 0.750341 0.796981
Si Si6 0.935013 0.586744 0.801669
Si Si7 0.227072 0.695203 0.186554
Si Si8 0.313932 0.351644 0.189899
O O1 0.947607 0.302113 0.500000
O O2 0.908837 0.266671 0.238661
O O3 0.948113 0.357706 0.240498
O O4 0.000000 0.278868 0.250000
O O5 0.344419 0.063017 0.500000
O O6 0.286527 0.075098 0.259057
O O7 0.380640 0.083160 0.214194
O O8 0.339108 0.000000 0.250000
O O9 0.538250 0.957158 0.298138
O O10 0.235658 0.939059 0.500000
O O11 0.195365 0.906339 0.768113
O O12 0.230685 0.000000 0.750000
O O13 0.823558 0.707250 0.744878
O O14 0.842664 0.805416 0.733881
O O15 0.858022 0.752850 0.000000
O O16 0.946914 0.579564 0.000000
O O17 0.250000 0.750000 0.173665
O O18 0.261719 0.667955 0.309572
O O19 0.227604 0.672492 0.000000
O O20 0.330673 0.358262 0.000000
#
# Coordination Sequence:
#
# PCOD9496817 Si02
#       8
#    16  16   4  16  16  16  16  16
#     4  10  22  38  54  73  98 127 162 208 258 307
#     4  11  22  35  51  70  94 127 164 203 247 296
#     4  12  22  36  60  70  90 120 170 220 264 296
#     4  10  20  34  51  72 101 133 165 201 240 288
#     4   9  18  34  53  72  96 129 165 201 246 302
#     4  11  23  37  52  72  95 123 164 212 259 302
#     4   9  17  28  44  70  99 125 158 202 244 282
#     4   9  18  32  51  72  97 132 168 198 237 296
#
# _framework density 18.588702000000001
#
# number of rings (size 3 to 8) (size 9 to 14) (size 15 to 20)
#    0.000    2.069    1.379    3.103    1.931    4.414 
#    0.000    0.000    0.000    0.000    0.000    0.000 
#    0.000    0.552    0.000    6.897    0.000    0.000 
#
# Total GULP energy -323060.445516 kJ/mol
# GULP energy per Si atom -5570.007681 kJ/mol
# Density = 1.854639 g / cm^3
# Si number density = 18.588702 Si / 1000 Ang^3
#
#
#
# Elastic Constant Matrix: (Units=GPa)
#
#
# Indices 1 2 3 4 5 6 
#
# 1 114.7518 56.7884 1.3167 0.0000 0.0000 0.0000
# 2 56.7884 79.1018 4.6732 0.0000 0.0000 0.0000
# 3 1.3167 4.6732 46.6897 0.0000 0.0000 0.0000
# 4 0.0000 0.0000 0.0000 17.7673 0.0000 0.0000
# 5 0.0000 0.0000 0.0000 0.0000 12.9346 0.0000
# 6 0.0000 0.0000 0.0000 0.0000 0.0000 30.8202
#
#
#
# Elastic Compliance Matrix: (Units=1/GPa)
#
#
# Indices 1 2 3 4 5 6 
#
# 1 0.013533 -0.009751 0.000594 0.000000 0.000000 0.000000
# 2 -0.009751 0.019743 -0.001701 0.000000 0.000000 0.000000
# 3 0.000594 -0.001701 0.021571 0.000000 0.000000 0.000000
# 4 0.000000 0.000000 0.000000 0.056283 0.000000 0.000000
# 5 0.000000 0.000000 0.000000 0.000000 0.077312 0.000000
# 6 0.000000 0.000000 0.000000 0.000000 0.000000 0.032446
#
#
# Mechanical properties :
#
#
# Convention : Reuss Voigt Hill
#
# Bulk Modulus (GPa) = 30.18209 40.67778 35.42994
# Shear Modulus (GPa) = 19.71237 24.15541 21.93389
#
# Velocity S-wave (km/s) = 3.25999 3.60872 3.43878
# Velocity P-wave (km/s) = 5.51743 6.26853 5.90493
#
# Compressibility (1/GPa) = 0.03313223
#
# Stress axis : x y z
#
# Youngs Moduli (GPa) = 73.89305 50.65182 46.35748
#
# Poissons Ratio (x) = 0.49389 -0.02755
# Poissons Ratio (y) = 0.72051 0.07886
# Poissons Ratio (z) = -0.04391 0.08616
#
# Static dielectric constant tensor:
#      x y z
#    x 1.641700 0.000000 0.000000 
#    y 0.000000 1.710340 0.000000 
#    z 0.000000 0.000000 1.723030 
# 
# From -- ./inp_files/9615.got.cif
#   From: 2010.05.17/outbox.cif.g08.bks.cpg/sg66_5_cif.got.tgz:9615.got - 2010.06.03 17:51:23.
