data_PCOD9496521
_publ_section_title
;
Structure prediction by ZEFSAII (Michael W. Deem and Ramdas Pophale) SiO2 
 PCOD9496521
Probable space group: C C C M
;
_chemical_formula_sum "Si O2"
_cell_formula_units_Z 80
_cell_length_a 16.874006
_cell_length_b 10.721608
_cell_length_c 22.500280
_cell_angle_alpha 90.000000
_cell_angle_beta 90.000000
_cell_angle_gamma 90.000000
_cell_volume 4070.671405
_symmetry_space_group_name_H-M "C C C M"
_symmetry_group_IT_number 66
_symmetry_cell_setting 'orthorhombic'
loop_
_space_group_symop_operation_xyz
x,y,z
-x,-y,z
x,-y,1/2-z
-x,y,1/2-z
-x,-y,-z
x,y,-z
-x,y,1/2+z
x,-y,1/2+z
1/2+x,1/2+y,z
1/2-x,1/2-y,z
1/2+x,1/2-y,1/2-z
1/2-x,1/2+y,1/2-z
1/2-x,1/2-y,-z
1/2+x,1/2+y,-z
1/2-x,1/2+y,1/2+z
1/2+x,1/2-y,1/2+z
loop_
_atom_site_type_symbol
_atom_site_label
_atom_site_fract_x
_atom_site_fract_y
_atom_site_fract_z
Si Si1 0.476869 0.856924 0.116935
Si Si2 0.864082 0.255688 0.673587
Si Si3 0.736746 0.443594 0.000000
Si Si4 0.607670 0.225255 0.000000
Si Si5 0.334870 0.119997 0.708497
Si Si6 0.235801 0.043479 0.869053
O O1 0.548453 0.792677 0.152888
O O2 0.447683 0.787902 0.057672
O O3 0.402349 0.862464 0.160461
O O4 0.500000 0.000000 0.102068
O O5 0.841339 0.270967 0.743041
O O6 0.840407 0.117547 0.653790
O O7 0.807200 0.357856 0.641697
O O8 0.664277 0.345573 0.000000
O O9 0.824660 0.382470 0.000000
O O10 0.730248 0.515833 0.061759
O O11 0.352936 0.000000 0.750000
O O12 0.257698 0.078472 0.670461
#
# Coordination Sequence:
#
# PCOD9496521 Si02
#       6
#    16  16   8   8  16  16
#     4  12  20  38  64  93 128 158 208 273 322 368
#     4  10  22  36  62  97 124 160 213 257 330 376
#     4  11  22  46  61  87 134 165 220 267 314 389
#     4  11  25  39  63  98 118 167 216 266 327 377
#     4  10  19  37  60  92 126 158 205 265 318 382
#     4  10  21  40  61  93 122 172 204 261 318 380
#
# _framework density 19.652777
#
# number of rings (size 3 to 8) (size 9 to 14) (size 15 to 20)
#    0.000    1.400    6.000    0.900    0.000    3.200 
#   18.000    2.000    0.000    0.000    0.000    0.000 
#    0.000    0.000    0.000    0.000    0.000    0.000 
#
# Total GULP energy -223192.343273 kJ/mol
# GULP energy per Si atom -5579.808582 kJ/mol
# Density = 1.960805 g / cm^3
# Si number density = 19.652777 Si / 1000 Ang^3
#
#
#
# Elastic Constant Matrix: (Units=GPa)
#
#
# Indices 1 2 3 4 5 6 
#
# 1 72.3740 29.8982 28.0857 0.0000 0.0000 0.0000
# 2 29.8982 38.8792 43.4659 0.0000 0.0000 0.0000
# 3 28.0857 43.4659 171.4600 0.0000 0.0000 0.0000
# 4 0.0000 0.0000 0.0000 37.4794 0.0000 0.0000
# 5 0.0000 0.0000 0.0000 0.0000 19.0291 0.0000
# 6 0.0000 0.0000 0.0000 0.0000 0.0000 26.2044
#
#
#
# Elastic Compliance Matrix: (Units=1/GPa)
#
#
# Indices 1 2 3 4 5 6 
#
# 1 0.020346 -0.016635 0.000884 0.000000 0.000000 0.000000
# 2 -0.016635 0.049493 -0.009822 0.000000 0.000000 0.000000
# 3 0.000884 -0.009822 0.008177 0.000000 0.000000 0.000000
# 4 0.000000 0.000000 0.000000 0.026681 0.000000 0.000000
# 5 0.000000 0.000000 0.000000 0.000000 0.052551 0.000000
# 6 0.000000 0.000000 0.000000 0.000000 0.000000 0.038161
#
#
# Mechanical properties :
#
#
# Convention : Reuss Voigt Hill
#
# Bulk Modulus (GPa) = 37.21351 53.95697 45.58524
# Shear Modulus (GPa) = 19.56851 28.62682 24.09766
#
# Velocity S-wave (km/s) = 3.15891 3.82072 3.50547
# Velocity P-wave (km/s) = 5.68169 6.85410 6.29524
#
# Compressibility (1/GPa) = 0.02687196
#
# Stress axis : x y z
#
# Youngs Moduli (GPa) = 49.15013 20.20468 122.28892
#
# Poissons Ratio (x) = 0.33610 -0.10813
# Poissons Ratio (y) = 0.81759 1.20113
# Poissons Ratio (z) = -0.04346 0.19845
#
# Static dielectric constant tensor:
#      x y z
#    x 1.681860 0.000000 0.000000 
#    y 0.000000 1.743520 0.000000 
#    z 0.000000 0.000000 1.677110 
# 
# From -- ./inp_files/48464.got.cif
#   From: 2010.05.17/outbox.cif.g08.bks.cpg/sg66_25_cif.got.tgz:48464.got - 2010.06.03 17:51:23.
