data_PCOD9496086
_publ_section_title
;
Structure prediction by ZEFSAII (Michael W. Deem and Ramdas Pophale) SiO2 
 PCOD9496086
Probable space group: C C C M
;
_chemical_formula_sum "Si O2"
_cell_formula_units_Z 64
_cell_length_a 12.173770
_cell_length_b 12.697592
_cell_length_c 19.288071
_cell_angle_alpha 90.000000
_cell_angle_beta 90.000000
_cell_angle_gamma 90.000000
_cell_volume 2981.503040
_symmetry_space_group_name_H-M "C C C M"
_symmetry_group_IT_number 66
_symmetry_cell_setting 'orthorhombic'
loop_
_space_group_symop_operation_xyz
x,y,z
-x,-y,z
x,-y,1/2-z
-x,y,1/2-z
-x,-y,-z
x,y,-z
-x,y,1/2+z
x,-y,1/2+z
1/2+x,1/2+y,z
1/2-x,1/2-y,z
1/2+x,1/2-y,1/2-z
1/2-x,1/2+y,1/2-z
1/2-x,1/2-y,-z
1/2+x,1/2+y,-z
1/2-x,1/2+y,1/2+z
1/2+x,1/2-y,1/2+z
loop_
_atom_site_type_symbol
_atom_site_label
_atom_site_fract_x
_atom_site_fract_y
_atom_site_fract_z
Si Si1 0.384712 0.162543 0.279788
Si Si2 0.877525 0.451960 0.077176
Si Si3 0.193794 0.135284 0.075639
Si Si4 0.652220 0.614155 0.775189
O O1 0.500000 0.123149 0.250000
O O2 0.363861 0.124738 0.357681
O O3 0.385500 0.288872 0.271907
O O4 0.285115 0.122649 0.231738
O O5 0.787239 0.545056 0.080527
O O6 0.000000 0.500000 0.081981
O O7 0.867785 0.403138 0.000000
O O8 0.250000 0.250000 0.077363
O O9 0.121579 0.128907 0.144617
O O10 0.139176 0.124261 0.000000
O O11 0.619684 0.500000 0.750000
#
# Coordination Sequence:
#
# PCOD9496086 Si02
#       4
#    16  16  16  16
#     4  11  23  37  60  87 115 157 193 245 298 344
#     4  10  21  36  58  89 118 149 194 250 303 353
#     4  10  19  33  53  82 116 152 186 233 292 351
#     4  11  22  39  58  86 119 152 202 241 291 361
#
# _framework density 21.465682999999999
#
# number of rings (size 3 to 8) (size 9 to 14) (size 15 to 20)
#    0.000    1.500    5.000    1.500    0.000    0.500 
#    0.000    3.750    0.000    0.000    0.000    3.500 
#    0.000    0.000    0.000    0.000    0.000    0.000 
#
# Total GULP energy -178803.771351 kJ/mol
# GULP energy per Si atom -5587.617855 kJ/mol
# Density = 2.141683 g / cm^3
# Si number density = 21.465683 Si / 1000 Ang^3
#
#
#
# Elastic Constant Matrix: (Units=GPa)
#
#
# Indices 1 2 3 4 5 6 
#
# 1 65.2805 -2.9863 -0.1927 0.0000 0.0000 0.0000
# 2 -2.9863 142.5927 81.5500 0.0000 0.0000 0.0000
# 3 -0.1927 81.5500 229.1650 0.0000 0.0000 0.0000
# 4 0.0000 0.0000 0.0000 8.9289 0.0000 0.0000
# 5 0.0000 0.0000 0.0000 0.0000 -1.1889 0.0000
# 6 0.0000 0.0000 0.0000 0.0000 0.0000 -3.2604
#
#
#
# Elastic Compliance Matrix: (Units=1/GPa)
#
#
# Indices 1 2 3 4 5 6 
#
# 1 0.015336 0.000394 -0.000127 0.000000 0.000000 0.000000
# 2 0.000394 0.008815 -0.003137 0.000000 0.000000 0.000000
# 3 -0.000127 -0.003137 0.005480 0.000000 0.000000 0.000000
# 4 0.000000 0.000000 0.000000 0.111996 0.000000 0.000000
# 5 0.000000 0.000000 0.000000 0.000000 -0.841143 0.000000
# 6 0.000000 0.000000 0.000000 0.000000 0.000000 -0.306707
#
#
# Mechanical properties :
#
#
# Convention : Reuss Voigt Hill
#
# Bulk Modulus (GPa) = 41.85645 65.97558 53.91602
# Shear Modulus (GPa) = -5.03769 24.80706 9.88469
#
# Velocity S-wave (km/s) = -1.53361 3.40319 2.14823
# Velocity P-wave (km/s) = 4.05039 6.80032 5.59687
#
# Compressibility (1/GPa) = 0.02389118
#
# Stress axis : x y z
#
# Youngs Moduli (GPa) = 65.20535 113.44216 182.49061
#
# Poissons Ratio (x) = -0.04469 0.02323
# Poissons Ratio (y) = -0.02569 0.57240
# Poissons Ratio (z) = 0.00830 0.35582
#
# Static dielectric constant tensor:
#      x y z
#    x 1.842750 0.000000 0.000000 
#    y 0.000000 1.767890 0.000000 
#    z 0.000000 0.000000 1.802650 
# 
# From -- ./inp_files/39969.got.cif
#   From: 2010.05.17/outbox.cif.g08.bks.cpg/sg66_20_cif.got.tgz:39969.got - 2010.06.03 17:51:23.
