data_PCOD9496410
_publ_section_title
;
Structure prediction by ZEFSAII (Michael W. Deem and Ramdas Pophale) SiO2 
 PCOD9496410
Probable space group: C C C M
;
_chemical_formula_sum "Si O2"
_cell_formula_units_Z 92
_cell_length_a 7.394487
_cell_length_b 22.870768
_cell_length_c 30.878938
_cell_angle_alpha 90.000000
_cell_angle_beta 90.000000
_cell_angle_gamma 90.000000
_cell_volume 5222.171782
_symmetry_space_group_name_H-M "C C C M"
_symmetry_group_IT_number 66
_symmetry_cell_setting 'orthorhombic'
loop_
_space_group_symop_operation_xyz
x,y,z
-x,-y,z
x,-y,1/2-z
-x,y,1/2-z
-x,-y,-z
x,y,-z
-x,y,1/2+z
x,-y,1/2+z
1/2+x,1/2+y,z
1/2-x,1/2-y,z
1/2+x,1/2-y,1/2-z
1/2-x,1/2+y,1/2-z
1/2-x,1/2-y,-z
1/2+x,1/2+y,-z
1/2-x,1/2+y,1/2+z
1/2+x,1/2-y,1/2+z
loop_
_atom_site_type_symbol
_atom_site_label
_atom_site_fract_x
_atom_site_fract_y
_atom_site_fract_z
Si Si1 0.479818 0.594232 0.074063
Si Si2 0.250000 0.250000 0.880049
Si Si3 0.115987 0.447213 0.620207
Si Si4 0.787332 0.014360 0.298407
Si Si5 0.044877 0.771138 0.048972
Si Si6 0.274749 0.878843 0.353512
Si Si7 0.000000 0.000000 0.000000
O O1 0.286458 0.573970 0.092979
O O2 0.462497 0.659046 0.054671
O O3 0.627704 0.596940 0.112148
O O4 0.537008 0.549119 0.037723
O O5 0.419207 0.246230 0.913066
O O6 0.245851 0.190572 0.852371
O O7 0.189016 0.475464 0.665034
O O8 0.000000 0.500000 0.598765
O O9 0.974537 0.395615 0.629717
O O10 0.755143 0.082045 0.310894
O O11 0.725488 0.000000 0.250000
O O12 0.000000 0.000000 0.301038
O O13 0.250000 0.750000 0.054043
O O14 0.985321 0.755151 0.000000
#
# Coordination Sequence:
#
# PCOD9496410 Si02
#       7
#    16   8  16  16  16  16   4
#     4  11  21  36  51  78 112 149 184 242 275 341
#     4  10  21  36  58  82 112 148 188 236 274 331
#     4  10  20  34  56  81 110 145 185 229 277 339
#     4  10  19  35  61  87 112 144 181 226 276 339
#     4  10  20  36  56  76 103 147 197 238 278 324
#     4  10  21  37  58  83 112 149 184 228 281 335
#     4  12  20  32  52  70 110 148 182 226 308 310
#
# _framework density 17.617190999999998
#
# number of rings (size 3 to 8) (size 9 to 14) (size 15 to 20)
#    0.000    1.739    2.609    3.391    0.000    3.130 
#    0.000    3.913    0.000    4.174    0.000    0.000 
#    0.000    0.000    0.000    0.000    0.000    0.000 
#
# Total GULP energy -256146.279504 kJ/mol
# GULP energy per Si atom -5568.397381 kJ/mol
# Density = 1.757709 g / cm^3
# Si number density = 17.617191 Si / 1000 Ang^3
#
#
#
# Elastic Constant Matrix: (Units=GPa)
#
#
# Indices 1 2 3 4 5 6 
#
# 1 81.3822 10.8170 16.1897 0.0000 0.0000 0.0000
# 2 10.8170 103.7206 43.3379 0.0000 0.0000 0.0000
# 3 16.1897 43.3379 71.7214 0.0000 0.0000 0.0000
# 4 0.0000 0.0000 0.0000 20.2025 0.0000 0.0000
# 5 0.0000 0.0000 0.0000 0.0000 7.0943 0.0000
# 6 0.0000 0.0000 0.0000 0.0000 0.0000 22.0224
#
#
#
# Elastic Compliance Matrix: (Units=1/GPa)
#
#
# Indices 1 2 3 4 5 6 
#
# 1 0.012868 -0.000172 -0.002801 0.000000 0.000000 0.000000
# 2 -0.000172 0.012900 -0.007756 0.000000 0.000000 0.000000
# 3 -0.002801 -0.007756 0.019262 0.000000 0.000000 0.000000
# 4 0.000000 0.000000 0.000000 0.049499 0.000000 0.000000
# 5 0.000000 0.000000 0.000000 0.000000 0.140958 0.000000
# 6 0.000000 0.000000 0.000000 0.000000 0.000000 0.045408
#
#
# Mechanical properties :
#
#
# Convention : Reuss Voigt Hill
#
# Bulk Modulus (GPa) = 42.42306 44.16814 43.29560
# Shear Modulus (GPa) = 16.11816 22.29582 19.20699
#
# Velocity S-wave (km/s) = 3.02803 3.56135 3.30546
# Velocity P-wave (km/s) = 6.02976 6.48355 6.26077
#
# Compressibility (1/GPa) = 0.02357209
#
# Stress axis : x y z
#
# Youngs Moduli (GPa) = 77.71390 77.51979 51.91648
#
# Poissons Ratio (x) = 0.01331 0.14541
# Poissons Ratio (y) = 0.01334 0.40267
# Poissons Ratio (z) = 0.21767 0.60125
#
# Static dielectric constant tensor:
#      x y z
#    x 1.623060 0.000000 0.000000 
#    y 0.000000 1.622760 0.000000 
#    z 0.000000 0.000000 1.590560 
# 
# From -- ./inp_files/62634.got.cif
#   From: 2010.05.17/outbox.cif.g08.bks.cpg/sg66_32_cif.got.tgz:62634.got - 2010.06.03 17:51:23.
