data_PCOD9496966
_publ_section_title
;
Structure prediction by ZEFSAII (Michael W. Deem and Ramdas Pophale) SiO2 
 PCOD9496966
Probable space group: C C C M
;
_chemical_formula_sum "Si O2"
_cell_formula_units_Z 112
_cell_length_a 27.271166
_cell_length_b 12.368338
_cell_length_c 19.988778
_cell_angle_alpha 90.000000
_cell_angle_beta 90.000000
_cell_angle_gamma 90.000000
_cell_volume 6742.194805
_symmetry_space_group_name_H-M "C C C M"
_symmetry_group_IT_number 66
_symmetry_cell_setting 'orthorhombic'
loop_
_space_group_symop_operation_xyz
x,y,z
-x,-y,z
x,-y,1/2-z
-x,y,1/2-z
-x,-y,-z
x,y,-z
-x,y,1/2+z
x,-y,1/2+z
1/2+x,1/2+y,z
1/2-x,1/2-y,z
1/2+x,1/2-y,1/2-z
1/2-x,1/2+y,1/2-z
1/2-x,1/2-y,-z
1/2+x,1/2+y,-z
1/2-x,1/2+y,1/2+z
1/2+x,1/2-y,1/2+z
loop_
_atom_site_type_symbol
_atom_site_label
_atom_site_fract_x
_atom_site_fract_y
_atom_site_fract_z
Si Si1 0.851387 0.897038 0.076815
Si Si2 0.945022 0.880438 0.277931
Si Si3 0.694548 0.204376 0.356897
Si Si4 0.354930 0.757272 0.215008
Si Si5 0.444682 0.457637 0.574425
Si Si6 0.187172 0.537282 0.172890
Si Si7 0.202910 0.945281 0.176450
O O1 0.842302 0.774393 0.098392
O O2 0.906147 0.944292 0.084471
O O3 0.816935 0.967544 0.124640
O O4 0.837184 0.911315 0.000000
O O5 0.907256 0.786014 0.259072
O O6 0.942870 0.886286 0.358690
O O7 0.000000 0.864085 0.250000
O O8 0.929500 0.000000 0.250000
O O9 0.750000 0.250000 0.367385
O O10 0.679750 0.227155 0.279829
O O11 0.687204 0.075822 0.367275
O O12 0.352375 0.866331 0.170920
O O13 0.331767 0.657751 0.175052
O O14 0.500000 0.500000 0.572649
O O15 0.433709 0.410540 0.500000
O O16 0.184526 0.500000 0.250000
O O17 0.241190 0.585937 0.162251
O O18 0.201107 0.000000 0.250000
#
# Coordination Sequence:
#
# PCOD9496966 Si02
#       7
#    16  16  16  16  16  16  16
#     4  11  22  33  53  83 113 147 183 231 284 323
#     4  11  20  31  52  85 112 136 178 229 288 329
#     4  11  19  34  52  77 109 147 189 230 270 322
#     4  11  19  30  54  79 110 142 176 233 270 330
#     4  10  20  35  52  77 112 142 172 218 280 343
#     4   9  19  31  48  76 105 143 188 221 264 320
#     4  11  17  31  53  76 105 141 186 224 268 323
#
# _framework density 16.611799999999999
#
# number of rings (size 3 to 8) (size 9 to 14) (size 15 to 20)
#    0.000    1.429    5.714    3.429    0.000    0.286 
#    0.000    0.000    0.000    8.143    0.000    0.000 
#    0.000    3.429    0.000    0.000    0.000    0.000 
#
# Total GULP energy -311889.439351 kJ/mol
# GULP energy per Si atom -5569.454274 kJ/mol
# Density = 1.657399 g / cm^3
# Si number density = 16.611800 Si / 1000 Ang^3
#
#
#
# Elastic Constant Matrix: (Units=GPa)
#
#
# Indices 1 2 3 4 5 6 
#
# 1 85.3408 45.2771 13.0210 0.0000 0.0000 0.0000
# 2 45.2771 94.1156 16.7129 0.0000 0.0000 0.0000
# 3 13.0210 16.7129 69.4508 0.0000 0.0000 0.0000
# 4 0.0000 0.0000 0.0000 16.0592 0.0000 0.0000
# 5 0.0000 0.0000 0.0000 0.0000 17.2108 0.0000
# 6 0.0000 0.0000 0.0000 0.0000 0.0000 17.8486
#
#
#
# Elastic Compliance Matrix: (Units=1/GPa)
#
#
# Indices 1 2 3 4 5 6 
#
# 1 0.015826 -0.007403 -0.001186 0.000000 0.000000 0.000000
# 2 -0.007403 0.014563 -0.002116 0.000000 0.000000 0.000000
# 3 -0.001186 -0.002116 0.015130 0.000000 0.000000 0.000000
# 4 0.000000 0.000000 0.000000 0.062270 0.000000 0.000000
# 5 0.000000 0.000000 0.000000 0.000000 0.058103 0.000000
# 6 0.000000 0.000000 0.000000 0.000000 0.000000 0.056027
#
#
# Mechanical properties :
#
#
# Convention : Reuss Voigt Hill
#
# Bulk Modulus (GPa) = 41.47885 44.32547 42.90216
# Shear Modulus (GPa) = 19.89136 21.81680 20.85408
#
# Velocity S-wave (km/s) = 3.46413 3.62792 3.54697
# Velocity P-wave (km/s) = 6.40500 6.65508 6.53124
#
# Compressibility (1/GPa) = 0.02410867
#
# Stress axis : x y z
#
# Youngs Moduli (GPa) = 63.18578 68.66920 66.09264
#
# Poissons Ratio (x) = 0.50837 0.07837
# Poissons Ratio (y) = 0.46778 0.13988
# Poissons Ratio (z) = 0.07492 0.14533
#
# Static dielectric constant tensor:
#      x y z
#    x 1.586640 0.000000 0.000000 
#    y 0.000000 1.715460 0.000000 
#    z 0.000000 0.000000 1.586950 
# 
# From -- ./inp_files/53139.got.cif
#   From: 2010.05.17/outbox.cif.g08.bks.cpg/sg66_27_cif.got.tgz:53139.got - 2010.06.03 17:51:23.
