data_PCOD9496890
_publ_section_title
;
Structure prediction by ZEFSAII (Michael W. Deem and Ramdas Pophale) SiO2 
 PCOD9496890
Probable space group: C C C M
;
_chemical_formula_sum "Si O2"
_cell_formula_units_Z 104
_cell_length_a 21.491428
_cell_length_b 27.870806
_cell_length_c 9.165866
_cell_angle_alpha 90.000000
_cell_angle_beta 90.000000
_cell_angle_gamma 90.000000
_cell_volume 5490.201768
_symmetry_space_group_name_H-M "C C C M"
_symmetry_group_IT_number 66
_symmetry_cell_setting 'orthorhombic'
loop_
_space_group_symop_operation_xyz
x,y,z
-x,-y,z
x,-y,1/2-z
-x,y,1/2-z
-x,-y,-z
x,y,-z
-x,y,1/2+z
x,-y,1/2+z
1/2+x,1/2+y,z
1/2-x,1/2-y,z
1/2+x,1/2-y,1/2-z
1/2-x,1/2+y,1/2-z
1/2-x,1/2-y,-z
1/2+x,1/2+y,-z
1/2-x,1/2+y,1/2+z
1/2+x,1/2-y,1/2+z
loop_
_atom_site_type_symbol
_atom_site_label
_atom_site_fract_x
_atom_site_fract_y
_atom_site_fract_z
Si Si1 0.196517 0.642635 0.328154
Si Si2 0.087178 0.856544 0.336828
Si Si3 0.116889 0.288882 0.663228
Si Si4 0.402472 0.449646 0.326847
Si Si5 0.195600 0.193845 0.667820
Si Si6 0.751937 0.949913 0.671887
Si Si7 0.000000 0.224901 0.750000
O O1 0.196383 0.635376 0.500000
O O2 0.133681 0.668950 0.274445
O O3 0.250759 0.679250 0.278257
O O4 0.215046 0.593725 0.246100
O O5 0.112858 0.864558 0.500000
O O6 0.067780 0.906728 0.266321
O O7 0.137008 0.836902 0.221118
O O8 0.036828 0.813936 0.347509
O O9 0.118384 0.308807 0.500000
O O10 0.170455 0.247958 0.672573
O O11 0.052869 0.259845 0.686189
O O12 0.417922 0.500000 0.250000
O O13 0.417554 0.448679 0.500000
O O14 0.326960 0.443362 0.313197
O O15 0.212972 0.182560 0.500000
O O16 0.738524 0.951903 0.500000
O O17 0.736602 0.000000 0.750000
#
# Coordination Sequence:
#
# PCOD9496890 Si02
#       7
#    16  16  16  16  16  16   8
#     4  12  23  34  54  85 118 149 187 231 280 338
#     4  11  21  35  58  83 110 146 190 239 286 338
#     4  10  22  39  58  78 109 149 190 237 287 339
#     4  10  20  34  55  81 112 149 188 233 284 337
#     4  10  20  35  54  79 112 150 187 228 284 342
#     4  10  20  35  56  83 119 155 187 225 278 339
#     4  10  24  42  61  82 107 146 196 242 288 336
#
# _framework density 18.942837999999998
#
# number of rings (size 3 to 8) (size 9 to 14) (size 15 to 20)
#    0.000    1.538    1.538    4.154    0.000    8.615 
#    0.000    0.385    0.000    1.846    0.000    0.538 
#    0.000    3.692    0.000    0.000    0.000    0.000 
#
# Total GULP energy -290205.824327 kJ/mol
# GULP energy per Si atom -5580.881237 kJ/mol
# Density = 1.889972 g / cm^3
# Si number density = 18.942838 Si / 1000 Ang^3
#
#
#
# Elastic Constant Matrix: (Units=GPa)
#
#
# Indices 1 2 3 4 5 6 
#
# 1 51.4053 44.6477 24.1587 0.0000 0.0000 0.0000
# 2 44.6477 95.1833 63.5545 0.0000 0.0000 0.0000
# 3 24.1587 63.5545 144.5059 0.0000 0.0000 0.0000
# 4 0.0000 0.0000 0.0000 21.3975 0.0000 0.0000
# 5 0.0000 0.0000 0.0000 0.0000 -3.6135 0.0000
# 6 0.0000 0.0000 0.0000 0.0000 0.0000 19.2622
#
#
#
# Elastic Compliance Matrix: (Units=1/GPa)
#
#
# Indices 1 2 3 4 5 6 
#
# 1 0.033168 -0.016785 0.001837 0.000000 0.000000 0.000000
# 2 -0.016785 0.023368 -0.007471 0.000000 0.000000 0.000000
# 3 0.001837 -0.007471 0.009899 0.000000 0.000000 0.000000
# 4 0.000000 0.000000 0.000000 0.046734 0.000000 0.000000
# 5 0.000000 0.000000 0.000000 0.000000 -0.276742 0.000000
# 6 0.000000 0.000000 0.000000 0.000000 0.000000 0.051915
#
#
# Mechanical properties :
#
#
# Convention : Reuss Voigt Hill
#
# Bulk Modulus (GPa) = 46.30297 61.75736 54.03017
# Shear Modulus (GPa) = -83.86400 17.99149 -32.93626
#
# Velocity S-wave (km/s) = -6.66095 3.08519 -4.17432
# Velocity P-wave (km/s) = 5.88737 6.73528 2.31331
#
# Compressibility (1/GPa) = 0.02159689
#
# Stress axis : x y z
#
# Youngs Moduli (GPa) = 30.14933 42.79384 101.02124
#
# Poissons Ratio (x) = 0.71828 -0.18557
# Poissons Ratio (y) = 0.50605 0.75475
# Poissons Ratio (z) = -0.05538 0.31972
#
# Static dielectric constant tensor:
#      x y z
#    x 1.710250 0.000000 0.000000 
#    y 0.000000 1.675770 0.000000 
#    z 0.000000 0.000000 1.646420 
# 
# From -- ./inp_files/8125.got.cif
#   From: 2010.05.17/outbox.cif.g08.bks.cpg/sg66_5_cif.got.tgz:8125.got - 2010.06.03 17:51:23.
