data_PCOD9496362
_publ_section_title
;
Structure prediction by ZEFSAII (Michael W. Deem and Ramdas Pophale) SiO2 
 PCOD9496362
Probable space group: C C C M
;
_chemical_formula_sum "Si O2"
_cell_formula_units_Z 96
_cell_length_a 20.632560
_cell_length_b 29.327285
_cell_length_c 8.771076
_cell_angle_alpha 90.000000
_cell_angle_beta 90.000000
_cell_angle_gamma 90.000000
_cell_volume 5307.351488
_symmetry_space_group_name_H-M "C C C M"
_symmetry_group_IT_number 66
_symmetry_cell_setting 'orthorhombic'
loop_
_space_group_symop_operation_xyz
x,y,z
-x,-y,z
x,-y,1/2-z
-x,y,1/2-z
-x,-y,-z
x,y,-z
-x,y,1/2+z
x,-y,1/2+z
1/2+x,1/2+y,z
1/2-x,1/2-y,z
1/2+x,1/2-y,1/2-z
1/2-x,1/2+y,1/2-z
1/2-x,1/2-y,-z
1/2+x,1/2+y,-z
1/2-x,1/2+y,1/2+z
1/2+x,1/2-y,1/2+z
loop_
_atom_site_type_symbol
_atom_site_label
_atom_site_fract_x
_atom_site_fract_y
_atom_site_fract_z
Si Si1 0.828387 0.449632 0.315948
Si Si2 0.564012 0.550435 0.180467
Si Si3 0.205339 0.804364 0.178532
Si Si4 0.155564 0.719038 0.682175
Si Si5 0.693930 0.588001 0.679045
Si Si6 0.428054 0.868454 0.316009
O O1 0.842612 0.500000 0.250000
O O2 0.825050 0.451838 0.500000
O O3 0.759644 0.432366 0.250013
O O4 0.882258 0.411438 0.273473
O O5 0.565221 0.500000 0.250000
O O6 0.500000 0.573976 0.250000
O O7 0.631391 0.571293 0.231714
O O8 0.558040 0.548608 0.000000
O O9 0.152049 0.769354 0.244438
O O10 0.272648 0.796722 0.267649
O O11 0.191758 0.857509 0.191422
O O12 0.214341 0.794248 0.000000
O O13 0.152253 0.722714 0.500000
O O14 0.105943 0.679359 0.732172
O O15 0.690824 0.575156 0.500000
O O16 0.500000 0.872582 0.250000
O O17 0.431277 0.867927 0.500000
#
# Coordination Sequence:
#
# PCOD9496362 Si02
#       6
#    16  16  16  16  16  16
#     4  11  23  40  59  85 117 151 198 248 300 352
#     4  11  22  38  59  82 113 151 192 235 283 343
#     4  10  20  33  56  87 115 145 184 231 281 336
#     4  10  19  35  57  83 113 147 187 230 282 341
#     4  11  22  37  58  87 119 154 193 237 291 344
#     4  10  23  40  60  84 115 155 198 244 297 355
#
# _framework density 18.088118000000001
#
# number of rings (size 3 to 8) (size 9 to 14) (size 15 to 20)
#    0.000    1.500    1.667    5.500    0.000    5.000 
#    0.000    2.500    0.000    2.000    0.000    0.000 
#    0.000    0.000    0.000    0.000    0.000    0.000 
#
# Total GULP energy -267885.433207 kJ/mol
# GULP energy per Si atom -5580.946525 kJ/mol
# Density = 1.804695 g / cm^3
# Si number density = 18.088118 Si / 1000 Ang^3
#
#
#
# Elastic Constant Matrix: (Units=GPa)
#
#
# Indices 1 2 3 4 5 6 
#
# 1 128.6040 45.1124 34.0244 0.0000 0.0000 0.0000
# 2 45.1124 91.1641 27.5788 0.0000 0.0000 0.0000
# 3 34.0244 27.5788 75.1268 0.0000 0.0000 0.0000
# 4 0.0000 0.0000 0.0000 28.8141 0.0000 0.0000
# 5 0.0000 0.0000 0.0000 0.0000 32.0512 0.0000
# 6 0.0000 0.0000 0.0000 0.0000 0.0000 12.1066
#
#
#
# Elastic Compliance Matrix: (Units=1/GPa)
#
#
# Indices 1 2 3 4 5 6 
#
# 1 0.009994 -0.004023 -0.003049 0.000000 0.000000 0.000000
# 2 -0.004023 0.013959 -0.003302 0.000000 0.000000 0.000000
# 3 -0.003049 -0.003302 0.015904 0.000000 0.000000 0.000000
# 4 0.000000 0.000000 0.000000 0.034705 0.000000 0.000000
# 5 0.000000 0.000000 0.000000 0.000000 0.031200 0.000000
# 6 0.000000 0.000000 0.000000 0.000000 0.000000 0.082600
#
#
# Mechanical properties :
#
#
# Convention : Reuss Voigt Hill
#
# Bulk Modulus (GPa) = 52.33486 56.48066 54.40776
# Shear Modulus (GPa) = 23.20399 27.13967 25.17183
#
# Velocity S-wave (km/s) = 3.58555 3.87772 3.73449
# Velocity P-wave (km/s) = 6.79247 7.16533 6.98139
#
# Compressibility (1/GPa) = 0.01910772
#
# Stress axis : x y z
#
# Youngs Moduli (GPa) = 100.06276 71.63842 62.87678
#
# Poissons Ratio (x) = 0.28819 0.19173
# Poissons Ratio (y) = 0.40254 0.20764
# Poissons Ratio (z) = 0.30512 0.23658
#
# Static dielectric constant tensor:
#      x y z
#    x 1.651340 0.000000 0.000000 
#    y 0.000000 1.632080 0.000000 
#    z 0.000000 0.000000 1.613260 
# 
# From -- ./inp_files/7942.got.cif
#   From: 2010.05.17/outbox.cif.g08.bks.cpg/sg66_4_cif.got.tgz:7942.got - 2010.06.03 17:51:23.
