data_PCOD9496533
_publ_section_title
;
Structure prediction by ZEFSAII (Michael W. Deem and Ramdas Pophale) SiO2 
 PCOD9496533
Probable space group: C C C M
;
_chemical_formula_sum "Si O2"
_cell_formula_units_Z 116
_cell_length_a 28.832291
_cell_length_b 23.216375
_cell_length_c 8.320828
_cell_angle_alpha 90.000000
_cell_angle_beta 90.000000
_cell_angle_gamma 90.000000
_cell_volume 5569.806497
_symmetry_space_group_name_H-M "C C C M"
_symmetry_group_IT_number 66
_symmetry_cell_setting 'orthorhombic'
loop_
_space_group_symop_operation_xyz
x,y,z
-x,-y,z
x,-y,1/2-z
-x,y,1/2-z
-x,-y,-z
x,y,-z
-x,y,1/2+z
x,-y,1/2+z
1/2+x,1/2+y,z
1/2-x,1/2-y,z
1/2+x,1/2-y,1/2-z
1/2-x,1/2+y,1/2-z
1/2-x,1/2-y,-z
1/2+x,1/2+y,-z
1/2-x,1/2+y,1/2+z
1/2+x,1/2-y,1/2+z
loop_
_atom_site_type_symbol
_atom_site_label
_atom_site_fract_x
_atom_site_fract_y
_atom_site_fract_z
Si Si1 0.320477 0.903037 0.695176
Si Si2 0.449957 0.326174 0.692358
Si Si3 0.350183 0.657721 0.808321
Si Si4 0.081559 0.420558 0.312832
Si Si5 0.051231 0.695601 0.309282
Si Si6 0.719362 0.439193 0.690904
Si Si7 0.500000 0.000000 0.750000
Si Si8 0.198590 0.270308 0.193825
O O1 0.324536 0.905045 0.500000
O O2 0.365505 0.933866 0.768126
O O3 0.272148 0.931183 0.749337
O O4 0.314479 0.835285 0.741403
O O5 0.500000 0.348054 0.750000
O O6 0.451817 0.322551 0.500000
O O7 0.402778 0.358064 0.741863
O O8 0.443260 0.261586 0.759549
O O9 0.312459 0.613570 0.743505
O O10 0.336937 0.721821 0.751692
O O11 0.348571 0.656901 0.000000
O O12 0.070781 0.433085 0.500000
O O13 0.081000 0.352300 0.278951
O O14 0.040969 0.452063 0.209349
O O15 0.056850 0.690005 0.500000
O O16 0.000000 0.680446 0.250000
O O17 0.700435 0.500000 0.750000
O O18 0.721350 0.438813 0.500000
O O19 0.250000 0.250000 0.248392
O O20 0.198980 0.269731 0.000000
#
# Coordination Sequence:
#
# PCOD9496533 Si02
#       8
#    16  16  16  16  16  16   4  16
#     4  10  23  42  65  92 124 162 207 258 319 385
#     4  10  21  37  60  93 129 163 203 247 301 365
#     4  11  23  38  61  95 130 167 208 256 309 370
#     4  12  26  43  63  84 112 153 207 266 324 378
#     4  11  21  36  59  85 117 156 198 246 306 370
#     4  11  24  44  66  91 124 166 210 255 307 371
#     4  12  30  48  64  82 114 164 222 276 334 388
#     4  10  19  37  62  92 128 168 207 251 313 384
#
# _framework density 20.826574999999998
#
# number of rings (size 3 to 8) (size 9 to 14) (size 15 to 20)
#    0.000    1.241    2.069    4.759    0.966    8.000 
#    0.000    0.000    0.000    0.414    0.000    2.897 
#    0.000    0.000    0.000    0.000    0.000    0.000 
#
# Total GULP energy -323660.478336 kJ/mol
# GULP energy per Si atom -5580.353075 kJ/mol
# Density = 2.077917 g / cm^3
# Si number density = 20.826575 Si / 1000 Ang^3
#
#
#
# Elastic Constant Matrix: (Units=GPa)
#
#
# Indices 1 2 3 4 5 6 
#
# 1 150.0489 20.2554 22.1519 0.0000 0.0000 0.0000
# 2 20.2554 67.6005 7.4107 0.0000 0.0000 0.0000
# 3 22.1519 7.4107 43.3027 0.0000 0.0000 0.0000
# 4 0.0000 0.0000 0.0000 48.0471 0.0000 0.0000
# 5 0.0000 0.0000 0.0000 0.0000 28.8332 0.0000
# 6 0.0000 0.0000 0.0000 0.0000 0.0000 6.0269
#
#
#
# Elastic Compliance Matrix: (Units=1/GPa)
#
#
# Indices 1 2 3 4 5 6 
#
# 1 0.007428 -0.001844 -0.003484 0.000000 0.000000 0.000000
# 2 -0.001844 0.015533 -0.001715 0.000000 0.000000 0.000000
# 3 -0.003484 -0.001715 0.025169 0.000000 0.000000 0.000000
# 4 0.000000 0.000000 0.000000 0.020813 0.000000 0.000000
# 5 0.000000 0.000000 0.000000 0.000000 0.034682 0.000000
# 6 0.000000 0.000000 0.000000 0.000000 0.000000 0.165922
#
#
# Mechanical properties :
#
#
# Convention : Reuss Voigt Hill
#
# Bulk Modulus (GPa) = 29.37372 40.06536 34.71954
# Shear Modulus (GPa) = 16.95024 30.65704 23.80364
#
# Velocity S-wave (km/s) = 2.85595 3.84085 3.38442
# Velocity P-wave (km/s) = 5.00098 6.24090 5.65503
#
# Compressibility (1/GPa) = 0.03404403
#
# Stress axis : x y z
#
# Youngs Moduli (GPa) = 134.63025 64.37805 39.73118
#
# Poissons Ratio (x) = 0.11869 0.13843
# Poissons Ratio (y) = 0.24821 0.06815
# Poissons Ratio (z) = 0.46908 0.11042
#
# Static dielectric constant tensor:
#      x y z
#    x 1.838610 0.000000 0.000000 
#    y 0.000000 1.723270 0.000000 
#    z 0.000000 0.000000 1.740050 
# 
# From -- ./inp_files/10626.got.cif
#   From: 2010.05.17/outbox.cif.g08.bks.cpg/sg66_6_cif.got.tgz:10626.got - 2010.06.03 17:51:23.
