data_PCOD9496081
_publ_section_title
;
Structure prediction by ZEFSAII (Michael W. Deem and Ramdas Pophale) SiO2 
 PCOD9496081
Probable space group: C C C M
;
_chemical_formula_sum "Si O2"
_cell_formula_units_Z 96
_cell_length_a 28.507231
_cell_length_b 21.054295
_cell_length_c 8.463013
_cell_angle_alpha 90.000000
_cell_angle_beta 90.000000
_cell_angle_gamma 90.000000
_cell_volume 5079.497450
_symmetry_space_group_name_H-M "C C C M"
_symmetry_group_IT_number 66
_symmetry_cell_setting 'orthorhombic'
loop_
_space_group_symop_operation_xyz
x,y,z
-x,-y,z
x,-y,1/2-z
-x,y,1/2-z
-x,-y,-z
x,y,-z
-x,y,1/2+z
x,-y,1/2+z
1/2+x,1/2+y,z
1/2-x,1/2-y,z
1/2+x,1/2-y,1/2-z
1/2-x,1/2+y,1/2-z
1/2-x,1/2-y,-z
1/2+x,1/2+y,-z
1/2-x,1/2+y,1/2+z
1/2+x,1/2-y,1/2+z
loop_
_atom_site_type_symbol
_atom_site_label
_atom_site_fract_x
_atom_site_fract_y
_atom_site_fract_z
Si Si1 0.947353 0.309795 0.189713
Si Si2 0.891361 0.429842 0.311769
Si Si3 0.722036 0.687231 0.693001
Si Si4 0.786149 0.569975 0.310145
Si Si5 0.447185 0.430666 0.689588
Si Si6 0.614340 0.689167 0.692862
O O1 0.925986 0.375708 0.250667
O O2 0.914070 0.251693 0.242985
O O3 0.000000 0.300356 0.250000
O O4 0.947555 0.310598 0.000000
O O5 0.904164 0.500000 0.250000
O O6 0.890941 0.430904 0.500000
O O7 0.838645 0.416099 0.250553
O O8 0.721648 0.687281 0.500000
O O9 0.750000 0.750000 0.743365
O O10 0.750037 0.624248 0.742085
O O11 0.668189 0.689010 0.745961
O O12 0.772986 0.500000 0.250000
O O13 0.787671 0.569147 0.500000
O O14 0.432282 0.500000 0.750000
O O15 0.500000 0.419194 0.750000
O O16 0.448201 0.431849 0.500000
O O17 0.413193 0.374144 0.742565
O O18 0.614736 0.689472 0.500000
#
# Coordination Sequence:
#
# PCOD9496081 Si02
#       6
#    16  16  16  16  16  16
#     4  11  22  38  59  83 111 143 182 227 276 327
#     4  11  22  38  59  83 112 145 182 222 269 324
#     4   9  17  31  53  79 105 138 181 222 262 313
#     4  10  19  33  56  82 110 144 181 223 271 322
#     4  10  19  33  53  77 106 140 179 221 267 318
#     4   9  19  34  54  80 109 143 184 226 268 322
#
# _framework density 18.899507
#
# number of rings (size 3 to 8) (size 9 to 14) (size 15 to 20)
#    0.000    2.000    0.000    6.000    0.000    3.667 
#    0.000    4.167    0.000   14.000    0.000    0.000 
#    0.000    0.000    0.000    0.000    0.000    0.000 
#
# Total GULP energy -268145.797284 kJ/mol
# GULP energy per Si atom -5586.370777 kJ/mol
# Density = 1.885649 g / cm^3
# Si number density = 18.899507 Si / 1000 Ang^3
#
#
#
# Elastic Constant Matrix: (Units=GPa)
#
#
# Indices 1 2 3 4 5 6 
#
# 1 91.1852 66.0522 16.1264 0.0000 0.0000 0.0000
# 2 66.0522 101.4074 19.5325 0.0000 0.0000 0.0000
# 3 16.1264 19.5325 60.7541 0.0000 0.0000 0.0000
# 4 0.0000 0.0000 0.0000 -33.1119 0.0000 0.0000
# 5 0.0000 0.0000 0.0000 0.0000 -3.8030 0.0000
# 6 0.0000 0.0000 0.0000 0.0000 0.0000 43.9746
#
#
#
# Elastic Compliance Matrix: (Units=1/GPa)
#
#
# Indices 1 2 3 4 5 6 
#
# 1 0.020851 -0.013342 -0.001245 0.000000 0.000000 0.000000
# 2 -0.013342 0.019049 -0.002583 0.000000 0.000000 0.000000
# 3 -0.001245 -0.002583 0.017621 0.000000 0.000000 0.000000
# 4 0.000000 0.000000 0.000000 -0.030201 0.000000 0.000000
# 5 0.000000 0.000000 0.000000 0.000000 -0.262951 0.000000
# 6 0.000000 0.000000 0.000000 0.000000 0.000000 0.022740
#
#
# Mechanical properties :
#
#
# Convention : Reuss Voigt Hill
#
# Bulk Modulus (GPa) = 43.13853 50.75210 46.94532
# Shear Modulus (GPa) = -29.27006 11.52099 -8.87454
#
# Velocity S-wave (km/s) = -3.93965 2.47167 -2.16929
# Velocity P-wave (km/s) = 1.47659 5.92094 4.31496
#
# Compressibility (1/GPa) = 0.02318113
#
# Stress axis : x y z
#
# Youngs Moduli (GPa) = 47.95851 52.49639 56.75132
#
# Poissons Ratio (x) = 0.70039 0.07067
# Poissons Ratio (y) = 0.63985 0.14658
# Poissons Ratio (z) = 0.05972 0.13559
#
# Static dielectric constant tensor:
#      x y z
#    x 1.627410 0.000000 0.000000 
#    y 0.000000 1.640390 0.000000 
#    z 0.000000 0.000000 1.653070 
# 
# From -- ./inp_files/8039.got.cif
#   From: 2010.05.17/outbox.cif.g08.bks.cpg/sg66_5_cif.got.tgz:8039.got - 2010.06.03 17:51:23.
