data_PCOD9496150
_publ_section_title
;
Structure prediction by ZEFSAII (Michael W. Deem and Ramdas Pophale) SiO2 
 PCOD9496150
Probable space group: C C C M
;
_chemical_formula_sum "Si O2"
_cell_formula_units_Z 64
_cell_length_a 15.270466
_cell_length_b 8.749615
_cell_length_c 21.813974
_cell_angle_alpha 90.000000
_cell_angle_beta 90.000000
_cell_angle_gamma 90.000000
_cell_volume 2914.580300
_symmetry_space_group_name_H-M "C C C M"
_symmetry_group_IT_number 66
_symmetry_cell_setting 'orthorhombic'
loop_
_space_group_symop_operation_xyz
x,y,z
-x,-y,z
x,-y,1/2-z
-x,y,1/2-z
-x,-y,-z
x,y,-z
-x,y,1/2+z
x,-y,1/2+z
1/2+x,1/2+y,z
1/2-x,1/2-y,z
1/2+x,1/2-y,1/2-z
1/2-x,1/2+y,1/2-z
1/2-x,1/2-y,-z
1/2+x,1/2+y,-z
1/2-x,1/2+y,1/2+z
1/2+x,1/2-y,1/2+z
loop_
_atom_site_type_symbol
_atom_site_label
_atom_site_fract_x
_atom_site_fract_y
_atom_site_fract_z
Si Si1 0.848847 0.183233 0.677270
Si Si2 0.345608 0.822191 0.066894
Si Si3 0.348621 0.681998 0.187541
Si Si4 0.579920 0.123811 0.430608
O O1 0.750000 0.250000 0.673159
O O2 0.885752 0.221119 0.745445
O O3 0.905102 0.254562 0.622415
O O4 0.845549 0.999397 0.677193
O O5 0.250000 0.750000 0.065300
O O6 0.391048 0.755338 0.127208
O O7 0.339241 0.004095 0.073158
O O8 0.386132 0.789006 0.000000
O O9 0.250000 0.750000 0.190088
O O10 0.578615 0.186376 0.500000
O O11 0.500000 0.000000 0.424241
#
# Coordination Sequence:
#
# PCOD9496150 Si02
#       4
#    16  16  16  16
#     4  10  19  33  57  85 113 149 192 237 286 346
#     4   9  17  32  55  79 105 142 187 229 271 330
#     4   9  18  32  53  85 117 144 186 242 292 336
#     4  10  22  39  57  82 116 150 188 238 294 345
#
# _framework density 21.958563999999999
#
# number of rings (size 3 to 8) (size 9 to 14) (size 15 to 20)
#    0.000    2.500    0.000    3.000    0.000    4.500 
#    0.000    3.750    0.000    7.500    0.000    0.000 
#    0.000    0.000    0.000    0.000    0.000    0.000 
#
# Total GULP energy -178318.202490 kJ/mol
# GULP energy per Si atom -5572.443828 kJ/mol
# Density = 2.190859 g / cm^3
# Si number density = 21.958564 Si / 1000 Ang^3
#
#
#
# Elastic Constant Matrix: (Units=GPa)
#
#
# Indices 1 2 3 4 5 6 
#
# 1 63.8403 21.3914 32.2074 0.0000 0.0000 0.0000
# 2 21.3914 90.1856 94.8058 0.0000 0.0000 0.0000
# 3 32.2074 94.8058 285.7417 0.0000 0.0000 0.0000
# 4 0.0000 0.0000 0.0000 46.5192 0.0000 0.0000
# 5 0.0000 0.0000 0.0000 0.0000 -5.6579 0.0000
# 6 0.0000 0.0000 0.0000 0.0000 0.0000 25.7194
#
#
#
# Elastic Compliance Matrix: (Units=1/GPa)
#
#
# Indices 1 2 3 4 5 6 
#
# 1 0.017165 -0.003129 -0.000897 0.000000 0.000000 0.000000
# 2 -0.003129 0.017597 -0.005486 0.000000 0.000000 0.000000
# 3 -0.000897 -0.005486 0.005421 0.000000 0.000000 0.000000
# 4 0.000000 0.000000 0.000000 0.021496 0.000000 0.000000
# 5 0.000000 0.000000 0.000000 0.000000 -0.176744 0.000000
# 6 0.000000 0.000000 0.000000 0.000000 0.000000 0.038881
#
#
# Mechanical properties :
#
#
# Convention : Reuss Voigt Hill
#
# Bulk Modulus (GPa) = 47.25824 81.84186 64.55005
# Shear Modulus (GPa) = -99.78705 32.74034 -33.52336
#
# Velocity S-wave (km/s) = -6.74848 3.86554 -3.91149
# Velocity P-wave (km/s) = 6.25735 7.56804 3.01005
#
# Compressibility (1/GPa) = 0.02116033
#
# Stress axis : x y z
#
# Youngs Moduli (GPa) = 58.25865 56.82667 184.47119
#
# Poissons Ratio (x) = 0.17780 0.16540
# Poissons Ratio (y) = 0.18228 1.01200
# Poissons Ratio (z) = 0.05224 0.31175
#
# Static dielectric constant tensor:
#      x y z
#    x 1.899660 0.000000 0.000000 
#    y 0.000000 1.784900 0.000000 
#    z 0.000000 0.000000 1.888040 
# 
# From -- ./inp_files/55328.got.cif
#   From: 2010.05.17/outbox.cif.g08.bks.cpg/sg66_28_cif.got.tgz:55328.got - 2010.06.03 17:51:23.
