data_PCOD9496018
_publ_section_title
;
Structure prediction by ZEFSAII (Michael W. Deem and Ramdas Pophale) SiO2 
 PCOD9496018
Probable space group: C C C M
;
_chemical_formula_sum "Si O2"
_cell_formula_units_Z 64
_cell_length_a 31.683121
_cell_length_b 14.766016
_cell_length_c 7.860884
_cell_angle_alpha 90.000000
_cell_angle_beta 90.000000
_cell_angle_gamma 90.000000
_cell_volume 3677.584652
_symmetry_space_group_name_H-M "C C C M"
_symmetry_group_IT_number 66
_symmetry_cell_setting 'orthorhombic'
loop_
_space_group_symop_operation_xyz
x,y,z
-x,-y,z
x,-y,1/2-z
-x,y,1/2-z
-x,-y,-z
x,y,-z
-x,y,1/2+z
x,-y,1/2+z
1/2+x,1/2+y,z
1/2-x,1/2-y,z
1/2+x,1/2-y,1/2-z
1/2-x,1/2+y,1/2-z
1/2-x,1/2-y,-z
1/2+x,1/2+y,-z
1/2-x,1/2+y,1/2+z
1/2+x,1/2-y,1/2+z
loop_
_atom_site_type_symbol
_atom_site_label
_atom_site_fract_x
_atom_site_fract_y
_atom_site_fract_z
Si Si1 0.655257 0.592229 0.699556
Si Si2 0.310493 0.164272 0.000000
Si Si3 0.717589 0.625527 0.000000
Si Si4 0.869373 0.703519 0.693347
Si Si5 0.952305 0.394483 0.298745
O O1 0.630924 0.500000 0.750000
O O2 0.666444 0.589714 0.500000
O O3 0.694710 0.591632 0.829129
O O4 0.632086 0.688214 0.728103
O O5 0.339423 0.155922 0.167314
O O6 0.293395 0.267521 0.000000
O O7 0.267429 0.107453 0.000000
O O8 0.854097 0.689524 0.500000
O O9 0.916163 0.664307 0.711273
O O10 0.947067 0.500000 0.250000
O O11 0.947211 0.385649 0.500000
O O12 0.000000 0.368422 0.250000
#
# Coordination Sequence:
#
# PCOD9496018 Si02
#       5
#    16   8   8  16  16
#     4  10  19  32  55  79 108 144 183 225 261 316
#     4   9  18  34  52  75 102 144 174 227 268 314
#     4   9  18  32  52  74 104 136 188 219 270 310
#     4  10  20  35  55  82 109 140 180 222 270 318
#     4  11  21  36  58  82 109 140 176 219 266 323
#
# _framework density 17.402726000000001
#
# number of rings (size 3 to 8) (size 9 to 14) (size 15 to 20)
#    0.000    2.000    2.500    3.000    0.000    1.000 
#    0.000    6.250    0.000    0.750    0.000    5.250 
#    0.000    0.000    0.000    0.000    0.000    0.000 
#
# Total GULP energy -178314.118212 kJ/mol
# GULP energy per Si atom -5572.316194 kJ/mol
# Density = 1.736312 g / cm^3
# Si number density = 17.402726 Si / 1000 Ang^3
#
#
#
# Elastic Constant Matrix: (Units=GPa)
#
#
# Indices 1 2 3 4 5 6 
#
# 1 112.9413 50.6254 40.2211 0.0000 0.0000 0.0000
# 2 50.6254 55.3316 29.1987 0.0000 0.0000 0.0000
# 3 40.2211 29.1987 121.9986 0.0000 0.0000 0.0000
# 4 0.0000 0.0000 0.0000 23.9660 0.0000 0.0000
# 5 0.0000 0.0000 0.0000 0.0000 14.8113 0.0000
# 6 0.0000 0.0000 0.0000 0.0000 0.0000 23.6526
#
#
#
# Elastic Compliance Matrix: (Units=1/GPa)
#
#
# Indices 1 2 3 4 5 6 
#
# 1 0.015406 -0.013065 -0.001952 0.000000 0.000000 0.000000
# 2 -0.013065 0.031766 -0.003295 0.000000 0.000000 0.000000
# 3 -0.001952 -0.003295 0.009629 0.000000 0.000000 0.000000
# 4 0.000000 0.000000 0.000000 0.041726 0.000000 0.000000
# 5 0.000000 0.000000 0.000000 0.000000 0.067516 0.000000
# 6 0.000000 0.000000 0.000000 0.000000 0.000000 0.042279
#
#
# Mechanical properties :
#
#
# Convention : Reuss Voigt Hill
#
# Bulk Modulus (GPa) = 49.56541 58.92911 54.24726
# Shear Modulus (GPa) = 19.86716 23.83441 21.85079
#
# Velocity S-wave (km/s) = 3.38244 3.70480 3.54728
# Velocity P-wave (km/s) = 6.61799 7.22746 6.92943
#
# Compressibility (1/GPa) = 0.02017536
#
# Stress axis : x y z
#
# Youngs Moduli (GPa) = 64.91053 31.48030 103.85231
#
# Poissons Ratio (x) = 0.41130 0.20272
# Poissons Ratio (y) = 0.84808 0.34222
# Poissons Ratio (z) = 0.12671 0.10374
#
# Static dielectric constant tensor:
#      x y z
#    x 1.575570 0.000000 0.000000 
#    y 0.000000 1.631210 0.000000 
#    z 0.000000 0.000000 1.608650 
# 
# From -- ./inp_files/10026.got.cif
#   From: 2010.05.17/outbox.cif.g08.bks.cpg/sg66_6_cif.got.tgz:10026.got - 2010.06.03 17:51:23.
