data_PCOD9496522
_publ_section_title
;
Structure prediction by ZEFSAII (Michael W. Deem and Ramdas Pophale) SiO2 
 PCOD9496522
Probable space group: C C C M
;
_chemical_formula_sum "Si O2"
_cell_formula_units_Z 96
_cell_length_a 16.372961
_cell_length_b 11.272880
_cell_length_c 29.533230
_cell_angle_alpha 90.000000
_cell_angle_beta 90.000000
_cell_angle_gamma 90.000000
_cell_volume 5450.960801
_symmetry_space_group_name_H-M "C C C M"
_symmetry_group_IT_number 66
_symmetry_cell_setting 'orthorhombic'
loop_
_space_group_symop_operation_xyz
x,y,z
-x,-y,z
x,-y,1/2-z
-x,y,1/2-z
-x,-y,-z
x,y,-z
-x,y,1/2+z
x,-y,1/2+z
1/2+x,1/2+y,z
1/2-x,1/2-y,z
1/2+x,1/2-y,1/2-z
1/2-x,1/2+y,1/2-z
1/2-x,1/2-y,-z
1/2+x,1/2+y,-z
1/2-x,1/2+y,1/2+z
1/2+x,1/2-y,1/2+z
loop_
_atom_site_type_symbol
_atom_site_label
_atom_site_fract_x
_atom_site_fract_y
_atom_site_fract_z
Si Si1 0.864582 0.500000 0.250000
Si Si2 0.557180 0.386631 0.821274
Si Si3 0.000000 0.306017 0.750000
Si Si4 0.004477 0.305862 0.000000
Si Si5 0.447584 0.382103 0.427532
Si Si6 0.243002 0.891004 0.821882
Si Si7 0.240191 0.109257 0.570828
Si Si8 0.139005 0.500732 0.500000
O O1 0.924217 0.391003 0.262261
O O2 0.807584 0.460392 0.208451
O O3 0.500000 0.500000 0.814675
O O4 0.527428 0.278519 0.790790
O O5 0.555336 0.350814 0.874223
O O6 0.649872 0.422749 0.810076
O O7 0.986930 0.222445 0.043192
O O8 0.091923 0.373064 0.000000
O O9 0.933924 0.404986 0.000000
O O10 0.500000 0.500000 0.433287
O O11 0.354497 0.412092 0.440873
O O12 0.250000 0.750000 0.813593
O O13 0.254489 0.909878 0.875631
O O14 0.250000 0.250000 0.561223
O O15 0.302847 0.029820 0.542541
#
# Coordination Sequence:
#
# PCOD9496522 Si02
#       8
#     8  16   8   8  16  16  16   8
#     4  11  24  36  55  84 118 150 185 230 298 351
#     4  10  22  39  61  84 111 152 198 237 285 342
#     4  11  23  38  54  82 117 151 184 234 294 347
#     4  11  22  35  56  89 122 149 190 246 291 339
#     4  10  21  39  60  84 113 151 194 238 288 344
#     4  10  21  38  58  84 114 151 193 239 286 341
#     4  10  19  37  61  82 113 152 198 236 276 345
#     4  11  22  34  58  92 116 152 197 238 291 341
#
# _framework density 17.611573
#
# number of rings (size 3 to 8) (size 9 to 14) (size 15 to 20)
#    0.000    1.667    3.333    1.250    2.333    1.333 
#    0.000    5.000    0.000    6.000    0.000    0.000 
#    0.000    0.000    0.000    0.000    0.000    0.000 
#
# Total GULP energy -267960.317554 kJ/mol
# GULP energy per Si atom -5582.506616 kJ/mol
# Density = 1.757149 g / cm^3
# Si number density = 17.611573 Si / 1000 Ang^3
#
#
#
# Elastic Constant Matrix: (Units=GPa)
#
#
# Indices 1 2 3 4 5 6 
#
# 1 169.8198 69.4121 75.3864 0.0000 0.0000 0.0000
# 2 69.4121 81.3606 66.5619 0.0000 0.0000 0.0000
# 3 75.3864 66.5619 97.6574 0.0000 0.0000 0.0000
# 4 0.0000 0.0000 0.0000 35.0417 0.0000 0.0000
# 5 0.0000 0.0000 0.0000 0.0000 22.8194 0.0000
# 6 0.0000 0.0000 0.0000 0.0000 0.0000 30.4017
#
#
#
# Elastic Compliance Matrix: (Units=1/GPa)
#
#
# Indices 1 2 3 4 5 6 
#
# 1 0.009747 -0.004883 -0.004196 0.000000 0.000000 0.000000
# 2 -0.004883 0.030229 -0.016835 0.000000 0.000000 0.000000
# 3 -0.004196 -0.016835 0.024954 0.000000 0.000000 0.000000
# 4 0.000000 0.000000 0.000000 0.028537 0.000000 0.000000
# 5 0.000000 0.000000 0.000000 0.000000 0.043822 0.000000
# 6 0.000000 0.000000 0.000000 0.000000 0.000000 0.032893
#
#
# Mechanical properties :
#
#
# Convention : Reuss Voigt Hill
#
# Bulk Modulus (GPa) = 76.32101 85.72874 81.02487
# Shear Modulus (GPa) = 22.08703 26.81770 24.45237
#
# Velocity S-wave (km/s) = 3.54520 3.90645 3.73020
# Velocity P-wave (km/s) = 7.75807 8.31447 8.04108
#
# Compressibility (1/GPa) = 0.01310255
#
# Stress axis : x y z
#
# Youngs Moduli (GPa) = 102.59389 33.08078 40.07454
#
# Poissons Ratio (x) = 0.16152 0.16817
# Poissons Ratio (y) = 0.50092 0.67464
# Poissons Ratio (z) = 0.43052 0.55690
#
# Static dielectric constant tensor:
#      x y z
#    x 1.608420 0.000000 0.000000 
#    y 0.000000 1.567730 0.000000 
#    z 0.000000 0.000000 1.608350 
# 
# From -- ./inp_files/69510.got.cif
#   From: 2010.05.17/outbox.cif.g08.bks.cpg/sg66_35_cif.got.tgz:69510.got - 2010.06.03 17:51:23.
