data_PCOD9496774
_publ_section_title
;
Structure prediction by ZEFSAII (Michael W. Deem and Ramdas Pophale) SiO2 
 PCOD9496774
Probable space group: C C C M
;
_chemical_formula_sum "Si O2"
_cell_formula_units_Z 88
_cell_length_a 19.267348
_cell_length_b 9.543770
_cell_length_c 25.919874
_cell_angle_alpha 90.000000
_cell_angle_beta 90.000000
_cell_angle_gamma 90.000000
_cell_volume 4766.227763
_symmetry_space_group_name_H-M "C C C M"
_symmetry_group_IT_number 66
_symmetry_cell_setting 'orthorhombic'
loop_
_space_group_symop_operation_xyz
x,y,z
-x,-y,z
x,-y,1/2-z
-x,y,1/2-z
-x,-y,-z
x,y,-z
-x,y,1/2+z
x,-y,1/2+z
1/2+x,1/2+y,z
1/2-x,1/2-y,z
1/2+x,1/2-y,1/2-z
1/2-x,1/2+y,1/2-z
1/2-x,1/2-y,-z
1/2+x,1/2+y,-z
1/2-x,1/2+y,1/2+z
1/2+x,1/2-y,1/2+z
loop_
_atom_site_type_symbol
_atom_site_label
_atom_site_fract_x
_atom_site_fract_y
_atom_site_fract_z
Si Si1 0.873708 0.389834 0.703004
Si Si2 0.180379 0.842719 0.117196
Si Si3 0.774978 0.593775 0.104280
Si Si4 0.108815 0.389932 0.559024
Si Si5 0.679244 0.342014 0.232662
Si Si6 0.000000 0.500000 0.361491
O O1 0.865574 0.500000 0.750000
O O2 0.812140 0.404668 0.660713
O O3 0.870103 0.236797 0.727523
O O4 0.945825 0.418030 0.674251
O O5 0.250000 0.750000 0.121643
O O6 0.138877 0.762845 0.073116
O O7 0.149270 0.837228 0.174653
O O8 0.206654 0.997644 0.105662
O O9 0.750000 0.750000 0.090159
O O10 0.832009 0.509499 0.069959
O O11 0.086868 0.399334 0.500000
O O12 0.047905 0.411363 0.600046
O O13 0.692719 0.500000 0.250000
O O14 0.750000 0.250000 0.233567
#
# Coordination Sequence:
#
# PCOD9496774 Si02
#       6
#    16  16  16  16  16   8
#     4  11  20  33  55  81 112 152 186 218 267 328
#     4   9  18  31  50  81 112 137 172 213 260 323
#     4  10  20  33  53  85 117 139 168 219 277 334
#     4  10  21  38  59  77 100 140 187 234 279 324
#     4  11  19  30  53  86 119 147 173 209 268 336
#     4  10  22  38  56  76 102 140 196 242 270 314
#
# _framework density 18.463236999999999
#
# number of rings (size 3 to 8) (size 9 to 14) (size 15 to 20)
#    0.000    1.818    0.000    8.182    0.000    3.636 
#    0.000    0.000    0.000   24.000    0.000   12.727 
#    0.000    0.000    0.000    0.000    0.000    0.000 
#
# Total GULP energy -245437.893112 kJ/mol
# GULP energy per Si atom -5578.133934 kJ/mol
# Density = 1.842121 g / cm^3
# Si number density = 18.463237 Si / 1000 Ang^3
#
#
#
# Elastic Constant Matrix: (Units=GPa)
#
#
# Indices 1 2 3 4 5 6 
#
# 1 64.3525 35.2826 19.3330 0.0000 0.0000 0.0000
# 2 35.2826 148.0421 33.1645 0.0000 0.0000 0.0000
# 3 19.3330 33.1645 71.4306 0.0000 0.0000 0.0000
# 4 0.0000 0.0000 0.0000 35.9620 0.0000 0.0000
# 5 0.0000 0.0000 0.0000 0.0000 67.6821 0.0000
# 6 0.0000 0.0000 0.0000 0.0000 0.0000 7.3400
#
#
#
# Elastic Compliance Matrix: (Units=1/GPa)
#
#
# Indices 1 2 3 4 5 6 
#
# 1 0.018552 -0.003679 -0.003313 0.000000 0.000000 0.000000
# 2 -0.003679 0.008269 -0.002843 0.000000 0.000000 0.000000
# 3 -0.003313 -0.002843 0.016216 0.000000 0.000000 0.000000
# 4 0.000000 0.000000 0.000000 0.027807 0.000000 0.000000
# 5 0.000000 0.000000 0.000000 0.000000 0.014775 0.000000
# 6 0.000000 0.000000 0.000000 0.000000 0.000000 0.136240
#
#
# Mechanical properties :
#
#
# Convention : Reuss Voigt Hill
#
# Bulk Modulus (GPa) = 42.79710 51.04283 46.91996
# Shear Modulus (GPa) = 20.05463 35.26648 27.66056
#
# Velocity S-wave (km/s) = 3.29932 4.37520 3.87478
# Velocity P-wave (km/s) = 6.14361 7.29581 6.74436
#
# Compressibility (1/GPa) = 0.02336607
#
# Stress axis : x y z
#
# Youngs Moduli (GPa) = 53.90271 120.93855 61.66620
#
# Poissons Ratio (x) = 0.44497 0.20429
# Poissons Ratio (y) = 0.19832 0.17533
# Poissons Ratio (z) = 0.17857 0.34386
#
# Static dielectric constant tensor:
#      x y z
#    x 1.664090 0.000000 0.000000 
#    y 0.000000 1.660980 0.000000 
#    z 0.000000 0.000000 1.655300 
# 
# From -- ./inp_files/59381.got.cif
#   From: 2010.05.17/outbox.cif.g08.bks.cpg/sg66_30_cif.got.tgz:59381.got - 2010.06.03 17:51:23.
