data_PCOD9496850
_publ_section_title
;
Structure prediction by ZEFSAII (Michael W. Deem and Ramdas Pophale) SiO2 
 PCOD9496850
Probable space group: C C C M
;
_chemical_formula_sum "Si O2"
_cell_formula_units_Z 80
_cell_length_a 27.250686
_cell_length_b 18.776285
_cell_length_c 8.847052
_cell_angle_alpha 90.000000
_cell_angle_beta 90.000000
_cell_angle_gamma 90.000000
_cell_volume 4526.741431
_symmetry_space_group_name_H-M "C C C M"
_symmetry_group_IT_number 66
_symmetry_cell_setting 'orthorhombic'
loop_
_space_group_symop_operation_xyz
x,y,z
-x,-y,z
x,-y,1/2-z
-x,y,1/2-z
-x,-y,-z
x,y,-z
-x,y,1/2+z
x,-y,1/2+z
1/2+x,1/2+y,z
1/2-x,1/2-y,z
1/2+x,1/2-y,1/2-z
1/2-x,1/2+y,1/2-z
1/2-x,1/2-y,-z
1/2+x,1/2+y,-z
1/2-x,1/2+y,1/2+z
1/2+x,1/2-y,1/2+z
loop_
_atom_site_type_symbol
_atom_site_label
_atom_site_fract_x
_atom_site_fract_y
_atom_site_fract_z
Si Si1 0.054169 0.427025 0.179117
Si Si2 0.848528 0.075287 0.680113
Si Si3 0.199977 0.210924 0.319824
Si Si4 0.598092 0.789721 0.677836
Si Si5 0.947549 0.137530 0.819132
O O1 0.074778 0.500000 0.250000
O O2 0.084546 0.357706 0.224609
O O3 0.000000 0.417940 0.250000
O O4 0.050188 0.434310 0.000000
O O5 0.850855 0.071540 0.500000
O O6 0.812523 0.138507 0.732898
O O7 0.902332 0.095090 0.746090
O O8 0.833367 0.000000 0.750000
O O9 0.202138 0.195255 0.500000
O O10 0.250000 0.250000 0.275215
O O11 0.153402 0.262644 0.297063
O O12 0.592086 0.806970 0.500000
O O13 0.563896 0.721199 0.711050
O O14 0.000000 0.118025 0.750000
O O15 0.946969 0.127392 0.000000
#
# Coordination Sequence:
#
# PCOD9496850 Si02
#       5
#    16  16  16  16  16
#     4  11  21  33  50  72 102 138 176 215 260 311
#     4  11  22  37  57  81 111 144 180 220 264 315
#     4   9  19  38  62  84 107 137 174 219 270 319
#     4   9  18  33  53  77 105 135 171 215 261 312
#     4  10  20  34  53  79 110 144 181 219 262 313
#
# _framework density 17.672756
#
# number of rings (size 3 to 8) (size 9 to 14) (size 15 to 20)
#    0.000    2.000    0.000    6.600    0.000    6.400 
#    0.000    3.000    0.000    0.000    0.000    0.000 
#    0.000    0.000    0.000    0.000    0.000    0.000 
#
# Total GULP energy -223399.373566 kJ/mol
# GULP energy per Si atom -5584.984339 kJ/mol
# Density = 1.763253 g / cm^3
# Si number density = 17.672756 Si / 1000 Ang^3
#
#
#
# Elastic Constant Matrix: (Units=GPa)
#
#
# Indices 1 2 3 4 5 6 
#
# 1 82.7314 37.0499 38.9905 0.0000 0.0000 0.0000
# 2 37.0499 113.1762 78.6031 0.0000 0.0000 0.0000
# 3 38.9905 78.6031 120.3222 0.0000 0.0000 0.0000
# 4 0.0000 0.0000 0.0000 30.7930 0.0000 0.0000
# 5 0.0000 0.0000 0.0000 0.0000 23.6107 0.0000
# 6 0.0000 0.0000 0.0000 0.0000 0.0000 5.6634
#
#
#
# Elastic Compliance Matrix: (Units=1/GPa)
#
#
# Indices 1 2 3 4 5 6 
#
# 1 0.014721 -0.002757 -0.002969 0.000000 0.000000 0.000000
# 2 -0.002757 0.016690 -0.010010 0.000000 0.000000 0.000000
# 3 -0.002969 -0.010010 0.015813 0.000000 0.000000 0.000000
# 4 0.000000 0.000000 0.000000 0.032475 0.000000 0.000000
# 5 0.000000 0.000000 0.000000 0.000000 0.042354 0.000000
# 6 0.000000 0.000000 0.000000 0.000000 0.000000 0.176571
#
#
# Mechanical properties :
#
#
# Convention : Reuss Voigt Hill
#
# Bulk Modulus (GPa) = 63.48563 69.50189 66.49376
# Shear Modulus (GPa) = 14.90990 22.78584 18.84787
#
# Velocity S-wave (km/s) = 2.90774 3.59461 3.26926
# Velocity P-wave (km/s) = 6.87562 7.52601 7.20815
#
# Compressibility (1/GPa) = 0.01575159
#
# Stress axis : x y z
#
# Youngs Moduli (GPa) = 67.92818 59.91449 63.24091
#
# Poissons Ratio (x) = 0.16518 0.18779
# Poissons Ratio (y) = 0.18727 0.63304
# Poissons Ratio (z) = 0.20171 0.59975
#
# Static dielectric constant tensor:
#      x y z
#    x 1.583670 0.000000 0.000000 
#    y 0.000000 1.601480 0.000000 
#    z 0.000000 0.000000 1.588890 
# 
# From -- ./inp_files/6679.got.cif
#   From: 2010.05.17/outbox.cif.g08.bks.cpg/sg66_4_cif.got.tgz:6679.got - 2010.06.03 17:51:23.
