data_PCOD9496482
_publ_section_title
;
Structure prediction by ZEFSAII (Michael W. Deem and Ramdas Pophale) SiO2 
 PCOD9496482
Probable space group: C C C M
;
_chemical_formula_sum "Si O2"
_cell_formula_units_Z 64
_cell_length_a 12.259752
_cell_length_b 8.884201
_cell_length_c 25.697069
_cell_angle_alpha 90.000000
_cell_angle_beta 90.000000
_cell_angle_gamma 90.000000
_cell_volume 2798.875956
_symmetry_space_group_name_H-M "C C C M"
_symmetry_group_IT_number 66
_symmetry_cell_setting 'orthorhombic'
loop_
_space_group_symop_operation_xyz
x,y,z
-x,-y,z
x,-y,1/2-z
-x,y,1/2-z
-x,-y,-z
x,y,-z
-x,y,1/2+z
x,-y,1/2+z
1/2+x,1/2+y,z
1/2-x,1/2-y,z
1/2+x,1/2-y,1/2-z
1/2-x,1/2+y,1/2-z
1/2-x,1/2-y,-z
1/2+x,1/2+y,-z
1/2-x,1/2+y,1/2+z
1/2+x,1/2-y,1/2+z
loop_
_atom_site_type_symbol
_atom_site_label
_atom_site_fract_x
_atom_site_fract_y
_atom_site_fract_z
Si Si1 0.880000 0.249722 0.844591
Si Si2 0.000000 0.216885 0.250000
Si Si3 0.825258 0.558259 0.802278
Si Si4 0.250000 0.750000 0.389971
Si Si5 0.981060 0.681234 0.940152
O O1 0.750000 0.250000 0.848984
O O2 0.932732 0.149610 0.798764
O O3 0.895741 0.420944 0.824162
O O4 0.939592 0.236845 0.899382
O O5 0.905551 0.311525 0.281100
O O6 0.768132 0.500000 0.750000
O O7 0.749025 0.612131 0.848938
O O8 0.141865 0.724289 0.423381
O O9 0.000000 0.500000 0.935962
O O10 0.001050 0.722765 0.000000
#
# Coordination Sequence:
#
# PCOD9496482 Si02
#       5
#    16   8  16   8  16
#     4  11  21  36  61  91 129 168 207 263 336 398
#     4  10  19  36  60  87 120 165 212 260 315 380
#     4  10  21  34  60  94 124 166 211 257 326 387
#     4  12  21  40  70  94 126 166 225 280 320 392
#     4  11  23  42  67  95 123 166 227 280 326 385
#
# _framework density 22.866322
#
# number of rings (size 3 to 8) (size 9 to 14) (size 15 to 20)
#    0.000    1.250    5.000    3.750    7.000    0.500 
#    0.000    1.250    0.000    7.500    0.000    0.000 
#    0.000    0.000    0.000    0.000    0.000    0.000 
#
# Total GULP energy -178537.691609 kJ/mol
# GULP energy per Si atom -5579.302863 kJ/mol
# Density = 2.281428 g / cm^3
# Si number density = 22.866322 Si / 1000 Ang^3
#
#
#
# Elastic Constant Matrix: (Units=GPa)
#
#
# Indices 1 2 3 4 5 6 
#
# 1 181.9793 20.9951 100.5514 0.0000 0.0000 0.0000
# 2 20.9951 22.9363 5.1900 0.0000 0.0000 0.0000
# 3 100.5514 5.1900 230.6672 0.0000 0.0000 0.0000
# 4 0.0000 0.0000 0.0000 3.6858 0.0000 0.0000
# 5 0.0000 0.0000 0.0000 0.0000 29.0746 0.0000
# 6 0.0000 0.0000 0.0000 0.0000 0.0000 39.8610
#
#
#
# Elastic Compliance Matrix: (Units=1/GPa)
#
#
# Indices 1 2 3 4 5 6 
#
# 1 0.008145 -0.006687 -0.003400 0.000000 0.000000 0.000000
# 2 -0.006687 0.049311 0.001805 0.000000 0.000000 0.000000
# 3 -0.003400 0.001805 0.005777 0.000000 0.000000 0.000000
# 4 0.000000 0.000000 0.000000 0.271313 0.000000 0.000000
# 5 0.000000 0.000000 0.000000 0.000000 0.034394 0.000000
# 6 0.000000 0.000000 0.000000 0.000000 0.000000 0.025087
#
#
# Mechanical properties :
#
#
# Convention : Reuss Voigt Hill
#
# Bulk Modulus (GPa) = 21.42691 76.56175 48.99433
# Shear Modulus (GPa) = 11.73303 35.11405 23.42354
#
# Velocity S-wave (km/s) = 2.26766 3.92295 3.20405
# Velocity P-wave (km/s) = 4.03079 7.35353 5.92966
#
# Compressibility (1/GPa) = 0.04667029
#
# Stress axis : x y z
#
# Youngs Moduli (GPa) = 122.76958 20.27940 173.10488
#
# Poissons Ratio (x) = 0.13560 0.58860
# Poissons Ratio (y) = 0.82091 -0.31250
# Poissons Ratio (z) = 0.41745 -0.03661
#
# Static dielectric constant tensor:
#      x y z
#    x 1.895550 0.000000 0.000000 
#    y 0.000000 2.025040 0.000000 
#    z 0.000000 0.000000 1.844960 
# 
# From -- ./inp_files/56346.got.cif
#   From: 2010.05.17/outbox.cif.g08.bks.cpg/sg66_29_cif.got.tgz:56346.got - 2010.06.03 17:51:23.
