data_PCOD9496167
_publ_section_title
;
Structure prediction by ZEFSAII (Michael W. Deem and Ramdas Pophale) SiO2 
 PCOD9496167
Probable space group: C C C M
;
_chemical_formula_sum "Si O2"
_cell_formula_units_Z 72
_cell_length_a 22.622585
_cell_length_b 8.363668
_cell_length_c 19.211610
_cell_angle_alpha 90.000000
_cell_angle_beta 90.000000
_cell_angle_gamma 90.000000
_cell_volume 3634.986275
_symmetry_space_group_name_H-M "C C C M"
_symmetry_group_IT_number 66
_symmetry_cell_setting 'orthorhombic'
loop_
_space_group_symop_operation_xyz
x,y,z
-x,-y,z
x,-y,1/2-z
-x,y,1/2-z
-x,-y,-z
x,y,-z
-x,y,1/2+z
x,-y,1/2+z
1/2+x,1/2+y,z
1/2-x,1/2-y,z
1/2+x,1/2-y,1/2-z
1/2-x,1/2+y,1/2-z
1/2-x,1/2-y,-z
1/2+x,1/2+y,-z
1/2-x,1/2+y,1/2+z
1/2+x,1/2-y,1/2+z
loop_
_atom_site_type_symbol
_atom_site_label
_atom_site_fract_x
_atom_site_fract_y
_atom_site_fract_z
Si Si1 0.185544 0.666064 0.615867
Si Si2 0.950678 0.860379 0.500000
Si Si3 0.348312 0.607176 0.500000
Si Si4 0.477172 0.317261 0.349872
Si Si5 0.724576 0.067219 0.000000
Si Si6 0.913170 0.323282 0.725552
O O1 0.250000 0.750000 0.623926
O O2 0.146290 0.781495 0.566846
O O3 0.192035 0.499823 0.570752
O O4 0.150353 0.668032 0.688261
O O5 0.956966 0.770980 0.427182
O O6 0.890017 0.956544 0.500000
O O7 0.000000 0.000000 0.500000
O O8 0.282145 0.543629 0.500000
O O9 0.500000 0.500000 0.348867
O O10 0.534929 0.220958 0.327638
O O11 0.425797 0.289879 0.292518
O O12 0.750000 0.250000 0.000000
O O13 0.925791 0.500000 0.750000
#
# Coordination Sequence:
#
# PCOD9496167 Si02
#       6
#    16   8   8  16   8  16
#     4   9  19  38  60  80 112 156 191 228 285 343
#     4  10  19  33  58  90 110 140 193 234 276 341
#     4   9  18  35  60  86 115 145 183 236 282 334
#     4  10  21  38  60  84 113 151 190 235 285 343
#     4   9  19  36  58  88 117 145 187 240 287 329
#     4  11  22  38  54  80 118 152 187 235 288 338
#
# _framework density 19.807503000000001
#
# number of rings (size 3 to 8) (size 9 to 14) (size 15 to 20)
#    0.000    2.222    0.000    6.667    0.000    2.667 
#    0.000   13.333    0.000    0.000    0.000    0.000 
#    0.000    0.000    0.000    0.000    0.000    0.000 
#
# Total GULP energy -200468.035140 kJ/mol
# GULP energy per Si atom -5568.556532 kJ/mol
# Density = 1.976242 g / cm^3
# Si number density = 19.807503 Si / 1000 Ang^3
#
#
#
# Elastic Constant Matrix: (Units=GPa)
#
#
# Indices 1 2 3 4 5 6 
#
# 1 80.2447 13.0915 63.1530 0.0000 0.0000 0.0000
# 2 13.0915 86.5870 50.0717 0.0000 0.0000 0.0000
# 3 63.1530 50.0717 161.0441 0.0000 0.0000 0.0000
# 4 0.0000 0.0000 0.0000 -13.6785 0.0000 0.0000
# 5 0.0000 0.0000 0.0000 0.0000 -527.1640 0.0000
# 6 0.0000 0.0000 0.0000 0.0000 0.0000 30.3697
#
#
#
# Elastic Compliance Matrix: (Units=1/GPa)
#
#
# Indices 1 2 3 4 5 6 
#
# 1 0.018223 0.001679 -0.007668 0.000000 0.000000 0.000000
# 2 0.001679 0.014236 -0.005085 0.000000 0.000000 0.000000
# 3 -0.007668 -0.005085 0.010797 0.000000 0.000000 0.000000
# 4 0.000000 0.000000 0.000000 -0.073107 0.000000 0.000000
# 5 0.000000 0.000000 0.000000 0.000000 -0.001897 0.000000
# 6 0.000000 0.000000 0.000000 0.000000 0.000000 0.032928
#
#
# Mechanical properties :
#
#
# Convention : Reuss Voigt Hill
#
# Bulk Modulus (GPa) = 47.37397 64.50091 55.93744
# Shear Modulus (GPa) = 164.67919 -88.65725 38.01097
#
# Velocity S-wave (km/s) = 9.12799 -6.69751 4.38541
# Velocity P-wave (km/s) = 11.62165 5.21289 7.34468
#
# Compressibility (1/GPa) = 0.02110864
#
# Stress axis : x y z
#
# Youngs Moduli (GPa) = 54.87644 70.24685 92.61504
#
# Poissons Ratio (x) = -0.11795 0.71018
# Poissons Ratio (y) = -0.09214 0.47091
# Poissons Ratio (z) = 0.42080 0.35717
#
# Static dielectric constant tensor:
#      x y z
#    x 1.657500 0.000000 0.000000 
#    y 0.000000 1.767620 0.000000 
#    z 0.000000 0.000000 1.793400 
# 
# From -- ./inp_files/43472.got.cif
#   From: 2010.05.17/outbox.cif.g08.bks.cpg/sg66_22_cif.got.tgz:43472.got - 2010.06.03 17:51:23.
