data_PCOD9496221
_publ_section_title
;
Structure prediction by ZEFSAII (Michael W. Deem and Ramdas Pophale) SiO2 
 PCOD9496221
Probable space group: C C C M
;
_chemical_formula_sum "Si O2"
_cell_formula_units_Z 96
_cell_length_a 8.491131
_cell_length_b 22.811926
_cell_length_c 23.886330
_cell_angle_alpha 90.000000
_cell_angle_beta 90.000000
_cell_angle_gamma 90.000000
_cell_volume 4626.759477
_symmetry_space_group_name_H-M "C C C M"
_symmetry_group_IT_number 66
_symmetry_cell_setting 'orthorhombic'
loop_
_space_group_symop_operation_xyz
x,y,z
-x,-y,z
x,-y,1/2-z
-x,y,1/2-z
-x,-y,-z
x,y,-z
-x,y,1/2+z
x,-y,1/2+z
1/2+x,1/2+y,z
1/2-x,1/2-y,z
1/2+x,1/2-y,1/2-z
1/2-x,1/2+y,1/2-z
1/2-x,1/2-y,-z
1/2+x,1/2+y,-z
1/2-x,1/2+y,1/2+z
1/2+x,1/2-y,1/2+z
loop_
_atom_site_type_symbol
_atom_site_label
_atom_site_fract_x
_atom_site_fract_y
_atom_site_fract_z
Si Si1 0.043969 0.336133 0.109064
Si Si2 0.990422 0.213550 0.062491
Si Si3 0.171365 0.640519 0.273080
Si Si4 0.559728 0.437436 0.673729
Si Si5 0.794713 0.161582 0.159151
Si Si6 0.302734 0.405091 0.938313
O O1 0.135768 0.327537 0.168205
O O2 0.124286 0.389356 0.076613
O O3 0.058188 0.278135 0.071665
O O4 0.866357 0.351707 0.126269
O O5 0.883303 0.205560 0.117608
O O6 0.109490 0.158581 0.064327
O O7 0.916105 0.210768 0.000000
O O8 0.300417 0.591242 0.289305
O O9 0.243610 0.678358 0.222223
O O10 0.000000 0.618918 0.250000
O O11 0.500000 0.500000 0.692374
O O12 0.414715 0.392174 0.668336
O O13 0.628608 0.443451 0.611213
O O14 0.323393 0.429355 0.000000
#
# Coordination Sequence:
#
# PCOD9496221 Si02
#       6
#    16  16  16  16  16  16
#     4  10  19  34  54  80 115 151 186 232 282 340
#     4  10  20  35  57  84 114 153 196 235 284 344
#     4   9  20  39  56  79 114 147 187 235 286 344
#     4  10  21  39  62  83 108 146 190 238 293 348
#     4  10  21  36  53  81 115 146 187 238 290 345
#     4   9  19  36  57  82 113 149 191 237 284 341
#
# _framework density 20.748863
#
# number of rings (size 3 to 8) (size 9 to 14) (size 15 to 20)
#    0.000    2.333    0.000    2.000    0.000    5.000 
#    0.000   38.333    0.000    1.000    0.000    0.000 
#    0.000    0.000    0.000    0.000    0.000    0.000 
#
# Total GULP energy -267595.753389 kJ/mol
# GULP energy per Si atom -5574.911529 kJ/mol
# Density = 2.070164 g / cm^3
# Si number density = 20.748863 Si / 1000 Ang^3
#
#
#
# Elastic Constant Matrix: (Units=GPa)
#
#
# Indices 1 2 3 4 5 6 
#
# 1 71.6887 26.9090 24.8319 0.0000 0.0000 0.0000
# 2 26.9090 60.8869 18.9922 0.0000 0.0000 0.0000
# 3 24.8319 18.9922 157.8957 0.0000 0.0000 0.0000
# 4 0.0000 0.0000 0.0000 2.2673 0.0000 0.0000
# 5 0.0000 0.0000 0.0000 0.0000 16.1485 0.0000
# 6 0.0000 0.0000 0.0000 0.0000 0.0000 18.5776
#
#
#
# Elastic Compliance Matrix: (Units=1/GPa)
#
#
# Indices 1 2 3 4 5 6 
#
# 1 0.017236 -0.007036 -0.001864 0.000000 0.000000 0.000000
# 2 -0.007036 0.019936 -0.001291 0.000000 0.000000 0.000000
# 3 -0.001864 -0.001291 0.006782 0.000000 0.000000 0.000000
# 4 0.000000 0.000000 0.000000 0.441059 0.000000 0.000000
# 5 0.000000 0.000000 0.000000 0.000000 0.061925 0.000000
# 6 0.000000 0.000000 0.000000 0.000000 0.000000 0.053828
#
#
# Mechanical properties :
#
#
# Convention : Reuss Voigt Hill
#
# Bulk Modulus (GPa) = 42.42574 47.99305 45.20939
# Shear Modulus (GPa) = 7.94905 22.04790 14.99847
#
# Velocity S-wave (km/s) = 1.95944 3.26330 2.69152
# Velocity P-wave (km/s) = 5.06072 6.11388 5.61206
#
# Compressibility (1/GPa) = 0.02357060
#
# Stress axis : x y z
#
# Youngs Moduli (GPa) = 58.01819 50.15987 147.45254
#
# Poissons Ratio (x) = 0.35292 0.27490
# Poissons Ratio (y) = 0.40821 0.19043
# Poissons Ratio (z) = 0.10817 0.06478
#
# Static dielectric constant tensor:
#      x y z
#    x 1.789630 0.000000 0.000000 
#    y 0.000000 1.691380 0.000000 
#    z 0.000000 0.000000 1.760910 
# 
# From -- ./inp_files/55592.got.cif
#   From: 2010.05.17/outbox.cif.g08.bks.cpg/sg66_28_cif.got.tgz:55592.got - 2010.06.03 17:51:23.
