data_PCOD9496490
_publ_section_title
;
Structure prediction by ZEFSAII (Michael W. Deem and Ramdas Pophale) SiO2 
 PCOD9496490
Probable space group: C C C M
;
_chemical_formula_sum "Si O2"
_cell_formula_units_Z 104
_cell_length_a 29.245179
_cell_length_b 10.240493
_cell_length_c 16.008602
_cell_angle_alpha 90.000000
_cell_angle_beta 90.000000
_cell_angle_gamma 90.000000
_cell_volume 4794.336984
_symmetry_space_group_name_H-M "C C C M"
_symmetry_group_IT_number 66
_symmetry_cell_setting 'orthorhombic'
loop_
_space_group_symop_operation_xyz
x,y,z
-x,-y,z
x,-y,1/2-z
-x,y,1/2-z
-x,-y,-z
x,y,-z
-x,y,1/2+z
x,-y,1/2+z
1/2+x,1/2+y,z
1/2-x,1/2-y,z
1/2+x,1/2-y,1/2-z
1/2-x,1/2+y,1/2-z
1/2-x,1/2-y,-z
1/2+x,1/2+y,-z
1/2-x,1/2+y,1/2+z
1/2+x,1/2-y,1/2+z
loop_
_atom_site_type_symbol
_atom_site_label
_atom_site_fract_x
_atom_site_fract_y
_atom_site_fract_z
Si Si1 0.838811 0.564011 0.095860
Si Si2 0.861135 0.019845 0.597651
Si Si3 0.419140 0.142385 0.211232
Si Si4 0.349174 0.770099 0.152627
Si Si5 0.500000 0.298739 0.750000
Si Si6 0.572682 0.500000 0.250000
Si Si7 0.259785 0.541884 0.596287
Si Si8 0.750000 0.750000 0.347227
O O1 0.882334 0.628817 0.138230
O O2 0.846520 0.407351 0.103941
O O3 0.788141 0.591971 0.133935
O O4 0.837104 0.601691 0.000000
O O5 0.870146 0.057241 0.500000
O O6 0.856783 0.861306 0.600452
O O7 0.810932 0.071666 0.626477
O O8 0.896922 0.050210 0.671926
O O9 0.389994 0.214977 0.282723
O O10 0.467593 0.209316 0.192779
O O11 0.428527 0.000000 0.250000
O O12 0.299275 0.757249 0.196123
O O13 0.462352 0.394296 0.710906
O O14 0.260269 0.581722 0.500000
O O15 0.254188 0.384245 0.601118
#
# Coordination Sequence:
#
# PCOD9496490 Si02
#       8
#    16  16  16  16   8   8  16   8
#     4   9  17  31  53  89 127 158 191 236 294 367
#     4  10  19  36  61  88 119 161 203 249 303 357
#     4  10  20  36  61  82 113 156 195 245 312 360
#     4   9  16  31  53  85 118 154 197 239 287 346
#     4  11  23  44  62  78 113 155 202 260 322 347
#     4  11  24  42  64  84 116 156 204 269 304 358
#     4   8  14  26  48  81 122 157 187 227 286 352
#     4   8  13  22  44  80 113 150 190 232 271 336
#
# _framework density 21.692259
#
# number of rings (size 3 to 8) (size 9 to 14) (size 15 to 20)
#    0.000    2.615    1.538    0.923    0.000    3.692 
#    9.692    3.077    0.000    1.846    0.000    3.769 
#    0.000    0.000    0.000    0.000    0.000    0.000 
#
# Total GULP energy -289487.952365 kJ/mol
# GULP energy per Si atom -5567.076007 kJ/mol
# Density = 2.164289 g / cm^3
# Si number density = 21.692259 Si / 1000 Ang^3
#
#
#
# Elastic Constant Matrix: (Units=GPa)
#
#
# Indices 1 2 3 4 5 6 
#
# 1 194.9034 51.6851 51.3100 0.0000 0.0000 0.0000
# 2 51.6851 49.9092 24.9956 0.0000 0.0000 0.0000
# 3 51.3100 24.9956 75.7577 0.0000 0.0000 0.0000
# 4 0.0000 0.0000 0.0000 13.9556 0.0000 0.0000
# 5 0.0000 0.0000 0.0000 0.0000 -54.4909 0.0000
# 6 0.0000 0.0000 0.0000 0.0000 0.0000 28.7893
#
#
#
# Elastic Compliance Matrix: (Units=1/GPa)
#
#
# Indices 1 2 3 4 5 6 
#
# 1 0.007624 -0.006361 -0.003065 0.000000 0.000000 0.000000
# 2 -0.006361 0.029309 -0.005362 0.000000 0.000000 0.000000
# 3 -0.003065 -0.005362 0.017045 0.000000 0.000000 0.000000
# 4 0.000000 0.000000 0.000000 0.071656 0.000000 0.000000
# 5 0.000000 0.000000 0.000000 0.000000 -0.018352 0.000000
# 6 0.000000 0.000000 0.000000 0.000000 0.000000 0.034735
#
#
# Mechanical properties :
#
#
# Convention : Reuss Voigt Hill
#
# Bulk Modulus (GPa) = 40.97975 64.06129 52.52052
# Shear Modulus (GPa) = 27.81979 10.48944 19.15462
#
# Velocity S-wave (km/s) = 3.58505 2.20138 2.97478
# Velocity P-wave (km/s) = 6.00577 6.00478 6.00527
#
# Compressibility (1/GPa) = 0.02440230
#
# Stress axis : x y z
#
# Youngs Moduli (GPa) = 131.15720 34.11945 58.66709
#
# Poissons Ratio (x) = 0.21702 0.17984
# Poissons Ratio (y) = 0.83423 0.31459
# Poissons Ratio (z) = 0.40204 0.18296
#
# Static dielectric constant tensor:
#      x y z
#    x 1.799280 0.000000 0.000000 
#    y 0.000000 1.939440 0.000000 
#    z 0.000000 0.000000 1.764110 
# 
# From -- ./inp_files/44340.got.cif
#   From: 2010.05.17/outbox.cif.g08.bks.cpg/sg66_23_cif.got.tgz:44340.got - 2010.06.03 17:51:23.
