data_PCOD9496700
_publ_section_title
;
Structure prediction by ZEFSAII (Michael W. Deem and Ramdas Pophale) SiO2 
 PCOD9496700
Probable space group: C C C M
;
_chemical_formula_sum "Si O2"
_cell_formula_units_Z 88
_cell_length_a 34.160308
_cell_length_b 5.798066
_cell_length_c 23.456989
_cell_angle_alpha 90.000000
_cell_angle_beta 90.000000
_cell_angle_gamma 90.000000
_cell_volume 4645.978510
_symmetry_space_group_name_H-M "C C C M"
_symmetry_group_IT_number 66
_symmetry_cell_setting 'orthorhombic'
loop_
_space_group_symop_operation_xyz
x,y,z
-x,-y,z
x,-y,1/2-z
-x,y,1/2-z
-x,-y,-z
x,y,-z
-x,y,1/2+z
x,-y,1/2+z
1/2+x,1/2+y,z
1/2-x,1/2-y,z
1/2+x,1/2-y,1/2-z
1/2-x,1/2+y,1/2-z
1/2-x,1/2-y,-z
1/2+x,1/2+y,-z
1/2-x,1/2+y,1/2+z
1/2+x,1/2-y,1/2+z
loop_
_atom_site_type_symbol
_atom_site_label
_atom_site_fract_x
_atom_site_fract_y
_atom_site_fract_z
Si Si1 0.137526 0.575506 0.063694
Si Si2 0.105934 0.194829 0.332553
Si Si3 0.659588 0.000000 0.750000
Si Si4 0.787656 0.089517 0.062854
Si Si5 0.485231 0.254619 0.315041
Si Si6 0.831181 0.802972 0.850409
O O1 0.106596 0.706253 0.103173
O O2 0.174436 0.746990 0.060493
O O3 0.152332 0.359313 0.099602
O O4 0.124669 0.517807 0.000000
O O5 0.131897 0.355445 0.291881
O O6 0.061500 0.211554 0.313163
O O7 0.131262 0.959852 0.333052
O O8 0.681923 0.834127 0.794019
O O9 0.750000 0.250000 0.069221
O O10 0.796099 0.936106 0.118118
O O11 0.784900 0.970793 0.000000
O O12 0.500000 0.500000 0.341781
O O13 0.500000 0.253324 0.250000
O O14 0.500000 0.000000 0.338094
#
# Coordination Sequence:
#
# PCOD9496700 Si02
#       6
#    16  16   8  16  16  16
#     4   9  19  35  57  86 114 147 192 240 294 356
#     4  10  21  35  57  84 114 151 191 244 294 353
#     4  10  20  32  55  80 112 148 202 236 286 348
#     4   9  18  34  56  87 118 147 191 250 306 353
#     4  10  22  34  55  85 122 149 191 251 307 360
#     4  10  20  32  54  86 112 154 193 242 291 359
#
# _framework density 18.941110999999999
#
# number of rings (size 3 to 8) (size 9 to 14) (size 15 to 20)
#    0.000    2.364    0.000    2.182   10.182    1.455 
#    0.000    2.727    0.000    1.091  170.182    0.000 
#    0.000    0.000    0.000    0.000    0.000    0.000 
#
# Total GULP energy -244973.450376 kJ/mol
# GULP energy per Si atom -5567.578418 kJ/mol
# Density = 1.889800 g / cm^3
# Si number density = 18.941111 Si / 1000 Ang^3
#
#
#
# Elastic Constant Matrix: (Units=GPa)
#
#
# Indices 1 2 3 4 5 6 
#
# 1 70.2191 3.2672 42.2809 0.0000 0.0000 0.0000
# 2 3.2672 83.6885 46.3551 0.0000 0.0000 0.0000
# 3 42.2809 46.3551 137.8766 0.0000 0.0000 0.0000
# 4 0.0000 0.0000 0.0000 36.2289 0.0000 0.0000
# 5 0.0000 0.0000 0.0000 0.0000 28.0299 0.0000
# 6 0.0000 0.0000 0.0000 0.0000 0.0000 3.7294
#
#
#
# Elastic Compliance Matrix: (Units=1/GPa)
#
#
# Indices 1 2 3 4 5 6 
#
# 1 0.018020 0.002897 -0.006500 0.000000 0.000000 0.000000
# 2 0.002897 0.015149 -0.005982 0.000000 0.000000 0.000000
# 3 -0.006500 -0.005982 0.011257 0.000000 0.000000 0.000000
# 4 0.000000 0.000000 0.000000 0.027602 0.000000 0.000000
# 5 0.000000 0.000000 0.000000 0.000000 0.035676 0.000000
# 6 0.000000 0.000000 0.000000 0.000000 0.000000 0.268140
#
#
# Mechanical properties :
#
#
# Convention : Reuss Voigt Hill
#
# Bulk Modulus (GPa) = 39.59291 52.84341 46.21816
# Shear Modulus (GPa) = 12.39362 26.92304 19.65833
#
# Velocity S-wave (km/s) = 2.56075 3.77425 3.22509
# Velocity P-wave (km/s) = 5.44902 6.85220 6.19049
#
# Compressibility (1/GPa) = 0.02525704
#
# Stress axis : x y z
#
# Youngs Moduli (GPa) = 55.49348 66.01012 88.83227
#
# Poissons Ratio (x) = -0.19122 0.57740
# Poissons Ratio (y) = -0.16075 0.53136
# Poissons Ratio (z) = 0.36070 0.39485
#
# Static dielectric constant tensor:
#      x y z
#    x 1.645810 0.000000 0.000000 
#    y 0.000000 1.790890 0.000000 
#    z 0.000000 0.000000 1.687070 
# 
# From -- ./inp_files/60391.got.cif
#   From: 2010.05.17/outbox.cif.g08.bks.cpg/sg66_31_cif.got.tgz:60391.got - 2010.06.03 17:51:23.
