data_PCOD9496097
_publ_section_title
;
Structure prediction by ZEFSAII (Michael W. Deem and Ramdas Pophale) SiO2 
 PCOD9496097
Probable space group: C C C M
;
_chemical_formula_sum "Si O2"
_cell_formula_units_Z 112
_cell_length_a 15.312717
_cell_length_b 25.325737
_cell_length_c 13.850589
_cell_angle_alpha 90.000000
_cell_angle_beta 90.000000
_cell_angle_gamma 90.000000
_cell_volume 5371.339350
_symmetry_space_group_name_H-M "C C C M"
_symmetry_group_IT_number 66
_symmetry_cell_setting 'orthorhombic'
loop_
_space_group_symop_operation_xyz
x,y,z
-x,-y,z
x,-y,1/2-z
-x,y,1/2-z
-x,-y,-z
x,y,-z
-x,y,1/2+z
x,-y,1/2+z
1/2+x,1/2+y,z
1/2-x,1/2-y,z
1/2+x,1/2-y,1/2-z
1/2-x,1/2+y,1/2-z
1/2-x,1/2-y,-z
1/2+x,1/2+y,-z
1/2-x,1/2+y,1/2+z
1/2+x,1/2-y,1/2+z
loop_
_atom_site_type_symbol
_atom_site_label
_atom_site_fract_x
_atom_site_fract_y
_atom_site_fract_z
Si Si1 0.069443 0.544026 0.883180
Si Si2 0.114849 0.154433 0.114937
Si Si3 0.949184 0.223550 0.884164
Si Si4 0.229363 0.039129 0.383173
Si Si5 0.706790 0.347362 0.200596
Si Si6 0.399340 0.838852 0.116893
Si Si7 0.577927 0.537342 0.116340
O O1 0.169577 0.530909 0.856703
O O2 0.057433 0.605339 0.853340
O O3 0.000000 0.500000 0.851840
O O4 0.065896 0.543859 0.000000
O O5 0.198140 0.158558 0.184079
O O6 0.072427 0.098108 0.143301
O O7 0.042256 0.197782 0.138813
O O8 0.133410 0.155152 0.000000
O O9 0.868448 0.190273 0.841966
O O10 0.947403 0.284955 0.857026
O O11 0.939692 0.220195 0.000000
O O12 0.225391 0.046856 0.500000
O O13 0.193021 0.092277 0.334466
O O14 0.169640 0.989403 0.358113
O O15 0.802438 0.334511 0.160810
O O16 0.390450 0.840748 0.000000
O O17 0.500000 0.500000 0.149065
O O18 0.574175 0.537437 0.000000
#
# Coordination Sequence:
#
# PCOD9496097 Si02
#       7
#    16  16  16  16  16  16  16
#     4   8  14  27  50  83 119 146 171 213 275 343
#     4  10  22  36  51  77 113 154 195 231 277 340
#     4  10  19  33  54  82 115 145 181 234 291 345
#     4   9  17  29  50  83 117 148 186 231 281 339
#     4  11  19  31  53  82 114 147 185 232 286 340
#     4   9  18  32  56  90 117 140 179 233 294 351
#     4   9  17  31  50  74 110 154 194 230 270 324
#
# _framework density 20.851410999999999
#
# number of rings (size 3 to 8) (size 9 to 14) (size 15 to 20)
#    0.000    2.571    0.000    3.857    0.000    4.000 
#    0.000    0.714    0.000    6.857    0.000   17.000 
#    0.000   13.714    0.000    0.000    0.000    0.000 
#
# Total GULP energy -312707.759333 kJ/mol
# GULP energy per Si atom -5584.067131 kJ/mol
# Density = 2.080395 g / cm^3
# Si number density = 20.851411 Si / 1000 Ang^3
#
#
#
# Elastic Constant Matrix: (Units=GPa)
#
#
# Indices 1 2 3 4 5 6 
#
# 1 84.4158 82.1436 31.9982 0.0000 0.0000 0.0000
# 2 82.1436 155.0448 28.7405 0.0000 0.0000 0.0000
# 3 31.9982 28.7405 90.2706 0.0000 0.0000 0.0000
# 4 0.0000 0.0000 0.0000 1.5174 0.0000 0.0000
# 5 0.0000 0.0000 0.0000 0.0000 16.3087 0.0000
# 6 0.0000 0.0000 0.0000 0.0000 0.0000 34.5567
#
#
#
# Elastic Compliance Matrix: (Units=1/GPa)
#
#
# Indices 1 2 3 4 5 6 
#
# 1 0.026607 -0.013123 -0.005253 0.000000 0.000000 0.000000
# 2 -0.013123 0.013326 0.000409 0.000000 0.000000 0.000000
# 3 -0.005253 0.000409 0.012810 0.000000 0.000000 0.000000
# 4 0.000000 0.000000 0.000000 0.659030 0.000000 0.000000
# 5 0.000000 0.000000 0.000000 0.000000 0.061317 0.000000
# 6 0.000000 0.000000 0.000000 0.000000 0.000000 0.028938
#
#
# Mechanical properties :
#
#
# Convention : Reuss Voigt Hill
#
# Bulk Modulus (GPa) = 59.49347 68.38842 63.94095
# Shear Modulus (GPa) = 5.92722 22.93315 14.43019
#
# Velocity S-wave (km/s) = 1.68783 3.31998 2.63354
# Velocity P-wave (km/s) = 5.69143 6.89678 6.32289
#
# Compressibility (1/GPa) = 0.01680857
#
# Stress axis : x y z
#
# Youngs Moduli (GPa) = 37.58425 75.03863 78.06513
#
# Poissons Ratio (x) = 0.98471 0.41010
# Poissons Ratio (y) = 0.49321 -0.03190
# Poissons Ratio (z) = 0.19744 -0.03067
#
# Static dielectric constant tensor:
#      x y z
#    x 2.035480 0.000000 0.000000 
#    y 0.000000 1.749170 0.000000 
#    z 0.000000 0.000000 1.771360 
# 
# From -- ./inp_files/28667.got.cif
#   From: 2010.05.17/outbox.cif.g08.bks.cpg/sg66_15_cif.got.tgz:28667.got - 2010.06.03 17:51:23.
