data_PCOD9496704
_publ_section_title
;
Structure prediction by ZEFSAII (Michael W. Deem and Ramdas Pophale) SiO2 
 PCOD9496704
Probable space group: C C C M
;
_chemical_formula_sum "Si O2"
_cell_formula_units_Z 76
_cell_length_a 12.543151
_cell_length_b 17.055696
_cell_length_c 18.346646
_cell_angle_alpha 90.000000
_cell_angle_beta 90.000000
_cell_angle_gamma 90.000000
_cell_volume 3924.937797
_symmetry_space_group_name_H-M "C C C M"
_symmetry_group_IT_number 66
_symmetry_cell_setting 'orthorhombic'
loop_
_space_group_symop_operation_xyz
x,y,z
-x,-y,z
x,-y,1/2-z
-x,y,1/2-z
-x,-y,-z
x,y,-z
-x,y,1/2+z
x,-y,1/2+z
1/2+x,1/2+y,z
1/2-x,1/2-y,z
1/2+x,1/2-y,1/2-z
1/2-x,1/2+y,1/2-z
1/2-x,1/2-y,-z
1/2+x,1/2+y,-z
1/2-x,1/2+y,1/2+z
1/2+x,1/2-y,1/2+z
loop_
_atom_site_type_symbol
_atom_site_label
_atom_site_fract_x
_atom_site_fract_y
_atom_site_fract_z
Si Si1 0.085084 0.349969 0.500000
Si Si2 0.070300 0.140140 0.157179
Si Si3 0.500000 0.500000 0.750000
Si Si4 0.652034 0.150830 0.500000
Si Si5 0.637276 0.277586 0.123585
Si Si6 0.121661 0.074961 0.000000
Si Si7 0.309957 0.597058 0.000000
Si Si8 0.250000 0.750000 0.373053
O O1 0.099766 0.292728 0.429967
O O2 0.181562 0.411605 0.500000
O O3 0.966091 0.382539 0.500000
O O4 0.075403 0.115812 0.071765
O O5 0.176063 0.190582 0.170802
O O6 0.067664 0.059021 0.200588
O O7 0.962557 0.190504 0.169496
O O8 0.751728 0.093132 0.500000
O O9 0.670771 0.204240 0.428354
O O10 0.750000 0.250000 0.157917
O O11 0.665515 0.350014 0.070229
O O12 0.120177 0.981129 0.000000
#
# Coordination Sequence:
#
# PCOD9496704 Si02
#       8
#     8  16   4   8  16   8   8   8
#     4   9  14  26  46  77 118 137 186 230 270 333
#     4  11  21  39  58  88 113 153 187 243 286 349
#     4  12  28  38  56  88 126 140 192 244 300 340
#     4   9  15  27  51  87 105 147 184 237 269 340
#     4   9  17  29  51  76 107 145 188 229 275 334
#     4  10  20  32  57  79 117 149 186 230 301 331
#     4   9  17  25  41  80 114 154 171 224 292 337
#     4   9  18  32  60  80 112 145 196 226 286 337
#
# _framework density 19.363364000000001
#
# number of rings (size 3 to 8) (size 9 to 14) (size 15 to 20)
#    0.000    2.316    2.105    4.421    0.000    1.684 
#    1.895    0.000    0.000    0.000    0.000    1.474 
#    0.000    0.000    0.000    0.000    0.000    0.000 
#
# Total GULP energy -212018.030732 kJ/mol
# GULP energy per Si atom -5579.421861 kJ/mol
# Density = 1.931929 g / cm^3
# Si number density = 19.363364 Si / 1000 Ang^3
#
#
#
# Elastic Constant Matrix: (Units=GPa)
#
#
# Indices 1 2 3 4 5 6 
#
# 1 162.3510 44.4745 31.1916 0.0000 0.0000 0.0000
# 2 44.4745 93.9720 27.3528 0.0000 0.0000 0.0000
# 3 31.1916 27.3528 60.1327 0.0000 0.0000 0.0000
# 4 0.0000 0.0000 0.0000 16.0707 0.0000 0.0000
# 5 0.0000 0.0000 0.0000 0.0000 5.7486 0.0000
# 6 0.0000 0.0000 0.0000 0.0000 0.0000 35.3468
#
#
#
# Elastic Compliance Matrix: (Units=1/GPa)
#
#
# Indices 1 2 3 4 5 6 
#
# 1 0.007412 -0.002753 -0.002592 0.000000 0.000000 0.000000
# 2 -0.002753 0.013288 -0.004616 0.000000 0.000000 0.000000
# 3 -0.002592 -0.004616 0.020074 0.000000 0.000000 0.000000
# 4 0.000000 0.000000 0.000000 0.062225 0.000000 0.000000
# 5 0.000000 0.000000 0.000000 0.000000 0.173956 0.000000
# 6 0.000000 0.000000 0.000000 0.000000 0.000000 0.028291
#
#
# Mechanical properties :
#
#
# Convention : Reuss Voigt Hill
#
# Bulk Modulus (GPa) = 47.95984 58.05482 53.00733
# Shear Modulus (GPa) = 15.05482 25.66235 20.35858
#
# Velocity S-wave (km/s) = 2.79138 3.64442 3.24604
# Velocity P-wave (km/s) = 5.93390 6.91057 6.44077
#
# Compressibility (1/GPa) = 0.02085078
#
# Stress axis : x y z
#
# Youngs Moduli (GPa) = 134.92092 75.25472 49.81492
#
# Poissons Ratio (x) = 0.20720 0.12913
# Poissons Ratio (y) = 0.37147 0.22996
# Poissons Ratio (z) = 0.34974 0.34740
#
# Static dielectric constant tensor:
#      x y z
#    x 1.711180 0.000000 0.000000 
#    y 0.000000 1.671100 0.000000 
#    z 0.000000 0.000000 1.704710 
# 
# From -- ./inp_files/48695.got.cif
#   From: 2010.05.17/outbox.cif.g08.bks.cpg/sg66_25_cif.got.tgz:48695.got - 2010.06.03 17:51:23.
