data_PCOD9496959
_publ_section_title
;
Structure prediction by ZEFSAII (Michael W. Deem and Ramdas Pophale) SiO2 
 PCOD9496959
Probable space group: C C C M
;
_chemical_formula_sum "Si O2"
_cell_formula_units_Z 76
_cell_length_a 27.648750
_cell_length_b 8.704654
_cell_length_c 17.361559
_cell_angle_alpha 90.000000
_cell_angle_beta 90.000000
_cell_angle_gamma 90.000000
_cell_volume 4178.455057
_symmetry_space_group_name_H-M "C C C M"
_symmetry_group_IT_number 66
_symmetry_cell_setting 'orthorhombic'
loop_
_space_group_symop_operation_xyz
x,y,z
-x,-y,z
x,-y,1/2-z
-x,y,1/2-z
-x,-y,-z
x,y,-z
-x,y,1/2+z
x,-y,1/2+z
1/2+x,1/2+y,z
1/2-x,1/2-y,z
1/2+x,1/2-y,1/2-z
1/2-x,1/2+y,1/2-z
1/2-x,1/2-y,-z
1/2+x,1/2+y,-z
1/2-x,1/2+y,1/2+z
1/2+x,1/2-y,1/2+z
loop_
_atom_site_type_symbol
_atom_site_label
_atom_site_fract_x
_atom_site_fract_y
_atom_site_fract_z
Si Si1 0.157758 0.000000 0.250000
Si Si2 0.553466 0.575268 0.000000
Si Si3 0.293391 0.371771 0.500000
Si Si4 0.201037 0.155367 0.887954
Si Si5 0.108307 0.675305 0.000000
Si Si6 0.500000 0.500000 0.250000
Si Si7 0.126167 0.316560 0.000000
Si Si8 0.078488 0.868683 0.138288
O O1 0.188607 0.883316 0.300635
O O2 0.124023 0.899323 0.193026
O O3 0.500000 0.500000 0.000000
O O4 0.571237 0.749984 0.000000
O O5 0.576849 0.506797 0.923192
O O6 0.250000 0.250000 0.500000
O O7 0.292496 0.490348 0.570945
O O8 0.343417 0.279070 0.500000
O O9 0.250000 0.250000 0.897853
O O10 0.157507 0.249088 0.928683
O O11 0.080874 0.724456 0.079503
O O12 0.122856 0.498742 0.000000
O O13 0.532667 0.393185 0.194347
#
# Coordination Sequence:
#
# PCOD9496959 Si02
#       8
#     8   8   8  16   8   4   8  16
#     4  11  20  39  60  86 130 156 210 251 322 371
#     4  11  19  38  68  91 112 159 226 251 304 387
#     4  11  20  38  63  88 116 161 218 252 293 364
#     4  11  22  39  61  88 122 168 212 256 307 380
#     4  11  21  39  64  88 125 164 209 259 313 360
#     4  10  20  34  72  90 116 158 214 252 324 380
#     4  11  22  42  62  93 124 164 212 262 312 369
#     4  10  20  38  64  91 116 161 205 260 308 374
#
# _framework density 18.18854
#
# number of rings (size 3 to 8) (size 9 to 14) (size 15 to 20)
#    0.000    1.263    5.263    3.789    0.000    0.842 
#    3.789    2.105    0.000    1.263    0.000    0.000 
#    0.000    0.000    0.000    0.000    0.000    0.000 
#
# Total GULP energy -211772.222705 kJ/mol
# GULP energy per Si atom -5572.953229 kJ/mol
# Density = 1.814714 g / cm^3
# Si number density = 18.188540 Si / 1000 Ang^3
#
#
#
# Elastic Constant Matrix: (Units=GPa)
#
#
# Indices 1 2 3 4 5 6 
#
# 1 108.4307 59.4582 43.4110 0.0000 0.0000 0.0000
# 2 59.4582 140.9808 47.5303 0.0000 0.0000 0.0000
# 3 43.4110 47.5303 125.5038 0.0000 0.0000 0.0000
# 4 0.0000 0.0000 0.0000 9.4217 0.0000 0.0000
# 5 0.0000 0.0000 0.0000 0.0000 11.6213 0.0000
# 6 0.0000 0.0000 0.0000 0.0000 0.0000 27.5610
#
#
#
# Elastic Compliance Matrix: (Units=1/GPa)
#
#
# Indices 1 2 3 4 5 6 
#
# 1 0.012760 -0.004463 -0.002723 0.000000 0.000000 0.000000
# 2 -0.004463 0.009693 -0.002127 0.000000 0.000000 0.000000
# 3 -0.002723 -0.002127 0.009715 0.000000 0.000000 0.000000
# 4 0.000000 0.000000 0.000000 0.106138 0.000000 0.000000
# 5 0.000000 0.000000 0.000000 0.000000 0.086049 0.000000
# 6 0.000000 0.000000 0.000000 0.000000 0.000000 0.036283
#
#
# Mechanical properties :
#
#
# Convention : Reuss Voigt Hill
#
# Bulk Modulus (GPa) = 73.84990 75.07937 74.46463
# Shear Modulus (GPa) = 17.61933 24.68853 21.15393
#
# Velocity S-wave (km/s) = 3.11578 3.68824 3.41403
# Velocity P-wave (km/s) = 7.32357 7.71398 7.52131
#
# Compressibility (1/GPa) = 0.01354098
#
# Stress axis : x y z
#
# Youngs Moduli (GPa) = 78.36773 103.17061 102.92988
#
# Poissons Ratio (x) = 0.46050 0.28031
# Poissons Ratio (y) = 0.34979 0.21892
# Poissons Ratio (z) = 0.21342 0.21943
#
# Static dielectric constant tensor:
#      x y z
#    x 1.689570 0.000000 0.000000 
#    y 0.000000 1.598940 0.000000 
#    z 0.000000 0.000000 1.659760 
# 
# From -- ./inp_files/44187.got.cif
#   From: 2010.05.17/outbox.cif.g08.bks.cpg/sg66_23_cif.got.tgz:44187.got - 2010.06.03 17:51:23.
