data_PCOD9496693
_publ_section_title
;
Structure prediction by ZEFSAII (Michael W. Deem and Ramdas Pophale) SiO2 
 PCOD9496693
Probable space group: C C C M
;
_chemical_formula_sum "Si O2"
_cell_formula_units_Z 96
_cell_length_a 17.478076
_cell_length_b 11.144102
_cell_length_c 23.861534
_cell_angle_alpha 90.000000
_cell_angle_beta 90.000000
_cell_angle_gamma 90.000000
_cell_volume 4647.689025
_symmetry_space_group_name_H-M "C C C M"
_symmetry_group_IT_number 66
_symmetry_cell_setting 'orthorhombic'
loop_
_space_group_symop_operation_xyz
x,y,z
-x,-y,z
x,-y,1/2-z
-x,y,1/2-z
-x,-y,-z
x,y,-z
-x,y,1/2+z
x,-y,1/2+z
1/2+x,1/2+y,z
1/2-x,1/2-y,z
1/2+x,1/2-y,1/2-z
1/2-x,1/2+y,1/2-z
1/2-x,1/2-y,-z
1/2+x,1/2+y,-z
1/2-x,1/2+y,1/2+z
1/2+x,1/2-y,1/2+z
loop_
_atom_site_type_symbol
_atom_site_label
_atom_site_fract_x
_atom_site_fract_y
_atom_site_fract_z
Si Si1 0.561658 0.669851 0.116667
Si Si2 0.499053 0.857324 0.313913
Si Si3 0.380871 0.059428 0.500000
Si Si4 0.389226 0.416282 0.637726
Si Si5 0.044079 0.302571 0.000000
Si Si6 0.846441 0.672241 0.386203
Si Si7 0.737961 0.379389 0.218626
O O1 0.570299 0.786846 0.156040
O O2 0.617787 0.556428 0.122478
O O3 0.478617 0.616935 0.134867
O O4 0.556113 0.720664 0.054266
O O5 0.500000 0.811751 0.250000
O O6 0.572216 0.840401 0.354467
O O7 0.500000 0.000000 0.310452
O O8 0.459434 0.138526 0.500000
O O9 0.340665 0.096285 0.442298
O O10 0.401661 0.919225 0.500000
O O11 0.347087 0.315080 0.599790
O O12 0.349516 0.394706 0.697913
O O13 0.787779 0.633210 0.338102
O O14 0.761595 0.500000 0.250000
O O15 0.750000 0.250000 0.247951
#
# Coordination Sequence:
#
# PCOD9496693 Si02
#       7
#    16  16   8  16   8  16  16
#     4  10  20  35  58  88 120 155 191 261 310 363
#     4  10  20  32  52  85 116 149 199 249 304 365
#     4  11  20  37  61  87 125 159 202 255 307 374
#     4   9  20  37  57  87 119 150 204 248 309 368
#     4  11  20  34  59  91 122 157 200 251 315 374
#     4  10  21  39  59  87 119 161 205 249 306 370
#     4  10  23  44  64  90 122 168 215 255 307 383
#
# _framework density 20.655427
#
# number of rings (size 3 to 8) (size 9 to 14) (size 15 to 20)
#    0.000    2.000    3.333    1.000    2.333    6.000 
#    3.000    9.583    0.000    1.000    0.000    0.000 
#    0.000    0.000    0.000    0.000    0.000    0.000 
#
# Total GULP energy -267214.323731 kJ/mol
# GULP energy per Si atom -5566.965078 kJ/mol
# Density = 2.060841 g / cm^3
# Si number density = 20.655427 Si / 1000 Ang^3
#
#
#
# Elastic Constant Matrix: (Units=GPa)
#
#
# Indices 1 2 3 4 5 6 
#
# 1 27.3095 27.8282 13.1934 0.0000 0.0000 0.0000
# 2 27.8282 172.5008 58.7884 0.0000 0.0000 0.0000
# 3 13.1934 58.7884 103.0140 0.0000 0.0000 0.0000
# 4 0.0000 0.0000 0.0000 38.3003 0.0000 0.0000
# 5 0.0000 0.0000 0.0000 0.0000 17.0920 0.0000
# 6 0.0000 0.0000 0.0000 0.0000 0.0000 20.2281
#
#
#
# Elastic Compliance Matrix: (Units=1/GPa)
#
#
# Indices 1 2 3 4 5 6 
#
# 1 0.044142 -0.006449 -0.001973 0.000000 0.000000 0.000000
# 2 -0.006449 0.008139 -0.003819 0.000000 0.000000 0.000000
# 3 -0.001973 -0.003819 0.012139 0.000000 0.000000 0.000000
# 4 0.000000 0.000000 0.000000 0.026109 0.000000 0.000000
# 5 0.000000 0.000000 0.000000 0.000000 0.058507 0.000000
# 6 0.000000 0.000000 0.000000 0.000000 0.000000 0.049436
#
#
# Mechanical properties :
#
#
# Convention : Reuss Voigt Hill
#
# Bulk Modulus (GPa) = 25.03845 55.82716 40.43281
# Shear Modulus (GPa) = 21.16253 28.65834 24.91044
#
# Velocity S-wave (km/s) = 3.20433 3.72889 3.47652
# Velocity P-wave (km/s) = 5.08317 6.75470 5.97765
#
# Compressibility (1/GPa) = 0.03993858
#
# Stress axis : x y z
#
# Youngs Moduli (GPa) = 22.65438 122.86797 82.37583
#
# Poissons Ratio (x) = 0.79232 0.16255
# Poissons Ratio (y) = 0.14609 0.31458
# Poissons Ratio (z) = 0.04470 0.46921
#
# Static dielectric constant tensor:
#      x y z
#    x 1.805640 0.000000 0.000000 
#    y 0.000000 2.033890 0.000000 
#    z 0.000000 0.000000 1.748210 
# 
# From -- ./inp_files/51838.got.cif
#   From: 2010.05.17/outbox.cif.g08.bks.cpg/sg66_26_cif.got.tgz:51838.got - 2010.06.03 17:51:23.
