data_PCOD9496898
_publ_section_title
;
Structure prediction by ZEFSAII (Michael W. Deem and Ramdas Pophale) SiO2 
 PCOD9496898
Probable space group: C C C M
;
_chemical_formula_sum "Si O2"
_cell_formula_units_Z 112
_cell_length_a 12.121941
_cell_length_b 14.601216
_cell_length_c 27.850002
_cell_angle_alpha 90.000000
_cell_angle_beta 90.000000
_cell_angle_gamma 90.000000
_cell_volume 4929.313301
_symmetry_space_group_name_H-M "C C C M"
_symmetry_group_IT_number 66
_symmetry_cell_setting 'orthorhombic'
loop_
_space_group_symop_operation_xyz
x,y,z
-x,-y,z
x,-y,1/2-z
-x,y,1/2-z
-x,-y,-z
x,y,-z
-x,y,1/2+z
x,-y,1/2+z
1/2+x,1/2+y,z
1/2-x,1/2-y,z
1/2+x,1/2-y,1/2-z
1/2-x,1/2+y,1/2-z
1/2-x,1/2-y,-z
1/2+x,1/2+y,-z
1/2-x,1/2+y,1/2+z
1/2+x,1/2-y,1/2+z
loop_
_atom_site_type_symbol
_atom_site_label
_atom_site_fract_x
_atom_site_fract_y
_atom_site_fract_z
Si Si1 0.494600 0.303049 0.693301
Si Si2 0.831573 0.836873 0.621632
Si Si3 0.171501 0.428253 0.446146
Si Si4 0.294538 0.870957 0.446099
Si Si5 0.278511 0.642985 0.658508
Si Si6 0.454941 0.904423 0.305117
Si Si7 0.992985 0.259971 0.945285
O O1 0.500000 0.296510 0.750000
O O2 0.381073 0.346310 0.674330
O O3 0.598117 0.364262 0.677519
O O4 0.505043 0.195608 0.675104
O O5 0.750000 0.750000 0.621047
O O6 0.762703 0.913777 0.594787
O O7 0.939470 0.812229 0.590260
O O8 0.218114 0.409157 0.500000
O O9 0.137744 0.533577 0.446244
O O10 0.076888 0.353685 0.439223
O O11 0.245033 0.864786 0.500000
O O12 0.223935 0.876747 0.398187
O O13 0.380551 0.788478 0.439273
O O14 0.250000 0.750000 0.665409
O O15 0.177184 0.593897 0.686181
O O16 0.500000 0.904669 0.250000
O O17 0.500000 0.000000 0.327119
O O18 0.976794 0.229398 0.000000
#
# Coordination Sequence:
#
# PCOD9496898 Si02
#       7
#    16  16  16  16  16  16  16
#     4  10  22  40  60  83 116 158 200 242 298 358
#     4  10  20  34  56  84 112 152 201 240 285 348
#     4   9  18  33  54  83 118 151 189 243 296 340
#     4  10  20  34  55  83 114 152 194 236 291 356
#     4  10  21  38  59  86 124 159 192 244 299 350
#     4   9  19  36  62  94 121 149 194 248 300 349
#     4   9  16  29  52  84 119 150 185 232 286 347
#
# _framework density 22.721216999999999
#
# number of rings (size 3 to 8) (size 9 to 14) (size 15 to 20)
#    0.000    2.429    0.000    2.571    0.000   10.000 
#    0.000    3.571    0.000    2.571    0.000    0.000 
#    0.000    0.000    0.000    0.000    0.000    0.000 
#
# Total GULP energy -312494.845634 kJ/mol
# GULP energy per Si atom -5580.265101 kJ/mol
# Density = 2.266950 g / cm^3
# Si number density = 22.721217 Si / 1000 Ang^3
#
#
#
# Elastic Constant Matrix: (Units=GPa)
#
#
# Indices 1 2 3 4 5 6 
#
# 1 81.9434 27.1933 46.1927 0.0000 0.0000 0.0000
# 2 27.1933 49.5512 15.4317 0.0000 0.0000 0.0000
# 3 46.1927 15.4317 106.5375 0.0000 0.0000 0.0000
# 4 0.0000 0.0000 0.0000 18.2356 0.0000 0.0000
# 5 0.0000 0.0000 0.0000 0.0000 31.5148 0.0000
# 6 0.0000 0.0000 0.0000 0.0000 0.0000 27.6409
#
#
#
# Elastic Compliance Matrix: (Units=1/GPa)
#
#
# Indices 1 2 3 4 5 6 
#
# 1 0.018857 -0.008171 -0.006992 0.000000 0.000000 0.000000
# 2 -0.008171 0.024675 -0.000031 0.000000 0.000000 0.000000
# 3 -0.006992 -0.000031 0.012423 0.000000 0.000000 0.000000
# 4 0.000000 0.000000 0.000000 0.054838 0.000000 0.000000
# 5 0.000000 0.000000 0.000000 0.000000 0.031731 0.000000
# 6 0.000000 0.000000 0.000000 0.000000 0.000000 0.036178
#
#
# Mechanical properties :
#
#
# Convention : Reuss Voigt Hill
#
# Bulk Modulus (GPa) = 39.11567 46.18528 42.65048
# Shear Modulus (GPa) = 22.97658 25.42587 24.20122
#
# Velocity S-wave (km/s) = 3.18345 3.34883 3.26719
# Velocity P-wave (km/s) = 5.54665 5.94340 5.74845
#
# Compressibility (1/GPa) = 0.02556520
#
# Stress axis : x y z
#
# Youngs Moduli (GPa) = 53.03114 40.52686 80.49766
#
# Poissons Ratio (x) = 0.33114 0.56288
# Poissons Ratio (y) = 0.43331 0.00253
# Poissons Ratio (z) = 0.37082 0.00127
#
# Static dielectric constant tensor:
#      x y z
#    x 1.864080 0.000000 0.000000 
#    y 0.000000 1.871550 0.000000 
#    z 0.000000 0.000000 1.887610 
# 
# From -- ./inp_files/69063.got.cif
#   From: 2010.05.17/outbox.cif.g08.bks.cpg/sg66_35_cif.got.tgz:69063.got - 2010.06.03 17:51:23.
