data_PCOD9496329
_publ_section_title
;
Structure prediction by ZEFSAII (Michael W. Deem and Ramdas Pophale) SiO2 
 PCOD9496329
Probable space group: C C C M
;
_chemical_formula_sum "Si O2"
_cell_formula_units_Z 96
_cell_length_a 17.995672
_cell_length_b 13.039831
_cell_length_c 21.790008
_cell_angle_alpha 90.000000
_cell_angle_beta 90.000000
_cell_angle_gamma 90.000000
_cell_volume 5113.254643
_symmetry_space_group_name_H-M "C C C M"
_symmetry_group_IT_number 66
_symmetry_cell_setting 'orthorhombic'
loop_
_space_group_symop_operation_xyz
x,y,z
-x,-y,z
x,-y,1/2-z
-x,y,1/2-z
-x,-y,-z
x,y,-z
-x,y,1/2+z
x,-y,1/2+z
1/2+x,1/2+y,z
1/2-x,1/2-y,z
1/2+x,1/2-y,1/2-z
1/2-x,1/2+y,1/2-z
1/2-x,1/2-y,-z
1/2+x,1/2+y,-z
1/2-x,1/2+y,1/2+z
1/2+x,1/2-y,1/2+z
loop_
_atom_site_type_symbol
_atom_site_label
_atom_site_fract_x
_atom_site_fract_y
_atom_site_fract_z
Si Si1 0.334683 0.225079 0.109622
Si Si2 0.444301 0.281065 0.500000
Si Si3 0.561933 0.823463 0.207835
Si Si4 0.463041 0.101421 0.403705
Si Si5 0.807242 0.933193 0.500000
Si Si6 0.828327 0.500000 0.250000
Si Si7 0.899713 0.140732 0.500000
Si Si8 0.696857 0.011593 0.111920
O O1 0.250000 0.250000 0.120745
O O2 0.382758 0.246317 0.169835
O O3 0.369347 0.293414 0.056937
O O4 0.330608 0.103614 0.094351
O O5 0.460522 0.204637 0.443247
O O6 0.362727 0.334204 0.500000
O O7 0.511305 0.362460 0.500000
O O8 0.500000 0.772868 0.250000
O O9 0.513098 0.881662 0.156415
O O10 0.615573 0.903769 0.242061
O O11 0.377623 0.078009 0.390383
O O12 0.500000 0.000000 0.433378
O O13 0.755484 0.946262 0.438540
O O14 0.861269 0.031110 0.500000
O O15 0.783610 0.492799 0.185235
#
# Coordination Sequence:
#
# PCOD9496329 Si02
#       8
#    16   8  16  16   8   8   8  16
#     4  11  21  36  64  98 121 154 211 268 313 365
#     4  12  27  41  61  92 120 170 219 266 313 401
#     4  11  19  35  63  94 130 160 199 255 319 388
#     4  12  20  37  63  96 128 154 199 260 335 379
#     4  12  27  45  61  80 133 179 218 256 325 371
#     4  10  19  34  62  96 133 156 204 242 335 378
#     4  12  21  43  66  87 119 161 227 270 306 366
#     4  11  22  37  65  95 130 170 195 264 326 395
#
# _framework density 18.774735
#
# number of rings (size 3 to 8) (size 9 to 14) (size 15 to 20)
#    0.000    0.667    8.333    2.000    0.000    1.333 
#    0.000    3.333    0.000    0.000    0.000    2.333 
#    0.000    0.000    0.000    0.000    0.000    0.000 
#
# Total GULP energy -267526.726703 kJ/mol
# GULP energy per Si atom -5573.473473 kJ/mol
# Density = 1.873200 g / cm^3
# Si number density = 18.774735 Si / 1000 Ang^3
#
#
#
# Elastic Constant Matrix: (Units=GPa)
#
#
# Indices 1 2 3 4 5 6 
#
# 1 118.2411 14.8156 46.3046 0.0000 0.0000 0.0000
# 2 14.8156 50.1233 22.3506 0.0000 0.0000 0.0000
# 3 46.3046 22.3506 109.4188 0.0000 0.0000 0.0000
# 4 0.0000 0.0000 0.0000 -18.8291 0.0000 0.0000
# 5 0.0000 0.0000 0.0000 0.0000 159.5400 0.0000
# 6 0.0000 0.0000 0.0000 0.0000 0.0000 28.0438
#
#
#
# Elastic Compliance Matrix: (Units=1/GPa)
#
#
# Indices 1 2 3 4 5 6 
#
# 1 0.010202 -0.001200 -0.004072 0.000000 0.000000 0.000000
# 2 -0.001200 0.022091 -0.004005 0.000000 0.000000 0.000000
# 3 -0.004072 -0.004005 0.011681 0.000000 0.000000 0.000000
# 4 0.000000 0.000000 0.000000 -0.053109 0.000000 0.000000
# 5 0.000000 0.000000 0.000000 0.000000 0.006268 0.000000
# 6 0.000000 0.000000 0.000000 0.000000 0.000000 0.035659
#
#
# Mechanical properties :
#
#
# Convention : Reuss Voigt Hill
#
# Bulk Modulus (GPa) = 39.33859 49.41389 44.37624
# Shear Modulus (GPa) = 83.58536 46.70509 65.14522
#
# Velocity S-wave (km/s) = 6.67958 4.99305 5.89692
# Velocity P-wave (km/s) = 8.97148 7.72122 8.36973
#
# Compressibility (1/GPa) = 0.02542033
#
# Stress axis : x y z
#
# Youngs Moduli (GPa) = 98.01567 45.26692 85.61159
#
# Poissons Ratio (x) = 0.05431 0.34865
# Poissons Ratio (y) = 0.11759 0.34286
# Poissons Ratio (z) = 0.39917 0.18128
#
# Static dielectric constant tensor:
#      x y z
#    x 1.665140 0.000000 0.000000 
#    y 0.000000 1.672120 0.000000 
#    z 0.000000 0.000000 1.770220 
# 
# From -- ./inp_files/58846.got.cif
#   From: 2010.05.17/outbox.cif.g08.bks.cpg/sg66_30_cif.got.tgz:58846.got - 2010.06.03 17:51:23.
