data_PCOD9496126
_publ_section_title
;
Structure prediction by ZEFSAII (Michael W. Deem and Ramdas Pophale) SiO2 
 PCOD9496126
Probable space group: C C C M
;
_chemical_formula_sum "Si O2"
_cell_formula_units_Z 80
_cell_length_a 11.395953
_cell_length_b 12.492945
_cell_length_c 24.761843
_cell_angle_alpha 90.000000
_cell_angle_beta 90.000000
_cell_angle_gamma 90.000000
_cell_volume 3525.319174
_symmetry_space_group_name_H-M "C C C M"
_symmetry_group_IT_number 66
_symmetry_cell_setting 'orthorhombic'
loop_
_space_group_symop_operation_xyz
x,y,z
-x,-y,z
x,-y,1/2-z
-x,y,1/2-z
-x,-y,-z
x,y,-z
-x,y,1/2+z
x,-y,1/2+z
1/2+x,1/2+y,z
1/2-x,1/2-y,z
1/2+x,1/2-y,1/2-z
1/2-x,1/2+y,1/2-z
1/2-x,1/2-y,-z
1/2+x,1/2+y,-z
1/2-x,1/2+y,1/2+z
1/2+x,1/2-y,1/2+z
loop_
_atom_site_type_symbol
_atom_site_label
_atom_site_fract_x
_atom_site_fract_y
_atom_site_fract_z
Si Si1 0.438059 0.616276 0.059357
Si Si2 0.076824 0.399431 0.828424
Si Si3 0.054255 0.170787 0.325302
Si Si4 0.187668 0.136008 0.214824
Si Si5 0.873602 0.691349 0.941585
O O1 0.500000 0.500000 0.061835
O O2 0.383236 0.642586 0.118146
O O3 0.533052 0.712204 0.058189
O O4 0.376005 0.619850 0.000000
O O5 0.198117 0.429228 0.798633
O O6 0.106299 0.384840 0.891566
O O7 0.000000 0.500000 0.818013
O O8 0.997021 0.292360 0.816719
O O9 0.136949 0.142396 0.275084
O O10 0.927444 0.110740 0.320674
O O11 0.250000 0.250000 0.200801
O O12 0.750000 0.750000 0.935035
O O13 0.876497 0.636750 0.000000
#
# Coordination Sequence:
#
# PCOD9496126 Si02
#       5
#    16  16  16  16  16
#     4   9  17  31  54  83 112 144 189 244 294 342
#     4  10  19  33  55  88 127 160 198 251 309 365
#     4   9  18  36  58  80 116 161 199 245 299 360
#     4   9  18  36  56  78 114 155 196 241 290 353
#     4   9  17  32  56  84 118 162 204 245 296 355
#
# _framework density 22.692979999999999
#
# number of rings (size 3 to 8) (size 9 to 14) (size 15 to 20)
#    0.000    2.800    0.000    3.000    0.000    0.400 
#    0.000   20.000    0.000    0.600    0.000    5.600 
#    0.000    0.800    0.000    0.000    0.000    0.000 
#
# Total GULP energy -222905.869132 kJ/mol
# GULP energy per Si atom -5572.646728 kJ/mol
# Density = 2.264133 g / cm^3
# Si number density = 22.692980 Si / 1000 Ang^3
#
#
#
# Elastic Constant Matrix: (Units=GPa)
#
#
# Indices 1 2 3 4 5 6 
#
# 1 98.6115 35.8234 51.9099 0.0000 0.0000 0.0000
# 2 35.8234 54.4943 24.9488 0.0000 0.0000 0.0000
# 3 51.9099 24.9488 185.0810 0.0000 0.0000 0.0000
# 4 0.0000 0.0000 0.0000 -26.6853 0.0000 0.0000
# 5 0.0000 0.0000 0.0000 0.0000 19.4567 0.0000
# 6 0.0000 0.0000 0.0000 0.0000 0.0000 25.9231
#
#
#
# Elastic Compliance Matrix: (Units=1/GPa)
#
#
# Indices 1 2 3 4 5 6 
#
# 1 0.014749 -0.008315 -0.003016 0.000000 0.000000 0.000000
# 2 -0.008315 0.024245 -0.000936 0.000000 0.000000 0.000000
# 3 -0.003016 -0.000936 0.006375 0.000000 0.000000 0.000000
# 4 0.000000 0.000000 0.000000 -0.037474 0.000000 0.000000
# 5 0.000000 0.000000 0.000000 0.000000 0.051396 0.000000
# 6 0.000000 0.000000 0.000000 0.000000 0.000000 0.038576
#
#
# Mechanical properties :
#
#
# Convention : Reuss Voigt Hill
#
# Bulk Modulus (GPa) = 47.99511 62.61679 55.30595
# Shear Modulus (GPa) = 38.65597 18.77256 28.71426
#
# Velocity S-wave (km/s) = 4.13174 2.87930 3.56102
# Velocity P-wave (km/s) = 6.63004 6.22147 6.42900
#
# Compressibility (1/GPa) = 0.02083546
#
# Stress axis : x y z
#
# Youngs Moduli (GPa) = 67.80128 41.24531 156.86070
#
# Poissons Ratio (x) = 0.34295 0.47306
# Poissons Ratio (y) = 0.56376 0.14684
# Poissons Ratio (z) = 0.20448 0.03861
#
# Static dielectric constant tensor:
#      x y z
#    x 1.959590 0.000000 0.000000 
#    y 0.000000 2.082070 0.000000 
#    z 0.000000 0.000000 1.945810 
# 
# From -- ./inp_files/63534.got.cif
#   From: 2010.05.17/outbox.cif.g08.bks.cpg/sg66_32_cif.got.tgz:63534.got - 2010.06.03 17:51:23.
