data_PCOD9496484
_publ_section_title
;
Structure prediction by ZEFSAII (Michael W. Deem and Ramdas Pophale) SiO2 
 PCOD9496484
Probable space group: C C C M
;
_chemical_formula_sum "Si O2"
_cell_formula_units_Z 56
_cell_length_a 35.221046
_cell_length_b 5.253177
_cell_length_c 13.798132
_cell_angle_alpha 90.000000
_cell_angle_beta 90.000000
_cell_angle_gamma 90.000000
_cell_volume 2552.963343
_symmetry_space_group_name_H-M "C C C M"
_symmetry_group_IT_number 66
_symmetry_cell_setting 'orthorhombic'
loop_
_space_group_symop_operation_xyz
x,y,z
-x,-y,z
x,-y,1/2-z
-x,y,1/2-z
-x,-y,-z
x,y,-z
-x,y,1/2+z
x,-y,1/2+z
1/2+x,1/2+y,z
1/2-x,1/2-y,z
1/2+x,1/2-y,1/2-z
1/2-x,1/2+y,1/2-z
1/2-x,1/2-y,-z
1/2+x,1/2+y,-z
1/2-x,1/2+y,1/2+z
1/2+x,1/2-y,1/2+z
loop_
_atom_site_type_symbol
_atom_site_label
_atom_site_fract_x
_atom_site_fract_y
_atom_site_fract_z
Si Si1 0.708442 0.663933 0.881674
Si Si2 0.921199 0.747487 0.687647
Si Si3 0.164281 0.335060 0.617494
Si Si4 0.525949 0.250618 0.000000
O O1 0.750000 0.750000 0.847949
O O2 0.694091 0.384657 0.852922
O O3 0.678676 0.884447 0.854785
O O4 0.709999 0.659852 0.000000
O O5 0.930953 0.500000 0.750000
O O6 0.877104 0.726297 0.657385
O O7 0.947169 0.753383 0.593375
O O8 0.926857 0.000000 0.750000
O O9 0.162291 0.329967 0.500000
O O10 0.500000 0.500000 0.000000
O O11 0.500000 0.000000 0.000000
#
# Coordination Sequence:
#
# PCOD9496484 Si02
#       4
#    16  16  16   8
#     4   9  17  29  54  90 125 170 226 278 329 384
#     4  12  26  45  72 103 138 179 223 271 332 399
#     4  10  19  36  60  88 129 174 222 274 328 387
#     4  12  28  50  76 106 139 172 217 272 334 406
#
# _framework density 21.935292
#
# number of rings (size 3 to 8) (size 9 to 14) (size 15 to 20)
#    0.000    1.429    1.429    4.286    0.000    6.857 
#    0.000    0.000    0.000   17.143    0.000    0.000 
#    0.000    0.000    0.000    0.000    0.000    0.000 
#
# Total GULP energy -156960.483431 kJ/mol
# GULP energy per Si atom -5605.731551 kJ/mol
# Density = 2.188537 g / cm^3
# Si number density = 21.935292 Si / 1000 Ang^3
#
#
#
# Elastic Constant Matrix: (Units=GPa)
#
#
# Indices 1 2 3 4 5 6 
#
# 1 141.1280 59.3232 52.1441 0.0000 0.0000 0.0000
# 2 59.3232 183.1196 52.8484 0.0000 0.0000 0.0000
# 3 52.1441 52.8484 112.9406 0.0000 0.0000 0.0000
# 4 0.0000 0.0000 0.0000 40.0091 0.0000 0.0000
# 5 0.0000 0.0000 0.0000 0.0000 -10.6752 0.0000
# 6 0.0000 0.0000 0.0000 0.0000 0.0000 63.0719
#
#
#
# Elastic Compliance Matrix: (Units=1/GPa)
#
#
# Indices 1 2 3 4 5 6 
#
# 1 0.009145 -0.002016 -0.003279 0.000000 0.000000 0.000000
# 2 -0.002016 0.006758 -0.002231 0.000000 0.000000 0.000000
# 3 -0.003279 -0.002231 0.011412 0.000000 0.000000 0.000000
# 4 0.000000 0.000000 0.000000 0.024994 0.000000 0.000000
# 5 0.000000 0.000000 0.000000 0.000000 -0.093675 0.000000
# 6 0.000000 0.000000 0.000000 0.000000 0.000000 0.015855
#
#
# Mechanical properties :
#
#
# Convention : Reuss Voigt Hill
#
# Bulk Modulus (GPa) = 81.55085 85.09106 83.32095
# Shear Modulus (GPa) = -784.82181 36.67266 -374.07457
#
# Velocity S-wave (km/s) = -18.93585 4.09327 -13.07309
# Velocity P-wave (km/s) = 20.99595 7.82406 13.77704
#
# Compressibility (1/GPa) = 0.01226229
#
# Stress axis : x y z
#
# Youngs Moduli (GPa) = 109.35313 147.97074 87.62666
#
# Poissons Ratio (x) = 0.29835 0.28729
# Poissons Ratio (y) = 0.22049 0.19553
# Poissons Ratio (z) = 0.35852 0.33018
#
# Static dielectric constant tensor:
#      x y z
#    x 1.733420 0.000000 0.000000 
#    y 0.000000 1.740970 0.000000 
#    z 0.000000 0.000000 1.834790 
# 
# From -- ./inp_files/22497.got.cif
#   From: 2010.05.17/outbox.cif.g08.bks.cpg/sg66_12_cif.got.tgz:22497.got - 2010.06.03 17:51:23.
