data_PCOD9496566
_publ_section_title
;
Structure prediction by ZEFSAII (Michael W. Deem and Ramdas Pophale) SiO2 
 PCOD9496566
Probable space group: C C C M
;
_chemical_formula_sum "Si O2"
_cell_formula_units_Z 64
_cell_length_a 7.189638
_cell_length_b 19.233398
_cell_length_c 24.860623
_cell_angle_alpha 90.000000
_cell_angle_beta 90.000000
_cell_angle_gamma 90.000000
_cell_volume 3437.756014
_symmetry_space_group_name_H-M "C C C M"
_symmetry_group_IT_number 66
_symmetry_cell_setting 'orthorhombic'
loop_
_space_group_symop_operation_xyz
x,y,z
-x,-y,z
x,-y,1/2-z
-x,y,1/2-z
-x,-y,-z
x,y,-z
-x,y,1/2+z
x,-y,1/2+z
1/2+x,1/2+y,z
1/2-x,1/2-y,z
1/2+x,1/2-y,1/2-z
1/2-x,1/2+y,1/2-z
1/2-x,1/2-y,-z
1/2+x,1/2+y,-z
1/2-x,1/2+y,1/2+z
1/2+x,1/2-y,1/2+z
loop_
_atom_site_type_symbol
_atom_site_label
_atom_site_fract_x
_atom_site_fract_y
_atom_site_fract_z
Si Si1 0.596497 0.575827 0.119953
Si Si2 0.544825 0.921341 0.813201
Si Si3 0.102510 0.925394 0.500000
Si Si4 0.271899 0.167088 0.616900
Si Si5 0.739325 0.832886 0.500000
O O1 0.500000 0.500000 0.125880
O O2 0.745093 0.589719 0.166602
O O3 0.689924 0.578968 0.059848
O O4 0.429337 0.631124 0.122236
O O5 0.500000 0.918810 0.750000
O O6 0.411650 0.865847 0.841056
O O7 0.500000 0.000000 0.831870
O O8 0.944143 0.866200 0.500000
O O9 0.000000 0.000000 0.500000
O O10 0.250000 0.250000 0.621348
O O11 0.346567 0.147534 0.557040
O O12 0.750000 0.750000 0.500000
#
# Coordination Sequence:
#
# PCOD9496566 Si02
#       5
#    16  16   8  16   8
#     4  10  19  38  62  86 122 154 188 246 300 344
#     4  11  24  41  59  86 115 158 215 243 287 356
#     4   8  16  29  55  91 115 144 189 235 293 358
#     4  10  21  40  62  92 121 155 193 245 299 353
#     4   8  16  33  59  85 123 153 181 231 305 361
#
# _framework density 18.616795
#
# number of rings (size 3 to 8) (size 9 to 14) (size 15 to 20)
#    0.000    2.250    2.500    0.000    0.000    3.000 
#    4.500    1.250    0.000    9.000    0.000    0.000 
#    0.000    0.000    0.000    0.000    0.000    0.000 
#
# Total GULP energy -178217.174918 kJ/mol
# GULP energy per Si atom -5569.286716 kJ/mol
# Density = 1.857442 g / cm^3
# Si number density = 18.616795 Si / 1000 Ang^3
#
#
#
# Elastic Constant Matrix: (Units=GPa)
#
#
# Indices 1 2 3 4 5 6 
#
# 1 84.9427 51.0762 53.4046 0.0000 0.0000 0.0000
# 2 51.0762 113.6865 45.4502 0.0000 0.0000 0.0000
# 3 53.4046 45.4502 112.0971 0.0000 0.0000 0.0000
# 4 0.0000 0.0000 0.0000 29.8871 0.0000 0.0000
# 5 0.0000 0.0000 0.0000 0.0000 37.9960 0.0000
# 6 0.0000 0.0000 0.0000 0.0000 0.0000 25.1882
#
#
#
# Elastic Compliance Matrix: (Units=1/GPa)
#
#
# Indices 1 2 3 4 5 6 
#
# 1 0.019837 -0.006127 -0.006966 0.000000 0.000000 0.000000
# 2 -0.006127 0.012390 -0.002105 0.000000 0.000000 0.000000
# 3 -0.006966 -0.002105 0.013093 0.000000 0.000000 0.000000
# 4 0.000000 0.000000 0.000000 0.033459 0.000000 0.000000
# 5 0.000000 0.000000 0.000000 0.000000 0.026319 0.000000
# 6 0.000000 0.000000 0.000000 0.000000 0.000000 0.039701
#
#
# Mechanical properties :
#
#
# Convention : Reuss Voigt Hill
#
# Bulk Modulus (GPa) = 67.00615 67.84313 67.42464
# Shear Modulus (GPa) = 27.75170 29.33396 28.54283
#
# Velocity S-wave (km/s) = 3.86512 3.97378 3.91983
# Velocity P-wave (km/s) = 7.48260 7.58786 7.53541
#
# Compressibility (1/GPa) = 0.01492400
#
# Stress axis : x y z
#
# Youngs Moduli (GPa) = 50.41195 80.70862 76.37689
#
# Poissons Ratio (x) = 0.49451 0.53206
# Poissons Ratio (y) = 0.30888 0.16075
# Poissons Ratio (z) = 0.35118 0.16986
#
# Static dielectric constant tensor:
#      x y z
#    x 1.635150 0.000000 0.000000 
#    y 0.000000 1.615820 0.000000 
#    z 0.000000 0.000000 1.698000 
# 
# From -- ./inp_files/61246.got.cif
#   From: 2010.05.17/outbox.cif.g08.bks.cpg/sg66_31_cif.got.tgz:61246.got - 2010.06.03 17:51:23.
