data_PCOD9496685
_publ_section_title
;
Structure prediction by ZEFSAII (Michael W. Deem and Ramdas Pophale) SiO2 
 PCOD9496685
Probable space group: C C C M
;
_chemical_formula_sum "Si O2"
_cell_formula_units_Z 64
_cell_length_a 16.470644
_cell_length_b 11.960360
_cell_length_c 14.176219
_cell_angle_alpha 90.000000
_cell_angle_beta 90.000000
_cell_angle_gamma 90.000000
_cell_volume 2792.641876
_symmetry_space_group_name_H-M "C C C M"
_symmetry_group_IT_number 66
_symmetry_cell_setting 'orthorhombic'
loop_
_space_group_symop_operation_xyz
x,y,z
-x,-y,z
x,-y,1/2-z
-x,y,1/2-z
-x,-y,-z
x,y,-z
-x,y,1/2+z
x,-y,1/2+z
1/2+x,1/2+y,z
1/2-x,1/2-y,z
1/2+x,1/2-y,1/2-z
1/2-x,1/2+y,1/2-z
1/2-x,1/2-y,-z
1/2+x,1/2+y,-z
1/2-x,1/2+y,1/2+z
1/2+x,1/2-y,1/2+z
loop_
_atom_site_type_symbol
_atom_site_label
_atom_site_fract_x
_atom_site_fract_y
_atom_site_fract_z
Si Si1 0.878912 0.231741 0.888631
Si Si2 0.198123 0.005654 0.111982
Si Si3 0.562816 0.683112 0.887143
Si Si4 0.679422 0.842456 0.211450
O O1 0.854091 0.329693 0.817738
O O2 0.968447 0.187116 0.861242
O O3 0.820578 0.124726 0.874428
O O4 0.877096 0.261358 0.000000
O O5 0.119001 0.078395 0.143746
O O6 0.276502 0.051913 0.165438
O O7 0.208243 0.024369 0.000000
O O8 0.606026 0.795396 0.851783
O O9 0.563716 0.678641 0.000000
O O10 0.750000 0.750000 0.202165
#
# Coordination Sequence:
#
# PCOD9496685 Si02
#       4
#    16  16  16  16
#     4  10  20  34  54  82 118 158 198 244 299 357
#     4   9  18  34  56  83 116 156 200 244 298 364
#     4   9  17  31  53  82 116 151 189 240 297 350
#     4  10  20  32  51  81 120 157 195 242 297 354
#
# _framework density 22.917369000000001
#
# number of rings (size 3 to 8) (size 9 to 14) (size 15 to 20)
#    0.000    2.500    0.000    2.250    0.000   10.500 
#    0.000    5.000    0.000    3.000    0.000   29.750 
#    0.000   76.000    0.000    0.000    0.000    0.000 
#
# Total GULP energy -178850.217216 kJ/mol
# GULP energy per Si atom -5589.069288 kJ/mol
# Density = 2.286521 g / cm^3
# Si number density = 22.917369 Si / 1000 Ang^3
#
#
#
# Elastic Constant Matrix: (Units=GPa)
#
#
# Indices 1 2 3 4 5 6 
#
# 1 75.8748 33.8208 24.6711 0.0000 0.0000 0.0000
# 2 33.8208 63.3597 30.7043 0.0000 0.0000 0.0000
# 3 24.6711 30.7043 60.6034 0.0000 0.0000 0.0000
# 4 0.0000 0.0000 0.0000 32.5248 0.0000 0.0000
# 5 0.0000 0.0000 0.0000 0.0000 33.5500 0.0000
# 6 0.0000 0.0000 0.0000 0.0000 0.0000 27.1611
#
#
#
# Elastic Compliance Matrix: (Units=1/GPa)
#
#
# Indices 1 2 3 4 5 6 
#
# 1 0.017755 -0.007919 -0.003216 0.000000 0.000000 0.000000
# 2 -0.007919 0.024451 -0.009164 0.000000 0.000000 0.000000
# 3 -0.003216 -0.009164 0.022453 0.000000 0.000000 0.000000
# 4 0.000000 0.000000 0.000000 0.030746 0.000000 0.000000
# 5 0.000000 0.000000 0.000000 0.000000 0.029806 0.000000
# 6 0.000000 0.000000 0.000000 0.000000 0.000000 0.036817
#
#
# Mechanical properties :
#
#
# Convention : Reuss Voigt Hill
#
# Bulk Modulus (GPa) = 41.56131 42.02559 41.79345
# Shear Modulus (GPa) = 23.73642 26.02330 24.87986
#
# Velocity S-wave (km/s) = 3.22178 3.37341 3.29847
# Velocity P-wave (km/s) = 5.65814 5.79232 5.72562
#
# Compressibility (1/GPa) = 0.02406084
#
# Stress axis : x y z
#
# Youngs Moduli (GPa) = 56.32168 40.89808 44.53789
#
# Poissons Ratio (x) = 0.32388 0.14322
# Poissons Ratio (y) = 0.44602 0.40815
# Poissons Ratio (z) = 0.18112 0.37480
#
# Static dielectric constant tensor:
#      x y z
#    x 1.857220 0.000000 0.000000 
#    y 0.000000 1.874700 0.000000 
#    z 0.000000 0.000000 1.896230 
# 
# From -- ./inp_files/29561.got.cif
#   From: 2010.05.17/outbox.cif.g08.bks.cpg/sg66_15_cif.got.tgz:29561.got - 2010.06.03 17:51:23.
