data_PCOD9496444
_publ_section_title
;
Structure prediction by ZEFSAII (Michael W. Deem and Ramdas Pophale) SiO2 
 PCOD9496444
Probable space group: C C C M
;
_chemical_formula_sum "Si O2"
_cell_formula_units_Z 64
_cell_length_a 16.244250
_cell_length_b 10.908565
_cell_length_c 21.098096
_cell_angle_alpha 90.000000
_cell_angle_beta 90.000000
_cell_angle_gamma 90.000000
_cell_volume 3738.613351
_symmetry_space_group_name_H-M "C C C M"
_symmetry_group_IT_number 66
_symmetry_cell_setting 'orthorhombic'
loop_
_space_group_symop_operation_xyz
x,y,z
-x,-y,z
x,-y,1/2-z
-x,y,1/2-z
-x,-y,-z
x,y,-z
-x,y,1/2+z
x,-y,1/2+z
1/2+x,1/2+y,z
1/2-x,1/2-y,z
1/2+x,1/2-y,1/2-z
1/2-x,1/2+y,1/2-z
1/2-x,1/2-y,-z
1/2+x,1/2+y,-z
1/2-x,1/2+y,1/2+z
1/2+x,1/2-y,1/2+z
loop_
_atom_site_type_symbol
_atom_site_label
_atom_site_fract_x
_atom_site_fract_y
_atom_site_fract_z
Si Si1 0.000000 0.701058 0.250000
Si Si2 0.058435 0.118359 0.639483
Si Si3 0.364262 0.000000 0.750000
Si Si4 0.938380 0.113197 0.000000
Si Si5 0.749758 0.601695 0.500000
Si Si6 0.750231 0.897927 0.639681
O O1 0.031230 0.786022 0.192655
O O2 0.075684 0.612304 0.268453
O O3 0.052268 0.176611 0.568397
O O4 0.152739 0.073507 0.647572
O O5 0.000000 0.000000 0.642621
O O6 0.306425 0.042717 0.692619
O O7 0.845573 0.063321 0.000000
O O8 0.000000 0.000000 0.000000
O O9 0.750000 0.750000 0.500000
O O10 0.781758 0.565499 0.569205
O O11 0.750000 0.750000 0.644276
#
# Coordination Sequence:
#
# PCOD9496444 Si02
#       6
#     8  16   8   8   8  16
#     4  11  23  38  48  76 115 149 174 220 274 319
#     4  10  20  35  59  82 106 138 184 224 265 318
#     4  11  24  36  51  76 118 144 175 224 272 321
#     4   8  16  32  53  81 105 131 171 230 271 302
#     4   8  16  30  55  77 101 131 178 226 258 311
#     4  10  19  36  56  80 104 141 182 220 267 316
#
# _framework density 17.118645000000001
#
# number of rings (size 3 to 8) (size 9 to 14) (size 15 to 20)
#    0.000    2.250    2.500    0.375    3.500    0.000 
#    0.000    1.250    0.000    3.000    0.000   11.375 
#    0.000    0.000    0.000    0.000    0.000    0.000 
#
# Total GULP energy -178148.654859 kJ/mol
# GULP energy per Si atom -5567.145464 kJ/mol
# Density = 1.707968 g / cm^3
# Si number density = 17.118645 Si / 1000 Ang^3
#
#
#
# Elastic Constant Matrix: (Units=GPa)
#
#
# Indices 1 2 3 4 5 6 
#
# 1 105.8221 34.0569 51.7381 0.0000 0.0000 0.0000
# 2 34.0569 51.7185 46.6157 0.0000 0.0000 0.0000
# 3 51.7381 46.6157 183.2763 0.0000 0.0000 0.0000
# 4 0.0000 0.0000 0.0000 18.2348 0.0000 0.0000
# 5 0.0000 0.0000 0.0000 0.0000 14.5089 0.0000
# 6 0.0000 0.0000 0.0000 0.0000 0.0000 22.6762
#
#
#
# Elastic Compliance Matrix: (Units=1/GPa)
#
#
# Indices 1 2 3 4 5 6 
#
# 1 0.012459 -0.006532 -0.001856 0.000000 0.000000 0.000000
# 2 -0.006532 0.028511 -0.005408 0.000000 0.000000 0.000000
# 3 -0.001856 -0.005408 0.007356 0.000000 0.000000 0.000000
# 4 0.000000 0.000000 0.000000 0.054840 0.000000 0.000000
# 5 0.000000 0.000000 0.000000 0.000000 0.068923 0.000000
# 6 0.000000 0.000000 0.000000 0.000000 0.000000 0.044099
#
#
# Mechanical properties :
#
#
# Convention : Reuss Voigt Hill
#
# Bulk Modulus (GPa) = 48.22771 67.29316 57.76044
# Shear Modulus (GPa) = 19.94489 24.97772 22.46131
#
# Velocity S-wave (km/s) = 3.41706 3.82395 3.62622
# Velocity P-wave (km/s) = 6.61832 7.67411 7.16569
#
# Compressibility (1/GPa) = 0.02073497
#
# Stress axis : x y z
#
# Youngs Moduli (GPa) = 80.26125 35.07442 135.95101
#
# Poissons Ratio (x) = 0.22910 0.25231
# Poissons Ratio (y) = 0.52425 0.73519
# Poissons Ratio (z) = 0.14896 0.18967
#
# Static dielectric constant tensor:
#      x y z
#    x 1.592430 0.000000 0.000000 
#    y 0.000000 1.546970 0.000000 
#    z 0.000000 0.000000 1.632860 
# 
# From -- ./inp_files/46694.got.cif
#   From: 2010.05.17/outbox.cif.g08.bks.cpg/sg66_24_cif.got.tgz:46694.got - 2010.06.03 17:51:23.
