data_PCOD9496009
_publ_section_title
;
Structure prediction by ZEFSAII (Michael W. Deem and Ramdas Pophale) SiO2 
 PCOD9496009
Probable space group: C C C M
;
_chemical_formula_sum "Si O2"
_cell_formula_units_Z 96
_cell_length_a 25.835112
_cell_length_b 10.193169
_cell_length_c 14.273603
_cell_angle_alpha 90.000000
_cell_angle_beta 90.000000
_cell_angle_gamma 90.000000
_cell_volume 3758.834347
_symmetry_space_group_name_H-M "C C C M"
_symmetry_group_IT_number 66
_symmetry_cell_setting 'orthorhombic'
loop_
_space_group_symop_operation_xyz
x,y,z
-x,-y,z
x,-y,1/2-z
-x,y,1/2-z
-x,-y,-z
x,y,-z
-x,y,1/2+z
x,-y,1/2+z
1/2+x,1/2+y,z
1/2-x,1/2-y,z
1/2+x,1/2-y,1/2-z
1/2-x,1/2+y,1/2-z
1/2-x,1/2-y,-z
1/2+x,1/2+y,-z
1/2-x,1/2+y,1/2+z
1/2+x,1/2-y,1/2+z
loop_
_atom_site_type_symbol
_atom_site_label
_atom_site_fract_x
_atom_site_fract_y
_atom_site_fract_z
Si Si1 0.057476 0.471242 0.389363
Si Si2 0.453170 0.677234 0.142220
Si Si3 0.249262 0.102198 0.613482
Si Si4 0.661302 0.912477 0.885596
Si Si5 0.065035 0.118970 0.136689
Si Si6 0.184963 0.856429 0.607159
O O1 0.055687 0.497935 0.500000
O O2 0.071662 0.317235 0.378833
O O3 0.103098 0.563174 0.350404
O O4 0.000000 0.500000 0.351569
O O5 0.512607 0.691619 0.106148
O O6 0.438344 0.533422 0.105977
O O7 0.442534 0.646459 0.252103
O O8 0.243231 0.110881 0.500000
O O9 0.250000 0.250000 0.649087
O O10 0.304397 0.038526 0.635239
O O11 0.206318 0.994409 0.645048
O O12 0.693822 0.787363 0.850130
O O13 0.659480 0.902486 0.000000
O O14 0.122455 0.152935 0.107119
O O15 0.204202 0.853892 0.500000
#
# Coordination Sequence:
#
# PCOD9496009 Si02
#       6
#    16  16  16  16  16  16
#     4  10  20  33  54  85 121 154 191 242 298 353
#     4   9  19  36  53  75 111 150 190 236 285 345
#     4   9  18  31  50  80 113 145 188 233 280 345
#     4   9  18  32  49  76 117 151 179 227 289 348
#     4   9  19  35  54  77 107 149 195 236 286 345
#     4  10  19  32  54  82 112 146 190 240 292 343
#
# _framework density 25.539833000000002
#
# number of rings (size 3 to 8) (size 9 to 14) (size 15 to 20)
#    0.000    2.667    0.000    2.500    2.333    4.667 
#    0.000    7.500    0.000    0.000   17.333    0.000 
#    0.000    0.000    0.000    0.000    0.000    0.000 
#
# Total GULP energy -267711.463452 kJ/mol
# GULP energy per Si atom -5577.322155 kJ/mol
# Density = 2.548170 g / cm^3
# Si number density = 25.539833 Si / 1000 Ang^3
#
#
#
# Elastic Constant Matrix: (Units=GPa)
#
#
# Indices 1 2 3 4 5 6 
#
# 1 127.3647 76.9688 13.4101 0.0000 0.0000 0.0000
# 2 76.9688 218.6818 4.5745 0.0000 0.0000 0.0000
# 3 13.4101 4.5745 111.1680 0.0000 0.0000 0.0000
# 4 0.0000 0.0000 0.0000 13.6861 0.0000 0.0000
# 5 0.0000 0.0000 0.0000 0.0000 91.3159 0.0000
# 6 0.0000 0.0000 0.0000 0.0000 0.0000 41.5757
#
#
#
# Elastic Compliance Matrix: (Units=1/GPa)
#
#
# Indices 1 2 3 4 5 6 
#
# 1 0.010099 -0.003532 -0.001073 0.000000 0.000000 0.000000
# 2 -0.003532 0.005812 0.000187 0.000000 0.000000 0.000000
# 3 -0.001073 0.000187 0.009117 0.000000 0.000000 0.000000
# 4 0.000000 0.000000 0.000000 0.073067 0.000000 0.000000
# 5 0.000000 0.000000 0.000000 0.000000 0.010951 0.000000
# 6 0.000000 0.000000 0.000000 0.000000 0.000000 0.024053
#
#
# Mechanical properties :
#
#
# Convention : Reuss Voigt Hill
#
# Bulk Modulus (GPa) = 61.75850 71.90236 66.83043
# Shear Modulus (GPa) = 33.93702 53.46628 43.70165
#
# Velocity S-wave (km/s) = 3.64921 4.58038 4.14105
# Velocity P-wave (km/s) = 6.47992 7.49582 7.00631
#
# Compressibility (1/GPa) = 0.01619210
#
# Stress axis : x y z
#
# Youngs Moduli (GPa) = 99.02059 172.05461 109.68369
#
# Poissons Ratio (x) = 0.60770 0.11768
# Poissons Ratio (y) = 0.34975 -0.02050
# Poissons Ratio (z) = 0.10624 -0.03216
#
# Static dielectric constant tensor:
#      x y z
#    x 2.020160 0.000000 0.000000 
#    y 0.000000 2.068770 0.000000 
#    z 0.000000 0.000000 1.999820 
# 
# From -- ./inp_files/47280.got.cif
#   From: 2010.05.17/outbox.cif.g08.bks.cpg/sg66_24_cif.got.tgz:47280.got - 2010.06.03 17:51:23.
