data_PCOD9496665
_publ_section_title
;
Structure prediction by ZEFSAII (Michael W. Deem and Ramdas Pophale) SiO2 
 PCOD9496665
Probable space group: C C C M
;
_chemical_formula_sum "Si O2"
_cell_formula_units_Z 96
_cell_length_a 21.123793
_cell_length_b 9.586908
_cell_length_c 23.748794
_cell_angle_alpha 90.000000
_cell_angle_beta 90.000000
_cell_angle_gamma 90.000000
_cell_volume 4809.412448
_symmetry_space_group_name_H-M "C C C M"
_symmetry_group_IT_number 66
_symmetry_cell_setting 'orthorhombic'
loop_
_space_group_symop_operation_xyz
x,y,z
-x,-y,z
x,-y,1/2-z
-x,y,1/2-z
-x,-y,-z
x,y,-z
-x,y,1/2+z
x,-y,1/2+z
1/2+x,1/2+y,z
1/2-x,1/2-y,z
1/2+x,1/2-y,1/2-z
1/2-x,1/2+y,1/2-z
1/2-x,1/2-y,-z
1/2+x,1/2+y,-z
1/2-x,1/2+y,1/2+z
1/2+x,1/2-y,1/2+z
loop_
_atom_site_type_symbol
_atom_site_label
_atom_site_fract_x
_atom_site_fract_y
_atom_site_fract_z
Si Si1 0.438619 0.921045 0.808857
Si Si2 0.123927 0.111118 0.435119
Si Si3 0.285165 0.890385 0.434615
Si Si4 0.098735 0.200895 0.936360
Si Si5 0.990651 0.849052 0.348563
Si Si6 0.195158 0.339809 0.634321
O O1 0.464878 0.764471 0.806048
O O2 0.368876 0.898002 0.835741
O O3 0.500000 0.000000 0.837645
O O4 0.430365 0.000000 0.750000
O O5 0.111567 0.142277 0.500000
O O6 0.061795 0.129752 0.397266
O O7 0.172030 0.224841 0.411028
O O8 0.138199 0.944990 0.431708
O O9 0.268124 0.919026 0.500000
O O10 0.250000 0.750000 0.415535
O O11 0.357879 0.837198 0.434244
O O12 0.277111 0.024208 0.396185
O O13 0.051473 0.199751 0.884012
O O14 0.069810 0.194515 0.000000
O O15 0.000000 0.000000 0.322208
O O16 0.250000 0.250000 0.666822
#
# Coordination Sequence:
#
# PCOD9496665 Si02
#       6
#    16  16  16  16  16  16
#     4  10  22  42  64  84 109 144 188 246 310 361
#     4   9  17  29  49  81 120 157 190 225 269 333
#     4  10  20  32  48  75 114 157 195 228 269 332
#     4   9  16  28  48  78 117 156 189 224 272 334
#     4   9  17  31  55  84 113 146 188 236 287 346
#     4  11  22  36  57  83 113 149 192 238 289 346
#
# _framework density 19.960858000000002
#
# number of rings (size 3 to 8) (size 9 to 14) (size 15 to 20)
#    0.000    2.333    0.000    3.000    0.000    4.667 
#    0.000    2.500    0.000   14.000    0.000    0.000 
#    0.000    0.000    0.000    0.000    0.000    0.000 
#
# Total GULP energy -267216.691075 kJ/mol
# GULP energy per Si atom -5567.014397 kJ/mol
# Density = 1.991543 g / cm^3
# Si number density = 19.960858 Si / 1000 Ang^3
#
#
#
# Elastic Constant Matrix: (Units=GPa)
#
#
# Indices 1 2 3 4 5 6 
#
# 1 95.7814 53.5145 31.1889 0.0000 0.0000 0.0000
# 2 53.5145 131.6288 52.4009 0.0000 0.0000 0.0000
# 3 31.1889 52.4009 68.6022 0.0000 0.0000 0.0000
# 4 0.0000 0.0000 0.0000 21.0120 0.0000 0.0000
# 5 0.0000 0.0000 0.0000 0.0000 6.6473 0.0000
# 6 0.0000 0.0000 0.0000 0.0000 0.0000 41.2087
#
#
#
# Elastic Compliance Matrix: (Units=1/GPa)
#
#
# Indices 1 2 3 4 5 6 
#
# 1 0.013893 -0.004503 -0.002877 0.000000 0.000000 0.000000
# 2 -0.004503 0.012376 -0.007406 0.000000 0.000000 0.000000
# 3 -0.002877 -0.007406 0.021542 0.000000 0.000000 0.000000
# 4 0.000000 0.000000 0.000000 0.047592 0.000000 0.000000
# 5 0.000000 0.000000 0.000000 0.000000 0.150436 0.000000
# 6 0.000000 0.000000 0.000000 0.000000 0.000000 0.024267
#
#
# Mechanical properties :
#
#
# Convention : Reuss Voigt Hill
#
# Bulk Modulus (GPa) = 54.82686 63.35786 59.09236
# Shear Modulus (GPa) = 16.35284 24.36749 20.36016
#
# Velocity S-wave (km/s) = 2.86535 3.49773 3.19722
# Velocity P-wave (km/s) = 6.20272 6.93701 6.58012
#
# Compressibility (1/GPa) = 0.01823924
#
# Stress axis : x y z
#
# Youngs Moduli (GPa) = 71.97804 80.79973 46.42162
#
# Poissons Ratio (x) = 0.36386 0.13354
# Poissons Ratio (y) = 0.32413 0.34381
# Poissons Ratio (z) = 0.20705 0.59842
#
# Static dielectric constant tensor:
#      x y z
#    x 1.821910 0.000000 0.000000 
#    y 0.000000 1.718310 0.000000 
#    z 0.000000 0.000000 1.687310 
# 
# From -- ./inp_files/62622.got.cif
#   From: 2010.05.17/outbox.cif.g08.bks.cpg/sg66_32_cif.got.tgz:62622.got - 2010.06.03 17:51:23.
