data_PCOD9496141
_publ_section_title
;
Structure prediction by ZEFSAII (Michael W. Deem and Ramdas Pophale) SiO2 
 PCOD9496141
Probable space group: C C C M
;
_chemical_formula_sum "Si O2"
_cell_formula_units_Z 64
_cell_length_a 10.369340
_cell_length_b 16.726331
_cell_length_c 14.562588
_cell_angle_alpha 90.000000
_cell_angle_beta 90.000000
_cell_angle_gamma 90.000000
_cell_volume 2525.750016
_symmetry_space_group_name_H-M "C C C M"
_symmetry_group_IT_number 66
_symmetry_cell_setting 'orthorhombic'
loop_
_space_group_symop_operation_xyz
x,y,z
-x,-y,z
x,-y,1/2-z
-x,y,1/2-z
-x,-y,-z
x,y,-z
-x,y,1/2+z
x,-y,1/2+z
1/2+x,1/2+y,z
1/2-x,1/2-y,z
1/2+x,1/2-y,1/2-z
1/2-x,1/2+y,1/2-z
1/2-x,1/2-y,-z
1/2+x,1/2+y,-z
1/2-x,1/2+y,1/2+z
1/2+x,1/2-y,1/2+z
loop_
_atom_site_type_symbol
_atom_site_label
_atom_site_fract_x
_atom_site_fract_y
_atom_site_fract_z
Si Si1 0.148006 0.312805 0.362135
Si Si2 0.087153 0.924827 0.394111
Si Si3 0.112162 0.749057 0.346649
Si Si4 0.351671 0.992093 0.860009
O O1 0.250000 0.250000 0.397887
O O2 0.135830 0.294074 0.252005
O O3 0.190942 0.401915 0.380933
O O4 0.002996 0.297558 0.394353
O O5 0.050085 0.909380 0.500000
O O6 0.071174 0.841951 0.339934
O O7 0.238047 0.949746 0.391547
O O8 0.000000 0.000000 0.361661
O O9 0.250000 0.750000 0.394363
O O10 0.500000 0.000000 0.892407
O O11 0.356705 0.000000 0.750000
#
# Coordination Sequence:
#
# PCOD9496141 Si02
#       4
#    16  16  16  16
#     4  10  19  33  56  86 114 144 191 246 300 351
#     4  11  25  42  59  86 125 166 205 243 292 359
#     4  10  19  36  57  84 117 149 194 246 298 350
#     4  11  21  38  63  90 120 152 197 253 304 360
#
# _framework density 25.339009999999998
#
# number of rings (size 3 to 8) (size 9 to 14) (size 15 to 20)
#    0.000    1.500    0.000    9.000    0.000    3.500 
#    0.000    1.250    0.000    4.500    0.000    0.000 
#    0.000    0.000    0.000    0.000    0.000    0.000 
#
# Total GULP energy -179091.142837 kJ/mol
# GULP energy per Si atom -5596.598214 kJ/mol
# Density = 2.528134 g / cm^3
# Si number density = 25.339010 Si / 1000 Ang^3
#
#
#
# Elastic Constant Matrix: (Units=GPa)
#
#
# Indices 1 2 3 4 5 6 
#
# 1 81.1551 -33.9086 -2.5696 0.0000 0.0000 0.0000
# 2 -33.9086 133.9381 2.7110 0.0000 0.0000 0.0000
# 3 -2.5696 2.7110 105.9980 0.0000 0.0000 0.0000
# 4 0.0000 0.0000 0.0000 1.6305 0.0000 0.0000
# 5 0.0000 0.0000 0.0000 0.0000 -173.2266 0.0000
# 6 0.0000 0.0000 0.0000 0.0000 0.0000 51.2716
#
#
#
# Elastic Compliance Matrix: (Units=1/GPa)
#
#
# Indices 1 2 3 4 5 6 
#
# 1 0.013786 0.003485 0.000245 0.000000 0.000000 0.000000
# 2 0.003485 0.008351 -0.000129 0.000000 0.000000 0.000000
# 3 0.000245 -0.000129 0.009443 0.000000 0.000000 0.000000
# 4 0.000000 0.000000 0.000000 0.613322 0.000000 0.000000
# 5 0.000000 0.000000 0.000000 0.000000 -0.005773 0.000000
# 6 0.000000 0.000000 0.000000 0.000000 0.000000 0.019504
#
#
# Mechanical properties :
#
#
# Convention : Reuss Voigt Hill
#
# Bulk Modulus (GPa) = 25.78461 28.17299 26.97880
# Shear Modulus (GPa) = 7.52605 -0.40767 3.55919
#
# Velocity S-wave (km/s) = 1.72528 -0.40154 1.18646
# Velocity P-wave (km/s) = 3.76387 3.30569 3.54220
#
# Compressibility (1/GPa) = 0.03878283
#
# Stress axis : x y z
#
# Youngs Moduli (GPa) = 72.53715 119.74499 105.89430
#
# Poissons Ratio (x) = -0.41733 -0.02595
# Poissons Ratio (y) = -0.25281 0.01367
# Poissons Ratio (z) = -0.01778 0.01546
#
# Static dielectric constant tensor:
#      x y z
#    x 2.079240 0.000000 0.000000 
#    y 0.000000 1.931710 0.000000 
#    z 0.000000 0.000000 1.984100 
# 
# From -- ./inp_files/37976.got.cif
#   From: 2010.05.17/outbox.cif.g08.bks.cpg/sg66_19_cif.got.tgz:37976.got - 2010.06.03 17:51:23.
