data_PCOD9496052
_publ_section_title
;
Structure prediction by ZEFSAII (Michael W. Deem and Ramdas Pophale) SiO2 
 PCOD9496052
Probable space group: C C C M
;
_chemical_formula_sum "Si O2"
_cell_formula_units_Z 96
_cell_length_a 19.591480
_cell_length_b 14.064824
_cell_length_c 15.674462
_cell_angle_alpha 90.000000
_cell_angle_beta 90.000000
_cell_angle_gamma 90.000000
_cell_volume 4319.109260
_symmetry_space_group_name_H-M "C C C M"
_symmetry_group_IT_number 66
_symmetry_cell_setting 'orthorhombic'
loop_
_space_group_symop_operation_xyz
x,y,z
-x,-y,z
x,-y,1/2-z
-x,y,1/2-z
-x,-y,-z
x,y,-z
-x,y,1/2+z
x,-y,1/2+z
1/2+x,1/2+y,z
1/2-x,1/2-y,z
1/2+x,1/2-y,1/2-z
1/2-x,1/2+y,1/2-z
1/2-x,1/2-y,-z
1/2+x,1/2+y,-z
1/2-x,1/2+y,1/2+z
1/2+x,1/2-y,1/2+z
loop_
_atom_site_type_symbol
_atom_site_label
_atom_site_fract_x
_atom_site_fract_y
_atom_site_fract_z
Si Si1 0.552473 0.246525 0.097702
Si Si2 0.800329 0.157931 0.907592
Si Si3 0.400411 0.711333 0.599995
Si Si4 0.570287 0.955195 0.343201
Si Si5 0.716547 0.644207 0.779394
Si Si6 0.326773 0.912314 0.406915
O O1 0.620985 0.307799 0.097417
O O2 0.480986 0.296792 0.118242
O O3 0.564192 0.157226 0.158882
O O4 0.543918 0.209470 0.000000
O O5 0.750000 0.250000 0.908993
O O6 0.789295 0.108242 0.817046
O O7 0.790246 0.109092 0.000000
O O8 0.388333 0.684687 0.500000
O O9 0.353325 0.655807 0.667229
O O10 0.378261 0.822891 0.607061
O O11 0.500000 0.000000 0.376358
O O12 0.581106 0.000000 0.250000
O O13 0.631371 0.990917 0.401261
O O14 0.750000 0.750000 0.774492
O O15 0.770381 0.588739 0.835537
O O16 0.295977 0.896674 0.500000
#
# Coordination Sequence:
#
# PCOD9496052 Si02
#       6
#    16  16  16  16  16  16
#     4  10  20  33  50  71 100 139 177 212 258 314
#     4   9  19  33  49  67  92 127 169 215 263 314
#     4   9  17  29  47  71  99 131 170 212 254 299
#     4  11  23  31  46  70 104 144 181 213 247 299
#     4   9  18  29  49  69  94 126 171 218 262 299
#     4  10  19  33  49  69  99 138 177 214 256 302
#
# _framework density 22.226806
#
# number of rings (size 3 to 8) (size 9 to 14) (size 15 to 20)
#    0.000    2.333    1.667    1.000    7.000    3.333 
#    0.000    0.000    0.000    0.000    0.000    0.000 
#    0.000    1.333    0.333   12.500    1.000    0.000 
#
# Total GULP energy -268207.981833 kJ/mol
# GULP energy per Si atom -5587.666288 kJ/mol
# Density = 2.217622 g / cm^3
# Si number density = 22.226806 Si / 1000 Ang^3
#
#
#
# Elastic Constant Matrix: (Units=GPa)
#
#
# Indices 1 2 3 4 5 6 
#
# 1 139.7219 16.2980 65.9391 0.0000 0.0000 0.0000
# 2 16.2980 17.7888 12.8086 0.0000 0.0000 0.0000
# 3 65.9391 12.8086 167.5908 0.0000 0.0000 0.0000
# 4 0.0000 0.0000 0.0000 7.8293 0.0000 0.0000
# 5 0.0000 0.0000 0.0000 0.0000 23.7524 0.0000
# 6 0.0000 0.0000 0.0000 0.0000 0.0000 24.0374
#
#
#
# Elastic Compliance Matrix: (Units=1/GPa)
#
#
# Indices 1 2 3 4 5 6 
#
# 1 0.009413 -0.006304 -0.003222 0.000000 0.000000 0.000000
# 2 -0.006304 0.063711 -0.002389 0.000000 0.000000 0.000000
# 3 -0.003222 -0.002389 0.007417 0.000000 0.000000 0.000000
# 4 0.000000 0.000000 0.000000 0.127725 0.000000 0.000000
# 5 0.000000 0.000000 0.000000 0.000000 0.042101 0.000000
# 6 0.000000 0.000000 0.000000 0.000000 0.000000 0.041602
#
#
# Mechanical properties :
#
#
# Convention : Reuss Voigt Hill
#
# Bulk Modulus (GPa) = 17.63310 57.24366 37.43838
# Shear Modulus (GPa) = 14.93863 26.46087 20.69975
#
# Velocity S-wave (km/s) = 2.59530 3.45410 3.05503
# Velocity P-wave (km/s) = 4.11476 6.45894 5.41522
#
# Compressibility (1/GPa) = 0.05671151
#
# Stress axis : x y z
#
# Youngs Moduli (GPa) = 106.23770 15.69581 134.82393
#
# Poissons Ratio (x) = 0.09895 0.43436
# Poissons Ratio (y) = 0.66975 0.32208
# Poissons Ratio (z) = 0.34227 0.03750
#
# Static dielectric constant tensor:
#      x y z
#    x 1.805920 0.000000 0.000000 
#    y 0.000000 1.789110 0.000000 
#    z 0.000000 0.000000 1.869270 
# 
# From -- ./inp_files/31206.got.cif
#   From: 2010.05.17/outbox.cif.g08.bks.cpg/sg66_16_cif.got.tgz:31206.got - 2010.06.03 17:51:23.
