data_PCOD9496886
_publ_section_title
;
Structure prediction by ZEFSAII (Michael W. Deem and Ramdas Pophale) SiO2 
 PCOD9496886
Probable space group: C C C M
;
_chemical_formula_sum "Si O2"
_cell_formula_units_Z 116
_cell_length_a 28.855993
_cell_length_b 23.620116
_cell_length_c 8.447958
_cell_angle_alpha 90.000000
_cell_angle_beta 90.000000
_cell_angle_gamma 90.000000
_cell_volume 5757.975281
_symmetry_space_group_name_H-M "C C C M"
_symmetry_group_IT_number 66
_symmetry_cell_setting 'orthorhombic'
loop_
_space_group_symop_operation_xyz
x,y,z
-x,-y,z
x,-y,1/2-z
-x,y,1/2-z
-x,-y,-z
x,y,-z
-x,y,1/2+z
x,-y,1/2+z
1/2+x,1/2+y,z
1/2-x,1/2-y,z
1/2+x,1/2-y,1/2-z
1/2-x,1/2+y,1/2-z
1/2-x,1/2-y,-z
1/2+x,1/2+y,-z
1/2-x,1/2+y,1/2+z
1/2+x,1/2-y,1/2+z
loop_
_atom_site_type_symbol
_atom_site_label
_atom_site_fract_x
_atom_site_fract_y
_atom_site_fract_z
Si Si1 0.617157 0.822718 0.187721
Si Si2 0.500000 0.500000 0.750000
Si Si3 0.949415 0.222896 0.309561
Si Si4 0.696471 0.247515 0.811624
Si Si5 0.573188 0.407188 0.692878
Si Si6 0.327214 0.368319 0.809196
Si Si7 0.260906 0.061230 0.189521
Si Si8 0.865425 0.439284 0.186704
O O1 0.585327 0.771375 0.249282
O O2 0.669069 0.803176 0.229893
O O3 0.607047 0.883981 0.258850
O O4 0.612500 0.826429 0.000000
O O5 0.540119 0.451333 0.784272
O O6 0.946837 0.223377 0.500000
O O7 0.939560 0.157677 0.265311
O O8 0.000000 0.237577 0.250000
O O9 0.750000 0.250000 0.759882
O O10 0.671437 0.306155 0.765251
O O11 0.695209 0.239723 0.000000
O O12 0.566133 0.416201 0.500000
O O13 0.628331 0.407755 0.727696
O O14 0.278349 0.394904 0.758942
O O15 0.328054 0.361327 0.000000
O O16 0.312669 0.069119 0.252809
O O17 0.245366 0.000000 0.250000
O O18 0.262904 0.061777 0.000000
O O19 0.881959 0.500000 0.250000
O O20 0.864158 0.442133 0.000000
#
# Coordination Sequence:
#
# PCOD9496886 Si02
#       8
#    16   4  16  16  16  16  16  16
#     4  11  22  39  62  87 118 159 200 243 303 364
#     4  12  22  36  64  86 116 152 208 268 322 364
#     4  10  21  40  64  88 119 154 196 250 303 367
#     4  11  23  36  54  85 120 153 197 253 306 361
#     4  10  21  39  57  81 113 151 199 252 310 365
#     4  10  21  38  55  75 112 156 200 247 304 369
#     4  10  20  34  55  80 113 158 203 247 297 357
#     4  11  22  38  61  89 124 158 197 243 286 350
#
# _framework density 20.145969999999998
#
# number of rings (size 3 to 8) (size 9 to 14) (size 15 to 20)
#    0.000    1.517    2.069    4.345    0.966    5.517 
#    0.000    1.379    0.000    0.414    0.000    2.897 
#    0.000    0.000    0.000    0.000    0.000    0.000 
#
# Total GULP energy -323512.802199 kJ/mol
# GULP energy per Si atom -5577.806934 kJ/mol
# Density = 2.010012 g / cm^3
# Si number density = 20.145970 Si / 1000 Ang^3
#
#
#
# Elastic Constant Matrix: (Units=GPa)
#
#
# Indices 1 2 3 4 5 6 
#
# 1 59.8004 30.5881 2.4229 0.0000 0.0000 0.0000
# 2 30.5881 154.6515 23.2305 0.0000 0.0000 0.0000
# 3 2.4229 23.2305 29.0466 0.0000 0.0000 0.0000
# 4 0.0000 0.0000 0.0000 36.0618 0.0000 0.0000
# 5 0.0000 0.0000 0.0000 0.0000 17.3965 0.0000
# 6 0.0000 0.0000 0.0000 0.0000 0.0000 38.5484
#
#
#
# Elastic Compliance Matrix: (Units=1/GPa)
#
#
# Indices 1 2 3 4 5 6 
#
# 1 0.018669 -0.003931 0.001586 0.000000 0.000000 0.000000
# 2 -0.003931 0.008177 -0.006212 0.000000 0.000000 0.000000
# 3 0.001586 -0.006212 0.039263 0.000000 0.000000 0.000000
# 4 0.000000 0.000000 0.000000 0.027730 0.000000 0.000000
# 5 0.000000 0.000000 0.000000 0.000000 0.057483 0.000000
# 6 0.000000 0.000000 0.000000 0.000000 0.000000 0.025941
#
#
# Mechanical properties :
#
#
# Convention : Reuss Voigt Hill
#
# Bulk Modulus (GPa) = 20.40965 39.55351 29.98158
# Shear Modulus (GPa) = 23.72972 30.88513 27.30742
#
# Velocity S-wave (km/s) = 3.43576 3.91969 3.68568
# Velocity P-wave (km/s) = 5.08843 6.33730 5.74689
#
# Compressibility (1/GPa) = 0.04899642
#
# Stress axis : x y z
#
# Youngs Moduli (GPa) = 53.56591 122.29960 25.46938
#
# Poissons Ratio (x) = 0.48072 -0.04040
# Poissons Ratio (y) = 0.21055 0.15820
# Poissons Ratio (z) = -0.08498 0.75967
#
# Static dielectric constant tensor:
#      x y z
#    x 1.729220 0.000000 0.000000 
#    y 0.000000 1.726410 0.000000 
#    z 0.000000 0.000000 1.703220 
# 
# From -- ./inp_files/11711.got.cif
#   From: 2010.05.17/outbox.cif.g08.bks.cpg/sg66_6_cif.got.tgz:11711.got - 2010.06.03 17:51:23.
