data_PCOD9496156
_publ_section_title
;
Structure prediction by ZEFSAII (Michael W. Deem and Ramdas Pophale) SiO2 
 PCOD9496156
Probable space group: C C C M
;
_chemical_formula_sum "Si O2"
_cell_formula_units_Z 80
_cell_length_a 10.402387
_cell_length_b 27.317193
_cell_length_c 13.497843
_cell_angle_alpha 90.000000
_cell_angle_beta 90.000000
_cell_angle_gamma 90.000000
_cell_volume 3835.601238
_symmetry_space_group_name_H-M "C C C M"
_symmetry_group_IT_number 66
_symmetry_cell_setting 'orthorhombic'
loop_
_space_group_symop_operation_xyz
x,y,z
-x,-y,z
x,-y,1/2-z
-x,y,1/2-z
-x,-y,-z
x,y,-z
-x,y,1/2+z
x,-y,1/2+z
1/2+x,1/2+y,z
1/2-x,1/2-y,z
1/2+x,1/2-y,1/2-z
1/2-x,1/2+y,1/2-z
1/2-x,1/2-y,-z
1/2+x,1/2+y,-z
1/2-x,1/2+y,1/2+z
1/2+x,1/2-y,1/2+z
loop_
_atom_site_type_symbol
_atom_site_label
_atom_site_fract_x
_atom_site_fract_y
_atom_site_fract_z
Si Si1 0.832945 0.943259 0.763829
Si Si2 0.073129 0.450195 0.114279
Si Si3 0.675627 0.885739 0.384898
Si Si4 0.203837 0.194658 0.275218
Si Si5 0.953433 0.146099 0.381552
O O1 0.697739 0.942625 0.821648
O O2 0.788275 0.920797 0.658274
O O3 0.924371 0.907207 0.829500
O O4 0.869313 0.000000 0.750000
O O5 0.000000 0.500000 0.139648
O O6 0.963510 0.409784 0.123534
O O7 0.113819 0.453733 0.000000
O O8 0.700632 0.875476 0.500000
O O9 0.682262 0.838338 0.317109
O O10 0.250000 0.250000 0.282992
O O11 0.162023 0.178820 0.164833
O O12 0.081210 0.174975 0.341540
O O13 0.954111 0.142312 0.500000
#
# Coordination Sequence:
#
# PCOD9496156 Si02
#       5
#    16  16  16  16  16
#     4  11  21  36  62  92 138 178 213 263 328 389
#     4  10  19  33  57  90 128 172 223 266 319 387
#     4  10  21  35  58  91 125 168 221 271 320 389
#     4  10  23  47  72  94 126 172 222 280 345 404
#     4  10  23  44  70 103 137 170 222 280 336 404
#
# _framework density 20.857226000000001
#
# number of rings (size 3 to 8) (size 9 to 14) (size 15 to 20)
#    0.000    1.800    2.000    1.800    0.000    2.800 
#   14.400    8.000    0.000   12.000    0.000    0.000 
#    0.000    0.000    0.000    0.000    0.000    0.000 
#
# Total GULP energy -223222.920597 kJ/mol
# GULP energy per Si atom -5580.573015 kJ/mol
# Density = 2.080975 g / cm^3
# Si number density = 20.857226 Si / 1000 Ang^3
#
#
#
# Elastic Constant Matrix: (Units=GPa)
#
#
# Indices 1 2 3 4 5 6 
#
# 1 85.2041 24.5036 32.6290 0.0000 0.0000 0.0000
# 2 24.5036 162.7253 25.6518 0.0000 0.0000 0.0000
# 3 32.6290 25.6518 130.5849 0.0000 0.0000 0.0000
# 4 0.0000 0.0000 0.0000 30.6303 0.0000 0.0000
# 5 0.0000 0.0000 0.0000 0.0000 -6.3482 0.0000
# 6 0.0000 0.0000 0.0000 0.0000 0.0000 31.8756
#
#
#
# Elastic Compliance Matrix: (Units=1/GPa)
#
#
# Indices 1 2 3 4 5 6 
#
# 1 0.013338 -0.001530 -0.003032 0.000000 0.000000 0.000000
# 2 -0.001530 0.006517 -0.000898 0.000000 0.000000 0.000000
# 3 -0.003032 -0.000898 0.008592 0.000000 0.000000 0.000000
# 4 0.000000 0.000000 0.000000 0.032647 0.000000 0.000000
# 5 0.000000 0.000000 0.000000 0.000000 -0.157525 0.000000
# 6 0.000000 0.000000 0.000000 0.000000 0.000000 0.031372
#
#
# Mechanical properties :
#
#
# Convention : Reuss Voigt Hill
#
# Bulk Modulus (GPa) = 57.05730 60.45370 58.75550
# Shear Modulus (GPa) = -103.52900 30.94687 -36.29107
#
# Velocity S-wave (km/s) = -7.05300 3.85612 -4.17583
# Velocity P-wave (km/s) = 6.23785 6.99097 2.23192
#
# Compressibility (1/GPa) = 0.01752624
#
# Stress axis : x y z
#
# Youngs Moduli (GPa) = 74.97492 153.43728 116.38956
#
# Poissons Ratio (x) = 0.23483 0.35290
# Poissons Ratio (y) = 0.11475 0.10450
# Poissons Ratio (z) = 0.22733 0.13776
#
# Static dielectric constant tensor:
#      x y z
#    x 1.802610 0.000000 0.000000 
#    y 0.000000 1.882150 0.000000 
#    z 0.000000 0.000000 1.764590 
# 
# From -- ./inp_files/26699.got.cif
#   From: 2010.05.17/outbox.cif.g08.bks.cpg/sg66_14_cif.got.tgz:26699.got - 2010.06.03 17:51:23.
