data_PCOD9496471
_publ_section_title
;
Structure prediction by ZEFSAII (Michael W. Deem and Ramdas Pophale) SiO2 
 PCOD9496471
Probable space group: C C C M
;
_chemical_formula_sum "Si O2"
_cell_formula_units_Z 88
_cell_length_a 14.225371
_cell_length_b 12.526439
_cell_length_c 24.520932
_cell_angle_alpha 90.000000
_cell_angle_beta 90.000000
_cell_angle_gamma 90.000000
_cell_volume 4369.464372
_symmetry_space_group_name_H-M "C C C M"
_symmetry_group_IT_number 66
_symmetry_cell_setting 'orthorhombic'
loop_
_space_group_symop_operation_xyz
x,y,z
-x,-y,z
x,-y,1/2-z
-x,y,1/2-z
-x,-y,-z
x,y,-z
-x,y,1/2+z
x,-y,1/2+z
1/2+x,1/2+y,z
1/2-x,1/2-y,z
1/2+x,1/2-y,1/2-z
1/2-x,1/2+y,1/2-z
1/2-x,1/2-y,-z
1/2+x,1/2+y,-z
1/2-x,1/2+y,1/2+z
1/2+x,1/2-y,1/2+z
loop_
_atom_site_type_symbol
_atom_site_label
_atom_site_fract_x
_atom_site_fract_y
_atom_site_fract_z
Si Si1 0.154979 0.559260 0.500000
Si Si2 0.000000 0.277281 0.750000
Si Si3 0.459670 0.160946 0.500000
Si Si4 0.265646 0.497301 0.607009
Si Si5 0.329013 0.176998 0.314621
Si Si6 0.563126 0.399628 0.335387
Si Si7 0.590121 0.676725 0.591470
O O1 0.095929 0.449294 0.500000
O O2 0.211795 0.557536 0.557714
O O3 0.071881 0.646354 0.500000
O O4 0.917611 0.346598 0.776771
O O5 0.950280 0.197747 0.706212
O O6 0.425163 0.229485 0.550269
O O7 0.203930 0.423024 0.648351
O O8 0.332432 0.566543 0.647224
O O9 0.337028 0.415434 0.576374
O O10 0.250000 0.250000 0.284375
O O11 0.365962 0.267877 0.355758
O O12 0.500000 0.500000 0.314482
O O13 0.509595 0.370039 0.391268
#
# Coordination Sequence:
#
# PCOD9496471 Si02
#       7
#     8   8   8  16  16  16  16
#     4  11  23  34  57  84 120 160 191 236 298 347
#     4  10  19  36  60  84 113 152 190 245 312 356
#     4  11  21  36  55  82 116 160 187 230 298 355
#     4  10  19  36  59  89 114 149 203 245 280 354
#     4   9  18  33  57  83 108 143 199 240 285 353
#     4   9  19  34  58  87 115 145 185 250 301 342
#     4   9  18  34  58  83 109 144 191 234 281 340
#
# _framework density 20.139768
#
# number of rings (size 3 to 8) (size 9 to 14) (size 15 to 20)
#    0.000    2.364    1.818    1.909    0.000    1.455 
#    0.000    8.182    0.000    4.364    0.000    0.000 
#    0.000    0.000    0.000    0.000    0.000    0.000 
#
# Total GULP energy -244995.280486 kJ/mol
# GULP energy per Si atom -5568.074556 kJ/mol
# Density = 2.009393 g / cm^3
# Si number density = 20.139768 Si / 1000 Ang^3
#
#
#
# Elastic Constant Matrix: (Units=GPa)
#
#
# Indices 1 2 3 4 5 6 
#
# 1 106.7430 11.2951 43.6549 0.0000 0.0000 0.0000
# 2 11.2951 19.6954 4.9569 0.0000 0.0000 0.0000
# 3 43.6549 4.9569 56.3662 0.0000 0.0000 0.0000
# 4 0.0000 0.0000 0.0000 -108.2776 0.0000 0.0000
# 5 0.0000 0.0000 0.0000 0.0000 15.8771 0.0000
# 6 0.0000 0.0000 0.0000 0.0000 0.0000 36.1726
#
#
#
# Elastic Compliance Matrix: (Units=1/GPa)
#
#
# Indices 1 2 3 4 5 6 
#
# 1 0.014276 -0.005527 -0.010571 0.000000 0.000000 0.000000
# 2 -0.005527 0.054062 -0.000474 0.000000 0.000000 0.000000
# 3 -0.010571 -0.000474 0.025970 0.000000 0.000000 0.000000
# 4 0.000000 0.000000 0.000000 -0.009236 0.000000 0.000000
# 5 0.000000 0.000000 0.000000 0.000000 0.062984 0.000000
# 6 0.000000 0.000000 0.000000 0.000000 0.000000 0.027645
#
#
# Mechanical properties :
#
#
# Convention : Reuss Voigt Hill
#
# Bulk Modulus (GPa) = 16.34912 33.62425 24.98668
# Shear Modulus (GPa) = 21.81189 -3.05239 9.37975
#
# Velocity S-wave (km/s) = 3.29451 -1.23243 2.16043
# Velocity P-wave (km/s) = 4.75470 3.83491 4.31935
#
# Compressibility (1/GPa) = 0.06116538
#
# Stress axis : x y z
#
# Youngs Moduli (GPa) = 70.04644 18.49721 38.50649
#
# Poissons Ratio (x) = 0.10223 0.40704
# Poissons Ratio (y) = 0.38714 0.01824
# Poissons Ratio (z) = 0.74044 0.00876
#
# Static dielectric constant tensor:
#      x y z
#    x 1.788980 0.000000 0.000000 
#    y 0.000000 1.714180 0.000000 
#    z 0.000000 0.000000 1.700520 
# 
# From -- ./inp_files/58044.got.cif
#   From: 2010.05.17/outbox.cif.g08.bks.cpg/sg66_30_cif.got.tgz:58044.got - 2010.06.03 17:51:23.
