data_PCOD9496263
_publ_section_title
;
Structure prediction by ZEFSAII (Michael W. Deem and Ramdas Pophale) SiO2 
 PCOD9496263
Probable space group: C C C M
;
_chemical_formula_sum "Si O2"
_cell_formula_units_Z 104
_cell_length_a 8.481108
_cell_length_b 24.656709
_cell_length_c 24.357578
_cell_angle_alpha 90.000000
_cell_angle_beta 90.000000
_cell_angle_gamma 90.000000
_cell_volume 5093.564444
_symmetry_space_group_name_H-M "C C C M"
_symmetry_group_IT_number 66
_symmetry_cell_setting 'orthorhombic'
loop_
_space_group_symop_operation_xyz
x,y,z
-x,-y,z
x,-y,1/2-z
-x,y,1/2-z
-x,-y,-z
x,y,-z
-x,y,1/2+z
x,-y,1/2+z
1/2+x,1/2+y,z
1/2-x,1/2-y,z
1/2+x,1/2-y,1/2-z
1/2-x,1/2+y,1/2-z
1/2-x,1/2-y,-z
1/2+x,1/2+y,-z
1/2-x,1/2+y,1/2+z
1/2+x,1/2-y,1/2+z
loop_
_atom_site_type_symbol
_atom_site_label
_atom_site_fract_x
_atom_site_fract_y
_atom_site_fract_z
Si Si1 0.052329 0.062733 0.105420
Si Si2 0.571202 0.849165 0.190872
Si Si3 0.373597 0.603528 0.000000
Si Si4 0.570099 0.939992 0.500000
Si Si5 0.380510 0.204915 0.500000
Si Si6 0.930327 0.559971 0.110126
Si Si7 0.059862 0.254802 0.109056
Si Si8 0.050920 0.846069 0.686725
O O1 0.242369 0.061676 0.102881
O O2 0.003018 0.095945 0.160260
O O3 0.000000 0.000000 0.104915
O O4 0.980011 0.096449 0.053960
O O5 0.500000 0.844478 0.250000
O O6 0.523559 0.904941 0.162228
O O7 0.517726 0.799801 0.153719
O O8 0.759877 0.846179 0.190608
O O9 0.235861 0.650655 0.000000
O O10 0.256241 0.552236 0.000000
O O11 0.505869 0.913993 0.444476
O O12 0.500000 0.000000 0.500000
O O13 0.250000 0.250000 0.500000
O O14 0.484664 0.221217 0.446601
O O15 0.000000 0.500000 0.115536
O O16 0.250000 0.250000 0.101336
O O17 0.007640 0.198920 0.139927
O O18 0.000000 0.836598 0.750000
#
# Coordination Sequence:
#
# PCOD9496263 Si02
#       8
#    16  16   8   8   8  16  16  16
#     4  11  23  40  61  87 125 166 204 253 310 371
#     4  10  22  38  61  88 117 157 203 252 307 364
#     4  12  24  39  60  93 127 162 204 251 311 370
#     4  10  19  34  57  83 111 147 194 244 294 352
#     4  12  25  39  63  96 125 159 200 251 308 370
#     4  10  21  38  59  87 119 159 207 256 308 367
#     4  10  22  43  65  90 122 160 202 251 310 369
#     4  10  23  41  62  88 121 160 204 253 308 367
#
# _framework density 20.417922999999998
#
# number of rings (size 3 to 8) (size 9 to 14) (size 15 to 20)
#    0.000    1.538    0.000    5.077    0.000    5.538 
#    0.000    9.231    0.000    0.000    0.000    0.000 
#    0.000    0.000    0.000    0.000    0.000    0.000 
#
# Total GULP energy -289852.279667 kJ/mol
# GULP energy per Si atom -5574.082301 kJ/mol
# Density = 2.037145 g / cm^3
# Si number density = 20.417923 Si / 1000 Ang^3
#
#
#
# Elastic Constant Matrix: (Units=GPa)
#
#
# Indices 1 2 3 4 5 6 
#
# 1 61.3716 39.7302 49.2056 0.0000 0.0000 0.0000
# 2 39.7302 127.3033 78.6927 0.0000 0.0000 0.0000
# 3 49.2056 78.6927 194.9379 0.0000 0.0000 0.0000
# 4 0.0000 0.0000 0.0000 24.6073 0.0000 0.0000
# 5 0.0000 0.0000 0.0000 0.0000 179.9151 0.0000
# 6 0.0000 0.0000 0.0000 0.0000 0.0000 27.0830
#
#
#
# Elastic Compliance Matrix: (Units=1/GPa)
#
#
# Indices 1 2 3 4 5 6 
#
# 1 0.022311 -0.004640 -0.003759 0.000000 0.000000 0.000000
# 2 -0.004640 0.011432 -0.003444 0.000000 0.000000 0.000000
# 3 -0.003759 -0.003444 0.007469 0.000000 0.000000 0.000000
# 4 0.000000 0.000000 0.000000 0.040638 0.000000 0.000000
# 5 0.000000 0.000000 0.000000 0.000000 0.005558 0.000000
# 6 0.000000 0.000000 0.000000 0.000000 0.000000 0.036923
#
#
# Mechanical properties :
#
#
# Convention : Reuss Voigt Hill
#
# Bulk Modulus (GPa) = 57.05233 79.87443 68.46338
# Shear Modulus (GPa) = 32.49718 60.72003 46.60860
#
# Velocity S-wave (km/s) = 3.99382 5.45923 4.78298
# Velocity P-wave (km/s) = 7.01928 8.88494 8.00664
#
# Compressibility (1/GPa) = 0.01752777
#
# Stress axis : x y z
#
# Youngs Moduli (GPa) = 44.81995 87.47363 133.88998
#
# Poissons Ratio (x) = 0.40585 0.50327
# Poissons Ratio (y) = 0.20795 0.46108
# Poissons Ratio (z) = 0.16847 0.30124
#
# Static dielectric constant tensor:
#      x y z
#    x 1.727180 0.000000 0.000000 
#    y 0.000000 2.171290 0.000000 
#    z 0.000000 0.000000 1.714770 
# 
# From -- ./inp_files/47454.got.cif
#   From: 2010.05.17/outbox.cif.g08.bks.cpg/sg66_24_cif.got.tgz:47454.got - 2010.06.03 17:51:23.
