data_PCOD9496069
_publ_section_title
;
Structure prediction by ZEFSAII (Michael W. Deem and Ramdas Pophale) SiO2 
 PCOD9496069
Probable space group: C C C M
;
_chemical_formula_sum "Si O2"
_cell_formula_units_Z 112
_cell_length_a 15.542707
_cell_length_b 11.699400
_cell_length_c 27.082136
_cell_angle_alpha 90.000000
_cell_angle_beta 90.000000
_cell_angle_gamma 90.000000
_cell_volume 4924.624988
_symmetry_space_group_name_H-M "C C C M"
_symmetry_group_IT_number 66
_symmetry_cell_setting 'orthorhombic'
loop_
_space_group_symop_operation_xyz
x,y,z
-x,-y,z
x,-y,1/2-z
-x,y,1/2-z
-x,-y,-z
x,y,-z
-x,y,1/2+z
x,-y,1/2+z
1/2+x,1/2+y,z
1/2-x,1/2-y,z
1/2+x,1/2-y,1/2-z
1/2-x,1/2+y,1/2-z
1/2-x,1/2-y,-z
1/2+x,1/2+y,-z
1/2-x,1/2+y,1/2+z
1/2+x,1/2-y,1/2+z
loop_
_atom_site_type_symbol
_atom_site_label
_atom_site_fract_x
_atom_site_fract_y
_atom_site_fract_z
Si Si1 0.645358 0.746469 0.804234
Si Si2 0.840927 0.831496 0.055637
Si Si3 0.548975 0.634211 0.553719
Si Si4 0.651136 0.712890 0.692349
Si Si5 0.617845 0.103177 0.605766
Si Si6 0.583551 0.852151 0.600661
Si Si7 0.370575 0.481867 0.861529
O O1 0.750000 0.750000 0.804752
O O2 0.618903 0.739392 0.747387
O O3 0.623675 0.856414 0.837237
O O4 0.605885 0.633498 0.831229
O O5 0.833721 0.700188 0.073641
O O6 0.809954 0.920404 0.097536
O O7 0.946135 0.846685 0.055054
O O8 0.811264 0.850560 0.000000
O O9 0.571582 0.585017 0.500000
O O10 0.598900 0.753555 0.560610
O O11 0.573809 0.559211 0.600837
O O12 0.750000 0.750000 0.688806
O O13 0.599862 0.788637 0.652635
O O14 0.652321 0.578055 0.678600
O O15 0.516578 0.118528 0.594340
O O16 0.635722 0.969638 0.597859
#
# Coordination Sequence:
#
# PCOD9496069 Si02
#       7
#    16  16  16  16  16  16  16
#     4  10  22  37  55  78 104 142 188 228 272 330
#     4   9  17  31  55  84 111 142 178 216 263 324
#     4   9  17  31  55  84 111 142 178 216 263 324
#     4  10  22  37  55  78 104 142 188 228 272 330
#     4   9  19  35  55  83 114 143 179 227 277 319
#     4   9  19  35  55  83 114 143 179 227 277 319
#     4  10  19  33  52  77 105 133 174 227 270 309
#
# _framework density 22.742849
#
# number of rings (size 3 to 8) (size 9 to 14) (size 15 to 20)
#    0.000    2.571    0.000    1.286    2.000    4.000 
#    0.000    4.286    0.000   30.000    0.000    0.000 
#    0.000    0.000    0.000    0.000    0.000    0.000 
#
# Total GULP energy -312083.533769 kJ/mol
# GULP energy per Si atom -5572.920246 kJ/mol
# Density = 2.269108 g / cm^3
# Si number density = 22.742849 Si / 1000 Ang^3
#
#
#
# Elastic Constant Matrix: (Units=GPa)
#
#
# Indices 1 2 3 4 5 6 
#
# 1 22.0356 9.7217 -10.0077 0.0000 0.0000 0.0000
# 2 9.7217 167.1508 35.4391 0.0000 0.0000 0.0000
# 3 -10.0077 35.4391 123.8078 0.0000 0.0000 0.0000
# 4 0.0000 0.0000 0.0000 26.1050 0.0000 0.0000
# 5 0.0000 0.0000 0.0000 0.0000 -35.7162 0.0000
# 6 0.0000 0.0000 0.0000 0.0000 0.0000 37.2298
#
#
#
# Elastic Compliance Matrix: (Units=1/GPa)
#
#
# Indices 1 2 3 4 5 6 
#
# 1 0.049462 -0.003965 0.005133 0.000000 0.000000 0.000000
# 2 -0.003965 0.006687 -0.002235 0.000000 0.000000 0.000000
# 3 0.005133 -0.002235 0.009132 0.000000 0.000000 0.000000
# 4 0.000000 0.000000 0.000000 0.038307 0.000000 0.000000
# 5 0.000000 0.000000 0.000000 0.000000 -0.027999 0.000000
# 6 0.000000 0.000000 0.000000 0.000000 0.000000 0.026860
#
#
# Mechanical properties :
#
#
# Convention : Reuss Voigt Hill
#
# Bulk Modulus (GPa) = 15.83607 42.58895 29.21251
# Shear Modulus (GPa) = 39.79910 24.04646 31.92278
#
# Velocity S-wave (km/s) = 4.18779 3.25517 3.75058
# Velocity P-wave (km/s) = 5.51014 5.73543 5.62392
#
# Compressibility (1/GPa) = 0.06314697
#
# Stress axis : x y z
#
# Youngs Moduli (GPa) = 20.21771 149.54350 109.50993
#
# Poissons Ratio (x) = 0.59295 -0.56212
# Poissons Ratio (y) = 0.08016 0.24471
# Poissons Ratio (z) = -0.10378 0.33417
#
# Static dielectric constant tensor:
#      x y z
#    x 1.961820 0.000000 0.000000 
#    y 0.000000 1.899170 0.000000 
#    z 0.000000 0.000000 1.826230 
# 
# From -- ./inp_files/65842.got.cif
#   From: 2010.05.17/outbox.cif.g08.bks.cpg/sg66_33_cif.got.tgz:65842.got - 2010.06.03 17:51:23.
