data_PCOD9496448
_publ_section_title
;
Structure prediction by ZEFSAII (Michael W. Deem and Ramdas Pophale) SiO2 
 PCOD9496448
Probable space group: C C C M
;
_chemical_formula_sum "Si O2"
_cell_formula_units_Z 64
_cell_length_a 17.418018
_cell_length_b 10.463624
_cell_length_c 15.829146
_cell_angle_alpha 90.000000
_cell_angle_beta 90.000000
_cell_angle_gamma 90.000000
_cell_volume 2884.950362
_symmetry_space_group_name_H-M "C C C M"
_symmetry_group_IT_number 66
_symmetry_cell_setting 'orthorhombic'
loop_
_space_group_symop_operation_xyz
x,y,z
-x,-y,z
x,-y,1/2-z
-x,y,1/2-z
-x,-y,-z
x,y,-z
-x,y,1/2+z
x,-y,1/2+z
1/2+x,1/2+y,z
1/2-x,1/2-y,z
1/2+x,1/2-y,1/2-z
1/2-x,1/2+y,1/2-z
1/2-x,1/2-y,-z
1/2+x,1/2+y,-z
1/2-x,1/2+y,1/2+z
1/2+x,1/2-y,1/2+z
loop_
_atom_site_type_symbol
_atom_site_label
_atom_site_fract_x
_atom_site_fract_y
_atom_site_fract_z
Si Si1 0.717120 0.603806 0.826914
Si Si2 0.800608 0.376328 0.903330
Si Si3 0.532926 0.874633 0.654423
Si Si4 0.535198 0.624248 0.153995
O O1 0.724919 0.500000 0.750000
O O2 0.750000 0.750000 0.818295
O O3 0.758408 0.486411 0.603761
O O4 0.626440 0.619991 0.841965
O O5 0.750000 0.250000 0.882626
O O6 0.875674 0.375349 0.844956
O O7 0.826155 0.358958 0.000000
O O8 0.500000 0.875285 0.750000
O O9 0.498399 0.749935 0.612437
O O10 0.500000 0.000000 0.611705
O O11 0.500000 0.500000 0.112006
O O12 0.500000 0.624969 0.250000
#
# Coordination Sequence:
#
# PCOD9496448 Si02
#       4
#    16  16  16  16
#     4  12  25  39  67 101 132 175 228 284 334 391
#     4  11  26  46  67  96 139 181 221 272 339 410
#     4  10  22  39  64  97 128 169 221 274 327 392
#     4  10  19  36  56  93 127 162 209 275 324 376
#
# _framework density 22.184089
#
# number of rings (size 3 to 8) (size 9 to 14) (size 15 to 20)
#    0.000    1.250    2.500    3.750   14.000    1.000 
#    0.000    1.250    0.000    4.500    0.000    0.000 
#    0.000    0.000    0.000    0.000    0.000    0.000 
#
# Total GULP energy -178465.972046 kJ/mol
# GULP energy per Si atom -5577.061626 kJ/mol
# Density = 2.213360 g / cm^3
# Si number density = 22.184089 Si / 1000 Ang^3
#
#
#
# Elastic Constant Matrix: (Units=GPa)
#
#
# Indices 1 2 3 4 5 6 
#
# 1 216.7791 94.9952 23.8863 0.0000 0.0000 0.0000
# 2 94.9952 279.9439 7.8648 0.0000 0.0000 0.0000
# 3 23.8863 7.8648 42.5834 0.0000 0.0000 0.0000
# 4 0.0000 0.0000 0.0000 -31.1646 0.0000 0.0000
# 5 0.0000 0.0000 0.0000 0.0000 4.0770 0.0000
# 6 0.0000 0.0000 0.0000 0.0000 0.0000 54.5700
#
#
#
# Elastic Compliance Matrix: (Units=1/GPa)
#
#
# Indices 1 2 3 4 5 6 
#
# 1 0.005750 -0.001870 -0.002880 0.000000 0.000000 0.000000
# 2 -0.001870 0.004199 0.000274 0.000000 0.000000 0.000000
# 3 -0.002880 0.000274 0.025048 0.000000 0.000000 0.000000
# 4 0.000000 0.000000 0.000000 -0.032088 0.000000 0.000000
# 5 0.000000 0.000000 0.000000 0.000000 0.245276 0.000000
# 6 0.000000 0.000000 0.000000 0.000000 0.000000 0.018325
#
#
# Mechanical properties :
#
#
# Convention : Reuss Voigt Hill
#
# Bulk Modulus (GPa) = 38.39644 88.08876 63.24260
# Shear Modulus (GPa) = 17.59662 33.00050 25.29856
#
# Velocity S-wave (km/s) = 2.81945 3.86109 3.38063
# Velocity P-wave (km/s) = 5.28628 7.72474 6.61878
#
# Compressibility (1/GPa) = 0.02604408
#
# Stress axis : x y z
#
# Youngs Moduli (GPa) = 173.91686 238.14634 39.92298
#
# Poissons Ratio (x) = 0.44539 0.11497
# Poissons Ratio (y) = 0.32527 -0.01092
# Poissons Ratio (z) = 0.50086 -0.06514
#
# Static dielectric constant tensor:
#      x y z
#    x 1.781180 0.000000 0.000000 
#    y 0.000000 1.853430 0.000000 
#    z 0.000000 0.000000 2.022040 
# 
# From -- ./inp_files/39799.got.cif
#   From: 2010.05.17/outbox.cif.g08.bks.cpg/sg66_20_cif.got.tgz:39799.got - 2010.06.03 17:51:23.
