data_PCOD9496574
_publ_section_title
;
Structure prediction by ZEFSAII (Michael W. Deem and Ramdas Pophale) SiO2 
 PCOD9496574
Probable space group: C C C M
;
_chemical_formula_sum "Si O2"
_cell_formula_units_Z 80
_cell_length_a 5.852393
_cell_length_b 26.230137
_cell_length_c 24.941809
_cell_angle_alpha 90.000000
_cell_angle_beta 90.000000
_cell_angle_gamma 90.000000
_cell_volume 3828.793908
_symmetry_space_group_name_H-M "C C C M"
_symmetry_group_IT_number 66
_symmetry_cell_setting 'orthorhombic'
loop_
_space_group_symop_operation_xyz
x,y,z
-x,-y,z
x,-y,1/2-z
-x,y,1/2-z
-x,-y,-z
x,y,-z
-x,y,1/2+z
x,-y,1/2+z
1/2+x,1/2+y,z
1/2-x,1/2-y,z
1/2+x,1/2-y,1/2-z
1/2-x,1/2+y,1/2-z
1/2-x,1/2-y,-z
1/2+x,1/2+y,-z
1/2-x,1/2+y,1/2+z
1/2+x,1/2-y,1/2+z
loop_
_atom_site_type_symbol
_atom_site_label
_atom_site_fract_x
_atom_site_fract_y
_atom_site_fract_z
Si Si1 0.400587 0.443950 0.612429
Si Si2 0.422548 0.710950 0.805722
Si Si3 0.626818 0.887669 0.695571
Si Si4 0.737608 0.090857 0.000000
Si Si5 0.757237 0.846623 0.882143
Si Si6 0.742674 0.647435 0.000000
O O1 0.500000 0.500000 0.614219
O O2 0.252214 0.433224 0.665278
O O3 0.264452 0.438483 0.556349
O O4 0.588117 0.398208 0.613275
O O5 0.500000 0.735943 0.750000
O O6 0.250000 0.750000 0.832943
O O7 0.297712 0.658296 0.790050
O O8 0.619891 0.694539 0.845234
O O9 0.500000 0.902352 0.750000
O O10 0.466248 0.863691 0.649562
O O11 0.477045 0.112611 0.000000
O O12 0.977523 0.125093 0.000000
O O13 0.731377 0.826264 0.942348
#
# Coordination Sequence:
#
# PCOD9496574 Si02
#       6
#    16  16  16   8  16   8
#     4  10  22  38  59  90 128 169 222 274 327 387
#     4  11  23  38  65  97 122 156 214 277 338 400
#     4  11  21  39  62  84 126 166 214 269 333 404
#     4  10  19  38  64  96 125 169 231 285 324 382
#     4  10  22  40  61  92 127 170 213 266 332 399
#     4  10  20  40  66  93 134 180 216 271 338 398
#
# _framework density 20.894307000000001
#
# number of rings (size 3 to 8) (size 9 to 14) (size 15 to 20)
#    0.000    1.600    4.000    0.900    0.000    0.800 
#    0.000    5.500    0.000    1.200    0.000    0.000 
#    0.000    0.000    0.000    0.000    0.000    0.000 
#
# Total GULP energy -223086.651351 kJ/mol
# GULP energy per Si atom -5577.166284 kJ/mol
# Density = 2.084675 g / cm^3
# Si number density = 20.894307 Si / 1000 Ang^3
#
#
#
# Elastic Constant Matrix: (Units=GPa)
#
#
# Indices 1 2 3 4 5 6 
#
# 1 57.5402 6.8392 15.2061 0.0000 0.0000 0.0000
# 2 6.8392 49.0989 2.2267 0.0000 0.0000 0.0000
# 3 15.2061 2.2267 126.3417 0.0000 0.0000 0.0000
# 4 0.0000 0.0000 0.0000 21.7751 0.0000 0.0000
# 5 0.0000 0.0000 0.0000 0.0000 36.8257 0.0000
# 6 0.0000 0.0000 0.0000 0.0000 0.0000 8.1288
#
#
#
# Elastic Compliance Matrix: (Units=1/GPa)
#
#
# Indices 1 2 3 4 5 6 
#
# 1 0.018238 -0.002443 -0.002152 0.000000 0.000000 0.000000
# 2 -0.002443 0.020711 -0.000071 0.000000 0.000000 0.000000
# 3 -0.002152 -0.000071 0.008175 0.000000 0.000000 0.000000
# 4 0.000000 0.000000 0.000000 0.045924 0.000000 0.000000
# 5 0.000000 0.000000 0.000000 0.000000 0.027155 0.000000
# 6 0.000000 0.000000 0.000000 0.000000 0.000000 0.123020
#
#
# Mechanical properties :
#
#
# Convention : Reuss Voigt Hill
#
# Bulk Modulus (GPa) = 26.46046 31.28054 28.87050
# Shear Modulus (GPa) = 18.85710 27.25984 23.05847
#
# Velocity S-wave (km/s) = 3.00742 3.61592 3.32562
# Velocity P-wave (km/s) = 4.97503 5.69530 5.34731
#
# Compressibility (1/GPa) = 0.03779224
#
# Stress axis : x y z
#
# Youngs Moduli (GPa) = 54.82986 48.28453 122.31962
#
# Poissons Ratio (x) = 0.11795 0.26324
# Poissons Ratio (y) = 0.13394 0.00868
# Poissons Ratio (z) = 0.11800 0.00343
#
# Static dielectric constant tensor:
#      x y z
#    x 1.843260 0.000000 0.000000 
#    y 0.000000 1.708920 0.000000 
#    z 0.000000 0.000000 1.746210 
# 
# From -- ./inp_files/54399.got.cif
#   From: 2010.05.17/outbox.cif.g08.bks.cpg/sg66_28_cif.got.tgz:54399.got - 2010.06.03 17:51:23.
