data_PCOD9496405
_publ_section_title
;
Structure prediction by ZEFSAII (Michael W. Deem and Ramdas Pophale) SiO2 
 PCOD9496405
Probable space group: C C C M
;
_chemical_formula_sum "Si O2"
_cell_formula_units_Z 60
_cell_length_a 5.144884
_cell_length_b 23.746198
_cell_length_c 23.513268
_cell_angle_alpha 90.000000
_cell_angle_beta 90.000000
_cell_angle_gamma 90.000000
_cell_volume 2872.649673
_symmetry_space_group_name_H-M "C C C M"
_symmetry_group_IT_number 66
_symmetry_cell_setting 'orthorhombic'
loop_
_space_group_symop_operation_xyz
x,y,z
-x,-y,z
x,-y,1/2-z
-x,y,1/2-z
-x,-y,-z
x,y,-z
-x,y,1/2+z
x,-y,1/2+z
1/2+x,1/2+y,z
1/2-x,1/2-y,z
1/2+x,1/2-y,1/2-z
1/2-x,1/2+y,1/2-z
1/2-x,1/2-y,-z
1/2+x,1/2+y,-z
1/2-x,1/2+y,1/2+z
1/2+x,1/2-y,1/2+z
loop_
_atom_site_type_symbol
_atom_site_label
_atom_site_fract_x
_atom_site_fract_y
_atom_site_fract_z
Si Si1 0.500000 0.500000 0.750000
Si Si2 0.109344 0.836707 0.879134
Si Si3 0.498876 0.711213 0.500000
Si Si4 0.099574 0.331009 0.187010
Si Si5 0.636064 0.944135 0.341496
O O1 0.686516 0.535924 0.710099
O O2 0.385163 0.810319 0.858958
O O3 0.178719 0.903515 0.878319
O O4 0.891198 0.818971 0.832831
O O5 0.010897 0.822544 0.941314
O O6 0.750000 0.750000 0.500000
O O7 0.250000 0.750000 0.500000
O O8 0.000000 0.315216 0.250000
O O9 0.074414 0.399140 0.181194
O O10 0.500000 0.000000 0.366044
#
# Coordination Sequence:
#
# PCOD9496405 Si02
#       5
#     4  16   8  16  16
#     4  12  18  32  56 104 136 194 204 238 290 414
#     4  10  23  38  63  97 126 167 225 271 323 384
#     4  12  26  50  77  89 113 166 239 298 338 391
#     4  10  19  35  60  95 136 171 202 255 317 396
#     4  10  20  30  56  92 141 169 216 238 305 385
#
# _framework density 20.88664
#
# number of rings (size 3 to 8) (size 9 to 14) (size 15 to 20)
#    1.600    0.000    0.000    7.600    0.000    0.000 
#    0.000    0.667    0.000   18.400    0.000    0.000 
#    0.000    0.000    0.000    0.000    0.000    0.000 
#
# Total GULP energy -167301.272898 kJ/mol
# GULP energy per Si atom -5576.709097 kJ/mol
# Density = 2.083910 g / cm^3
# Si number density = 20.886640 Si / 1000 Ang^3
#
#
#
# Elastic Constant Matrix: (Units=GPa)
#
#
# Indices 1 2 3 4 5 6 
#
# 1 131.5808 34.5753 31.5117 0.0000 0.0000 0.0000
# 2 34.5753 80.6450 46.9895 0.0000 0.0000 0.0000
# 3 31.5117 46.9895 128.4657 0.0000 0.0000 0.0000
# 4 0.0000 0.0000 0.0000 42.9402 0.0000 0.0000
# 5 0.0000 0.0000 0.0000 0.0000 26.9946 0.0000
# 6 0.0000 0.0000 0.0000 0.0000 0.0000 33.5286
#
#
#
# Elastic Compliance Matrix: (Units=1/GPa)
#
#
# Indices 1 2 3 4 5 6 
#
# 1 0.008660 -0.003145 -0.000974 0.000000 0.000000 0.000000
# 2 -0.003145 0.016901 -0.005410 0.000000 0.000000 0.000000
# 3 -0.000974 -0.005410 0.010002 0.000000 0.000000 0.000000
# 4 0.000000 0.000000 0.000000 0.023288 0.000000 0.000000
# 5 0.000000 0.000000 0.000000 0.000000 0.037044 0.000000
# 6 0.000000 0.000000 0.000000 0.000000 0.000000 0.029825
#
#
# Mechanical properties :
#
#
# Convention : Reuss Voigt Hill
#
# Bulk Modulus (GPa) = 60.59223 62.98272 61.78747
# Shear Modulus (GPa) = 33.27108 35.86703 34.56905
#
# Velocity S-wave (km/s) = 3.99549 4.14844 4.07268
# Velocity P-wave (km/s) = 7.09636 7.29150 7.19459
#
# Compressibility (1/GPa) = 0.01650377
#
# Stress axis : x y z
#
# Youngs Moduli (GPa) = 115.47933 59.16786 99.97987
#
# Poissons Ratio (x) = 0.18610 0.09734
# Poissons Ratio (y) = 0.36322 0.54094
# Poissons Ratio (z) = 0.11244 0.32013
#
# Static dielectric constant tensor:
#      x y z
#    x 1.764210 0.000000 0.000000 
#    y 0.000000 1.829560 0.000000 
#    z 0.000000 0.000000 1.811600 
# 
# From -- ./inp_files/34991.got.cif
#   From: 2010.05.17/outbox.cif.g08.bks.cpg/sg66_18_cif.got.tgz:34991.got - 2010.06.03 17:51:23.
