data_PCOD9496766
_publ_section_title
;
Structure prediction by ZEFSAII (Michael W. Deem and Ramdas Pophale) SiO2 
 PCOD9496766
Probable space group: C C C M
;
_chemical_formula_sum "Si O2"
_cell_formula_units_Z 112
_cell_length_a 17.229363
_cell_length_b 13.800820
_cell_length_c 28.934133
_cell_angle_alpha 90.000000
_cell_angle_beta 90.000000
_cell_angle_gamma 90.000000
_cell_volume 6879.938975
_symmetry_space_group_name_H-M "C C C M"
_symmetry_group_IT_number 66
_symmetry_cell_setting 'orthorhombic'
loop_
_space_group_symop_operation_xyz
x,y,z
-x,-y,z
x,-y,1/2-z
-x,y,1/2-z
-x,-y,-z
x,y,-z
-x,y,1/2+z
x,-y,1/2+z
1/2+x,1/2+y,z
1/2-x,1/2-y,z
1/2+x,1/2-y,1/2-z
1/2-x,1/2+y,1/2-z
1/2-x,1/2-y,-z
1/2+x,1/2+y,-z
1/2-x,1/2+y,1/2+z
1/2+x,1/2-y,1/2+z
loop_
_atom_site_type_symbol
_atom_site_label
_atom_site_fract_x
_atom_site_fract_y
_atom_site_fract_z
Si Si1 0.712472 0.009556 0.862665
Si Si2 0.819461 0.923982 0.213905
Si Si3 0.552144 0.902759 0.857904
Si Si4 0.525077 0.114764 0.050816
Si Si5 0.288136 0.144018 0.446384
Si Si6 0.428451 0.749049 0.722470
Si Si7 0.302780 0.162241 0.713340
O O1 0.737555 0.062729 0.909603
O O2 0.679358 0.091350 0.828123
O O3 0.783386 0.967288 0.832655
O O4 0.640903 0.935563 0.868206
O O5 0.874984 0.835356 0.202372
O O6 0.747801 0.886118 0.245636
O O7 0.857598 0.000000 0.250000
O O8 0.517831 0.850325 0.903319
O O9 0.550426 0.830019 0.814974
O O10 0.500000 0.000000 0.849552
O O11 0.617180 0.135981 0.056138
O O12 0.500000 0.000000 0.050196
O O13 0.502281 0.152866 0.000000
O O14 0.267928 0.122843 0.500000
O O15 0.250000 0.250000 0.435940
O O16 0.500000 0.705032 0.750000
O O17 0.378633 0.800058 0.762324
O O18 0.250000 0.250000 0.695331
#
# Coordination Sequence:
#
# PCOD9496766 Si02
#       7
#    16  16  16  16  16  16  16
#     4  11  18  31  53  73 106 138 174 216 263 339
#     4   9  20  37  53  68  97 148 185 211 265 314
#     4  11  20  30  50  80 107 133 169 208 278 333
#     4   9  17  32  50  73 109 140 167 210 278 341
#     4  10  20  33  53  81 108 137 179 230 279 334
#     4  11  22  33  50  74 108 137 179 232 256 313
#     4   9  18  32  48  71  98 136 173 211 267 307
#
# _framework density 16.279215000000001
#
# number of rings (size 3 to 8) (size 9 to 14) (size 15 to 20)
#    0.000    2.000    4.286    1.286    0.000    1.714 
#    0.000    0.000    0.000    0.857    0.000    2.000 
#    0.000    3.429    0.000    0.000    0.000    0.000 
#
# Total GULP energy -311749.959177 kJ/mol
# GULP energy per Si atom -5566.963557 kJ/mol
# Density = 1.624216 g / cm^3
# Si number density = 16.279215 Si / 1000 Ang^3
#
#
#
# Elastic Constant Matrix: (Units=GPa)
#
#
# Indices 1 2 3 4 5 6 
#
# 1 52.4022 31.9749 44.8389 0.0000 0.0000 0.0000
# 2 31.9749 57.5717 32.9677 0.0000 0.0000 0.0000
# 3 44.8389 32.9677 87.3630 0.0000 0.0000 0.0000
# 4 0.0000 0.0000 0.0000 15.2608 0.0000 0.0000
# 5 0.0000 0.0000 0.0000 0.0000 22.0437 0.0000
# 6 0.0000 0.0000 0.0000 0.0000 0.0000 22.0090
#
#
#
# Elastic Compliance Matrix: (Units=1/GPa)
#
#
# Indices 1 2 3 4 5 6 
#
# 1 0.041039 -0.013689 -0.015897 0.000000 0.000000 0.000000
# 2 -0.013689 0.026724 -0.003059 0.000000 0.000000 0.000000
# 3 -0.015897 -0.003059 0.020760 0.000000 0.000000 0.000000
# 4 0.000000 0.000000 0.000000 0.065527 0.000000 0.000000
# 5 0.000000 0.000000 0.000000 0.000000 0.045365 0.000000
# 6 0.000000 0.000000 0.000000 0.000000 0.000000 0.045436
#
#
# Mechanical properties :
#
#
# Convention : Reuss Voigt Hill
#
# Bulk Modulus (GPa) = 43.04336 46.32221 44.68279
# Shear Modulus (GPa) = 15.72892 17.69972 16.71432
#
# Velocity S-wave (km/s) = 3.11174 3.30094 3.20774
# Velocity P-wave (km/s) = 6.27763 6.56086 6.42081
#
# Compressibility (1/GPa) = 0.02323239
#
# Stress axis : x y z
#
# Youngs Moduli (GPa) = 24.36706 37.41932 48.16958
#
# Poissons Ratio (x) = 0.51225 0.76577
# Poissons Ratio (y) = 0.33357 0.14734
# Poissons Ratio (z) = 0.38737 0.11445
#
# Static dielectric constant tensor:
#      x y z
#    x 1.564450 0.000000 0.000000 
#    y 0.000000 1.568870 0.000000 
#    z 0.000000 0.000000 1.555170 
# 
# From -- ./inp_files/69618.got.cif
#   From: 2010.05.17/outbox.cif.g08.bks.cpg/sg66_35_cif.got.tgz:69618.got - 2010.06.03 17:51:23.
