data_PCOD9496358
_publ_section_title
;
Structure prediction by ZEFSAII (Michael W. Deem and Ramdas Pophale) SiO2 
 PCOD9496358
Probable space group: C C C M
;
_chemical_formula_sum "Si O2"
_cell_formula_units_Z 104
_cell_length_a 26.397191
_cell_length_b 22.085667
_cell_length_c 9.536863
_cell_angle_alpha 90.000000
_cell_angle_beta 90.000000
_cell_angle_gamma 90.000000
_cell_volume 5559.987030
_symmetry_space_group_name_H-M "C C C M"
_symmetry_group_IT_number 66
_symmetry_cell_setting 'orthorhombic'
loop_
_space_group_symop_operation_xyz
x,y,z
-x,-y,z
x,-y,1/2-z
-x,y,1/2-z
-x,-y,-z
x,y,-z
-x,y,1/2+z
x,-y,1/2+z
1/2+x,1/2+y,z
1/2-x,1/2-y,z
1/2+x,1/2-y,1/2-z
1/2-x,1/2+y,1/2-z
1/2-x,1/2-y,-z
1/2+x,1/2+y,-z
1/2-x,1/2+y,1/2+z
1/2+x,1/2-y,1/2+z
loop_
_atom_site_type_symbol
_atom_site_label
_atom_site_fract_x
_atom_site_fract_y
_atom_site_fract_z
Si Si1 0.051439 0.741578 0.333948
Si Si2 0.231436 0.500000 0.250000
Si Si3 0.361896 0.927048 0.149496
Si Si4 0.713078 0.381038 0.662042
Si Si5 0.049586 0.595215 0.338712
Si Si6 0.793932 0.684942 0.655938
Si Si7 0.357435 0.696031 0.835298
O O1 0.049141 0.756920 0.500000
O O2 0.057012 0.668317 0.326884
O O3 0.096628 0.776211 0.254614
O O4 0.000000 0.756055 0.250000
O O5 0.190682 0.536222 0.155876
O O6 0.266465 0.550567 0.320767
O O7 0.400190 0.935226 0.276280
O O8 0.343370 0.857639 0.155120
O O9 0.387574 0.937924 0.000000
O O10 0.702253 0.368123 0.500000
O O11 0.759124 0.339857 0.720594
O O12 0.665970 0.363042 0.760637
O O13 0.042349 0.580012 0.500000
O O14 0.000000 0.579364 0.250000
O O15 0.770248 0.676535 0.500000
O O16 0.813295 0.752805 0.670835
O O17 0.369970 0.687492 0.000000
#
# Coordination Sequence:
#
# PCOD9496358 Si02
#       7
#    16   8  16  16  16  16  16
#     4  10  20  34  54  83 118 152 185 223 272 332
#     4  10  24  42  57  78 105 146 188 238 286 332
#     4  10  19  35  57  77 104 144 188 231 278 332
#     4  11  23  37  56  80 108 143 188 237 280 331
#     4  10  20  33  53  80 110 143 182 228 277 329
#     4   9  19  34  52  77 111 148 182 221 277 338
#     4  11  21  35  55  82 116 150 183 223 277 336
#
# _framework density 18.705079000000001
#
# number of rings (size 3 to 8) (size 9 to 14) (size 15 to 20)
#    0.000    1.846    1.538    2.769    0.000    9.231 
#    0.000    0.385    0.000    1.846    0.000    0.538 
#    0.000    3.692    0.000    0.000    0.000    0.000 
#
# Total GULP energy -290209.749433 kJ/mol
# GULP energy per Si atom -5580.956720 kJ/mol
# Density = 1.866251 g / cm^3
# Si number density = 18.705079 Si / 1000 Ang^3
#
#
#
# Elastic Constant Matrix: (Units=GPa)
#
#
# Indices 1 2 3 4 5 6 
#
# 1 66.8844 33.4313 55.2059 0.0000 0.0000 0.0000
# 2 33.4313 68.2378 38.4849 0.0000 0.0000 0.0000
# 3 55.2059 38.4849 163.9470 0.0000 0.0000 0.0000
# 4 0.0000 0.0000 0.0000 4.8977 0.0000 0.0000
# 5 0.0000 0.0000 0.0000 0.0000 35.3411 0.0000
# 6 0.0000 0.0000 0.0000 0.0000 0.0000 25.1545
#
#
#
# Elastic Compliance Matrix: (Units=1/GPa)
#
#
# Indices 1 2 3 4 5 6 
#
# 1 0.024263 -0.008390 -0.006201 0.000000 0.000000 0.000000
# 2 -0.008390 0.019792 -0.001821 0.000000 0.000000 0.000000
# 3 -0.006201 -0.001821 0.008615 0.000000 0.000000 0.000000
# 4 0.000000 0.000000 0.000000 0.204178 0.000000 0.000000
# 5 0.000000 0.000000 0.000000 0.000000 0.028296 0.000000
# 6 0.000000 0.000000 0.000000 0.000000 0.000000 0.039754
#
#
# Mechanical properties :
#
#
# Convention : Reuss Voigt Hill
#
# Bulk Modulus (GPa) = 50.38549 61.47928 55.93239
# Shear Modulus (GPa) = 13.72363 24.54180 19.13272
#
# Velocity S-wave (km/s) = 2.71160 3.62614 3.20169
# Velocity P-wave (km/s) = 6.06622 7.10429 6.60567
#
# Compressibility (1/GPa) = 0.01984698
#
# Stress axis : x y z
#
# Youngs Moduli (GPa) = 41.21571 50.52565 116.07849
#
# Poissons Ratio (x) = 0.42390 0.71975
# Poissons Ratio (y) = 0.34579 0.21136
# Poissons Ratio (z) = 0.25556 0.09200
#
# Static dielectric constant tensor:
#      x y z
#    x 1.649210 0.000000 0.000000 
#    y 0.000000 1.677020 0.000000 
#    z 0.000000 0.000000 1.657700 
# 
# From -- ./inp_files/10542.got.cif
#   From: 2010.05.17/outbox.cif.g08.bks.cpg/sg66_6_cif.got.tgz:10542.got - 2010.06.03 17:51:23.
