data_PCOD9496124
_publ_section_title
;
Structure prediction by ZEFSAII (Michael W. Deem and Ramdas Pophale) SiO2 
 PCOD9496124
Probable space group: C C C M
;
_chemical_formula_sum "Si O2"
_cell_formula_units_Z 80
_cell_length_a 9.149790
_cell_length_b 22.932940
_cell_length_c 20.992028
_cell_angle_alpha 90.000000
_cell_angle_beta 90.000000
_cell_angle_gamma 90.000000
_cell_volume 4404.790509
_symmetry_space_group_name_H-M "C C C M"
_symmetry_group_IT_number 66
_symmetry_cell_setting 'orthorhombic'
loop_
_space_group_symop_operation_xyz
x,y,z
-x,-y,z
x,-y,1/2-z
-x,y,1/2-z
-x,-y,-z
x,y,-z
-x,y,1/2+z
x,-y,1/2+z
1/2+x,1/2+y,z
1/2-x,1/2-y,z
1/2+x,1/2-y,1/2-z
1/2-x,1/2+y,1/2-z
1/2-x,1/2-y,-z
1/2+x,1/2+y,-z
1/2-x,1/2+y,1/2+z
1/2+x,1/2-y,1/2+z
loop_
_atom_site_type_symbol
_atom_site_label
_atom_site_fract_x
_atom_site_fract_y
_atom_site_fract_z
Si Si1 0.495499 0.837540 0.819694
Si Si2 0.750000 0.750000 0.853546
Si Si3 0.433272 0.064809 0.576080
Si Si4 0.250000 0.250000 0.634415
Si Si5 0.509588 0.678452 0.924925
Si Si6 0.409966 0.555319 0.077371
O O1 0.500000 0.866516 0.750000
O O2 0.633234 0.792859 0.820170
O O3 0.496774 0.884707 0.877476
O O4 0.350560 0.796942 0.828371
O O5 0.648651 0.708666 0.895397
O O6 0.449094 0.079976 0.500000
O O7 0.261338 0.058506 0.591846
O O8 0.500000 0.000000 0.584623
O O9 0.365231 0.285360 0.592194
O O10 0.486729 0.613723 0.899123
O O11 0.525998 0.675868 0.000000
O O12 0.500000 0.500000 0.100870
O O13 0.417190 0.554657 0.000000
#
# Coordination Sequence:
#
# PCOD9496124 Si02
#       6
#    16   8  16   8  16  16
#     4  11  23  41  62  86 119 162 201 245 296 357
#     4  10  24  36  54  88 119 156 195 244 297 352
#     4  10  22  39  62  90 119 153 198 249 298 351
#     4  10  20  36  58  82 115 158 203 240 289 356
#     4  10  19  33  55  86 119 152 191 242 299 354
#     4   9  18  33  55  82 114 150 188 234 293 350
#
# _framework density 18.162046
#
# number of rings (size 3 to 8) (size 9 to 14) (size 15 to 20)
#    0.000    2.000    2.000    1.200    2.800    4.400 
#    0.000    0.000    0.000    0.000    0.000    0.000 
#    0.000    0.000    0.000    0.000    0.000    0.000 
#
# Total GULP energy -222888.857592 kJ/mol
# GULP energy per Si atom -5572.221440 kJ/mol
# Density = 1.812071 g / cm^3
# Si number density = 18.162046 Si / 1000 Ang^3
#
#
#
# Elastic Constant Matrix: (Units=GPa)
#
#
# Indices 1 2 3 4 5 6 
#
# 1 97.0928 39.8121 19.8124 0.0000 0.0000 0.0000
# 2 39.8121 117.8497 39.9071 0.0000 0.0000 0.0000
# 3 19.8124 39.9071 77.4368 0.0000 0.0000 0.0000
# 4 0.0000 0.0000 0.0000 -4.7251 0.0000 0.0000
# 5 0.0000 0.0000 0.0000 0.0000 3.6135 0.0000
# 6 0.0000 0.0000 0.0000 0.0000 0.0000 28.7924
#
#
#
# Elastic Compliance Matrix: (Units=1/GPa)
#
#
# Indices 1 2 3 4 5 6 
#
# 1 0.012046 -0.003665 -0.001193 0.000000 0.000000 0.000000
# 2 -0.003665 0.011395 -0.004934 0.000000 0.000000 0.000000
# 3 -0.001193 -0.004934 0.015762 0.000000 0.000000 0.000000
# 4 0.000000 0.000000 0.000000 -0.211635 0.000000 0.000000
# 5 0.000000 0.000000 0.000000 0.000000 0.276742 0.000000
# 6 0.000000 0.000000 0.000000 0.000000 0.000000 0.034731
#
#
# Mechanical properties :
#
#
# Convention : Reuss Voigt Hill
#
# Bulk Modulus (GPa) = 50.97675 54.60472 52.79073
# Shear Modulus (GPa) = 30.27283 18.39267 24.33275
#
# Velocity S-wave (km/s) = 4.08710 3.18574 3.66424
# Velocity P-wave (km/s) = 7.09938 6.60776 6.85798
#
# Compressibility (1/GPa) = 0.01961679
#
# Stress axis : x y z
#
# Youngs Moduli (GPa) = 83.01639 87.76137 63.44397
#
# Poissons Ratio (x) = 0.32168 0.07569
# Poissons Ratio (y) = 0.30428 0.31306
# Poissons Ratio (z) = 0.09904 0.43305
#
# Static dielectric constant tensor:
#      x y z
#    x 1.604020 0.000000 0.000000 
#    y 0.000000 1.586260 0.000000 
#    z 0.000000 0.000000 1.610980 
# 
# From -- ./inp_files/55381.got.cif
#   From: 2010.05.17/outbox.cif.g08.bks.cpg/sg66_28_cif.got.tgz:55381.got - 2010.06.03 17:51:23.
