data_PCOD9496318
_publ_section_title
;
Structure prediction by ZEFSAII (Michael W. Deem and Ramdas Pophale) SiO2 
 PCOD9496318
Probable space group: C C C M
;
_chemical_formula_sum "Si O2"
_cell_formula_units_Z 96
_cell_length_a 13.291801
_cell_length_b 25.326910
_cell_length_c 15.776316
_cell_angle_alpha 90.000000
_cell_angle_beta 90.000000
_cell_angle_gamma 90.000000
_cell_volume 5310.942925
_symmetry_space_group_name_H-M "C C C M"
_symmetry_group_IT_number 66
_symmetry_cell_setting 'orthorhombic'
loop_
_space_group_symop_operation_xyz
x,y,z
-x,-y,z
x,-y,1/2-z
-x,y,1/2-z
-x,-y,-z
x,y,-z
-x,y,1/2+z
x,-y,1/2+z
1/2+x,1/2+y,z
1/2-x,1/2-y,z
1/2+x,1/2-y,1/2-z
1/2-x,1/2+y,1/2-z
1/2-x,1/2-y,-z
1/2+x,1/2+y,-z
1/2-x,1/2+y,1/2+z
1/2+x,1/2-y,1/2+z
loop_
_atom_site_type_symbol
_atom_site_label
_atom_site_fract_x
_atom_site_fract_y
_atom_site_fract_z
Si Si1 0.089026 0.142246 0.321181
Si Si2 0.498969 0.263914 0.902517
Si Si3 0.719745 0.306327 0.597161
Si Si4 0.000000 0.681032 0.750000
Si Si5 0.753171 0.000000 0.250000
Si Si6 0.298844 0.117340 0.229600
Si Si7 0.102478 0.967309 0.904515
O O1 0.085883 0.197673 0.369497
O O2 0.199184 0.133318 0.282167
O O3 0.074338 0.092991 0.383450
O O4 0.000000 0.141460 0.250000
O O5 0.400614 0.302165 0.900292
O O6 0.487683 0.217797 0.833467
O O7 0.510266 0.246130 0.000000
O O8 0.753905 0.304864 0.500000
O O9 0.750000 0.250000 0.638467
O O10 0.769308 0.356529 0.639936
O O11 0.099450 0.645437 0.759413
O O12 0.693667 0.945913 0.232025
O O13 0.823214 0.988296 0.331743
O O14 0.143925 0.971744 0.000000
O O15 0.000000 0.000000 0.899696
#
# Coordination Sequence:
#
# PCOD9496318 Si02
#       7
#    16  16  16   8   8  16  16
#     4  11  20  36  57  87 124 158 184 232 293 365
#     4  11  22  36  59  93 124 152 191 240 301 372
#     4  10  19  34  60  92 120 147 194 250 302 358
#     4  12  24  41  60  84 115 158 206 250 302 342
#     4  10  23  41  56  82 114 156 209 253 290 342
#     4  11  23  39  61  83 117 162 200 251 298 346
#     4  10  20  34  56  86 120 154 189 233 292 359
#
# _framework density 18.075887000000002
#
# number of rings (size 3 to 8) (size 9 to 14) (size 15 to 20)
#    0.000    1.333    4.167    2.750    0.000    1.000 
#    0.000    5.000    0.000    0.000    0.000    7.000 
#    0.000    0.000    0.000    0.000    0.000    0.000 
#
# Total GULP energy -267670.317288 kJ/mol
# GULP energy per Si atom -5576.464943 kJ/mol
# Density = 1.803475 g / cm^3
# Si number density = 18.075887 Si / 1000 Ang^3
#
#
#
# Elastic Constant Matrix: (Units=GPa)
#
#
# Indices 1 2 3 4 5 6 
#
# 1 76.7190 41.5144 28.2579 0.0000 0.0000 0.0000
# 2 41.5144 126.0960 53.0637 0.0000 0.0000 0.0000
# 3 28.2579 53.0637 116.1460 0.0000 0.0000 0.0000
# 4 0.0000 0.0000 0.0000 4.3391 0.0000 0.0000
# 5 0.0000 0.0000 0.0000 0.0000 9.8689 0.0000
# 6 0.0000 0.0000 0.0000 0.0000 0.0000 28.9674
#
#
#
# Elastic Compliance Matrix: (Units=1/GPa)
#
#
# Indices 1 2 3 4 5 6 
#
# 1 0.016178 -0.004544 -0.001860 0.000000 0.000000 0.000000
# 2 -0.004544 0.011094 -0.003963 0.000000 0.000000 0.000000
# 3 -0.001860 -0.003963 0.010873 0.000000 0.000000 0.000000
# 4 0.000000 0.000000 0.000000 0.230465 0.000000 0.000000
# 5 0.000000 0.000000 0.000000 0.000000 0.101328 0.000000
# 6 0.000000 0.000000 0.000000 0.000000 0.000000 0.034522
#
#
# Mechanical properties :
#
#
# Convention : Reuss Voigt Hill
#
# Bulk Modulus (GPa) = 57.43302 62.73702 60.08502
# Shear Modulus (GPa) = 11.60098 21.71006 16.65552
#
# Velocity S-wave (km/s) = 2.53611 3.46938 3.03879
# Velocity P-wave (km/s) = 6.35752 7.12964 6.75462
#
# Compressibility (1/GPa) = 0.01741159
#
# Stress axis : x y z
#
# Youngs Moduli (GPa) = 61.81073 90.13806 91.96999
#
# Poissons Ratio (x) = 0.40955 0.17110
# Poissons Ratio (y) = 0.28084 0.36449
# Poissons Ratio (z) = 0.11499 0.35723
#
# Static dielectric constant tensor:
#      x y z
#    x 1.635620 0.000000 0.000000 
#    y 0.000000 1.647240 0.000000 
#    z 0.000000 0.000000 1.658340 
# 
# From -- ./inp_files/26929.got.cif
#   From: 2010.05.17/outbox.cif.g08.bks.cpg/sg66_14_cif.got.tgz:26929.got - 2010.06.03 17:51:23.
