data_PCOD9496356
_publ_section_title
;
Structure prediction by ZEFSAII (Michael W. Deem and Ramdas Pophale) SiO2 
 PCOD9496356
Probable space group: C C C M
;
_chemical_formula_sum "Si O2"
_cell_formula_units_Z 84
_cell_length_a 8.916684
_cell_length_b 25.765334
_cell_length_c 18.810500
_cell_angle_alpha 90.000000
_cell_angle_beta 90.000000
_cell_angle_gamma 90.000000
_cell_volume 4321.549503
_symmetry_space_group_name_H-M "C C C M"
_symmetry_group_IT_number 66
_symmetry_cell_setting 'orthorhombic'
loop_
_space_group_symop_operation_xyz
x,y,z
-x,-y,z
x,-y,1/2-z
-x,y,1/2-z
-x,-y,-z
x,y,-z
-x,y,1/2+z
x,-y,1/2+z
1/2+x,1/2+y,z
1/2-x,1/2-y,z
1/2+x,1/2-y,1/2-z
1/2-x,1/2+y,1/2-z
1/2-x,1/2-y,-z
1/2+x,1/2+y,-z
1/2-x,1/2+y,1/2+z
1/2+x,1/2-y,1/2+z
loop_
_atom_site_type_symbol
_atom_site_label
_atom_site_fract_x
_atom_site_fract_y
_atom_site_fract_z
Si Si1 0.500000 0.500000 0.250000
Si Si2 0.553727 0.107929 0.918441
Si Si3 0.138403 0.364662 0.794801
Si Si4 0.910605 0.732187 0.417190
Si Si5 0.938581 0.815543 0.828605
Si Si6 0.834990 0.089031 0.833129
O O1 0.590864 0.462761 0.196665
O O2 0.431643 0.098530 0.856181
O O3 0.572143 0.170605 0.912513
O O4 0.714694 0.084471 0.896460
O O5 0.513277 0.095272 0.000000
O O6 0.262669 0.327789 0.828629
O O7 0.235194 0.392582 0.734018
O O8 0.000000 0.340478 0.750000
O O9 0.913463 0.746204 0.500000
O O10 0.750000 0.750000 0.386949
O O11 0.029671 0.766986 0.377748
O O12 0.000000 0.803256 0.750000
O O13 0.038608 0.866862 0.849031
#
# Coordination Sequence:
#
# PCOD9496356 Si02
#       6
#     4  16  16  16  16  16
#     4  12  20  40  72  92 108 140 206 270 312 378
#     4  10  21  38  58  85 127 166 197 241 301 367
#     4   9  19  36  56  82 124 160 199 250 303 355
#     4  10  20  34  56  85 120 167 206 236 291 356
#     4  10  19  35  56  86 119 155 206 255 295 347
#     4  10  20  37  64  89 113 148 204 253 313 357
#
# _framework density 19.437473000000001
#
# number of rings (size 3 to 8) (size 9 to 14) (size 15 to 20)
#    0.000    2.095    4.762    0.000    0.000    3.810 
#    0.000    6.667    0.000    2.286    0.000    0.000 
#    0.000    0.000    0.000    0.000    0.000    0.000 
#
# Total GULP energy -234156.996692 kJ/mol
# GULP energy per Si atom -5575.166588 kJ/mol
# Density = 1.939323 g / cm^3
# Si number density = 19.437473 Si / 1000 Ang^3
#
#
#
# Elastic Constant Matrix: (Units=GPa)
#
#
# Indices 1 2 3 4 5 6 
#
# 1 122.1485 27.7840 23.9387 0.0000 0.0000 0.0000
# 2 27.7840 50.3459 -2.3872 0.0000 0.0000 0.0000
# 3 23.9387 -2.3872 60.9897 0.0000 0.0000 0.0000
# 4 0.0000 0.0000 0.0000 0.0855 0.0000 0.0000
# 5 0.0000 0.0000 0.0000 0.0000 23.7015 0.0000
# 6 0.0000 0.0000 0.0000 0.0000 0.0000 9.7750
#
#
#
# Elastic Compliance Matrix: (Units=1/GPa)
#
#
# Indices 1 2 3 4 5 6 
#
# 1 0.010380 -0.005933 -0.004306 0.000000 0.000000 0.000000
# 2 -0.005933 0.023290 0.003240 0.000000 0.000000 0.000000
# 3 -0.004306 0.003240 0.018213 0.000000 0.000000 0.000000
# 4 0.000000 0.000000 0.000000 11.693158 0.000000 0.000000
# 5 0.000000 0.000000 0.000000 0.000000 0.042191 0.000000
# 6 0.000000 0.000000 0.000000 0.000000 0.000000 0.102302
#
#
# Mechanical properties :
#
#
# Convention : Reuss Voigt Hill
#
# Bulk Modulus (GPa) = 26.39503 36.90610 31.65056
# Shear Modulus (GPa) = 0.41960 18.98898 9.70429
#
# Velocity S-wave (km/s) = 0.46512 3.12897 2.23683
# Velocity P-wave (km/s) = 3.72792 5.66412 4.79477
#
# Compressibility (1/GPa) = 0.03788592
#
# Stress axis : x y z
#
# Youngs Moduli (GPa) = 96.33748 42.93650 54.90481
#
# Poissons Ratio (x) = 0.25473 0.23645
# Poissons Ratio (y) = 0.57153 -0.17790
# Poissons Ratio (z) = 0.41487 -0.13912
#
# Static dielectric constant tensor:
#      x y z
#    x 1.751810 0.000000 0.000000 
#    y 0.000000 1.685070 0.000000 
#    z 0.000000 0.000000 1.699880 
# 
# From -- ./inp_files/47247.got.cif
#   From: 2010.05.17/outbox.cif.g08.bks.cpg/sg66_24_cif.got.tgz:47247.got - 2010.06.03 17:51:23.
