data_PCOD9496573
_publ_section_title
;
Structure prediction by ZEFSAII (Michael W. Deem and Ramdas Pophale) SiO2 
 PCOD9496573
Probable space group: C C C M
;
_chemical_formula_sum "Si O2"
_cell_formula_units_Z 116
_cell_length_a 22.408495
_cell_length_b 27.562701
_cell_length_c 9.281273
_cell_angle_alpha 90.000000
_cell_angle_beta 90.000000
_cell_angle_gamma 90.000000
_cell_volume 5732.472903
_symmetry_space_group_name_H-M "C C C M"
_symmetry_group_IT_number 66
_symmetry_cell_setting 'orthorhombic'
loop_
_space_group_symop_operation_xyz
x,y,z
-x,-y,z
x,-y,1/2-z
-x,y,1/2-z
-x,-y,-z
x,y,-z
-x,y,1/2+z
x,-y,1/2+z
1/2+x,1/2+y,z
1/2-x,1/2-y,z
1/2+x,1/2-y,1/2-z
1/2-x,1/2+y,1/2-z
1/2-x,1/2-y,-z
1/2+x,1/2+y,-z
1/2-x,1/2+y,1/2+z
1/2+x,1/2-y,1/2+z
loop_
_atom_site_type_symbol
_atom_site_label
_atom_site_fract_x
_atom_site_fract_y
_atom_site_fract_z
Si Si1 0.767528 0.806747 0.666556
Si Si2 0.334393 0.051037 0.331866
Si Si3 0.413182 0.588190 0.665069
Si Si4 0.090931 0.821560 0.834360
Si Si5 0.500000 0.500000 0.750000
Si Si6 0.307183 0.549075 0.163822
Si Si7 0.159328 0.648493 0.672736
Si Si8 0.559750 0.209875 0.830427
O O1 0.755115 0.822306 0.500000
O O2 0.750000 0.750000 0.676885
O O3 0.837937 0.813149 0.691049
O O4 0.725586 0.836371 0.774522
O O5 0.353598 0.049587 0.500000
O O6 0.262729 0.059844 0.333687
O O7 0.358092 0.096439 0.241012
O O8 0.345100 0.000000 0.250000
O O9 0.397790 0.593273 0.500000
O O10 0.436556 0.639078 0.726775
O O11 0.454836 0.539983 0.679160
O O12 0.353285 0.583389 0.758497
O O13 0.063454 0.768137 0.822667
O O14 0.083740 0.838824 0.000000
O O15 0.314025 0.500000 0.250000
O O16 0.326377 0.543255 0.000000
O O17 0.155728 0.647952 0.500000
O O18 0.115485 0.687310 0.746098
O O19 0.500000 0.193256 0.750000
O O20 0.561334 0.196486 0.000000
#
# Coordination Sequence:
#
# PCOD9496573 Si02
#       8
#    16  16  16  16   4  16  16  16
#     4  10  19  38  64  93 129 172 210 255 324 395
#     4  10  21  38  62  94 130 167 204 251 307 375
#     4  12  26  42  62  83 112 154 209 269 326 383
#     4  10  23  42  66  92 124 163 208 261 326 393
#     4  12  30  48  60  82 114 168 222 280 338 392
#     4  10  20  36  59  85 117 155 198 247 309 374
#     4  12  24  38  62  97 133 172 213 261 313 378
#     4  11  24  45  67  92 125 168 213 261 314 378
#
# _framework density 20.235595
#
# number of rings (size 3 to 8) (size 9 to 14) (size 15 to 20)
#    0.000    1.241    2.069    3.931    0.966    8.552 
#    0.000    0.000    0.000    0.414    0.000    2.897 
#    0.000    0.000    0.000    0.000    0.000    0.000 
#
# Total GULP energy -323879.783848 kJ/mol
# GULP energy per Si atom -5584.134204 kJ/mol
# Density = 2.018954 g / cm^3
# Si number density = 20.235595 Si / 1000 Ang^3
#
#
#
# Elastic Constant Matrix: (Units=GPa)
#
#
# Indices 1 2 3 4 5 6 
#
# 1 43.1442 -7.6607 28.8760 0.0000 0.0000 0.0000
# 2 -7.6607 90.9013 55.1767 0.0000 0.0000 0.0000
# 3 28.8760 55.1767 176.3683 0.0000 0.0000 0.0000
# 4 0.0000 0.0000 0.0000 15.2134 0.0000 0.0000
# 5 0.0000 0.0000 0.0000 0.0000 9.7418 0.0000
# 6 0.0000 0.0000 0.0000 0.0000 0.0000 5.7350
#
#
#
# Elastic Compliance Matrix: (Units=1/GPa)
#
#
# Indices 1 2 3 4 5 6 
#
# 1 0.028875 0.006546 -0.006776 0.000000 0.000000 0.000000
# 2 0.006546 0.015064 -0.005784 0.000000 0.000000 0.000000
# 3 -0.006776 -0.005784 0.008589 0.000000 0.000000 0.000000
# 4 0.000000 0.000000 0.000000 0.065732 0.000000 0.000000
# 5 0.000000 0.000000 0.000000 0.000000 0.102651 0.000000
# 6 0.000000 0.000000 0.000000 0.000000 0.000000 0.174369
#
#
# Mechanical properties :
#
#
# Convention : Reuss Voigt Hill
#
# Bulk Modulus (GPa) = 24.69112 51.46641 38.07876
# Shear Modulus (GPa) = 11.88193 21.73947 16.81070
#
# Velocity S-wave (km/s) = 2.42581 3.28124 2.88540
# Velocity P-wave (km/s) = 4.48044 6.31222 5.47351
#
# Compressibility (1/GPa) = 0.04050040
#
# Stress axis : x y z
#
# Youngs Moduli (GPa) = 34.63162 66.38430 116.42833
#
# Poissons Ratio (x) = -0.43457 0.78888
# Poissons Ratio (y) = -0.22671 0.67348
# Poissons Ratio (z) = 0.23465 0.38400
#
# Static dielectric constant tensor:
#      x y z
#    x 1.803970 0.000000 0.000000 
#    y 0.000000 1.743150 0.000000 
#    z 0.000000 0.000000 1.687960 
# 
# From -- ./inp_files/9415.got.cif
#   From: 2010.05.17/outbox.cif.g08.bks.cpg/sg66_5_cif.got.tgz:9415.got - 2010.06.03 17:51:23.
