data_PCOD9496445
_publ_section_title
;
Structure prediction by ZEFSAII (Michael W. Deem and Ramdas Pophale) SiO2 
 PCOD9496445
Probable space group: C C C M
;
_chemical_formula_sum "Si O2"
_cell_formula_units_Z 104
_cell_length_a 24.495760
_cell_length_b 9.456664
_cell_length_c 24.447956
_cell_angle_alpha 90.000000
_cell_angle_beta 90.000000
_cell_angle_gamma 90.000000
_cell_volume 5663.324310
_symmetry_space_group_name_H-M "C C C M"
_symmetry_group_IT_number 66
_symmetry_cell_setting 'orthorhombic'
loop_
_space_group_symop_operation_xyz
x,y,z
-x,-y,z
x,-y,1/2-z
-x,y,1/2-z
-x,-y,-z
x,y,-z
-x,y,1/2+z
x,-y,1/2+z
1/2+x,1/2+y,z
1/2-x,1/2-y,z
1/2+x,1/2-y,1/2-z
1/2-x,1/2+y,1/2-z
1/2-x,1/2-y,-z
1/2+x,1/2+y,-z
1/2-x,1/2+y,1/2+z
1/2+x,1/2-y,1/2+z
loop_
_atom_site_type_symbol
_atom_site_label
_atom_site_fract_x
_atom_site_fract_y
_atom_site_fract_z
Si Si1 0.475586 0.157707 0.000000
Si Si2 0.814063 0.703048 0.500000
Si Si3 0.396863 0.519482 0.883988
Si Si4 0.425145 0.381354 0.500000
Si Si5 0.577005 0.780249 0.884060
Si Si6 0.391568 0.951637 0.188771
Si Si7 0.813311 0.277937 0.881539
Si Si8 0.975679 0.805554 0.310333
O O1 0.439708 0.181776 0.945746
O O2 0.500000 0.000000 0.000000
O O3 0.527516 0.263914 0.000000
O O4 0.750000 0.750000 0.500000
O O5 0.863813 0.815880 0.500000
O O6 0.821187 0.639471 0.560369
O O7 0.382639 0.354387 0.879984
O O8 0.346509 0.629619 0.884383
O O9 0.436048 0.574151 0.835034
O O10 0.427773 0.535944 0.942621
O O11 0.523250 0.721914 0.853633
O O12 0.595454 0.917347 0.850711
O O13 0.339979 0.869189 0.165408
O O14 0.441023 0.839464 0.190153
O O15 0.382500 0.000000 0.250000
O O16 0.750000 0.250000 0.873631
O O17 0.000000 0.831876 0.250000
#
# Coordination Sequence:
#
# PCOD9496445 Si02
#       8
#     8   8  16   8  16  16  16  16
#     4  12  25  35  56  87 125 164 197 236 294 360
#     4   8  16  33  62  88 105 140 197 253 285 342
#     4  10  22  37  58  88 118 154 199 245 293 351
#     4  10  19  36  56  81 122 157 193 236 301 348
#     4  12  24  36  56  87 124 156 194 242 293 349
#     4  11  23  40  58  84 116 159 198 244 292 356
#     4   9  20  41  66  87 113 151 201 251 309 362
#     4  11  21  37  57  79 119 160 204 230 278 348
#
# _framework density 18.363772999999998
#
# number of rings (size 3 to 8) (size 9 to 14) (size 15 to 20)
#    0.000    1.538    3.077    2.308    4.308    1.846 
#    0.000    2.308    0.000    0.000    0.000    7.538 
#    0.000    0.000    0.000    0.000    0.000    0.000 
#
# Total GULP energy -290048.722112 kJ/mol
# GULP energy per Si atom -5577.860041 kJ/mol
# Density = 1.832198 g / cm^3
# Si number density = 18.363773 Si / 1000 Ang^3
#
#
#
# Elastic Constant Matrix: (Units=GPa)
#
#
# Indices 1 2 3 4 5 6 
#
# 1 72.9229 36.7119 42.1916 0.0000 0.0000 0.0000
# 2 36.7119 132.6240 60.4129 0.0000 0.0000 0.0000
# 3 42.1916 60.4129 148.0868 0.0000 0.0000 0.0000
# 4 0.0000 0.0000 0.0000 18.0406 0.0000 0.0000
# 5 0.0000 0.0000 0.0000 0.0000 24.1842 0.0000
# 6 0.0000 0.0000 0.0000 0.0000 0.0000 5.7030
#
#
#
# Elastic Compliance Matrix: (Units=1/GPa)
#
#
# Indices 1 2 3 4 5 6 
#
# 1 0.017427 -0.003147 -0.003681 0.000000 0.000000 0.000000
# 2 -0.003147 0.009829 -0.003113 0.000000 0.000000 0.000000
# 3 -0.003681 -0.003113 0.009072 0.000000 0.000000 0.000000
# 4 0.000000 0.000000 0.000000 0.055431 0.000000 0.000000
# 5 0.000000 0.000000 0.000000 0.000000 0.041349 0.000000
# 6 0.000000 0.000000 0.000000 0.000000 0.000000 0.175347
#
#
# Mechanical properties :
#
#
# Convention : Reuss Voigt Hill
#
# Bulk Modulus (GPa) = 60.80899 70.25184 65.53042
# Shear Modulus (GPa) = 14.97806 23.87336 19.42571
#
# Velocity S-wave (km/s) = 2.85902 3.60950 3.25595
# Velocity P-wave (km/s) = 6.63959 7.46391 7.06379
#
# Compressibility (1/GPa) = 0.01644494
#
# Stress axis : x y z
#
# Youngs Moduli (GPa) = 57.38068 101.73483 110.23216
#
# Poissons Ratio (x) = 0.32018 0.40581
# Poissons Ratio (y) = 0.18059 0.34319
# Poissons Ratio (z) = 0.21124 0.31673
#
# Static dielectric constant tensor:
#      x y z
#    x 1.609190 0.000000 0.000000 
#    y 0.000000 1.662710 0.000000 
#    z 0.000000 0.000000 1.646190 
# 
# From -- ./inp_files/60193.got.cif
#   From: 2010.05.17/outbox.cif.g08.bks.cpg/sg66_31_cif.got.tgz:60193.got - 2010.06.03 17:51:23.
