data_PCOD9496727
_publ_section_title
;
Structure prediction by ZEFSAII (Michael W. Deem and Ramdas Pophale) SiO2 
 PCOD9496727
Probable space group: C C C M
;
_chemical_formula_sum "Si O2"
_cell_formula_units_Z 64
_cell_length_a 14.821999
_cell_length_b 28.583182
_cell_length_c 8.771379
_cell_angle_alpha 90.000000
_cell_angle_beta 90.000000
_cell_angle_gamma 90.000000
_cell_volume 3716.081506
_symmetry_space_group_name_H-M "C C C M"
_symmetry_group_IT_number 66
_symmetry_cell_setting 'orthorhombic'
loop_
_space_group_symop_operation_xyz
x,y,z
-x,-y,z
x,-y,1/2-z
-x,y,1/2-z
-x,-y,-z
x,y,-z
-x,y,1/2+z
x,-y,1/2+z
1/2+x,1/2+y,z
1/2-x,1/2-y,z
1/2+x,1/2-y,1/2-z
1/2-x,1/2+y,1/2-z
1/2-x,1/2-y,-z
1/2+x,1/2+y,-z
1/2-x,1/2+y,1/2+z
1/2+x,1/2-y,1/2+z
loop_
_atom_site_type_symbol
_atom_site_label
_atom_site_fract_x
_atom_site_fract_y
_atom_site_fract_z
Si Si1 0.907635 0.169813 0.683622
Si Si2 0.599108 0.050344 0.816863
Si Si3 0.352146 0.230355 0.172526
Si Si4 0.218052 0.360488 0.681504
O O1 0.908382 0.169902 0.500000
O O2 0.902524 0.224312 0.736621
O O3 0.815716 0.145745 0.740611
O O4 0.000000 0.149178 0.750000
O O5 0.500000 0.060929 0.750000
O O6 0.668579 0.091411 0.776579
O O7 0.626405 0.000000 0.750000
O O8 0.592887 0.047391 0.000000
O O9 0.250000 0.250000 0.161941
O O10 0.344739 0.183146 0.267749
O O11 0.383356 0.219998 0.000000
O O12 0.230117 0.358745 0.500000
#
# Coordination Sequence:
#
# PCOD9496727 Si02
#       4
#    16  16  16  16
#     4  10  20  33  50  73 103 139 175 210 248 293
#     4  10  21  36  55  78 102 129 163 205 254 306
#     4   8  16  30  46  67  96 131 168 203 242 286
#     4  10  20  33  51  76 103 133 170 209 251 300
#
# _framework density 17.222442000000001
#
# number of rings (size 3 to 8) (size 9 to 14) (size 15 to 20)
#    0.000    2.500    0.000    4.500    0.000   10.500 
#    0.000    5.000    0.000    0.750    0.000    5.250 
#    0.000    0.000    0.000    0.000    0.000    0.000 
#
# Total GULP energy -178367.109675 kJ/mol
# GULP energy per Si atom -5573.972177 kJ/mol
# Density = 1.718324 g / cm^3
# Si number density = 17.222442 Si / 1000 Ang^3
#
#
#
# Elastic Constant Matrix: (Units=GPa)
#
#
# Indices 1 2 3 4 5 6 
#
# 1 96.4841 76.9734 39.4246 0.0000 0.0000 0.0000
# 2 76.9734 126.1983 55.0308 0.0000 0.0000 0.0000
# 3 39.4246 55.0308 55.1441 0.0000 0.0000 0.0000
# 4 0.0000 0.0000 0.0000 11.6520 0.0000 0.0000
# 5 0.0000 0.0000 0.0000 0.0000 -161.7011 0.0000
# 6 0.0000 0.0000 0.0000 0.0000 0.0000 23.4465
#
#
#
# Elastic Compliance Matrix: (Units=1/GPa)
#
#
# Indices 1 2 3 4 5 6 
#
# 1 0.020647 -0.010900 -0.003884 0.000000 0.000000 0.000000
# 2 -0.010900 0.019783 -0.011950 0.000000 0.000000 0.000000
# 3 -0.003884 -0.011950 0.032836 0.000000 0.000000 0.000000
# 4 0.000000 0.000000 0.000000 0.085822 0.000000 0.000000
# 5 0.000000 0.000000 0.000000 0.000000 -0.006184 0.000000
# 6 0.000000 0.000000 0.000000 0.000000 0.000000 0.042650
#
#
# Mechanical properties :
#
#
# Convention : Reuss Voigt Hill
#
# Bulk Modulus (GPa) = 50.50649 68.96491 59.73570
# Shear Modulus (GPa) = 19.56010 -18.22734 0.66638
#
# Velocity S-wave (km/s) = 3.37372 -3.25676 0.62271
# Velocity P-wave (km/s) = 6.67575 5.09790 5.93945
#
# Compressibility (1/GPa) = 0.01979944
#
# Stress axis : x y z
#
# Youngs Moduli (GPa) = 48.43273 50.54773 30.45399
#
# Poissons Ratio (x) = 0.55097 0.11828
# Poissons Ratio (y) = 0.52791 0.36392
# Poissons Ratio (z) = 0.18811 0.60404
#
# Static dielectric constant tensor:
#      x y z
#    x 1.597780 0.000000 0.000000 
#    y 0.000000 1.579520 0.000000 
#    z 0.000000 0.000000 1.588190 
# 
# From -- ./inp_files/5070.got.cif
#   From: 2010.05.17/outbox.cif.g08.bks.cpg/sg66_3_cif.got.tgz:5070.got - 2010.06.03 17:51:23.
