data_PCOD9496537
_publ_section_title
;
Structure prediction by ZEFSAII (Michael W. Deem and Ramdas Pophale) SiO2 
 PCOD9496537
Probable space group: C C C M
;
_chemical_formula_sum "Si O2"
_cell_formula_units_Z 116
_cell_length_a 28.257098
_cell_length_b 9.228289
_cell_length_c 23.167577
_cell_angle_alpha 90.000000
_cell_angle_beta 90.000000
_cell_angle_gamma 90.000000
_cell_volume 6041.285493
_symmetry_space_group_name_H-M "C C C M"
_symmetry_group_IT_number 66
_symmetry_cell_setting 'orthorhombic'
loop_
_space_group_symop_operation_xyz
x,y,z
-x,-y,z
x,-y,1/2-z
-x,y,1/2-z
-x,-y,-z
x,y,-z
-x,y,1/2+z
x,-y,1/2+z
1/2+x,1/2+y,z
1/2-x,1/2-y,z
1/2+x,1/2-y,1/2-z
1/2-x,1/2+y,1/2-z
1/2-x,1/2-y,-z
1/2+x,1/2+y,-z
1/2-x,1/2+y,1/2+z
1/2+x,1/2-y,1/2+z
loop_
_atom_site_type_symbol
_atom_site_label
_atom_site_fract_x
_atom_site_fract_y
_atom_site_fract_z
Si Si1 0.669363 0.046618 0.435282
Si Si2 0.950373 0.152932 0.778389
Si Si3 0.357506 0.170817 0.264287
Si Si4 0.500000 0.500000 0.000000
Si Si5 0.219729 0.967128 0.431976
Si Si6 0.834717 0.769187 0.391895
Si Si7 0.573336 0.529846 0.605626
Si Si8 0.355768 0.288967 0.141810
O O1 0.657802 0.095418 0.500000
O O2 0.639402 0.133587 0.388594
O O3 0.725334 0.070512 0.425167
O O4 0.662190 0.876467 0.428236
O O5 0.912081 0.278863 0.771408
O O6 0.956113 0.112760 0.845198
O O7 0.000000 0.189885 0.750000
O O8 0.933337 0.000000 0.750000
O O9 0.333575 0.221859 0.324305
O O10 0.341931 0.262286 0.208029
O O11 0.352184 0.000000 0.250000
O O12 0.541579 0.497671 0.949483
O O13 0.208090 0.953485 0.500000
O O14 0.208656 0.129797 0.410878
O O15 0.185904 0.868259 0.393267
O O16 0.881218 0.866016 0.404176
O O17 0.597360 0.384449 0.631867
#
# Coordination Sequence:
#
# PCOD9496537 Si02
#       8
#    16  16  16   4  16  16  16  16
#     4  11  22  38  63  88 121 159 205 251 299 365
#     4  10  19  37  63  88 108 151 207 250 294 350
#     4  11  22  40  59  88 125 161 202 250 306 368
#     4  12  24  40  62  94 128 148 204 252 296 356
#     4  10  22  39  61  91 119 157 211 258 290 352
#     4  10  22  39  62  89 122 162 202 245 310 353
#     4  10  24  37  61  91 121 155 195 249 297 358
#     4  11  22  39  61  89 124 162 200 243 310 353
#
# _framework density 19.201211000000001
#
# number of rings (size 3 to 8) (size 9 to 14) (size 15 to 20)
#    0.000    1.517    2.759    2.483    5.793    2.483 
#    0.000    4.138    0.000    1.655    0.000    0.000 
#    0.000    0.000    0.000    0.000    0.000    0.000 
#
# Total GULP energy -323237.027038 kJ/mol
# GULP energy per Si atom -5573.052190 kJ/mol
# Density = 1.915751 g / cm^3
# Si number density = 19.201211 Si / 1000 Ang^3
#
#
#
# Elastic Constant Matrix: (Units=GPa)
#
#
# Indices 1 2 3 4 5 6 
#
# 1 39.3628 9.3388 41.0300 0.0000 0.0000 0.0000
# 2 9.3388 72.4239 13.7455 0.0000 0.0000 0.0000
# 3 41.0300 13.7455 133.5636 0.0000 0.0000 0.0000
# 4 0.0000 0.0000 0.0000 18.6451 0.0000 0.0000
# 5 0.0000 0.0000 0.0000 0.0000 -20.6354 0.0000
# 6 0.0000 0.0000 0.0000 0.0000 0.0000 17.4417
#
#
#
# Elastic Compliance Matrix: (Units=1/GPa)
#
#
# Indices 1 2 3 4 5 6 
#
# 1 0.037893 -0.002730 -0.011360 0.000000 0.000000 0.000000
# 2 -0.002730 0.014279 -0.000631 0.000000 0.000000 0.000000
# 3 -0.011360 -0.000631 0.011042 0.000000 0.000000 0.000000
# 4 0.000000 0.000000 0.000000 0.053633 0.000000 0.000000
# 5 0.000000 0.000000 0.000000 0.000000 -0.048461 0.000000
# 6 0.000000 0.000000 0.000000 0.000000 0.000000 0.057334
#
#
# Mechanical properties :
#
#
# Convention : Reuss Voigt Hill
#
# Bulk Modulus (GPa) = 29.60958 41.50877 35.55918
# Shear Modulus (GPa) = 30.04453 15.17270 22.60861
#
# Velocity S-wave (km/s) = 3.95995 2.81409 3.43513
# Velocity P-wave (km/s) = 6.03012 5.67658 5.85602
#
# Compressibility (1/GPa) = 0.03377285
#
# Stress axis : x y z
#
# Youngs Moduli (GPa) = 26.38997 70.03104 90.56662
#
# Poissons Ratio (x) = 0.19120 1.02880
# Poissons Ratio (y) = 0.07205 0.05713
# Poissons Ratio (z) = 0.29978 0.04418
#
# Static dielectric constant tensor:
#      x y z
#    x 1.662110 0.000000 0.000000 
#    y 0.000000 1.711530 0.000000 
#    z 0.000000 0.000000 1.677250 
# 
# From -- ./inp_files/60232.got.cif
#   From: 2010.05.17/outbox.cif.g08.bks.cpg/sg66_31_cif.got.tgz:60232.got - 2010.06.03 17:51:23.
