data_PCOD9496354
_publ_section_title
;
Structure prediction by ZEFSAII (Michael W. Deem and Ramdas Pophale) SiO2 
 PCOD9496354
Probable space group: C C C M
;
_chemical_formula_sum "Si O2"
_cell_formula_units_Z 116
_cell_length_a 9.987730
_cell_length_b 23.706856
_cell_length_c 27.484519
_cell_angle_alpha 90.000000
_cell_angle_beta 90.000000
_cell_angle_gamma 90.000000
_cell_volume 6507.720559
_symmetry_space_group_name_H-M "C C C M"
_symmetry_group_IT_number 66
_symmetry_cell_setting 'orthorhombic'
loop_
_space_group_symop_operation_xyz
x,y,z
-x,-y,z
x,-y,1/2-z
-x,y,1/2-z
-x,-y,-z
x,y,-z
-x,y,1/2+z
x,-y,1/2+z
1/2+x,1/2+y,z
1/2-x,1/2-y,z
1/2+x,1/2-y,1/2-z
1/2-x,1/2+y,1/2-z
1/2-x,1/2-y,-z
1/2+x,1/2+y,-z
1/2-x,1/2+y,1/2+z
1/2+x,1/2-y,1/2+z
loop_
_atom_site_type_symbol
_atom_site_label
_atom_site_fract_x
_atom_site_fract_y
_atom_site_fract_z
Si Si1 0.000000 0.000000 0.750000
Si Si2 0.370240 0.785424 0.871587
Si Si3 0.379322 0.708004 0.654293
Si Si4 0.946107 0.439194 0.352064
Si Si5 0.794191 0.184659 0.448697
Si Si6 0.690157 0.594131 0.204778
Si Si7 0.007251 0.373970 0.055827
Si Si8 0.385190 0.855682 0.215832
O O1 0.091112 0.043196 0.781582
O O2 0.250000 0.750000 0.893474
O O3 0.492786 0.748171 0.850838
O O4 0.424711 0.827937 0.912779
O O5 0.314323 0.815506 0.822847
O O6 0.250000 0.750000 0.662001
O O7 0.370578 0.678564 0.601263
O O8 0.375647 0.654642 0.690484
O O9 0.792477 0.426598 0.337577
O O10 0.000000 0.500000 0.338192
O O11 0.981111 0.427163 0.408282
O O12 0.029054 0.395960 0.319014
O O13 0.865267 0.172603 0.500000
O O14 0.750000 0.250000 0.449359
O O15 0.657901 0.149872 0.446759
O O16 0.783565 0.609556 0.251027
O O17 0.961145 0.382392 0.000000
O O18 0.500000 0.827536 0.250000
#
# Coordination Sequence:
#
# PCOD9496354 Si02
#       8
#     4  16  16  16  16  16  16  16
#     4  12  28  40  54  80 114 164 208 232 280 352
#     4  11  23  34  52  86 122 151 179 228 302 360
#     4  11  19  37  60  87 117 146 196 242 287 349
#     4  10  19  36  60  83 107 143 194 253 293 325
#     4   9  15  28  56  83 107 139 178 224 273 339
#     4  11  23  40  57  82 114 159 202 241 285 353
#     4  10  19  35  56  84 115 146 186 235 291 356
#     4   9  20  37  56  79 109 145 190 236 287 344
#
# _framework density 17.824981000000001
#
# number of rings (size 3 to 8) (size 9 to 14) (size 15 to 20)
#    0.000    1.793    4.138    2.483    1.931    4.138 
#    0.000    0.000    0.000    0.000    0.000    0.966 
#    0.000    0.000    0.000    0.000    0.000    0.000 
#
# Total GULP energy -322914.931131 kJ/mol
# GULP energy per Si atom -5567.498813 kJ/mol
# Density = 1.778441 g / cm^3
# Si number density = 17.824981 Si / 1000 Ang^3
#
#
#
# Elastic Constant Matrix: (Units=GPa)
#
#
# Indices 1 2 3 4 5 6 
#
# 1 55.7907 19.5458 16.5866 0.0000 0.0000 0.0000
# 2 19.5458 45.8645 20.7582 0.0000 0.0000 0.0000
# 3 16.5866 20.7582 110.7980 0.0000 0.0000 0.0000
# 4 0.0000 0.0000 0.0000 4.9027 0.0000 0.0000
# 5 0.0000 0.0000 0.0000 0.0000 9.1838 0.0000
# 6 0.0000 0.0000 0.0000 0.0000 0.0000 19.6543
#
#
#
# Elastic Compliance Matrix: (Units=1/GPa)
#
#
# Indices 1 2 3 4 5 6 
#
# 1 0.021336 -0.008355 -0.001629 0.000000 0.000000 0.000000
# 2 -0.008355 0.027096 -0.003826 0.000000 0.000000 0.000000
# 3 -0.001629 -0.003826 0.009986 0.000000 0.000000 0.000000
# 4 0.000000 0.000000 0.000000 0.203971 0.000000 0.000000
# 5 0.000000 0.000000 0.000000 0.000000 0.108888 0.000000
# 6 0.000000 0.000000 0.000000 0.000000 0.000000 0.050879
#
#
# Mechanical properties :
#
#
# Convention : Reuss Voigt Hill
#
# Bulk Modulus (GPa) = 32.46959 36.24826 34.35892
# Shear Modulus (GPa) = 10.86861 17.11899 13.99380
#
# Velocity S-wave (km/s) = 2.47197 3.10238 2.80494
# Velocity P-wave (km/s) = 5.13837 5.76306 5.45966
#
# Compressibility (1/GPa) = 0.03079805
#
# Stress axis : x y z
#
# Youngs Moduli (GPa) = 46.87018 36.90639 100.14055
#
# Poissons Ratio (x) = 0.30837 0.16309
# Poissons Ratio (y) = 0.39162 0.38310
# Poissons Ratio (z) = 0.07633 0.14119
#
# Static dielectric constant tensor:
#      x y z
#    x 1.611700 0.000000 0.000000 
#    y 0.000000 1.598200 0.000000 
#    z 0.000000 0.000000 1.663560 
# 
# From -- ./inp_files/62908.got.cif
#   From: 2010.05.17/outbox.cif.g08.bks.cpg/sg66_32_cif.got.tgz:62908.got - 2010.06.03 17:51:23.
