data_PCOD9496447
_publ_section_title
;
Structure prediction by ZEFSAII (Michael W. Deem and Ramdas Pophale) SiO2 
 PCOD9496447
Probable space group: C C C M
;
_chemical_formula_sum "Si O2"
_cell_formula_units_Z 112
_cell_length_a 4.990044
_cell_length_b 29.917574
_cell_length_c 29.502324
_cell_angle_alpha 90.000000
_cell_angle_beta 90.000000
_cell_angle_gamma 90.000000
_cell_volume 4404.402264
_symmetry_space_group_name_H-M "C C C M"
_symmetry_group_IT_number 66
_symmetry_cell_setting 'orthorhombic'
loop_
_space_group_symop_operation_xyz
x,y,z
-x,-y,z
x,-y,1/2-z
-x,y,1/2-z
-x,-y,-z
x,y,-z
-x,y,1/2+z
x,-y,1/2+z
1/2+x,1/2+y,z
1/2-x,1/2-y,z
1/2+x,1/2-y,1/2-z
1/2-x,1/2+y,1/2-z
1/2-x,1/2-y,-z
1/2+x,1/2+y,-z
1/2-x,1/2+y,1/2+z
1/2+x,1/2-y,1/2+z
loop_
_atom_site_type_symbol
_atom_site_label
_atom_site_fract_x
_atom_site_fract_y
_atom_site_fract_z
Si Si1 0.189612 0.074471 0.896509
Si Si2 0.722342 0.527455 0.326265
Si Si3 0.773482 0.180193 0.386873
Si Si4 0.240340 0.380459 0.281275
Si Si5 0.295202 0.182450 0.552007
Si Si6 0.437063 0.291626 0.695744
Si Si7 0.683370 0.924168 0.549154
O O1 0.002178 0.046129 0.862836
O O2 0.228129 0.125725 0.880158
O O3 0.997269 0.072408 0.940353
O O4 0.481430 0.057961 0.912447
O O5 0.500000 0.500000 0.297695
O O6 0.825695 0.573447 0.304834
O O7 0.000000 0.500000 0.333453
O O8 0.016995 0.187737 0.422033
O O9 0.817221 0.203163 0.338462
O O10 0.519875 0.199289 0.413631
O O11 0.500000 0.387364 0.250000
O O12 0.291216 0.338961 0.313975
O O13 0.000000 0.365700 0.250000
O O14 0.296210 0.198822 0.500000
O O15 0.360811 0.129295 0.548799
O O16 0.500000 0.290461 0.750000
O O17 0.250000 0.250000 0.686049
O O18 0.620117 0.943065 0.500000
#
# Coordination Sequence:
#
# PCOD9496447 Si02
#       7
#    16  16  16  16  16  16  16
#     4  10  19  36  56  87 123 163 213 263 322 391
#     4  12  25  41  64  92 127 170 213 267 331 391
#     4  10  20  37  65  93 133 176 220 273 336 397
#     4  11  25  45  69  96 128 166 217 275 327 390
#     4   9  18  33  60  98 131 169 221 276 334 402
#     4  11  25  46  71 104 140 183 229 280 336 401
#     4   9  17  30  56  87 120 162 212 264 320 386
#
# _framework density 25.429100999999999
#
# number of rings (size 3 to 8) (size 9 to 14) (size 15 to 20)
#    0.000    1.714    1.429    3.000    0.000    8.571 
#    0.000    0.000    0.000   11.143    0.000    0.000 
#    0.000    0.000    0.000    0.000    0.000    0.000 
#
# Total GULP energy -313034.570240 kJ/mol
# GULP energy per Si atom -5589.903040 kJ/mol
# Density = 2.537122 g / cm^3
# Si number density = 25.429101 Si / 1000 Ang^3
#
#
#
# Elastic Constant Matrix: (Units=GPa)
#
#
# Indices 1 2 3 4 5 6 
#
# 1 96.8814 13.7843 -13.5682 0.0000 0.0000 0.0000
# 2 13.7843 126.1562 10.4645 0.0000 0.0000 0.0000
# 3 -13.5682 10.4645 86.2616 0.0000 0.0000 0.0000
# 4 0.0000 0.0000 0.0000 39.7955 0.0000 0.0000
# 5 0.0000 0.0000 0.0000 0.0000 51.5434 0.0000
# 6 0.0000 0.0000 0.0000 0.0000 0.0000 31.8943
#
#
#
# Elastic Compliance Matrix: (Units=1/GPa)
#
#
# Indices 1 2 3 4 5 6 
#
# 1 0.010771 -0.001331 0.001856 0.000000 0.000000 0.000000
# 2 -0.001331 0.008172 -0.001201 0.000000 0.000000 0.000000
# 3 0.001856 -0.001201 0.012030 0.000000 0.000000 0.000000
# 4 0.000000 0.000000 0.000000 0.025128 0.000000 0.000000
# 5 0.000000 0.000000 0.000000 0.000000 0.019401 0.000000
# 6 0.000000 0.000000 0.000000 0.000000 0.000000 0.031354
#
#
# Mechanical properties :
#
#
# Convention : Reuss Voigt Hill
#
# Bulk Modulus (GPa) = 33.75944 36.74006 35.24975
# Shear Modulus (GPa) = 42.34362 44.55456 43.44909
#
# Velocity S-wave (km/s) = 4.08507 4.19036 4.13805
# Velocity P-wave (km/s) = 5.96281 6.15561 6.05998
#
# Compressibility (1/GPa) = 0.02962134
#
# Stress axis : x y z
#
# Youngs Moduli (GPa) = 92.84082 122.37386 83.12437
#
# Poissons Ratio (x) = 0.16286 -0.15425
# Poissons Ratio (y) = 0.12355 0.09980
# Poissons Ratio (z) = -0.17228 0.14693
#
# Static dielectric constant tensor:
#      x y z
#    x 1.624780 0.000000 0.000000 
#    y 0.000000 2.137940 0.000000 
#    z 0.000000 0.000000 2.066700 
# 
# From -- ./inp_files/67515.got.cif
#   From: 2010.05.17/outbox.cif.g08.bks.cpg/sg66_34_cif.got.tgz:67515.got - 2010.06.03 17:51:23.
