data_PCOD9496580
_publ_section_title
;
Structure prediction by ZEFSAII (Michael W. Deem and Ramdas Pophale) SiO2 
 PCOD9496580
Probable space group: C C C M
;
_chemical_formula_sum "Si O2"
_cell_formula_units_Z 112
_cell_length_a 11.855615
_cell_length_b 16.296570
_cell_length_c 27.864717
_cell_angle_alpha 90.000000
_cell_angle_beta 90.000000
_cell_angle_gamma 90.000000
_cell_volume 5383.626604
_symmetry_space_group_name_H-M "C C C M"
_symmetry_group_IT_number 66
_symmetry_cell_setting 'orthorhombic'
loop_
_space_group_symop_operation_xyz
x,y,z
-x,-y,z
x,-y,1/2-z
-x,y,1/2-z
-x,-y,-z
x,y,-z
-x,y,1/2+z
x,-y,1/2+z
1/2+x,1/2+y,z
1/2-x,1/2-y,z
1/2+x,1/2-y,1/2-z
1/2-x,1/2+y,1/2-z
1/2-x,1/2-y,-z
1/2+x,1/2+y,-z
1/2-x,1/2+y,1/2+z
1/2+x,1/2-y,1/2+z
loop_
_atom_site_type_symbol
_atom_site_label
_atom_site_fract_x
_atom_site_fract_y
_atom_site_fract_z
Si Si1 0.976909 0.332868 0.193664
Si Si2 0.678717 0.081134 0.652392
Si Si3 0.950216 0.846866 0.678989
Si Si4 0.275852 0.892031 0.860969
Si Si5 0.847556 0.089958 0.273079
Si Si6 0.811224 0.337786 0.446551
Si Si7 0.551860 0.908923 0.444884
O O1 0.006732 0.241916 0.175411
O O2 0.846958 0.343246 0.179002
O O3 0.000000 0.342941 0.250000
O O4 0.048631 0.398424 0.162878
O O5 0.740804 0.120665 0.697886
O O6 0.721392 0.113849 0.601388
O O7 0.711025 0.986480 0.654018
O O8 0.854607 0.865920 0.640016
O O9 0.884047 0.851547 0.729840
O O10 0.050991 0.910646 0.688078
O O11 0.345812 0.884893 0.910293
O O12 0.832945 0.000000 0.250000
O O13 0.784447 0.372792 0.500000
O O14 0.750000 0.250000 0.444505
O O15 0.948008 0.344226 0.443526
O O16 0.589957 0.915346 0.500000
O O17 0.500000 0.000000 0.432552
#
# Coordination Sequence:
#
# PCOD9496580 Si02
#       7
#    16  16  16  16  16  16  16
#     4  12  25  39  57  92 130 164 215 275 329 382
#     4  12  25  37  67  94 128 167 220 275 332 389
#     4  11  24  42  62  84 131 176 221 261 320 400
#     4  12  23  40  63  96 124 171 218 270 323 397
#     4  11  23  43  63  88 125 181 229 262 321 399
#     4  10  22  40  64  99 135 167 216 284 343 398
#     4  10  19  38  66  96 131 166 214 274 337 401
#
# _framework density 20.803819000000001
#
# number of rings (size 3 to 8) (size 9 to 14) (size 15 to 20)
#    0.000    0.857    5.714    2.571    2.000    0.571 
#    0.000    0.000    0.000    3.429    0.000    2.000 
#    0.000    0.000    0.000    0.000    0.000    0.000 
#
# Total GULP energy -312514.913018 kJ/mol
# GULP energy per Si atom -5580.623447 kJ/mol
# Density = 2.075647 g / cm^3
# Si number density = 20.803819 Si / 1000 Ang^3
#
#
#
# Elastic Constant Matrix: (Units=GPa)
#
#
# Indices 1 2 3 4 5 6 
#
# 1 84.3143 3.6027 34.4819 0.0000 0.0000 0.0000
# 2 3.6027 63.0767 22.7120 0.0000 0.0000 0.0000
# 3 34.4819 22.7120 102.7787 0.0000 0.0000 0.0000
# 4 0.0000 0.0000 0.0000 19.9498 0.0000 0.0000
# 5 0.0000 0.0000 0.0000 0.0000 37.0089 0.0000
# 6 0.0000 0.0000 0.0000 0.0000 0.0000 26.9276
#
#
#
# Elastic Compliance Matrix: (Units=1/GPa)
#
#
# Indices 1 2 3 4 5 6 
#
# 1 0.013799 0.000955 -0.004841 0.000000 0.000000 0.000000
# 2 0.000955 0.017290 -0.004141 0.000000 0.000000 0.000000
# 3 -0.004841 -0.004141 0.012269 0.000000 0.000000 0.000000
# 4 0.000000 0.000000 0.000000 0.050126 0.000000 0.000000
# 5 0.000000 0.000000 0.000000 0.000000 0.027021 0.000000
# 6 0.000000 0.000000 0.000000 0.000000 0.000000 0.037137
#
#
# Mechanical properties :
#
#
# Convention : Reuss Voigt Hill
#
# Bulk Modulus (GPa) = 36.62411 41.30697 38.96554
# Shear Modulus (GPa) = 27.35281 29.40214 28.37747
#
# Velocity S-wave (km/s) = 3.62995 3.76347 3.69731
# Velocity P-wave (km/s) = 5.93392 6.22764 6.08256
#
# Compressibility (1/GPa) = 0.02730442
#
# Stress axis : x y z
#
# Youngs Moduli (GPa) = 72.46779 57.83597 81.50789
#
# Poissons Ratio (x) = -0.05522 0.39455
# Poissons Ratio (y) = -0.06919 0.33753
# Poissons Ratio (z) = 0.35079 0.23951
#
# Static dielectric constant tensor:
#      x y z
#    x 1.814170 0.000000 0.000000 
#    y 0.000000 1.812780 0.000000 
#    z 0.000000 0.000000 1.775950 
# 
# From -- ./inp_files/69108.got.cif
#   From: 2010.05.17/outbox.cif.g08.bks.cpg/sg66_35_cif.got.tgz:69108.got - 2010.06.03 17:51:23.
