data_PCOD9496292
_publ_section_title
;
Structure prediction by ZEFSAII (Michael W. Deem and Ramdas Pophale) SiO2 
 PCOD9496292
Probable space group: C C C M
;
_chemical_formula_sum "Si O2"
_cell_formula_units_Z 56
_cell_length_a 27.315878
_cell_length_b 5.263544
_cell_length_c 16.024530
_cell_angle_alpha 90.000000
_cell_angle_beta 90.000000
_cell_angle_gamma 90.000000
_cell_volume 2303.980094
_symmetry_space_group_name_H-M "C C C M"
_symmetry_group_IT_number 66
_symmetry_cell_setting 'orthorhombic'
loop_
_space_group_symop_operation_xyz
x,y,z
-x,-y,z
x,-y,1/2-z
-x,y,1/2-z
-x,-y,-z
x,y,-z
-x,y,1/2+z
x,-y,1/2+z
1/2+x,1/2+y,z
1/2-x,1/2-y,z
1/2+x,1/2-y,1/2-z
1/2-x,1/2+y,1/2-z
1/2-x,1/2-y,-z
1/2+x,1/2+y,-z
1/2-x,1/2+y,1/2+z
1/2+x,1/2-y,1/2+z
loop_
_atom_site_type_symbol
_atom_site_label
_atom_site_fract_x
_atom_site_fract_y
_atom_site_fract_z
Si Si1 0.805050 0.174887 0.102124
Si Si2 0.860344 0.336742 0.399731
Si Si3 0.034426 0.747251 0.000000
Si Si4 0.558594 0.495117 0.655747
O O1 0.750000 0.250000 0.126229
O O2 0.839231 0.402099 0.134429
O O3 0.826067 0.901292 0.127695
O O4 0.805878 0.172039 0.000000
O O5 0.857145 0.348982 0.500000
O O6 0.915528 0.255205 0.379109
O O7 0.066376 0.793288 0.916623
O O8 0.000000 0.500000 0.000000
O O9 0.000000 0.000000 0.000000
O O10 0.500000 0.500000 0.664216
O O11 0.577783 0.500000 0.750000
#
# Coordination Sequence:
#
# PCOD9496292 Si02
#       4
#    16  16   8  16
#     4   9  18  33  57  89 123 161 210 266 329 401
#     4  10  19  34  58  89 125 167 213 266 331 394
#     4  10  22  42  66  92 127 178 233 286 336 400
#     4  10  22  42  64  95 135 181 229 281 341 406
#
# _framework density 24.305764
#
# number of rings (size 3 to 8) (size 9 to 14) (size 15 to 20)
#    0.000    2.286    1.429    0.857    0.000    8.000 
#    0.000   21.429    0.000    3.429    0.000    0.000 
#    0.000    0.000    0.000    0.286    0.000    0.000 
#
# Total GULP energy -156312.891118 kJ/mol
# GULP energy per Si atom -5582.603254 kJ/mol
# Density = 2.425044 g / cm^3
# Si number density = 24.305764 Si / 1000 Ang^3
#
#
#
# Elastic Constant Matrix: (Units=GPa)
#
#
# Indices 1 2 3 4 5 6 
#
# 1 133.2984 39.4443 -1.0568 0.0000 0.0000 0.0000
# 2 39.4443 136.6764 35.2942 0.0000 0.0000 0.0000
# 3 -1.0568 35.2942 112.7414 0.0000 0.0000 0.0000
# 4 0.0000 0.0000 0.0000 -2.1598 0.0000 0.0000
# 5 0.0000 0.0000 0.0000 0.0000 -38.8792 0.0000
# 6 0.0000 0.0000 0.0000 0.0000 0.0000 38.2296
#
#
#
# Elastic Compliance Matrix: (Units=1/GPa)
#
#
# Indices 1 2 3 4 5 6 
#
# 1 0.008285 -0.002623 0.000899 0.000000 0.000000 0.000000
# 2 -0.002623 0.008791 -0.002777 0.000000 0.000000 0.000000
# 3 0.000899 -0.002777 0.009747 0.000000 0.000000 0.000000
# 4 0.000000 0.000000 0.000000 -0.463006 0.000000 0.000000
# 5 0.000000 0.000000 0.000000 0.000000 -0.025721 0.000000
# 6 0.000000 0.000000 0.000000 0.000000 0.000000 0.026158
#
#
# Mechanical properties :
#
#
# Convention : Reuss Voigt Hill
#
# Bulk Modulus (GPa) = 56.11151 58.89772 57.50462
# Shear Modulus (GPa) = -11.88203 20.04042 4.07920
#
# Velocity S-wave (km/s) = -2.21341 2.87455 1.29689
# Velocity P-wave (km/s) = 4.07475 5.94155 5.09439
#
# Compressibility (1/GPa) = 0.01782165
#
# Stress axis : x y z
#
# Youngs Moduli (GPa) = 120.69518 113.75792 102.59059
#
# Poissons Ratio (x) = 0.29841 -0.09222
# Poissons Ratio (y) = 0.31661 0.28485
# Poissons Ratio (z) = -0.10849 0.31585
#
# Static dielectric constant tensor:
#      x y z
#    x 1.898460 0.000000 0.000000 
#    y 0.000000 1.767940 0.000000 
#    z 0.000000 0.000000 1.998960 
# 
# From -- ./inp_files/34872.got.cif
#   From: 2010.05.17/outbox.cif.g08.bks.cpg/sg66_18_cif.got.tgz:34872.got - 2010.06.03 17:51:23.
