data_PCOD9496082
_publ_section_title
;
Structure prediction by ZEFSAII (Michael W. Deem and Ramdas Pophale) SiO2 
 PCOD9496082
Probable space group: C C C M
;
_chemical_formula_sum "Si O2"
_cell_formula_units_Z 116
_cell_length_a 26.296866
_cell_length_b 27.436890
_cell_length_c 8.968870
_cell_angle_alpha 90.000000
_cell_angle_beta 90.000000
_cell_angle_gamma 90.000000
_cell_volume 6471.077552
_symmetry_space_group_name_H-M "C C C M"
_symmetry_group_IT_number 66
_symmetry_cell_setting 'orthorhombic'
loop_
_space_group_symop_operation_xyz
x,y,z
-x,-y,z
x,-y,1/2-z
-x,y,1/2-z
-x,-y,-z
x,y,-z
-x,y,1/2+z
x,-y,1/2+z
1/2+x,1/2+y,z
1/2-x,1/2-y,z
1/2+x,1/2-y,1/2-z
1/2-x,1/2+y,1/2-z
1/2-x,1/2-y,-z
1/2+x,1/2+y,-z
1/2-x,1/2+y,1/2+z
1/2+x,1/2-y,1/2+z
loop_
_atom_site_type_symbol
_atom_site_label
_atom_site_fract_x
_atom_site_fract_y
_atom_site_fract_z
Si Si1 0.856113 0.748040 0.325149
Si Si2 0.169993 0.654456 0.673529
Si Si3 0.447146 0.675903 0.822977
Si Si4 0.812404 0.076347 0.823363
Si Si5 0.000000 0.000000 0.750000
Si Si6 0.085656 0.074587 0.830420
Si Si7 0.210294 0.824360 0.326608
Si Si8 0.704787 0.049456 0.320771
O O1 0.843368 0.748930 0.500000
O O2 0.861503 0.692685 0.270074
O O3 0.905052 0.782299 0.300996
O O4 0.811863 0.773735 0.229766
O O5 0.155047 0.657482 0.500000
O O6 0.229147 0.670773 0.684258
O O7 0.172596 0.597744 0.719242
O O8 0.500000 0.691533 0.750000
O O9 0.431814 0.625020 0.745589
O O10 0.452602 0.667367 0.000000
O O11 0.865411 0.056209 0.761199
O O12 0.812684 0.133503 0.778180
O O13 0.762017 0.056293 0.742902
O O14 0.808546 0.069780 0.000000
O O15 0.960951 0.036660 0.669258
O O16 0.101563 0.083726 0.000000
O O17 0.196735 0.832536 0.500000
O O18 0.707665 0.046973 0.500000
O O19 0.684103 0.000000 0.250000
#
# Coordination Sequence:
#
# PCOD9496082 Si02
#       8
#    16  16  16  16   4  16  16  16
#     4  11  22  34  53  81 110 140 177 222 275 329
#     4   9  20  35  52  78 111 144 182 220 261 323
#     4  11  24  41  60  82 107 138 181 229 281 340
#     4  11  22  36  55  78 105 137 180 227 273 332
#     4  12  30  44  60  78 102 128 186 244 296 336
#     4  12  25  42  61  77 100 135 178 233 293 342
#     4  10  19  33  53  77 107 143 179 218 269 326
#     4  10  21  38  57  80 110 146 185 223 265 316
#
# _framework density 17.925916999999998
#
# number of rings (size 3 to 8) (size 9 to 14) (size 15 to 20)
#    0.000    1.379    2.069    4.759    0.966    8.276 
#    0.000    0.000    0.000    0.000    0.000    0.000 
#    0.000    0.552    0.000    6.069    0.000    4.414 
#
# Total GULP energy -323990.451551 kJ/mol
# GULP energy per Si atom -5586.042268 kJ/mol
# Density = 1.788512 g / cm^3
# Si number density = 17.925917 Si / 1000 Ang^3
#
#
#
# Elastic Constant Matrix: (Units=GPa)
#
#
# Indices 1 2 3 4 5 6 
#
# 1 28.6257 25.9759 25.2788 0.0000 0.0000 0.0000
# 2 25.9759 133.1187 49.4086 0.0000 0.0000 0.0000
# 3 25.2788 49.4086 100.5978 0.0000 0.0000 0.0000
# 4 0.0000 0.0000 0.0000 27.3148 0.0000 0.0000
# 5 0.0000 0.0000 0.0000 0.0000 22.6260 0.0000
# 6 0.0000 0.0000 0.0000 0.0000 0.0000 21.8927
#
#
#
# Elastic Compliance Matrix: (Units=1/GPa)
#
#
# Indices 1 2 3 4 5 6 
#
# 1 0.048581 -0.006052 -0.009235 0.000000 0.000000 0.000000
# 2 -0.006052 0.009941 -0.003362 0.000000 0.000000 0.000000
# 3 -0.009235 -0.003362 0.013912 0.000000 0.000000 0.000000
# 4 0.000000 0.000000 0.000000 0.036610 0.000000 0.000000
# 5 0.000000 0.000000 0.000000 0.000000 0.044197 0.000000
# 6 0.000000 0.000000 0.000000 0.000000 0.000000 0.045677
#
#
# Mechanical properties :
#
#
# Convention : Reuss Voigt Hill
#
# Bulk Modulus (GPa) = 28.46065 51.51874 39.98970
# Shear Modulus (GPa) = 20.16714 25.14530 22.65622
#
# Velocity S-wave (km/s) = 3.35778 3.74937 3.55897
# Velocity P-wave (km/s) = 5.56275 6.89536 6.26459
#
# Compressibility (1/GPa) = 0.03513623
#
# Stress axis : x y z
#
# Youngs Moduli (GPa) = 20.58425 100.59613 71.87871
#
# Poissons Ratio (x) = 0.60880 0.66382
# Poissons Ratio (y) = 0.12458 0.24163
# Poissons Ratio (z) = 0.19010 0.33817
#
# Static dielectric constant tensor:
#      x y z
#    x 1.607540 0.000000 0.000000 
#    y 0.000000 1.665280 0.000000 
#    z 0.000000 0.000000 1.605000 
# 
# From -- ./inp_files/10900.got.cif
#   From: 2010.05.17/outbox.cif.g08.bks.cpg/sg66_6_cif.got.tgz:10900.got - 2010.06.03 17:51:23.
