data_PCOD9496796
_publ_section_title
;
Structure prediction by ZEFSAII (Michael W. Deem and Ramdas Pophale) SiO2 
 PCOD9496796
Probable space group: C C C M
;
_chemical_formula_sum "Si O2"
_cell_formula_units_Z 100
_cell_length_a 14.164911
_cell_length_b 23.544131
_cell_length_c 16.487507
_cell_angle_alpha 90.000000
_cell_angle_beta 90.000000
_cell_angle_gamma 90.000000
_cell_volume 5498.592161
_symmetry_space_group_name_H-M "C C C M"
_symmetry_group_IT_number 66
_symmetry_cell_setting 'orthorhombic'
loop_
_space_group_symop_operation_xyz
x,y,z
-x,-y,z
x,-y,1/2-z
-x,y,1/2-z
-x,-y,-z
x,y,-z
-x,y,1/2+z
x,-y,1/2+z
1/2+x,1/2+y,z
1/2-x,1/2-y,z
1/2+x,1/2-y,1/2-z
1/2-x,1/2+y,1/2-z
1/2-x,1/2-y,-z
1/2+x,1/2+y,-z
1/2-x,1/2+y,1/2+z
1/2+x,1/2-y,1/2+z
loop_
_atom_site_type_symbol
_atom_site_label
_atom_site_fract_x
_atom_site_fract_y
_atom_site_fract_z
Si Si1 0.301608 0.062119 0.905928
Si Si2 0.250000 0.250000 0.162006
Si Si3 0.155603 0.437133 0.354962
Si Si4 0.000000 0.500000 0.750000
Si Si5 0.500000 0.334015 0.250000
Si Si6 0.208777 0.128759 0.234590
Si Si7 0.988626 0.630248 0.091349
Si Si8 0.457139 0.254351 0.903265
O O1 0.228927 0.092392 0.846425
O O2 0.404863 0.087922 0.881211
O O3 0.303781 0.994264 0.894513
O O4 0.283718 0.074775 0.000000
O O5 0.245915 0.192704 0.216085
O O6 0.343832 0.251938 0.107606
O O7 0.232285 0.401986 0.305166
O O8 0.072392 0.460399 0.297567
O O9 0.091653 0.397065 0.410228
O O10 0.401978 0.367997 0.252793
O O11 0.493718 0.298108 0.165461
O O12 0.991563 0.692498 0.128725
O O13 0.958541 0.643034 0.000000
O O14 0.480366 0.264921 0.000000
#
# Coordination Sequence:
#
# PCOD9496796 Si02
#       8
#    16   8  16   4   8  16  16  16
#     4  11  21  37  60  91 122 154 196 250 312 371
#     4  10  21  36  60  90 119 158 205 260 306 358
#     4  12  21  36  57  88 127 159 193 241 305 386
#     4  12  20  30  58  94 120 158 182 244 302 378
#     4  10  26  43  61  84 119 171 214 270 306 354
#     4  11  23  40  59  87 119 162 211 256 306 359
#     4  10  20  33  56  91 128 156 185 236 306 380
#     4  10  21  38  61  91 123 160 207 256 306 366
#
# _framework density 18.186474
#
# number of rings (size 3 to 8) (size 9 to 14) (size 15 to 20)
#    0.000    1.280    4.800    0.720    4.480    3.840 
#    0.000    3.200    0.000    2.880    0.000    0.000 
#    0.000    0.000    0.000    0.000    0.000    0.000 
#
# Total GULP energy -278514.401300 kJ/mol
# GULP energy per Si atom -5570.288026 kJ/mol
# Density = 1.814508 g / cm^3
# Si number density = 18.186474 Si / 1000 Ang^3
#
#
#
# Elastic Constant Matrix: (Units=GPa)
#
#
# Indices 1 2 3 4 5 6 
#
# 1 118.1083 58.8357 50.7390 0.0000 0.0000 0.0000
# 2 58.8357 86.0990 29.0068 0.0000 0.0000 0.0000
# 3 50.7390 29.0068 87.1118 0.0000 0.0000 0.0000
# 4 0.0000 0.0000 0.0000 73.3978 0.0000 0.0000
# 5 0.0000 0.0000 0.0000 0.0000 149.5576 0.0000
# 6 0.0000 0.0000 0.0000 0.0000 0.0000 32.5193
#
#
#
# Elastic Compliance Matrix: (Units=1/GPa)
#
#
# Indices 1 2 3 4 5 6 
#
# 1 0.015257 -0.008371 -0.006099 0.000000 0.000000 0.000000
# 2 -0.008371 0.017675 -0.001010 0.000000 0.000000 0.000000
# 3 -0.006099 -0.001010 0.015368 0.000000 0.000000 0.000000
# 4 0.000000 0.000000 0.000000 0.013624 0.000000 0.000000
# 5 0.000000 0.000000 0.000000 0.000000 0.006686 0.000000
# 6 0.000000 0.000000 0.000000 0.000000 0.000000 0.030751
#
#
# Mechanical properties :
#
#
# Convention : Reuss Voigt Hill
#
# Bulk Modulus (GPa) = 57.66862 63.16468 60.41665
# Shear Modulus (GPa) = 36.73711 61.27746 49.00728
#
# Velocity S-wave (km/s) = 4.49934 5.81095 5.19669
# Velocity P-wave (km/s) = 7.66620 8.93476 8.32468
#
# Compressibility (1/GPa) = 0.01734045
#
# Stress axis : x y z
#
# Youngs Moduli (GPa) = 65.54342 56.57677 65.06936
#
# Poissons Ratio (x) = 0.47361 0.39687
# Poissons Ratio (y) = 0.54867 0.06570
# Poissons Ratio (z) = 0.39976 0.05713
#
# Static dielectric constant tensor:
#      x y z
#    x 1.604800 0.000000 0.000000 
#    y 0.000000 1.702090 0.000000 
#    z 0.000000 0.000000 1.682460 
# 
# From -- ./inp_files/40593.got.cif
#   From: 2010.05.17/outbox.cif.g08.bks.cpg/sg66_21_cif.got.tgz:40593.got - 2010.06.03 17:51:23.
