data_PCOD9496014
_publ_section_title
;
Structure prediction by ZEFSAII (Michael W. Deem and Ramdas Pophale) SiO2 
 PCOD9496014
Probable space group: C C C M
;
_chemical_formula_sum "Si O2"
_cell_formula_units_Z 64
_cell_length_a 17.805468
_cell_length_b 13.174354
_cell_length_c 11.213394
_cell_angle_alpha 90.000000
_cell_angle_beta 90.000000
_cell_angle_gamma 90.000000
_cell_volume 2630.387937
_symmetry_space_group_name_H-M "C C C M"
_symmetry_group_IT_number 66
_symmetry_cell_setting 'orthorhombic'
loop_
_space_group_symop_operation_xyz
x,y,z
-x,-y,z
x,-y,1/2-z
-x,y,1/2-z
-x,-y,-z
x,y,-z
-x,y,1/2+z
x,-y,1/2+z
1/2+x,1/2+y,z
1/2-x,1/2-y,z
1/2+x,1/2-y,1/2-z
1/2-x,1/2+y,1/2-z
1/2-x,1/2-y,-z
1/2+x,1/2+y,-z
1/2-x,1/2+y,1/2+z
1/2+x,1/2-y,1/2+z
loop_
_atom_site_type_symbol
_atom_site_label
_atom_site_fract_x
_atom_site_fract_y
_atom_site_fract_z
Si Si1 0.783742 0.635579 0.132650
Si Si2 0.038469 0.613082 0.634453
Si Si3 0.860991 0.886909 0.750313
Si Si4 0.406397 0.380974 0.500000
Si Si5 0.916065 0.116021 0.500000
O O1 0.750000 0.750000 0.124046
O O2 0.871439 0.614530 0.155345
O O3 0.727865 0.599807 0.235123
O O4 0.769851 0.591255 0.000000
O O5 0.026223 0.655705 0.500000
O O6 0.000000 0.500000 0.629774
O O7 0.000000 0.663544 0.750000
O O8 0.878706 0.835594 0.624841
O O9 0.897268 0.000000 0.750000
O O10 0.890442 0.838355 0.873542
O O11 0.383745 0.500624 0.500000
O O12 0.495338 0.384795 0.500000
#
# Coordination Sequence:
#
# PCOD9496014 Si02
#       5
#    16  16  16   8   8
#     4  10  21  39  62  84 124 165 205 252 315 392
#     4   9  19  37  61  92 119 157 208 265 312 368
#     4  10  19  32  54  86 109 152 206 249 306 371
#     4   9  18  30  49  82 114 142 187 256 298 345
#     4   9  16  32  51  74 114 150 193 238 288 367
#
# _framework density 24.331012999999999
#
# number of rings (size 3 to 8) (size 9 to 14) (size 15 to 20)
#    0.000    2.500    1.250    0.750    3.500    3.000 
#    2.250    3.125    0.000    0.000    0.000    0.000 
#    0.000    0.000    0.000    0.000    0.000    0.000 
#
# Total GULP energy -178320.911015 kJ/mol
# GULP energy per Si atom -5572.528469 kJ/mol
# Density = 2.427563 g / cm^3
# Si number density = 24.331013 Si / 1000 Ang^3
#
#
#
# Elastic Constant Matrix: (Units=GPa)
#
#
# Indices 1 2 3 4 5 6 
#
# 1 211.8776 20.4432 91.9467 0.0000 0.0000 0.0000
# 2 20.4432 54.1571 3.3630 0.0000 0.0000 0.0000
# 3 91.9467 3.3630 249.9120 0.0000 0.0000 0.0000
# 4 0.0000 0.0000 0.0000 5.0628 0.0000 0.0000
# 5 0.0000 0.0000 0.0000 0.0000 38.1552 0.0000
# 6 0.0000 0.0000 0.0000 0.0000 0.0000 23.8316
#
#
#
# Elastic Compliance Matrix: (Units=1/GPa)
#
#
# Indices 1 2 3 4 5 6 
#
# 1 0.005840 -0.002073 -0.002121 0.000000 0.000000 0.000000
# 2 -0.002073 0.019216 0.000504 0.000000 0.000000 0.000000
# 3 -0.002121 0.000504 0.004775 0.000000 0.000000 0.000000
# 4 0.000000 0.000000 0.000000 0.197520 0.000000 0.000000
# 5 0.000000 0.000000 0.000000 0.000000 0.026209 0.000000
# 6 0.000000 0.000000 0.000000 0.000000 0.000000 0.041961
#
#
# Mechanical properties :
#
#
# Convention : Reuss Voigt Hill
#
# Bulk Modulus (GPa) = 44.53984 83.05029 63.79506
# Shear Modulus (GPa) = 16.10910 40.08950 28.09930
#
# Velocity S-wave (km/s) = 2.57588 4.06355 3.40203
# Velocity P-wave (km/s) = 5.21464 7.49828 6.45820
#
# Compressibility (1/GPa) = 0.02245181
#
# Stress axis : x y z
#
# Youngs Moduli (GPa) = 171.23221 52.04014 209.42922
#
# Poissons Ratio (x) = 0.10787 0.44415
# Poissons Ratio (y) = 0.35493 -0.10556
# Poissons Ratio (z) = 0.36314 -0.02623
#
# Static dielectric constant tensor:
#      x y z
#    x 1.924760 0.000000 0.000000 
#    y 0.000000 2.117330 0.000000 
#    z 0.000000 0.000000 2.069520 
# 
# From -- ./inp_files/15946.got.cif
#   From: 2010.05.17/outbox.cif.g08.bks.cpg/sg66_8_cif.got.tgz:15946.got - 2010.06.03 17:51:23.
