data_PCOD9496109
_publ_section_title
;
Structure prediction by ZEFSAII (Michael W. Deem and Ramdas Pophale) SiO2 
 PCOD9496109
Probable space group: C C C M
;
_chemical_formula_sum "Si O2"
_cell_formula_units_Z 88
_cell_length_a 9.510344
_cell_length_b 15.790530
_cell_length_c 32.413498
_cell_angle_alpha 90.000000
_cell_angle_beta 90.000000
_cell_angle_gamma 90.000000
_cell_volume 4867.644301
_symmetry_space_group_name_H-M "C C C M"
_symmetry_group_IT_number 66
_symmetry_cell_setting 'orthorhombic'
loop_
_space_group_symop_operation_xyz
x,y,z
-x,-y,z
x,-y,1/2-z
-x,y,1/2-z
-x,-y,-z
x,y,-z
-x,y,1/2+z
x,-y,1/2+z
1/2+x,1/2+y,z
1/2-x,1/2-y,z
1/2+x,1/2-y,1/2-z
1/2-x,1/2+y,1/2-z
1/2-x,1/2-y,-z
1/2+x,1/2+y,-z
1/2-x,1/2+y,1/2+z
1/2+x,1/2-y,1/2+z
loop_
_atom_site_type_symbol
_atom_site_label
_atom_site_fract_x
_atom_site_fract_y
_atom_site_fract_z
Si Si1 0.166604 0.165655 0.705818
Si Si2 0.330535 0.493765 0.350178
Si Si3 0.832948 0.165930 0.303344
Si Si4 0.215371 0.404045 0.000000
Si Si5 0.245317 0.445163 0.559529
Si Si6 0.039657 0.869417 0.000000
Si Si7 0.422824 0.825480 0.000000
O O1 0.250000 0.250000 0.693065
O O2 0.203706 0.079657 0.682469
O O3 0.194174 0.151684 0.754521
O O4 0.001402 0.179384 0.696114
O O5 0.500000 0.500000 0.356279
O O6 0.292075 0.585148 0.331048
O O7 0.260056 0.463040 0.392525
O O8 0.750000 0.250000 0.316204
O O9 0.200326 0.467017 0.961355
O O10 0.372753 0.369220 0.000000
O O11 0.089638 0.338987 0.000000
O O12 0.395103 0.417902 0.539398
O O13 0.142843 0.373535 0.539980
O O14 0.099243 0.774521 0.000000
#
# Coordination Sequence:
#
# PCOD9496109 Si02
#       7
#    16  16  16   8  16   8   8
#     4   9  18  33  55  80 106 140 178 219 262 311
#     4  10  19  33  55  80 105 141 181 218 259 311
#     4   9  18  35  55  77 107 140 179 220 262 310
#     4  10  19  36  55  74 102 136 170 208 257 314
#     4  10  19  35  53  74 104 138 172 210 257 311
#     4  10  19  34  57  78  98 134 176 214 255 312
#     4  10  21  36  55  78 104 134 168 214 267 314
#
# _framework density 18.078558999999998
#
# number of rings (size 3 to 8) (size 9 to 14) (size 15 to 20)
#    0.000    2.545    0.000    5.182    0.000    3.636 
#    0.000   10.000    0.000    4.364    0.000    0.000 
#    0.000    0.000    0.000    0.000    0.000    0.000 
#
# Total GULP energy -245221.203833 kJ/mol
# GULP energy per Si atom -5573.209178 kJ/mol
# Density = 1.803741 g / cm^3
# Si number density = 18.078559 Si / 1000 Ang^3
#
#
#
# Elastic Constant Matrix: (Units=GPa)
#
#
# Indices 1 2 3 4 5 6 
#
# 1 44.2293 24.7220 23.3920 0.0000 0.0000 0.0000
# 2 24.7220 142.8882 70.6973 0.0000 0.0000 0.0000
# 3 23.3920 70.6973 93.8610 0.0000 0.0000 0.0000
# 4 0.0000 0.0000 0.0000 9.4327 0.0000 0.0000
# 5 0.0000 0.0000 0.0000 0.0000 -71.8508 0.0000
# 6 0.0000 0.0000 0.0000 0.0000 0.0000 28.7159
#
#
#
# Elastic Compliance Matrix: (Units=1/GPa)
#
#
# Indices 1 2 3 4 5 6 
#
# 1 0.026429 -0.002094 -0.005009 0.000000 0.000000 0.000000
# 2 -0.002094 0.011322 -0.008006 0.000000 0.000000 0.000000
# 3 -0.005009 -0.008006 0.017933 0.000000 0.000000 0.000000
# 4 0.000000 0.000000 0.000000 0.106014 0.000000 0.000000
# 5 0.000000 0.000000 0.000000 0.000000 -0.013918 0.000000
# 6 0.000000 0.000000 0.000000 0.000000 0.000000 0.034824
#
#
# Mechanical properties :
#
#
# Convention : Reuss Voigt Hill
#
# Bulk Modulus (GPa) = 39.26954 57.62233 48.44594
# Shear Modulus (GPa) = 22.59257 4.07071 13.33164
#
# Velocity S-wave (km/s) = 3.53893 1.50219 2.71851
# Velocity P-wave (km/s) = 6.20221 5.91196 6.05882
#
# Compressibility (1/GPa) = 0.02546503
#
# Stress axis : x y z
#
# Youngs Moduli (GPa) = 37.83673 88.32426 55.76435
#
# Poissons Ratio (x) = 0.18497 0.27934
# Poissons Ratio (y) = 0.07924 0.44644
# Poissons Ratio (z) = 0.18954 0.70711
#
# Static dielectric constant tensor:
#      x y z
#    x 1.648650 0.000000 0.000000 
#    y 0.000000 1.594810 0.000000 
#    z 0.000000 0.000000 1.621730 
# 
# From -- ./inp_files/68213.got.cif
#   From: 2010.05.17/outbox.cif.g08.bks.cpg/sg66_35_cif.got.tgz:68213.got - 2010.06.03 17:51:23.
