data_PCOD9496204
_publ_section_title
;
Structure prediction by ZEFSAII (Michael W. Deem and Ramdas Pophale) SiO2 
 PCOD9496204
Probable space group: C C C M
;
_chemical_formula_sum "Si O2"
_cell_formula_units_Z 80
_cell_length_a 17.734600
_cell_length_b 19.562451
_cell_length_c 11.669832
_cell_angle_alpha 90.000000
_cell_angle_beta 90.000000
_cell_angle_gamma 90.000000
_cell_volume 4048.640997
_symmetry_space_group_name_H-M "C C C M"
_symmetry_group_IT_number 66
_symmetry_cell_setting 'orthorhombic'
loop_
_space_group_symop_operation_xyz
x,y,z
-x,-y,z
x,-y,1/2-z
-x,y,1/2-z
-x,-y,-z
x,y,-z
-x,y,1/2+z
x,-y,1/2+z
1/2+x,1/2+y,z
1/2-x,1/2-y,z
1/2+x,1/2-y,1/2-z
1/2-x,1/2+y,1/2-z
1/2-x,1/2-y,-z
1/2+x,1/2+y,-z
1/2-x,1/2+y,1/2+z
1/2+x,1/2-y,1/2+z
loop_
_atom_site_type_symbol
_atom_site_label
_atom_site_fract_x
_atom_site_fract_y
_atom_site_fract_z
Si Si1 0.587102 0.316385 0.738138
Si Si2 0.619771 0.154554 0.744252
Si Si3 0.416429 0.029802 0.629441
Si Si4 0.663608 0.157328 0.500000
Si Si5 0.231666 0.831215 0.126475
Si Si6 0.163068 0.175662 0.000000
O O1 0.500000 0.334683 0.750000
O O2 0.595259 0.233545 0.746605
O O3 0.646606 0.342246 0.832543
O O4 0.619026 0.340497 0.615965
O O5 0.576141 0.109678 0.836397
O O6 0.619834 0.132768 0.612109
O O7 0.706919 0.145288 0.782340
O O8 0.383140 0.022145 0.500000
O O9 0.500000 0.000000 0.624461
O O10 0.380849 0.000000 0.750000
O O11 0.753279 0.143333 0.500000
O O12 0.665830 0.240738 0.500000
O O13 0.250000 0.750000 0.121216
O O14 0.244743 0.859687 0.000000
#
# Coordination Sequence:
#
# PCOD9496204 Si02
#       6
#    16  16  16   8  16   8
#     4  10  20  29  45  74 105 136 171 217 265 320
#     4  10  19  34  53  70  96 141 184 220 266 317
#     4  10  23  40  54  72 101 134 178 233 275 311
#     4   9  16  30  55  70  92 135 188 221 263 313
#     4   9  17  30  47  67  93 129 174 215 256 313
#     4   9  16  32  44  70 103 133 175 225 255 317
#
# _framework density 19.759717999999999
#
# number of rings (size 3 to 8) (size 9 to 14) (size 15 to 20)
#    0.000    2.400    2.000    0.600    5.600    0.800 
#    0.000    0.000    0.000    0.000    0.000    0.000 
#    0.000    0.800    0.000    5.600    0.000    0.400 
#
# Total GULP energy -222822.134581 kJ/mol
# GULP energy per Si atom -5570.553365 kJ/mol
# Density = 1.971474 g / cm^3
# Si number density = 19.759718 Si / 1000 Ang^3
#
#
#
# Elastic Constant Matrix: (Units=GPa)
#
#
# Indices 1 2 3 4 5 6 
#
# 1 108.0833 -8.1399 15.1441 0.0000 0.0000 0.0000
# 2 -8.1399 19.5092 8.0315 0.0000 0.0000 0.0000
# 3 15.1441 8.0315 143.0096 0.0000 0.0000 0.0000
# 4 0.0000 0.0000 0.0000 0.0098 0.0000 0.0000
# 5 0.0000 0.0000 0.0000 0.0000 15.6777 0.0000
# 6 0.0000 0.0000 0.0000 0.0000 0.0000 14.8905
#
#
#
# Elastic Compliance Matrix: (Units=1/GPa)
#
#
# Indices 1 2 3 4 5 6 
#
# 1 0.009781 0.004614 -0.001295 0.000000 0.000000 0.000000
# 2 0.004614 0.054648 -0.003558 0.000000 0.000000 0.000000
# 3 -0.001295 -0.003558 0.007329 0.000000 0.000000 0.000000
# 4 0.000000 0.000000 0.000000101.847399 0.000000 0.000000
# 5 0.000000 0.000000 0.000000 0.000000 0.063785 0.000000
# 6 0.000000 0.000000 0.000000 0.000000 0.000000 0.067157
#
#
# Mechanical properties :
#
#
# Convention : Reuss Voigt Hill
#
# Bulk Modulus (GPa) = 14.02893 33.40817 23.71855
# Shear Modulus (GPa) = 0.04898 23.15336 11.60117
#
# Velocity S-wave (km/s) = 0.15762 3.42679 2.42567
# Velocity P-wave (km/s) = 2.67363 5.70974 4.45811
#
# Compressibility (1/GPa) = 0.07128125
#
# Stress axis : x y z
#
# Youngs Moduli (GPa) = 102.23846 18.29903 136.43560
#
# Poissons Ratio (x) = -0.08443 0.17667
# Poissons Ratio (y) = -0.47174 0.48539
# Poissons Ratio (z) = 0.13239 0.06510
#
# Static dielectric constant tensor:
#      x y z
#    x 1.706570 0.000000 0.000000 
#    y 0.000000 1.743410 0.000000 
#    z 0.000000 0.000000 1.741980 
# 
# From -- ./inp_files/17613.got.cif
#   From: 2010.05.17/outbox.cif.g08.bks.cpg/sg66_9_cif.got.tgz:17613.got - 2010.06.03 17:51:23.
