data_PCOD9496862
_publ_section_title
;
Structure prediction by ZEFSAII (Michael W. Deem and Ramdas Pophale) SiO2 
 PCOD9496862
Probable space group: C C C M
;
_chemical_formula_sum "Si O2"
_cell_formula_units_Z 64
_cell_length_a 9.225004
_cell_length_b 12.300097
_cell_length_c 22.658761
_cell_angle_alpha 90.000000
_cell_angle_beta 90.000000
_cell_angle_gamma 90.000000
_cell_volume 2571.054354
_symmetry_space_group_name_H-M "C C C M"
_symmetry_group_IT_number 66
_symmetry_cell_setting 'orthorhombic'
loop_
_space_group_symop_operation_xyz
x,y,z
-x,-y,z
x,-y,1/2-z
-x,y,1/2-z
-x,-y,-z
x,y,-z
-x,y,1/2+z
x,-y,1/2+z
1/2+x,1/2+y,z
1/2-x,1/2-y,z
1/2+x,1/2-y,1/2-z
1/2-x,1/2+y,1/2-z
1/2-x,1/2-y,-z
1/2+x,1/2+y,-z
1/2-x,1/2+y,1/2+z
1/2+x,1/2-y,1/2+z
loop_
_atom_site_type_symbol
_atom_site_label
_atom_site_fract_x
_atom_site_fract_y
_atom_site_fract_z
Si Si1 0.371234 0.907258 0.157848
Si Si2 0.216918 0.901625 0.605609
Si Si3 0.339996 0.628379 0.259852
Si Si4 0.512923 0.237844 0.564911
O O1 0.296412 0.859118 0.216091
O O2 0.421051 0.806476 0.118827
O O3 0.500000 0.000000 0.168581
O O4 0.256136 0.973859 0.117457
O O5 0.205492 0.857263 0.672676
O O6 0.347088 0.842899 0.570802
O O7 0.071724 0.859407 0.575052
O O8 0.360089 0.500000 0.250000
O O9 0.500000 0.677297 0.250000
O O10 0.448834 0.225603 0.500000
#
# Coordination Sequence:
#
# PCOD9496862 Si02
#       4
#    16  16  16  16
#     4   9  19  34  59  87 119 160 216 269 331 394
#     4   9  18  33  52  81 118 160 205 262 333 384
#     4   9  18  35  57  82 118 157 199 258 332 407
#     4  10  20  34  53  85 122 159 216 269 317 391
#
# _framework density 24.892512
#
# number of rings (size 3 to 8) (size 9 to 14) (size 15 to 20)
#    0.000    2.750    0.000    1.500    0.000   17.000 
#    9.000    0.000    0.000    4.500    0.000   26.250 
#    0.000    0.000    0.000    0.000    0.000    0.000 
#
# Total GULP energy -178586.980985 kJ/mol
# GULP energy per Si atom -5580.843156 kJ/mol
# Density = 2.483586 g / cm^3
# Si number density = 24.892512 Si / 1000 Ang^3
#
#
#
# Elastic Constant Matrix: (Units=GPa)
#
#
# Indices 1 2 3 4 5 6 
#
# 1 99.3779 26.7034 50.0559 0.0000 0.0000 0.0000
# 2 26.7034 57.0038 -17.6696 0.0000 0.0000 0.0000
# 3 50.0559 -17.6696 150.6598 0.0000 0.0000 0.0000
# 4 0.0000 0.0000 0.0000 34.0049 0.0000 0.0000
# 5 0.0000 0.0000 0.0000 0.0000 -163.8410 0.0000
# 6 0.0000 0.0000 0.0000 0.0000 0.0000 44.2653
#
#
#
# Elastic Compliance Matrix: (Units=1/GPa)
#
#
# Indices 1 2 3 4 5 6 
#
# 1 0.015765 -0.009349 -0.006334 0.000000 0.000000 0.000000
# 2 -0.009349 0.023748 0.005891 0.000000 0.000000 0.000000
# 3 -0.006334 0.005891 0.009433 0.000000 0.000000 0.000000
# 4 0.000000 0.000000 0.000000 0.029407 0.000000 0.000000
# 5 0.000000 0.000000 0.000000 0.000000 -0.006103 0.000000
# 6 0.000000 0.000000 0.000000 0.000000 0.000000 0.022591
#
#
# Mechanical properties :
#
#
# Convention : Reuss Voigt Hill
#
# Bulk Modulus (GPa) = 34.05660 47.24677 40.65169
# Shear Modulus (GPa) = 40.25360 -0.58402 19.83479
#
# Velocity S-wave (km/s) = 4.02568 -0.48490 2.82586
# Velocity P-wave (km/s) = 5.94300 4.32528 5.19746
#
# Compressibility (1/GPa) = 0.02936288
#
# Stress axis : x y z
#
# Youngs Moduli (GPa) = 63.43086 42.10847 106.01140
#
# Poissons Ratio (x) = 0.39366 0.67151
# Poissons Ratio (y) = 0.59299 -0.62454
# Poissons Ratio (z) = 0.40179 -0.24807
#
# Static dielectric constant tensor:
#      x y z
#    x 1.956350 0.000000 0.000000 
#    y 0.000000 2.065700 0.000000 
#    z 0.000000 0.000000 1.876900 
# 
# From -- ./inp_files/54985.got.cif
#   From: 2010.05.17/outbox.cif.g08.bks.cpg/sg66_28_cif.got.tgz:54985.got - 2010.06.03 17:51:23.
