data_PCOD9496900
_publ_section_title
;
Structure prediction by ZEFSAII (Michael W. Deem and Ramdas Pophale) SiO2 
 PCOD9496900
Probable space group: C C C M
;
_chemical_formula_sum "Si O2"
_cell_formula_units_Z 68
_cell_length_a 16.092062
_cell_length_b 9.258713
_cell_length_c 21.190443
_cell_angle_alpha 90.000000
_cell_angle_beta 90.000000
_cell_angle_gamma 90.000000
_cell_volume 3157.201899
_symmetry_space_group_name_H-M "C C C M"
_symmetry_group_IT_number 66
_symmetry_cell_setting 'orthorhombic'
loop_
_space_group_symop_operation_xyz
x,y,z
-x,-y,z
x,-y,1/2-z
-x,y,1/2-z
-x,-y,-z
x,y,-z
-x,y,1/2+z
x,-y,1/2+z
1/2+x,1/2+y,z
1/2-x,1/2-y,z
1/2+x,1/2-y,1/2-z
1/2-x,1/2+y,1/2-z
1/2-x,1/2-y,-z
1/2+x,1/2+y,-z
1/2-x,1/2+y,1/2+z
1/2+x,1/2-y,1/2+z
loop_
_atom_site_type_symbol
_atom_site_label
_atom_site_fract_x
_atom_site_fract_y
_atom_site_fract_z
Si Si1 0.583012 0.407943 0.930016
Si Si2 0.750000 0.750000 0.500000
Si Si3 0.659068 0.423025 0.314127
Si Si4 0.360109 0.091775 0.188401
Si Si5 0.890677 0.590551 0.568512
O O1 0.500000 0.500000 0.936489
O O2 0.632673 0.484540 0.874747
O O3 0.562203 0.240999 0.917626
O O4 0.628493 0.402102 0.000000
O O5 0.798084 0.651718 0.555208
O O6 0.631771 0.500000 0.250000
O O7 0.759255 0.415799 0.313684
O O8 0.621846 0.261920 0.312431
O O9 0.386492 0.000000 0.250000
O O10 0.394452 0.017359 0.125688
O O11 0.914789 0.528870 0.500000
#
# Coordination Sequence:
#
# PCOD9496900 Si02
#       5
#    16   4  16  16  16
#     4  10  21  37  56  78 107 149 191 226 272 333
#     4   8  16  28  54  82 106 148 174 226 284 336
#     4  10  21  35  54  81 112 146 181 233 286 340
#     4  10  20  34  55  84 113 141 181 234 293 341
#     4   9  18  32  54  80 109 145 183 226 280 336
#
# _framework density 21.538060000000002
#
# number of rings (size 3 to 8) (size 9 to 14) (size 15 to 20)
#    0.706    1.647    0.000    2.824    0.000    5.176 
#    0.000    3.529    0.000    5.647    0.000    0.000 
#    0.000    0.000    0.000    0.000    0.000    0.000 
#
# Total GULP energy -189318.076106 kJ/mol
# GULP energy per Si atom -5568.178709 kJ/mol
# Density = 2.148904 g / cm^3
# Si number density = 21.538060 Si / 1000 Ang^3
#
#
#
# Elastic Constant Matrix: (Units=GPa)
#
#
# Indices 1 2 3 4 5 6 
#
# 1 30.8502 12.2439 21.5126 0.0000 0.0000 0.0000
# 2 12.2439 161.1957 133.6189 0.0000 0.0000 0.0000
# 3 21.5126 133.6189 210.8374 0.0000 0.0000 0.0000
# 4 0.0000 0.0000 0.0000 50.6403 0.0000 0.0000
# 5 0.0000 0.0000 0.0000 0.0000 -203.4731 0.0000
# 6 0.0000 0.0000 0.0000 0.0000 0.0000 21.8021
#
#
#
# Elastic Compliance Matrix: (Units=1/GPa)
#
#
# Indices 1 2 3 4 5 6 
#
# 1 0.034929 0.000634 -0.003966 0.000000 0.000000 0.000000
# 2 0.000634 0.013081 -0.008355 0.000000 0.000000 0.000000
# 3 -0.003966 -0.008355 0.010443 0.000000 0.000000 0.000000
# 4 0.000000 0.000000 0.000000 0.019747 0.000000 0.000000
# 5 0.000000 0.000000 0.000000 0.000000 -0.004915 0.000000
# 6 0.000000 0.000000 0.000000 0.000000 0.000000 0.045867
#
#
# Mechanical properties :
#
#
# Convention : Reuss Voigt Hill
#
# Bulk Modulus (GPa) = 28.50684 81.95934 55.23309
# Shear Modulus (GPa) = 32.42173 -10.50562 10.95805
#
# Velocity S-wave (km/s) = 3.88406 -2.21095 2.25805
# Velocity P-wave (km/s) = 5.77744 5.62300 5.70074
#
# Compressibility (1/GPa) = 0.03507930
#
# Stress axis : x y z
#
# Youngs Moduli (GPa) = 28.62989 76.44689 95.76189
#
# Poissons Ratio (x) = -0.04850 0.37979
# Poissons Ratio (y) = -0.01816 0.80008
# Poissons Ratio (z) = 0.11355 0.63870
#
# Static dielectric constant tensor:
#      x y z
#    x 1.682330 0.000000 0.000000 
#    y 0.000000 1.746470 0.000000 
#    z 0.000000 0.000000 1.766600 
# 
# From -- ./inp_files/42494.got.cif
#   From: 2010.05.17/outbox.cif.g08.bks.cpg/sg66_22_cif.got.tgz:42494.got - 2010.06.03 17:51:23.
