data_PCOD9496749
_publ_section_title
;
Structure prediction by ZEFSAII (Michael W. Deem and Ramdas Pophale) SiO2 
 PCOD9496749
Probable space group: C C C M
;
_chemical_formula_sum "Si O2"
_cell_formula_units_Z 96
_cell_length_a 25.696330
_cell_length_b 14.727137
_cell_length_c 14.760732
_cell_angle_alpha 90.000000
_cell_angle_beta 90.000000
_cell_angle_gamma 90.000000
_cell_volume 5585.953588
_symmetry_space_group_name_H-M "C C C M"
_symmetry_group_IT_number 66
_symmetry_cell_setting 'orthorhombic'
loop_
_space_group_symop_operation_xyz
x,y,z
-x,-y,z
x,-y,1/2-z
-x,y,1/2-z
-x,-y,-z
x,y,-z
-x,y,1/2+z
x,-y,1/2+z
1/2+x,1/2+y,z
1/2-x,1/2-y,z
1/2+x,1/2-y,1/2-z
1/2-x,1/2+y,1/2-z
1/2-x,1/2-y,-z
1/2+x,1/2+y,-z
1/2-x,1/2+y,1/2+z
1/2+x,1/2-y,1/2+z
loop_
_atom_site_type_symbol
_atom_site_label
_atom_site_fract_x
_atom_site_fract_y
_atom_site_fract_z
Si Si1 0.436397 0.599876 0.107266
Si Si2 0.663096 0.905046 0.199781
Si Si3 0.799599 0.136022 0.500000
Si Si4 0.059996 0.108065 0.107856
Si Si5 0.711974 0.591354 0.197754
Si Si6 0.375874 0.282438 0.252403
Si Si7 0.674111 0.843108 0.000000
O O1 0.497931 0.615815 0.122907
O O2 0.425468 0.495383 0.134890
O O3 0.402965 0.672529 0.161328
O O4 0.427342 0.605731 0.000000
O O5 0.726053 0.893985 0.204184
O O6 0.632215 0.824685 0.249484
O O7 0.651390 0.000000 0.250000
O O8 0.652864 0.889569 0.091801
O O9 0.808006 0.085210 0.405855
O O10 0.736952 0.148467 0.500000
O O11 0.829206 0.232944 0.500000
O O12 0.090234 0.180479 0.167902
O O13 0.069183 0.117180 0.000000
O O14 0.698994 0.500000 0.250000
O O15 0.681240 0.674843 0.240161
#
# Coordination Sequence:
#
# PCOD9496749 Si02
#       7
#    16  16   8  16  16  16   8
#     4   9  19  37  52  77 116 143 163 205 271 329
#     4  10  22  37  52  75 107 142 181 224 268 304
#     4   9  16  30  54  75  99 136 175 221 262 297
#     4   9  19  33  56  83 109 136 169 212 263 328
#     4  10  20  33  51  80 113 140 171 218 266 312
#     4  12  20  31  55  81 103 139 180 219 253 314
#     4   9  16  34  56  69  95 137 182 227 261 298
#
# _framework density 17.185963000000001
#
# number of rings (size 3 to 8) (size 9 to 14) (size 15 to 20)
#    0.000    2.167    1.667    3.500    2.333    1.333 
#    3.000    0.000    0.000    3.000    0.000    2.333 
#    0.000    0.000    0.000    0.000    0.000    0.000 
#
# Total GULP energy -267740.392864 kJ/mol
# GULP energy per Si atom -5577.924851 kJ/mol
# Density = 1.714685 g / cm^3
# Si number density = 17.185963 Si / 1000 Ang^3
#
#
#
# Elastic Constant Matrix: (Units=GPa)
#
#
# Indices 1 2 3 4 5 6 
#
# 1 45.0163 45.8908 29.4242 0.0000 0.0000 0.0000
# 2 45.8908 147.8083 74.3886 0.0000 0.0000 0.0000
# 3 29.4242 74.3886 109.0393 0.0000 0.0000 0.0000
# 4 0.0000 0.0000 0.0000 7.3137 0.0000 0.0000
# 5 0.0000 0.0000 0.0000 0.0000 20.0122 0.0000
# 6 0.0000 0.0000 0.0000 0.0000 0.0000 23.8212
#
#
#
# Elastic Compliance Matrix: (Units=1/GPa)
#
#
# Indices 1 2 3 4 5 6 
#
# 1 0.033103 -0.008805 -0.002926 0.000000 0.000000 0.000000
# 2 -0.008805 0.012645 -0.006251 0.000000 0.000000 0.000000
# 3 -0.002926 -0.006251 0.014225 0.000000 0.000000 0.000000
# 4 0.000000 0.000000 0.000000 0.136730 0.000000 0.000000
# 5 0.000000 0.000000 0.000000 0.000000 0.049969 0.000000
# 6 0.000000 0.000000 0.000000 0.000000 0.000000 0.041979
#
#
# Mechanical properties :
#
#
# Convention : Reuss Voigt Hill
#
# Bulk Modulus (GPa) = 41.65002 66.80790 54.22896
# Shear Modulus (GPa) = 15.03230 20.37345 17.70288
#
# Velocity S-wave (km/s) = 2.96072 3.44680 3.21296
# Velocity P-wave (km/s) = 5.99794 7.40260 6.73698
#
# Compressibility (1/GPa) = 0.02400959
#
# Stress axis : x y z
#
# Youngs Moduli (GPa) = 30.20910 79.08200 70.29956
#
# Poissons Ratio (x) = 0.69632 0.20568
# Poissons Ratio (y) = 0.26599 0.43942
# Poissons Ratio (z) = 0.08838 0.49432
#
# Static dielectric constant tensor:
#      x y z
#    x 1.601310 0.000000 0.000000 
#    y 0.000000 1.573850 0.000000 
#    z 0.000000 0.000000 1.614310 
# 
# From -- ./inp_files/33277.got.cif
#   From: 2010.05.17/outbox.cif.g08.bks.cpg/sg66_17_cif.got.tgz:33277.got - 2010.06.03 17:51:23.
