data_PCOD9496437
_publ_section_title
;
Structure prediction by ZEFSAII (Michael W. Deem and Ramdas Pophale) SiO2 
 PCOD9496437
Probable space group: C C C M
;
_chemical_formula_sum "Si O2"
_cell_formula_units_Z 116
_cell_length_a 17.914027
_cell_length_b 28.139419
_cell_length_c 14.243281
_cell_angle_alpha 90.000000
_cell_angle_beta 90.000000
_cell_angle_gamma 90.000000
_cell_volume 7179.899959
_symmetry_space_group_name_H-M "C C C M"
_symmetry_group_IT_number 66
_symmetry_cell_setting 'orthorhombic'
loop_
_space_group_symop_operation_xyz
x,y,z
-x,-y,z
x,-y,1/2-z
-x,y,1/2-z
-x,-y,-z
x,y,-z
-x,y,1/2+z
x,-y,1/2+z
1/2+x,1/2+y,z
1/2-x,1/2-y,z
1/2+x,1/2-y,1/2-z
1/2-x,1/2+y,1/2-z
1/2-x,1/2-y,-z
1/2+x,1/2+y,-z
1/2-x,1/2+y,1/2+z
1/2+x,1/2-y,1/2+z
loop_
_atom_site_type_symbol
_atom_site_label
_atom_site_fract_x
_atom_site_fract_y
_atom_site_fract_z
Si Si1 0.140124 0.404993 0.112517
Si Si2 0.000000 0.500000 0.750000
Si Si3 0.516085 0.137454 0.112051
Si Si4 0.872980 0.234267 0.723385
Si Si5 0.770394 0.328233 0.274444
Si Si6 0.982538 0.750113 0.610587
Si Si7 0.372920 0.015062 0.611039
Si Si8 0.684324 0.112020 0.889611
O O1 0.057460 0.389332 0.147541
O O2 0.200129 0.369954 0.158028
O O3 0.150678 0.460970 0.131616
O O4 0.142073 0.399006 0.000000
O O5 0.943743 0.525223 0.677242
O O6 0.510205 0.193542 0.129201
O O7 0.598946 0.122949 0.140268
O O8 0.515153 0.129549 0.000000
O O9 0.830647 0.285268 0.721420
O O10 0.809310 0.195331 0.706410
O O11 0.915864 0.231246 0.823387
O O12 0.938229 0.230382 0.646408
O O13 0.767376 0.353124 0.172763
O O14 0.970041 0.757367 0.500000
O O15 0.394178 0.017890 0.500000
O O16 0.310684 0.055364 0.626431
O O17 0.692900 0.121432 0.000000
#
# Coordination Sequence:
#
# PCOD9496437 Si02
#       8
#    16   4  16  16  16  16  16  16
#     4  10  20  33  48  68  98 133 170 207 241 281
#     4  12  18  28  44  62  92 132 170 214 244 254
#     4   9  16  27  45  66  90 131 171 198 230 268
#     4  10  22  34  50  74  95 125 166 205 245 291
#     4  11  21  33  49  72 100 126 162 206 246 292
#     4  10  19  36  54  69  94 129 167 205 243 284
#     4  10  21  33  45  66  95 131 173 208 239 282
#     4  10  20  33  48  68  98 133 170 207 241 281
#
# _framework density 16.156213999999999
#
# number of rings (size 3 to 8) (size 9 to 14) (size 15 to 20)
#    0.000    1.931    2.759    1.862    0.000    3.862 
#    0.000    2.759    0.000    0.000    0.000    0.000 
#    0.000    8.828    0.000   24.828    0.000    0.000 
#
# Total GULP energy -323461.591745 kJ/mol
# GULP energy per Si atom -5576.923996 kJ/mol
# Density = 1.611944 g / cm^3
# Si number density = 16.156214 Si / 1000 Ang^3
#
#
#
# Elastic Constant Matrix: (Units=GPa)
#
#
# Indices 1 2 3 4 5 6 
#
# 1 67.0817 32.7032 9.3395 0.0000 0.0000 0.0000
# 2 32.7032 77.5709 14.0114 0.0000 0.0000 0.0000
# 3 9.3395 14.0114 57.4970 0.0000 0.0000 0.0000
# 4 0.0000 0.0000 0.0000 20.6787 0.0000 0.0000
# 5 0.0000 0.0000 0.0000 0.0000 14.7069 0.0000
# 6 0.0000 0.0000 0.0000 0.0000 0.0000 14.3157
#
#
#
# Elastic Compliance Matrix: (Units=1/GPa)
#
#
# Indices 1 2 3 4 5 6 
#
# 1 0.018840 -0.007730 -0.001176 0.000000 0.000000 0.000000
# 2 -0.007730 0.016657 -0.002803 0.000000 0.000000 0.000000
# 3 -0.001176 -0.002803 0.018266 0.000000 0.000000 0.000000
# 4 0.000000 0.000000 0.000000 0.048359 0.000000 0.000000
# 5 0.000000 0.000000 0.000000 0.000000 0.067996 0.000000
# 6 0.000000 0.000000 0.000000 0.000000 0.000000 0.069853
#
#
# Mechanical properties :
#
#
# Convention : Reuss Voigt Hill
#
# Bulk Modulus (GPa) = 32.95678 34.91756 33.93717
# Shear Modulus (GPa) = 18.28122 19.67994 18.98058
#
# Velocity S-wave (km/s) = 3.36747 3.49392 3.43128
# Velocity P-wave (km/s) = 5.96346 6.15922 6.06213
#
# Compressibility (1/GPa) = 0.03034277
#
# Stress axis : x y z
#
# Youngs Moduli (GPa) = 53.07996 60.03575 54.74507
#
# Poissons Ratio (x) = 0.46408 0.06441
# Poissons Ratio (y) = 0.41031 0.15347
# Poissons Ratio (z) = 0.06245 0.16831
#
# Static dielectric constant tensor:
#      x y z
#    x 1.490820 0.000000 0.000000 
#    y 0.000000 1.567900 0.000000 
#    z 0.000000 0.000000 1.596870 
# 
# From -- ./inp_files/30452.got.cif
#   From: 2010.05.17/outbox.cif.g08.bks.cpg/sg66_16_cif.got.tgz:30452.got - 2010.06.03 17:51:23.
