data_PCOD9496190
_publ_section_title
;
Structure prediction by ZEFSAII (Michael W. Deem and Ramdas Pophale) SiO2 
 PCOD9496190
Probable space group: C C C M
;
_chemical_formula_sum "Si O2"
_cell_formula_units_Z 76
_cell_length_a 7.083360
_cell_length_b 25.286457
_cell_length_c 16.847759
_cell_angle_alpha 90.000000
_cell_angle_beta 90.000000
_cell_angle_gamma 90.000000
_cell_volume 3017.653973
_symmetry_space_group_name_H-M "C C C M"
_symmetry_group_IT_number 66
_symmetry_cell_setting 'orthorhombic'
loop_
_space_group_symop_operation_xyz
x,y,z
-x,-y,z
x,-y,1/2-z
-x,y,1/2-z
-x,-y,-z
x,y,-z
-x,y,1/2+z
x,-y,1/2+z
1/2+x,1/2+y,z
1/2-x,1/2-y,z
1/2+x,1/2-y,1/2-z
1/2-x,1/2+y,1/2-z
1/2-x,1/2-y,-z
1/2+x,1/2+y,-z
1/2-x,1/2+y,1/2+z
1/2+x,1/2-y,1/2+z
loop_
_atom_site_type_symbol
_atom_site_label
_atom_site_fract_x
_atom_site_fract_y
_atom_site_fract_z
Si Si1 0.778421 0.169496 0.408008
Si Si2 0.170133 0.324629 0.634095
Si Si3 0.281553 0.058511 0.338728
Si Si4 0.250000 0.250000 0.780522
Si Si5 0.250000 0.750000 0.000000
Si Si6 0.238077 0.444725 0.152594
O O1 0.813071 0.183131 0.500000
O O2 0.549540 0.174449 0.393594
O O3 0.858720 0.211309 0.343252
O O4 0.815150 0.107563 0.389624
O O5 0.258489 0.382675 0.634478
O O6 0.178481 0.294543 0.718162
O O7 0.281841 0.293539 0.568735
O O8 0.222313 0.057570 0.246503
O O9 0.509424 0.057069 0.347966
O O10 0.210535 0.003742 0.376508
#
# Coordination Sequence:
#
# PCOD9496190 Si02
#       6
#    16  16  16   8   4  16
#     4  11  20  33  47  74 105 132 161 208 253 288
#     4  10  19  34  49  68 100 133 170 202 240 289
#     4   8  13  26  46  65  92 126 164 186 227 296
#     4  11  21  31  51  66  94 140 175 193 243 297
#     4  10  20  32  46  72  94 134 166 214 232 286
#     4   8  14  25  44  68  91 128 157 189 231 299
#
# _framework density 25.185129
#
# number of rings (size 3 to 8) (size 9 to 14) (size 15 to 20)
#    0.000    2.526    3.158    2.211    0.000    0.000 
#    1.895    2.105    0.000    0.000    0.000    0.000 
#    0.000   30.316    0.000    0.000    0.000    0.000 
#
# Total GULP energy -211598.886428 kJ/mol
# GULP energy per Si atom -5568.391748 kJ/mol
# Density = 2.512781 g / cm^3
# Si number density = 25.185129 Si / 1000 Ang^3
#
#
#
# Elastic Constant Matrix: (Units=GPa)
#
#
# Indices 1 2 3 4 5 6 
#
# 1 115.4941 8.1915 23.6389 0.0000 0.0000 0.0000
# 2 8.1915 277.9595 102.5010 0.0000 0.0000 0.0000
# 3 23.6389 102.5010 172.6048 0.0000 0.0000 0.0000
# 4 0.0000 0.0000 0.0000 45.9907 0.0000 0.0000
# 5 0.0000 0.0000 0.0000 0.0000 0.1400 0.0000
# 6 0.0000 0.0000 0.0000 0.0000 0.0000 -1.2280
#
#
#
# Elastic Compliance Matrix: (Units=1/GPa)
#
#
# Indices 1 2 3 4 5 6 
#
# 1 0.008921 0.000240 -0.001364 0.000000 0.000000 0.000000
# 2 0.000240 0.004613 -0.002772 0.000000 0.000000 0.000000
# 3 -0.001364 -0.002772 0.007627 0.000000 0.000000 0.000000
# 4 0.000000 0.000000 0.000000 0.021744 0.000000 0.000000
# 5 0.000000 0.000000 0.000000 0.000000 7.140596 0.000000
# 6 0.000000 0.000000 0.000000 0.000000 0.000000 -0.814345
#
#
# Mechanical properties :
#
#
# Convention : Reuss Voigt Hill
#
# Bulk Modulus (GPa) = 74.80836 92.74680 83.77758
# Shear Modulus (GPa) = 0.78353 37.76236 19.27295
#
# Velocity S-wave (km/s) = 0.55837 3.87640 2.76932
# Velocity P-wave (km/s) = 5.49396 7.54594 6.60018
#
# Compressibility (1/GPa) = 0.01336749
#
# Stress axis : x y z
#
# Youngs Moduli (GPa) = 112.09918 216.78511 131.11787
#
# Poissons Ratio (x) = -0.05208 0.17890
# Poissons Ratio (y) = -0.02693 0.36349
# Poissons Ratio (z) = 0.15295 0.60098
#
# Static dielectric constant tensor:
#      x y z
#    x 2.271590 0.000000 0.000000 
#    y 0.000000 1.957380 0.000000 
#    z 0.000000 0.000000 1.873460 
# 
# From -- ./inp_files/28540.got.cif
#   From: 2010.05.17/outbox.cif.g08.bks.cpg/sg66_15_cif.got.tgz:28540.got - 2010.06.03 17:51:23.
