data_PCOD9496305
_publ_section_title
;
Structure prediction by ZEFSAII (Michael W. Deem and Ramdas Pophale) SiO2 
 PCOD9496305
Probable space group: C C C M
;
_chemical_formula_sum "Si O2"
_cell_formula_units_Z 96
_cell_length_a 23.540419
_cell_length_b 24.796862
_cell_length_c 8.395114
_cell_angle_alpha 90.000000
_cell_angle_beta 90.000000
_cell_angle_gamma 90.000000
_cell_volume 4900.467482
_symmetry_space_group_name_H-M "C C C M"
_symmetry_group_IT_number 66
_symmetry_cell_setting 'orthorhombic'
loop_
_space_group_symop_operation_xyz
x,y,z
-x,-y,z
x,-y,1/2-z
-x,y,1/2-z
-x,-y,-z
x,y,-z
-x,y,1/2+z
x,-y,1/2+z
1/2+x,1/2+y,z
1/2-x,1/2-y,z
1/2+x,1/2-y,1/2-z
1/2-x,1/2+y,1/2-z
1/2-x,1/2-y,-z
1/2+x,1/2+y,-z
1/2-x,1/2+y,1/2+z
1/2+x,1/2-y,1/2+z
loop_
_atom_site_type_symbol
_atom_site_label
_atom_site_fract_x
_atom_site_fract_y
_atom_site_fract_z
Si Si1 0.063150 0.611380 0.808474
Si Si2 0.736395 0.163616 0.189652
Si Si3 0.674518 0.941238 0.188582
Si Si4 0.124030 0.279053 0.693774
Si Si5 0.633897 0.661323 0.306847
Si Si6 0.564537 0.558501 0.810971
O O1 0.109273 0.571352 0.733776
O O2 0.083115 0.671885 0.759014
O O3 0.000000 0.600760 0.750000
O O4 0.066528 0.607840 0.000000
O O5 0.710636 0.105031 0.225267
O O6 0.688046 0.205202 0.248757
O O7 0.800620 0.164997 0.249380
O O8 0.739898 0.172497 0.000000
O O9 0.690470 0.000000 0.250000
O O10 0.682191 0.937127 0.000000
O O11 0.125449 0.279283 0.500000
O O12 0.107145 0.218911 0.742758
O O13 0.633413 0.658569 0.500000
O O14 0.602407 0.608615 0.244765
O O15 0.585183 0.500000 0.750000
O O16 0.500000 0.565483 0.750000
O O17 0.563384 0.556794 0.000000
#
# Coordination Sequence:
#
# PCOD9496305 Si02
#       6
#    16  16  16  16  16  16
#     4  10  20  36  56  80 110 144 184 226 272 322
#     4   9  18  34  56  82 113 147 182 222 268 318
#     4  11  22  37  56  78 107 143 184 229 277 324
#     4   8  16  32  55  82 113 147 181 220 266 317
#     4  10  19  34  59  88 114 144 182 220 264 321
#     4  11  23  41  61  81 108 141 179 224 275 325
#
# _framework density 19.589969
#
# number of rings (size 3 to 8) (size 9 to 14) (size 15 to 20)
#    0.000    2.167    0.000    5.500    0.000    4.333 
#    0.000    7.500    0.000    5.000    0.000    0.000 
#    0.000    0.000    0.000    0.000    0.000    0.000 
#
# Total GULP energy -267942.277879 kJ/mol
# GULP energy per Si atom -5582.130789 kJ/mol
# Density = 1.954538 g / cm^3
# Si number density = 19.589969 Si / 1000 Ang^3
#
#
#
# Elastic Constant Matrix: (Units=GPa)
#
#
# Indices 1 2 3 4 5 6 
#
# 1 15.2159 -3.8846 -6.6501 0.0000 0.0000 0.0000
# 2 -3.8846 111.9596 -3.3180 0.0000 0.0000 0.0000
# 3 -6.6501 -3.3180 28.8891 0.0000 0.0000 0.0000
# 4 0.0000 0.0000 0.0000 17.6162 0.0000 0.0000
# 5 0.0000 0.0000 0.0000 0.0000 18.9110 0.0000
# 6 0.0000 0.0000 0.0000 0.0000 0.0000 43.8974
#
#
#
# Elastic Compliance Matrix: (Units=1/GPa)
#
#
# Indices 1 2 3 4 5 6 
#
# 1 0.074121 0.003088 0.017417 0.000000 0.000000 0.000000
# 2 0.003088 0.009091 0.001755 0.000000 0.000000 0.000000
# 3 0.017417 0.001755 0.038826 0.000000 0.000000 0.000000
# 4 0.000000 0.000000 0.000000 0.056766 0.000000 0.000000
# 5 0.000000 0.000000 0.000000 0.000000 0.052879 0.000000
# 6 0.000000 0.000000 0.000000 0.000000 0.000000 0.022780
#
#
# Mechanical properties :
#
#
# Convention : Reuss Voigt Hill
#
# Bulk Modulus (GPa) = 6.00393 14.26213 10.13303
# Shear Modulus (GPa) = 18.83499 27.41274 23.12387
#
# Velocity S-wave (km/s) = 3.10411 3.74481 3.43941
# Velocity P-wave (km/s) = 3.98983 5.09846 4.57783
#
# Compressibility (1/GPa) = 0.16655762
#
# Stress axis : x y z
#
# Youngs Moduli (GPa) = 13.49142 109.99960 25.75594
#
# Poissons Ratio (x) = -0.33967 -0.44859
# Poissons Ratio (y) = -0.04166 -0.04520
# Poissons Ratio (z) = -0.23498 -0.19304
#
# Static dielectric constant tensor:
#      x y z
#    x 1.687060 0.000000 0.000000 
#    y 0.000000 1.643480 0.000000 
#    z 0.000000 0.000000 1.671290 
# 
# From -- ./inp_files/9109.got.cif
#   From: 2010.05.17/outbox.cif.g08.bks.cpg/sg66_5_cif.got.tgz:9109.got - 2010.06.03 17:51:23.
