data_PCOD9496664
_publ_section_title
;
Structure prediction by ZEFSAII (Michael W. Deem and Ramdas Pophale) SiO2 
 PCOD9496664
Probable space group: C C C M
;
_chemical_formula_sum "Si O2"
_cell_formula_units_Z 96
_cell_length_a 19.930779
_cell_length_b 32.207193
_cell_length_c 8.801313
_cell_angle_alpha 90.000000
_cell_angle_beta 90.000000
_cell_angle_gamma 90.000000
_cell_volume 5649.689958
_symmetry_space_group_name_H-M "C C C M"
_symmetry_group_IT_number 66
_symmetry_cell_setting 'orthorhombic'
loop_
_space_group_symop_operation_xyz
x,y,z
-x,-y,z
x,-y,1/2-z
-x,y,1/2-z
-x,-y,-z
x,y,-z
-x,y,1/2+z
x,-y,1/2+z
1/2+x,1/2+y,z
1/2-x,1/2-y,z
1/2+x,1/2-y,1/2-z
1/2-x,1/2+y,1/2-z
1/2-x,1/2-y,-z
1/2+x,1/2+y,-z
1/2-x,1/2+y,1/2+z
1/2+x,1/2-y,1/2+z
loop_
_atom_site_type_symbol
_atom_site_label
_atom_site_fract_x
_atom_site_fract_y
_atom_site_fract_z
Si Si1 0.324623 0.541418 0.818718
Si Si2 0.573185 0.296722 0.817025
Si Si3 0.327234 0.866091 0.681791
Si Si4 0.073534 0.701478 0.182107
Si Si5 0.825850 0.541525 0.181675
Si Si6 0.677850 0.633334 0.316736
O O1 0.357682 0.500000 0.750000
O O2 0.249301 0.542585 0.750683
O O3 0.351790 0.587376 0.782406
O O4 0.321135 0.536940 0.000000
O O5 0.500000 0.305752 0.750000
O O6 0.591145 0.249198 0.775831
O O7 0.628309 0.330108 0.767239
O O8 0.569067 0.298666 0.000000
O O9 0.326627 0.862211 0.500000
O O10 0.373269 0.830992 0.754238
O O11 0.353823 0.912781 0.718729
O O12 0.251148 0.862798 0.742841
O O13 0.000000 0.693012 0.250000
O O14 0.070921 0.698832 0.000000
O O15 0.858856 0.500000 0.250000
O O16 0.821906 0.537476 0.000000
O O17 0.686132 0.635499 0.500000
#
# Coordination Sequence:
#
# PCOD9496664 Si02
#       6
#    16  16  16  16  16  16
#     4   9  15  24  41  64  92 124 156 191 232 279
#     4   9  19  35  53  72  94 124 163 201 240 289
#     4  10  20  32  48  74 103 128 159 198 238 281
#     4  10  20  35  54  72  94 126 161 198 240 288
#     4   9  16  26  42  65  94 125 156 191 230 275
#     4   9  18  32  49  71  99 129 160 197 242 286
#
# _framework density 16.992083000000001
#
# number of rings (size 3 to 8) (size 9 to 14) (size 15 to 20)
#    0.000    2.667    0.000    3.000    0.000    4.667 
#    0.000    3.333    0.000    1.000    0.000    7.000 
#    0.000    0.000    0.000    0.000    0.000    0.000 
#
# Total GULP energy -267341.911813 kJ/mol
# GULP energy per Si atom -5569.623163 kJ/mol
# Density = 1.695341 g / cm^3
# Si number density = 16.992083 Si / 1000 Ang^3
#
#
#
# Elastic Constant Matrix: (Units=GPa)
#
#
# Indices 1 2 3 4 5 6 
#
# 1 59.8208 87.1916 28.8708 0.0000 0.0000 0.0000
# 2 87.1916 184.9419 58.8099 0.0000 0.0000 0.0000
# 3 28.8708 58.8099 49.4596 0.0000 0.0000 0.0000
# 4 0.0000 0.0000 0.0000 29.3861 0.0000 0.0000
# 5 0.0000 0.0000 0.0000 0.0000 19.5206 0.0000
# 6 0.0000 0.0000 0.0000 0.0000 0.0000 -7.5909
#
#
#
# Elastic Compliance Matrix: (Units=1/GPa)
#
#
# Indices 1 2 3 4 5 6 
#
# 1 0.053558 -0.024616 -0.001993 0.000000 0.000000 0.000000
# 2 -0.024616 0.020009 -0.009422 0.000000 0.000000 0.000000
# 3 -0.001993 -0.009422 0.032585 0.000000 0.000000 0.000000
# 4 0.000000 0.000000 0.000000 0.034030 0.000000 0.000000
# 5 0.000000 0.000000 0.000000 0.000000 0.051228 0.000000
# 6 0.000000 0.000000 0.000000 0.000000 0.000000 -0.131736
#
#
# Mechanical properties :
#
#
# Convention : Reuss Voigt Hill
#
# Bulk Modulus (GPa) = 29.33507 71.55186 50.44347
# Shear Modulus (GPa) = 34.94067 16.21983 25.58025
#
# Velocity S-wave (km/s) = 4.53955 3.09293 3.88419
# Velocity P-wave (km/s) = 6.69165 7.41319 7.06164
#
# Compressibility (1/GPa) = 0.03408889
#
# Stress axis : x y z
#
# Youngs Moduli (GPa) = 18.67138 49.97817 30.68852
#
# Poissons Ratio (x) = 1.23028 0.06116
# Poissons Ratio (y) = 0.45962 0.28915
# Poissons Ratio (z) = 0.03721 0.47091
#
# Static dielectric constant tensor:
#      x y z
#    x 1.525190 0.000000 0.000000 
#    y 0.000000 1.638350 0.000000 
#    z 0.000000 0.000000 1.569960 
# 
# From -- ./inp_files/7954.got.cif
#   From: 2010.05.17/outbox.cif.g08.bks.cpg/sg66_4_cif.got.tgz:7954.got - 2010.06.03 17:51:23.
