data_PCOD9496037
_publ_section_title
;
Structure prediction by ZEFSAII (Michael W. Deem and Ramdas Pophale) SiO2 
 PCOD9496037
Probable space group: C C C M
;
_chemical_formula_sum "Si O2"
_cell_formula_units_Z 48
_cell_length_a 14.095824
_cell_length_b 11.159059
_cell_length_c 13.813475
_cell_angle_alpha 90.000000
_cell_angle_beta 90.000000
_cell_angle_gamma 90.000000
_cell_volume 2172.806182
_symmetry_space_group_name_H-M "C C C M"
_symmetry_group_IT_number 66
_symmetry_cell_setting 'orthorhombic'
loop_
_space_group_symop_operation_xyz
x,y,z
-x,-y,z
x,-y,1/2-z
-x,y,1/2-z
-x,-y,-z
x,y,-z
-x,y,1/2+z
x,-y,1/2+z
1/2+x,1/2+y,z
1/2-x,1/2-y,z
1/2+x,1/2-y,1/2-z
1/2-x,1/2+y,1/2-z
1/2-x,1/2-y,-z
1/2+x,1/2+y,-z
1/2-x,1/2+y,1/2+z
1/2+x,1/2-y,1/2+z
loop_
_atom_site_type_symbol
_atom_site_label
_atom_site_fract_x
_atom_site_fract_y
_atom_site_fract_z
Si Si1 0.601357 0.566492 0.000000
Si Si2 0.860899 0.130275 0.712987
Si Si3 0.855162 0.380168 0.210639
Si Si4 0.219886 0.612676 0.000000
O O1 0.500000 0.500000 0.000000
O O2 0.615117 0.639182 0.900377
O O3 0.686610 0.469360 0.000000
O O4 0.895847 0.247693 0.770352
O O5 0.747736 0.125551 0.734793
O O6 0.895632 0.000000 0.750000
O O7 0.902203 0.500000 0.250000
O O8 0.837376 0.403535 0.098069
O O9 0.250000 0.750000 0.000000
#
# Coordination Sequence:
#
# PCOD9496037 Si02
#       4
#     8  16  16   8
#     4  12  24  36  56  91 129 164 198 256 328 394
#     4  10  19  35  53  85 118 151 198 247 308 359
#     4  10  19  32  57  86 118 146 200 261 309 348
#     4  12  18  35  57  82 116 153 207 247 305 367
#
# _framework density 22.091248
#
# number of rings (size 3 to 8) (size 9 to 14) (size 15 to 20)
#    0.000    1.333   10.000    0.000    0.000    4.667 
#    0.000    0.000    0.000    0.000    0.000   35.000 
#    0.000    0.000    0.000    0.000    0.000    0.000 
#
# Total GULP energy -133986.187052 kJ/mol
# GULP energy per Si atom -5582.757794 kJ/mol
# Density = 2.204097 g / cm^3
# Si number density = 22.091248 Si / 1000 Ang^3
#
#
#
# Elastic Constant Matrix: (Units=GPa)
#
#
# Indices 1 2 3 4 5 6 
#
# 1 98.6227 19.4810 40.4783 0.0000 0.0000 0.0000
# 2 19.4810 195.5387 49.2169 0.0000 0.0000 0.0000
# 3 40.4783 49.2169 216.5250 0.0000 0.0000 0.0000
# 4 0.0000 0.0000 0.0000 41.8017 0.0000 0.0000
# 5 0.0000 0.0000 0.0000 0.0000 -3.3094 0.0000
# 6 0.0000 0.0000 0.0000 0.0000 0.0000 -21.0201
#
#
#
# Elastic Compliance Matrix: (Units=1/GPa)
#
#
# Indices 1 2 3 4 5 6 
#
# 1 0.011052 -0.000616 -0.001926 0.000000 0.000000 0.000000
# 2 -0.000616 0.005459 -0.001126 0.000000 0.000000 0.000000
# 3 -0.001926 -0.001126 0.005234 0.000000 0.000000 0.000000
# 4 0.000000 0.000000 0.000000 0.023922 0.000000 0.000000
# 5 0.000000 0.000000 0.000000 0.000000 -0.302171 0.000000
# 6 0.000000 0.000000 0.000000 0.000000 0.000000 -0.047573
#
#
# Mechanical properties :
#
#
# Convention : Reuss Voigt Hill
#
# Bulk Modulus (GPa) = 69.40012 81.00433 75.20223
# Shear Modulus (GPa) = -17.12692 30.26178 6.56743
#
# Velocity S-wave (km/s) = -2.78741 3.70517 1.72607
# Velocity P-wave (km/s) = 4.59607 7.41971 6.17154
#
# Compressibility (1/GPa) = 0.01440920
#
# Stress axis : x y z
#
# Youngs Moduli (GPa) = 90.48223 183.19091 191.04706
#
# Poissons Ratio (x) = 0.11290 0.36796
# Poissons Ratio (y) = 0.05576 0.21504
# Poissons Ratio (z) = 0.17427 0.20620
#
# Static dielectric constant tensor:
#      x y z
#    x 1.800180 0.000000 0.000000 
#    y 0.000000 1.860230 0.000000 
#    z 0.000000 0.000000 1.690050 
# 
# From -- ./inp_files/14210.got.cif
#   From: 2010.05.17/outbox.cif.g08.bks.cpg/sg66_8_cif.got.tgz:14210.got - 2010.06.03 17:51:23.
