data_PCOD9496953
_publ_section_title
;
Structure prediction by ZEFSAII (Michael W. Deem and Ramdas Pophale) SiO2 
 PCOD9496953
Probable space group: C C C M
;
_chemical_formula_sum "Si O2"
_cell_formula_units_Z 68
_cell_length_a 17.746609
_cell_length_b 19.744609
_cell_length_c 10.187972
_cell_angle_alpha 90.000000
_cell_angle_beta 90.000000
_cell_angle_gamma 90.000000
_cell_volume 3569.863919
_symmetry_space_group_name_H-M "C C C M"
_symmetry_group_IT_number 66
_symmetry_cell_setting 'orthorhombic'
loop_
_space_group_symop_operation_xyz
x,y,z
-x,-y,z
x,-y,1/2-z
-x,y,1/2-z
-x,-y,-z
x,y,-z
-x,y,1/2+z
x,-y,1/2+z
1/2+x,1/2+y,z
1/2-x,1/2-y,z
1/2+x,1/2-y,1/2-z
1/2-x,1/2+y,1/2-z
1/2-x,1/2-y,-z
1/2+x,1/2+y,-z
1/2-x,1/2+y,1/2+z
1/2+x,1/2-y,1/2+z
loop_
_atom_site_type_symbol
_atom_site_label
_atom_site_fract_x
_atom_site_fract_y
_atom_site_fract_z
Si Si1 0.106858 0.869849 0.000000
Si Si2 0.500000 0.826937 0.250000
Si Si3 0.022241 0.763867 0.500000
Si Si4 0.618240 0.062815 0.154845
Si Si5 0.208790 0.079571 0.733117
Si Si6 0.500000 0.500000 0.000000
Si Si7 0.137014 0.888324 0.500000
O O1 0.157717 0.882328 0.872769
O O2 0.046449 0.930234 0.000000
O O3 0.059738 0.800697 0.000000
O O4 0.471205 0.780740 0.369328
O O5 0.435244 0.875088 0.191584
O O6 0.084204 0.822717 0.500000
O O7 0.704988 0.080834 0.187072
O O8 0.598616 0.000000 0.250000
O O9 0.611385 0.045767 0.000000
O O10 0.187827 0.000000 0.750000
O O11 0.190170 0.110441 0.873499
O O12 0.581501 0.545843 0.000000
#
# Coordination Sequence:
#
# PCOD9496953 Si02
#       7
#     8   8   8  16  16   4   8
#     4  11  21  39  62  94 137 179 224 257 326 388
#     4  12  25  50  68  93 134 172 228 280 334 387
#     4  11  26  43  65  94 135 188 228 272 311 398
#     4  11  26  45  75 103 127 165 214 282 346 397
#     4  11  21  39  65 101 137 169 213 281 333 391
#     4  10  20  34  60  94 130 180 206 274 310 370
#     4  11  23  39  62  98 137 179 228 261 324 386
#
# _framework density 19.048345000000001
#
# number of rings (size 3 to 8) (size 9 to 14) (size 15 to 20)
#    0.000    0.941    4.706    1.765    6.588    4.706 
#    0.000    7.059    0.000    0.000    0.000    0.000 
#    0.000    0.000    0.000    0.000    0.000    0.000 
#
# Total GULP energy -189447.670389 kJ/mol
# GULP energy per Si atom -5571.990306 kJ/mol
# Density = 1.900499 g / cm^3
# Si number density = 19.048345 Si / 1000 Ang^3
#
#
#
# Elastic Constant Matrix: (Units=GPa)
#
#
# Indices 1 2 3 4 5 6 
#
# 1 47.3072 32.5180 44.0272 0.0000 0.0000 0.0000
# 2 32.5180 94.1869 58.2466 0.0000 0.0000 0.0000
# 3 44.0272 58.2466 198.3682 0.0000 0.0000 0.0000
# 4 0.0000 0.0000 0.0000 45.8182 0.0000 0.0000
# 5 0.0000 0.0000 0.0000 0.0000 77.1477 0.0000
# 6 0.0000 0.0000 0.0000 0.0000 0.0000 3.6945
#
#
#
# Elastic Compliance Matrix: (Units=1/GPa)
#
#
# Indices 1 2 3 4 5 6 
#
# 1 0.030716 -0.007806 -0.004525 0.000000 0.000000 0.000000
# 2 -0.007806 0.014957 -0.002659 0.000000 0.000000 0.000000
# 3 -0.004525 -0.002659 0.006826 0.000000 0.000000 0.000000
# 4 0.000000 0.000000 0.000000 0.021825 0.000000 0.000000
# 5 0.000000 0.000000 0.000000 0.000000 0.012962 0.000000
# 6 0.000000 0.000000 0.000000 0.000000 0.000000 0.270674
#
#
# Mechanical properties :
#
#
# Convention : Reuss Voigt Hill
#
# Bulk Modulus (GPa) = 44.40948 67.71621 56.06284
# Shear Modulus (GPa) = 12.64391 39.00345 25.82368
#
# Velocity S-wave (km/s) = 2.57919 4.52995 3.68597
# Velocity P-wave (km/s) = 5.67753 7.93646 6.90006
#
# Compressibility (1/GPa) = 0.02251772
#
# Stress axis : x y z
#
# Youngs Moduli (GPa) = 32.55680 66.85953 146.49272
#
# Poissons Ratio (x) = 0.52191 0.66290
# Poissons Ratio (y) = 0.25414 0.38955
# Poissons Ratio (z) = 0.14732 0.17779
#
# Static dielectric constant tensor:
#      x y z
#    x 1.653230 0.000000 0.000000 
#    y 0.000000 1.642580 0.000000 
#    z 0.000000 0.000000 1.646750 
# 
# From -- ./inp_files/6336.got.cif
#   From: 2010.05.17/outbox.cif.g08.bks.cpg/sg66_4_cif.got.tgz:6336.got - 2010.06.03 17:51:23.
