data_PCOD9496520
_publ_section_title
;
Structure prediction by ZEFSAII (Michael W. Deem and Ramdas Pophale) SiO2 
 PCOD9496520
Probable space group: C C C M
;
_chemical_formula_sum "Si O2"
_cell_formula_units_Z 96
_cell_length_a 14.995315
_cell_length_b 11.590808
_cell_length_c 31.188547
_cell_angle_alpha 90.000000
_cell_angle_beta 90.000000
_cell_angle_gamma 90.000000
_cell_volume 5420.813271
_symmetry_space_group_name_H-M "C C C M"
_symmetry_group_IT_number 66
_symmetry_cell_setting 'orthorhombic'
loop_
_space_group_symop_operation_xyz
x,y,z
-x,-y,z
x,-y,1/2-z
-x,y,1/2-z
-x,-y,-z
x,y,-z
-x,y,1/2+z
x,-y,1/2+z
1/2+x,1/2+y,z
1/2-x,1/2-y,z
1/2+x,1/2-y,1/2-z
1/2-x,1/2+y,1/2-z
1/2-x,1/2-y,-z
1/2+x,1/2+y,-z
1/2-x,1/2+y,1/2+z
1/2+x,1/2-y,1/2+z
loop_
_atom_site_type_symbol
_atom_site_label
_atom_site_fract_x
_atom_site_fract_y
_atom_site_fract_z
Si Si1 0.204495 0.084633 0.595236
Si Si2 0.459454 0.690068 0.500000
Si Si3 0.213835 0.377325 0.131002
Si Si4 0.881216 0.300513 0.868155
Si Si5 0.893842 0.520985 0.299584
Si Si6 0.959098 0.377197 0.425353
Si Si7 0.858906 0.956648 0.500000
O O1 0.136469 0.167595 0.620741
O O2 0.302193 0.136770 0.605226
O O3 0.188597 0.077110 0.544494
O O4 0.205411 0.958631 0.615897
O O5 0.459230 0.775974 0.459894
O O6 0.381882 0.593389 0.500000
O O7 0.549609 0.615666 0.500000
O O8 0.250000 0.250000 0.138175
O O9 0.163731 0.433152 0.171633
O O10 0.140093 0.385250 0.093303
O O11 0.874285 0.352458 0.820262
O O12 0.974900 0.340280 0.887108
O O13 0.872105 0.500000 0.250000
O O14 0.000000 0.500000 0.304533
O O15 0.000000 0.500000 0.441031
#
# Coordination Sequence:
#
# PCOD9496520 Si02
#       7
#    16   8  16  16  16  16   8
#     4  10  21  36  59  82 117 157 196 245 285 344
#     4  11  25  34  55  82 114 161 202 246 287 340
#     4  11  22  39  58  87 120 152 191 241 306 349
#     4  10  19  37  60  84 109 151 196 237 291 348
#     4  10  19  38  66  88 111 149 195 241 290 356
#     4  12  20  40  59  80 115 151 202 244 282 346
#     4  11  22  39  50  82 122 158 205 236 298 352
#
# _framework density 17.709520000000001
#
# number of rings (size 3 to 8) (size 9 to 14) (size 15 to 20)
#    0.000    1.333    6.667    1.250    0.000    2.667 
#    6.000    1.667    0.000    0.000    0.000    2.333 
#    0.000    0.000    0.000    0.000    0.000    0.000 
#
# Total GULP energy -267596.223689 kJ/mol
# GULP energy per Si atom -5574.921327 kJ/mol
# Density = 1.766921 g / cm^3
# Si number density = 17.709520 Si / 1000 Ang^3
#
#
#
# Elastic Constant Matrix: (Units=GPa)
#
#
# Indices 1 2 3 4 5 6 
#
# 1 32.8023 20.2347 18.1396 0.0000 0.0000 0.0000
# 2 20.2347 135.3175 58.5520 0.0000 0.0000 0.0000
# 3 18.1396 58.5520 142.2692 0.0000 0.0000 0.0000
# 4 0.0000 0.0000 0.0000 -3.8188 0.0000 0.0000
# 5 0.0000 0.0000 0.0000 0.0000 17.2247 0.0000
# 6 0.0000 0.0000 0.0000 0.0000 0.0000 21.9040
#
#
#
# Elastic Compliance Matrix: (Units=1/GPa)
#
#
# Indices 1 2 3 4 5 6 
#
# 1 0.034455 -0.003956 -0.002765 0.000000 0.000000 0.000000
# 2 -0.003956 0.009445 -0.003383 0.000000 0.000000 0.000000
# 3 -0.002765 -0.003383 0.008774 0.000000 0.000000 0.000000
# 4 0.000000 0.000000 0.000000 -0.261861 0.000000 0.000000
# 5 0.000000 0.000000 0.000000 0.000000 0.058056 0.000000
# 6 0.000000 0.000000 0.000000 0.000000 0.000000 0.045654
#
#
# Mechanical properties :
#
#
# Convention : Reuss Voigt Hill
#
# Bulk Modulus (GPa) = 30.80098 56.02685 43.41391
# Shear Modulus (GPa) = -67.16200 21.29282 -22.93459
#
# Velocity S-wave (km/s) = -6.16495 3.47124 -3.60257
# Velocity P-wave (km/s) = 5.76588 6.91167 2.69498
#
# Compressibility (1/GPa) = 0.03246650
#
# Stress axis : x y z
#
# Youngs Moduli (GPa) = 29.02344 105.87221 113.97642
#
# Poissons Ratio (x) = 0.41881 0.31515
# Poissons Ratio (y) = 0.11481 0.38557
# Poissons Ratio (z) = 0.08025 0.35816
#
# Static dielectric constant tensor:
#      x y z
#    x 1.597970 0.000000 0.000000 
#    y 0.000000 1.659320 0.000000 
#    z 0.000000 0.000000 1.595130 
# 
# From -- ./inp_files/69488.got.cif
#   From: 2010.05.17/outbox.cif.g08.bks.cpg/sg66_35_cif.got.tgz:69488.got - 2010.06.03 17:51:23.
