data_PCOD9496829
_publ_section_title
;
Structure prediction by ZEFSAII (Michael W. Deem and Ramdas Pophale) SiO2 
 PCOD9496829
Probable space group: C C C M
;
_chemical_formula_sum "Si O2"
_cell_formula_units_Z 52
_cell_length_a 14.062535
_cell_length_b 24.592637
_cell_length_c 8.783579
_cell_angle_alpha 90.000000
_cell_angle_beta 90.000000
_cell_angle_gamma 90.000000
_cell_volume 3037.667450
_symmetry_space_group_name_H-M "C C C M"
_symmetry_group_IT_number 66
_symmetry_cell_setting 'orthorhombic'
loop_
_space_group_symop_operation_xyz
x,y,z
-x,-y,z
x,-y,1/2-z
-x,y,1/2-z
-x,-y,-z
x,y,-z
-x,y,1/2+z
x,-y,1/2+z
1/2+x,1/2+y,z
1/2-x,1/2-y,z
1/2+x,1/2-y,1/2-z
1/2-x,1/2+y,1/2-z
1/2-x,1/2-y,-z
1/2+x,1/2+y,-z
1/2-x,1/2+y,1/2+z
1/2+x,1/2-y,1/2+z
loop_
_atom_site_type_symbol
_atom_site_label
_atom_site_fract_x
_atom_site_fract_y
_atom_site_fract_z
Si Si1 0.896138 0.733538 0.316918
Si Si2 0.687332 0.554004 0.671169
Si Si3 0.779756 0.169187 0.681903
Si Si4 0.500000 0.500000 0.750000
O O1 0.895505 0.732241 0.500000
O O2 0.859224 0.792133 0.257795
O O3 0.819561 0.691156 0.249745
O O4 0.000000 0.722948 0.250000
O O5 0.730083 0.500000 0.750000
O O6 0.722394 0.562166 0.500000
O O7 0.703501 0.607196 0.770594
O O8 0.574742 0.538885 0.665162
O O9 0.781230 0.175877 0.500000
#
# Coordination Sequence:
#
# PCOD9496829 Si02
#       4
#    16  16  16   4
#     4  11  22  38  58  81 110 145 185 229 276 326
#     4  10  20  34  52  77 110 144 181 223 270 323
#     4  11  22  37  56  82 113 146 185 227 274 328
#     4   8  22  32  54  76 112 140 186 216 272 320
#
# _framework density 17.118397999999999
#
# number of rings (size 3 to 8) (size 9 to 14) (size 15 to 20)
#    0.923    0.615    0.000    8.769    2.154    0.000 
#    0.000    0.000    0.000    0.923    0.000    6.462 
#    0.000    0.000    0.000    0.000    0.000    0.000 
#
# Total GULP energy -144908.344632 kJ/mol
# GULP energy per Si atom -5573.397870 kJ/mol
# Density = 1.707944 g / cm^3
# Si number density = 17.118398 Si / 1000 Ang^3
#
#
#
# Elastic Constant Matrix: (Units=GPa)
#
#
# Indices 1 2 3 4 5 6 
#
# 1 65.7839 21.6370 28.7674 0.0000 0.0000 0.0000
# 2 21.6370 115.3636 37.8238 0.0000 0.0000 0.0000
# 3 28.7674 37.8238 177.7753 0.0000 0.0000 0.0000
# 4 0.0000 0.0000 0.0000 38.5234 0.0000 0.0000
# 5 0.0000 0.0000 0.0000 0.0000 26.6002 0.0000
# 6 0.0000 0.0000 0.0000 0.0000 0.0000 7.0432
#
#
#
# Elastic Compliance Matrix: (Units=1/GPa)
#
#
# Indices 1 2 3 4 5 6 
#
# 1 0.016982 -0.002455 -0.002226 0.000000 0.000000 0.000000
# 2 -0.002455 0.009673 -0.001661 0.000000 0.000000 0.000000
# 3 -0.002226 -0.001661 0.006339 0.000000 0.000000 0.000000
# 4 0.000000 0.000000 0.000000 0.025958 0.000000 0.000000
# 5 0.000000 0.000000 0.000000 0.000000 0.037594 0.000000
# 6 0.000000 0.000000 0.000000 0.000000 0.000000 0.141980
#
#
# Mechanical properties :
#
#
# Convention : Reuss Voigt Hill
#
# Bulk Modulus (GPa) = 49.23575 59.48659 54.36117
# Shear Modulus (GPa) = 19.38134 32.47967 25.93051
#
# Velocity S-wave (km/s) = 3.36846 4.36059 3.89623
# Velocity P-wave (km/s) = 6.62971 7.75748 7.21566
#
# Compressibility (1/GPa) = 0.02031044
#
# Stress axis : x y z
#
# Youngs Moduli (GPa) = 58.88532 103.37754 157.76414
#
# Poissons Ratio (x) = 0.25383 0.35112
# Poissons Ratio (y) = 0.14459 0.26201
# Poissons Ratio (z) = 0.13106 0.17169
#
# Static dielectric constant tensor:
#      x y z
#    x 1.568540 0.000000 0.000000 
#    y 0.000000 1.566690 0.000000 
#    z 0.000000 0.000000 1.588220 
# 
# From -- ./inp_files/4728.got.cif
#   From: 2010.05.17/outbox.cif.g08.bks.cpg/sg66_3_cif.got.tgz:4728.got - 2010.06.03 17:51:23.
