data_PCOD9496433
_publ_section_title
;
Structure prediction by ZEFSAII (Michael W. Deem and Ramdas Pophale) SiO2 
 PCOD9496433
Probable space group: C C C M
;
_chemical_formula_sum "Si O2"
_cell_formula_units_Z 80
_cell_length_a 9.059430
_cell_length_b 24.369564
_cell_length_c 17.679684
_cell_angle_alpha 90.000000
_cell_angle_beta 90.000000
_cell_angle_gamma 90.000000
_cell_volume 3903.220906
_symmetry_space_group_name_H-M "C C C M"
_symmetry_group_IT_number 66
_symmetry_cell_setting 'orthorhombic'
loop_
_space_group_symop_operation_xyz
x,y,z
-x,-y,z
x,-y,1/2-z
-x,y,1/2-z
-x,-y,-z
x,y,-z
-x,y,1/2+z
x,-y,1/2+z
1/2+x,1/2+y,z
1/2-x,1/2-y,z
1/2+x,1/2-y,1/2-z
1/2-x,1/2+y,1/2-z
1/2-x,1/2-y,-z
1/2+x,1/2+y,-z
1/2-x,1/2+y,1/2+z
1/2+x,1/2-y,1/2+z
loop_
_atom_site_type_symbol
_atom_site_label
_atom_site_fract_x
_atom_site_fract_y
_atom_site_fract_z
Si Si1 0.828231 0.627816 0.584238
Si Si2 0.078103 0.269970 0.670324
Si Si3 0.324357 0.003958 0.410899
Si Si4 0.507014 0.665799 0.916127
Si Si5 0.921145 0.945998 0.167298
O O1 0.893321 0.621604 0.500000
O O2 0.921585 0.670000 0.632920
O O3 0.796227 0.566917 0.613190
O O4 0.668247 0.655188 0.577444
O O5 0.250000 0.250000 0.676906
O O6 0.987490 0.225033 0.622189
O O7 0.000000 0.272460 0.750000
O O8 0.275700 0.995583 0.500000
O O9 0.500000 0.000000 0.410563
O O10 0.247076 0.963888 0.350429
O O11 0.562315 0.613705 0.869042
O O12 0.572512 0.665479 0.000000
O O13 0.000000 0.942887 0.250000
O O14 0.000000 0.000000 0.129784
#
# Coordination Sequence:
#
# PCOD9496433 Si02
#       5
#    16  16  16  16  16
#     4   9  18  36  61  87 115 156 210 255 301 369
#     4  10  21  39  59  87 120 159 200 255 320 379
#     4  10  21  40  63  90 125 168 212 257 314 382
#     4  10  19  35  64  90 113 155 212 268 307 362
#     4  11  22  37  58  92 128 163 204 261 322 380
#
# _framework density 20.495892999999999
#
# number of rings (size 3 to 8) (size 9 to 14) (size 15 to 20)
#    0.000    2.000    2.000    1.800    0.000    3.200 
#   10.800    2.000    0.000    1.200    0.000    0.000 
#    0.000    0.000    0.000    0.000    0.000    0.000 
#
# Total GULP energy -222776.595766 kJ/mol
# GULP energy per Si atom -5569.414894 kJ/mol
# Density = 2.044924 g / cm^3
# Si number density = 20.495893 Si / 1000 Ang^3
#
#
#
# Elastic Constant Matrix: (Units=GPa)
#
#
# Indices 1 2 3 4 5 6 
#
# 1 41.3286 21.9384 37.7918 0.0000 0.0000 0.0000
# 2 21.9384 125.7531 86.5304 0.0000 0.0000 0.0000
# 3 37.7918 86.5304 129.8792 0.0000 0.0000 0.0000
# 4 0.0000 0.0000 0.0000 -43.5660 0.0000 0.0000
# 5 0.0000 0.0000 0.0000 0.0000 32.3086 0.0000
# 6 0.0000 0.0000 0.0000 0.0000 0.0000 21.6649
#
#
#
# Elastic Compliance Matrix: (Units=1/GPa)
#
#
# Indices 1 2 3 4 5 6 
#
# 1 0.033137 0.001576 -0.010692 0.000000 0.000000 0.000000
# 2 0.001576 0.014759 -0.010291 0.000000 0.000000 0.000000
# 3 -0.010692 -0.010291 0.017667 0.000000 0.000000 0.000000
# 4 0.000000 0.000000 0.000000 -0.022954 0.000000 0.000000
# 5 0.000000 0.000000 0.000000 0.000000 0.030952 0.000000
# 6 0.000000 0.000000 0.000000 0.000000 0.000000 0.046158
#
#
# Mechanical properties :
#
#
# Convention : Reuss Voigt Hill
#
# Bulk Modulus (GPa) = 37.38596 65.49801 51.44198
# Shear Modulus (GPa) = 29.85989 12.12819 20.99404
#
# Velocity S-wave (km/s) = 3.82104 2.43520 3.20395
# Velocity P-wave (km/s) = 6.14389 6.31926 6.23219
#
# Compressibility (1/GPa) = 0.02674801
#
# Stress axis : x y z
#
# Youngs Moduli (GPa) = 30.17790 67.75719 56.60198
#
# Poissons Ratio (x) = -0.10682 0.60521
# Poissons Ratio (y) = -0.04757 0.58252
# Poissons Ratio (z) = 0.32267 0.69732
#
# Static dielectric constant tensor:
#      x y z
#    x 1.809930 0.000000 0.000000 
#    y 0.000000 1.832220 0.000000 
#    z 0.000000 0.000000 1.774090 
# 
# From -- ./inp_files/36927.got.cif
#   From: 2010.05.17/outbox.cif.g08.bks.cpg/sg66_19_cif.got.tgz:36927.got - 2010.06.03 17:51:23.
