data_PCOD9496026
_publ_section_title
;
Structure prediction by ZEFSAII (Michael W. Deem and Ramdas Pophale) SiO2 
 PCOD9496026
Probable space group: C C C M
;
_chemical_formula_sum "Si O2"
_cell_formula_units_Z 104
_cell_length_a 9.344870
_cell_length_b 21.326221
_cell_length_c 26.514181
_cell_angle_alpha 90.000000
_cell_angle_beta 90.000000
_cell_angle_gamma 90.000000
_cell_volume 5284.031357
_symmetry_space_group_name_H-M "C C C M"
_symmetry_group_IT_number 66
_symmetry_cell_setting 'orthorhombic'
loop_
_space_group_symop_operation_xyz
x,y,z
-x,-y,z
x,-y,1/2-z
-x,y,1/2-z
-x,-y,-z
x,y,-z
-x,y,1/2+z
x,-y,1/2+z
1/2+x,1/2+y,z
1/2-x,1/2-y,z
1/2+x,1/2-y,1/2-z
1/2-x,1/2+y,1/2-z
1/2-x,1/2-y,-z
1/2+x,1/2+y,-z
1/2-x,1/2+y,1/2+z
1/2+x,1/2-y,1/2+z
loop_
_atom_site_type_symbol
_atom_site_label
_atom_site_fract_x
_atom_site_fract_y
_atom_site_fract_z
Si Si1 0.460017 0.427339 0.638707
Si Si2 0.694600 0.403954 0.557632
Si Si3 0.497988 0.150948 0.943865
Si Si4 0.227569 0.450464 0.443463
Si Si5 0.954197 0.714424 0.342996
Si Si6 0.686066 0.665811 0.295892
Si Si7 0.250000 0.250000 0.796112
O O1 0.500000 0.500000 0.646811
O O2 0.587754 0.397498 0.604898
O O3 0.327218 0.424087 0.600144
O O4 0.404167 0.395042 0.689743
O O5 0.633873 0.398063 0.500000
O O6 0.759193 0.474617 0.560304
O O7 0.828572 0.357934 0.561654
O O8 0.574520 0.082893 0.938936
O O9 0.555058 0.195192 0.900595
O O10 0.529544 0.174070 0.000000
O O11 0.280779 0.434812 0.500000
O O12 0.854479 0.666032 0.311192
O O13 0.885871 0.781623 0.331539
O O14 0.118883 0.719347 0.325989
O O15 0.683082 0.696243 0.240461
#
# Coordination Sequence:
#
# PCOD9496026 Si02
#       7
#    16  16  16  16  16  16   8
#     4  10  19  32  55  86 118 149 186 235 288 334
#     4   9  18  30  48  79 117 161 199 225 264 331
#     4  10  19  33  52  83 119 153 189 232 287 339
#     4   9  16  30  51  76 113 160 200 226 264 333
#     4  10  21  38  60  86 111 147 190 241 288 347
#     4  10  20  39  59  86 114 141 195 242 285 352
#     4  10  22  40  67  84 103 144 204 248 304 344
#
# _framework density 19.681941999999999
#
# number of rings (size 3 to 8) (size 9 to 14) (size 15 to 20)
#    0.000    2.462    1.538    2.769    2.154    3.692 
#    0.000    3.462    0.000    1.846    0.000    0.000 
#    0.000    0.000    0.000    0.000    0.000    0.000 
#
# Total GULP energy -289741.880100 kJ/mol
# GULP energy per Si atom -5571.959233 kJ/mol
# Density = 1.963715 g / cm^3
# Si number density = 19.681942 Si / 1000 Ang^3
#
#
#
# Elastic Constant Matrix: (Units=GPa)
#
#
# Indices 1 2 3 4 5 6 
#
# 1 83.4554 13.1109 21.7715 0.0000 0.0000 0.0000
# 2 13.1109 21.9493 16.1991 0.0000 0.0000 0.0000
# 3 21.7715 16.1991 68.9076 0.0000 0.0000 0.0000
# 4 0.0000 0.0000 0.0000 7.2105 0.0000 0.0000
# 5 0.0000 0.0000 0.0000 0.0000 26.1819 0.0000
# 6 0.0000 0.0000 0.0000 0.0000 0.0000 24.9291
#
#
#
# Elastic Compliance Matrix: (Units=1/GPa)
#
#
# Indices 1 2 3 4 5 6 
#
# 1 0.013688 -0.006031 -0.002907 0.000000 0.000000 0.000000
# 2 -0.006031 0.057781 -0.011678 0.000000 0.000000 0.000000
# 3 -0.002907 -0.011678 0.018176 0.000000 0.000000 0.000000
# 4 0.000000 0.000000 0.000000 0.138687 0.000000 0.000000
# 5 0.000000 0.000000 0.000000 0.000000 0.038194 0.000000
# 6 0.000000 0.000000 0.000000 0.000000 0.000000 0.040114
#
#
# Mechanical properties :
#
#
# Convention : Reuss Voigt Hill
#
# Bulk Modulus (GPa) = 20.65555 30.71949 25.68752
# Shear Modulus (GPa) = 13.73590 19.87967 16.80779
#
# Velocity S-wave (km/s) = 2.64463 3.18157 2.92545
# Velocity P-wave (km/s) = 4.45454 5.39800 4.94880
#
# Compressibility (1/GPa) = 0.04841314
#
# Stress axis : x y z
#
# Youngs Moduli (GPa) = 73.05514 17.30687 55.01769
#
# Poissons Ratio (x) = 0.10438 0.15994
# Poissons Ratio (y) = 0.44059 0.64249
# Poissons Ratio (z) = 0.21238 0.20211
#
# Static dielectric constant tensor:
#      x y z
#    x 1.736850 0.000000 0.000000 
#    y 0.000000 1.702920 0.000000 
#    z 0.000000 0.000000 1.696700 
# 
# From -- ./inp_files/62826.got.cif
#   From: 2010.05.17/outbox.cif.g08.bks.cpg/sg66_32_cif.got.tgz:62826.got - 2010.06.03 17:51:23.
