data_PCOD9496106
_publ_section_title
;
Structure prediction by ZEFSAII (Michael W. Deem and Ramdas Pophale) SiO2 
 PCOD9496106
Probable space group: C C C M
;
_chemical_formula_sum "Si O2"
_cell_formula_units_Z 96
_cell_length_a 20.931081
_cell_length_b 14.655372
_cell_length_c 16.545023
_cell_angle_alpha 90.000000
_cell_angle_beta 90.000000
_cell_angle_gamma 90.000000
_cell_volume 5075.231774
_symmetry_space_group_name_H-M "C C C M"
_symmetry_group_IT_number 66
_symmetry_cell_setting 'orthorhombic'
loop_
_space_group_symop_operation_xyz
x,y,z
-x,-y,z
x,-y,1/2-z
-x,y,1/2-z
-x,-y,-z
x,y,-z
-x,y,1/2+z
x,-y,1/2+z
1/2+x,1/2+y,z
1/2-x,1/2-y,z
1/2+x,1/2-y,1/2-z
1/2-x,1/2+y,1/2-z
1/2-x,1/2-y,-z
1/2+x,1/2+y,-z
1/2-x,1/2+y,1/2+z
1/2+x,1/2-y,1/2+z
loop_
_atom_site_type_symbol
_atom_site_label
_atom_site_fract_x
_atom_site_fract_y
_atom_site_fract_z
Si Si1 0.057689 0.128425 0.901323
Si Si2 0.776888 0.852667 0.593879
Si Si3 0.570734 0.960570 0.912143
Si Si4 0.086114 0.079082 0.402923
Si Si5 0.658358 0.917437 0.686099
Si Si6 0.571149 0.205908 0.712128
O O1 0.085764 0.205927 0.843029
O O2 0.981995 0.121700 0.879368
O O3 0.086192 0.028367 0.881907
O O4 0.063431 0.143901 0.000000
O O5 0.772842 0.885176 0.500000
O O6 0.750000 0.750000 0.593515
O O7 0.850022 0.867796 0.621150
O O8 0.728958 0.903346 0.653330
O O9 0.570395 0.879530 0.848770
O O10 0.500000 0.000000 0.914122
O O11 0.615591 0.043785 0.886539
O O12 0.589314 0.925169 0.000000
O O13 0.084103 0.081184 0.500000
O O14 0.624022 0.827610 0.722841
O O15 0.657742 0.000000 0.750000
O O16 0.500000 0.213549 0.750000
#
# Coordination Sequence:
#
# PCOD9496106 Si02
#       6
#    16  16  16  16  16  16
#     4   9  18  36  61  87 113 149 193 239 288 344
#     4  10  21  38  61  86 112 149 196 241 284 345
#     4  10  19  33  55  77 102 146 195 236 287 345
#     4   8  17  36  61  86 113 144 190 245 288 329
#     4  10  22  38  53  78 114 151 181 235 296 346
#     4  11  21  33  52  81 119 150 181 238 291 348
#
# _framework density 18.915393000000002
#
# number of rings (size 3 to 8) (size 9 to 14) (size 15 to 20)
#    0.000    2.333    1.667    2.000    2.333    0.000 
#    3.000    1.667    0.000    0.000    0.000    8.167 
#    0.000    0.000    0.000    0.000    0.000    0.000 
#
# Total GULP energy -267495.908964 kJ/mol
# GULP energy per Si atom -5572.831437 kJ/mol
# Density = 1.887234 g / cm^3
# Si number density = 18.915393 Si / 1000 Ang^3
#
#
#
# Elastic Constant Matrix: (Units=GPa)
#
#
# Indices 1 2 3 4 5 6 
#
# 1 82.6294 27.2867 12.2044 0.0000 0.0000 0.0000
# 2 27.2867 81.3896 23.3472 0.0000 0.0000 0.0000
# 3 12.2044 23.3472 51.0170 0.0000 0.0000 0.0000
# 4 0.0000 0.0000 0.0000 97.0104 0.0000 0.0000
# 5 0.0000 0.0000 0.0000 0.0000 25.1505 0.0000
# 6 0.0000 0.0000 0.0000 0.0000 0.0000 15.5087
#
#
#
# Elastic Compliance Matrix: (Units=1/GPa)
#
#
# Indices 1 2 3 4 5 6 
#
# 1 0.013689 -0.004202 -0.001352 0.000000 0.000000 0.000000
# 2 -0.004202 0.015433 -0.006057 0.000000 0.000000 0.000000
# 3 -0.001352 -0.006057 0.022697 0.000000 0.000000 0.000000
# 4 0.000000 0.000000 0.000000 0.010308 0.000000 0.000000
# 5 0.000000 0.000000 0.000000 0.000000 0.039761 0.000000
# 6 0.000000 0.000000 0.000000 0.000000 0.000000 0.064480
#
#
# Mechanical properties :
#
#
# Convention : Reuss Voigt Hill
#
# Bulk Modulus (GPa) = 34.96890 37.85696 36.41293
# Shear Modulus (GPa) = 25.11015 37.68043 31.39529
#
# Velocity S-wave (km/s) = 3.64744 4.46808 4.07845
# Velocity P-wave (km/s) = 6.02209 6.83196 6.43977
#
# Compressibility (1/GPa) = 0.02859684
#
# Stress axis : x y z
#
# Youngs Moduli (GPa) = 73.04892 64.79665 44.05899
#
# Poissons Ratio (x) = 0.27226 0.05957
# Poissons Ratio (y) = 0.30693 0.26689
# Poissons Ratio (z) = 0.09876 0.39251
#
# Static dielectric constant tensor:
#      x y z
#    x 1.666940 0.000000 0.000000 
#    y 0.000000 1.662180 0.000000 
#    z 0.000000 0.000000 1.696270 
# 
# From -- ./inp_files/31204.got.cif
#   From: 2010.05.17/outbox.cif.g08.bks.cpg/sg66_16_cif.got.tgz:31204.got - 2010.06.03 17:51:23.
