data_PCOD9496570
_publ_section_title
;
Structure prediction by ZEFSAII (Michael W. Deem and Ramdas Pophale) SiO2 
 PCOD9496570
Probable space group: C C C M
;
_chemical_formula_sum "Si O2"
_cell_formula_units_Z 112
_cell_length_a 12.574439
_cell_length_b 23.949123
_cell_length_c 14.537547
_cell_angle_alpha 90.000000
_cell_angle_beta 90.000000
_cell_angle_gamma 90.000000
_cell_volume 4377.935559
_symmetry_space_group_name_H-M "C C C M"
_symmetry_group_IT_number 66
_symmetry_cell_setting 'orthorhombic'
loop_
_space_group_symop_operation_xyz
x,y,z
-x,-y,z
x,-y,1/2-z
-x,y,1/2-z
-x,-y,-z
x,y,-z
-x,y,1/2+z
x,-y,1/2+z
1/2+x,1/2+y,z
1/2-x,1/2-y,z
1/2+x,1/2-y,1/2-z
1/2-x,1/2+y,1/2-z
1/2-x,1/2-y,-z
1/2+x,1/2+y,-z
1/2-x,1/2+y,1/2+z
1/2+x,1/2-y,1/2+z
loop_
_atom_site_type_symbol
_atom_site_label
_atom_site_fract_x
_atom_site_fract_y
_atom_site_fract_z
Si Si1 0.013335 0.085114 0.138653
Si Si2 0.550839 0.943888 0.109359
Si Si3 0.558912 0.173884 0.604423
Si Si4 0.757310 0.310865 0.251036
Si Si5 0.727826 0.520953 0.852322
Si Si6 0.453879 0.707047 0.647895
Si Si7 0.781327 0.905617 0.598910
O O1 0.121722 0.053146 0.114224
O O2 0.012756 0.148881 0.105082
O O3 0.000000 0.083849 0.250000
O O4 0.899605 0.066130 0.102713
O O5 0.494891 0.883429 0.122775
O O6 0.671827 0.937460 0.145607
O O7 0.500000 0.000000 0.148837
O O8 0.558222 0.950869 0.000000
O O9 0.605659 0.166855 0.500000
O O10 0.634715 0.180717 0.693025
O O11 0.510014 0.235800 0.602032
O O12 0.750000 0.250000 0.202322
O O13 0.670931 0.302907 0.332889
O O14 0.731757 0.361640 0.181689
O O15 0.703172 0.500000 0.750000
O O16 0.779029 0.464705 0.896299
O O17 0.500000 0.708421 0.750000
O O18 0.762198 0.878708 0.500000
#
# Coordination Sequence:
#
# PCOD9496570 Si02
#       7
#    16  16  16  16  16  16  16
#     4  11  21  40  67  96 137 185 221 279 357 423
#     4  10  23  45  64  89 134 175 221 289 346 403
#     4  10  22  41  70 101 127 172 237 297 350 409
#     4  10  21  42  67  91 134 179 224 291 350 418
#     4  12  23  40  68  95 130 178 227 285 347 414
#     4  10  19  38  63  91 133 174 213 279 353 414
#     4  12  25  40  63 100 137 182 234 278 342 432
#
# _framework density 25.582833999999998
#
# number of rings (size 3 to 8) (size 9 to 14) (size 15 to 20)
#    0.000    1.286    4.286    2.571    0.000    5.429 
#    7.714    0.000    0.000    0.000    0.000    0.000 
#    0.000    0.000    0.000    0.000    0.000    0.000 
#
# Total GULP energy -312429.118025 kJ/mol
# GULP energy per Si atom -5579.091393 kJ/mol
# Density = 2.552461 g / cm^3
# Si number density = 25.582834 Si / 1000 Ang^3
#
#
#
# Elastic Constant Matrix: (Units=GPa)
#
#
# Indices 1 2 3 4 5 6 
#
# 1 48.9690 18.3800 -1.0028 0.0000 0.0000 0.0000
# 2 18.3800 228.5288 35.5289 0.0000 0.0000 0.0000
# 3 -1.0028 35.5289 122.1199 0.0000 0.0000 0.0000
# 4 0.0000 0.0000 0.0000 -51.2037 0.0000 0.0000
# 5 0.0000 0.0000 0.0000 0.0000 0.5418 0.0000
# 6 0.0000 0.0000 0.0000 0.0000 0.0000 31.0726
#
#
#
# Elastic Compliance Matrix: (Units=1/GPa)
#
#
# Indices 1 2 3 4 5 6 
#
# 1 0.021114 -0.001807 0.000699 0.000000 0.000000 0.000000
# 2 -0.001807 0.004738 -0.001393 0.000000 0.000000 0.000000
# 3 0.000699 -0.001393 0.008600 0.000000 0.000000 0.000000
# 4 0.000000 0.000000 0.000000 -0.019530 0.000000 0.000000
# 5 0.000000 0.000000 0.000000 0.000000 1.845767 0.000000
# 6 0.000000 0.000000 0.000000 0.000000 0.000000 0.032183
#
#
# Mechanical properties :
#
#
# Convention : Reuss Voigt Hill
#
# Bulk Modulus (GPa) = 33.95687 56.15887 45.05787
# Shear Modulus (GPa) = 2.62097 19.19624 10.90860
#
# Velocity S-wave (km/s) = 1.01328 2.74223 2.06719
# Velocity P-wave (km/s) = 3.83029 5.65914 4.83203
#
# Compressibility (1/GPa) = 0.02944912
#
# Stress axis : x y z
#
# Youngs Moduli (GPa) = 47.36288 211.07147 116.28255
#
# Poissons Ratio (x) = 0.38136 -0.08129
# Poissons Ratio (y) = 0.08557 0.16201
# Poissons Ratio (z) = -0.03311 0.29407
#
# Static dielectric constant tensor:
#      x y z
#    x 2.185130 0.000000 0.000000 
#    y 0.000000 2.099810 0.000000 
#    z 0.000000 0.000000 2.057110 
# 
# From -- ./inp_files/28694.got.cif
#   From: 2010.05.17/outbox.cif.g08.bks.cpg/sg66_15_cif.got.tgz:28694.got - 2010.06.03 17:51:23.
