data_PCOD9496054
_publ_section_title
;
Structure prediction by ZEFSAII (Michael W. Deem and Ramdas Pophale) SiO2 
 PCOD9496054
Probable space group: C C C M
;
_chemical_formula_sum "Si O2"
_cell_formula_units_Z 112
_cell_length_a 20.442525
_cell_length_b 17.851747
_cell_length_c 18.753314
_cell_angle_alpha 90.000000
_cell_angle_beta 90.000000
_cell_angle_gamma 90.000000
_cell_volume 6843.736600
_symmetry_space_group_name_H-M "C C C M"
_symmetry_group_IT_number 66
_symmetry_cell_setting 'orthorhombic'
loop_
_space_group_symop_operation_xyz
x,y,z
-x,-y,z
x,-y,1/2-z
-x,y,1/2-z
-x,-y,-z
x,y,-z
-x,y,1/2+z
x,-y,1/2+z
1/2+x,1/2+y,z
1/2-x,1/2-y,z
1/2+x,1/2-y,1/2-z
1/2-x,1/2+y,1/2-z
1/2-x,1/2-y,-z
1/2+x,1/2+y,-z
1/2-x,1/2+y,1/2+z
1/2+x,1/2-y,1/2+z
loop_
_atom_site_type_symbol
_atom_site_label
_atom_site_fract_x
_atom_site_fract_y
_atom_site_fract_z
Si Si1 0.897851 0.335165 0.367198
Si Si2 0.976413 0.414611 0.919398
Si Si3 0.115272 0.651185 0.202058
Si Si4 0.312088 0.299058 0.867999
Si Si5 0.750675 0.559110 0.686583
Si Si6 0.313994 0.704885 0.195968
Si Si7 0.229000 0.428097 0.083829
O O1 0.912132 0.344970 0.282636
O O2 0.875643 0.250230 0.385398
O O3 0.833968 0.385921 0.383068
O O4 0.959248 0.363632 0.410982
O O5 0.927500 0.390833 0.856623
O O6 0.000000 0.500000 0.909411
O O7 0.949267 0.407876 0.000000
O O8 0.185075 0.607841 0.207392
O O9 0.127827 0.737732 0.179209
O O10 0.250000 0.250000 0.893510
O O11 0.310177 0.300366 0.782126
O O12 0.294435 0.380571 0.896919
O O13 0.736518 0.500000 0.750000
O O14 0.693477 0.619379 0.672265
O O15 0.766177 0.509288 0.618344
O O16 0.250000 0.750000 0.170220
O O17 0.220464 0.430366 0.000000
#
# Coordination Sequence:
#
# PCOD9496054 Si02
#       7
#    16  16  16  16  16  16  16
#     4  10  19  33  50  70  96 133 169 203 247 299
#     4  11  24  36  47  68 102 139 176 213 243 282
#     4  10  20  33  52  72  96 134 173 205 237 297
#     4   8  15  28  46  69  97 124 155 197 254 305
#     4  11  17  30  52  73  97 133 159 196 247 296
#     4   8  15  30  49  71  94 123 166 201 238 292
#     4  11  20  28  45  77 106 126 157 204 257 308
#
# _framework density 16.365328999999999
#
# number of rings (size 3 to 8) (size 9 to 14) (size 15 to 20)
#    0.000    2.143    2.857    3.429    0.000    5.429 
#    0.000    0.714    0.000    2.571    0.000    1.000 
#    0.000    2.286    0.000    0.000    0.000    0.000 
#
# Total GULP energy -311859.900347 kJ/mol
# GULP energy per Si atom -5568.926792 kJ/mol
# Density = 1.632808 g / cm^3
# Si number density = 16.365329 Si / 1000 Ang^3
#
#
#
# Elastic Constant Matrix: (Units=GPa)
#
#
# Indices 1 2 3 4 5 6 
#
# 1 16.6545 9.7047 17.2741 0.0000 0.0000 0.0000
# 2 9.7047 71.8787 14.9825 0.0000 0.0000 0.0000
# 3 17.2741 14.9825 73.5844 0.0000 0.0000 0.0000
# 4 0.0000 0.0000 0.0000 10.6521 0.0000 0.0000
# 5 0.0000 0.0000 0.0000 0.0000 10.7317 0.0000
# 6 0.0000 0.0000 0.0000 0.0000 0.0000 20.9189
#
#
#
# Elastic Compliance Matrix: (Units=1/GPa)
#
#
# Indices 1 2 3 4 5 6 
#
# 1 0.083035 -0.007465 -0.017973 0.000000 0.000000 0.000000
# 2 -0.007465 0.015200 -0.001343 0.000000 0.000000 0.000000
# 3 -0.017973 -0.001343 0.018082 0.000000 0.000000 0.000000
# 4 0.000000 0.000000 0.000000 0.093879 0.000000 0.000000
# 5 0.000000 0.000000 0.000000 0.000000 0.093182 0.000000
# 6 0.000000 0.000000 0.000000 0.000000 0.000000 0.047804
#
#
# Mechanical properties :
#
#
# Convention : Reuss Voigt Hill
#
# Bulk Modulus (GPa) = 15.93437 27.33779 21.63608
# Shear Modulus (GPa) = 11.74644 16.47094 14.10869
#
# Velocity S-wave (km/s) = 2.68202 3.17591 2.93935
# Velocity P-wave (km/s) = 4.39872 5.49450 4.97686
#
# Compressibility (1/GPa) = 0.06275744
#
# Stress axis : x y z
#
# Youngs Moduli (GPa) = 12.04309 65.78946 55.30255
#
# Poissons Ratio (x) = 0.49110 0.99394
# Poissons Ratio (y) = 0.08990 0.07424
# Poissons Ratio (z) = 0.21645 0.08832
#
# Static dielectric constant tensor:
#      x y z
#    x 1.560790 0.000000 0.000000 
#    y 0.000000 1.590870 0.000000 
#    z 0.000000 0.000000 1.553760 
# 
# From -- ./inp_files/43044.got.cif
#   From: 2010.05.17/outbox.cif.g08.bks.cpg/sg66_22_cif.got.tgz:43044.got - 2010.06.03 17:51:23.
