data_PCOD9496674
_publ_section_title
;
Structure prediction by ZEFSAII (Michael W. Deem and Ramdas Pophale) SiO2 
 PCOD9496674
Probable space group: C C C M
;
_chemical_formula_sum "Si O2"
_cell_formula_units_Z 88
_cell_length_a 11.579444
_cell_length_b 21.151297
_cell_length_c 15.749359
_cell_angle_alpha 90.000000
_cell_angle_beta 90.000000
_cell_angle_gamma 90.000000
_cell_volume 3857.337088
_symmetry_space_group_name_H-M "C C C M"
_symmetry_group_IT_number 66
_symmetry_cell_setting 'orthorhombic'
loop_
_space_group_symop_operation_xyz
x,y,z
-x,-y,z
x,-y,1/2-z
-x,y,1/2-z
-x,-y,-z
x,y,-z
-x,y,1/2+z
x,-y,1/2+z
1/2+x,1/2+y,z
1/2-x,1/2-y,z
1/2+x,1/2-y,1/2-z
1/2-x,1/2+y,1/2-z
1/2-x,1/2-y,-z
1/2+x,1/2+y,-z
1/2-x,1/2+y,1/2+z
1/2+x,1/2-y,1/2+z
loop_
_atom_site_type_symbol
_atom_site_label
_atom_site_fract_x
_atom_site_fract_y
_atom_site_fract_z
Si Si1 0.717117 0.676467 0.906774
Si Si2 0.276183 0.500000 0.750000
Si Si3 0.886605 0.233487 0.906291
Si Si4 0.878403 0.443901 0.595920
Si Si5 0.335017 0.367254 0.723207
Si Si6 0.067475 0.365234 0.337513
O O1 0.750000 0.750000 0.902249
O O2 0.822873 0.626849 0.905796
O O3 0.657374 0.659552 0.818202
O O4 0.661241 0.666547 0.000000
O O5 0.193039 0.521625 0.671247
O O6 0.356716 0.441447 0.724720
O O7 0.750000 0.250000 0.903556
O O8 0.903699 0.179134 0.837917
O O9 0.948098 0.299875 0.888073
O O10 0.913563 0.210853 0.000000
O O11 0.864617 0.469568 0.500000
O O12 0.012023 0.426853 0.617454
O O13 0.201826 0.368034 0.688259
O O14 0.000000 0.359880 0.250000
#
# Coordination Sequence:
#
# PCOD9496674 Si02
#       6
#    16   8  16  16  16  16
#     4   9  16  28  46  69  95 124 160 210 264 304
#     4  10  20  35  50  72 107 142 180 206 249 312
#     4   9  19  33  50  72 101 139 178 212 256 314
#     4  10  21  33  49  73 103 138 173 213 257 307
#     4  10  20  32  50  69 102 139 175 211 248 302
#     4  11  18  31  51  73 103 135 168 216 268 307
#
# _framework density 22.813665
#
# number of rings (size 3 to 8) (size 9 to 14) (size 15 to 20)
#    0.000    2.182    3.636    2.182    0.000    2.909 
#    0.000    0.909    0.000    1.091    0.000    0.636 
#    0.000    1.455    0.000    0.000    0.000    0.000 
#
# Total GULP energy -245653.696980 kJ/mol
# GULP energy per Si atom -5583.038568 kJ/mol
# Density = 2.276174 g / cm^3
# Si number density = 22.813665 Si / 1000 Ang^3
#
#
#
# Elastic Constant Matrix: (Units=GPa)
#
#
# Indices 1 2 3 4 5 6 
#
# 1 73.0120 5.1003 8.5611 0.0000 0.0000 0.0000
# 2 5.1003 124.2805 66.8027 0.0000 0.0000 0.0000
# 3 8.5611 66.8027 191.1388 0.0000 0.0000 0.0000
# 4 0.0000 0.0000 0.0000 38.2889 0.0000 0.0000
# 5 0.0000 0.0000 0.0000 0.0000 166.2667 0.0000
# 6 0.0000 0.0000 0.0000 0.0000 0.0000 28.2237
#
#
#
# Elastic Compliance Matrix: (Units=1/GPa)
#
#
# Indices 1 2 3 4 5 6 
#
# 1 0.013777 -0.000288 -0.000516 0.000000 0.000000 0.000000
# 2 -0.000288 0.009914 -0.003452 0.000000 0.000000 0.000000
# 3 -0.000516 -0.003452 0.006461 0.000000 0.000000 0.000000
# 4 0.000000 0.000000 0.000000 0.026117 0.000000 0.000000
# 5 0.000000 0.000000 0.000000 0.000000 0.006014 0.000000
# 6 0.000000 0.000000 0.000000 0.000000 0.000000 0.035431
#
#
# Mechanical properties :
#
#
# Convention : Reuss Voigt Hill
#
# Bulk Modulus (GPa) = 46.21142 61.03994 53.62568
# Shear Modulus (GPa) = 44.07601 67.08700 55.58150
#
# Velocity S-wave (km/s) = 4.40022 5.42866 4.94127
# Velocity P-wave (km/s) = 6.79087 8.13067 7.49078
#
# Compressibility (1/GPa) = 0.02163967
#
# Stress axis : x y z
#
# Youngs Moduli (GPa) = 72.58454 100.87185 154.76606
#
# Poissons Ratio (x) = 0.02903 0.07994
# Poissons Ratio (y) = 0.02089 0.53424
# Poissons Ratio (z) = 0.03749 0.34820
#
# Static dielectric constant tensor:
#      x y z
#    x 1.906460 0.000000 0.000000 
#    y 0.000000 1.903090 0.000000 
#    z 0.000000 0.000000 1.844910 
# 
# From -- ./inp_files/28235.got.cif
#   From: 2010.05.17/outbox.cif.g08.bks.cpg/sg66_15_cif.got.tgz:28235.got - 2010.06.03 17:51:23.
