data_PCOD9496938
_publ_section_title
;
Structure prediction by ZEFSAII (Michael W. Deem and Ramdas Pophale) SiO2 
 PCOD9496938
Probable space group: C C C M
;
_chemical_formula_sum "Si O2"
_cell_formula_units_Z 88
_cell_length_a 20.032686
_cell_length_b 8.995768
_cell_length_c 25.194840
_cell_angle_alpha 90.000000
_cell_angle_beta 90.000000
_cell_angle_gamma 90.000000
_cell_volume 4540.346890
_symmetry_space_group_name_H-M "C C C M"
_symmetry_group_IT_number 66
_symmetry_cell_setting 'orthorhombic'
loop_
_space_group_symop_operation_xyz
x,y,z
-x,-y,z
x,-y,1/2-z
-x,y,1/2-z
-x,-y,-z
x,y,-z
-x,y,1/2+z
x,-y,1/2+z
1/2+x,1/2+y,z
1/2-x,1/2-y,z
1/2+x,1/2-y,1/2-z
1/2-x,1/2+y,1/2-z
1/2-x,1/2-y,-z
1/2+x,1/2+y,-z
1/2-x,1/2+y,1/2+z
1/2+x,1/2-y,1/2+z
loop_
_atom_site_type_symbol
_atom_site_label
_atom_site_fract_x
_atom_site_fract_y
_atom_site_fract_z
Si Si1 0.174957 0.225518 0.226677
Si Si2 0.500000 0.500000 0.112164
Si Si3 0.293653 0.515295 0.626478
Si Si4 0.638361 0.964383 0.141826
Si Si5 0.610649 0.291286 0.561859
Si Si6 0.105906 0.208651 0.335789
O O1 0.250000 0.250000 0.249061
O O2 0.185585 0.102679 0.180861
O O3 0.147954 0.369801 0.195830
O O4 0.126386 0.189320 0.274545
O O5 0.449417 0.402281 0.077267
O O6 0.542244 0.387141 0.148161
O O7 0.214684 0.501393 0.624685
O O8 0.322902 0.619837 0.580385
O O9 0.333285 0.361701 0.629930
O O10 0.606912 0.855487 0.098183
O O11 0.600451 0.117449 0.151610
O O12 0.611129 0.257600 0.500000
#
# Coordination Sequence:
#
# PCOD9496938 Si02
#       6
#    16   8  16  16  16  16
#     4   9  17  32  57  87 118 149 177 215 277 341
#     4  10  25  42  57  76 104 150 202 236 268 326
#     4   9  19  34  57  91 119 143 179 220 273 343
#     4  10  20  34  58  92 117 139 181 229 280 337
#     4  10  21  41  63  79 107 147 185 231 283 332
#     4  11  20  35  56  81 117 155 186 224 268 321
#
# _framework density 19.381779999999999
#
# number of rings (size 3 to 8) (size 9 to 14) (size 15 to 20)
#    0.000    2.182    0.000    4.636    0.000    5.091 
#    0.000   21.818    0.000   14.182    0.000    0.000 
#    0.000    0.000    0.000    0.000    0.000    0.000 
#
# Total GULP energy -245782.097500 kJ/mol
# GULP energy per Si atom -5585.956761 kJ/mol
# Density = 1.933767 g / cm^3
# Si number density = 19.381780 Si / 1000 Ang^3
#
#
#
# Elastic Constant Matrix: (Units=GPa)
#
#
# Indices 1 2 3 4 5 6 
#
# 1 59.2344 28.0560 34.5287 0.0000 0.0000 0.0000
# 2 28.0560 126.1691 32.2374 0.0000 0.0000 0.0000
# 3 34.5287 32.2374 94.2551 0.0000 0.0000 0.0000
# 4 0.0000 0.0000 0.0000 7.1199 0.0000 0.0000
# 5 0.0000 0.0000 0.0000 0.0000 15.7088 0.0000
# 6 0.0000 0.0000 0.0000 0.0000 0.0000 17.4173
#
#
#
# Elastic Compliance Matrix: (Units=1/GPa)
#
#
# Indices 1 2 3 4 5 6 
#
# 1 0.022577 -0.003186 -0.007181 0.000000 0.000000 0.000000
# 2 -0.003186 0.009134 -0.001957 0.000000 0.000000 0.000000
# 3 -0.007181 -0.001957 0.013910 0.000000 0.000000 0.000000
# 4 0.000000 0.000000 0.000000 0.140452 0.000000 0.000000
# 5 0.000000 0.000000 0.000000 0.000000 0.063659 0.000000
# 6 0.000000 0.000000 0.000000 0.000000 0.000000 0.057414
#
#
# Mechanical properties :
#
#
# Convention : Reuss Voigt Hill
#
# Bulk Modulus (GPa) = 47.68010 52.14475 49.91242
# Shear Modulus (GPa) = 14.75867 20.37163 17.56515
#
# Velocity S-wave (km/s) = 2.76247 3.24554 3.01370
# Velocity P-wave (km/s) = 5.90160 6.40368 6.15776
#
# Compressibility (1/GPa) = 0.02097311
#
# Stress axis : x y z
#
# Youngs Moduli (GPa) = 44.29309 109.47733 71.89290
#
# Poissons Ratio (x) = 0.34875 0.51627
# Poissons Ratio (y) = 0.14110 0.14071
# Poissons Ratio (z) = 0.31807 0.21427
#
# Static dielectric constant tensor:
#      x y z
#    x 1.684180 0.000000 0.000000 
#    y 0.000000 1.708850 0.000000 
#    z 0.000000 0.000000 1.647280 
# 
# From -- ./inp_files/59395.got.cif
#   From: 2010.05.17/outbox.cif.g08.bks.cpg/sg66_30_cif.got.tgz:59395.got - 2010.06.03 17:51:23.
