data_PCOD9496528
_publ_section_title
;
Structure prediction by ZEFSAII (Michael W. Deem and Ramdas Pophale) SiO2 
 PCOD9496528
Probable space group: C C C M
;
_chemical_formula_sum "Si O2"
_cell_formula_units_Z 88
_cell_length_a 27.028427
_cell_length_b 6.890339
_cell_length_c 23.413776
_cell_angle_alpha 90.000000
_cell_angle_beta 90.000000
_cell_angle_gamma 90.000000
_cell_volume 4360.465151
_symmetry_space_group_name_H-M "C C C M"
_symmetry_group_IT_number 66
_symmetry_cell_setting 'orthorhombic'
loop_
_space_group_symop_operation_xyz
x,y,z
-x,-y,z
x,-y,1/2-z
-x,y,1/2-z
-x,-y,-z
x,y,-z
-x,y,1/2+z
x,-y,1/2+z
1/2+x,1/2+y,z
1/2-x,1/2-y,z
1/2+x,1/2-y,1/2-z
1/2-x,1/2+y,1/2-z
1/2-x,1/2-y,-z
1/2+x,1/2+y,-z
1/2-x,1/2+y,1/2+z
1/2+x,1/2-y,1/2+z
loop_
_atom_site_type_symbol
_atom_site_label
_atom_site_fract_x
_atom_site_fract_y
_atom_site_fract_z
Si Si1 0.192855 0.204188 0.500000
Si Si2 0.453523 0.861302 0.877939
Si Si3 0.136462 0.849491 0.500000
Si Si4 0.693111 0.816885 0.627689
Si Si5 0.110197 0.059137 0.315453
Si Si6 0.454958 0.348399 0.500000
Si Si7 0.634766 0.161953 0.379273
O O1 0.250000 0.250000 0.500000
O O2 0.174341 0.278958 0.561836
O O3 0.186112 0.974170 0.500000
O O4 0.437914 0.674646 0.839652
O O5 0.500000 0.000000 0.864023
O O6 0.407830 0.005559 0.870551
O O7 0.457543 0.781340 0.942846
O O8 0.134467 0.719086 0.445032
O O9 0.094175 0.016854 0.500000
O O10 0.750000 0.750000 0.631680
O O11 0.657855 0.693742 0.669631
O O12 0.684343 0.045904 0.637830
O O13 0.104794 0.000000 0.250000
O O14 0.121354 0.858946 0.347707
O O15 0.500000 0.500000 0.500000
#
# Coordination Sequence:
#
# PCOD9496528 Si02
#       7
#     8  16   8  16  16   8  16
#     4  10  19  37  61  96 138 165 214 272 329 405
#     4  11  24  42  67 100 133 168 214 272 334 398
#     4  12  18  37  66  95 132 179 199 271 346 390
#     4  10  22  42  63  98 135 171 225 279 333 397
#     4  11  25  46  66  92 132 177 229 275 321 395
#     4  12  22  38  70 100 138 161 210 269 338 413
#     4  11  22  40  68  92 133 172 216 271 337 391
#
# _framework density 20.181332000000001
#
# number of rings (size 3 to 8) (size 9 to 14) (size 15 to 20)
#    0.000    1.091    3.636    3.545    0.000    3.636 
#    3.273    4.545    0.000    0.000    0.000    0.000 
#    0.000    0.000    0.000    0.000    0.000    0.000 
#
# Total GULP energy -245564.292134 kJ/mol
# GULP energy per Si atom -5581.006639 kJ/mol
# Density = 2.013540 g / cm^3
# Si number density = 20.181332 Si / 1000 Ang^3
#
#
#
# Elastic Constant Matrix: (Units=GPa)
#
#
# Indices 1 2 3 4 5 6 
#
# 1 105.1864 53.2175 32.1042 0.0000 0.0000 0.0000
# 2 53.2175 157.0365 58.6316 0.0000 0.0000 0.0000
# 3 32.1042 58.6316 137.0059 0.0000 0.0000 0.0000
# 4 0.0000 0.0000 0.0000 189.5629 0.0000 0.0000
# 5 0.0000 0.0000 0.0000 0.0000 3.7082 0.0000
# 6 0.0000 0.0000 0.0000 0.0000 0.0000 34.5350
#
#
#
# Elastic Compliance Matrix: (Units=1/GPa)
#
#
# Indices 1 2 3 4 5 6 
#
# 1 0.011648 -0.003485 -0.001238 0.000000 0.000000 0.000000
# 2 -0.003485 0.008622 -0.002873 0.000000 0.000000 0.000000
# 3 -0.001238 -0.002873 0.008819 0.000000 0.000000 0.000000
# 4 0.000000 0.000000 0.000000 0.005275 0.000000 0.000000
# 5 0.000000 0.000000 0.000000 0.000000 0.269671 0.000000
# 6 0.000000 0.000000 0.000000 0.000000 0.000000 0.028956
#
#
# Mechanical properties :
#
#
# Convention : Reuss Voigt Hill
#
# Bulk Modulus (GPa) = 71.96294 76.34837 74.15565
# Shear Modulus (GPa) = 14.17173 62.57959 38.37566
#
# Velocity S-wave (km/s) = 2.65282 5.57458 4.36540
# Velocity P-wave (km/s) = 6.71706 8.90775 7.88881
#
# Compressibility (1/GPa) = 0.01389604
#
# Stress axis : x y z
#
# Youngs Moduli (GPa) = 85.85138 115.98672 113.39747
#
# Poissons Ratio (x) = 0.40423 0.14038
# Poissons Ratio (y) = 0.29920 0.32579
# Poissons Ratio (z) = 0.10628 0.33323
#
# Static dielectric constant tensor:
#      x y z
#    x 1.764890 0.000000 0.000000 
#    y 0.000000 1.723940 0.000000 
#    z 0.000000 0.000000 1.774220 
# 
# From -- ./inp_files/60430.got.cif
#   From: 2010.05.17/outbox.cif.g08.bks.cpg/sg66_31_cif.got.tgz:60430.got - 2010.06.03 17:51:23.
