data_PCOD9496407
_publ_section_title
;
Structure prediction by ZEFSAII (Michael W. Deem and Ramdas Pophale) SiO2 
 PCOD9496407
Probable space group: C C C M
;
_chemical_formula_sum "Si O2"
_cell_formula_units_Z 64
_cell_length_a 16.978292
_cell_length_b 10.942670
_cell_length_c 14.919244
_cell_angle_alpha 90.000000
_cell_angle_beta 90.000000
_cell_angle_gamma 90.000000
_cell_volume 2771.814214
_symmetry_space_group_name_H-M "C C C M"
_symmetry_group_IT_number 66
_symmetry_cell_setting 'orthorhombic'
loop_
_space_group_symop_operation_xyz
x,y,z
-x,-y,z
x,-y,1/2-z
-x,y,1/2-z
-x,-y,-z
x,y,-z
-x,y,1/2+z
x,-y,1/2+z
1/2+x,1/2+y,z
1/2-x,1/2-y,z
1/2+x,1/2-y,1/2-z
1/2-x,1/2+y,1/2-z
1/2-x,1/2-y,-z
1/2+x,1/2+y,-z
1/2-x,1/2+y,1/2+z
1/2+x,1/2-y,1/2+z
loop_
_atom_site_type_symbol
_atom_site_label
_atom_site_fract_x
_atom_site_fract_y
_atom_site_fract_z
Si Si1 0.586567 0.942462 0.104338
Si Si2 0.018691 0.802791 0.603098
Si Si3 0.120349 0.034468 0.647690
Si Si4 0.217040 0.625362 0.102080
O O1 0.569423 0.808194 0.144065
O O2 0.500000 0.000000 0.105006
O O3 0.648489 0.040726 0.142577
O O4 0.612567 0.924998 0.000000
O O5 0.001326 0.768865 0.500000
O O6 0.935314 0.844953 0.644152
O O7 0.071184 0.923877 0.605970
O O8 0.203034 0.048190 0.599890
O O9 0.134251 0.000000 0.750000
O O10 0.250000 0.750000 0.146977
O O11 0.191377 0.658378 0.000000
#
# Coordination Sequence:
#
# PCOD9496407 Si02
#       4
#    16  16  16  16
#     4   9  18  33  58  89 114 142 190 250 297 342
#     4  10  19  35  61  86 110 149 200 248 293 349
#     4  11  22  37  56  82 120 157 193 241 305 367
#     4  10  20  37  61  87 117 156 202 250 302 359
#
# _framework density 23.089570999999999
#
# number of rings (size 3 to 8) (size 9 to 14) (size 15 to 20)
#    0.000    2.000    0.000    6.000    0.000    5.000 
#    4.500    3.750    0.000    0.000    0.000    0.000 
#    0.000    0.000    0.000    0.000    0.000    0.000 
#
# Total GULP energy -178542.742524 kJ/mol
# GULP energy per Si atom -5579.460704 kJ/mol
# Density = 2.303702 g / cm^3
# Si number density = 23.089571 Si / 1000 Ang^3
#
#
#
# Elastic Constant Matrix: (Units=GPa)
#
#
# Indices 1 2 3 4 5 6 
#
# 1 155.5321 68.1760 0.3470 0.0000 0.0000 0.0000
# 2 68.1760 154.7103 6.9052 0.0000 0.0000 0.0000
# 3 0.3470 6.9052 60.4093 0.0000 0.0000 0.0000
# 4 0.0000 0.0000 0.0000 28.4569 0.0000 0.0000
# 5 0.0000 0.0000 0.0000 0.0000 1332.4101 0.0000
# 6 0.0000 0.0000 0.0000 0.0000 0.0000 46.4066
#
#
#
# Elastic Compliance Matrix: (Units=1/GPa)
#
#
# Indices 1 2 3 4 5 6 
#
# 1 0.007977 -0.003531 0.000358 0.000000 0.000000 0.000000
# 2 -0.003531 0.008060 -0.000901 0.000000 0.000000 0.000000
# 3 0.000358 -0.000901 0.016655 0.000000 0.000000 0.000000
# 4 0.000000 0.000000 0.000000 0.035141 0.000000 0.000000
# 5 0.000000 0.000000 0.000000 0.000000 0.000751 0.000000
# 6 0.000000 0.000000 0.000000 0.000000 0.000000 0.021549
#
#
# Mechanical properties :
#
#
# Convention : Reuss Voigt Hill
#
# Bulk Modulus (GPa) = 40.74528 57.94533 49.34531
# Shear Modulus (GPa) = 46.96582 301.13629 174.05106
#
# Velocity S-wave (km/s) = 4.51496 11.43259 8.69163
# Velocity P-wave (km/s) = 6.69811 14.12170 11.05186
#
# Compressibility (1/GPa) = 0.02454272
#
# Stress axis : x y z
#
# Youngs Moduli (GPa) = 125.36816 124.07110 60.04315
#
# Poissons Ratio (x) = 0.43809 -0.02148
# Poissons Ratio (y) = 0.44267 0.05410
# Poissons Ratio (z) = -0.04486 0.11179
#
# Static dielectric constant tensor:
#      x y z
#    x 1.860770 0.000000 0.000000 
#    y 0.000000 1.948940 0.000000 
#    z 0.000000 0.000000 1.902320 
# 
# From -- ./inp_files/39775.got.cif
#   From: 2010.05.17/outbox.cif.g08.bks.cpg/sg66_20_cif.got.tgz:39775.got - 2010.06.03 17:51:23.
