data_PCOD9496756
_publ_section_title
;
Structure prediction by ZEFSAII (Michael W. Deem and Ramdas Pophale) SiO2 
 PCOD9496756
Probable space group: C C C M
;
_chemical_formula_sum "Si O2"
_cell_formula_units_Z 80
_cell_length_a 11.716864
_cell_length_b 24.949925
_cell_length_c 14.917819
_cell_angle_alpha 90.000000
_cell_angle_beta 90.000000
_cell_angle_gamma 90.000000
_cell_volume 4360.998798
_symmetry_space_group_name_H-M "C C C M"
_symmetry_group_IT_number 66
_symmetry_cell_setting 'orthorhombic'
loop_
_space_group_symop_operation_xyz
x,y,z
-x,-y,z
x,-y,1/2-z
-x,y,1/2-z
-x,-y,-z
x,y,-z
-x,y,1/2+z
x,-y,1/2+z
1/2+x,1/2+y,z
1/2-x,1/2-y,z
1/2+x,1/2-y,1/2-z
1/2-x,1/2+y,1/2-z
1/2-x,1/2-y,-z
1/2+x,1/2+y,-z
1/2-x,1/2+y,1/2+z
1/2+x,1/2-y,1/2+z
loop_
_atom_site_type_symbol
_atom_site_label
_atom_site_fract_x
_atom_site_fract_y
_atom_site_fract_z
Si Si1 0.284702 0.902300 0.897554
Si Si2 0.249218 0.186597 0.107458
Si Si3 0.811729 0.520901 0.844440
Si Si4 0.368964 0.395445 0.771388
Si Si5 0.537017 0.118870 0.395397
O O1 0.192640 0.885824 0.823997
O O2 0.408667 0.883837 0.860226
O O3 0.286842 0.967265 0.898747
O O4 0.266131 0.883689 0.000000
O O5 0.250000 0.250000 0.120985
O O6 0.153452 0.155007 0.163403
O O7 0.370286 0.161254 0.138879
O O8 0.236851 0.176094 0.000000
O O9 0.858699 0.500000 0.750000
O O10 0.698508 0.555228 0.819195
O O11 0.901809 0.561399 0.886557
O O12 0.500000 0.406728 0.750000
O O13 0.522407 0.130786 0.500000
#
# Coordination Sequence:
#
# PCOD9496756 Si02
#       5
#    16  16  16  16  16
#     4  10  20  33  52  80 114 147 180 225 280 335
#     4   9  19  38  62  84 105 138 186 239 293 342
#     4   9  18  29  48  75 109 147 186 221 270 327
#     4  10  22  38  52  77 111 149 191 234 274 335
#     4   9  17  31  52  79 109 138 178 230 279 331
#
# _framework density 18.344421000000001
#
# number of rings (size 3 to 8) (size 9 to 14) (size 15 to 20)
#    0.000    2.600    0.000    1.200    0.000   16.400 
#    3.600    1.000    0.000    0.600    0.000    0.000 
#    0.000    0.000    0.000    0.000    0.000    0.000 
#
# Total GULP energy -222945.290103 kJ/mol
# GULP energy per Si atom -5573.632253 kJ/mol
# Density = 1.830267 g / cm^3
# Si number density = 18.344421 Si / 1000 Ang^3
#
#
#
# Elastic Constant Matrix: (Units=GPa)
#
#
# Indices 1 2 3 4 5 6 
#
# 1 120.0321 3.1154 20.4298 0.0000 0.0000 0.0000
# 2 3.1154 59.3057 12.4696 0.0000 0.0000 0.0000
# 3 20.4298 12.4696 65.2316 0.0000 0.0000 0.0000
# 4 0.0000 0.0000 0.0000 26.1243 0.0000 0.0000
# 5 0.0000 0.0000 0.0000 0.0000 18.9209 0.0000
# 6 0.0000 0.0000 0.0000 0.0000 0.0000 6.2510
#
#
#
# Elastic Compliance Matrix: (Units=1/GPa)
#
#
# Indices 1 2 3 4 5 6 
#
# 1 0.008801 0.000122 -0.002780 0.000000 0.000000 0.000000
# 2 0.000122 0.017570 -0.003397 0.000000 0.000000 0.000000
# 3 -0.002780 -0.003397 0.016850 0.000000 0.000000 0.000000
# 4 0.000000 0.000000 0.000000 0.038278 0.000000 0.000000
# 5 0.000000 0.000000 0.000000 0.000000 0.052852 0.000000
# 6 0.000000 0.000000 0.000000 0.000000 0.000000 0.159974
#
#
# Mechanical properties :
#
#
# Convention : Reuss Voigt Hill
#
# Bulk Modulus (GPa) = 32.14226 35.17766 33.65996
# Shear Modulus (GPa) = 15.78261 24.16289 19.97275
#
# Velocity S-wave (km/s) = 2.93635 3.63323 3.30322
# Velocity P-wave (km/s) = 5.39034 6.06781 5.73908
#
# Compressibility (1/GPa) = 0.03111169
#
# Stress axis : x y z
#
# Youngs Moduli (GPa) = 113.62280 56.91656 59.34747
#
# Poissons Ratio (x) = -0.00695 0.16497
# Poissons Ratio (y) = -0.01388 0.20159
# Poissons Ratio (z) = 0.31584 0.19334
#
# Static dielectric constant tensor:
#      x y z
#    x 1.648920 0.000000 0.000000 
#    y 0.000000 1.629090 0.000000 
#    z 0.000000 0.000000 1.670820 
# 
# From -- ./inp_files/26356.got.cif
#   From: 2010.05.17/outbox.cif.g08.bks.cpg/sg66_14_cif.got.tgz:26356.got - 2010.06.03 17:51:23.
