data_PCOD9496376
_publ_section_title
;
Structure prediction by ZEFSAII (Michael W. Deem and Ramdas Pophale) SiO2 
 PCOD9496376
Probable space group: C C C M
;
_chemical_formula_sum "Si O2"
_cell_formula_units_Z 80
_cell_length_a 29.571740
_cell_length_b 15.727430
_cell_length_c 8.934740
_cell_angle_alpha 90.000000
_cell_angle_beta 90.000000
_cell_angle_gamma 90.000000
_cell_volume 4155.435629
_symmetry_space_group_name_H-M "C C C M"
_symmetry_group_IT_number 66
_symmetry_cell_setting 'orthorhombic'
loop_
_space_group_symop_operation_xyz
x,y,z
-x,-y,z
x,-y,1/2-z
-x,y,1/2-z
-x,-y,-z
x,y,-z
-x,y,1/2+z
x,-y,1/2+z
1/2+x,1/2+y,z
1/2-x,1/2-y,z
1/2+x,1/2-y,1/2-z
1/2-x,1/2+y,1/2-z
1/2-x,1/2-y,-z
1/2+x,1/2+y,-z
1/2-x,1/2+y,1/2+z
1/2+x,1/2-y,1/2+z
loop_
_atom_site_type_symbol
_atom_site_label
_atom_site_fract_x
_atom_site_fract_y
_atom_site_fract_z
Si Si1 0.640294 0.086819 0.321032
Si Si2 0.453334 0.650182 0.822124
Si Si3 0.144251 0.911922 0.820451
Si Si4 0.047471 0.646711 0.178543
Si Si5 0.197002 0.244355 0.179100
O O1 0.637503 0.079193 0.500000
O O2 0.590609 0.103450 0.253462
O O3 0.671421 0.167861 0.284119
O O4 0.658426 0.000000 0.250000
O O5 0.500000 0.620091 0.750000
O O6 0.407624 0.605136 0.769725
O O7 0.448624 0.751498 0.792466
O O8 0.456740 0.639763 0.000000
O O9 0.173646 0.833003 0.764456
O O10 0.160341 0.000000 0.750000
O O11 0.144904 0.915968 0.000000
O O12 0.000000 0.618405 0.250000
O O13 0.047392 0.633324 0.000000
O O14 0.250000 0.250000 0.214171
O O15 0.192328 0.230743 0.000000
#
# Coordination Sequence:
#
# PCOD9496376 Si02
#       5
#    16  16  16  16  16
#     4  11  23  39  62  90 122 159 199 247 301 358
#     4   9  19  34  56  85 120 160 201 244 292 350
#     4  11  23  40  62  92 125 162 204 249 301 358
#     4  10  19  35  58  87 122 159 203 245 294 354
#     4  10  23  44  67  91 120 155 199 252 309 365
#
# _framework density 19.251892999999999
#
# number of rings (size 3 to 8) (size 9 to 14) (size 15 to 20)
#    0.000    1.800    2.000    1.800    0.000    5.200 
#    0.000    6.000    0.000    0.000    0.000    0.000 
#    0.000    0.000    0.000    0.000    0.000    0.000 
#
# Total GULP energy -223576.238820 kJ/mol
# GULP energy per Si atom -5589.405970 kJ/mol
# Density = 1.920807 g / cm^3
# Si number density = 19.251893 Si / 1000 Ang^3
#
#
#
# Elastic Constant Matrix: (Units=GPa)
#
#
# Indices 1 2 3 4 5 6 
#
# 1 124.2217 72.6634 50.6977 0.0000 0.0000 0.0000
# 2 72.6634 139.5551 71.0514 0.0000 0.0000 0.0000
# 3 50.6977 71.0514 56.2716 0.0000 0.0000 0.0000
# 4 0.0000 0.0000 0.0000 20.3539 0.0000 0.0000
# 5 0.0000 0.0000 0.0000 0.0000 24.8405 0.0000
# 6 0.0000 0.0000 0.0000 0.0000 0.0000 -5.7596
#
#
#
# Elastic Compliance Matrix: (Units=1/GPa)
#
#
# Indices 1 2 3 4 5 6 
#
# 1 0.012979 -0.002253 -0.008850 0.000000 0.000000 0.000000
# 2 -0.002253 0.020454 -0.023797 0.000000 0.000000 0.000000
# 3 -0.008850 -0.023797 0.055792 0.000000 0.000000 0.000000
# 4 0.000000 0.000000 0.000000 0.049131 0.000000 0.000000
# 5 0.000000 0.000000 0.000000 0.000000 0.040257 0.000000
# 6 0.000000 0.000000 0.000000 0.000000 0.000000 -0.173622
#
#
# Mechanical properties :
#
#
# Convention : Reuss Voigt Hill
#
# Bulk Modulus (GPa) = 51.47594 78.76371 65.11982
# Shear Modulus (GPa) = 61.52699 16.26268 38.89483
#
# Velocity S-wave (km/s) = 5.65936 2.90958 4.49966
# Velocity P-wave (km/s) = 8.33670 7.23108 7.80350
#
# Compressibility (1/GPa) = 0.01942655
#
# Stress axis : x y z
#
# Youngs Moduli (GPa) = 77.04460 48.88938 17.92384
#
# Poissons Ratio (x) = 0.11013 0.15862
# Poissons Ratio (y) = 0.17355 0.42654
# Poissons Ratio (z) = 0.68182 1.16343
#
# Static dielectric constant tensor:
#      x y z
#    x 1.647630 0.000000 0.000000 
#    y 0.000000 1.682830 0.000000 
#    z 0.000000 0.000000 1.636710 
# 
# From -- ./inp_files/10067.got.cif
#   From: 2010.05.17/outbox.cif.g08.bks.cpg/sg66_6_cif.got.tgz:10067.got - 2010.06.03 17:51:23.
