data_PCOD9496233
_publ_section_title
;
Structure prediction by ZEFSAII (Michael W. Deem and Ramdas Pophale) SiO2 
 PCOD9496233
Probable space group: C C C M
;
_chemical_formula_sum "Si O2"
_cell_formula_units_Z 96
_cell_length_a 29.806637
_cell_length_b 19.352050
_cell_length_c 9.055039
_cell_angle_alpha 90.000000
_cell_angle_beta 90.000000
_cell_angle_gamma 90.000000
_cell_volume 5223.123336
_symmetry_space_group_name_H-M "C C C M"
_symmetry_group_IT_number 66
_symmetry_cell_setting 'orthorhombic'
loop_
_space_group_symop_operation_xyz
x,y,z
-x,-y,z
x,-y,1/2-z
-x,y,1/2-z
-x,-y,-z
x,y,-z
-x,y,1/2+z
x,-y,1/2+z
1/2+x,1/2+y,z
1/2-x,1/2-y,z
1/2+x,1/2-y,1/2-z
1/2-x,1/2+y,1/2-z
1/2-x,1/2-y,-z
1/2+x,1/2+y,-z
1/2-x,1/2+y,1/2+z
1/2+x,1/2-y,1/2+z
loop_
_atom_site_type_symbol
_atom_site_label
_atom_site_fract_x
_atom_site_fract_y
_atom_site_fract_z
Si Si1 0.929464 0.069520 0.670225
Si Si2 0.200685 0.781299 0.177014
Si Si3 0.820955 0.072450 0.672678
Si Si4 0.120546 0.312413 0.668529
Si Si5 0.951789 0.424166 0.818615
Si Si6 0.040234 0.794620 0.166444
O O1 0.942031 0.067723 0.500000
O O2 0.875273 0.074187 0.680688
O O3 0.949425 0.135375 0.749629
O O4 0.943781 0.000000 0.750000
O O5 0.250000 0.750000 0.197489
O O6 0.195510 0.856631 0.251118
O O7 0.164557 0.724325 0.235014
O O8 0.192509 0.789910 0.000000
O O9 0.808241 0.071254 0.500000
O O10 0.806805 0.000000 0.750000
O O11 0.132876 0.332239 0.500000
O O12 0.090500 0.375970 0.726819
O O13 0.084442 0.250957 0.664653
O O14 0.944426 0.500000 0.750000
O O15 0.000000 0.401879 0.750000
O O16 0.954756 0.424439 0.000000
O O17 0.000000 0.757468 0.250000
O O18 0.026457 0.808647 0.000000
#
# Coordination Sequence:
#
# PCOD9496233 Si02
#       6
#    16  16  16  16  16  16
#     4  10  20  34  52  76 104 141 182 223 268 315
#     4  10  20  37  61  86 113 148 188 233 287 343
#     4  10  20  35  58  84 112 146 187 232 276 333
#     4   9  19  35  55  79 109 144 181 225 274 329
#     4  10  19  34  55  81 112 145 184 225 273 335
#     4  11  21  34  52  75 107 142 181 225 268 323
#
# _framework density 18.379808000000001
#
# number of rings (size 3 to 8) (size 9 to 14) (size 15 to 20)
#    0.000    2.000    1.667    3.000    0.000    2.000 
#    0.000    6.667    0.000    2.000    0.000    0.000 
#    0.000    0.000    0.000    0.000    0.000    0.000 
#
# Total GULP energy -267585.169496 kJ/mol
# GULP energy per Si atom -5574.691031 kJ/mol
# Density = 1.833797 g / cm^3
# Si number density = 18.379808 Si / 1000 Ang^3
#
#
#
# Elastic Constant Matrix: (Units=GPa)
#
#
# Indices 1 2 3 4 5 6 
#
# 1 88.5956 52.2997 38.4103 0.0000 0.0000 0.0000
# 2 52.2997 150.6850 54.2003 0.0000 0.0000 0.0000
# 3 38.4103 54.2003 102.8383 0.0000 0.0000 0.0000
# 4 0.0000 0.0000 0.0000 21.7410 0.0000 0.0000
# 5 0.0000 0.0000 0.0000 0.0000 17.4727 0.0000
# 6 0.0000 0.0000 0.0000 0.0000 0.0000 27.4887
#
#
#
# Elastic Compliance Matrix: (Units=1/GPa)
#
#
# Indices 1 2 3 4 5 6 
#
# 1 0.015190 -0.003987 -0.003572 0.000000 0.000000 0.000000
# 2 -0.003987 0.009235 -0.003378 0.000000 0.000000 0.000000
# 3 -0.003572 -0.003378 0.012839 0.000000 0.000000 0.000000
# 4 0.000000 0.000000 0.000000 0.045996 0.000000 0.000000
# 5 0.000000 0.000000 0.000000 0.000000 0.057232 0.000000
# 6 0.000000 0.000000 0.000000 0.000000 0.000000 0.036379
#
#
# Mechanical properties :
#
#
# Convention : Reuss Voigt Hill
#
# Bulk Modulus (GPa) = 64.98204 70.21550 67.59877
# Shear Modulus (GPa) = 24.52487 26.48771 25.50629
#
# Velocity S-wave (km/s) = 3.65682 3.80034 3.72927
# Velocity P-wave (km/s) = 7.29806 7.58566 7.44325
#
# Compressibility (1/GPa) = 0.01538887
#
# Stress axis : x y z
#
# Youngs Moduli (GPa) = 65.83474 108.27963 77.89021
#
# Poissons Ratio (x) = 0.43173 0.27822
# Poissons Ratio (y) = 0.26250 0.26313
# Poissons Ratio (z) = 0.23516 0.36579
#
# Static dielectric constant tensor:
#      x y z
#    x 1.660840 0.000000 0.000000 
#    y 0.000000 1.628960 0.000000 
#    z 0.000000 0.000000 1.641400 
# 
# From -- ./inp_files/10234.got.cif
#   From: 2010.05.17/outbox.cif.g08.bks.cpg/sg66_6_cif.got.tgz:10234.got - 2010.06.03 17:51:23.
