data_PCOD9496647
_publ_section_title
;
Structure prediction by ZEFSAII (Michael W. Deem and Ramdas Pophale) SiO2 
 PCOD9496647
Probable space group: C C C M
;
_chemical_formula_sum "Si O2"
_cell_formula_units_Z 80
_cell_length_a 28.067423
_cell_length_b 13.489062
_cell_length_c 8.928969
_cell_angle_alpha 90.000000
_cell_angle_beta 90.000000
_cell_angle_gamma 90.000000
_cell_volume 3380.536317
_symmetry_space_group_name_H-M "C C C M"
_symmetry_group_IT_number 66
_symmetry_cell_setting 'orthorhombic'
loop_
_space_group_symop_operation_xyz
x,y,z
-x,-y,z
x,-y,1/2-z
-x,y,1/2-z
-x,-y,-z
x,y,-z
-x,y,1/2+z
x,-y,1/2+z
1/2+x,1/2+y,z
1/2-x,1/2-y,z
1/2+x,1/2-y,1/2-z
1/2-x,1/2+y,1/2-z
1/2-x,1/2-y,-z
1/2+x,1/2+y,-z
1/2-x,1/2+y,1/2+z
1/2+x,1/2-y,1/2+z
loop_
_atom_site_type_symbol
_atom_site_label
_atom_site_fract_x
_atom_site_fract_y
_atom_site_fract_z
Si Si1 0.068275 0.099851 0.826710
Si Si2 0.162018 0.871243 0.834876
Si Si3 0.744372 0.869992 0.831655
Si Si4 0.549337 0.826933 0.818937
Si Si5 0.147801 0.634145 0.830165
O O1 0.124735 0.100197 0.792692
O O2 0.052108 0.209173 0.774241
O O3 0.050159 0.000000 0.750000
O O4 0.057346 0.094225 0.000000
O O5 0.215062 0.897965 0.786815
O O6 0.157046 0.752450 0.843442
O O7 0.148966 0.909809 0.000000
O O8 0.750000 0.750000 0.839842
O O9 0.692136 0.896575 0.772573
O O10 0.752417 0.907458 0.000000
O O11 0.500000 0.865887 0.750000
O O12 0.596552 0.876501 0.748986
O O13 0.550013 0.833247 0.000000
O O14 0.148054 0.593700 0.000000
#
# Coordination Sequence:
#
# PCOD9496647 Si02
#       5
#    16  16  16  16  16
#     4  10  20  32  44  57  74  98 130 168 207 243
#     4   9  16  26  40  57  76  97 122 153 190 232
#     4   9  15  23  37  57  79  99 119 146 183 228
#     4  10  20  32  44  57  74  98 130 168 207 243
#     4   9  16  26  40  57  76  97 122 153 190 232
#
# _framework density 23.664883
#
# number of rings (size 3 to 8) (size 9 to 14) (size 15 to 20)
#    0.000    2.600    0.000    3.000    0.000   10.000 
#    0.000    2.000    0.000    0.000    0.000    0.000 
#    0.000    0.000    0.000    0.000    0.000    1.000 
#
# Total GULP energy -223521.121514 kJ/mol
# GULP energy per Si atom -5588.028038 kJ/mol
# Density = 2.361102 g / cm^3
# Si number density = 23.664883 Si / 1000 Ang^3
#
#
#
# Elastic Constant Matrix: (Units=GPa)
#
#
# Indices 1 2 3 4 5 6 
#
# 1 183.6268 -12.2153 40.3499 0.0000 0.0000 0.0000
# 2 -12.2153 70.8010 10.3031 0.0000 0.0000 0.0000
# 3 40.3499 10.3031 86.6533 0.0000 0.0000 0.0000
# 4 0.0000 0.0000 0.0000 15.5929 0.0000 0.0000
# 5 0.0000 0.0000 0.0000 0.0000 17.7260 0.0000
# 6 0.0000 0.0000 0.0000 0.0000 0.0000 -19.1690
#
#
#
# Elastic Compliance Matrix: (Units=1/GPa)
#
#
# Indices 1 2 3 4 5 6 
#
# 1 0.006224 0.001522 -0.003079 0.000000 0.000000 0.000000
# 2 0.001522 0.014745 -0.002462 0.000000 0.000000 0.000000
# 3 -0.003079 -0.002462 0.013267 0.000000 0.000000 0.000000
# 4 0.000000 0.000000 0.000000 0.064132 0.000000 0.000000
# 5 0.000000 0.000000 0.000000 0.000000 0.056414 0.000000
# 6 0.000000 0.000000 0.000000 0.000000 0.000000 -0.052168
#
#
# Mechanical properties :
#
#
# Convention : Reuss Voigt Hill
#
# Bulk Modulus (GPa) = 38.17188 46.43962 42.30575
# Shear Modulus (GPa) = 41.88161 23.00620 32.44390
#
# Velocity S-wave (km/s) = 4.21144 3.12134 3.70668
# Velocity P-wave (km/s) = 6.30979 5.71461 6.01956
#
# Compressibility (1/GPa) = 0.02619729
#
# Stress axis : x y z
#
# Youngs Moduli (GPa) = 160.67787 67.82001 75.37692
#
# Poissons Ratio (x) = -0.10321 0.23208
# Poissons Ratio (y) = -0.24452 0.18556
# Poissons Ratio (z) = 0.49472 0.16696
#
# Static dielectric constant tensor:
#      x y z
#    x 1.857280 0.000000 0.000000 
#    y 0.000000 2.002420 0.000000 
#    z 0.000000 0.000000 1.826020 
# 
# From -- ./inp_files/6687.got.cif
#   From: 2010.05.17/outbox.cif.g08.bks.cpg/sg66_4_cif.got.tgz:6687.got - 2010.06.03 17:51:23.
