data_PCOD9496066
_publ_section_title
;
Structure prediction by ZEFSAII (Michael W. Deem and Ramdas Pophale) SiO2 
 PCOD9496066
Probable space group: C C C M
;
_chemical_formula_sum "Si O2"
_cell_formula_units_Z 96
_cell_length_a 15.161761
_cell_length_b 32.461919
_cell_length_c 9.085147
_cell_angle_alpha 90.000000
_cell_angle_beta 90.000000
_cell_angle_gamma 90.000000
_cell_volume 4471.526356
_symmetry_space_group_name_H-M "C C C M"
_symmetry_group_IT_number 66
_symmetry_cell_setting 'orthorhombic'
loop_
_space_group_symop_operation_xyz
x,y,z
-x,-y,z
x,-y,1/2-z
-x,y,1/2-z
-x,-y,-z
x,y,-z
-x,y,1/2+z
x,-y,1/2+z
1/2+x,1/2+y,z
1/2-x,1/2-y,z
1/2+x,1/2-y,1/2-z
1/2-x,1/2+y,1/2-z
1/2-x,1/2-y,-z
1/2+x,1/2+y,-z
1/2-x,1/2+y,1/2+z
1/2+x,1/2-y,1/2+z
loop_
_atom_site_type_symbol
_atom_site_label
_atom_site_fract_x
_atom_site_fract_y
_atom_site_fract_z
Si Si1 0.096935 0.205591 0.823365
Si Si2 0.354331 0.377000 0.665501
Si Si3 0.144777 0.458589 0.833220
Si Si4 0.645734 0.121575 0.163541
Si Si5 0.096780 0.713270 0.178201
Si Si6 0.638893 0.541860 0.830810
O O1 0.137175 0.162918 0.767623
O O2 0.140359 0.246490 0.752061
O O3 0.000000 0.204400 0.750000
O O4 0.093685 0.208505 0.000000
O O5 0.390434 0.369788 0.500000
O O6 0.250297 0.384822 0.650570
O O7 0.391413 0.417744 0.742732
O O8 0.117914 0.500000 0.750000
O O9 0.112960 0.415996 0.761532
O O10 0.252962 0.458008 0.832434
O O11 0.115258 0.460855 0.000000
O O12 0.635086 0.168485 0.215862
O O13 0.605753 0.119287 0.000000
O O14 0.000000 0.711951 0.250000
O O15 0.095149 0.717978 0.000000
O O16 0.611906 0.500000 0.750000
O O17 0.609801 0.542863 0.000000
#
# Coordination Sequence:
#
# PCOD9496066 Si02
#       6
#    16  16  16  16  16  16
#     4  11  22  37  55  75  99 131 169 208 249 301
#     4  10  19  33  52  76 104 134 167 208 252 295
#     4   9  16  26  44  69 100 133 167 204 246 294
#     4   9  19  33  51  75 104 134 167 206 252 299
#     4  10  20  36  55  75  99 132 170 208 250 302
#     4   9  16  27  44  70 101 134 168 204 245 293
#
# _framework density 21.469177999999999
#
# number of rings (size 3 to 8) (size 9 to 14) (size 15 to 20)
#    0.000    2.333    0.000    4.500    0.000    6.667 
#    0.000    3.333    0.000    1.000    0.000    7.000 
#    0.000    0.000    0.000    0.000    0.000    0.000 
#
# Total GULP energy -267864.764403 kJ/mol
# GULP energy per Si atom -5580.515925 kJ/mol
# Density = 2.142031 g / cm^3
# Si number density = 21.469178 Si / 1000 Ang^3
#
#
#
# Elastic Constant Matrix: (Units=GPa)
#
#
# Indices 1 2 3 4 5 6 
#
# 1 23.4534 3.5743 8.8535 0.0000 0.0000 0.0000
# 2 3.5743 231.1689 125.6622 0.0000 0.0000 0.0000
# 3 8.8535 125.6622 182.6517 0.0000 0.0000 0.0000
# 4 0.0000 0.0000 0.0000 40.2691 0.0000 0.0000
# 5 0.0000 0.0000 0.0000 0.0000 -20.1868 0.0000
# 6 0.0000 0.0000 0.0000 0.0000 0.0000 35.8119
#
#
#
# Elastic Compliance Matrix: (Units=1/GPa)
#
#
# Indices 1 2 3 4 5 6 
#
# 1 0.043515 0.000757 -0.002630 0.000000 0.000000 0.000000
# 2 0.000757 0.006923 -0.004800 0.000000 0.000000 0.000000
# 3 -0.002630 -0.004800 0.008905 0.000000 0.000000 0.000000
# 4 0.000000 0.000000 0.000000 0.024833 0.000000 0.000000
# 5 0.000000 0.000000 0.000000 0.000000 -0.049537 0.000000
# 6 0.000000 0.000000 0.000000 0.000000 0.000000 0.027924
#
#
# Mechanical properties :
#
#
# Convention : Reuss Voigt Hill
#
# Bulk Modulus (GPa) = 21.74048 79.27266 50.50657
# Shear Modulus (GPa) = 54.80011 31.12444 42.96227
#
# Velocity S-wave (km/s) = 5.05771 3.81166 4.47823
# Velocity P-wave (km/s) = 6.65249 7.50838 7.09335
#
# Compressibility (1/GPa) = 0.04599715
#
# Stress axis : x y z
#
# Youngs Moduli (GPa) = 22.98049 144.43967 112.30138
#
# Poissons Ratio (x) = -0.10931 0.29535
# Poissons Ratio (y) = -0.01739 0.53903
# Poissons Ratio (z) = 0.06044 0.69329
#
# Static dielectric constant tensor:
#      x y z
#    x 1.836190 0.000000 0.000000 
#    y 0.000000 1.814260 0.000000 
#    z 0.000000 0.000000 1.766220 
# 
# From -- ./inp_files/9135.got.cif
#   From: 2010.05.17/outbox.cif.g08.bks.cpg/sg66_5_cif.got.tgz:9135.got - 2010.06.03 17:51:23.
