data_PCOD9496911
_publ_section_title
;
Structure prediction by ZEFSAII (Michael W. Deem and Ramdas Pophale) SiO2 
 PCOD9496911
Probable space group: C C C M
;
_chemical_formula_sum "Si O2"
_cell_formula_units_Z 56
_cell_length_a 13.521624
_cell_length_b 18.880069
_cell_length_c 11.029448
_cell_angle_alpha 90.000000
_cell_angle_beta 90.000000
_cell_angle_gamma 90.000000
_cell_volume 2815.698891
_symmetry_space_group_name_H-M "C C C M"
_symmetry_group_IT_number 66
_symmetry_cell_setting 'orthorhombic'
loop_
_space_group_symop_operation_xyz
x,y,z
-x,-y,z
x,-y,1/2-z
-x,y,1/2-z
-x,-y,-z
x,y,-z
-x,y,1/2+z
x,-y,1/2+z
1/2+x,1/2+y,z
1/2-x,1/2-y,z
1/2+x,1/2-y,1/2-z
1/2-x,1/2+y,1/2-z
1/2-x,1/2-y,-z
1/2+x,1/2+y,-z
1/2-x,1/2+y,1/2+z
1/2+x,1/2-y,1/2+z
loop_
_atom_site_type_symbol
_atom_site_label
_atom_site_fract_x
_atom_site_fract_y
_atom_site_fract_z
Si Si1 0.665733 0.949149 0.635306
Si Si2 0.131053 0.239003 0.865503
Si Si3 0.180588 0.820516 0.869458
Si Si4 0.500000 0.139756 0.250000
O O1 0.666185 0.981987 0.500000
O O2 0.749203 0.888400 0.637571
O O3 0.562801 0.908833 0.659795
O O4 0.680545 0.000000 0.750000
O O5 0.250000 0.250000 0.872151
O O6 0.117105 0.186698 0.751736
O O7 0.074661 0.310298 0.825190
O O8 0.099639 0.216998 0.000000
O O9 0.250000 0.750000 0.872170
O O10 0.128093 0.821427 0.000000
#
# Coordination Sequence:
#
# PCOD9496911 Si02
#       4
#    16  16  16   8
#     4  11  24  38  55  83 121 162 194 233 290 359
#     4  10  20  34  56  84 112 148 199 250 285 332
#     4   9  17  36  58  75 106 151 196 237 282 339
#     4  12  21  36  58  86 121 162 194 238 289 352
#
# _framework density 19.888489
#
# number of rings (size 3 to 8) (size 9 to 14) (size 15 to 20)
#    0.000    1.714    5.714    1.286    0.000    5.714 
#    0.000    0.000    0.000    0.000    0.000    1.000 
#    0.000    6.857    0.000    0.000    0.000    0.000 
#
# Total GULP energy -156110.307574 kJ/mol
# GULP energy per Si atom -5575.368128 kJ/mol
# Density = 1.984322 g / cm^3
# Si number density = 19.888489 Si / 1000 Ang^3
#
#
#
# Elastic Constant Matrix: (Units=GPa)
#
#
# Indices 1 2 3 4 5 6 
#
# 1 70.2974 31.2100 32.3759 0.0000 0.0000 0.0000
# 2 31.2100 71.2656 58.3875 0.0000 0.0000 0.0000
# 3 32.3759 58.3875 255.7153 0.0000 0.0000 0.0000
# 4 0.0000 0.0000 0.0000 22.4887 0.0000 0.0000
# 5 0.0000 0.0000 0.0000 0.0000 24.7234 0.0000
# 6 0.0000 0.0000 0.0000 0.0000 0.0000 17.9004
#
#
#
# Elastic Compliance Matrix: (Units=1/GPa)
#
#
# Indices 1 2 3 4 5 6 
#
# 1 0.017728 -0.007288 -0.000580 0.000000 0.000000 0.000000
# 2 -0.007288 0.020257 -0.003703 0.000000 0.000000 0.000000
# 3 -0.000580 -0.003703 0.004829 0.000000 0.000000 0.000000
# 4 0.000000 0.000000 0.000000 0.044467 0.000000 0.000000
# 5 0.000000 0.000000 0.000000 0.000000 0.040447 0.000000
# 6 0.000000 0.000000 0.000000 0.000000 0.000000 0.055865
#
#
# Mechanical properties :
#
#
# Convention : Reuss Voigt Hill
#
# Bulk Modulus (GPa) = 50.83251 71.24726 61.03988
# Shear Modulus (GPa) = 23.44174 31.37616 27.40895
#
# Velocity S-wave (km/s) = 3.43688 3.97622 3.71635
# Velocity P-wave (km/s) = 6.43147 7.54861 7.01232
#
# Compressibility (1/GPa) = 0.01967245
#
# Stress axis : x y z
#
# Youngs Moduli (GPa) = 56.40644 49.36455 207.06080
#
# Poissons Ratio (x) = 0.35979 0.12018
# Poissons Ratio (y) = 0.41112 0.76666
# Poissons Ratio (z) = 0.03274 0.18278
#
# Static dielectric constant tensor:
#      x y z
#    x 1.726750 0.000000 0.000000 
#    y 0.000000 1.677540 0.000000 
#    z 0.000000 0.000000 1.799610 
# 
# From -- ./inp_files/15806.got.cif
#   From: 2010.05.17/outbox.cif.g08.bks.cpg/sg66_8_cif.got.tgz:15806.got - 2010.06.03 17:51:23.
