data_PCOD9496378
_publ_section_title
;
Structure prediction by ZEFSAII (Michael W. Deem and Ramdas Pophale) SiO2 
 PCOD9496378
Probable space group: C C C M
;
_chemical_formula_sum "Si O2"
_cell_formula_units_Z 72
_cell_length_a 14.803108
_cell_length_b 14.198512
_cell_length_c 18.373119
_cell_angle_alpha 90.000000
_cell_angle_beta 90.000000
_cell_angle_gamma 90.000000
_cell_volume 3861.700856
_symmetry_space_group_name_H-M "C C C M"
_symmetry_group_IT_number 66
_symmetry_cell_setting 'orthorhombic'
loop_
_space_group_symop_operation_xyz
x,y,z
-x,-y,z
x,-y,1/2-z
-x,y,1/2-z
-x,-y,-z
x,y,-z
-x,y,1/2+z
x,-y,1/2+z
1/2+x,1/2+y,z
1/2-x,1/2-y,z
1/2+x,1/2-y,1/2-z
1/2-x,1/2+y,1/2-z
1/2-x,1/2-y,-z
1/2+x,1/2+y,-z
1/2-x,1/2+y,1/2+z
1/2+x,1/2-y,1/2+z
loop_
_atom_site_type_symbol
_atom_site_label
_atom_site_fract_x
_atom_site_fract_y
_atom_site_fract_z
Si Si1 0.633970 0.667811 0.500000
Si Si2 0.750000 0.750000 0.625004
Si Si3 0.333185 0.902745 0.229181
Si Si4 0.140774 0.640329 0.606367
Si Si5 0.280444 0.458151 0.000000
Si Si6 0.919658 0.199641 0.500000
Si Si7 0.000000 0.500000 0.143831
O O1 0.669325 0.720404 0.571833
O O2 0.688152 0.566989 0.500000
O O3 0.525935 0.678143 0.500000
O O4 0.719411 0.836353 0.674898
O O5 0.348818 0.851843 0.306542
O O6 0.425565 0.940816 0.190511
O O7 0.283284 0.000000 0.250000
O O8 0.221480 0.581252 0.568438
O O9 0.118882 0.738265 0.567475
O O10 0.053992 0.574208 0.596527
O O11 0.371667 0.399769 0.000000
#
# Coordination Sequence:
#
# PCOD9496378 Si02
#       7
#     8   8  16  16   8   8   8
#     4  11  23  42  58  86 125 152 204 248 296 368
#     4  11  24  38  64  95 116 158 196 249 318 350
#     4  10  20  36  60  90 126 153 190 248 308 366
#     4  10  20  36  61  88 117 151 201 250 296 372
#     4  11  24  39  58  81 116 171 201 242 296 344
#     4  11  24  37  58  83 116 165 204 245 295 343
#     4  10  19  35  58  91 120 150 187 254 327 345
#
# _framework density 18.644634
#
# number of rings (size 3 to 8) (size 9 to 14) (size 15 to 20)
#    0.000    1.556    0.000    8.667    3.111    3.556 
#    0.000    0.000    0.000    0.000    5.778    0.000 
#    0.000    0.000    0.000    0.000    0.000    0.000 
#
# Total GULP energy -200677.056411 kJ/mol
# GULP energy per Si atom -5574.362678 kJ/mol
# Density = 1.860220 g / cm^3
# Si number density = 18.644634 Si / 1000 Ang^3
#
#
#
# Elastic Constant Matrix: (Units=GPa)
#
#
# Indices 1 2 3 4 5 6 
#
# 1 57.7167 29.8467 30.1417 0.0000 0.0000 0.0000
# 2 29.8467 90.1080 39.0622 0.0000 0.0000 0.0000
# 3 30.1417 39.0622 95.8286 0.0000 0.0000 0.0000
# 4 0.0000 0.0000 0.0000 11.2107 0.0000 0.0000
# 5 0.0000 0.0000 0.0000 0.0000 157.6642 0.0000
# 6 0.0000 0.0000 0.0000 0.0000 0.0000 33.7994
#
#
#
# Elastic Compliance Matrix: (Units=1/GPa)
#
#
# Indices 1 2 3 4 5 6 
#
# 1 0.022686 -0.005370 -0.004947 0.000000 0.000000 0.000000
# 2 -0.005370 0.014751 -0.004324 0.000000 0.000000 0.000000
# 3 -0.004947 -0.004324 0.013754 0.000000 0.000000 0.000000
# 4 0.000000 0.000000 0.000000 0.089200 0.000000 0.000000
# 5 0.000000 0.000000 0.000000 0.000000 0.006343 0.000000
# 6 0.000000 0.000000 0.000000 0.000000 0.000000 0.029586
#
#
# Mechanical properties :
#
#
# Convention : Reuss Voigt Hill
#
# Bulk Modulus (GPa) = 45.64153 49.08384 47.36269
# Shear Modulus (GPa) = 23.48469 50.17504 36.82986
#
# Velocity S-wave (km/s) = 3.55293 5.19323 4.44932
# Velocity P-wave (km/s) = 6.43148 7.89574 7.20092
#
# Compressibility (1/GPa) = 0.02190987
#
# Stress axis : x y z
#
# Youngs Moduli (GPa) = 44.07938 67.79245 72.70760
#
# Poissons Ratio (x) = 0.36405 0.35967
# Poissons Ratio (y) = 0.23671 0.31437
# Poissons Ratio (z) = 0.21805 0.29312
#
# Static dielectric constant tensor:
#      x y z
#    x 1.648810 0.000000 0.000000 
#    y 0.000000 1.667490 0.000000 
#    z 0.000000 0.000000 1.676890 
# 
# From -- ./inp_files/40101.got.cif
#   From: 2010.05.17/outbox.cif.g08.bks.cpg/sg66_21_cif.got.tgz:40101.got - 2010.06.03 17:51:23.
