data_PCOD9496878
_publ_section_title
;
Structure prediction by ZEFSAII (Michael W. Deem and Ramdas Pophale) SiO2 
 PCOD9496878
Probable space group: C C C M
;
_chemical_formula_sum "Si O2"
_cell_formula_units_Z 96
_cell_length_a 21.665488
_cell_length_b 24.360942
_cell_length_c 8.855405
_cell_angle_alpha 90.000000
_cell_angle_beta 90.000000
_cell_angle_gamma 90.000000
_cell_volume 4673.809229
_symmetry_space_group_name_H-M "C C C M"
_symmetry_group_IT_number 66
_symmetry_cell_setting 'orthorhombic'
loop_
_space_group_symop_operation_xyz
x,y,z
-x,-y,z
x,-y,1/2-z
-x,y,1/2-z
-x,-y,-z
x,y,-z
-x,y,1/2+z
x,-y,1/2+z
1/2+x,1/2+y,z
1/2-x,1/2-y,z
1/2+x,1/2-y,1/2-z
1/2-x,1/2+y,1/2-z
1/2-x,1/2-y,-z
1/2+x,1/2+y,-z
1/2-x,1/2+y,1/2+z
1/2+x,1/2-y,1/2+z
loop_
_atom_site_type_symbol
_atom_site_label
_atom_site_fract_x
_atom_site_fract_y
_atom_site_fract_z
Si Si1 0.737691 0.557452 0.825878
Si Si2 0.562878 0.940334 0.822372
Si Si3 0.088941 0.057556 0.174566
Si Si4 0.832253 0.372271 0.827004
Si Si5 0.318915 0.255272 0.676072
Si Si6 0.435804 0.674163 0.181450
O O1 0.757970 0.500000 0.750000
O O2 0.663722 0.558529 0.824010
O O3 0.765745 0.607789 0.732213
O O4 0.758179 0.559358 0.000000
O O5 0.500000 0.917887 0.750000
O O6 0.619145 0.902191 0.778356
O O7 0.573070 0.000000 0.750000
O O8 0.555682 0.945967 0.000000
O O9 0.068717 0.110973 0.266407
O O10 0.070383 0.000000 0.250000
O O11 0.068362 0.060638 0.000000
O O12 0.841426 0.307396 0.822187
O O13 0.839742 0.390665 0.000000
O O14 0.309714 0.272879 0.500000
O O15 0.250000 0.250000 0.745566
O O16 0.373535 0.294233 0.736065
O O17 0.500000 0.696643 0.250000
O O18 0.438178 0.678010 0.000000
#
# Coordination Sequence:
#
# PCOD9496878 Si02
#       6
#    16  16  16  16  16  16
#     4  10  20  34  54  84 120 155 193 240 293 348
#     4  11  22  38  57  80 112 149 192 240 296 355
#     4  10  21  38  61  90 122 156 195 239 291 350
#     4  11  21  35  57  84 114 150 194 241 292 351
#     4   9  20  39  63  89 117 155 203 251 299 352
#     4  11  23  41  64  90 122 158 198 246 300 358
#
# _framework density 20.539991000000001
#
# number of rings (size 3 to 8) (size 9 to 14) (size 15 to 20)
#    0.000    1.667    0.000    5.500    0.000    4.333 
#    0.000    6.667    0.000    6.000    0.000    0.000 
#    0.000    0.000    0.000    0.000    0.000    0.000 
#
# Total GULP energy -268188.840390 kJ/mol
# GULP energy per Si atom -5587.267508 kJ/mol
# Density = 2.049324 g / cm^3
# Si number density = 20.539991 Si / 1000 Ang^3
#
#
#
# Elastic Constant Matrix: (Units=GPa)
#
#
# Indices 1 2 3 4 5 6 
#
# 1 117.8462 38.6524 33.5951 0.0000 0.0000 0.0000
# 2 38.6524 70.2564 23.3999 0.0000 0.0000 0.0000
# 3 33.5951 23.3999 116.3167 0.0000 0.0000 0.0000
# 4 0.0000 0.0000 0.0000 17.5485 0.0000 0.0000
# 5 0.0000 0.0000 0.0000 0.0000 28.1322 0.0000
# 6 0.0000 0.0000 0.0000 0.0000 0.0000 18.4849
#
#
#
# Elastic Compliance Matrix: (Units=1/GPa)
#
#
# Indices 1 2 3 4 5 6 
#
# 1 0.010796 -0.005253 -0.002061 0.000000 0.000000 0.000000
# 2 -0.005253 0.017812 -0.002066 0.000000 0.000000 0.000000
# 3 -0.002061 -0.002066 0.009608 0.000000 0.000000 0.000000
# 4 0.000000 0.000000 0.000000 0.056985 0.000000 0.000000
# 5 0.000000 0.000000 0.000000 0.000000 0.035546 0.000000
# 6 0.000000 0.000000 0.000000 0.000000 0.000000 0.054098
#
#
# Mechanical properties :
#
#
# Convention : Reuss Voigt Hill
#
# Bulk Modulus (GPa) = 51.40038 55.07935 53.23986
# Shear Modulus (GPa) = 23.79907 26.75123 25.27515
#
# Velocity S-wave (km/s) = 3.40762 3.61279 3.51170
# Velocity P-wave (km/s) = 6.36878 6.65409 6.51300
#
# Compressibility (1/GPa) = 0.01945511
#
# Stress axis : x y z
#
# Youngs Moduli (GPa) = 92.62455 56.14261 104.07723
#
# Poissons Ratio (x) = 0.29492 0.21455
# Poissons Ratio (y) = 0.48657 0.21503
# Poissons Ratio (z) = 0.19094 0.11599
#
# Static dielectric constant tensor:
#      x y z
#    x 1.800910 0.000000 0.000000 
#    y 0.000000 1.699660 0.000000 
#    z 0.000000 0.000000 1.711510 
# 
# From -- ./inp_files/9099.got.cif
#   From: 2010.05.17/outbox.cif.g08.bks.cpg/sg66_5_cif.got.tgz:9099.got - 2010.06.03 17:51:23.
