data_PCOD9496562
_publ_section_title
;
Structure prediction by ZEFSAII (Michael W. Deem and Ramdas Pophale) SiO2 
 PCOD9496562
Probable space group: C C C M
;
_chemical_formula_sum "Si O2"
_cell_formula_units_Z 112
_cell_length_a 15.170134
_cell_length_b 14.860757
_cell_length_c 27.520596
_cell_angle_alpha 90.000000
_cell_angle_beta 90.000000
_cell_angle_gamma 90.000000
_cell_volume 6204.234219
_symmetry_space_group_name_H-M "C C C M"
_symmetry_group_IT_number 66
_symmetry_cell_setting 'orthorhombic'
loop_
_space_group_symop_operation_xyz
x,y,z
-x,-y,z
x,-y,1/2-z
-x,y,1/2-z
-x,-y,-z
x,y,-z
-x,y,1/2+z
x,-y,1/2+z
1/2+x,1/2+y,z
1/2-x,1/2-y,z
1/2+x,1/2-y,1/2-z
1/2-x,1/2+y,1/2-z
1/2-x,1/2-y,-z
1/2+x,1/2+y,-z
1/2-x,1/2+y,1/2+z
1/2+x,1/2-y,1/2+z
loop_
_atom_site_type_symbol
_atom_site_label
_atom_site_fract_x
_atom_site_fract_y
_atom_site_fract_z
Si Si1 0.205820 0.651774 0.942559
Si Si2 0.433001 0.367400 0.056268
Si Si3 0.068655 0.579293 0.868201
Si Si4 0.674873 0.674767 0.148233
Si Si5 0.198397 0.459772 0.802166
Si Si6 0.946811 0.303635 0.299086
Si Si7 0.116756 0.922819 0.943664
O O1 0.250000 0.750000 0.936635
O O2 0.120135 0.627691 0.911795
O O3 0.285974 0.589047 0.923745
O O4 0.187960 0.638441 0.000000
O O5 0.366030 0.326655 0.094438
O O6 0.409317 0.473297 0.055998
O O7 0.534204 0.365022 0.075180
O O8 0.427825 0.335849 0.000000
O O9 0.141262 0.531654 0.833150
O O10 0.000000 0.500000 0.883406
O O11 0.011948 0.652196 0.838621
O O12 0.750000 0.750000 0.148798
O O13 0.720709 0.583528 0.167457
O O14 0.598043 0.712044 0.182910
O O15 0.225558 0.500000 0.750000
O O16 0.130188 0.377864 0.791745
O O17 0.000000 0.291214 0.250000
O O18 0.123604 0.893642 0.000000
#
# Coordination Sequence:
#
# PCOD9496562 Si02
#       7
#    16  16  16  16  16  16  16
#     4  10  21  36  53  84 125 150 183 241 288 333
#     4   9  17  33  57  78 106 153 193 221 273 349
#     4  10  21  36  63  86 105 153 205 228 276 352
#     4  10  22  35  53  86 119 139 178 243 291 324
#     4  10  19  38  61  80 108 149 195 236 280 346
#     4  10  20  38  58  81 113 148 187 236 289 344
#     4   8  16  32  54  74 102 150 193 222 264 328
#
# _framework density 18.052187
#
# number of rings (size 3 to 8) (size 9 to 14) (size 15 to 20)
#    0.000    2.429    1.429    1.714    2.000    0.571 
#    2.571    2.857    0.000    5.143    0.000    0.000 
#    0.000    0.000    0.000    0.000    0.000    0.000 
#
# Total GULP energy -311892.086582 kJ/mol
# GULP energy per Si atom -5569.501546 kJ/mol
# Density = 1.801110 g / cm^3
# Si number density = 18.052187 Si / 1000 Ang^3
#
#
#
# Elastic Constant Matrix: (Units=GPa)
#
#
# Indices 1 2 3 4 5 6 
#
# 1 108.0597 28.1520 58.4542 0.0000 0.0000 0.0000
# 2 28.1520 37.8785 24.0597 0.0000 0.0000 0.0000
# 3 58.4542 24.0597 93.1298 0.0000 0.0000 0.0000
# 4 0.0000 0.0000 0.0000 15.1040 0.0000 0.0000
# 5 0.0000 0.0000 0.0000 0.0000 30.5757 0.0000
# 6 0.0000 0.0000 0.0000 0.0000 0.0000 14.7564
#
#
#
# Elastic Compliance Matrix: (Units=1/GPa)
#
#
# Indices 1 2 3 4 5 6 
#
# 1 0.015154 -0.006246 -0.007898 0.000000 0.000000 0.000000
# 2 -0.006246 0.034157 -0.004904 0.000000 0.000000 0.000000
# 3 -0.007898 -0.004904 0.016962 0.000000 0.000000 0.000000
# 4 0.000000 0.000000 0.000000 0.066208 0.000000 0.000000
# 5 0.000000 0.000000 0.000000 0.000000 0.032706 0.000000
# 6 0.000000 0.000000 0.000000 0.000000 0.000000 0.067767
#
#
# Mechanical properties :
#
#
# Convention : Reuss Voigt Hill
#
# Bulk Modulus (GPa) = 35.48973 51.15555 43.32264
# Shear Modulus (GPa) = 17.82908 20.64737 19.23823
#
# Velocity S-wave (km/s) = 3.14608 3.38562 3.26805
# Velocity P-wave (km/s) = 5.73579 6.60926 6.18796
#
# Compressibility (1/GPa) = 0.02817716
#
# Stress axis : x y z
#
# Youngs Moduli (GPa) = 65.99094 29.27637 58.95609
#
# Poissons Ratio (x) = 0.18286 0.46562
# Poissons Ratio (y) = 0.41218 0.28912
# Poissons Ratio (z) = 0.52118 0.14357
#
# Static dielectric constant tensor:
#      x y z
#    x 1.661550 0.000000 0.000000 
#    y 0.000000 1.636960 0.000000 
#    z 0.000000 0.000000 1.603200 
# 
# From -- ./inp_files/58226.got.cif
#   From: 2010.05.17/outbox.cif.g08.bks.cpg/sg66_30_cif.got.tgz:58226.got - 2010.06.03 17:51:23.
