data_PCOD9496025
_publ_section_title
;
Structure prediction by ZEFSAII (Michael W. Deem and Ramdas Pophale) SiO2 
 PCOD9496025
Probable space group: C C C M
;
_chemical_formula_sum "Si O2"
_cell_formula_units_Z 116
_cell_length_a 29.628321
_cell_length_b 24.328759
_cell_length_c 9.548191
_cell_angle_alpha 90.000000
_cell_angle_beta 90.000000
_cell_angle_gamma 90.000000
_cell_volume 6882.529721
_symmetry_space_group_name_H-M "C C C M"
_symmetry_group_IT_number 66
_symmetry_cell_setting 'orthorhombic'
loop_
_space_group_symop_operation_xyz
x,y,z
-x,-y,z
x,-y,1/2-z
-x,y,1/2-z
-x,-y,-z
x,y,-z
-x,y,1/2+z
x,-y,1/2+z
1/2+x,1/2+y,z
1/2-x,1/2-y,z
1/2+x,1/2-y,1/2-z
1/2-x,1/2+y,1/2-z
1/2-x,1/2-y,-z
1/2+x,1/2+y,-z
1/2-x,1/2+y,1/2+z
1/2+x,1/2-y,1/2+z
loop_
_atom_site_type_symbol
_atom_site_label
_atom_site_fract_x
_atom_site_fract_y
_atom_site_fract_z
Si Si1 0.320915 0.863546 0.659499
Si Si2 0.456800 0.140215 0.661139
Si Si3 0.589991 0.552194 0.662820
Si Si4 0.875226 0.554372 0.660971
Si Si5 0.599902 0.222123 0.338496
Si Si6 0.227907 0.194122 0.164580
Si Si7 0.000000 0.000000 0.750000
Si Si8 0.129773 0.845503 0.332686
O O1 0.330311 0.882120 0.500000
O O2 0.336625 0.908655 0.768768
O O3 0.351687 0.808724 0.679818
O O4 0.268713 0.848713 0.671170
O O5 0.500000 0.124038 0.750000
O O6 0.468280 0.150810 0.500000
O O7 0.419710 0.092222 0.666986
O O8 0.434240 0.193201 0.733246
O O9 0.609325 0.500000 0.750000
O O10 0.603322 0.552900 0.500000
O O11 0.535761 0.539380 0.669948
O O12 0.605856 0.606863 0.743544
O O13 0.881761 0.500000 0.750000
O O14 0.865272 0.541625 0.500000
O O15 0.586364 0.211751 0.500000
O O16 0.604831 0.286914 0.318292
O O17 0.250000 0.250000 0.226242
O O18 0.181097 0.168403 0.216664
O O19 0.217993 0.207093 0.000000
O O20 0.130328 0.859712 0.500000
#
# Coordination Sequence:
#
# PCOD9496025 Si02
#       8
#    16  16  16  16  16  16   4  16
#     4   9  16  30  54  79 107 141 179 215 254 308
#     4  10  21  36  53  74 103 137 173 219 270 322
#     4  10  21  38  60  82 107 140 182 227 275 327
#     4  10  21  36  54  76 102 134 176 222 268 316
#     4   9  17  31  52  78 108 143 175 212 260 316
#     4   9  15  28  53  84 113 144 181 215 256 315
#     4   8  22  40  66  80 102 140 186 228 276 336
#     4  10  19  32  55  86 116 143 178 223 267 318
#
# _framework density 16.854268000000001
#
# number of rings (size 3 to 8) (size 9 to 14) (size 15 to 20)
#    0.414    2.069    1.379    1.448    0.000    2.483 
#    1.241    2.759    0.000    0.828    0.000    0.000 
#    0.000    0.000    0.000    0.000    0.000    0.000 
#
# Total GULP energy -322924.356754 kJ/mol
# GULP energy per Si atom -5567.661323 kJ/mol
# Density = 1.681591 g / cm^3
# Si number density = 16.854268 Si / 1000 Ang^3
#
#
#
# Elastic Constant Matrix: (Units=GPa)
#
#
# Indices 1 2 3 4 5 6 
#
# 1 51.9517 27.6339 33.4973 0.0000 0.0000 0.0000
# 2 27.6339 95.6579 69.1947 0.0000 0.0000 0.0000
# 3 33.4973 69.1947 120.2698 0.0000 0.0000 0.0000
# 4 0.0000 0.0000 0.0000 21.4840 0.0000 0.0000
# 5 0.0000 0.0000 0.0000 0.0000 10.0477 0.0000
# 6 0.0000 0.0000 0.0000 0.0000 0.0000 17.0627
#
#
#
# Elastic Compliance Matrix: (Units=1/GPa)
#
#
# Indices 1 2 3 4 5 6 
#
# 1 0.024172 -0.003619 -0.004650 0.000000 0.000000 0.000000
# 2 -0.003619 0.018448 -0.009605 0.000000 0.000000 0.000000
# 3 -0.004650 -0.009605 0.015136 0.000000 0.000000 0.000000
# 4 0.000000 0.000000 0.000000 0.046546 0.000000 0.000000
# 5 0.000000 0.000000 0.000000 0.000000 0.099525 0.000000
# 6 0.000000 0.000000 0.000000 0.000000 0.000000 0.058608
#
#
# Mechanical properties :
#
#
# Convention : Reuss Voigt Hill
#
# Bulk Modulus (GPa) = 45.44171 58.72570 52.08371
# Shear Modulus (GPa) = 16.36559 18.88912 17.62736
#
# Velocity S-wave (km/s) = 3.11948 3.35137 3.23750
# Velocity P-wave (km/s) = 6.32415 7.06360 6.70408
#
# Compressibility (1/GPa) = 0.02200622
#
# Stress axis : x y z
#
# Youngs Moduli (GPa) = 41.37011 54.20771 66.06741
#
# Poissons Ratio (x) = 0.19619 0.30722
# Poissons Ratio (y) = 0.14973 0.63460
# Poissons Ratio (z) = 0.19238 0.52069
#
# Static dielectric constant tensor:
#      x y z
#    x 1.576930 0.000000 0.000000 
#    y 0.000000 1.558700 0.000000 
#    z 0.000000 0.000000 1.565440 
# 
# From -- ./inp_files/11731.got.cif
#   From: 2010.05.17/outbox.cif.g08.bks.cpg/sg66_6_cif.got.tgz:11731.got - 2010.06.03 17:51:23.
