data_PCOD9496366
_publ_section_title
;
Structure prediction by ZEFSAII (Michael W. Deem and Ramdas Pophale) SiO2 
 PCOD9496366
Probable space group: C C C M
;
_chemical_formula_sum "Si O2"
_cell_formula_units_Z 112
_cell_length_a 11.224909
_cell_length_b 31.489503
_cell_length_c 15.954282
_cell_angle_alpha 90.000000
_cell_angle_beta 90.000000
_cell_angle_gamma 90.000000
_cell_volume 5639.309095
_symmetry_space_group_name_H-M "C C C M"
_symmetry_group_IT_number 66
_symmetry_cell_setting 'orthorhombic'
loop_
_space_group_symop_operation_xyz
x,y,z
-x,-y,z
x,-y,1/2-z
-x,y,1/2-z
-x,-y,-z
x,y,-z
-x,y,1/2+z
x,-y,1/2+z
1/2+x,1/2+y,z
1/2-x,1/2-y,z
1/2+x,1/2-y,1/2-z
1/2-x,1/2+y,1/2-z
1/2-x,1/2-y,-z
1/2+x,1/2+y,-z
1/2-x,1/2+y,1/2+z
1/2+x,1/2-y,1/2+z
loop_
_atom_site_type_symbol
_atom_site_label
_atom_site_fract_x
_atom_site_fract_y
_atom_site_fract_z
Si Si1 0.870037 0.396544 0.242211
Si Si2 0.361253 0.549241 0.271381
Si Si3 0.922758 0.891751 0.092845
Si Si4 0.936777 0.182624 0.898814
Si Si5 0.314753 0.159872 0.904452
Si Si6 0.669108 0.170974 0.904066
Si Si7 0.967619 0.730896 0.153706
O O1 0.752537 0.425760 0.234786
O O2 0.862967 0.369152 0.328422
O O3 0.865076 0.364888 0.162977
O O4 0.000000 0.418427 0.250000
O O5 0.345737 0.500000 0.250000
O O6 0.500000 0.559269 0.250000
O O7 0.365564 0.566987 0.365915
O O8 0.821205 0.855350 0.090973
O O9 0.030026 0.864693 0.132857
O O10 0.960853 0.903608 0.000000
O O11 0.798096 0.189672 0.879802
O O12 0.018342 0.219336 0.861125
O O13 0.950500 0.183427 0.000000
O O14 0.347431 0.207531 0.875990
O O15 0.362206 0.153136 0.000000
O O16 0.570639 0.207466 0.899058
O O17 0.677829 0.155084 0.000000
O O18 0.000000 0.721763 0.250000
#
# Coordination Sequence:
#
# PCOD9496366 Si02
#       7
#    16  16  16  16  16  16  16
#     4  11  21  37  62  91 119 153 209 247 303 371
#     4  10  22  41  64  90 121 153 189 246 316 381
#     4   9  20  39  61  85 113 152 198 244 303 368
#     4  10  22  37  55  81 114 157 207 257 301 348
#     4  10  19  35  58  79 113 158 198 248 304 354
#     4  11  21  37  57  80 118 162 200 251 306 356
#     4  12  22  35  51  81 117 158 209 253 296 349
#
# _framework density 19.860589999999998
#
# number of rings (size 3 to 8) (size 9 to 14) (size 15 to 20)
#    0.000    1.571    2.857    2.571    0.000    4.857 
#    2.571    4.286    0.000    0.000    0.000    5.000 
#    0.000    0.000    0.000    0.000    0.000    0.000 
#
# Total GULP energy -311859.887771 kJ/mol
# GULP energy per Si atom -5568.926567 kJ/mol
# Density = 1.981539 g / cm^3
# Si number density = 19.860590 Si / 1000 Ang^3
#
#
#
# Elastic Constant Matrix: (Units=GPa)
#
#
# Indices 1 2 3 4 5 6 
#
# 1 75.0752 29.8589 10.6198 0.0000 0.0000 0.0000
# 2 29.8589 106.1448 36.5567 0.0000 0.0000 0.0000
# 3 10.6198 36.5567 87.9875 0.0000 0.0000 0.0000
# 4 0.0000 0.0000 0.0000 16.4627 0.0000 0.0000
# 5 0.0000 0.0000 0.0000 0.0000 18.7747 0.0000
# 6 0.0000 0.0000 0.0000 0.0000 0.0000 32.8136
#
#
#
# Elastic Compliance Matrix: (Units=1/GPa)
#
#
# Indices 1 2 3 4 5 6 
#
# 1 0.014998 -0.004196 -0.000067 0.000000 0.000000 0.000000
# 2 -0.004196 0.012168 -0.004549 0.000000 0.000000 0.000000
# 3 -0.000067 -0.004549 0.013263 0.000000 0.000000 0.000000
# 4 0.000000 0.000000 0.000000 0.060743 0.000000 0.000000
# 5 0.000000 0.000000 0.000000 0.000000 0.053263 0.000000
# 6 0.000000 0.000000 0.000000 0.000000 0.000000 0.030475
#
#
# Mechanical properties :
#
#
# Convention : Reuss Voigt Hill
#
# Bulk Modulus (GPa) = 43.84865 47.03093 45.43979
# Shear Modulus (GPa) = 23.79395 26.42168 25.10782
#
# Velocity S-wave (km/s) = 3.46504 3.65136 3.55942
# Velocity P-wave (km/s) = 6.17534 6.44271 6.31044
#
# Compressibility (1/GPa) = 0.02280572
#
# Stress axis : x y z
#
# Youngs Moduli (GPa) = 66.67422 82.18142 75.39558
#
# Poissons Ratio (x) = 0.34484 0.00504
# Poissons Ratio (y) = 0.27977 0.34299
# Poissons Ratio (z) = 0.00446 0.37385
#
# Static dielectric constant tensor:
#      x y z
#    x 1.768310 0.000000 0.000000 
#    y 0.000000 1.674960 0.000000 
#    z 0.000000 0.000000 1.749840 
# 
# From -- ./inp_files/26958.got.cif
#   From: 2010.05.17/outbox.cif.g08.bks.cpg/sg66_14_cif.got.tgz:26958.got - 2010.06.03 17:51:23.
