data_PCOD9496095
_publ_section_title
;
Structure prediction by ZEFSAII (Michael W. Deem and Ramdas Pophale) SiO2 
 PCOD9496095
Probable space group: C C C M
;
_chemical_formula_sum "Si O2"
_cell_formula_units_Z 108
_cell_length_a 25.722805
_cell_length_b 13.075151
_cell_length_c 14.562115
_cell_angle_alpha 90.000000
_cell_angle_beta 90.000000
_cell_angle_gamma 90.000000
_cell_volume 4897.669724
_symmetry_space_group_name_H-M "C C C M"
_symmetry_group_IT_number 66
_symmetry_cell_setting 'orthorhombic'
loop_
_space_group_symop_operation_xyz
x,y,z
-x,-y,z
x,-y,1/2-z
-x,y,1/2-z
-x,-y,-z
x,y,-z
-x,y,1/2+z
x,-y,1/2+z
1/2+x,1/2+y,z
1/2-x,1/2-y,z
1/2+x,1/2-y,1/2-z
1/2-x,1/2+y,1/2-z
1/2-x,1/2-y,-z
1/2+x,1/2+y,-z
1/2-x,1/2+y,1/2+z
1/2+x,1/2-y,1/2+z
loop_
_atom_site_type_symbol
_atom_site_label
_atom_site_fract_x
_atom_site_fract_y
_atom_site_fract_z
Si Si1 0.265375 0.500000 0.750000
Si Si2 0.527483 0.238213 0.346473
Si Si3 0.157051 0.050387 0.607349
Si Si4 0.041119 0.080062 0.396027
Si Si5 0.311011 0.105619 0.892323
Si Si6 0.500000 0.000000 0.750000
Si Si7 0.866610 0.813394 0.893676
Si Si8 0.074179 0.520913 0.398317
O O1 0.300366 0.426437 0.684737
O O2 0.229844 0.437434 0.820936
O O3 0.500000 0.218849 0.250000
O O4 0.487298 0.311404 0.397875
O O5 0.581043 0.301295 0.335789
O O6 0.547336 0.133030 0.390961
O O7 0.166891 0.081385 0.500000
O O8 0.099774 0.085670 0.639366
O O9 0.155163 0.926691 0.609660
O O10 0.049985 0.040577 0.500000
O O11 0.000000 0.000000 0.353350
O O12 0.326234 0.223326 0.872889
O O13 0.365014 0.041554 0.882752
O O14 0.294557 0.098106 0.000000
O O15 0.543497 0.957458 0.677880
O O16 0.883076 0.794754 0.000000
O O17 0.066740 0.478625 0.500000
#
# Coordination Sequence:
#
# PCOD9496095 Si02
#       8
#     8  16  16  16  16   4  16  16
#     4  12  23  36  55  85 116 151 192 264 306 350
#     4  11  20  31  54  87 124 160 194 232 280 359
#     4  10  22  36  56  88 120 156 199 242 292 357
#     4  10  19  33  54  81 120 165 195 226 285 364
#     4   9  20  39  63  84 106 149 202 254 307 347
#     4  12  20  36  56  94 118 150 198 248 310 370
#     4   9  18  37  60  83 113 149 201 251 289 341
#     4  10  21  38  60  87 120 154 195 252 305 359
#
# _framework density 22.051303999999998
#
# number of rings (size 3 to 8) (size 9 to 14) (size 15 to 20)
#    0.000    1.926    2.222    3.333    2.074    0.889 
#    0.000    2.222    0.000    0.000    0.000    8.296 
#    0.000    0.000    0.000    0.000    0.000    0.000 
#
# Total GULP energy -301317.234615 kJ/mol
# GULP energy per Si atom -5579.948789 kJ/mol
# Density = 2.200111 g / cm^3
# Si number density = 22.051304 Si / 1000 Ang^3
#
#
#
# Elastic Constant Matrix: (Units=GPa)
#
#
# Indices 1 2 3 4 5 6 
#
# 1 145.9473 32.9878 76.2267 0.0000 0.0000 0.0000
# 2 32.9878 42.0947 16.7256 0.0000 0.0000 0.0000
# 3 76.2267 16.7256 130.6450 0.0000 0.0000 0.0000
# 4 0.0000 0.0000 0.0000 -27.9696 0.0000 0.0000
# 5 0.0000 0.0000 0.0000 0.0000 12.4312 0.0000
# 6 0.0000 0.0000 0.0000 0.0000 0.0000 26.6153
#
#
#
# Elastic Compliance Matrix: (Units=1/GPa)
#
#
# Indices 1 2 3 4 5 6 
#
# 1 0.011368 -0.006609 -0.005787 0.000000 0.000000 0.000000
# 2 -0.006609 0.028872 0.000160 0.000000 0.000000 0.000000
# 3 -0.005787 0.000160 0.011010 0.000000 0.000000 0.000000
# 4 0.000000 0.000000 0.000000 -0.035753 0.000000 0.000000
# 5 0.000000 0.000000 0.000000 0.000000 0.080442 0.000000
# 6 0.000000 0.000000 0.000000 0.000000 0.000000 0.037572
#
#
# Mechanical properties :
#
#
# Convention : Reuss Voigt Hill
#
# Bulk Modulus (GPa) = 37.34404 63.39635 50.37019
# Shear Modulus (GPa) = 29.95631 15.06517 22.51074
#
# Velocity S-wave (km/s) = 3.68976 2.61662 3.19852
# Velocity P-wave (km/s) = 5.92657 6.15961 6.04422
#
# Compressibility (1/GPa) = 0.02677803
#
# Stress axis : x y z
#
# Youngs Moduli (GPa) = 87.96630 34.63587 90.82523
#
# Poissons Ratio (x) = 0.22892 0.52558
# Poissons Ratio (y) = 0.58140 -0.01454
# Poissons Ratio (z) = 0.50903 -0.00554
#
# Static dielectric constant tensor:
#      x y z
#    x 1.834300 0.000000 0.000000 
#    y 0.000000 1.972660 0.000000 
#    z 0.000000 0.000000 1.864580 
# 
# From -- ./inp_files/32524.got.cif
#   From: 2010.05.17/outbox.cif.g08.bks.cpg/sg66_17_cif.got.tgz:32524.got - 2010.06.03 17:51:23.
