data_PCOD9496804
_publ_section_title
;
Structure prediction by ZEFSAII (Michael W. Deem and Ramdas Pophale) SiO2 
 PCOD9496804
Probable space group: C C C M
;
_chemical_formula_sum "Si O2"
_cell_formula_units_Z 104
_cell_length_a 17.070633
_cell_length_b 13.689761
_cell_length_c 25.095595
_cell_angle_alpha 90.000000
_cell_angle_beta 90.000000
_cell_angle_gamma 90.000000
_cell_volume 5864.662019
_symmetry_space_group_name_H-M "C C C M"
_symmetry_group_IT_number 66
_symmetry_cell_setting 'orthorhombic'
loop_
_space_group_symop_operation_xyz
x,y,z
-x,-y,z
x,-y,1/2-z
-x,y,1/2-z
-x,-y,-z
x,y,-z
-x,y,1/2+z
x,-y,1/2+z
1/2+x,1/2+y,z
1/2-x,1/2-y,z
1/2+x,1/2-y,1/2-z
1/2-x,1/2+y,1/2-z
1/2-x,1/2-y,-z
1/2+x,1/2+y,-z
1/2-x,1/2+y,1/2+z
1/2+x,1/2-y,1/2+z
loop_
_atom_site_type_symbol
_atom_site_label
_atom_site_fract_x
_atom_site_fract_y
_atom_site_fract_z
Si Si1 0.815878 0.665804 0.834322
Si Si2 0.000000 0.500000 0.750000
Si Si3 0.769043 0.032656 0.809459
Si Si4 0.014635 0.883842 0.440146
Si Si5 0.619007 0.844751 0.280168
Si Si6 0.154867 0.255548 0.941524
Si Si7 0.582752 0.358757 0.164361
Si Si8 0.000000 0.000000 0.250000
O O1 0.750000 0.750000 0.828546
O O2 0.770495 0.563232 0.833916
O O3 0.871185 0.672872 0.783103
O O4 0.861871 0.681870 0.889127
O O5 0.055044 0.429923 0.715097
O O6 0.701690 0.111812 0.798868
O O7 0.836599 0.081560 0.843990
O O8 0.797934 0.000000 0.750000
O O9 0.989024 0.852458 0.500000
O O10 0.104598 0.844703 0.435342
O O11 0.966438 0.845954 0.389510
O O12 0.000000 0.000000 0.438018
O O13 0.599165 0.746000 0.309877
O O14 0.250000 0.250000 0.941688
O O15 0.133099 0.295249 0.000000
O O16 0.541133 0.425876 0.208690
#
# Coordination Sequence:
#
# PCOD9496804 Si02
#       8
#    16   4  16  16  16  16  16   4
#     4  10  20  33  61  83 114 153 194 240 298 360
#     4  12  22  38  56  86 118 158 202 240 292 378
#     4  10  20  40  55  84 120 160 196 239 302 378
#     4  10  23  40  57  83 123 166 204 252 317 371
#     4  11  23  38  57  85 117 158 197 236 301 364
#     4   9  20  36  56  82 113 155 204 247 294 364
#     4  12  24  37  60  86 126 152 195 253 311 360
#     4  12  26  30  50  98 120 138 186 246 308 360
#
# _framework density 17.733332000000001
#
# number of rings (size 3 to 8) (size 9 to 14) (size 15 to 20)
#    0.000    1.538    3.846    2.769    8.615    0.000 
#    0.000    0.000    0.000    2.769    0.000    3.231 
#    0.000    0.000    0.000    0.000    0.000    0.000 
#
# Total GULP energy -289770.959283 kJ/mol
# GULP energy per Si atom -5572.518448 kJ/mol
# Density = 1.769297 g / cm^3
# Si number density = 17.733332 Si / 1000 Ang^3
#
#
#
# Elastic Constant Matrix: (Units=GPa)
#
#
# Indices 1 2 3 4 5 6 
#
# 1 76.6637 31.2910 52.1274 0.0000 0.0000 0.0000
# 2 31.2910 110.1674 58.1251 0.0000 0.0000 0.0000
# 3 52.1274 58.1251 128.8057 0.0000 0.0000 0.0000
# 4 0.0000 0.0000 0.0000 -0.0155 0.0000 0.0000
# 5 0.0000 0.0000 0.0000 0.0000 18.2928 0.0000
# 6 0.0000 0.0000 0.0000 0.0000 0.0000 27.8880
#
#
#
# Elastic Compliance Matrix: (Units=1/GPa)
#
#
# Indices 1 2 3 4 5 6 
#
# 1 0.018232 -0.001687 -0.006617 0.000000 0.000000 0.000000
# 2 -0.001687 0.012070 -0.004764 0.000000 0.000000 0.000000
# 3 -0.006617 -0.004764 0.012591 0.000000 0.000000 0.000000
# 4 0.000000 0.000000 0.000000-64.515024 0.000000 0.000000
# 5 0.000000 0.000000 0.000000 0.000000 0.054666 0.000000
# 6 0.000000 0.000000 0.000000 0.000000 0.000000 0.035858
#
#
# Mechanical properties :
#
#
# Convention : Reuss Voigt Hill
#
# Bulk Modulus (GPa) = 59.67740 66.52487 63.10113
# Shear Modulus (GPa) = -0.07770 20.83929 10.38080
#
# Velocity S-wave (km/s) = -0.20955 3.43176 2.42209
# Velocity P-wave (km/s) = 5.80234 7.30056 6.59414
#
# Compressibility (1/GPa) = 0.01675676
#
# Stress axis : x y z
#
# Youngs Moduli (GPa) = 54.84898 82.85192 79.42026
#
# Poissons Ratio (x) = 0.13979 0.52553
# Poissons Ratio (y) = 0.09254 0.37834
# Poissons Ratio (z) = 0.36294 0.39469
#
# Static dielectric constant tensor:
#      x y z
#    x 1.653770 0.000000 0.000000 
#    y 0.000000 1.592560 0.000000 
#    z 0.000000 0.000000 1.625310 
# 
# From -- ./inp_files/65309.got.cif
#   From: 2010.05.17/outbox.cif.g08.bks.cpg/sg66_33_cif.got.tgz:65309.got - 2010.06.03 17:51:23.
