data_PCOD9496792
_publ_section_title
;
Structure prediction by ZEFSAII (Michael W. Deem and Ramdas Pophale) SiO2 
 PCOD9496792
Probable space group: C C C M
;
_chemical_formula_sum "Si O2"
_cell_formula_units_Z 100
_cell_length_a 17.212574
_cell_length_b 17.212556
_cell_length_c 19.553972
_cell_angle_alpha 90.000000
_cell_angle_beta 90.000000
_cell_angle_gamma 90.000000
_cell_volume 5793.302094
_symmetry_space_group_name_H-M "C C C M"
_symmetry_group_IT_number 66
_symmetry_cell_setting 'orthorhombic'
loop_
_space_group_symop_operation_xyz
x,y,z
-x,-y,z
x,-y,1/2-z
-x,y,1/2-z
-x,-y,-z
x,y,-z
-x,y,1/2+z
x,-y,1/2+z
1/2+x,1/2+y,z
1/2-x,1/2-y,z
1/2+x,1/2-y,1/2-z
1/2-x,1/2+y,1/2-z
1/2-x,1/2-y,-z
1/2+x,1/2+y,-z
1/2-x,1/2+y,1/2+z
1/2+x,1/2-y,1/2+z
loop_
_atom_site_type_symbol
_atom_site_label
_atom_site_fract_x
_atom_site_fract_y
_atom_site_fract_z
Si Si1 0.082796 0.582796 0.873951
Si Si2 0.925428 0.204690 0.704578
Si Si3 0.704690 0.574572 0.795422
Si Si4 0.814077 0.558229 0.921841
Si Si5 0.558229 0.185923 0.421841
Si Si6 0.313353 0.186647 0.707450
Si Si7 0.500000 0.000000 0.250000
O O1 0.123549 0.510887 0.910978
O O2 0.146767 0.646767 0.856770
O O3 0.010887 0.623549 0.910978
O O4 0.051749 0.551749 0.800544
O O5 0.867673 0.132327 0.693714
O O6 0.948684 0.246206 0.633743
O O7 0.877692 0.269558 0.747277
O O8 0.000000 0.183277 0.750000
O O9 0.683277 0.500000 0.750000
O O10 0.746206 0.551316 0.866257
O O11 0.769558 0.622308 0.752723
O O12 0.861809 0.638191 0.910580
O O13 0.786287 0.556832 0.000000
O O14 0.556832 0.213713 0.500000
O O15 0.250000 0.250000 0.687004
#
# Coordination Sequence:
#
# PCOD9496792 Si02
#       7
#    16  16  16  16  16  16   4
#     4  12  19  33  54  81 122 155 189 229 284 346
#     4  11  22  38  60  85 112 148 195 242 287 337
#     4  11  22  38  60  85 112 148 195 242 287 337
#     4  11  22  35  54  86 125 156 184 225 284 352
#     4  11  22  35  54  86 125 156 184 225 284 352
#     4  10  20  33  56  84 107 139 186 239 284 329
#     4  12  20  24  54  88 108 156 190 236 280 328
#
# _framework density 17.261313000000001
#
# number of rings (size 3 to 8) (size 9 to 14) (size 15 to 20)
#    0.000    0.960    6.400    2.400    0.000    2.240 
#    0.000    1.600    0.000    4.800    0.000    2.240 
#    0.000    0.000    0.000    0.000    0.000    0.000 
#
# Total GULP energy -279274.287218 kJ/mol
# GULP energy per Si atom -5585.485744 kJ/mol
# Density = 1.722203 g / cm^3
# Si number density = 17.261313 Si / 1000 Ang^3
#
#
#
# Elastic Constant Matrix: (Units=GPa)
#
#
# Indices 1 2 3 4 5 6 
#
# 1 71.1326 29.9441 38.8794 0.0000 0.0000 0.0000
# 2 29.9441 71.1323 38.8794 0.0000 0.0000 0.0000
# 3 38.8794 38.8794 103.3198 0.0000 0.0000 0.0000
# 4 0.0000 0.0000 0.0000 6.8132 0.0000 0.0000
# 5 0.0000 0.0000 0.0000 0.0000 6.8132 0.0000
# 6 0.0000 0.0000 0.0000 0.0000 0.0000 24.9223
#
#
#
# Elastic Compliance Matrix: (Units=1/GPa)
#
#
# Indices 1 2 3 4 5 6 
#
# 1 0.019102 -0.005177 -0.005240 0.000000 0.000000 0.000000
# 2 -0.005177 0.019102 -0.005240 0.000000 0.000000 0.000000
# 3 -0.005240 -0.005240 0.013622 0.000000 0.000000 0.000000
# 4 0.000000 0.000000 0.000000 0.146774 0.000000 0.000000
# 5 0.000000 0.000000 0.000000 0.000000 0.146773 0.000000
# 6 0.000000 0.000000 0.000000 0.000000 0.000000 0.040125
#
#
# Mechanical properties :
#
#
# Convention : Reuss Voigt Hill
#
# Bulk Modulus (GPa) = 48.75208 51.22118 49.98663
# Shear Modulus (GPa) = 11.80223 16.90185 14.35204
#
# Velocity S-wave (km/s) = 2.61768 3.13257 2.88663
# Velocity P-wave (km/s) = 6.11892 6.54388 6.33497
#
# Compressibility (1/GPa) = 0.02051195
#
# Stress axis : x y z
#
# Youngs Moduli (GPa) = 52.35174 52.35145 73.40969
#
# Poissons Ratio (x) = 0.27103 0.38465
# Poissons Ratio (y) = 0.27103 0.38465
# Poissons Ratio (z) = 0.27431 0.27431
#
# Static dielectric constant tensor:
#      x y z
#    x 1.587990 0.000000 0.000000 
#    y 0.000000 1.587990 0.000000 
#    z 0.000000 0.000000 1.571830 
# 
# From -- ./inp_files/51128.got.cif
#   From: 2010.05.17/outbox.cif.g08.bks.cpg/sg66_26_cif.got.tgz:51128.got - 2010.06.03 17:51:23.
