data_PCOD9496309
_publ_section_title
;
Structure prediction by ZEFSAII (Michael W. Deem and Ramdas Pophale) SiO2 
 PCOD9496309
Probable space group: C C C M
;
_chemical_formula_sum "Si O2"
_cell_formula_units_Z 96
_cell_length_a 10.581956
_cell_length_b 26.723489
_cell_length_c 18.265949
_cell_angle_alpha 90.000000
_cell_angle_beta 90.000000
_cell_angle_gamma 90.000000
_cell_volume 5165.368988
_symmetry_space_group_name_H-M "C C C M"
_symmetry_group_IT_number 66
_symmetry_cell_setting 'orthorhombic'
loop_
_space_group_symop_operation_xyz
x,y,z
-x,-y,z
x,-y,1/2-z
-x,y,1/2-z
-x,-y,-z
x,y,-z
-x,y,1/2+z
x,-y,1/2+z
1/2+x,1/2+y,z
1/2-x,1/2-y,z
1/2+x,1/2-y,1/2-z
1/2-x,1/2+y,1/2-z
1/2-x,1/2-y,-z
1/2+x,1/2+y,-z
1/2-x,1/2+y,1/2+z
1/2+x,1/2-y,1/2+z
loop_
_atom_site_type_symbol
_atom_site_label
_atom_site_fract_x
_atom_site_fract_y
_atom_site_fract_z
Si Si1 0.136881 0.974048 0.583037
Si Si2 0.545002 0.333532 0.914219
Si Si3 0.126112 0.634161 0.791733
Si Si4 0.742824 0.919691 0.418446
Si Si5 0.877242 0.114950 0.304011
Si Si6 0.387684 0.751697 0.194817
O O1 0.148387 0.951978 0.500000
O O2 0.149822 0.935148 0.649024
O O3 0.226371 0.022084 0.589043
O O4 0.000000 0.000000 0.586804
O O5 0.634003 0.383261 0.909159
O O6 0.421619 0.346023 0.866338
O O7 0.609281 0.286482 0.873166
O O8 0.522918 0.324168 0.000000
O O9 0.147430 0.597048 0.857699
O O10 0.253814 0.631291 0.742010
O O11 0.100761 0.689806 0.823212
O O12 0.000000 0.620102 0.750000
O O13 0.696378 0.910022 0.500000
O O14 0.000000 0.108962 0.250000
O O15 0.500000 0.738014 0.250000
O O16 0.250000 0.750000 0.231552
#
# Coordination Sequence:
#
# PCOD9496309 Si02
#       6
#    16  16  16  16  16  16
#     4  10  19  34  59  91 123 154 194 250 313 364
#     4  11  21  35  60  91 120 150 196 250 304 361
#     4  11  24  40  59  85 121 164 205 250 300 358
#     4  10  20  37  58  87 122 154 195 246 297 355
#     4  12  21  38  61  90 123 153 197 253 307 359
#     4  11  21  37  59  85 114 155 199 250 305 361
#
# _framework density 18.585312999999999
#
# number of rings (size 3 to 8) (size 9 to 14) (size 15 to 20)
#    0.000    1.167    5.000    2.000    0.000    3.333 
#    0.000    3.333    0.000   12.500    0.000    0.000 
#    0.000    0.000    0.000    0.000    0.000    0.000 
#
# Total GULP energy -267713.262268 kJ/mol
# GULP energy per Si atom -5577.359631 kJ/mol
# Density = 1.854301 g / cm^3
# Si number density = 18.585313 Si / 1000 Ang^3
#
#
#
# Elastic Constant Matrix: (Units=GPa)
#
#
# Indices 1 2 3 4 5 6 
#
# 1 95.9080 23.0146 57.9735 0.0000 0.0000 0.0000
# 2 23.0146 80.9998 65.4751 0.0000 0.0000 0.0000
# 3 57.9735 65.4751 131.6966 0.0000 0.0000 0.0000
# 4 0.0000 0.0000 0.0000 14.9974 0.0000 0.0000
# 5 0.0000 0.0000 0.0000 0.0000 15.3036 0.0000
# 6 0.0000 0.0000 0.0000 0.0000 0.0000 19.0560
#
#
#
# Elastic Compliance Matrix: (Units=1/GPa)
#
#
# Indices 1 2 3 4 5 6 
#
# 1 0.014349 0.001720 -0.007172 0.000000 0.000000 0.000000
# 2 0.001720 0.020847 -0.011122 0.000000 0.000000 0.000000
# 3 -0.007172 -0.011122 0.016280 0.000000 0.000000 0.000000
# 4 0.000000 0.000000 0.000000 0.066678 0.000000 0.000000
# 5 0.000000 0.000000 0.000000 0.000000 0.065344 0.000000
# 6 0.000000 0.000000 0.000000 0.000000 0.000000 0.052477
#
#
# Mechanical properties :
#
#
# Convention : Reuss Voigt Hill
#
# Bulk Modulus (GPa) = 54.55800 66.83677 60.69739
# Shear Modulus (GPa) = 18.16660 20.68083 19.42371
#
# Velocity S-wave (km/s) = 3.12984 3.33941 3.23632
# Velocity P-wave (km/s) = 6.51770 7.13506 6.83336
#
# Compressibility (1/GPa) = 0.01832912
#
# Stress axis : x y z
#
# Youngs Moduli (GPa) = 69.69157 47.96851 61.42684
#
# Poissons Ratio (x) = -0.08251 0.44053
# Poissons Ratio (y) = -0.11988 0.68317
# Poissons Ratio (z) = 0.49981 0.53349
#
# Static dielectric constant tensor:
#      x y z
#    x 1.698030 0.000000 0.000000 
#    y 0.000000 1.679740 0.000000 
#    z 0.000000 0.000000 1.639540 
# 
# From -- ./inp_files/47309.got.cif
#   From: 2010.05.17/outbox.cif.g08.bks.cpg/sg66_24_cif.got.tgz:47309.got - 2010.06.03 17:51:23.
