data_PCOD9496608
_publ_section_title
;
Structure prediction by ZEFSAII (Michael W. Deem and Ramdas Pophale) SiO2 
 PCOD9496608
Probable space group: C C C M
;
_chemical_formula_sum "Si O2"
_cell_formula_units_Z 36
_cell_length_a 11.750813
_cell_length_b 7.111836
_cell_length_c 15.164819
_cell_angle_alpha 90.000000
_cell_angle_beta 90.000000
_cell_angle_gamma 90.000000
_cell_volume 1267.321724
_symmetry_space_group_name_H-M "C C C M"
_symmetry_group_IT_number 66
_symmetry_cell_setting 'orthorhombic'
loop_
_space_group_symop_operation_xyz
x,y,z
-x,-y,z
x,-y,1/2-z
-x,y,1/2-z
-x,-y,-z
x,y,-z
-x,y,1/2+z
x,-y,1/2+z
1/2+x,1/2+y,z
1/2-x,1/2-y,z
1/2+x,1/2-y,1/2-z
1/2-x,1/2+y,1/2-z
1/2-x,1/2-y,-z
1/2+x,1/2+y,-z
1/2-x,1/2+y,1/2+z
1/2+x,1/2-y,1/2+z
loop_
_atom_site_type_symbol
_atom_site_label
_atom_site_fract_x
_atom_site_fract_y
_atom_site_fract_z
Si Si1 0.995535 0.718529 0.105360
Si Si2 0.750000 0.250000 0.000000
Si Si3 0.688661 0.500651 0.346069
O O1 0.873029 0.809301 0.124411
O O2 0.000000 0.500000 0.125418
O O3 0.084069 0.847386 0.158238
O O4 0.026892 0.749980 0.000000
O O5 0.761825 0.413068 0.076466
O O6 0.742336 0.500000 0.250000
#
# Coordination Sequence:
#
# PCOD9496608 Si02
#       3
#    16   4  16
#     4  10  19  40  73 103 129 176 243 301 350 415
#     4  12  24  50  62  98 156 180 236 300 354 438
#     4  11  23  43  69  95 139 192 229 294 357 422
#
# _framework density 28.406364
#
# number of rings (size 3 to 8) (size 9 to 14) (size 15 to 20)
#    0.000    1.333    4.444    4.000    0.000    3.556 
#    8.000    2.222    0.000    0.000    0.000    0.000 
#    0.000    0.000    0.000    0.000    0.000    0.000 
#
# Total GULP energy -100675.407981 kJ/mol
# GULP energy per Si atom -5593.078221 kJ/mol
# Density = 2.834171 g / cm^3
# Si number density = 28.406364 Si / 1000 Ang^3
#
#
#
# Elastic Constant Matrix: (Units=GPa)
#
#
# Indices 1 2 3 4 5 6 
#
# 1 79.6176 26.9181 22.8138 0.0000 0.0000 0.0000
# 2 26.9181 259.1704 59.1550 0.0000 0.0000 0.0000
# 3 22.8138 59.1550 265.4563 0.0000 0.0000 0.0000
# 4 0.0000 0.0000 0.0000 20.0998 0.0000 0.0000
# 5 0.0000 0.0000 0.0000 0.0000 33.4651 0.0000
# 6 0.0000 0.0000 0.0000 0.0000 0.0000 49.1755
#
#
#
# Elastic Compliance Matrix: (Units=1/GPa)
#
#
# Indices 1 2 3 4 5 6 
#
# 1 0.013207 -0.001172 -0.000874 0.000000 0.000000 0.000000
# 2 -0.001172 0.004169 -0.000828 0.000000 0.000000 0.000000
# 3 -0.000874 -0.000828 0.004027 0.000000 0.000000 0.000000
# 4 0.000000 0.000000 0.000000 0.049752 0.000000 0.000000
# 5 0.000000 0.000000 0.000000 0.000000 0.029882 0.000000
# 6 0.000000 0.000000 0.000000 0.000000 0.000000 0.020335
#
#
# Mechanical properties :
#
#
# Convention : Reuss Voigt Hill
#
# Bulk Modulus (GPa) = 63.88123 91.33534 77.60829
# Shear Modulus (GPa) = 37.78187 53.57191 45.67689
#
# Velocity S-wave (km/s) = 3.65094 4.34742 4.01431
# Velocity P-wave (km/s) = 6.34899 7.57780 6.99045
#
# Compressibility (1/GPa) = 0.01565405
#
# Stress axis : x y z
#
# Youngs Moduli (GPa) = 75.71894 239.84919 248.33712
#
# Poissons Ratio (x) = 0.28116 0.21699
# Poissons Ratio (y) = 0.08876 0.20571
# Poissons Ratio (z) = 0.06616 0.19868
#
# Static dielectric constant tensor:
#      x y z
#    x 1.767230 0.000000 0.000000 
#    y 0.000000 2.164850 0.000000 
#    z 0.000000 0.000000 2.060180 
# 
# From -- ./inp_files/23024.got.cif
#   From: 2010.05.17/outbox.cif.g08.bks.cpg/sg66_12_cif.got.tgz:23024.got - 2010.06.03 17:51:23.
