data_PCOD9496073
_publ_section_title
;
Structure prediction by ZEFSAII (Michael W. Deem and Ramdas Pophale) SiO2 
 PCOD9496073
Probable space group: C C C M
;
_chemical_formula_sum "Si O2"
_cell_formula_units_Z 88
_cell_length_a 7.684622
_cell_length_b 22.446158
_cell_length_c 26.832589
_cell_angle_alpha 90.000000
_cell_angle_beta 90.000000
_cell_angle_gamma 90.000000
_cell_volume 4628.359705
_symmetry_space_group_name_H-M "C C C M"
_symmetry_group_IT_number 66
_symmetry_cell_setting 'orthorhombic'
loop_
_space_group_symop_operation_xyz
x,y,z
-x,-y,z
x,-y,1/2-z
-x,y,1/2-z
-x,-y,-z
x,y,-z
-x,y,1/2+z
x,-y,1/2+z
1/2+x,1/2+y,z
1/2-x,1/2-y,z
1/2+x,1/2-y,1/2-z
1/2-x,1/2+y,1/2-z
1/2-x,1/2-y,-z
1/2+x,1/2+y,-z
1/2-x,1/2+y,1/2+z
1/2+x,1/2-y,1/2+z
loop_
_atom_site_type_symbol
_atom_site_label
_atom_site_fract_x
_atom_site_fract_y
_atom_site_fract_z
Si Si1 0.289787 0.994784 0.807537
Si Si2 0.907917 0.296523 0.558304
Si Si3 0.750000 0.250000 0.883568
Si Si4 0.802935 0.614228 0.138429
Si Si5 0.313114 0.136483 0.681753
Si Si6 0.676639 0.685548 0.779629
O O1 0.251893 0.046768 0.847517
O O2 0.500000 0.000000 0.803529
O O3 0.224035 0.000000 0.750000
O O4 0.236960 0.929490 0.826582
O O5 0.943285 0.306102 0.500000
O O6 0.750000 0.250000 0.563771
O O7 0.842197 0.357945 0.584516
O O8 0.079594 0.267686 0.584120
O O9 0.768450 0.191888 0.848135
O O10 0.662090 0.652377 0.168436
O O11 0.986247 0.630196 0.165658
O O12 0.295163 0.150093 0.740179
O O13 0.500000 0.691706 0.750000
O O14 0.750000 0.750000 0.789939
#
# Coordination Sequence:
#
# PCOD9496073 Si02
#       6
#    16  16   8  16  16  16
#     4   9  16  30  52  76 110 150 188 219 269 347
#     4  10  22  39  62  85 109 146 196 248 297 338
#     4  10  21  36  60  84 116 144 187 244 298 350
#     4  10  20  35  56  76 110 149 186 234 276 342
#     4  10  19  33  52  81 110 148 184 221 282 345
#     4  12  23  31  48  77 115 147 180 226 278 349
#
# _framework density 19.013216
#
# number of rings (size 3 to 8) (size 9 to 14) (size 15 to 20)
#    0.000    1.818    2.727    2.455    5.091    0.000 
#    0.000    1.818    0.000   14.727    0.000    2.545 
#    0.000    0.000    0.000    0.000    0.000    0.000 
#
# Total GULP energy -245267.490226 kJ/mol
# GULP energy per Si atom -5574.261142 kJ/mol
# Density = 1.896994 g / cm^3
# Si number density = 19.013216 Si / 1000 Ang^3
#
#
#
# Elastic Constant Matrix: (Units=GPa)
#
#
# Indices 1 2 3 4 5 6 
#
# 1 43.8097 31.2863 27.0265 0.0000 0.0000 0.0000
# 2 31.2863 179.7031 68.1570 0.0000 0.0000 0.0000
# 3 27.0265 68.1570 122.1535 0.0000 0.0000 0.0000
# 4 0.0000 0.0000 0.0000 11.6054 0.0000 0.0000
# 5 0.0000 0.0000 0.0000 0.0000 38.4631 0.0000
# 6 0.0000 0.0000 0.0000 0.0000 0.0000 14.2022
#
#
#
# Elastic Compliance Matrix: (Units=1/GPa)
#
#
# Indices 1 2 3 4 5 6 
#
# 1 0.027796 -0.003180 -0.004376 0.000000 0.000000 0.000000
# 2 -0.003180 0.007422 -0.003438 0.000000 0.000000 0.000000
# 3 -0.004376 -0.003438 0.011073 0.000000 0.000000 0.000000
# 4 0.000000 0.000000 0.000000 0.086167 0.000000 0.000000
# 5 0.000000 0.000000 0.000000 0.000000 0.025999 0.000000
# 6 0.000000 0.000000 0.000000 0.000000 0.000000 0.070412
#
#
# Mechanical properties :
#
#
# Convention : Reuss Voigt Hill
#
# Bulk Modulus (GPa) = 41.14452 66.51178 53.82815
# Shear Modulus (GPa) = 19.30828 27.46725 23.38776
#
# Velocity S-wave (km/s) = 3.19018 3.80497 3.51105
# Velocity P-wave (km/s) = 5.93773 7.37302 6.69395
#
# Compressibility (1/GPa) = 0.02430457
#
# Stress axis : x y z
#
# Youngs Moduli (GPa) = 35.97618 134.73121 90.31212
#
# Poissons Ratio (x) = 0.42840 0.39518
# Poissons Ratio (y) = 0.11439 0.31047
# Poissons Ratio (z) = 0.15742 0.46318
#
# Static dielectric constant tensor:
#      x y z
#    x 1.752000 0.000000 0.000000 
#    y 0.000000 1.706270 0.000000 
#    z 0.000000 0.000000 1.644220 
# 
# From -- ./inp_files/68240.got.cif
#   From: 2010.05.17/outbox.cif.g08.bks.cpg/sg66_35_cif.got.tgz:68240.got - 2010.06.03 17:51:23.
