data_PCOD9496655
_publ_section_title
;
Structure prediction by ZEFSAII (Michael W. Deem and Ramdas Pophale) SiO2 
 PCOD9496655
Probable space group: C C C M
;
_chemical_formula_sum "Si O2"
_cell_formula_units_Z 96
_cell_length_a 33.511444
_cell_length_b 19.194819
_cell_length_c 8.759880
_cell_angle_alpha 90.000000
_cell_angle_beta 90.000000
_cell_angle_gamma 90.000000
_cell_volume 5634.758664
_symmetry_space_group_name_H-M "C C C M"
_symmetry_group_IT_number 66
_symmetry_cell_setting 'orthorhombic'
loop_
_space_group_symop_operation_xyz
x,y,z
-x,-y,z
x,-y,1/2-z
-x,y,1/2-z
-x,-y,-z
x,y,-z
-x,y,1/2+z
x,-y,1/2+z
1/2+x,1/2+y,z
1/2-x,1/2-y,z
1/2+x,1/2-y,1/2-z
1/2-x,1/2+y,1/2-z
1/2-x,1/2-y,-z
1/2+x,1/2+y,-z
1/2-x,1/2+y,1/2+z
1/2+x,1/2-y,1/2+z
loop_
_atom_site_type_symbol
_atom_site_label
_atom_site_fract_x
_atom_site_fract_y
_atom_site_fract_z
Si Si1 0.376435 0.286969 0.684236
Si Si2 0.744404 0.076268 0.683328
Si Si3 0.588914 0.074907 0.816909
Si Si4 0.830811 0.075889 0.183104
Si Si5 0.164057 0.347085 0.817194
Si Si6 0.956956 0.713928 0.683224
O O1 0.374408 0.280338 0.500000
O O2 0.362014 0.363936 0.725633
O O3 0.347503 0.228738 0.755019
O O4 0.421354 0.266061 0.730902
O O5 0.747739 0.071682 0.500000
O O6 0.787177 0.095891 0.752829
O O7 0.708624 0.128531 0.722230
O O8 0.734512 0.000000 0.750000
O O9 0.631812 0.099854 0.754146
O O10 0.558197 0.136396 0.772748
O O11 0.578300 0.000000 0.750000
O O12 0.590624 0.071718 0.000000
O O13 0.840616 0.000000 0.250000
O O14 0.828646 0.071065 0.000000
O O15 0.160039 0.348515 0.000000
O O16 0.959296 0.715746 0.500000
O O17 0.000000 0.729628 0.750000
#
# Coordination Sequence:
#
# PCOD9496655 Si02
#       6
#    16  16  16  16  16  16
#     4   9  20  37  54  74 101 131 162 200 248 300
#     4  10  20  32  47  71 102 135 172 211 247 285
#     4  10  20  33  49  71 102 137 174 213 248 287
#     4  10  20  35  55  76  99 129 164 202 247 298
#     4  10  20  32  49  73 101 136 175 212 248 287
#     4   9  19  35  53  74  99 127 161 202 247 297
#
# _framework density 17.037108
#
# number of rings (size 3 to 8) (size 9 to 14) (size 15 to 20)
#    0.000    2.333    0.000    4.500    0.000    9.667 
#    0.000    5.000    0.000    0.500    0.000    3.500 
#    0.000    0.000    0.000    0.000    0.000    0.000 
#
# Total GULP energy -267834.135964 kJ/mol
# GULP energy per Si atom -5579.877833 kJ/mol
# Density = 1.699833 g / cm^3
# Si number density = 17.037108 Si / 1000 Ang^3
#
#
#
# Elastic Constant Matrix: (Units=GPa)
#
#
# Indices 1 2 3 4 5 6 
#
# 1 133.1728 105.9991 43.6223 0.0000 0.0000 0.0000
# 2 105.9991 106.2672 39.1372 0.0000 0.0000 0.0000
# 3 43.6223 39.1372 39.1053 0.0000 0.0000 0.0000
# 4 0.0000 0.0000 0.0000 138.9750 0.0000 0.0000
# 5 0.0000 0.0000 0.0000 0.0000 14.1542 0.0000
# 6 0.0000 0.0000 0.0000 0.0000 0.0000 8.3404
#
#
#
# Elastic Compliance Matrix: (Units=1/GPa)
#
#
# Indices 1 2 3 4 5 6 
#
# 1 0.037608 -0.034942 -0.006982 0.000000 0.000000 0.000000
# 2 -0.034942 0.047368 -0.008429 0.000000 0.000000 0.000000
# 3 -0.006982 -0.008429 0.041796 0.000000 0.000000 0.000000
# 4 0.000000 0.000000 0.000000 0.007196 0.000000 0.000000
# 5 0.000000 0.000000 0.000000 0.000000 0.070650 0.000000
# 6 0.000000 0.000000 0.000000 0.000000 0.000000 0.119898
#
#
# Mechanical properties :
#
#
# Convention : Reuss Voigt Hill
#
# Bulk Modulus (GPa) = 38.36239 72.89585 55.62912
# Shear Modulus (GPa) = 11.52311 38.27969 24.90140
#
# Velocity S-wave (km/s) = 2.60350 4.74523 3.82723
# Velocity P-wave (km/s) = 5.62170 8.53829 7.22862
#
# Compressibility (1/GPa) = 0.02606720
#
# Stress axis : x y z
#
# Youngs Moduli (GPa) = 26.59010 21.11118 23.92572
#
# Poissons Ratio (x) = 0.73766 0.16704
# Poissons Ratio (y) = 0.92911 0.20167
# Poissons Ratio (z) = 0.18564 0.17795
#
# Static dielectric constant tensor:
#      x y z
#    x 1.564530 0.000000 0.000000 
#    y 0.000000 1.567560 0.000000 
#    z 0.000000 0.000000 1.573750 
# 
# From -- ./inp_files/10239.got.cif
#   From: 2010.05.17/outbox.cif.g08.bks.cpg/sg66_6_cif.got.tgz:10239.got - 2010.06.03 17:51:23.
