data_PCOD9496310
_publ_section_title
;
Structure prediction by ZEFSAII (Michael W. Deem and Ramdas Pophale) SiO2 
 PCOD9496310
Probable space group: C C C M
;
_chemical_formula_sum "Si O2"
_cell_formula_units_Z 52
_cell_length_a 27.035874
_cell_length_b 5.051141
_cell_length_c 15.093285
_cell_angle_alpha 90.000000
_cell_angle_beta 90.000000
_cell_angle_gamma 90.000000
_cell_volume 2061.169362
_symmetry_space_group_name_H-M "C C C M"
_symmetry_group_IT_number 66
_symmetry_cell_setting 'orthorhombic'
loop_
_space_group_symop_operation_xyz
x,y,z
-x,-y,z
x,-y,1/2-z
-x,y,1/2-z
-x,-y,-z
x,y,-z
-x,y,1/2+z
x,-y,1/2+z
1/2+x,1/2+y,z
1/2-x,1/2-y,z
1/2+x,1/2-y,1/2-z
1/2-x,1/2+y,1/2-z
1/2-x,1/2-y,-z
1/2+x,1/2+y,-z
1/2-x,1/2+y,1/2+z
1/2+x,1/2-y,1/2+z
loop_
_atom_site_type_symbol
_atom_site_label
_atom_site_fract_x
_atom_site_fract_y
_atom_site_fract_z
Si Si1 0.546333 0.799527 0.906265
Si Si2 0.500000 0.500000 0.250000
Si Si3 0.847441 0.501371 0.142562
Si Si4 0.289955 0.522863 0.856680
O O1 0.536155 0.647540 0.816494
O O2 0.600005 0.924574 0.895881
O O3 0.500000 0.000000 0.909180
O O4 0.546391 0.648566 0.000000
O O5 0.848030 0.500000 0.250000
O O6 0.837613 0.196850 0.119154
O O7 0.804648 0.720980 0.116160
O O8 0.282925 0.500000 0.750000
O O9 0.250000 0.750000 0.885406
#
# Coordination Sequence:
#
# PCOD9496310 Si02
#       4
#    16   4  16  16
#     4  11  26  45  68 101 142 186 234 293 359 429
#     4  12  24  44  72 100 136 180 236 292 346 430
#     4  10  21  36  63  96 134 182 229 291 350 418
#     4  10  19  34  59  96 136 174 234 291 350 414
#
# _framework density 25.228397999999999
#
# number of rings (size 3 to 8) (size 9 to 14) (size 15 to 20)
#    0.000    1.538    0.000    6.462   10.769    0.000 
#    0.000    0.000    0.000    5.538    0.000    0.000 
#    0.000    1.846    0.000    0.000    0.000    0.000 
#
# Total GULP energy -144963.376321 kJ/mol
# GULP energy per Si atom -5575.514474 kJ/mol
# Density = 2.517098 g / cm^3
# Si number density = 25.228398 Si / 1000 Ang^3
#
#
#
# Elastic Constant Matrix: (Units=GPa)
#
#
# Indices 1 2 3 4 5 6 
#
# 1 93.5320 22.6125 18.1011 0.0000 0.0000 0.0000
# 2 22.6125 149.5473 31.9753 0.0000 0.0000 0.0000
# 3 18.1011 31.9753 143.9930 0.0000 0.0000 0.0000
# 4 0.0000 0.0000 0.0000 40.7592 0.0000 0.0000
# 5 0.0000 0.0000 0.0000 0.0000 301.2055 0.0000
# 6 0.0000 0.0000 0.0000 0.0000 0.0000 37.7262
#
#
#
# Elastic Compliance Matrix: (Units=1/GPa)
#
#
# Indices 1 2 3 4 5 6 
#
# 1 0.011257 -0.001469 -0.001089 0.000000 0.000000 0.000000
# 2 -0.001469 0.007212 -0.001417 0.000000 0.000000 0.000000
# 3 -0.001089 -0.001417 0.007396 0.000000 0.000000 0.000000
# 4 0.000000 0.000000 0.000000 0.024534 0.000000 0.000000
# 5 0.000000 0.000000 0.000000 0.000000 0.003320 0.000000
# 6 0.000000 0.000000 0.000000 0.000000 0.000000 0.026507
#
#
# Mechanical properties :
#
#
# Convention : Reuss Voigt Hill
#
# Bulk Modulus (GPa) = 55.81714 59.16114 57.48914
# Shear Modulus (GPa) = 53.10742 96.89707 75.00225
#
# Velocity S-wave (km/s) = 4.59308 6.20414 5.45837
# Velocity P-wave (km/s) = 7.09234 8.65002 7.90962
#
# Compressibility (1/GPa) = 0.01791564
#
# Stress axis : x y z
#
# Youngs Moduli (GPa) = 88.82972 138.65858 135.20324
#
# Poissons Ratio (x) = 0.20374 0.14722
# Poissons Ratio (y) = 0.13053 0.19155
# Poissons Ratio (z) = 0.09672 0.19645
#
# Static dielectric constant tensor:
#      x y z
#    x 2.090200 0.000000 0.000000 
#    y 0.000000 2.039420 0.000000 
#    z 0.000000 0.000000 2.044230 
# 
# From -- ./inp_files/43919.got.cif
#   From: 2010.05.17/outbox.cif.g08.bks.cpg/sg66_22_cif.got.tgz:43919.got - 2010.06.03 17:51:23.
