data_PCOD9496391
_publ_section_title
;
Structure prediction by ZEFSAII (Michael W. Deem and Ramdas Pophale) SiO2 
 PCOD9496391
Probable space group: C C C M
;
_chemical_formula_sum "Si O2"
_cell_formula_units_Z 88
_cell_length_a 21.646931
_cell_length_b 12.799299
_cell_length_c 15.818215
_cell_angle_alpha 90.000000
_cell_angle_beta 90.000000
_cell_angle_gamma 90.000000
_cell_volume 4382.682317
_symmetry_space_group_name_H-M "C C C M"
_symmetry_group_IT_number 66
_symmetry_cell_setting 'orthorhombic'
loop_
_space_group_symop_operation_xyz
x,y,z
-x,-y,z
x,-y,1/2-z
-x,y,1/2-z
-x,-y,-z
x,y,-z
-x,y,1/2+z
x,-y,1/2+z
1/2+x,1/2+y,z
1/2-x,1/2-y,z
1/2+x,1/2-y,1/2-z
1/2-x,1/2+y,1/2-z
1/2-x,1/2-y,-z
1/2+x,1/2+y,-z
1/2-x,1/2+y,1/2+z
1/2+x,1/2-y,1/2+z
loop_
_atom_site_type_symbol
_atom_site_label
_atom_site_fract_x
_atom_site_fract_y
_atom_site_fract_z
Si Si1 0.067122 0.461490 0.847048
Si Si2 0.858362 0.113516 0.736120
Si Si3 0.079420 0.821063 0.907478
Si Si4 0.565854 0.277008 0.597893
Si Si5 0.667138 0.118933 0.093258
Si Si6 0.250000 0.250000 0.713834
O O1 0.067395 0.500000 0.750000
O O2 0.072144 0.337352 0.859078
O O3 0.126921 0.516977 0.886717
O O4 0.000000 0.500000 0.882539
O O5 0.898632 0.125498 0.821670
O O6 0.899700 0.136912 0.654448
O O7 0.805031 0.199568 0.734424
O O8 0.829979 0.000000 0.750000
O O9 0.116114 0.711454 0.906572
O O10 0.006777 0.802112 0.902836
O O11 0.093263 0.870898 0.000000
O O12 0.586782 0.272960 0.500000
O O13 0.719625 0.158795 0.156599
O O14 0.694702 0.110869 0.000000
#
# Coordination Sequence:
#
# PCOD9496391 Si02
#       6
#    16  16  16  16  16   8
#     4  11  21  32  59  96 134 172 208 254 329 397
#     4  11  25  43  64  86 120 167 215 268 328 389
#     4   9  19  36  62  92 124 156 203 260 317 386
#     4  11  23  39  61  96 136 168 206 265 333 399
#     4  10  19  35  59  89 122 160 206 263 320 379
#     4  10  23  42  63  86 116 162 226 274 310 382
#
# _framework density 20.079028000000001
#
# number of rings (size 3 to 8) (size 9 to 14) (size 15 to 20)
#    0.000    1.636    1.818    3.545    2.545    5.818 
#    0.000    2.273    0.000    0.000    0.000    0.000 
#    0.000    0.000    0.000    0.000    0.000    0.000 
#
# Total GULP energy -245521.654317 kJ/mol
# GULP energy per Si atom -5580.037598 kJ/mol
# Density = 2.003333 g / cm^3
# Si number density = 20.079028 Si / 1000 Ang^3
#
#
#
# Elastic Constant Matrix: (Units=GPa)
#
#
# Indices 1 2 3 4 5 6 
#
# 1 60.5941 -4.8619 20.3200 0.0000 0.0000 0.0000
# 2 -4.8619 49.0977 14.0365 0.0000 0.0000 0.0000
# 3 20.3200 14.0365 97.3945 0.0000 0.0000 0.0000
# 4 0.0000 0.0000 0.0000 9.5912 0.0000 0.0000
# 5 0.0000 0.0000 0.0000 0.0000 -11.5628 0.0000
# 6 0.0000 0.0000 0.0000 0.0000 0.0000 12.4703
#
#
#
# Elastic Compliance Matrix: (Units=1/GPa)
#
#
# Indices 1 2 3 4 5 6 
#
# 1 0.018160 0.003005 -0.004222 0.000000 0.000000 0.000000
# 2 0.003005 0.021740 -0.003760 0.000000 0.000000 0.000000
# 3 -0.004222 -0.003760 0.011690 0.000000 0.000000 0.000000
# 4 0.000000 0.000000 0.000000 0.104262 0.000000 0.000000
# 5 0.000000 0.000000 0.000000 0.000000 -0.086485 0.000000
# 6 0.000000 0.000000 0.000000 0.000000 0.000000 0.080190
#
#
# Mechanical properties :
#
#
# Convention : Reuss Voigt Hill
#
# Bulk Modulus (GPa) = 24.01717 29.56397 26.79057
# Shear Modulus (GPa) = 28.83653 13.93921 21.38787
#
# Velocity S-wave (km/s) = 3.79377 2.63766 3.26726
# Velocity P-wave (km/s) = 5.58369 4.90225 5.25403
#
# Compressibility (1/GPa) = 0.04163688
#
# Stress axis : x y z
#
# Youngs Moduli (GPa) = 55.06541 45.99787 85.54101
#
# Poissons Ratio (x) = -0.13824 0.36115
# Poissons Ratio (y) = -0.16549 0.32165
# Poissons Ratio (z) = 0.23249 0.17296
#
# Static dielectric constant tensor:
#      x y z
#    x 1.675970 0.000000 0.000000 
#    y 0.000000 1.723150 0.000000 
#    z 0.000000 0.000000 1.767910 
# 
# From -- ./inp_files/32216.got.cif
#   From: 2010.05.17/outbox.cif.g08.bks.cpg/sg66_17_cif.got.tgz:32216.got - 2010.06.03 17:51:23.
