data_PCOD9496834
_publ_section_title
;
Structure prediction by ZEFSAII (Michael W. Deem and Ramdas Pophale) SiO2 
 PCOD9496834
Probable space group: C C C M
;
_chemical_formula_sum "Si O2"
_cell_formula_units_Z 80
_cell_length_a 27.068349
_cell_length_b 18.156462
_cell_length_c 8.863016
_cell_angle_alpha 90.000000
_cell_angle_beta 90.000000
_cell_angle_gamma 90.000000
_cell_volume 4355.866147
_symmetry_space_group_name_H-M "C C C M"
_symmetry_group_IT_number 66
_symmetry_cell_setting 'orthorhombic'
loop_
_space_group_symop_operation_xyz
x,y,z
-x,-y,z
x,-y,1/2-z
-x,y,1/2-z
-x,-y,-z
x,y,-z
-x,y,1/2+z
x,-y,1/2+z
1/2+x,1/2+y,z
1/2-x,1/2-y,z
1/2+x,1/2-y,1/2-z
1/2-x,1/2+y,1/2-z
1/2-x,1/2-y,-z
1/2+x,1/2+y,-z
1/2-x,1/2+y,1/2+z
1/2+x,1/2-y,1/2+z
loop_
_atom_site_type_symbol
_atom_site_label
_atom_site_fract_x
_atom_site_fract_y
_atom_site_fract_z
Si Si1 0.790458 0.577555 0.321728
Si Si2 0.651930 0.214361 0.680168
Si Si3 0.050916 0.231734 0.320091
Si Si4 0.308485 0.623625 0.325069
Si Si5 0.578367 0.422877 0.322719
O O1 0.805799 0.500000 0.250000
O O2 0.797577 0.576787 0.500000
O O3 0.820007 0.644887 0.247580
O O4 0.732876 0.590374 0.281514
O O5 0.646277 0.207925 0.500000
O O6 0.598641 0.226289 0.755651
O O7 0.682547 0.289891 0.707188
O O8 0.049907 0.234443 0.500000
O O9 0.056893 0.147337 0.263949
O O10 0.000000 0.260644 0.250000
O O11 0.292146 0.616197 0.500000
O O12 0.362033 0.585980 0.311146
O O13 0.563358 0.500000 0.250000
O O14 0.565514 0.418971 0.500000
#
# Coordination Sequence:
#
# PCOD9496834 Si02
#       5
#    16  16  16  16  16
#     4  12  24  36  54  81 113 148 185 225 270 321
#     4  10  21  39  60  82 110 143 181 226 274 323
#     4  11  22  38  59  82 107 139 181 226 275 328
#     4   9  19  35  55  79 111 149 185 222 266 318
#     4  10  20  34  52  78 112 149 187 228 273 320
#
# _framework density 18.366036999999999
#
# number of rings (size 3 to 8) (size 9 to 14) (size 15 to 20)
#    0.000    1.600    0.000    7.200    0.000    9.200 
#    0.000    2.000    0.000    0.600    0.000    4.200 
#    0.000    0.000    0.000    0.000    0.000    0.000 
#
# Total GULP energy -223700.795440 kJ/mol
# GULP energy per Si atom -5592.519886 kJ/mol
# Density = 1.832424 g / cm^3
# Si number density = 18.366037 Si / 1000 Ang^3
#
#
#
# Elastic Constant Matrix: (Units=GPa)
#
#
# Indices 1 2 3 4 5 6 
#
# 1 52.9988 9.3556 32.9316 0.0000 0.0000 0.0000
# 2 9.3556 65.8095 42.2215 0.0000 0.0000 0.0000
# 3 32.9316 42.2215 130.4329 0.0000 0.0000 0.0000
# 4 0.0000 0.0000 0.0000 51.5666 0.0000 0.0000
# 5 0.0000 0.0000 0.0000 0.0000 30.5312 0.0000
# 6 0.0000 0.0000 0.0000 0.0000 0.0000 -1.0674
#
#
#
# Elastic Compliance Matrix: (Units=1/GPa)
#
#
# Indices 1 2 3 4 5 6 
#
# 1 0.022396 0.000560 -0.005836 0.000000 0.000000 0.000000
# 2 0.000560 0.019192 -0.006354 0.000000 0.000000 0.000000
# 3 -0.005836 -0.006354 0.011197 0.000000 0.000000 0.000000
# 4 0.000000 0.000000 0.000000 0.019392 0.000000 0.000000
# 5 0.000000 0.000000 0.000000 0.000000 0.032753 0.000000
# 6 0.000000 0.000000 0.000000 0.000000 0.000000 -0.936819
#
#
# Mechanical properties :
#
#
# Convention : Reuss Voigt Hill
#
# Bulk Modulus (GPa) = 33.86871 46.47320 40.17096
# Shear Modulus (GPa) = -6.25949 27.18821 10.46436
#
# Velocity S-wave (km/s) = -1.84813 3.85171 2.38957
# Velocity P-wave (km/s) = 3.73187 6.71861 5.43445
#
# Compressibility (1/GPa) = 0.02952577
#
# Stress axis : x y z
#
# Youngs Moduli (GPa) = 44.65156 52.10418 89.30935
#
# Poissons Ratio (x) = -0.02919 0.52119
# Poissons Ratio (y) = -0.02502 0.56748
# Poissons Ratio (z) = 0.26058 0.33107
#
# Static dielectric constant tensor:
#      x y z
#    x 1.644380 0.000000 0.000000 
#    y 0.000000 1.614070 0.000000 
#    z 0.000000 0.000000 1.607170 
# 
# From -- ./inp_files/6648.got.cif
#   From: 2010.05.17/outbox.cif.g08.bks.cpg/sg66_4_cif.got.tgz:6648.got - 2010.06.03 17:51:23.
