data_PCOD9496588
_publ_section_title
;
Structure prediction by ZEFSAII (Michael W. Deem and Ramdas Pophale) SiO2 
 PCOD9496588
Probable space group: C C C M
;
_chemical_formula_sum "Si O2"
_cell_formula_units_Z 88
_cell_length_a 17.512960
_cell_length_b 9.014586
_cell_length_c 28.884341
_cell_angle_alpha 90.000000
_cell_angle_beta 90.000000
_cell_angle_gamma 90.000000
_cell_volume 4560.031110
_symmetry_space_group_name_H-M "C C C M"
_symmetry_group_IT_number 66
_symmetry_cell_setting 'orthorhombic'
loop_
_space_group_symop_operation_xyz
x,y,z
-x,-y,z
x,-y,1/2-z
-x,y,1/2-z
-x,-y,-z
x,y,-z
-x,y,1/2+z
x,-y,1/2+z
1/2+x,1/2+y,z
1/2-x,1/2-y,z
1/2+x,1/2-y,1/2-z
1/2-x,1/2+y,1/2-z
1/2-x,1/2-y,-z
1/2+x,1/2+y,-z
1/2-x,1/2+y,1/2+z
1/2+x,1/2-y,1/2+z
loop_
_atom_site_type_symbol
_atom_site_label
_atom_site_fract_x
_atom_site_fract_y
_atom_site_fract_z
Si Si1 0.777889 0.002929 0.947998
Si Si2 0.389538 0.133714 0.819181
Si Si3 0.590365 0.659622 0.736809
Si Si4 0.250000 0.250000 0.121781
Si Si5 0.625446 0.197424 0.947764
Si Si6 0.555987 0.811531 0.348939
O O1 0.787022 0.875668 0.910662
O O2 0.694150 0.078357 0.943918
O O3 0.836083 0.140149 0.943890
O O4 0.785208 0.942039 0.000000
O O5 0.379412 0.205448 0.768396
O O6 0.314747 0.172460 0.847775
O O7 0.465813 0.207219 0.840987
O O8 0.412707 0.961672 0.824371
O O9 0.623688 0.500000 0.750000
O O10 0.500000 0.657171 0.750000
O O11 0.596565 0.685909 0.681943
O O12 0.572787 0.179553 0.903126
O O13 0.592622 0.183685 0.000000
#
# Coordination Sequence:
#
# PCOD9496588 Si02
#       6
#    16  16  16   8  16  16
#     4   9  19  35  56  79 113 156 192 229 286 348
#     4  10  22  36  56  87 115 155 189 234 281 355
#     4   9  19  36  59  85 111 147 189 230 280 339
#     4  12  21  36  54  86 122 144 189 234 298 330
#     4   9  18  36  59  85 109 149 198 233 279 348
#     4  10  19  39  62  81 115 155 193 233 290 331
#
# _framework density 19.298114999999999
#
# number of rings (size 3 to 8) (size 9 to 14) (size 15 to 20)
#    0.000    2.364    1.818    1.909    2.545    2.182 
#    0.000    7.273    0.000    2.182    0.000    0.000 
#    0.000    0.000    0.000    0.000    0.000    0.000 
#
# Total GULP energy -245172.821192 kJ/mol
# GULP energy per Si atom -5572.109573 kJ/mol
# Density = 1.925419 g / cm^3
# Si number density = 19.298115 Si / 1000 Ang^3
#
#
#
# Elastic Constant Matrix: (Units=GPa)
#
#
# Indices 1 2 3 4 5 6 
#
# 1 34.4795 -3.5351 11.1438 0.0000 0.0000 0.0000
# 2 -3.5351 39.8674 11.2611 0.0000 0.0000 0.0000
# 3 11.1438 11.2611 112.5870 0.0000 0.0000 0.0000
# 4 0.0000 0.0000 0.0000 30.4563 0.0000 0.0000
# 5 0.0000 0.0000 0.0000 0.0000 2.8525 0.0000
# 6 0.0000 0.0000 0.0000 0.0000 0.0000 9.6510
#
#
#
# Elastic Compliance Matrix: (Units=1/GPa)
#
#
# Indices 1 2 3 4 5 6 
#
# 1 0.030471 0.003657 -0.003382 0.000000 0.000000 0.000000
# 2 0.003657 0.026251 -0.002988 0.000000 0.000000 0.000000
# 3 -0.003382 -0.002988 0.009516 0.000000 0.000000 0.000000
# 4 0.000000 0.000000 0.000000 0.032834 0.000000 0.000000
# 5 0.000000 0.000000 0.000000 0.000000 0.350572 0.000000
# 6 0.000000 0.000000 0.000000 0.000000 0.000000 0.103616
#
#
# Mechanical properties :
#
#
# Convention : Reuss Voigt Hill
#
# Bulk Modulus (GPa) = 16.44386 24.96370 20.70378
# Shear Modulus (GPa) = 8.63624 19.79624 14.21624
#
# Velocity S-wave (km/s) = 2.11776 3.20630 2.71710
# Velocity P-wave (km/s) = 3.81042 5.16441 4.53819
#
# Compressibility (1/GPa) = 0.06081299
#
# Stress axis : x y z
#
# Youngs Moduli (GPa) = 32.81848 38.09331 105.09093
#
# Poissons Ratio (x) = -0.13931 0.35539
# Poissons Ratio (y) = -0.12002 0.31398
# Poissons Ratio (z) = 0.11098 0.11381
#
# Static dielectric constant tensor:
#      x y z
#    x 1.660030 0.000000 0.000000 
#    y 0.000000 1.692170 0.000000 
#    z 0.000000 0.000000 1.684860 
# 
# From -- ./inp_files/69930.got.cif
#   From: 2010.05.17/outbox.cif.g08.bks.cpg/sg66_35_cif.got.tgz:69930.got - 2010.06.03 17:51:23.
