data_PCOD9496328
_publ_section_title
;
Structure prediction by ZEFSAII (Michael W. Deem and Ramdas Pophale) SiO2 
 PCOD9496328
Probable space group: C C C M
;
_chemical_formula_sum "Si O2"
_cell_formula_units_Z 104
_cell_length_a 23.209397
_cell_length_b 7.988168
_cell_length_c 24.547302
_cell_angle_alpha 90.000000
_cell_angle_beta 90.000000
_cell_angle_gamma 90.000000
_cell_volume 4551.083597
_symmetry_space_group_name_H-M "C C C M"
_symmetry_group_IT_number 66
_symmetry_cell_setting 'orthorhombic'
loop_
_space_group_symop_operation_xyz
x,y,z
-x,-y,z
x,-y,1/2-z
-x,y,1/2-z
-x,-y,-z
x,y,-z
-x,y,1/2+z
x,-y,1/2+z
1/2+x,1/2+y,z
1/2-x,1/2-y,z
1/2+x,1/2-y,1/2-z
1/2-x,1/2+y,1/2-z
1/2-x,1/2-y,-z
1/2+x,1/2+y,-z
1/2-x,1/2+y,1/2+z
1/2+x,1/2-y,1/2+z
loop_
_atom_site_type_symbol
_atom_site_label
_atom_site_fract_x
_atom_site_fract_y
_atom_site_fract_z
Si Si1 0.898191 0.166131 0.500000
Si Si2 0.777966 0.561945 0.120340
Si Si3 0.179896 0.060092 0.691004
Si Si4 0.295381 0.905157 0.500000
Si Si5 0.087694 0.905456 0.379090
Si Si6 0.029483 0.260627 0.379758
Si Si7 0.620833 0.074639 0.189912
Si Si8 0.522481 0.186096 0.000000
O O1 0.860261 0.333192 0.500000
O O2 0.885805 0.087666 0.440493
O O3 0.967069 0.190838 0.500000
O O4 0.750000 0.750000 0.122188
O O5 0.732947 0.444067 0.150391
O O6 0.785790 0.509070 0.057675
O O7 0.838282 0.540631 0.151984
O O8 0.151276 0.242356 0.693740
O O9 0.199640 0.000000 0.750000
O O10 0.135647 0.921073 0.667029
O O11 0.250000 0.750000 0.500000
O O12 0.040025 0.757884 0.377781
O O13 0.053337 0.076400 0.368850
O O14 0.059905 0.387302 0.339049
O O15 0.050939 0.292896 0.441610
O O16 0.614985 0.000000 0.250000
O O17 0.500000 0.000000 0.000000
#
# Coordination Sequence:
#
# PCOD9496328 Si02
#       8
#     8  16  16   8  16  16  16   8
#     4  10  19  34  62  94 127 163 207 251 322 392
#     4  11  23  41  66  93 130 166 212 264 327 397
#     4  11  23  42  67  91 123 169 219 268 322 388
#     4  10  22  37  59  93 127 160 198 259 324 387
#     4   9  18  38  65  91 122 162 208 262 315 382
#     4   9  20  38  62  92 124 160 210 262 317 379
#     4  11  24  42  65  93 129 169 219 271 325 383
#     4  10  21  35  58  89 125 169 204 248 311 386
#
# _framework density 22.851700000000001
#
# number of rings (size 3 to 8) (size 9 to 14) (size 15 to 20)
#    0.000    1.846    0.000    4.154    2.154    1.846 
#    2.769    9.231    0.000    0.000    0.000    0.000 
#    0.000    0.000    0.000    0.000    0.000    0.000 
#
# Total GULP energy -290447.232734 kJ/mol
# GULP energy per Si atom -5585.523706 kJ/mol
# Density = 2.279969 g / cm^3
# Si number density = 22.851700 Si / 1000 Ang^3
#
#
#
# Elastic Constant Matrix: (Units=GPa)
#
#
# Indices 1 2 3 4 5 6 
#
# 1 91.5022 26.9480 72.8518 0.0000 0.0000 0.0000
# 2 26.9480 92.3125 42.3373 0.0000 0.0000 0.0000
# 3 72.8518 42.3373 215.2999 0.0000 0.0000 0.0000
# 4 0.0000 0.0000 0.0000 65.9269 0.0000 0.0000
# 5 0.0000 0.0000 0.0000 0.0000 399.8042 0.0000
# 6 0.0000 0.0000 0.0000 0.0000 0.0000 25.5681
#
#
#
# Elastic Compliance Matrix: (Units=1/GPa)
#
#
# Indices 1 2 3 4 5 6 
#
# 1 0.015395 -0.002314 -0.004754 0.000000 0.000000 0.000000
# 2 -0.002314 0.012254 -0.001627 0.000000 0.000000 0.000000
# 3 -0.004754 -0.001627 0.006573 0.000000 0.000000 0.000000
# 4 0.000000 0.000000 0.000000 0.015168 0.000000 0.000000
# 5 0.000000 0.000000 0.000000 0.000000 0.002501 0.000000
# 6 0.000000 0.000000 0.000000 0.000000 0.000000 0.039111
#
#
# Mechanical properties :
#
#
# Convention : Reuss Voigt Hill
#
# Bulk Modulus (GPa) = 59.40661 75.93209 67.66935
# Shear Modulus (GPa) = 43.85773 115.39166 79.62470
#
# Velocity S-wave (km/s) = 4.38566 7.11375 5.90929
# Velocity P-wave (km/s) = 7.19016 10.03864 8.73134
#
# Compressibility (1/GPa) = 0.01683314
#
# Stress axis : x y z
#
# Youngs Moduli (GPa) = 64.95415 81.60392 152.12908
#
# Poissons Ratio (x) = 0.18881 0.72329
# Poissons Ratio (y) = 0.15029 0.24749
# Poissons Ratio (z) = 0.30882 0.13275
#
# Static dielectric constant tensor:
#      x y z
#    x 1.893730 0.000000 0.000000 
#    y 0.000000 1.856160 0.000000 
#    z 0.000000 0.000000 1.705480 
# 
# From -- ./inp_files/53081.got.cif
#   From: 2010.05.17/outbox.cif.g08.bks.cpg/sg66_27_cif.got.tgz:53081.got - 2010.06.03 17:51:23.
