data_PCOD9496772
_publ_section_title
;
Structure prediction by ZEFSAII (Michael W. Deem and Ramdas Pophale) SiO2 
 PCOD9496772
Probable space group: C C C M
;
_chemical_formula_sum "Si O2"
_cell_formula_units_Z 88
_cell_length_a 18.940670
_cell_length_b 12.407754
_cell_length_c 20.194504
_cell_angle_alpha 90.000000
_cell_angle_beta 90.000000
_cell_angle_gamma 90.000000
_cell_volume 4745.934092
_symmetry_space_group_name_H-M "C C C M"
_symmetry_group_IT_number 66
_symmetry_cell_setting 'orthorhombic'
loop_
_space_group_symop_operation_xyz
x,y,z
-x,-y,z
x,-y,1/2-z
-x,y,1/2-z
-x,-y,-z
x,y,-z
-x,y,1/2+z
x,-y,1/2+z
1/2+x,1/2+y,z
1/2-x,1/2-y,z
1/2+x,1/2-y,1/2-z
1/2-x,1/2+y,1/2-z
1/2-x,1/2-y,-z
1/2+x,1/2+y,-z
1/2-x,1/2+y,1/2+z
1/2+x,1/2-y,1/2+z
loop_
_atom_site_type_symbol
_atom_site_label
_atom_site_fract_x
_atom_site_fract_y
_atom_site_fract_z
Si Si1 0.102659 0.678722 0.926116
Si Si2 0.750000 0.750000 0.622199
Si Si3 0.397108 0.981645 0.674763
Si Si4 0.309106 0.340322 0.077059
Si Si5 0.735235 0.512914 0.321917
Si Si6 0.052455 0.700169 0.424278
O O1 0.176303 0.740649 0.917321
O O2 0.098515 0.588293 0.869865
O O3 0.028259 0.741317 0.920402
O O4 0.103693 0.629528 0.000000
O O5 0.743953 0.639088 0.662831
O O6 0.434625 0.889104 0.632162
O O7 0.422043 0.000000 0.750000
O O8 0.313345 0.959552 0.680500
O O9 0.250000 0.250000 0.095468
O O10 0.303177 0.446282 0.121254
O O11 0.386134 0.287473 0.083485
O O12 0.295835 0.366776 0.000000
O O13 0.701440 0.500000 0.250000
O O14 0.061064 0.655690 0.500000
#
# Coordination Sequence:
#
# PCOD9496772 Si02
#       6
#    16   8  16  16  16  16
#     4  10  21  36  55  80 113 152 193 238 289 348
#     4  10  23  40  58  84 113 156 192 232 289 348
#     4  10  20  33  53  84 119 150 186 238 295 351
#     4  10  20  35  59  87 114 148 194 242 284 334
#     4  10  22  37  60  86 117 155 193 234 285 349
#     4  10  20  35  56  83 113 147 192 246 294 337
#
# _framework density 18.542186999999998
#
# number of rings (size 3 to 8) (size 9 to 14) (size 15 to 20)
#    0.000    2.000    1.818    1.364    1.273    8.000 
#    0.000    0.909    0.000    4.364    0.000    0.000 
#    0.000    0.000    0.000    0.000    0.000    0.000 
#
# Total GULP energy -245178.487016 kJ/mol
# GULP energy per Si atom -5572.238341 kJ/mol
# Density = 1.849998 g / cm^3
# Si number density = 18.542187 Si / 1000 Ang^3
#
#
#
# Elastic Constant Matrix: (Units=GPa)
#
#
# Indices 1 2 3 4 5 6 
#
# 1 120.6056 34.4755 40.1866 0.0000 0.0000 0.0000
# 2 34.4755 81.5103 60.8270 0.0000 0.0000 0.0000
# 3 40.1866 60.8270 135.3798 0.0000 0.0000 0.0000
# 4 0.0000 0.0000 0.0000 20.4128 0.0000 0.0000
# 5 0.0000 0.0000 0.0000 0.0000 -33.9215 0.0000
# 6 0.0000 0.0000 0.0000 0.0000 0.0000 13.3434
#
#
#
# Elastic Compliance Matrix: (Units=1/GPa)
#
#
# Indices 1 2 3 4 5 6 
#
# 1 0.009643 -0.002922 -0.001549 0.000000 0.000000 0.000000
# 2 -0.002922 0.019343 -0.007823 0.000000 0.000000 0.000000
# 3 -0.001549 -0.007823 0.011362 0.000000 0.000000 0.000000
# 4 0.000000 0.000000 0.000000 0.048989 0.000000 0.000000
# 5 0.000000 0.000000 0.000000 0.000000 -0.029480 0.000000
# 6 0.000000 0.000000 0.000000 0.000000 0.000000 0.074943
#
#
# Mechanical properties :
#
#
# Convention : Reuss Voigt Hill
#
# Bulk Modulus (GPa) = 63.46332 67.60822 65.53577
# Shear Modulus (GPa) = 30.36886 13.43403 21.90145
#
# Velocity S-wave (km/s) = 4.05140 2.69460 3.44054
# Velocity P-wave (km/s) = 7.49572 6.79869 7.15570
#
# Compressibility (1/GPa) = 0.01575713
#
# Stress axis : x y z
#
# Youngs Moduli (GPa) = 103.70053 51.69958 88.01577
#
# Poissons Ratio (x) = 0.15109 0.13638
# Poissons Ratio (y) = 0.30305 0.68857
# Poissons Ratio (z) = 0.16068 0.40446
#
# Static dielectric constant tensor:
#      x y z
#    x 1.686050 0.000000 0.000000 
#    y 0.000000 1.604520 0.000000 
#    z 0.000000 0.000000 1.658420 
# 
# From -- ./inp_files/38641.got.cif
#   From: 2010.05.17/outbox.cif.g08.bks.cpg/sg66_20_cif.got.tgz:38641.got - 2010.06.03 17:51:23.
