data_PCOD9496494
_publ_section_title
;
Structure prediction by ZEFSAII (Michael W. Deem and Ramdas Pophale) SiO2 
 PCOD9496494
Probable space group: C C C M
;
_chemical_formula_sum "Si O2"
_cell_formula_units_Z 64
_cell_length_a 17.521046
_cell_length_b 10.470732
_cell_length_c 14.539512
_cell_angle_alpha 90.000000
_cell_angle_beta 90.000000
_cell_angle_gamma 90.000000
_cell_volume 2667.392366
_symmetry_space_group_name_H-M "C C C M"
_symmetry_group_IT_number 66
_symmetry_cell_setting 'orthorhombic'
loop_
_space_group_symop_operation_xyz
x,y,z
-x,-y,z
x,-y,1/2-z
-x,y,1/2-z
-x,-y,-z
x,y,-z
-x,y,1/2+z
x,-y,1/2+z
1/2+x,1/2+y,z
1/2-x,1/2-y,z
1/2+x,1/2-y,1/2-z
1/2-x,1/2+y,1/2-z
1/2-x,1/2-y,-z
1/2+x,1/2+y,-z
1/2-x,1/2+y,1/2+z
1/2+x,1/2-y,1/2+z
loop_
_atom_site_type_symbol
_atom_site_label
_atom_site_fract_x
_atom_site_fract_y
_atom_site_fract_z
Si Si1 0.681120 0.653226 0.361396
Si Si2 0.107311 0.549244 0.393934
Si Si3 0.472734 0.788404 0.849529
Si Si4 0.268590 0.383071 0.152083
O O1 0.750000 0.750000 0.390939
O O2 0.596355 0.701458 0.385410
O O3 0.690764 0.646946 0.249399
O O4 0.692169 0.506595 0.391917
O O5 0.125528 0.515961 0.500000
O O6 0.066726 0.427513 0.349217
O O7 0.182078 0.571488 0.335750
O O8 0.052418 0.673195 0.397208
O O9 0.500000 0.742640 0.750000
O O10 0.250000 0.250000 0.101902
#
# Coordination Sequence:
#
# PCOD9496494 Si02
#       4
#    16  16  16  16
#     4  10  19  36  61  94 123 155 214 276 318 371
#     4  11  23  39  61  92 132 173 218 266 333 402
#     4  11  21  36  64  94 123 166 217 280 326 377
#     4  10  21  37  61  89 127 168 211 268 325 387
#
# _framework density 23.993471
#
# number of rings (size 3 to 8) (size 9 to 14) (size 15 to 20)
#    0.000    1.500    2.500    6.000    3.500    0.500 
#    0.000   12.500    0.000    1.500    0.000    0.000 
#    0.000    0.000    0.000    0.000    0.000    0.000 
#
# Total GULP energy -178383.051758 kJ/mol
# GULP energy per Si atom -5574.470367 kJ/mol
# Density = 2.393886 g / cm^3
# Si number density = 23.993471 Si / 1000 Ang^3
#
#
#
# Elastic Constant Matrix: (Units=GPa)
#
#
# Indices 1 2 3 4 5 6 
#
# 1 129.6337 33.9580 12.5691 0.0000 0.0000 0.0000
# 2 33.9580 159.9342 1.1951 0.0000 0.0000 0.0000
# 3 12.5691 1.1951 72.5132 0.0000 0.0000 0.0000
# 4 0.0000 0.0000 0.0000 -10.9565 0.0000 0.0000
# 5 0.0000 0.0000 0.0000 0.0000 -23.9937 0.0000
# 6 0.0000 0.0000 0.0000 0.0000 0.0000 52.0051
#
#
#
# Elastic Compliance Matrix: (Units=1/GPa)
#
#
# Indices 1 2 3 4 5 6 
#
# 1 0.008310 -0.001754 -0.001412 0.000000 0.000000 0.000000
# 2 -0.001754 0.006624 0.000195 0.000000 0.000000 0.000000
# 3 -0.001412 0.000195 0.014032 0.000000 0.000000 0.000000
# 4 0.000000 0.000000 0.000000 -0.091270 0.000000 0.000000
# 5 0.000000 0.000000 0.000000 0.000000 -0.041678 0.000000
# 6 0.000000 0.000000 0.000000 0.000000 0.000000 0.019229
#
#
# Mechanical properties :
#
#
# Convention : Reuss Voigt Hill
#
# Bulk Modulus (GPa) = 43.43177 50.83616 47.13397
# Shear Modulus (GPa) = -70.28737 24.36825 -22.95956
#
# Velocity S-wave (km/s) = -5.41830 3.19034 -3.09675
# Velocity P-wave (km/s) = 4.58292 5.89953 2.62691
#
# Compressibility (1/GPa) = 0.02302462
#
# Stress axis : x y z
#
# Youngs Moduli (GPa) = 120.33170 150.97712 71.26543
#
# Poissons Ratio (x) = 0.26481 0.10060
# Poissons Ratio (y) = 0.21106 -0.01389
# Poissons Ratio (z) = 0.16986 -0.02942
#
# Static dielectric constant tensor:
#      x y z
#    x 1.925110 0.000000 0.000000 
#    y 0.000000 2.013920 0.000000 
#    z 0.000000 0.000000 2.004300 
# 
# From -- ./inp_files/41222.got.cif
#   From: 2010.05.17/outbox.cif.g08.bks.cpg/sg66_21_cif.got.tgz:41222.got - 2010.06.03 17:51:23.
