data_PCOD9496450
_publ_section_title
;
Structure prediction by ZEFSAII (Michael W. Deem and Ramdas Pophale) SiO2 
 PCOD9496450
Probable space group: C C C M
;
_chemical_formula_sum "Si O2"
_cell_formula_units_Z 116
_cell_length_a 12.085970
_cell_length_b 14.986265
_cell_length_c 28.755283
_cell_angle_alpha 90.000000
_cell_angle_beta 90.000000
_cell_angle_gamma 90.000000
_cell_volume 5208.258915
_symmetry_space_group_name_H-M "C C C M"
_symmetry_group_IT_number 66
_symmetry_cell_setting 'orthorhombic'
loop_
_space_group_symop_operation_xyz
x,y,z
-x,-y,z
x,-y,1/2-z
-x,y,1/2-z
-x,-y,-z
x,y,-z
-x,y,1/2+z
x,-y,1/2+z
1/2+x,1/2+y,z
1/2-x,1/2-y,z
1/2+x,1/2-y,1/2-z
1/2-x,1/2+y,1/2-z
1/2-x,1/2-y,-z
1/2+x,1/2+y,-z
1/2-x,1/2+y,1/2+z
1/2+x,1/2-y,1/2+z
loop_
_atom_site_type_symbol
_atom_site_label
_atom_site_fract_x
_atom_site_fract_y
_atom_site_fract_z
Si Si1 0.945530 0.378344 0.700119
Si Si2 0.922806 0.913000 0.630113
Si Si3 0.749320 0.600736 0.553008
Si Si4 0.720609 0.891822 0.073473
Si Si5 0.978915 0.393342 0.099444
Si Si6 0.750000 0.250000 0.500000
Si Si7 0.233949 0.955934 0.675365
Si Si8 0.572135 0.682390 0.796287
O O1 0.858513 0.457673 0.692659
O O2 0.883395 0.282470 0.698476
O O3 0.000000 0.385819 0.750000
O O4 0.021609 0.373873 0.654357
O O5 0.856912 0.878957 0.585137
O O6 0.996788 0.844575 0.659209
O O7 0.826389 0.952452 0.663659
O O8 0.000000 0.000000 0.619195
O O9 0.736763 0.629843 0.500000
O O10 0.765421 0.492649 0.554607
O O11 0.864850 0.633969 0.575400
O O12 0.591948 0.859667 0.075382
O O13 0.759755 0.901598 0.126476
O O14 0.781108 0.823453 0.040674
O O15 0.000000 0.500000 0.095477
O O16 0.160339 0.896145 0.708697
O O17 0.500000 0.682845 0.750000
#
# Coordination Sequence:
#
# PCOD9496450 Si02
#       8
#    16  16  16  16  16   4  16  16
#     4  10  21  37  59  90 117 151 193 246 304 346
#     4   9  20  38  59  85 113 150 201 243 289 348
#     4  10  19  36  57  79 115 159 199 237 287 352
#     4   9  20  32  52  87 116 146 191 247 298 341
#     4   9  20  36  55  82 120 157 195 238 290 360
#     4  12  20  28  54  92 114 146 192 250 306 354
#     4   9  19  37  58  82 120 151 185 242 292 344
#     4  10  21  37  60  87 117 155 196 242 298 356
#
# _framework density 22.272319
#
# number of rings (size 3 to 8) (size 9 to 14) (size 15 to 20)
#    0.000    2.483    0.690    1.241    4.828    4.966 
#    0.000    6.207    0.000    1.655    0.000    0.000 
#    0.000    0.000    0.000    0.000    0.000    0.000 
#
# Total GULP energy -323269.553591 kJ/mol
# GULP energy per Si atom -5573.612993 kJ/mol
# Density = 2.222163 g / cm^3
# Si number density = 22.272319 Si / 1000 Ang^3
#
#
#
# Elastic Constant Matrix: (Units=GPa)
#
#
# Indices 1 2 3 4 5 6 
#
# 1 80.3088 -2.4552 33.9835 0.0000 0.0000 0.0000
# 2 -2.4552 38.4313 -2.6631 0.0000 0.0000 0.0000
# 3 33.9835 -2.6631 99.5044 0.0000 0.0000 0.0000
# 4 0.0000 0.0000 0.0000 -44.2406 0.0000 0.0000
# 5 0.0000 0.0000 0.0000 0.0000 11.6173 0.0000
# 6 0.0000 0.0000 0.0000 0.0000 0.0000 10.4327
#
#
#
# Elastic Compliance Matrix: (Units=1/GPa)
#
#
# Indices 1 2 3 4 5 6 
#
# 1 0.014569 0.000587 -0.004960 0.000000 0.000000 0.000000
# 2 0.000587 0.026092 0.000498 0.000000 0.000000 0.000000
# 3 -0.004960 0.000498 0.011757 0.000000 0.000000 0.000000
# 4 0.000000 0.000000 0.000000 -0.022604 0.000000 0.000000
# 5 0.000000 0.000000 0.000000 0.000000 0.086078 0.000000
# 6 0.000000 0.000000 0.000000 0.000000 0.000000 0.095853
#
#
# Mechanical properties :
#
#
# Convention : Reuss Voigt Hill
#
# Bulk Modulus (GPa) = 22.38730 30.66386 26.52558
# Shear Modulus (GPa) = 21.33243 8.18719 14.75981
#
# Velocity S-wave (km/s) = 3.09819 1.91936 2.57708
# Velocity P-wave (km/s) = 4.78245 4.32545 4.55968
#
# Compressibility (1/GPa) = 0.04466819
#
# Stress axis : x y z
#
# Youngs Moduli (GPa) = 68.64024 38.32529 85.05520
#
# Poissons Ratio (x) = -0.02250 0.42187
# Poissons Ratio (y) = -0.04029 -0.04234
# Poissons Ratio (z) = 0.34045 -0.01908
#
# Static dielectric constant tensor:
#      x y z
#    x 1.864460 0.000000 0.000000 
#    y 0.000000 1.890410 0.000000 
#    z 0.000000 0.000000 1.791340 
# 
# From -- ./inp_files/69189.got.cif
#   From: 2010.05.17/outbox.cif.g08.bks.cpg/sg66_35_cif.got.tgz:69189.got - 2010.06.03 17:51:23.
