data_PCOD9496273
_publ_section_title
;
Structure prediction by ZEFSAII (Michael W. Deem and Ramdas Pophale) SiO2 
 PCOD9496273
Probable space group: C C C M
;
_chemical_formula_sum "Si O2"
_cell_formula_units_Z 112
_cell_length_a 16.567846
_cell_length_b 15.127981
_cell_length_c 21.194402
_cell_angle_alpha 90.000000
_cell_angle_beta 90.000000
_cell_angle_gamma 90.000000
_cell_volume 5312.123790
_symmetry_space_group_name_H-M "C C C M"
_symmetry_group_IT_number 66
_symmetry_cell_setting 'orthorhombic'
loop_
_space_group_symop_operation_xyz
x,y,z
-x,-y,z
x,-y,1/2-z
-x,y,1/2-z
-x,-y,-z
x,y,-z
-x,y,1/2+z
x,-y,1/2+z
1/2+x,1/2+y,z
1/2-x,1/2-y,z
1/2+x,1/2-y,1/2-z
1/2-x,1/2+y,1/2-z
1/2-x,1/2-y,-z
1/2+x,1/2+y,-z
1/2-x,1/2+y,1/2+z
1/2+x,1/2-y,1/2+z
loop_
_atom_site_type_symbol
_atom_site_label
_atom_site_fract_x
_atom_site_fract_y
_atom_site_fract_z
Si Si1 0.352518 0.947635 0.070357
Si Si2 0.415862 0.263547 0.167939
Si Si3 0.201588 0.160592 0.392187
Si Si4 0.314423 0.915983 0.336009
Si Si5 0.799632 0.158872 0.567457
Si Si6 0.949423 0.734466 0.569314
Si Si7 0.157346 0.903957 0.244550
O O1 0.263929 0.902564 0.072369
O O2 0.412937 0.863937 0.071303
O O3 0.363852 0.999693 0.137729
O O4 0.364549 0.991007 0.000000
O O5 0.370456 0.169314 0.175577
O O6 0.370470 0.320781 0.114617
O O7 0.500260 0.247091 0.133669
O O8 0.397826 0.324552 0.228426
O O9 0.250000 0.250000 0.375432
O O10 0.123153 0.194825 0.428493
O O11 0.176882 0.114167 0.327600
O O12 0.263245 0.904823 0.400213
O O13 0.243702 0.912709 0.282908
O O14 0.827233 0.127958 0.500000
O O15 0.750000 0.250000 0.562495
O O16 0.991835 0.743108 0.500000
O O17 0.117355 0.000000 0.250000
#
# Coordination Sequence:
#
# PCOD9496273 Si02
#       7
#    16  16  16  16  16  16  16
#     4  10  20  35  60  92 120 159 210 256 301 363
#     4  10  21  35  56  88 124 158 194 240 310 377
#     4  10  20  38  62  84 112 158 213 261 300 354
#     4  10  19  34  57  91 121 149 194 251 306 364
#     4   8  14  26  47  74 108 150 189 228 278 342
#     4  10  22  39  59  86 125 169 205 248 309 374
#     4  11  21  39  65  89 114 156 207 262 308 359
#
# _framework density 21.083843999999999
#
# number of rings (size 3 to 8) (size 9 to 14) (size 15 to 20)
#    0.000    2.143    1.429    3.429    0.000    4.571 
#    0.000    2.857    0.000    0.857    0.000    0.000 
#    0.000    0.000    0.000    0.000    0.000    0.000 
#
# Total GULP energy -311806.912057 kJ/mol
# GULP energy per Si atom -5567.980572 kJ/mol
# Density = 2.103586 g / cm^3
# Si number density = 21.083844 Si / 1000 Ang^3
#
#
#
# Elastic Constant Matrix: (Units=GPa)
#
#
# Indices 1 2 3 4 5 6 
#
# 1 48.0490 14.2297 6.2824 0.0000 0.0000 0.0000
# 2 14.2297 92.7115 15.9006 0.0000 0.0000 0.0000
# 3 6.2824 15.9006 88.9808 0.0000 0.0000 0.0000
# 4 0.0000 0.0000 0.0000 29.1949 0.0000 0.0000
# 5 0.0000 0.0000 0.0000 0.0000 14.1587 0.0000
# 6 0.0000 0.0000 0.0000 0.0000 0.0000 6.6370
#
#
#
# Elastic Compliance Matrix: (Units=1/GPa)
#
#
# Indices 1 2 3 4 5 6 
#
# 1 0.021885 -0.003192 -0.000975 0.000000 0.000000 0.000000
# 2 -0.003192 0.011593 -0.001846 0.000000 0.000000 0.000000
# 3 -0.000975 -0.001846 0.011637 0.000000 0.000000 0.000000
# 4 0.000000 0.000000 0.000000 0.034253 0.000000 0.000000
# 5 0.000000 0.000000 0.000000 0.000000 0.070628 0.000000
# 6 0.000000 0.000000 0.000000 0.000000 0.000000 0.150669
#
#
# Mechanical properties :
#
#
# Convention : Reuss Voigt Hill
#
# Bulk Modulus (GPa) = 30.22153 33.61852 31.92003
# Shear Modulus (GPa) = 15.44546 22.88670 19.16608
#
# Velocity S-wave (km/s) = 2.70954 3.29828 3.01830
# Velocity P-wave (km/s) = 4.91467 5.52129 5.22679
#
# Compressibility (1/GPa) = 0.03308899
#
# Stress axis : x y z
#
# Youngs Moduli (GPa) = 45.69388 86.26134 85.93192
#
# Poissons Ratio (x) = 0.27533 0.08376
# Poissons Ratio (y) = 0.14584 0.15865
# Poissons Ratio (z) = 0.04454 0.15926
#
# Static dielectric constant tensor:
#      x y z
#    x 1.800130 0.000000 0.000000 
#    y 0.000000 1.795760 0.000000 
#    z 0.000000 0.000000 1.853100 
# 
# From -- ./inp_files/58231.got.cif
#   From: 2010.05.17/outbox.cif.g08.bks.cpg/sg66_30_cif.got.tgz:58231.got - 2010.06.03 17:51:23.
