data_PCOD9496869
_publ_section_title
;
Structure prediction by ZEFSAII (Michael W. Deem and Ramdas Pophale) SiO2 
 PCOD9496869
Probable space group: C C C M
;
_chemical_formula_sum "Si O2"
_cell_formula_units_Z 100
_cell_length_a 9.036636
_cell_length_b 27.084015
_cell_length_c 21.714281
_cell_angle_alpha 90.000000
_cell_angle_beta 90.000000
_cell_angle_gamma 90.000000
_cell_volume 5314.535206
_symmetry_space_group_name_H-M "C C C M"
_symmetry_group_IT_number 66
_symmetry_cell_setting 'orthorhombic'
loop_
_space_group_symop_operation_xyz
x,y,z
-x,-y,z
x,-y,1/2-z
-x,y,1/2-z
-x,-y,-z
x,y,-z
-x,y,1/2+z
x,-y,1/2+z
1/2+x,1/2+y,z
1/2-x,1/2-y,z
1/2+x,1/2-y,1/2-z
1/2-x,1/2+y,1/2-z
1/2-x,1/2-y,-z
1/2+x,1/2+y,-z
1/2-x,1/2+y,1/2+z
1/2+x,1/2-y,1/2+z
loop_
_atom_site_type_symbol
_atom_site_label
_atom_site_fract_x
_atom_site_fract_y
_atom_site_fract_z
Si Si1 0.164698 0.386981 0.247142
Si Si2 0.141761 0.927213 0.848540
Si Si3 0.831418 0.498836 0.427693
Si Si4 0.500000 0.500000 0.250000
Si Si5 0.184052 0.899522 0.380953
Si Si6 0.599286 0.221068 0.301663
Si Si7 0.655000 0.199482 0.430498
O O1 0.250222 0.391213 0.311148
O O2 0.257857 0.406273 0.189144
O O3 0.141301 0.330200 0.230131
O O4 0.000000 0.410114 0.250000
O O5 0.993887 0.903177 0.877011
O O6 0.233502 0.958734 0.897136
O O7 0.092757 0.965785 0.795678
O O8 0.838907 0.508056 0.500000
O O9 0.753754 0.446056 0.416359
O O10 0.000000 0.500000 0.402872
O O11 0.246073 0.848063 0.409271
O O12 0.500000 0.247563 0.250000
O O13 0.750000 0.250000 0.309697
O O14 0.546407 0.209087 0.371595
O O15 0.595681 0.189985 0.500000
O O16 0.750000 0.250000 0.435424
#
# Coordination Sequence:
#
# PCOD9496869 Si02
#       7
#    16  16  16   4  16  16  16
#     4  10  20  34  54  81 112 150 186 229 288 343
#     4  12  21  36  58  82 117 144 189 239 284 339
#     4  11  24  39  55  79 112 153 193 229 282 346
#     4  12  20  36  52  84 108 140 178 230 280 344
#     4  11  20  35  57  84 109 145 190 238 284 335
#     4   9  19  34  56  84 114 146 192 238 285 339
#     4   9  19  35  56  83 114 148 186 231 286 346
#
# _framework density 18.816320000000001
#
# number of rings (size 3 to 8) (size 9 to 14) (size 15 to 20)
#    0.000    1.600    3.200    1.440    0.000    5.760 
#    0.000    1.600    0.000    0.480    0.000    0.000 
#    0.000    0.000    0.000    0.000    0.000    0.000 
#
# Total GULP energy -278512.351370 kJ/mol
# GULP energy per Si atom -5570.247027 kJ/mol
# Density = 1.877349 g / cm^3
# Si number density = 18.816320 Si / 1000 Ang^3
#
#
#
# Elastic Constant Matrix: (Units=GPa)
#
#
# Indices 1 2 3 4 5 6 
#
# 1 95.8855 2.6535 49.4967 0.0000 0.0000 0.0000
# 2 2.6535 35.7823 38.7133 0.0000 0.0000 0.0000
# 3 49.4967 38.7133 119.5497 0.0000 0.0000 0.0000
# 4 0.0000 0.0000 0.0000 6.0638 0.0000 0.0000
# 5 0.0000 0.0000 0.0000 0.0000 26.5684 0.0000
# 6 0.0000 0.0000 0.0000 0.0000 0.0000 12.6931
#
#
#
# Elastic Compliance Matrix: (Units=1/GPa)
#
#
# Indices 1 2 3 4 5 6 
#
# 1 0.014772 0.008499 -0.008868 0.000000 0.000000 0.000000
# 2 0.008499 0.047908 -0.019033 0.000000 0.000000 0.000000
# 3 -0.008868 -0.019033 0.018200 0.000000 0.000000 0.000000
# 4 0.000000 0.000000 0.000000 0.164914 0.000000 0.000000
# 5 0.000000 0.000000 0.000000 0.000000 0.037639 0.000000
# 6 0.000000 0.000000 0.000000 0.000000 0.000000 0.078783
#
#
# Mechanical properties :
#
#
# Convention : Reuss Voigt Hill
#
# Bulk Modulus (GPa) = 23.76654 48.10495 35.93575
# Shear Modulus (GPa) = 12.04691 19.75532 15.90111
#
# Velocity S-wave (km/s) = 2.53304 3.24374 2.91016
# Velocity P-wave (km/s) = 4.60579 6.29684 5.51649
#
# Compressibility (1/GPa) = 0.04207595
#
# Stress axis : x y z
#
# Youngs Moduli (GPa) = 67.69723 20.87324 54.94622
#
# Poissons Ratio (x) = -0.17740 0.48727
# Poissons Ratio (y) = -0.57536 1.04578
# Poissons Ratio (z) = 0.60034 0.39727
#
# Static dielectric constant tensor:
#      x y z
#    x 1.738290 0.000000 0.000000 
#    y 0.000000 1.683240 0.000000 
#    z 0.000000 0.000000 1.723900 
# 
# From -- ./inp_files/47409.got.cif
#   From: 2010.05.17/outbox.cif.g08.bks.cpg/sg66_24_cif.got.tgz:47409.got - 2010.06.03 17:51:23.
