data_PCOD9496935
_publ_section_title
;
Structure prediction by ZEFSAII (Michael W. Deem and Ramdas Pophale) SiO2 
 PCOD9496935
Probable space group: C C C M
;
_chemical_formula_sum "Si O2"
_cell_formula_units_Z 64
_cell_length_a 16.244323
_cell_length_b 8.317591
_cell_length_c 24.817578
_cell_angle_alpha 90.000000
_cell_angle_beta 90.000000
_cell_angle_gamma 90.000000
_cell_volume 3353.193170
_symmetry_space_group_name_H-M "C C C M"
_symmetry_group_IT_number 66
_symmetry_cell_setting 'orthorhombic'
loop_
_space_group_symop_operation_xyz
x,y,z
-x,-y,z
x,-y,1/2-z
-x,y,1/2-z
-x,-y,-z
x,y,-z
-x,y,1/2+z
x,-y,1/2+z
1/2+x,1/2+y,z
1/2-x,1/2-y,z
1/2+x,1/2-y,1/2-z
1/2-x,1/2+y,1/2-z
1/2-x,1/2-y,-z
1/2+x,1/2+y,-z
1/2-x,1/2+y,1/2+z
1/2+x,1/2-y,1/2+z
loop_
_atom_site_type_symbol
_atom_site_label
_atom_site_fract_x
_atom_site_fract_y
_atom_site_fract_z
Si Si1 0.923892 0.369093 0.500000
Si Si2 0.340211 0.174548 0.500000
Si Si3 0.923706 0.877957 0.098005
Si Si4 0.342972 0.691326 0.886743
Si Si5 0.510596 0.809554 0.313213
O O1 0.844517 0.483881 0.500000
O O2 0.921803 0.253353 0.448636
O O3 0.000000 0.500000 0.500000
O O4 0.250000 0.250000 0.500000
O O5 0.376602 0.233953 0.556758
O O6 0.942413 0.786738 0.153288
O O7 0.847772 0.999551 0.104559
O O8 0.000000 0.000000 0.087735
O O9 0.250000 0.750000 0.878439
O O10 0.403301 0.748563 0.839037
O O11 0.500000 0.777992 0.250000
O O12 0.500000 0.000000 0.322389
#
# Coordination Sequence:
#
# PCOD9496935 Si02
#       5
#     8   8  16  16  16
#     4  12  20  33  60  88 116 156 205 241 283 350
#     4  10  21  37  55  82 123 154 182 235 294 342
#     4  10  20  34  58  87 116 151 197 245 294 347
#     4  10  21  39  59  84 120 155 193 243 296 351
#     4  10  21  39  59  83 116 153 195 245 293 345
#
# _framework density 19.086283999999999
#
# number of rings (size 3 to 8) (size 9 to 14) (size 15 to 20)
#    0.000    1.750    0.000    6.375    0.000    4.500 
#    0.000   21.250    0.000    0.000    0.000    0.000 
#    0.000    0.000    0.000    0.000    0.000    0.000 
#
# Total GULP energy -178552.378938 kJ/mol
# GULP energy per Si atom -5579.761842 kJ/mol
# Density = 1.904284 g / cm^3
# Si number density = 19.086284 Si / 1000 Ang^3
#
#
#
# Elastic Constant Matrix: (Units=GPa)
#
#
# Indices 1 2 3 4 5 6 
#
# 1 78.5694 49.2846 44.3622 0.0000 0.0000 0.0000
# 2 49.2846 170.1522 92.5975 0.0000 0.0000 0.0000
# 3 44.3622 92.5975 156.8638 0.0000 0.0000 0.0000
# 4 0.0000 0.0000 0.0000 -283.3900 0.0000 0.0000
# 5 0.0000 0.0000 0.0000 0.0000 20.0233 0.0000
# 6 0.0000 0.0000 0.0000 0.0000 0.0000 40.0303
#
#
#
# Elastic Compliance Matrix: (Units=1/GPa)
#
#
# Indices 1 2 3 4 5 6 
#
# 1 0.016286 -0.003257 -0.002683 0.000000 0.000000 0.000000
# 2 -0.003257 0.009310 -0.004575 0.000000 0.000000 0.000000
# 3 -0.002683 -0.004575 0.009834 0.000000 0.000000 0.000000
# 4 0.000000 0.000000 0.000000 -0.003529 0.000000 0.000000
# 5 0.000000 0.000000 0.000000 0.000000 0.049942 0.000000
# 6 0.000000 0.000000 0.000000 0.000000 0.000000 0.024981
#
#
# Mechanical properties :
#
#
# Convention : Reuss Voigt Hill
#
# Bulk Modulus (GPa) = 69.44268 86.45268 77.94768
# Shear Modulus (GPa) = 37.69224 -30.04453 3.82385
#
# Velocity S-wave (km/s) = 4.44873 -3.97185 1.41697
# Velocity P-wave (km/s) = 7.92785 4.93558 6.60344
#
# Compressibility (1/GPa) = 0.01440037
#
# Stress axis : x y z
#
# Youngs Moduli (GPa) = 61.40419 107.41114 101.68612
#
# Poissons Ratio (x) = 0.34984 0.27283
# Poissons Ratio (y) = 0.19999 0.46518
# Poissons Ratio (z) = 0.16475 0.49137
#
# Static dielectric constant tensor:
#      x y z
#    x 1.734840 0.000000 0.000000 
#    y 0.000000 1.684650 0.000000 
#    z 0.000000 0.000000 1.677290 
# 
# From -- ./inp_files/50535.got.cif
#   From: 2010.05.17/outbox.cif.g08.bks.cpg/sg66_26_cif.got.tgz:50535.got - 2010.06.03 17:51:23.
