data_PCOD9496321
_publ_section_title
;
Structure prediction by ZEFSAII (Michael W. Deem and Ramdas Pophale) SiO2 
 PCOD9496321
Probable space group: C C C M
;
_chemical_formula_sum "Si O2"
_cell_formula_units_Z 64
_cell_length_a 17.764280
_cell_length_b 8.956166
_cell_length_c 18.449629
_cell_angle_alpha 90.000000
_cell_angle_beta 90.000000
_cell_angle_gamma 90.000000
_cell_volume 2935.333032
_symmetry_space_group_name_H-M "C C C M"
_symmetry_group_IT_number 66
_symmetry_cell_setting 'orthorhombic'
loop_
_space_group_symop_operation_xyz
x,y,z
-x,-y,z
x,-y,1/2-z
-x,y,1/2-z
-x,-y,-z
x,y,-z
-x,y,1/2+z
x,-y,1/2+z
1/2+x,1/2+y,z
1/2-x,1/2-y,z
1/2+x,1/2-y,1/2-z
1/2-x,1/2+y,1/2-z
1/2-x,1/2-y,-z
1/2+x,1/2+y,-z
1/2-x,1/2+y,1/2+z
1/2+x,1/2-y,1/2+z
loop_
_atom_site_type_symbol
_atom_site_label
_atom_site_fract_x
_atom_site_fract_y
_atom_site_fract_z
Si Si1 0.487654 0.824547 0.080003
Si Si2 0.585589 0.437065 0.585981
Si Si3 0.584038 0.169275 0.225474
Si Si4 0.802011 0.887520 0.307125
O O1 0.500000 0.500000 0.100716
O O2 0.422517 0.811269 0.138710
O O3 0.565337 0.738365 0.098946
O O4 0.465460 0.771033 0.000000
O O5 0.602222 0.452847 0.500000
O O6 0.649713 0.518458 0.633514
O O7 0.500000 0.204799 0.250000
O O8 0.640939 0.297326 0.245616
O O9 0.500000 0.000000 0.077614
O O10 0.597829 0.000000 0.250000
O O11 0.750000 0.750000 0.335473
O O12 0.762296 0.000000 0.250000
#
# Coordination Sequence:
#
# PCOD9496321 Si02
#       4
#    16  16  16  16
#     4  10  19  34  60  98 132 159 207 284 348 401
#     4  10  21  40  69 102 130 169 233 294 348 417
#     4  11  21  36  61  93 125 169 222 277 328 406
#     4  12  27  43  63  93 139 187 229 287 352 416
#
# _framework density 21.803318999999998
#
# number of rings (size 3 to 8) (size 9 to 14) (size 15 to 20)
#    0.000    1.250    5.000    2.250    0.000    0.500 
#    0.000    0.000    0.000    0.750    0.000    0.000 
#    0.000    0.000    0.000    0.000    0.000    0.000 
#
# Total GULP energy -178146.800904 kJ/mol
# GULP energy per Si atom -5567.087528 kJ/mol
# Density = 2.175369 g / cm^3
# Si number density = 21.803319 Si / 1000 Ang^3
#
#
#
# Elastic Constant Matrix: (Units=GPa)
#
#
# Indices 1 2 3 4 5 6 
#
# 1 100.8058 42.4514 36.0238 0.0000 0.0000 0.0000
# 2 42.4514 139.4177 44.7953 0.0000 0.0000 0.0000
# 3 36.0238 44.7953 120.3917 0.0000 0.0000 0.0000
# 4 0.0000 0.0000 0.0000 27.4647 0.0000 0.0000
# 5 0.0000 0.0000 0.0000 0.0000 13.5022 0.0000
# 6 0.0000 0.0000 0.0000 0.0000 0.0000 39.5478
#
#
#
# Elastic Compliance Matrix: (Units=1/GPa)
#
#
# Indices 1 2 3 4 5 6 
#
# 1 0.012026 -0.002846 -0.002540 0.000000 0.000000 0.000000
# 2 -0.002846 0.008820 -0.002430 0.000000 0.000000 0.000000
# 3 -0.002540 -0.002430 0.009970 0.000000 0.000000 0.000000
# 4 0.000000 0.000000 0.000000 0.036410 0.000000 0.000000
# 5 0.000000 0.000000 0.000000 0.000000 0.074062 0.000000
# 6 0.000000 0.000000 0.000000 0.000000 0.000000 0.025286
#
#
# Mechanical properties :
#
#
# Convention : Reuss Voigt Hill
#
# Bulk Modulus (GPa) = 65.85373 67.46180 66.65776
# Shear Modulus (GPa) = 26.69972 31.92591 29.31282
#
# Velocity S-wave (km/s) = 3.50318 3.83073 3.67061
# Velocity P-wave (km/s) = 6.82877 7.11155 6.97160
#
# Compressibility (1/GPa) = 0.01518517
#
# Stress axis : x y z
#
# Youngs Moduli (GPa) = 83.15283 113.37792 100.29732
#
# Poissons Ratio (x) = 0.32266 0.25471
# Poissons Ratio (y) = 0.23664 0.24375
# Poissons Ratio (z) = 0.21117 0.27553
#
# Static dielectric constant tensor:
#      x y z
#    x 1.819940 0.000000 0.000000 
#    y 0.000000 1.957260 0.000000 
#    z 0.000000 0.000000 1.900340 
# 
# From -- ./inp_files/50515.got.cif
#   From: 2010.05.17/outbox.cif.g08.bks.cpg/sg66_26_cif.got.tgz:50515.got - 2010.06.03 17:51:23.
