data_PCOD9496798
_publ_section_title
;
Structure prediction by ZEFSAII (Michael W. Deem and Ramdas Pophale) SiO2 
 PCOD9496798
Probable space group: C C C M
;
_chemical_formula_sum "Si O2"
_cell_formula_units_Z 80
_cell_length_a 9.540911
_cell_length_b 26.027234
_cell_length_c 16.910788
_cell_angle_alpha 90.000000
_cell_angle_beta 90.000000
_cell_angle_gamma 90.000000
_cell_volume 4199.346456
_symmetry_space_group_name_H-M "C C C M"
_symmetry_group_IT_number 66
_symmetry_cell_setting 'orthorhombic'
loop_
_space_group_symop_operation_xyz
x,y,z
-x,-y,z
x,-y,1/2-z
-x,y,1/2-z
-x,-y,-z
x,y,-z
-x,y,1/2+z
x,-y,1/2+z
1/2+x,1/2+y,z
1/2-x,1/2-y,z
1/2+x,1/2-y,1/2-z
1/2-x,1/2+y,1/2-z
1/2-x,1/2-y,-z
1/2+x,1/2+y,-z
1/2-x,1/2+y,1/2+z
1/2+x,1/2-y,1/2+z
loop_
_atom_site_type_symbol
_atom_site_label
_atom_site_fract_x
_atom_site_fract_y
_atom_site_fract_z
Si Si1 0.007927 0.372731 0.587581
Si Si2 0.144984 0.702571 0.200185
Si Si3 0.642777 0.030520 0.851494
Si Si4 0.759704 0.396472 0.288987
Si Si5 0.617711 0.542524 0.908932
O O1 0.950887 0.366183 0.500000
O O2 0.888359 0.387533 0.650389
O O3 0.087553 0.322556 0.619295
O O4 0.111020 0.421263 0.592215
O O5 0.250000 0.750000 0.192247
O O6 0.234757 0.656677 0.241374
O O7 0.000000 0.713040 0.250000
O O8 0.706723 0.057633 0.772988
O O9 0.500000 0.000000 0.835723
O O10 0.742001 0.990177 0.894527
O O11 0.628408 0.412718 0.343348
O O12 0.500000 0.500000 0.893399
O O13 0.606718 0.560180 0.000000
#
# Coordination Sequence:
#
# PCOD9496798 Si02
#       5
#    16  16  16  16  16
#     4  10  20  33  57  89 113 144 186 234 286 335
#     4   9  20  40  61  84 108 143 192 247 290 341
#     4  11  21  33  56  85 113 150 193 229 266 332
#     4  10  21  35  59  84 114 149 197 234 271 344
#     4  11  24  37  51  79 122 158 186 228 283 337
#
# _framework density 19.050584000000001
#
# number of rings (size 3 to 8) (size 9 to 14) (size 15 to 20)
#    0.000    1.800    2.000    3.600    2.800    2.800 
#    7.200    0.000    0.000   15.000    0.000    0.000 
#    0.000    0.000    0.000    0.000    0.000    0.000 
#
# Total GULP energy -223043.326672 kJ/mol
# GULP energy per Si atom -5576.083167 kJ/mol
# Density = 1.900722 g / cm^3
# Si number density = 19.050584 Si / 1000 Ang^3
#
#
#
# Elastic Constant Matrix: (Units=GPa)
#
#
# Indices 1 2 3 4 5 6 
#
# 1 38.0360 12.9739 -2.9289 0.0000 0.0000 0.0000
# 2 12.9739 97.9681 16.8640 0.0000 0.0000 0.0000
# 3 -2.9289 16.8640 79.3076 0.0000 0.0000 0.0000
# 4 0.0000 0.0000 0.0000 -7.8357 0.0000 0.0000
# 5 0.0000 0.0000 0.0000 0.0000 13.9223 0.0000
# 6 0.0000 0.0000 0.0000 0.0000 0.0000 34.2691
#
#
#
# Elastic Compliance Matrix: (Units=1/GPa)
#
#
# Indices 1 2 3 4 5 6 
#
# 1 0.027802 -0.004005 0.001878 0.000000 0.000000 0.000000
# 2 -0.004005 0.011172 -0.002524 0.000000 0.000000 0.000000
# 3 0.001878 -0.002524 0.013215 0.000000 0.000000 0.000000
# 4 0.000000 0.000000 0.000000 -0.127621 0.000000 0.000000
# 5 0.000000 0.000000 0.000000 0.000000 0.071827 0.000000
# 6 0.000000 0.000000 0.000000 0.000000 0.000000 0.029181
#
#
# Mechanical properties :
#
#
# Convention : Reuss Voigt Hill
#
# Bulk Modulus (GPa) = 23.31634 29.90331 26.60982
# Shear Modulus (GPa) = 101.68133 20.63131 61.15632
#
# Velocity S-wave (km/s) = 7.31370 3.29443 5.67202
# Velocity P-wave (km/s) = 9.14254 5.49562 7.54281
#
# Compressibility (1/GPa) = 0.04288839
#
# Stress axis : x y z
#
# Youngs Moduli (GPa) = 35.96905 89.50787 75.67096
#
# Poissons Ratio (x) = 0.35849 -0.14214
# Poissons Ratio (y) = 0.14406 0.19096
# Poissons Ratio (z) = -0.06756 0.22588
#
# Static dielectric constant tensor:
#      x y z
#    x 1.724450 0.000000 0.000000 
#    y 0.000000 1.667930 0.000000 
#    z 0.000000 0.000000 1.704330 
# 
# From -- ./inp_files/36999.got.cif
#   From: 2010.05.17/outbox.cif.g08.bks.cpg/sg66_19_cif.got.tgz:36999.got - 2010.06.03 17:51:23.
