data_PCOD9496359
_publ_section_title
;
Structure prediction by ZEFSAII (Michael W. Deem and Ramdas Pophale) SiO2 
 PCOD9496359
Probable space group: C C C M
;
_chemical_formula_sum "Si O2"
_cell_formula_units_Z 88
_cell_length_a 9.114407
_cell_length_b 26.775236
_cell_length_c 22.468802
_cell_angle_alpha 90.000000
_cell_angle_beta 90.000000
_cell_angle_gamma 90.000000
_cell_volume 5483.295392
_symmetry_space_group_name_H-M "C C C M"
_symmetry_group_IT_number 66
_symmetry_cell_setting 'orthorhombic'
loop_
_space_group_symop_operation_xyz
x,y,z
-x,-y,z
x,-y,1/2-z
-x,y,1/2-z
-x,-y,-z
x,y,-z
-x,y,1/2+z
x,-y,1/2+z
1/2+x,1/2+y,z
1/2-x,1/2-y,z
1/2+x,1/2-y,1/2-z
1/2-x,1/2+y,1/2-z
1/2-x,1/2-y,-z
1/2+x,1/2+y,-z
1/2-x,1/2+y,1/2+z
1/2+x,1/2-y,1/2+z
loop_
_atom_site_type_symbol
_atom_site_label
_atom_site_fract_x
_atom_site_fract_y
_atom_site_fract_z
Si Si1 0.500000 0.864618 0.750000
Si Si2 0.584382 0.254282 0.069319
Si Si3 0.656615 0.201002 0.648725
Si Si4 0.983398 0.057076 0.350312
Si Si5 0.900807 0.853398 0.069270
Si Si6 0.755325 0.057590 0.755835
O O1 0.423410 0.829694 0.700569
O O2 0.370609 0.902635 0.768482
O O3 0.750000 0.250000 0.092004
O O4 0.470084 0.221539 0.105740
O O5 0.525244 0.310709 0.072449
O O6 0.582988 0.238931 0.000000
O O7 0.750000 0.250000 0.669613
O O8 0.767388 0.166996 0.609930
O O9 0.124596 0.063542 0.307885
O O10 0.964206 0.096134 0.402909
O O11 0.844674 0.064920 0.305925
O O12 0.000000 0.000000 0.371370
O O13 0.857248 0.858446 0.000000
O O14 0.702799 0.000000 0.750000
#
# Coordination Sequence:
#
# PCOD9496359 Si02
#       6
#     8  16  16  16  16  16
#     4  12  21  34  56  80 104 144 173 222 268 308
#     4   9  19  35  55  76 101 137 179 218 257 308
#     4  10  22  37  49  78 110 142 176 214 267 317
#     4   9  18  35  55  80 108 136 172 223 268 313
#     4  10  19  35  57  78 106 145 180 213 261 323
#     4   9  19  35  56  79 106 137 177 219 267 321
#
# _framework density 16.048743999999999
#
# number of rings (size 3 to 8) (size 9 to 14) (size 15 to 20)
#    0.000    2.364    1.818    1.909    2.545    3.273 
#    3.273    0.000    0.000    0.000    0.000    2.545 
#    0.000    0.000    0.000    0.000    0.000    0.000 
#
# Total GULP energy -245079.728216 kJ/mol
# GULP energy per Si atom -5569.993823 kJ/mol
# Density = 1.601222 g / cm^3
# Si number density = 16.048744 Si / 1000 Ang^3
#
#
#
# Elastic Constant Matrix: (Units=GPa)
#
#
# Indices 1 2 3 4 5 6 
#
# 1 102.6240 59.1219 38.4609 0.0000 0.0000 0.0000
# 2 59.1219 115.0370 67.0580 0.0000 0.0000 0.0000
# 3 38.4609 67.0580 81.2108 0.0000 0.0000 0.0000
# 4 0.0000 0.0000 0.0000 22.9104 0.0000 0.0000
# 5 0.0000 0.0000 0.0000 0.0000 23.7902 0.0000
# 6 0.0000 0.0000 0.0000 0.0000 0.0000 24.2131
#
#
#
# Elastic Compliance Matrix: (Units=1/GPa)
#
#
# Indices 1 2 3 4 5 6 
#
# 1 0.013916 -0.006382 -0.001321 0.000000 0.000000 0.000000
# 2 -0.006382 0.019687 -0.013234 0.000000 0.000000 0.000000
# 3 -0.001321 -0.013234 0.023866 0.000000 0.000000 0.000000
# 4 0.000000 0.000000 0.000000 0.043648 0.000000 0.000000
# 5 0.000000 0.000000 0.000000 0.000000 0.042034 0.000000
# 6 0.000000 0.000000 0.000000 0.000000 0.000000 0.041300
#
#
# Mechanical properties :
#
#
# Convention : Reuss Voigt Hill
#
# Bulk Modulus (GPa) = 64.11591 69.79483 66.95537
# Shear Modulus (GPa) = 21.59606 23.13148 22.36377
#
# Velocity S-wave (km/s) = 3.67230 3.80060 3.73700
# Velocity P-wave (km/s) = 7.61699 7.92736 7.77372
#
# Compressibility (1/GPa) = 0.01559675
#
# Stress axis : x y z
#
# Youngs Moduli (GPa) = 71.85968 50.79461 41.89979
#
# Poissons Ratio (x) = 0.32418 0.05533
# Poissons Ratio (y) = 0.45862 0.55449
# Poissons Ratio (z) = 0.09490 0.67220
#
# Static dielectric constant tensor:
#      x y z
#    x 1.529220 0.000000 0.000000 
#    y 0.000000 1.539570 0.000000 
#    z 0.000000 0.000000 1.520490 
# 
# From -- ./inp_files/37188.got.cif
#   From: 2010.05.17/outbox.cif.g08.bks.cpg/sg66_19_cif.got.tgz:37188.got - 2010.06.03 17:51:23.
