data_PCOD9496910
_publ_section_title
;
Structure prediction by ZEFSAII (Michael W. Deem and Ramdas Pophale) SiO2 
 PCOD9496910
Probable space group: C C C M
;
_chemical_formula_sum "Si O2"
_cell_formula_units_Z 80
_cell_length_a 24.682396
_cell_length_b 15.758501
_cell_length_c 10.448812
_cell_angle_alpha 90.000000
_cell_angle_beta 90.000000
_cell_angle_gamma 90.000000
_cell_volume 4064.144442
_symmetry_space_group_name_H-M "C C C M"
_symmetry_group_IT_number 66
_symmetry_cell_setting 'orthorhombic'
loop_
_space_group_symop_operation_xyz
x,y,z
-x,-y,z
x,-y,1/2-z
-x,y,1/2-z
-x,-y,-z
x,y,-z
-x,y,1/2+z
x,-y,1/2+z
1/2+x,1/2+y,z
1/2-x,1/2-y,z
1/2+x,1/2-y,1/2-z
1/2-x,1/2+y,1/2-z
1/2-x,1/2-y,-z
1/2+x,1/2+y,-z
1/2-x,1/2+y,1/2+z
1/2+x,1/2-y,1/2+z
loop_
_atom_site_type_symbol
_atom_site_label
_atom_site_fract_x
_atom_site_fract_y
_atom_site_fract_z
Si Si1 0.078196 0.263546 0.229003
Si Si2 0.333386 0.427784 0.000000
Si Si3 0.315604 0.620946 0.000000
Si Si4 0.196922 0.800323 0.273548
Si Si5 0.941748 0.549216 0.860726
Si Si6 0.448001 0.634820 0.500000
Si Si7 0.061430 0.182035 0.500000
O O1 0.143710 0.259778 0.230280
O O2 0.055733 0.353385 0.181312
O O3 0.061433 0.192731 0.125733
O O4 0.058854 0.238729 0.371231
O O5 0.316418 0.374393 0.125147
O O6 0.399348 0.432216 0.000000
O O7 0.308051 0.520379 0.000000
O O8 0.294530 0.662260 0.868841
O O9 0.380281 0.638424 0.000000
O O10 0.250000 0.750000 0.314433
O O11 0.910506 0.500000 0.750000
O O12 0.000000 0.500000 0.870329
O O13 0.916398 0.544273 0.000000
O O14 0.511700 0.615888 0.500000
#
# Coordination Sequence:
#
# PCOD9496910 Si02
#       7
#    16   8   8  16  16   8   8
#     4  10  21  37  55  81 116 149 205 235 277 368
#     4  10  21  38  62  91 120 151 198 238 293 354
#     4  10  21  40  60  95 120 145 194 246 295 354
#     4  10  21  40  66  87 114 158 196 246 298 351
#     4  10  22  34  50  76 108 154 190 238 289 335
#     4  10  20  34  56  83 114 161 186 231 283 346
#     4  10  22  32  58  87 114 155 190 229 295 344
#
# _framework density 19.684339999999999
#
# number of rings (size 3 to 8) (size 9 to 14) (size 15 to 20)
#    0.000    2.000    1.000    1.800    7.000    0.400 
#    0.000    2.000    0.000    7.200    0.000    0.000 
#    0.000    0.000    0.000    0.000    0.000    0.000 
#
# Total GULP energy -223106.486154 kJ/mol
# GULP energy per Si atom -5577.662154 kJ/mol
# Density = 1.963954 g / cm^3
# Si number density = 19.684340 Si / 1000 Ang^3
#
#
#
# Elastic Constant Matrix: (Units=GPa)
#
#
# Indices 1 2 3 4 5 6 
#
# 1 77.5213 4.5342 -9.5889 0.0000 0.0000 0.0000
# 2 4.5342 71.9584 16.4242 0.0000 0.0000 0.0000
# 3 -9.5889 16.4242 156.4758 0.0000 0.0000 0.0000
# 4 0.0000 0.0000 0.0000 0.2572 0.0000 0.0000
# 5 0.0000 0.0000 0.0000 0.0000 14.6835 0.0000
# 6 0.0000 0.0000 0.0000 0.0000 0.0000 14.1214
#
#
#
# Elastic Compliance Matrix: (Units=1/GPa)
#
#
# Indices 1 2 3 4 5 6 
#
# 1 0.013072 -0.001031 0.000909 0.000000 0.000000 0.000000
# 2 -0.001031 0.014319 -0.001566 0.000000 0.000000 0.000000
# 3 0.000909 -0.001566 0.006611 0.000000 0.000000 0.000000
# 4 0.000000 0.000000 0.000000 3.888007 0.000000 0.000000
# 5 0.000000 0.000000 0.000000 0.000000 0.068103 0.000000
# 6 0.000000 0.000000 0.000000 0.000000 0.000000 0.070815
#
#
# Mechanical properties :
#
#
# Convention : Reuss Voigt Hill
#
# Bulk Modulus (GPa) = 32.65152 36.52162 34.58657
# Shear Modulus (GPa) = 1.22714 25.45149 13.33932
#
# Velocity S-wave (km/s) = 0.79042 3.59971 2.60602
# Velocity P-wave (km/s) = 4.17811 5.98925 5.16370
#
# Compressibility (1/GPa) = 0.03062644
#
# Stress axis : x y z
#
# Youngs Moduli (GPa) = 76.49663 69.83545 151.26569
#
# Poissons Ratio (x) = 0.07202 -0.13755
# Poissons Ratio (y) = 0.07889 0.23691
# Poissons Ratio (z) = -0.06956 0.10938
#
# Static dielectric constant tensor:
#      x y z
#    x 1.720180 0.000000 0.000000 
#    y 0.000000 1.663000 0.000000 
#    z 0.000000 0.000000 1.732590 
# 
# From -- ./inp_files/19693.got.cif
#   From: 2010.05.17/outbox.cif.g08.bks.cpg/sg66_10_cif.got.tgz:19693.got - 2010.06.03 17:51:23.
