data_PCOD9496799
_publ_section_title
;
Structure prediction by ZEFSAII (Michael W. Deem and Ramdas Pophale) SiO2 
 PCOD9496799
Probable space group: C C C M
;
_chemical_formula_sum "Si O2"
_cell_formula_units_Z 88
_cell_length_a 14.283952
_cell_length_b 22.838467
_cell_length_c 15.754093
_cell_angle_alpha 90.000000
_cell_angle_beta 90.000000
_cell_angle_gamma 90.000000
_cell_volume 5139.356404
_symmetry_space_group_name_H-M "C C C M"
_symmetry_group_IT_number 66
_symmetry_cell_setting 'orthorhombic'
loop_
_space_group_symop_operation_xyz
x,y,z
-x,-y,z
x,-y,1/2-z
-x,y,1/2-z
-x,-y,-z
x,y,-z
-x,y,1/2+z
x,-y,1/2+z
1/2+x,1/2+y,z
1/2-x,1/2-y,z
1/2+x,1/2-y,1/2-z
1/2-x,1/2+y,1/2-z
1/2-x,1/2-y,-z
1/2+x,1/2+y,-z
1/2-x,1/2+y,1/2+z
1/2+x,1/2-y,1/2+z
loop_
_atom_site_type_symbol
_atom_site_label
_atom_site_fract_x
_atom_site_fract_y
_atom_site_fract_z
Si Si1 0.222179 0.180817 0.500000
Si Si2 0.109493 0.496357 0.102188
Si Si3 0.980344 0.784088 0.500000
Si Si4 0.820992 0.619167 0.341242
Si Si5 0.808793 0.369847 0.649246
Si Si6 0.499546 0.800552 0.655992
Si Si7 0.802662 0.186615 0.500000
O O1 0.250000 0.250000 0.500000
O O2 0.109966 0.174764 0.500000
O O3 0.265065 0.150204 0.416779
O O4 0.165362 0.550537 0.142009
O O5 0.153845 0.434670 0.128285
O O6 0.000000 0.500000 0.127971
O O7 0.112494 0.501909 0.000000
O O8 0.972211 0.743673 0.583084
O O9 0.085541 0.808271 0.500000
O O10 0.780269 0.631653 0.247946
O O11 0.925143 0.647178 0.341819
O O12 0.731951 0.348133 0.583125
O O13 0.897751 0.326856 0.637742
O O14 0.500000 0.773430 0.750000
O O15 0.750000 0.250000 0.500000
#
# Coordination Sequence:
#
# PCOD9496799 Si02
#       7
#     8  16   8  16  16  16   8
#     4  12  24  39  59  83 115 157 200 239 291 340
#     4  11  21  33  61  92 124 155 187 232 294 355
#     4  12  24  40  58  78 118 154 200 248 282 330
#     4  11  22  37  58  89 124 155 188 232 289 354
#     4  11  22  37  58  89 124 155 188 232 289 354
#     4  10  20  33  57  89 119 152 189 229 283 348
#     4  12  24  39  59  83 115 157 200 239 291 340
#
# _framework density 17.122767
#
# number of rings (size 3 to 8) (size 9 to 14) (size 15 to 20)
#    0.000    0.909    7.273    0.545    0.000    2.909 
#    0.000    0.000    0.000    2.182    0.000    2.545 
#    0.000    0.000    0.000    0.000    0.000    0.000 
#
# Total GULP energy -245805.221750 kJ/mol
# GULP energy per Si atom -5586.482312 kJ/mol
# Density = 1.708379 g / cm^3
# Si number density = 17.122767 Si / 1000 Ang^3
#
#
#
# Elastic Constant Matrix: (Units=GPa)
#
#
# Indices 1 2 3 4 5 6 
#
# 1 69.9887 13.6541 26.4919 0.0000 0.0000 0.0000
# 2 13.6541 61.8203 30.2038 0.0000 0.0000 0.0000
# 3 26.4919 30.2038 114.3136 0.0000 0.0000 0.0000
# 4 0.0000 0.0000 0.0000 25.6728 0.0000 0.0000
# 5 0.0000 0.0000 0.0000 0.0000 10.5853 0.0000
# 6 0.0000 0.0000 0.0000 0.0000 0.0000 24.8572
#
#
#
# Elastic Compliance Matrix: (Units=1/GPa)
#
#
# Indices 1 2 3 4 5 6 
#
# 1 0.015866 -0.001961 -0.003159 0.000000 0.000000 0.000000
# 2 -0.001961 0.018816 -0.004517 0.000000 0.000000 0.000000
# 3 -0.003159 -0.004517 0.010673 0.000000 0.000000 0.000000
# 4 0.000000 0.000000 0.000000 0.038952 0.000000 0.000000
# 5 0.000000 0.000000 0.000000 0.000000 0.094471 0.000000
# 6 0.000000 0.000000 0.000000 0.000000 0.000000 0.040230
#
#
# Mechanical properties :
#
#
# Convention : Reuss Voigt Hill
#
# Bulk Modulus (GPa) = 38.34091 42.98024 40.66057
# Shear Modulus (GPa) = 20.24490 23.94123 22.09307
#
# Velocity S-wave (km/s) = 3.44224 3.74332 3.59594
# Velocity P-wave (km/s) = 6.18378 6.62110 6.40617
#
# Compressibility (1/GPa) = 0.02608180
#
# Stress axis : x y z
#
# Youngs Moduli (GPa) = 63.02679 53.14638 93.69073
#
# Poissons Ratio (x) = 0.10422 0.29595
# Poissons Ratio (y) = 0.12360 0.42321
# Poissons Ratio (z) = 0.19909 0.24007
#
# Static dielectric constant tensor:
#      x y z
#    x 1.559940 0.000000 0.000000 
#    y 0.000000 1.558570 0.000000 
#    z 0.000000 0.000000 1.598100 
# 
# From -- ./inp_files/26576.got.cif
#   From: 2010.05.17/outbox.cif.g08.bks.cpg/sg66_14_cif.got.tgz:26576.got - 2010.06.03 17:51:23.
