data_PCOD9496145
_publ_section_title
;
Structure prediction by ZEFSAII (Michael W. Deem and Ramdas Pophale) SiO2 
 PCOD9496145
Probable space group: C C C M
;
_chemical_formula_sum "Si O2"
_cell_formula_units_Z 72
_cell_length_a 12.053982
_cell_length_b 21.358717
_cell_length_c 14.645787
_cell_angle_alpha 90.000000
_cell_angle_beta 90.000000
_cell_angle_gamma 90.000000
_cell_volume 3770.669028
_symmetry_space_group_name_H-M "C C C M"
_symmetry_group_IT_number 66
_symmetry_cell_setting 'orthorhombic'
loop_
_space_group_symop_operation_xyz
x,y,z
-x,-y,z
x,-y,1/2-z
-x,y,1/2-z
-x,-y,-z
x,y,-z
-x,y,1/2+z
x,-y,1/2+z
1/2+x,1/2+y,z
1/2-x,1/2-y,z
1/2+x,1/2-y,1/2-z
1/2-x,1/2+y,1/2-z
1/2-x,1/2-y,-z
1/2+x,1/2+y,-z
1/2-x,1/2+y,1/2+z
1/2+x,1/2-y,1/2+z
loop_
_atom_site_type_symbol
_atom_site_label
_atom_site_fract_x
_atom_site_fract_y
_atom_site_fract_z
Si Si1 0.882007 0.460981 0.500000
Si Si2 0.611015 0.139554 0.807134
Si Si3 0.740626 0.524867 0.342457
Si Si4 0.578371 0.703908 0.500000
Si Si5 0.250000 0.750000 0.153321
Si Si6 0.504335 0.835993 0.500000
Si Si7 0.076740 0.062294 0.500000
O O1 0.811521 0.479838 0.410066
O O2 0.000000 0.500000 0.500000
O O3 0.907145 0.386961 0.500000
O O4 0.500000 0.140710 0.750000
O O5 0.673132 0.074543 0.801532
O O6 0.690432 0.197638 0.786496
O O7 0.577979 0.148451 0.912353
O O8 0.684347 0.500000 0.250000
O O9 0.653672 0.556760 0.410497
O O10 0.659566 0.716418 0.412977
O O11 0.489475 0.760917 0.500000
O O12 0.530983 0.633521 0.500000
O O13 0.000000 0.000000 0.500000
#
# Coordination Sequence:
#
# PCOD9496145 Si02
#       7
#     8  16  16   8   8   8   8
#     4  11  19  32  54  92 131 153 196 254 310 365
#     4  11  20  33  59  90 121 163 201 253 314 367
#     4  11  23  36  57  91 126 160 203 259 313 373
#     4   9  17  35  64  83 110 153 207 258 299 352
#     4   9  18  34  58  87 120 146 204 259 294 369
#     4  10  19  33  56  89 116 155 202 246 301 352
#     4  11  23  44  66  86 117 163 220 260 304 367
#
# _framework density 19.094754999999999
#
# number of rings (size 3 to 8) (size 9 to 14) (size 15 to 20)
#    0.000    1.556    4.444    2.667    0.000    0.444 
#    0.000    4.444    0.000    3.333    0.000    0.000 
#    0.000    0.000    0.000    0.000    0.000    0.000 
#
# Total GULP energy -200694.000115 kJ/mol
# GULP energy per Si atom -5574.833337 kJ/mol
# Density = 1.905129 g / cm^3
# Si number density = 19.094755 Si / 1000 Ang^3
#
#
#
# Elastic Constant Matrix: (Units=GPa)
#
#
# Indices 1 2 3 4 5 6 
#
# 1 35.2390 31.8800 2.4176 0.0000 0.0000 0.0000
# 2 31.8800 137.4688 5.2736 0.0000 0.0000 0.0000
# 3 2.4176 5.2736 80.6361 0.0000 0.0000 0.0000
# 4 0.0000 0.0000 0.0000 7.5384 0.0000 0.0000
# 5 0.0000 0.0000 0.0000 0.0000 -6.9830 0.0000
# 6 0.0000 0.0000 0.0000 0.0000 0.0000 39.6652
#
#
#
# Elastic Compliance Matrix: (Units=1/GPa)
#
#
# Indices 1 2 3 4 5 6 
#
# 1 0.035935 -0.008313 -0.000534 0.000000 0.000000 0.000000
# 2 -0.008313 0.009216 -0.000353 0.000000 0.000000 0.000000
# 3 -0.000534 -0.000353 0.012441 0.000000 0.000000 0.000000
# 4 0.000000 0.000000 0.000000 0.132654 0.000000 0.000000
# 5 0.000000 0.000000 0.000000 0.000000 -0.143205 0.000000
# 6 0.000000 0.000000 0.000000 0.000000 0.000000 0.025211
#
#
# Mechanical properties :
#
#
# Convention : Reuss Voigt Hill
#
# Bulk Modulus (GPa) = 25.51622 36.94290 31.22956
# Shear Modulus (GPa) = 48.20858 22.29564 35.25211
#
# Velocity S-wave (km/s) = 5.03009 3.42077 4.30137
# Velocity P-wave (km/s) = 6.86496 5.91535 6.40777
#
# Compressibility (1/GPa) = 0.03919075
#
# Stress axis : x y z
#
# Youngs Moduli (GPa) = 27.82803 108.50924 80.38258
#
# Poissons Ratio (x) = 0.90205 0.04290
# Poissons Ratio (y) = 0.23134 0.02841
# Poissons Ratio (z) = 0.01485 0.03836
#
# Static dielectric constant tensor:
#      x y z
#    x 1.498980 0.000000 0.000000 
#    y 0.000000 1.741510 0.000000 
#    z 0.000000 0.000000 1.662210 
# 
# From -- ./inp_files/28026.got.cif
#   From: 2010.05.17/outbox.cif.g08.bks.cpg/sg66_15_cif.got.tgz:28026.got - 2010.06.03 17:51:23.
