data_PCOD9496128
_publ_section_title
;
Structure prediction by ZEFSAII (Michael W. Deem and Ramdas Pophale) SiO2 
 PCOD9496128
Probable space group: C C C M
;
_chemical_formula_sum "Si O2"
_cell_formula_units_Z 96
_cell_length_a 15.871265
_cell_length_b 19.797073
_cell_length_c 16.092673
_cell_angle_alpha 90.000000
_cell_angle_beta 90.000000
_cell_angle_gamma 90.000000
_cell_volume 5056.391751
_symmetry_space_group_name_H-M "C C C M"
_symmetry_group_IT_number 66
_symmetry_cell_setting 'orthorhombic'
loop_
_space_group_symop_operation_xyz
x,y,z
-x,-y,z
x,-y,1/2-z
-x,y,1/2-z
-x,-y,-z
x,y,-z
-x,y,1/2+z
x,-y,1/2+z
1/2+x,1/2+y,z
1/2-x,1/2-y,z
1/2+x,1/2-y,1/2-z
1/2-x,1/2+y,1/2-z
1/2-x,1/2-y,-z
1/2+x,1/2+y,-z
1/2-x,1/2+y,1/2+z
1/2+x,1/2-y,1/2+z
loop_
_atom_site_type_symbol
_atom_site_label
_atom_site_fract_x
_atom_site_fract_y
_atom_site_fract_z
Si Si1 0.073142 0.090107 0.600125
Si Si2 0.407055 0.151895 0.289794
Si Si3 0.613405 0.436522 0.399079
Si Si4 0.782717 0.564592 0.812933
Si Si5 0.089071 0.475000 0.597014
Si Si6 0.152048 0.230048 0.402305
O O1 0.070615 0.087476 0.500000
O O2 0.132662 0.152458 0.621700
O O3 0.975415 0.097296 0.625904
O O4 0.104989 0.016045 0.624384
O O5 0.500000 0.147739 0.250000
O O6 0.336069 0.126472 0.225064
O O7 0.394321 0.095915 0.360944
O O8 0.393903 0.222504 0.335981
O O9 0.622853 0.431601 0.500000
O O10 0.694588 0.411517 0.350281
O O11 0.772553 0.500000 0.750000
O O12 0.840233 0.529933 0.883567
O O13 0.080999 0.465305 0.500000
O O14 0.000000 0.500000 0.632939
O O15 0.125168 0.239040 0.500000
O O16 0.250000 0.250000 0.399237
#
# Coordination Sequence:
#
# PCOD9496128 Si02
#       6
#    16  16  16  16  16  16
#     4   8  17  35  60  86 113 144 186 242 294 329
#     4  11  22  39  53  79 119 155 180 234 296 345
#     4   9  17  35  61  88 114 145 187 240 292 348
#     4  10  21  32  53  81 119 148 184 233 293 344
#     4  10  19  33  56  81 107 147 194 236 282 341
#     4  10  22  40  62  85 110 151 205 244 276 344
#
# _framework density 18.985869999999998
#
# number of rings (size 3 to 8) (size 9 to 14) (size 15 to 20)
#    0.000    2.333    1.667    2.000    4.667    0.000 
#    3.000    1.667    0.000    0.000    0.000    3.500 
#    0.000    0.000    0.000    0.000    0.000    0.000 
#
# Total GULP energy -267633.267362 kJ/mol
# GULP energy per Si atom -5575.693070 kJ/mol
# Density = 1.894266 g / cm^3
# Si number density = 18.985870 Si / 1000 Ang^3
#
#
#
# Elastic Constant Matrix: (Units=GPa)
#
#
# Indices 1 2 3 4 5 6 
#
# 1 111.0572 22.0479 31.9248 0.0000 0.0000 0.0000
# 2 22.0479 62.4064 16.1613 0.0000 0.0000 0.0000
# 3 31.9248 16.1613 44.8712 0.0000 0.0000 0.0000
# 4 0.0000 0.0000 0.0000 8.3779 0.0000 0.0000
# 5 0.0000 0.0000 0.0000 0.0000 33.6112 0.0000
# 6 0.0000 0.0000 0.0000 0.0000 0.0000 21.7408
#
#
#
# Elastic Compliance Matrix: (Units=1/GPa)
#
#
# Indices 1 2 3 4 5 6 
#
# 1 0.011577 -0.002158 -0.007460 0.000000 0.000000 0.000000
# 2 -0.002158 0.018075 -0.004974 0.000000 0.000000 0.000000
# 3 -0.007460 -0.004974 0.029385 0.000000 0.000000 0.000000
# 4 0.000000 0.000000 0.000000 0.119362 0.000000 0.000000
# 5 0.000000 0.000000 0.000000 0.000000 0.029752 0.000000
# 6 0.000000 0.000000 0.000000 0.000000 0.000000 0.045996
#
#
# Mechanical properties :
#
#
# Convention : Reuss Voigt Hill
#
# Bulk Modulus (GPa) = 33.49824 39.84477 36.67150
# Shear Modulus (GPa) = 17.04840 22.62603 19.83722
#
# Velocity S-wave (km/s) = 2.99984 3.45589 3.23591
# Velocity P-wave (km/s) = 5.44801 6.07917 5.77222
#
# Compressibility (1/GPa) = 0.02985231
#
# Stress axis : x y z
#
# Youngs Moduli (GPa) = 86.37660 55.32584 34.03105
#
# Poissons Ratio (x) = 0.11941 0.25386
# Poissons Ratio (y) = 0.18643 0.16928
# Poissons Ratio (z) = 0.64433 0.27521
#
# Static dielectric constant tensor:
#      x y z
#    x 1.692730 0.000000 0.000000 
#    y 0.000000 1.656640 0.000000 
#    z 0.000000 0.000000 1.675570 
# 
# From -- ./inp_files/28356.got.cif
#   From: 2010.05.17/outbox.cif.g08.bks.cpg/sg66_15_cif.got.tgz:28356.got - 2010.06.03 17:51:23.
