data_PCOD9496816
_publ_section_title
;
Structure prediction by ZEFSAII (Michael W. Deem and Ramdas Pophale) SiO2 
 PCOD9496816
Probable space group: C C C M
;
_chemical_formula_sum "Si O2"
_cell_formula_units_Z 88
_cell_length_a 5.012553
_cell_length_b 29.042983
_cell_length_c 32.584369
_cell_angle_alpha 90.000000
_cell_angle_beta 90.000000
_cell_angle_gamma 90.000000
_cell_volume 4743.615872
_symmetry_space_group_name_H-M "C C C M"
_symmetry_group_IT_number 66
_symmetry_cell_setting 'orthorhombic'
loop_
_space_group_symop_operation_xyz
x,y,z
-x,-y,z
x,-y,1/2-z
-x,y,1/2-z
-x,-y,-z
x,y,-z
-x,y,1/2+z
x,-y,1/2+z
1/2+x,1/2+y,z
1/2-x,1/2-y,z
1/2+x,1/2-y,1/2-z
1/2-x,1/2+y,1/2-z
1/2-x,1/2-y,-z
1/2+x,1/2+y,-z
1/2-x,1/2+y,1/2+z
1/2+x,1/2-y,1/2+z
loop_
_atom_site_type_symbol
_atom_site_label
_atom_site_fract_x
_atom_site_fract_y
_atom_site_fract_z
Si Si1 0.006348 0.831759 0.328193
Si Si2 0.003836 0.648666 0.880607
Si Si3 0.927940 0.549363 0.848982
Si Si4 0.992088 0.282299 0.952513
Si Si5 0.250000 0.750000 0.223294
Si Si6 0.933526 0.931033 0.295752
O O1 0.803040 0.842712 0.365145
O O2 0.894664 0.788236 0.304214
O O3 0.988334 0.876332 0.299124
O O4 0.300032 0.828609 0.347553
O O5 0.948238 0.593997 0.878087
O O6 0.969268 0.673817 0.923686
O O7 0.638752 0.547943 0.828470
O O8 0.000000 0.500000 0.867675
O O9 0.137291 0.558744 0.811767
O O10 0.750000 0.250000 0.937589
O O11 0.250000 0.250000 0.951097
O O12 0.939456 0.295047 0.000000
O O13 0.500000 0.769496 0.250000
O O14 0.000000 0.946455 0.250000
#
# Coordination Sequence:
#
# PCOD9496816 Si02
#       6
#    16  16  16  16   8  16
#     4  10  22  35  52  75 101 144 183 221 265 317
#     4  10  21  37  55  78 108 140 174 218 266 319
#     4  10  21  35  52  76 101 135 180 221 271 318
#     4  10  21  36  58  87 114 140 170 212 263 320
#     4  12  24  36  50  72 103 144 193 234 266 306
#     4  10  20  34  51  71 102 134 175 230 276 315
#
# _framework density 18.551251000000001
#
# number of rings (size 3 to 8) (size 9 to 14) (size 15 to 20)
#    0.000    1.818    0.000    3.818    3.818    5.091 
#    0.000    0.000    0.000    0.545    0.000    0.000 
#    0.000   13.091    0.000    0.000    0.000    2.182 
#
# Total GULP energy -245777.032161 kJ/mol
# GULP energy per Si atom -5585.841640 kJ/mol
# Density = 1.850903 g / cm^3
# Si number density = 18.551251 Si / 1000 Ang^3
#
#
#
# Elastic Constant Matrix: (Units=GPa)
#
#
# Indices 1 2 3 4 5 6 
#
# 1 69.9765 6.2103 -5.2437 0.0000 0.0000 0.0000
# 2 6.2103 136.0086 52.7182 0.0000 0.0000 0.0000
# 3 -5.2437 52.7182 65.0829 0.0000 0.0000 0.0000
# 4 0.0000 0.0000 0.0000 -18.3539 0.0000 0.0000
# 5 0.0000 0.0000 0.0000 0.0000 53.8626 0.0000
# 6 0.0000 0.0000 0.0000 0.0000 0.0000 27.4803
#
#
#
# Elastic Compliance Matrix: (Units=1/GPa)
#
#
# Indices 1 2 3 4 5 6 
#
# 1 0.014624 -0.001639 0.002506 0.000000 0.000000 0.000000
# 2 -0.001639 0.010901 -0.008962 0.000000 0.000000 0.000000
# 3 0.002506 -0.008962 0.022826 0.000000 0.000000 0.000000
# 4 0.000000 0.000000 0.000000 -0.054484 0.000000 0.000000
# 5 0.000000 0.000000 0.000000 0.000000 0.018566 0.000000
# 6 0.000000 0.000000 0.000000 0.000000 0.000000 0.036390
#
#
# Mechanical properties :
#
#
# Convention : Reuss Voigt Hill
#
# Bulk Modulus (GPa) = 31.09391 42.04863 36.57127
# Shear Modulus (GPa) = 66.02117 27.09001 46.55559
#
# Velocity S-wave (km/s) = 5.97208 3.82551 5.01499
# Velocity P-wave (km/s) = 8.02196 6.49831 7.30000
#
# Compressibility (1/GPa) = 0.03216064
#
# Stress axis : x y z
#
# Youngs Moduli (GPa) = 68.38196 91.73361 43.80893
#
# Poissons Ratio (x) = 0.15035 -0.10978
# Poissons Ratio (y) = 0.11208 0.39262
# Poissons Ratio (z) = -0.17136 0.82213
#
# Static dielectric constant tensor:
#      x y z
#    x 1.622570 0.000000 0.000000 
#    y 0.000000 1.667600 0.000000 
#    z 0.000000 0.000000 1.614600 
# 
# From -- ./inp_files/67398.got.cif
#   From: 2010.05.17/outbox.cif.g08.bks.cpg/sg66_34_cif.got.tgz:67398.got - 2010.06.03 17:51:23.
