data_PCOD9496621
_publ_section_title
;
Structure prediction by ZEFSAII (Michael W. Deem and Ramdas Pophale) SiO2 
 PCOD9496621
Probable space group: C C C M
;
_chemical_formula_sum "Si O2"
_cell_formula_units_Z 52
_cell_length_a 21.170224
_cell_length_b 9.861050
_cell_length_c 14.447881
_cell_angle_alpha 90.000000
_cell_angle_beta 90.000000
_cell_angle_gamma 90.000000
_cell_volume 3016.148846
_symmetry_space_group_name_H-M "C C C M"
_symmetry_group_IT_number 66
_symmetry_cell_setting 'orthorhombic'
loop_
_space_group_symop_operation_xyz
x,y,z
-x,-y,z
x,-y,1/2-z
-x,y,1/2-z
-x,-y,-z
x,y,-z
-x,y,1/2+z
x,-y,1/2+z
1/2+x,1/2+y,z
1/2-x,1/2-y,z
1/2+x,1/2-y,1/2-z
1/2-x,1/2+y,1/2-z
1/2-x,1/2-y,-z
1/2+x,1/2+y,-z
1/2-x,1/2+y,1/2+z
1/2+x,1/2-y,1/2+z
loop_
_atom_site_type_symbol
_atom_site_label
_atom_site_fract_x
_atom_site_fract_y
_atom_site_fract_z
Si Si1 0.794068 0.879892 0.000000
Si Si2 0.500000 0.000000 0.250000
Si Si3 0.121687 0.372735 0.689014
Si Si4 0.689222 0.647417 0.795088
Si Si5 0.800713 0.370160 0.000000
O O1 0.750000 0.750000 0.000000
O O2 0.829350 0.877098 0.097871
O O3 0.744307 0.000818 0.000000
O O4 0.452631 0.091234 0.311195
O O5 0.147908 0.500000 0.750000
O O6 0.136571 0.232734 0.740673
O O7 0.155855 0.369344 0.590794
O O8 0.701324 0.500000 0.750000
O O9 0.750000 0.750000 0.790976
O O10 0.750000 0.250000 0.000000
#
# Coordination Sequence:
#
# PCOD9496621 Si02
#       5
#     8   4  16  16   8
#     4  10  20  30  48  87 113 151 179 224 315 355
#     4   8  24  42  62  76 114 172 210 236 292 328
#     4  10  21  40  57  83 116 160 208 242 289 352
#     4  11  20  33  55  84 122 151 186 248 307 362
#     4  12  22  33  60  92 122 149 192 252 311 361
#
# _framework density 17.240528000000001
#
# number of rings (size 3 to 8) (size 9 to 14) (size 15 to 20)
#    0.923    0.615    0.000    9.231    0.000    0.615 
#    0.000    0.769    0.000    0.000    0.000    6.462 
#    0.000    0.000    0.000    0.000    0.000    0.000 
#
# Total GULP energy -144804.253827 kJ/mol
# GULP energy per Si atom -5569.394378 kJ/mol
# Density = 1.720129 g / cm^3
# Si number density = 17.240528 Si / 1000 Ang^3
#
#
#
# Elastic Constant Matrix: (Units=GPa)
#
#
# Indices 1 2 3 4 5 6 
#
# 1 104.9302 47.2695 50.6188 0.0000 0.0000 0.0000
# 2 47.2695 145.8640 58.3886 0.0000 0.0000 0.0000
# 3 50.6188 58.3886 172.1725 0.0000 0.0000 0.0000
# 4 0.0000 0.0000 0.0000 31.4307 0.0000 0.0000
# 5 0.0000 0.0000 0.0000 0.0000 38.7790 0.0000
# 6 0.0000 0.0000 0.0000 0.0000 0.0000 30.4005
#
#
#
# Elastic Compliance Matrix: (Units=1/GPa)
#
#
# Indices 1 2 3 4 5 6 
#
# 1 0.012069 -0.002882 -0.002571 0.000000 0.000000 0.000000
# 2 -0.002882 0.008621 -0.002076 0.000000 0.000000 0.000000
# 3 -0.002571 -0.002076 0.007268 0.000000 0.000000 0.000000
# 4 0.000000 0.000000 0.000000 0.031816 0.000000 0.000000
# 5 0.000000 0.000000 0.000000 0.000000 0.025787 0.000000
# 6 0.000000 0.000000 0.000000 0.000000 0.000000 0.032894
#
#
# Mechanical properties :
#
#
# Convention : Reuss Voigt Hill
#
# Bulk Modulus (GPa) = 77.52304 81.72450 79.62377
# Shear Modulus (GPa) = 36.28116 37.90137 37.09127
#
# Velocity S-wave (km/s) = 4.59236 4.69378 4.64335
# Velocity P-wave (km/s) = 8.55470 8.76818 8.66210
#
# Compressibility (1/GPa) = 0.01289939
#
# Stress axis : x y z
#
# Youngs Moduli (GPa) = 82.85977 115.99924 137.58808
#
# Poissons Ratio (x) = 0.33430 0.35372
# Poissons Ratio (y) = 0.23880 0.28567
# Poissons Ratio (z) = 0.21302 0.24084
#
# Static dielectric constant tensor:
#      x y z
#    x 1.578550 0.000000 0.000000 
#    y 0.000000 1.574980 0.000000 
#    z 0.000000 0.000000 1.616430 
# 
# From -- ./inp_files/23801.got.cif
#   From: 2010.05.17/outbox.cif.g08.bks.cpg/sg66_12_cif.got.tgz:23801.got - 2010.06.03 17:51:23.
