data_PCOD9496892
_publ_section_title
;
Structure prediction by ZEFSAII (Michael W. Deem and Ramdas Pophale) SiO2 
 PCOD9496892
Probable space group: C C C M
;
_chemical_formula_sum "Si O2"
_cell_formula_units_Z 128
_cell_length_a 13.770050
_cell_length_b 23.981986
_cell_length_c 24.137942
_cell_angle_alpha 90.000000
_cell_angle_beta 90.000000
_cell_angle_gamma 90.000000
_cell_volume 7971.148532
_symmetry_space_group_name_H-M "C C C M"
_symmetry_group_IT_number 66
_symmetry_cell_setting 'orthorhombic'
loop_
_space_group_symop_operation_xyz
x,y,z
-x,-y,z
x,-y,1/2-z
-x,y,1/2-z
-x,-y,-z
x,y,-z
-x,y,1/2+z
x,-y,1/2+z
1/2+x,1/2+y,z
1/2-x,1/2-y,z
1/2+x,1/2-y,1/2-z
1/2-x,1/2+y,1/2-z
1/2-x,1/2-y,-z
1/2+x,1/2+y,-z
1/2-x,1/2+y,1/2+z
1/2+x,1/2-y,1/2+z
loop_
_atom_site_type_symbol
_atom_site_label
_atom_site_fract_x
_atom_site_fract_y
_atom_site_fract_z
Si Si1 0.572900 0.135042 0.300458
Si Si2 0.859927 0.245975 0.341824
Si Si3 0.316910 0.303838 0.372506
Si Si4 0.021424 0.747128 0.063738
Si Si5 0.221454 0.437759 0.264551
Si Si6 0.845728 0.637085 0.436587
Si Si7 0.063721 0.443863 0.364144
Si Si8 0.388287 0.655007 0.243303
O O1 0.500000 0.144811 0.250000
O O2 0.618010 0.194210 0.314352
O O3 0.651286 0.089843 0.281198
O O4 0.509115 0.105873 0.347154
O O5 0.750000 0.250000 0.362859
O O6 0.867327 0.197218 0.294963
O O7 0.936410 0.242072 0.392051
O O8 0.250000 0.250000 0.363410
O O9 0.393280 0.290167 0.420548
O O10 0.242008 0.350228 0.394141
O O11 0.373097 0.313805 0.315335
O O12 0.074367 0.686708 0.070156
O O13 0.990250 0.752380 0.000000
O O14 0.252850 0.500000 0.250000
O O15 0.150408 0.443774 0.318327
O O16 0.312694 0.395906 0.263873
O O17 0.812466 0.640164 0.500000
O O18 0.890222 0.577270 0.421276
O O19 0.000000 0.500000 0.364386
O O20 0.500000 0.636984 0.250000
#
# Coordination Sequence:
#
# PCOD9496892 Si02
#       8
#    16  16  16  16  16  16  16  16
#     4  10  21  32  52  78 113 148 175 218 276 342
#     4  12  22  34  53  82 111 143 184 229 278 331
#     4  10  20  34  55  82 115 144 176 226 279 336
#     4  10  21  36  53  76 111 150 186 224 272 336
#     4  11  22  37  54  80 111 143 185 224 275 347
#     4  10  20  35  56  81 112 150 188 229 278 325
#     4  11  20  34  57  83 110 149 187 224 280 334
#     4  12  23  35  56  83 111 144 183 229 284 331
#
# _framework density 16.057911000000001
#
# number of rings (size 3 to 8) (size 9 to 14) (size 15 to 20)
#    0.000    1.250    6.250    1.125    0.000    2.250 
#    0.000    0.000    0.000    0.000    0.000    0.000 
#    0.000    2.000    0.000    0.000    0.000    0.000 
#
# Total GULP energy -356538.823562 kJ/mol
# GULP energy per Si atom -5570.919118 kJ/mol
# Density = 1.602136 g / cm^3
# Si number density = 16.057911 Si / 1000 Ang^3
#
#
#
# Elastic Constant Matrix: (Units=GPa)
#
#
# Indices 1 2 3 4 5 6 
#
# 1 85.1851 29.6449 33.4330 0.0000 0.0000 0.0000
# 2 29.6449 87.4240 28.1745 0.0000 0.0000 0.0000
# 3 33.4330 28.1745 85.8907 0.0000 0.0000 0.0000
# 4 0.0000 0.0000 0.0000 79.3072 0.0000 0.0000
# 5 0.0000 0.0000 0.0000 0.0000 20.4305 0.0000
# 6 0.0000 0.0000 0.0000 0.0000 0.0000 28.7759
#
#
#
# Elastic Compliance Matrix: (Units=1/GPa)
#
#
# Indices 1 2 3 4 5 6 
#
# 1 0.014769 -0.003528 -0.004591 0.000000 0.000000 0.000000
# 2 -0.003528 0.013634 -0.003099 0.000000 0.000000 0.000000
# 3 -0.004591 -0.003099 0.014446 0.000000 0.000000 0.000000
# 4 0.000000 0.000000 0.000000 0.012609 0.000000 0.000000
# 5 0.000000 0.000000 0.000000 0.000000 0.048946 0.000000
# 6 0.000000 0.000000 0.000000 0.000000 0.000000 0.034751
#
#
# Mechanical properties :
#
#
# Convention : Reuss Voigt Hill
#
# Bulk Modulus (GPa) = 48.99111 49.00050 48.99581
# Shear Modulus (GPa) = 29.69169 36.85254 33.27211
#
# Velocity S-wave (km/s) = 4.30471 4.79579 4.55687
# Velocity P-wave (km/s) = 7.43523 7.82606 7.63315
#
# Compressibility (1/GPa) = 0.02041187
#
# Stress axis : x y z
#
# Youngs Moduli (GPa) = 67.70905 73.34815 69.22131
#
# Poissons Ratio (x) = 0.25880 0.31783
# Poissons Ratio (y) = 0.23890 0.21450
# Poissons Ratio (z) = 0.31088 0.22729
#
# Static dielectric constant tensor:
#      x y z
#    x 1.550880 0.000000 0.000000 
#    y 0.000000 1.539010 0.000000 
#    z 0.000000 0.000000 1.544670 
# 
# From -- ./inp_files/57356.got.cif
#   From: 2010.05.17/outbox.cif.g08.bks.cpg/sg66_29_cif.got.tgz:57356.got - 2010.06.03 17:51:23.
