data_PCOD9496748
_publ_section_title
;
Structure prediction by ZEFSAII (Michael W. Deem and Ramdas Pophale) SiO2 
 PCOD9496748
Probable space group: C C C M
;
_chemical_formula_sum "Si O2"
_cell_formula_units_Z 112
_cell_length_a 14.421052
_cell_length_b 32.522748
_cell_length_c 13.849482
_cell_angle_alpha 90.000000
_cell_angle_beta 90.000000
_cell_angle_gamma 90.000000
_cell_volume 6495.576577
_symmetry_space_group_name_H-M "C C C M"
_symmetry_group_IT_number 66
_symmetry_cell_setting 'orthorhombic'
loop_
_space_group_symop_operation_xyz
x,y,z
-x,-y,z
x,-y,1/2-z
-x,y,1/2-z
-x,-y,-z
x,y,-z
-x,y,1/2+z
x,-y,1/2+z
1/2+x,1/2+y,z
1/2-x,1/2-y,z
1/2+x,1/2-y,1/2-z
1/2-x,1/2+y,1/2-z
1/2-x,1/2-y,-z
1/2+x,1/2+y,-z
1/2-x,1/2+y,1/2+z
1/2+x,1/2-y,1/2+z
loop_
_atom_site_type_symbol
_atom_site_label
_atom_site_fract_x
_atom_site_fract_y
_atom_site_fract_z
Si Si1 0.077535 0.663567 0.383687
Si Si2 0.242118 0.890450 0.384356
Si Si3 0.169950 0.782324 0.886960
Si Si4 0.894935 0.834499 0.223496
Si Si5 0.466357 0.084564 0.614747
Si Si6 0.957110 0.245601 0.386515
Si Si7 0.142284 0.547281 0.278826
O O1 0.075610 0.667142 0.500000
O O2 0.173089 0.640809 0.359957
O O3 0.068135 0.709605 0.345933
O O4 0.995836 0.631408 0.361431
O O5 0.237721 0.894627 0.500000
O O6 0.152486 0.869231 0.339999
O O7 0.271076 0.932948 0.333891
O O8 0.250000 0.750000 0.859449
O O9 0.163804 0.821933 0.818133
O O10 0.067637 0.761867 0.878067
O O11 0.183799 0.792820 0.000000
O O12 0.904894 0.791667 0.164853
O O13 0.000000 0.846107 0.250000
O O14 0.454823 0.080246 0.500000
O O15 0.553168 0.056626 0.651799
O O16 0.380489 0.071425 0.679857
O O17 0.934125 0.244015 0.500000
O O18 0.149835 0.500000 0.250000
#
# Coordination Sequence:
#
# PCOD9496748 Si02
#       7
#    16  16  16  16  16  16  16
#     4   8  16  29  46  73 107 140 178 215 256 306
#     4  10  21  37  56  78 106 138 171 224 284 330
#     4   9  19  33  46  65  99 140 180 221 266 313
#     4  10  21  35  52  77  98 133 184 225 271 328
#     4   9  17  31  50  77 114 154 184 215 260 315
#     4   9  17  31  49  72 102 137 178 224 261 305
#     4  10  20  33  51  80 109 143 185 220 265 331
#
# _framework density 17.242502999999999
#
# number of rings (size 3 to 8) (size 9 to 14) (size 15 to 20)
#    0.000    2.714    0.000    2.571    2.000    3.429 
#   12.857    4.286    0.000    0.429    0.000    1.000 
#    0.000    0.000    0.000    0.000    0.000    0.000 
#
# Total GULP energy -312266.913663 kJ/mol
# GULP energy per Si atom -5576.194887 kJ/mol
# Density = 1.720326 g / cm^3
# Si number density = 17.242503 Si / 1000 Ang^3
#
#
#
# Elastic Constant Matrix: (Units=GPa)
#
#
# Indices 1 2 3 4 5 6 
#
# 1 33.4829 26.2544 26.7940 0.0000 0.0000 0.0000
# 2 26.2544 84.4391 28.6382 0.0000 0.0000 0.0000
# 3 26.7940 28.6382 102.5038 0.0000 0.0000 0.0000
# 4 0.0000 0.0000 0.0000 23.2043 0.0000 0.0000
# 5 0.0000 0.0000 0.0000 0.0000 20.5135 0.0000
# 6 0.0000 0.0000 0.0000 0.0000 0.0000 11.9582
#
#
#
# Elastic Compliance Matrix: (Units=1/GPa)
#
#
# Indices 1 2 3 4 5 6 
#
# 1 0.045723 -0.011227 -0.008815 0.000000 0.000000 0.000000
# 2 -0.011227 0.015839 -0.001491 0.000000 0.000000 0.000000
# 3 -0.008815 -0.001491 0.012476 0.000000 0.000000 0.000000
# 4 0.000000 0.000000 0.000000 0.043095 0.000000 0.000000
# 5 0.000000 0.000000 0.000000 0.000000 0.048748 0.000000
# 6 0.000000 0.000000 0.000000 0.000000 0.000000 0.083625
#
#
# Mechanical properties :
#
#
# Convention : Reuss Voigt Hill
#
# Bulk Modulus (GPa) = 32.28558 42.64432 37.46495
# Shear Modulus (GPa) = 16.50724 20.38448 18.44586
#
# Velocity S-wave (km/s) = 3.09748 3.44208 3.27431
# Velocity P-wave (km/s) = 5.61761 6.37048 6.00585
#
# Compressibility (1/GPa) = 0.03097358
#
# Stress axis : x y z
#
# Youngs Moduli (GPa) = 21.87063 63.13467 80.15100
#
# Poissons Ratio (x) = 0.70881 0.70655
# Poissons Ratio (y) = 0.24554 0.11947
# Poissons Ratio (z) = 0.19279 0.09411
#
# Static dielectric constant tensor:
#      x y z
#    x 1.586330 0.000000 0.000000 
#    y 0.000000 1.585690 0.000000 
#    z 0.000000 0.000000 1.629250 
# 
# From -- ./inp_files/26993.got.cif
#   From: 2010.05.17/outbox.cif.g08.bks.cpg/sg66_14_cif.got.tgz:26993.got - 2010.06.03 17:51:23.
