data_PCOD9496237
_publ_section_title
;
Structure prediction by ZEFSAII (Michael W. Deem and Ramdas Pophale) SiO2 
 PCOD9496237
Probable space group: C C C M
;
_chemical_formula_sum "Si O2"
_cell_formula_units_Z 80
_cell_length_a 8.772665
_cell_length_b 29.010894
_cell_length_c 17.006753
_cell_angle_alpha 90.000000
_cell_angle_beta 90.000000
_cell_angle_gamma 90.000000
_cell_volume 4328.267183
_symmetry_space_group_name_H-M "C C C M"
_symmetry_group_IT_number 66
_symmetry_cell_setting 'orthorhombic'
loop_
_space_group_symop_operation_xyz
x,y,z
-x,-y,z
x,-y,1/2-z
-x,y,1/2-z
-x,-y,-z
x,y,-z
-x,y,1/2+z
x,-y,1/2+z
1/2+x,1/2+y,z
1/2-x,1/2-y,z
1/2+x,1/2-y,1/2-z
1/2-x,1/2+y,1/2-z
1/2-x,1/2-y,-z
1/2+x,1/2+y,-z
1/2-x,1/2+y,1/2+z
1/2+x,1/2-y,1/2+z
loop_
_atom_site_type_symbol
_atom_site_label
_atom_site_fract_x
_atom_site_fract_y
_atom_site_fract_z
Si Si1 0.396700 0.130788 0.673355
Si Si2 0.183560 0.051169 0.342672
Si Si3 0.821100 0.199435 0.734410
Si Si4 0.330960 0.553733 0.651816
Si Si5 0.807395 0.646719 0.090532
O O1 0.500000 0.117131 0.750000
O O2 0.310748 0.087800 0.634323
O O3 0.269746 0.165648 0.706417
O O4 0.516456 0.153505 0.614397
O O5 0.181524 0.055143 0.246979
O O6 0.009728 0.061184 0.367914
O O7 0.215090 0.998666 0.367880
O O8 0.750000 0.250000 0.740570
O O9 0.790019 0.178583 0.648332
O O10 0.000000 0.199810 0.750000
O O11 0.234605 0.593825 0.612270
O O12 0.779145 0.655649 0.000000
#
# Coordination Sequence:
#
# PCOD9496237 Si02
#       5
#    16  16  16  16  16
#     4  10  19  34  55  82 114 151 193 238 279 338
#     4   9  16  31  55  81 107 148 205 245 276 330
#     4  11  22  41  68  91 111 144 197 244 284 340
#     4   9  17  31  54  81 111 150 196 244 284 333
#     4  11  23  38  55  86 128 157 186 235 299 349
#
# _framework density 18.483148
#
# number of rings (size 3 to 8) (size 9 to 14) (size 15 to 20)
#    0.000    2.000    4.000    4.200    0.000    1.200 
#    0.000    8.000    0.000    2.400    0.000    0.000 
#    0.000    0.000    0.000    0.000    0.000    0.000 
#
# Total GULP energy -223184.878078 kJ/mol
# GULP energy per Si atom -5579.621952 kJ/mol
# Density = 1.844108 g / cm^3
# Si number density = 18.483148 Si / 1000 Ang^3
#
#
#
# Elastic Constant Matrix: (Units=GPa)
#
#
# Indices 1 2 3 4 5 6 
#
# 1 141.2938 72.3318 44.6458 0.0000 0.0000 0.0000
# 2 72.3318 96.2417 27.8379 0.0000 0.0000 0.0000
# 3 44.6458 27.8379 54.2198 0.0000 0.0000 0.0000
# 4 0.0000 0.0000 0.0000 5.9070 0.0000 0.0000
# 5 0.0000 0.0000 0.0000 0.0000 4.9247 0.0000
# 6 0.0000 0.0000 0.0000 0.0000 0.0000 37.2750
#
#
#
# Elastic Compliance Matrix: (Units=1/GPa)
#
#
# Indices 1 2 3 4 5 6 
#
# 1 0.013380 -0.008067 -0.006875 0.000000 0.000000 0.000000
# 2 -0.008067 0.017066 -0.002120 0.000000 0.000000 0.000000
# 3 -0.006875 -0.002120 0.025193 0.000000 0.000000 0.000000
# 4 0.000000 0.000000 0.000000 0.169291 0.000000 0.000000
# 5 0.000000 0.000000 0.000000 0.000000 0.203059 0.000000
# 6 0.000000 0.000000 0.000000 0.000000 0.000000 0.026828
#
#
# Mechanical properties :
#
#
# Convention : Reuss Voigt Hill
#
# Bulk Modulus (GPa) = 46.47925 64.59848 55.53887
# Shear Modulus (GPa) = 10.07836 19.41731 14.74783
#
# Velocity S-wave (km/s) = 2.33764 3.24472 2.82779
# Velocity P-wave (km/s) = 5.69978 7.00453 6.38557
#
# Compressibility (1/GPa) = 0.02151498
#
# Stress axis : x y z
#
# Youngs Moduli (GPa) = 74.74106 58.59439 39.69340
#
# Poissons Ratio (x) = 0.47268 0.27290
# Poissons Ratio (y) = 0.60293 0.08415
# Poissons Ratio (z) = 0.51386 0.12422
#
# Static dielectric constant tensor:
#      x y z
#    x 1.644450 0.000000 0.000000 
#    y 0.000000 1.651770 0.000000 
#    z 0.000000 0.000000 1.634460 
# 
# From -- ./inp_files/36961.got.cif
#   From: 2010.05.17/outbox.cif.g08.bks.cpg/sg66_19_cif.got.tgz:36961.got - 2010.06.03 17:51:23.
