data_PCOD9496516
_publ_section_title
;
Structure prediction by ZEFSAII (Michael W. Deem and Ramdas Pophale) SiO2 
 PCOD9496516
Probable space group: C C C M
;
_chemical_formula_sum "Si O2"
_cell_formula_units_Z 64
_cell_length_a 12.099365
_cell_length_b 12.813908
_cell_length_c 18.493838
_cell_angle_alpha 90.000000
_cell_angle_beta 90.000000
_cell_angle_gamma 90.000000
_cell_volume 2867.287417
_symmetry_space_group_name_H-M "C C C M"
_symmetry_group_IT_number 66
_symmetry_cell_setting 'orthorhombic'
loop_
_space_group_symop_operation_xyz
x,y,z
-x,-y,z
x,-y,1/2-z
-x,y,1/2-z
-x,-y,-z
x,y,-z
-x,y,1/2+z
x,-y,1/2+z
1/2+x,1/2+y,z
1/2-x,1/2-y,z
1/2+x,1/2-y,1/2-z
1/2-x,1/2+y,1/2-z
1/2-x,1/2-y,-z
1/2+x,1/2+y,-z
1/2-x,1/2+y,1/2+z
1/2+x,1/2-y,1/2+z
loop_
_atom_site_type_symbol
_atom_site_label
_atom_site_fract_x
_atom_site_fract_y
_atom_site_fract_z
Si Si1 0.170318 0.111630 0.315028
Si Si2 0.892161 0.326042 0.415463
Si Si3 0.841087 0.894939 0.855135
Si Si4 0.081021 0.661218 0.820283
O O1 0.135702 0.112058 0.230596
O O2 0.125353 0.222836 0.338878
O O3 0.303683 0.102242 0.310575
O O4 0.131903 0.016695 0.365812
O O5 0.874428 0.339607 0.500000
O O6 0.896646 0.201848 0.396091
O O7 0.787583 0.372151 0.372440
O O8 0.004422 0.374677 0.385713
O O9 0.000000 0.660229 0.750000
#
# Coordination Sequence:
#
# PCOD9496516 Si02
#       4
#    16  16  16  16
#     4  10  21  35  61  90 115 146 202 253 294 330
#     4  11  22  39  61  86 122 165 195 236 301 359
#     4  10  19  37  58  90 115 150 200 249 291 345
#     4  11  19  39  59  86 121 152 198 249 290 351
#
# _framework density 22.320747999999998
#
# number of rings (size 3 to 8) (size 9 to 14) (size 15 to 20)
#    0.000    1.500    5.000    3.000    0.000    2.000 
#    0.000   10.000    0.000    0.000    0.000    0.000 
#    0.000    0.000    0.000    0.000    0.000    0.000 
#
# Total GULP energy -178532.941776 kJ/mol
# GULP energy per Si atom -5579.154430 kJ/mol
# Density = 2.226994 g / cm^3
# Si number density = 22.320748 Si / 1000 Ang^3
#
#
#
# Elastic Constant Matrix: (Units=GPa)
#
#
# Indices 1 2 3 4 5 6 
#
# 1 110.5105 -7.7917 14.5869 0.0000 0.0000 0.0000
# 2 -7.7917 104.6875 24.1613 0.0000 0.0000 0.0000
# 3 14.5869 24.1613 63.6459 0.0000 0.0000 0.0000
# 4 0.0000 0.0000 0.0000 35.7650 0.0000 0.0000
# 5 0.0000 0.0000 0.0000 0.0000 -5.4823 0.0000
# 6 0.0000 0.0000 0.0000 0.0000 0.0000 -7.9467
#
#
#
# Elastic Compliance Matrix: (Units=1/GPa)
#
#
# Indices 1 2 3 4 5 6 
#
# 1 0.009496 0.001325 -0.002679 0.000000 0.000000 0.000000
# 2 0.001325 0.010654 -0.004348 0.000000 0.000000 0.000000
# 3 -0.002679 -0.004348 0.017977 0.000000 0.000000 0.000000
# 4 0.000000 0.000000 0.000000 0.027960 0.000000 0.000000
# 5 0.000000 0.000000 0.000000 0.000000 -0.182405 0.000000
# 6 0.000000 0.000000 0.000000 0.000000 0.000000 -0.125838
#
#
# Mechanical properties :
#
#
# Convention : Reuss Voigt Hill
#
# Bulk Modulus (GPa) = 37.42239 37.86187 37.64213
# Shear Modulus (GPa) = -22.53850 20.99302 -0.77274
#
# Velocity S-wave (km/s) = -3.18111 3.07011 -0.58902
# Velocity P-wave (km/s) = 1.81920 5.43755 4.05441
#
# Compressibility (1/GPa) = 0.02672197
#
# Stress axis : x y z
#
# Youngs Moduli (GPa) = 105.30728 93.85748 55.62741
#
# Poissons Ratio (x) = -0.12438 0.14905
# Poissons Ratio (y) = -0.13955 0.24189
# Poissons Ratio (z) = 0.28216 0.40813
#
# Static dielectric constant tensor:
#      x y z
#    x 1.911340 0.000000 0.000000 
#    y 0.000000 2.022840 0.000000 
#    z 0.000000 0.000000 1.761540 
# 
# From -- ./inp_files/38019.got.cif
#   From: 2010.05.17/outbox.cif.g08.bks.cpg/sg66_20_cif.got.tgz:38019.got - 2010.06.03 17:51:23.
