data_PCOD9496912
_publ_section_title
;
Structure prediction by ZEFSAII (Michael W. Deem and Ramdas Pophale) SiO2 
 PCOD9496912
Probable space group: C C C M
;
_chemical_formula_sum "Si O2"
_cell_formula_units_Z 96
_cell_length_a 22.517872
_cell_length_b 11.250233
_cell_length_c 18.269489
_cell_angle_alpha 90.000000
_cell_angle_beta 90.000000
_cell_angle_gamma 90.000000
_cell_volume 4628.233520
_symmetry_space_group_name_H-M "C C C M"
_symmetry_group_IT_number 66
_symmetry_cell_setting 'orthorhombic'
loop_
_space_group_symop_operation_xyz
x,y,z
-x,-y,z
x,-y,1/2-z
-x,y,1/2-z
-x,-y,-z
x,y,-z
-x,y,1/2+z
x,-y,1/2+z
1/2+x,1/2+y,z
1/2-x,1/2-y,z
1/2+x,1/2-y,1/2-z
1/2-x,1/2+y,1/2-z
1/2-x,1/2-y,-z
1/2+x,1/2+y,-z
1/2-x,1/2+y,1/2+z
1/2+x,1/2-y,1/2+z
loop_
_atom_site_type_symbol
_atom_site_label
_atom_site_fract_x
_atom_site_fract_y
_atom_site_fract_z
Si Si1 0.718614 0.622754 0.232861
Si Si2 0.762621 0.890862 0.922559
Si Si3 0.910713 0.871752 0.723180
Si Si4 0.560188 0.768719 0.415479
Si Si5 0.543014 0.847404 0.817473
Si Si6 0.630800 0.004458 0.585099
O O1 0.753535 0.500000 0.250000
O O2 0.750000 0.750000 0.237626
O O3 0.698336 0.601232 0.149182
O O4 0.660371 0.628623 0.280955
O O5 0.750000 0.750000 0.927536
O O6 0.700081 0.959052 0.910664
O O7 0.788530 0.930840 0.000000
O O8 0.932981 0.835166 0.643441
O O9 0.929824 0.772812 0.782794
O O10 0.930624 0.000000 0.750000
O O11 0.556839 0.733952 0.500000
O O12 0.500218 0.831789 0.387039
O O13 0.613203 0.865924 0.407014
O O14 0.500000 0.885006 0.750000
O O15 0.595362 0.928681 0.850042
O O16 0.613170 0.036374 0.500000
#
# Coordination Sequence:
#
# PCOD9496912 Si02
#       6
#    16  16  16  16  16  16
#     4  10  21  37  59  87 116 151 196 248 304 361
#     4   9  18  34  56  83 115 151 192 239 297 358
#     4  10  23  42  58  82 121 156 202 257 305 351
#     4  10  22  38  59  85 120 160 199 244 304 367
#     4  10  20  34  56  85 118 160 205 249 301 357
#     4  10  20  35  57  88 126 157 193 253 308 359
#
# _framework density 20.742256000000001
#
# number of rings (size 3 to 8) (size 9 to 14) (size 15 to 20)
#    0.000    2.167    0.000    3.000    2.333    9.000 
#    0.000    6.667    0.000    1.000    0.000    0.000 
#    0.000    0.000    0.000    0.000    0.000    0.000 
#
# Total GULP energy -267371.877323 kJ/mol
# GULP energy per Si atom -5570.247444 kJ/mol
# Density = 2.069505 g / cm^3
# Si number density = 20.742256 Si / 1000 Ang^3
#
#
#
# Elastic Constant Matrix: (Units=GPa)
#
#
# Indices 1 2 3 4 5 6 
#
# 1 36.1360 13.7153 -3.8977 0.0000 0.0000 0.0000
# 2 13.7153 122.8269 32.5668 0.0000 0.0000 0.0000
# 3 -3.8977 32.5668 110.4360 0.0000 0.0000 0.0000
# 4 0.0000 0.0000 0.0000 33.3110 0.0000 0.0000
# 5 0.0000 0.0000 0.0000 0.0000 29.3910 0.0000
# 6 0.0000 0.0000 0.0000 0.0000 0.0000 -458.3330
#
#
#
# Elastic Compliance Matrix: (Units=1/GPa)
#
#
# Indices 1 2 3 4 5 6 
#
# 1 0.029371 -0.003856 0.002174 0.000000 0.000000 0.000000
# 2 -0.003856 0.009338 -0.002890 0.000000 0.000000 0.000000
# 3 0.002174 -0.002890 0.009984 0.000000 0.000000 0.000000
# 4 0.000000 0.000000 0.000000 0.030020 0.000000 0.000000
# 5 0.000000 0.000000 0.000000 0.000000 0.034024 0.000000
# 6 0.000000 0.000000 0.000000 0.000000 0.000000 -0.002182
#
#
# Mechanical properties :
#
#
# Convention : Reuss Voigt Hill
#
# Bulk Modulus (GPa) = 25.28502 39.35199 32.31850
# Shear Modulus (GPa) = 37.62698 -63.99190 -13.18246
#
# Velocity S-wave (km/s) = 4.26376 -5.56039 -2.52372
# Velocity P-wave (km/s) = 6.03789 4.71284 2.66882
#
# Compressibility (1/GPa) = 0.03954911
#
# Stress axis : x y z
#
# Youngs Moduli (GPa) = 34.04687 107.08512 100.16074
#
# Poissons Ratio (x) = 0.41293 -0.21772
# Poissons Ratio (y) = 0.13129 0.28946
# Poissons Ratio (z) = -0.07401 0.30947
#
# Static dielectric constant tensor:
#      x y z
#    x 1.763460 0.000000 0.000000 
#    y 0.000000 1.799790 0.000000 
#    z 0.000000 0.000000 1.784430 
# 
# From -- ./inp_files/43583.got.cif
#   From: 2010.05.17/outbox.cif.g08.bks.cpg/sg66_22_cif.got.tgz:43583.got - 2010.06.03 17:51:23.
