data_PCOD9496057
_publ_section_title
;
Structure prediction by ZEFSAII (Michael W. Deem and Ramdas Pophale) SiO2 
 PCOD9496057
Probable space group: C C C M
;
_chemical_formula_sum "Si O2"
_cell_formula_units_Z 88
_cell_length_a 11.691338
_cell_length_b 15.226034
_cell_length_c 24.082675
_cell_angle_alpha 90.000000
_cell_angle_beta 90.000000
_cell_angle_gamma 90.000000
_cell_volume 4287.022238
_symmetry_space_group_name_H-M "C C C M"
_symmetry_group_IT_number 66
_symmetry_cell_setting 'orthorhombic'
loop_
_space_group_symop_operation_xyz
x,y,z
-x,-y,z
x,-y,1/2-z
-x,y,1/2-z
-x,-y,-z
x,y,-z
-x,y,1/2+z
x,-y,1/2+z
1/2+x,1/2+y,z
1/2-x,1/2-y,z
1/2+x,1/2-y,1/2-z
1/2-x,1/2+y,1/2-z
1/2-x,1/2-y,-z
1/2+x,1/2+y,-z
1/2-x,1/2+y,1/2+z
1/2+x,1/2-y,1/2+z
loop_
_atom_site_type_symbol
_atom_site_label
_atom_site_fract_x
_atom_site_fract_y
_atom_site_fract_z
Si Si1 0.088075 0.081444 0.666374
Si Si2 0.211688 0.156305 0.562958
Si Si3 0.954345 0.406256 0.907781
Si Si4 0.330680 0.990680 0.189491
Si Si5 0.000000 0.229572 0.250000
Si Si6 0.143208 0.685109 0.347516
O O1 0.122656 0.110015 0.603830
O O2 0.049477 0.164053 0.702916
O O3 0.206501 0.050992 0.692807
O O4 0.000000 0.000000 0.667504
O O5 0.168292 0.166830 0.500000
O O6 0.250000 0.250000 0.587439
O O7 0.335911 0.111037 0.561387
O O8 0.911780 0.428093 0.845590
O O9 0.000000 0.500000 0.929210
O O10 0.047269 0.328898 0.896805
O O11 0.316122 0.084860 0.160408
O O12 0.377452 0.000000 0.250000
O O13 0.911648 0.284933 0.288185
O O14 0.250000 0.750000 0.360060
#
# Coordination Sequence:
#
# PCOD9496057 Si02
#       6
#    16  16  16  16   8  16
#     4  11  22  37  56  81 116 152 189 235 288 345
#     4  10  22  40  61  83 108 145 195 244 290 344
#     4   9  20  36  55  79 110 147 185 233 286 340
#     4  10  19  33  50  74 110 149 184 218 270 340
#     4  12  23  34  53  84 120 156 186 226 285 342
#     4  11  21  32  51  79 110 145 187 228 274 338
#
# _framework density 20.527069000000001
#
# number of rings (size 3 to 8) (size 9 to 14) (size 15 to 20)
#    0.000    1.636    0.000    5.727    0.000    6.909 
#    0.000    0.000    0.000    0.545    0.000    0.000 
#    0.000    0.000    0.000    0.000    0.000    0.000 
#
# Total GULP energy -245311.049590 kJ/mol
# GULP energy per Si atom -5575.251127 kJ/mol
# Density = 2.048035 g / cm^3
# Si number density = 20.527069 Si / 1000 Ang^3
#
#
#
# Elastic Constant Matrix: (Units=GPa)
#
#
# Indices 1 2 3 4 5 6 
#
# 1 83.7285 29.5185 5.6886 0.0000 0.0000 0.0000
# 2 29.5185 69.1234 -0.0693 0.0000 0.0000 0.0000
# 3 5.6886 -0.0693 72.6946 0.0000 0.0000 0.0000
# 4 0.0000 0.0000 0.0000 23.9260 0.0000 0.0000
# 5 0.0000 0.0000 0.0000 0.0000 -152.2664 0.0000
# 6 0.0000 0.0000 0.0000 0.0000 0.0000 26.8638
#
#
#
# Elastic Compliance Matrix: (Units=1/GPa)
#
#
# Indices 1 2 3 4 5 6 
#
# 1 0.014150 -0.006044 -0.001113 0.000000 0.000000 0.000000
# 2 -0.006044 0.017048 0.000489 0.000000 0.000000 0.000000
# 3 -0.001113 0.000489 0.013844 0.000000 0.000000 0.000000
# 4 0.000000 0.000000 0.000000 0.041796 0.000000 0.000000
# 5 0.000000 0.000000 0.000000 0.000000 -0.006567 0.000000
# 6 0.000000 0.000000 0.000000 0.000000 0.000000 0.037225
#
#
# Mechanical properties :
#
#
# Convention : Reuss Voigt Hill
#
# Bulk Modulus (GPa) = 31.53898 32.86910 32.20404
# Shear Modulus (GPa) = 35.36109 -7.60141 13.87984
#
# Velocity S-wave (km/s) = 4.15499 -1.92644 2.60315
# Velocity P-wave (km/s) = 6.19811 3.33153 4.97572
#
# Compressibility (1/GPa) = 0.03170680
#
# Stress axis : x y z
#
# Youngs Moduli (GPa) = 70.67311 58.65708 72.23477
#
# Poissons Ratio (x) = 0.35450 0.08040
# Poissons Ratio (y) = 0.42712 -0.03534
# Poissons Ratio (z) = 0.07866 -0.02869
#
# Static dielectric constant tensor:
#      x y z
#    x 1.822860 0.000000 0.000000 
#    y 0.000000 1.790300 0.000000 
#    z 0.000000 0.000000 1.733230 
# 
# From -- ./inp_files/63599.got.cif
#   From: 2010.05.17/outbox.cif.g08.bks.cpg/sg66_32_cif.got.tgz:63599.got - 2010.06.03 17:51:23.
