data_PCOD9496841
_publ_section_title
;
Structure prediction by ZEFSAII (Michael W. Deem and Ramdas Pophale) SiO2 
 PCOD9496841
Probable space group: C C C M
;
_chemical_formula_sum "Si O2"
_cell_formula_units_Z 112
_cell_length_a 25.264646
_cell_length_b 22.633333
_cell_length_c 10.205162
_cell_angle_alpha 90.000000
_cell_angle_beta 90.000000
_cell_angle_gamma 90.000000
_cell_volume 5835.547841
_symmetry_space_group_name_H-M "C C C M"
_symmetry_group_IT_number 66
_symmetry_cell_setting 'orthorhombic'
loop_
_space_group_symop_operation_xyz
x,y,z
-x,-y,z
x,-y,1/2-z
-x,y,1/2-z
-x,-y,-z
x,y,-z
-x,y,1/2+z
x,-y,1/2+z
1/2+x,1/2+y,z
1/2-x,1/2-y,z
1/2+x,1/2-y,1/2-z
1/2-x,1/2+y,1/2-z
1/2-x,1/2-y,-z
1/2+x,1/2+y,-z
1/2-x,1/2+y,1/2+z
1/2+x,1/2-y,1/2+z
loop_
_atom_site_type_symbol
_atom_site_label
_atom_site_fract_x
_atom_site_fract_y
_atom_site_fract_z
Si Si1 0.926503 0.951859 0.854629
Si Si2 0.200189 0.945135 0.655407
Si Si3 0.451152 0.132810 0.846723
Si Si4 0.358375 0.047769 0.854892
Si Si5 0.546373 0.682647 0.846121
Si Si6 0.135816 0.734464 0.657016
Si Si7 0.774674 0.655457 0.149799
O O1 0.863165 0.942287 0.842584
O O2 0.952287 0.887964 0.840787
O O3 0.942281 0.000000 0.750000
O O4 0.937017 0.974976 0.000000
O O5 0.215715 0.953847 0.500000
O O6 0.225313 0.882563 0.702281
O O7 0.215824 0.000000 0.750000
O O8 0.500000 0.135353 0.750000
O O9 0.416817 0.073363 0.829924
O O10 0.409457 0.185258 0.819325
O O11 0.466574 0.137238 0.000000
O O12 0.319466 0.103979 0.854279
O O13 0.342805 0.000000 0.750000
O O14 0.356673 0.021650 0.000000
O O15 0.500000 0.704704 0.750000
O O16 0.604507 0.706580 0.804462
O O17 0.538053 0.699898 0.000000
O O18 0.143779 0.737367 0.500000
O O19 0.192538 0.710913 0.709476
O O20 0.759799 0.671585 0.000000
#
# Coordination Sequence:
#
# PCOD9496841 Si02
#       7
#    16  16  16  16  16  16  16
#     4   9  19  34  51  75 104 129 156 194 237 284
#     4   9  16  28  48  72  98 129 163 196 235 285
#     4   9  17  28  41  56  76 106 143 182 227 274
#     4   9  17  27  38  55  79 107 142 183 225 270
#     4  10  20  34  53  75  98 126 162 200 239 286
#     4   8  15  29  47  67  92 119 149 191 237 276
#     4   8  14  26  45  67  91 120 152 188 233 279
#
# _framework density 19.192713999999999
#
# number of rings (size 3 to 8) (size 9 to 14) (size 15 to 20)
#    0.000    3.143    0.000    2.571    0.000    1.714 
#    0.000    3.571    0.000    6.857    0.000    0.000 
#    0.000    5.714    0.000    0.000    0.000    0.000 
#
# Total GULP energy -311758.132434 kJ/mol
# GULP energy per Si atom -5567.109508 kJ/mol
# Density = 1.914903 g / cm^3
# Si number density = 19.192714 Si / 1000 Ang^3
#
#
#
# Elastic Constant Matrix: (Units=GPa)
#
#
# Indices 1 2 3 4 5 6 
#
# 1 87.5784 14.8563 31.6522 0.0000 0.0000 0.0000
# 2 14.8563 43.4591 28.7903 0.0000 0.0000 0.0000
# 3 31.6522 28.7903 53.3802 0.0000 0.0000 0.0000
# 4 0.0000 0.0000 0.0000 11.8145 0.0000 0.0000
# 5 0.0000 0.0000 0.0000 0.0000 24.4413 0.0000
# 6 0.0000 0.0000 0.0000 0.0000 0.0000 14.4269
#
#
#
# Elastic Compliance Matrix: (Units=1/GPa)
#
#
# Indices 1 2 3 4 5 6 
#
# 1 0.014570 0.001155 -0.009263 0.000000 0.000000 0.000000
# 2 0.001155 0.035894 -0.020044 0.000000 0.000000 0.000000
# 3 -0.009263 -0.020044 0.035037 0.000000 0.000000 0.000000
# 4 0.000000 0.000000 0.000000 0.084641 0.000000 0.000000
# 5 0.000000 0.000000 0.000000 0.000000 0.040914 0.000000
# 6 0.000000 0.000000 0.000000 0.000000 0.000000 0.069315
#
#
# Mechanical properties :
#
#
# Convention : Reuss Voigt Hill
#
# Bulk Modulus (GPa) = 34.24931 37.22393 35.73662
# Shear Modulus (GPa) = 14.43392 17.41115 15.92253
#
# Velocity S-wave (km/s) = 2.74533 3.01520 2.88343
# Velocity P-wave (km/s) = 5.28515 5.61773 5.45397
#
# Compressibility (1/GPa) = 0.02919767
#
# Stress axis : x y z
#
# Youngs Moduli (GPa) = 68.63431 27.85999 28.54158
#
# Poissons Ratio (x) = -0.03219 0.26437
# Poissons Ratio (y) = -0.07931 0.57209
# Poissons Ratio (z) = 0.63573 0.55843
#
# Static dielectric constant tensor:
#      x y z
#    x 1.720200 0.000000 0.000000 
#    y 0.000000 1.711760 0.000000 
#    z 0.000000 0.000000 1.645240 
# 
# From -- ./inp_files/20843.got.cif
#   From: 2010.05.17/outbox.cif.g08.bks.cpg/sg66_11_cif.got.tgz:20843.got - 2010.06.03 17:51:23.
