data_PCOD9496017
_publ_section_title
;
Structure prediction by ZEFSAII (Michael W. Deem and Ramdas Pophale) SiO2 
 PCOD9496017
Probable space group: C C C M
;
_chemical_formula_sum "Si O2"
_cell_formula_units_Z 104
_cell_length_a 28.435866
_cell_length_b 10.628706
_cell_length_c 16.878177
_cell_angle_alpha 90.000000
_cell_angle_beta 90.000000
_cell_angle_gamma 90.000000
_cell_volume 5101.200460
_symmetry_space_group_name_H-M "C C C M"
_symmetry_group_IT_number 66
_symmetry_cell_setting 'orthorhombic'
loop_
_space_group_symop_operation_xyz
x,y,z
-x,-y,z
x,-y,1/2-z
-x,y,1/2-z
-x,-y,-z
x,y,-z
-x,y,1/2+z
x,-y,1/2+z
1/2+x,1/2+y,z
1/2-x,1/2-y,z
1/2+x,1/2-y,1/2-z
1/2-x,1/2+y,1/2-z
1/2-x,1/2-y,-z
1/2+x,1/2+y,-z
1/2-x,1/2+y,1/2+z
1/2+x,1/2-y,1/2+z
loop_
_atom_site_type_symbol
_atom_site_label
_atom_site_fract_x
_atom_site_fract_y
_atom_site_fract_z
Si Si1 0.359592 0.439032 0.586726
Si Si2 0.918932 0.240755 0.287019
Si Si3 0.457613 0.403343 0.086725
Si Si4 0.145517 0.000000 0.750000
Si Si5 0.373380 0.835746 0.149808
Si Si6 0.355027 0.891250 0.591226
Si Si7 0.714550 0.863900 0.771936
O O1 0.338550 0.461936 0.500000
O O2 0.408847 0.516507 0.590443
O O3 0.330902 0.485106 0.664032
O O4 0.369114 0.290324 0.598045
O O5 0.961965 0.181996 0.335010
O O6 0.918440 0.326738 0.208980
O O7 0.891750 0.309632 0.358420
O O8 0.887504 0.122686 0.257087
O O9 0.500000 0.500000 0.087435
O O10 0.457930 0.338289 0.000000
O O11 0.329303 0.843433 0.211462
O O12 0.370438 0.963363 0.100631
O O13 0.352162 0.854681 0.500000
O O14 0.306890 0.871529 0.639969
O O15 0.750000 0.750000 0.763379
O O16 0.734653 0.000000 0.750000
#
# Coordination Sequence:
#
# PCOD9496017 Si02
#       7
#    16  16  16   8  16  16  16
#     4   9  16  29  49  72 100 137 181 221 263 321
#     4   9  16  30  48  73 102 135 180 218 260 322
#     4   9  17  29  47  74 111 147 175 219 283 333
#     4   8  16  28  43  68 102 132 160 218 266 310
#     4   9  18  33  51  74 101 136 180 219 270 322
#     4  10  19  32  55  79 103 136 178 227 273 322
#     4   9  19  37  55  77 105 145 180 218 277 347
#
# _framework density 20.387357000000002
#
# number of rings (size 3 to 8) (size 9 to 14) (size 15 to 20)
#    0.000    2.923    0.000    2.308    0.000    0.923 
#   18.000   13.846    0.000   12.462    0.000   15.077 
#    0.000    0.000    0.000    0.000    0.000    0.000 
#
# Total GULP energy -289629.041976 kJ/mol
# GULP energy per Si atom -5569.789269 kJ/mol
# Density = 2.034095 g / cm^3
# Si number density = 20.387357 Si / 1000 Ang^3
#
#
#
# Elastic Constant Matrix: (Units=GPa)
#
#
# Indices 1 2 3 4 5 6 
#
# 1 20.6010 -4.1411 9.6580 0.0000 0.0000 0.0000
# 2 -4.1411 38.3458 -4.6222 0.0000 0.0000 0.0000
# 3 9.6580 -4.6222 139.4424 0.0000 0.0000 0.0000
# 4 0.0000 0.0000 0.0000 28.7965 0.0000 0.0000
# 5 0.0000 0.0000 0.0000 0.0000 -1.0084 0.0000
# 6 0.0000 0.0000 0.0000 0.0000 0.0000 20.6230
#
#
#
# Elastic Compliance Matrix: (Units=1/GPa)
#
#
# Indices 1 2 3 4 5 6 
#
# 1 0.051151 0.005117 -0.003373 0.000000 0.000000 0.000000
# 2 0.005117 0.026695 0.000530 0.000000 0.000000 0.000000
# 3 -0.003373 0.000530 0.007423 0.000000 0.000000 0.000000
# 4 0.000000 0.000000 0.000000 0.034726 0.000000 0.000000
# 5 0.000000 0.000000 0.000000 0.000000 -0.991651 0.000000
# 6 0.000000 0.000000 0.000000 0.000000 0.000000 0.048490
#
#
# Mechanical properties :
#
#
# Convention : Reuss Voigt Hill
#
# Bulk Modulus (GPa) = 11.13358 22.24206 16.68782
# Shear Modulus (GPa) = -6.26742 22.84851 8.29054
#
# Velocity S-wave (km/s) = -1.75523 3.35135 2.01875
# Velocity P-wave (km/s) = 1.16837 5.09007 3.69282
#
# Compressibility (1/GPa) = 0.08981839
#
# Stress axis : x y z
#
# Youngs Moduli (GPa) = 19.54982 37.46008 134.72308
#
# Poissons Ratio (x) = -0.19170 0.45445
# Poissons Ratio (y) = -0.10004 -0.07146
# Poissons Ratio (z) = 0.06595 -0.01987
#
# Static dielectric constant tensor:
#      x y z
#    x 1.743430 0.000000 0.000000 
#    y 0.000000 1.760650 0.000000 
#    z 0.000000 0.000000 1.792490 
# 
# From -- ./inp_files/44747.got.cif
#   From: 2010.05.17/outbox.cif.g08.bks.cpg/sg66_23_cif.got.tgz:44747.got - 2010.06.03 17:51:23.
