data_PCOD9496864
_publ_section_title
;
Structure prediction by ZEFSAII (Michael W. Deem and Ramdas Pophale) SiO2 
 PCOD9496864
Probable space group: C C C M
;
_chemical_formula_sum "Si O2"
_cell_formula_units_Z 72
_cell_length_a 29.666136
_cell_length_b 14.792916
_cell_length_c 9.103659
_cell_angle_alpha 90.000000
_cell_angle_beta 90.000000
_cell_angle_gamma 90.000000
_cell_volume 3995.128534
_symmetry_space_group_name_H-M "C C C M"
_symmetry_group_IT_number 66
_symmetry_cell_setting 'orthorhombic'
loop_
_space_group_symop_operation_xyz
x,y,z
-x,-y,z
x,-y,1/2-z
-x,y,1/2-z
-x,-y,-z
x,y,-z
-x,y,1/2+z
x,-y,1/2+z
1/2+x,1/2+y,z
1/2-x,1/2-y,z
1/2+x,1/2-y,1/2-z
1/2-x,1/2+y,1/2-z
1/2-x,1/2-y,-z
1/2+x,1/2+y,-z
1/2-x,1/2+y,1/2+z
1/2+x,1/2-y,1/2+z
loop_
_atom_site_type_symbol
_atom_site_label
_atom_site_fract_x
_atom_site_fract_y
_atom_site_fract_z
Si Si1 0.275530 0.500000 0.750000
Si Si2 0.216575 0.333509 0.666409
Si Si3 0.365168 0.584502 0.337063
Si Si4 0.372826 0.790670 0.323222
Si Si5 0.046943 0.400893 0.678123
O O1 0.244307 0.426654 0.672157
O O2 0.311724 0.559926 0.659611
O O3 0.199504 0.319413 0.500000
O O4 0.250000 0.250000 0.699937
O O5 0.175014 0.333295 0.777466
O O6 0.385404 0.500000 0.250000
O O7 0.383596 0.584364 0.500000
O O8 0.370856 0.684953 0.277196
O O9 0.378969 0.796627 0.500000
O O10 0.412339 0.839664 0.235245
O O11 0.053798 0.500000 0.750000
O O12 0.044476 0.405742 0.500000
O O13 0.000000 0.367592 0.750000
#
# Coordination Sequence:
#
# PCOD9496864 Si02
#       5
#     8  16  16  16  16
#     4  10  20  34  54  76 108 154 202 246 290 332
#     4  11  22  37  55  78 114 158 203 246 291 342
#     4   9  19  35  56  79 110 152 195 238 285 339
#     4  11  23  38  58  87 118 153 197 242 292 349
#     4  11  23  43  68  92 119 150 186 234 290 350
#
# _framework density 18.021947999999998
#
# number of rings (size 3 to 8) (size 9 to 14) (size 15 to 20)
#    0.667    0.889    2.222    4.000    1.556    4.000 
#    0.000    0.000    0.000    0.667    0.000    4.667 
#    0.000    0.000    0.000    0.000    0.000    0.000 
#
# Total GULP energy -200547.044675 kJ/mol
# GULP energy per Si atom -5570.751241 kJ/mol
# Density = 1.798093 g / cm^3
# Si number density = 18.021948 Si / 1000 Ang^3
#
#
#
# Elastic Constant Matrix: (Units=GPa)
#
#
# Indices 1 2 3 4 5 6 
#
# 1 85.4036 55.2575 50.3243 0.0000 0.0000 0.0000
# 2 55.2575 98.2186 35.4729 0.0000 0.0000 0.0000
# 3 50.3243 35.4729 111.2540 0.0000 0.0000 0.0000
# 4 0.0000 0.0000 0.0000 16.8693 0.0000 0.0000
# 5 0.0000 0.0000 0.0000 0.0000 21.6921 0.0000
# 6 0.0000 0.0000 0.0000 0.0000 0.0000 26.6375
#
#
#
# Elastic Compliance Matrix: (Units=1/GPa)
#
#
# Indices 1 2 3 4 5 6 
#
# 1 0.022248 -0.010038 -0.006863 0.000000 0.000000 0.000000
# 2 -0.010038 0.016035 -0.000572 0.000000 0.000000 0.000000
# 3 -0.006863 -0.000572 0.012275 0.000000 0.000000 0.000000
# 4 0.000000 0.000000 0.000000 0.059279 0.000000 0.000000
# 5 0.000000 0.000000 0.000000 0.000000 0.046100 0.000000
# 6 0.000000 0.000000 0.000000 0.000000 0.000000 0.037541
#
#
# Mechanical properties :
#
#
# Convention : Reuss Voigt Hill
#
# Bulk Modulus (GPa) = 64.05275 64.10951 64.08113
# Shear Modulus (GPa) = 21.40145 23.29454 22.34799
#
# Velocity S-wave (km/s) = 3.44978 3.59913 3.52524
# Velocity P-wave (km/s) = 7.17542 7.27474 7.22525
#
# Compressibility (1/GPa) = 0.01561213
#
# Stress axis : x y z
#
# Youngs Moduli (GPa) = 44.94826 62.36223 81.46448
#
# Poissons Ratio (x) = 0.62599 0.55909
# Poissons Ratio (y) = 0.45119 0.04662
# Poissons Ratio (z) = 0.30848 0.03569
#
# Static dielectric constant tensor:
#      x y z
#    x 1.604820 0.000000 0.000000 
#    y 0.000000 1.632190 0.000000 
#    z 0.000000 0.000000 1.641930 
# 
# From -- ./inp_files/11298.got.cif
#   From: 2010.05.17/outbox.cif.g08.bks.cpg/sg66_6_cif.got.tgz:11298.got - 2010.06.03 17:51:23.
