data_PCOD9496986
_publ_section_title
;
Structure prediction by ZEFSAII (Michael W. Deem and Ramdas Pophale) SiO2 
 PCOD9496986
Probable space group: C C C M
;
_chemical_formula_sum "Si O2"
_cell_formula_units_Z 128
_cell_length_a 12.169722
_cell_length_b 22.640856
_cell_length_c 24.315401
_cell_angle_alpha 90.000000
_cell_angle_beta 90.000000
_cell_angle_gamma 90.000000
_cell_volume 6699.693520
_symmetry_space_group_name_H-M "C C C M"
_symmetry_group_IT_number 66
_symmetry_cell_setting 'orthorhombic'
loop_
_space_group_symop_operation_xyz
x,y,z
-x,-y,z
x,-y,1/2-z
-x,y,1/2-z
-x,-y,-z
x,y,-z
-x,y,1/2+z
x,-y,1/2+z
1/2+x,1/2+y,z
1/2-x,1/2-y,z
1/2+x,1/2-y,1/2-z
1/2-x,1/2+y,1/2-z
1/2-x,1/2-y,-z
1/2+x,1/2+y,-z
1/2-x,1/2+y,1/2+z
1/2+x,1/2-y,1/2+z
loop_
_atom_site_type_symbol
_atom_site_label
_atom_site_fract_x
_atom_site_fract_y
_atom_site_fract_z
Si Si1 0.701611 0.894708 0.062861
Si Si2 0.467016 0.934133 0.914762
Si Si3 0.862933 0.158030 0.646334
Si Si4 0.070707 0.377955 0.695134
Si Si5 0.682773 0.355991 0.225239
Si Si6 0.463205 0.254959 0.685707
Si Si7 0.046354 0.936714 0.152415
Si Si8 0.770488 0.968353 0.437051
O O1 0.568730 0.893985 0.066190
O O2 0.762012 0.850623 0.104919
O O3 0.737252 0.963140 0.076046
O O4 0.734873 0.882964 0.000000
O O5 0.462027 0.926178 0.849263
O O6 0.340884 0.928995 0.933788
O O7 0.500000 0.000000 0.931914
O O8 0.822367 0.153618 0.709540
O O9 0.941920 0.215310 0.648906
O O10 0.946747 0.104733 0.633133
O O11 0.198020 0.378694 0.709908
O O12 0.054164 0.312439 0.669865
O O13 0.000000 0.383562 0.750000
O O14 0.643065 0.297784 0.191209
O O15 0.597473 0.404840 0.205121
O O16 0.500000 0.253880 0.750000
O O17 0.139317 0.945253 0.105735
O O18 0.000000 0.000000 0.166634
O O19 0.810886 0.967404 0.500000
#
# Coordination Sequence:
#
# PCOD9496986 Si02
#       8
#    16  16  16  16  16  16  16  16
#     4  10  20  36  57  79 109 151 194 238 281 332
#     4  10  21  37  54  80 113 146 191 233 287 339
#     4  10  20  35  54  83 116 146 187 230 284 339
#     4  11  20  34  57  82 111 149 188 233 282 335
#     4  10  20  35  54  82 115 149 186 226 277 347
#     4   8  18  34  55  81 110 145 186 228 278 338
#     4  11  20  34  52  84 114 149 182 223 287 345
#     4  10  20  36  56  79 109 149 198 241 275 329
#
# _framework density 19.105352
#
# number of rings (size 3 to 8) (size 9 to 14) (size 15 to 20)
#    0.000    2.000    2.500    2.625    0.000    3.500 
#    0.000    3.125    0.000    2.250    0.000    1.750 
#    0.000    0.000    0.000    0.000    0.000    0.000 
#
# Total GULP energy -356850.150289 kJ/mol
# GULP energy per Si atom -5575.783598 kJ/mol
# Density = 1.906187 g / cm^3
# Si number density = 19.105352 Si / 1000 Ang^3
#
#
#
# Elastic Constant Matrix: (Units=GPa)
#
#
# Indices 1 2 3 4 5 6 
#
# 1 61.5483 9.4762 13.7584 0.0000 0.0000 0.0000
# 2 9.4762 29.5508 5.7360 0.0000 0.0000 0.0000
# 3 13.7584 5.7360 75.1422 0.0000 0.0000 0.0000
# 4 0.0000 0.0000 0.0000 14.5026 0.0000 0.0000
# 5 0.0000 0.0000 0.0000 0.0000 16.3377 0.0000
# 6 0.0000 0.0000 0.0000 0.0000 0.0000 14.1642
#
#
#
# Elastic Compliance Matrix: (Units=1/GPa)
#
#
# Indices 1 2 3 4 5 6 
#
# 1 0.017671 -0.005114 -0.002845 0.000000 0.000000 0.000000
# 2 -0.005114 0.035829 -0.001799 0.000000 0.000000 0.000000
# 3 -0.002845 -0.001799 0.013966 0.000000 0.000000 0.000000
# 4 0.000000 0.000000 0.000000 0.068953 0.000000 0.000000
# 5 0.000000 0.000000 0.000000 0.000000 0.061208 0.000000
# 6 0.000000 0.000000 0.000000 0.000000 0.000000 0.070600
#
#
# Mechanical properties :
#
#
# Convention : Reuss Voigt Hill
#
# Bulk Modulus (GPa) = 20.85495 24.90916 22.88205
# Shear Modulus (GPa) = 16.46216 18.15231 17.30723
#
# Velocity S-wave (km/s) = 2.93857 3.08574 3.01306
# Velocity P-wave (km/s) = 4.73847 5.07561 4.90993
#
# Compressibility (1/GPa) = 0.04795026
#
# Stress axis : x y z
#
# Youngs Moduli (GPa) = 56.59049 27.91026 71.60081
#
# Poissons Ratio (x) = 0.14274 0.20371
# Poissons Ratio (y) = 0.28942 0.12878
# Poissons Ratio (z) = 0.16101 0.05020
#
# Static dielectric constant tensor:
#      x y z
#    x 1.742150 0.000000 0.000000 
#    y 0.000000 1.686410 0.000000 
#    z 0.000000 0.000000 1.651820 
# 
# From -- ./inp_files/57363.got.cif
#   From: 2010.05.17/outbox.cif.g08.bks.cpg/sg66_29_cif.got.tgz:57363.got - 2010.06.03 17:51:23.
