data_PCOD9496944
_publ_section_title
;
Structure prediction by ZEFSAII (Michael W. Deem and Ramdas Pophale) SiO2 
 PCOD9496944
Probable space group: C C C M
;
_chemical_formula_sum "Si O2"
_cell_formula_units_Z 64
_cell_length_a 7.596554
_cell_length_b 18.411908
_cell_length_c 21.887771
_cell_angle_alpha 90.000000
_cell_angle_beta 90.000000
_cell_angle_gamma 90.000000
_cell_volume 3061.378034
_symmetry_space_group_name_H-M "C C C M"
_symmetry_group_IT_number 66
_symmetry_cell_setting 'orthorhombic'
loop_
_space_group_symop_operation_xyz
x,y,z
-x,-y,z
x,-y,1/2-z
-x,y,1/2-z
-x,-y,-z
x,y,-z
-x,y,1/2+z
x,-y,1/2+z
1/2+x,1/2+y,z
1/2-x,1/2-y,z
1/2+x,1/2-y,1/2-z
1/2-x,1/2+y,1/2-z
1/2-x,1/2-y,-z
1/2+x,1/2+y,-z
1/2-x,1/2+y,1/2+z
1/2+x,1/2-y,1/2+z
loop_
_atom_site_type_symbol
_atom_site_label
_atom_site_fract_x
_atom_site_fract_y
_atom_site_fract_z
Si Si1 0.495138 0.188035 0.070956
Si Si2 0.167805 0.908447 0.105445
Si Si3 0.280783 0.560959 0.431747
Si Si4 0.935546 0.788207 0.681846
O O1 0.683147 0.145671 0.078767
O O2 0.345369 0.127815 0.082659
O O3 0.474129 0.250165 0.122587
O O4 0.482063 0.213385 0.000000
O O5 0.098368 0.872254 0.167463
O O6 0.985469 0.915950 0.068309
O O7 0.240547 0.989938 0.109988
O O8 0.232863 0.535748 0.500000
O O9 0.750000 0.750000 0.680992
O O10 0.000000 0.776653 0.750000
#
# Coordination Sequence:
#
# PCOD9496944 Si02
#       4
#    16  16  16  16
#     4  10  21  37  61  92 121 155 203 255 308 365
#     4  10  20  36  58  88 119 160 198 246 303 366
#     4  10  20  34  59  92 126 156 188 250 313 365
#     4  10  24  41  63  84 120 167 205 254 306 365
#
# _framework density 20.905616999999999
#
# number of rings (size 3 to 8) (size 9 to 14) (size 15 to 20)
#    0.000    2.000    0.000    3.750    3.500    8.500 
#    0.000    5.000    0.000    1.500    0.000    0.000 
#    0.000    0.000    0.000    0.000    0.000    0.000 
#
# Total GULP energy -178397.322679 kJ/mol
# GULP energy per Si atom -5574.916334 kJ/mol
# Density = 2.085803 g / cm^3
# Si number density = 20.905617 Si / 1000 Ang^3
#
#
#
# Elastic Constant Matrix: (Units=GPa)
#
#
# Indices 1 2 3 4 5 6 
#
# 1 71.4568 29.6484 29.5097 0.0000 0.0000 0.0000
# 2 29.6484 103.9648 73.7630 0.0000 0.0000 0.0000
# 3 29.5097 73.7630 132.9761 0.0000 0.0000 0.0000
# 4 0.0000 0.0000 0.0000 16.7075 0.0000 0.0000
# 5 0.0000 0.0000 0.0000 0.0000 17.4057 0.0000
# 6 0.0000 0.0000 0.0000 0.0000 0.0000 25.1922
#
#
#
# Elastic Compliance Matrix: (Units=1/GPa)
#
#
# Indices 1 2 3 4 5 6 
#
# 1 0.016100 -0.003391 -0.001692 0.000000 0.000000 0.000000
# 2 -0.003391 0.016575 -0.008442 0.000000 0.000000 0.000000
# 3 -0.001692 -0.008442 0.012578 0.000000 0.000000 0.000000
# 4 0.000000 0.000000 0.000000 0.059853 0.000000 0.000000
# 5 0.000000 0.000000 0.000000 0.000000 0.057452 0.000000
# 6 0.000000 0.000000 0.000000 0.000000 0.000000 0.039695
#
#
# Mechanical properties :
#
#
# Convention : Reuss Voigt Hill
#
# Bulk Modulus (GPa) = 54.93243 63.80444 59.36843
# Shear Modulus (GPa) = 21.24299 23.55953 22.40126
#
# Velocity S-wave (km/s) = 3.19115 3.36065 3.27699
# Velocity P-wave (km/s) = 6.31754 6.75611 6.54051
#
# Compressibility (1/GPa) = 0.01820418
#
# Stress axis : x y z
#
# Youngs Moduli (GPa) = 62.11128 60.33118 79.50151
#
# Poissons Ratio (x) = 0.20458 0.13451
# Poissons Ratio (y) = 0.21062 0.67114
# Poissons Ratio (z) = 0.10508 0.50931
#
# Static dielectric constant tensor:
#      x y z
#    x 1.800860 0.000000 0.000000 
#    y 0.000000 1.830710 0.000000 
#    z 0.000000 0.000000 1.833330 
# 
# From -- ./inp_files/36299.got.cif
#   From: 2010.05.17/outbox.cif.g08.bks.cpg/sg66_19_cif.got.tgz:36299.got - 2010.06.03 17:51:23.
