data_PCOD9496412
_publ_section_title
;
Structure prediction by ZEFSAII (Michael W. Deem and Ramdas Pophale) SiO2 
 PCOD9496412
Probable space group: C C C M
;
_chemical_formula_sum "Si O2"
_cell_formula_units_Z 72
_cell_length_a 24.256100
_cell_length_b 8.891526
_cell_length_c 15.288861
_cell_angle_alpha 90.000000
_cell_angle_beta 90.000000
_cell_angle_gamma 90.000000
_cell_volume 3297.405890
_symmetry_space_group_name_H-M "C C C M"
_symmetry_group_IT_number 66
_symmetry_cell_setting 'orthorhombic'
loop_
_space_group_symop_operation_xyz
x,y,z
-x,-y,z
x,-y,1/2-z
-x,y,1/2-z
-x,-y,-z
x,y,-z
-x,y,1/2+z
x,-y,1/2+z
1/2+x,1/2+y,z
1/2-x,1/2-y,z
1/2+x,1/2-y,1/2-z
1/2-x,1/2+y,1/2-z
1/2-x,1/2-y,-z
1/2+x,1/2+y,-z
1/2-x,1/2+y,1/2+z
1/2+x,1/2-y,1/2+z
loop_
_atom_site_type_symbol
_atom_site_label
_atom_site_fract_x
_atom_site_fract_y
_atom_site_fract_z
Si Si1 0.402602 0.922892 0.836098
Si Si2 0.500000 0.263919 0.250000
Si Si3 0.423993 0.755878 0.599067
Si Si4 0.199081 0.148851 0.894703
Si Si5 0.809331 0.809454 0.394692
O O1 0.455908 0.833910 0.803171
O O2 0.358493 0.804411 0.871550
O O3 0.377049 0.000000 0.750000
O O4 0.425110 0.062017 0.893328
O O5 0.538304 0.327888 0.328343
O O6 0.437578 0.709268 0.500000
O O7 0.359830 0.725261 0.617132
O O8 0.250000 0.250000 0.860858
O O9 0.189845 0.980111 0.860712
O O10 0.208591 0.135726 0.000000
O O11 0.809940 0.816174 0.500000
O O12 0.750000 0.750000 0.366450
#
# Coordination Sequence:
#
# PCOD9496412 Si02
#       5
#    16   8  16  16  16
#     4  10  20  37  56  82 120 155 198 249 294 350
#     4  10  23  40  57  86 119 150 205 256 287 352
#     4  10  19  35  61  87 116 157 197 242 301 354
#     4   9  18  34  58  90 123 153 193 245 300 361
#     4  10  20  36  61  91 119 151 195 244 296 358
#
# _framework density 21.835346999999999
#
# number of rings (size 3 to 8) (size 9 to 14) (size 15 to 20)
#    0.000    2.222    0.000    5.000    0.000    6.222 
#    0.000   15.556    0.000    4.000    0.000    0.000 
#    0.000    0.000    0.000    0.000    0.000    0.000 
#
# Total GULP energy -200650.902040 kJ/mol
# GULP energy per Si atom -5573.636168 kJ/mol
# Density = 2.178565 g / cm^3
# Si number density = 21.835347 Si / 1000 Ang^3
#
#
#
# Elastic Constant Matrix: (Units=GPa)
#
#
# Indices 1 2 3 4 5 6 
#
# 1 106.6613 18.7792 39.7948 0.0000 0.0000 0.0000
# 2 18.7792 34.7084 3.4397 0.0000 0.0000 0.0000
# 3 39.7948 3.4397 83.1199 0.0000 0.0000 0.0000
# 4 0.0000 0.0000 0.0000 10.1332 0.0000 0.0000
# 5 0.0000 0.0000 0.0000 0.0000 -118.8508 0.0000
# 6 0.0000 0.0000 0.0000 0.0000 0.0000 3.6039
#
#
#
# Elastic Compliance Matrix: (Units=1/GPa)
#
#
# Indices 1 2 3 4 5 6 
#
# 1 0.012639 -0.006265 -0.005792 0.000000 0.000000 0.000000
# 2 -0.006265 0.032035 0.001674 0.000000 0.000000 0.000000
# 3 -0.005792 0.001674 0.014735 0.000000 0.000000 0.000000
# 4 0.000000 0.000000 0.000000 0.098686 0.000000 0.000000
# 5 0.000000 0.000000 0.000000 0.000000 -0.008414 0.000000
# 6 0.000000 0.000000 0.000000 0.000000 0.000000 0.277476
#
#
# Mechanical properties :
#
#
# Convention : Reuss Voigt Hill
#
# Bulk Modulus (GPa) = 25.87793 38.72409 32.30101
# Shear Modulus (GPa) = 10.85059 -10.19102 0.32979
#
# Velocity S-wave (km/s) = 2.23161 -2.16272 0.38905
# Velocity P-wave (km/s) = 4.30316 3.39656 3.87646
#
# Compressibility (1/GPa) = 0.03864296
#
# Stress axis : x y z
#
# Youngs Moduli (GPa) = 79.11752 31.21572 67.86754
#
# Poissons Ratio (x) = 0.19555 0.39309
# Poissons Ratio (y) = 0.49564 -0.11358
# Poissons Ratio (z) = 0.45825 -0.05224
#
# Static dielectric constant tensor:
#      x y z
#    x 1.775350 0.000000 0.000000 
#    y 0.000000 1.876120 0.000000 
#    z 0.000000 0.000000 1.868430 
# 
# From -- ./inp_files/43453.got.cif
#   From: 2010.05.17/outbox.cif.g08.bks.cpg/sg66_22_cif.got.tgz:43453.got - 2010.06.03 17:51:23.
