data_PCOD9496188
_publ_section_title
;
Structure prediction by ZEFSAII (Michael W. Deem and Ramdas Pophale) SiO2 
 PCOD9496188
Probable space group: C C C M
;
_chemical_formula_sum "Si O2"
_cell_formula_units_Z 112
_cell_length_a 14.003303
_cell_length_b 22.353708
_cell_length_c 14.907445
_cell_angle_alpha 90.000000
_cell_angle_beta 90.000000
_cell_angle_gamma 90.000000
_cell_volume 4666.414097
_symmetry_space_group_name_H-M "C C C M"
_symmetry_group_IT_number 66
_symmetry_cell_setting 'orthorhombic'
loop_
_space_group_symop_operation_xyz
x,y,z
-x,-y,z
x,-y,1/2-z
-x,y,1/2-z
-x,-y,-z
x,y,-z
-x,y,1/2+z
x,-y,1/2+z
1/2+x,1/2+y,z
1/2-x,1/2-y,z
1/2+x,1/2-y,1/2-z
1/2-x,1/2+y,1/2-z
1/2-x,1/2-y,-z
1/2+x,1/2+y,-z
1/2-x,1/2+y,1/2+z
1/2+x,1/2-y,1/2+z
loop_
_atom_site_type_symbol
_atom_site_label
_atom_site_fract_x
_atom_site_fract_y
_atom_site_fract_z
Si Si1 0.520842 0.309311 0.143885
Si Si2 0.854297 0.379569 0.904785
Si Si3 0.285170 0.313565 0.274448
Si Si4 0.750742 0.872001 0.898684
Si Si5 0.040930 0.319374 0.146897
Si Si6 0.459415 0.439731 0.352954
Si Si7 0.247218 0.509573 0.146236
O O1 0.500000 0.312671 0.250000
O O2 0.635207 0.300469 0.150760
O O3 0.469650 0.249145 0.111540
O O4 0.510984 0.376228 0.105735
O O5 0.798463 0.348966 0.823475
O O6 0.833418 0.449631 0.897080
O O7 0.963888 0.361916 0.899339
O O8 0.814851 0.357934 0.000000
O O9 0.250000 0.250000 0.240593
O O10 0.315135 0.349029 0.184583
O O11 0.645447 0.846432 0.871688
O O12 0.755962 0.943952 0.895317
O O13 0.773986 0.852010 0.000000
O O14 0.000000 0.317268 0.250000
O O15 0.500000 0.500000 0.395497
O O16 0.500000 0.439045 0.250000
O O17 0.345701 0.451689 0.355103
O O18 0.223861 0.500000 0.250000
#
# Coordination Sequence:
#
# PCOD9496188 Si02
#       7
#    16  16  16  16  16  16  16
#     4  10  20  36  69 103 132 181 232 285 349 419
#     4  12  25  41  69 105 141 181 233 294 356 423
#     4  12  22  44  70  99 139 183 233 292 354 422
#     4  12  27  45  70 103 148 194 239 296 360 436
#     4  11  21  46  68 100 142 186 238 292 354 432
#     4  10  19  33  64 108 130 175 237 282 346 423
#     4  12  21  43  70 104 142 187 238 290 360 432
#
# _framework density 24.001300000000001
#
# number of rings (size 3 to 8) (size 9 to 14) (size 15 to 20)
#    0.000    0.714    7.143    1.714    2.000    1.143 
#    0.000    2.857    0.000    4.286    0.000    0.000 
#    0.000    0.000    0.000    0.000    0.000    0.000 
#
# Total GULP energy -312917.234196 kJ/mol
# GULP energy per Si atom -5587.807753 kJ/mol
# Density = 2.394667 g / cm^3
# Si number density = 24.001300 Si / 1000 Ang^3
#
#
#
# Elastic Constant Matrix: (Units=GPa)
#
#
# Indices 1 2 3 4 5 6 
#
# 1 93.7769 43.1212 2.7907 0.0000 0.0000 0.0000
# 2 43.1212 165.6839 11.0836 0.0000 0.0000 0.0000
# 3 2.7907 11.0836 126.1445 0.0000 0.0000 0.0000
# 4 0.0000 0.0000 0.0000 234.6397 0.0000 0.0000
# 5 0.0000 0.0000 0.0000 0.0000 -3.2843 0.0000
# 6 0.0000 0.0000 0.0000 0.0000 0.0000 38.6645
#
#
#
# Elastic Compliance Matrix: (Units=1/GPa)
#
#
# Indices 1 2 3 4 5 6 
#
# 1 0.012113 -0.003153 0.000009 0.000000 0.000000 0.000000
# 2 -0.003153 0.006892 -0.000536 0.000000 0.000000 0.000000
# 3 0.000009 -0.000536 0.007974 0.000000 0.000000 0.000000
# 4 0.000000 0.000000 0.000000 0.004262 0.000000 0.000000
# 5 0.000000 0.000000 0.000000 0.000000 -0.304478 0.000000
# 6 0.000000 0.000000 0.000000 0.000000 0.000000 0.025864
#
#
# Mechanical properties :
#
#
# Convention : Reuss Voigt Hill
#
# Bulk Modulus (GPa) = 50.96907 55.51069 53.23988
# Shear Modulus (GPa) = -21.41572 75.91129 27.24778
#
# Velocity S-wave (km/s) = -2.99034 5.62998 3.37302
# Velocity P-wave (km/s) = 3.05929 8.08954 6.11555
#
# Compressibility (1/GPa) = 0.01961974
#
# Stress axis : x y z
#
# Youngs Moduli (GPa) = 82.55404 145.09369 125.40295
#
# Poissons Ratio (x) = 0.45751 -0.00114
# Poissons Ratio (y) = 0.26031 0.06719
# Poissons Ratio (z) = -0.00075 0.07774
#
# Static dielectric constant tensor:
#      x y z
#    x 2.086480 0.000000 0.000000 
#    y 0.000000 1.921460 0.000000 
#    z 0.000000 0.000000 1.943600 
# 
# From -- ./inp_files/28732.got.cif
#   From: 2010.05.17/outbox.cif.g08.bks.cpg/sg66_15_cif.got.tgz:28732.got - 2010.06.03 17:51:23.
