data_PCOD9496532
_publ_section_title
;
Structure prediction by ZEFSAII (Michael W. Deem and Ramdas Pophale) SiO2 
 PCOD9496532
Probable space group: C C C M
;
_chemical_formula_sum "Si O2"
_cell_formula_units_Z 116
_cell_length_a 12.725745
_cell_length_b 25.122829
_cell_length_c 17.910397
_cell_angle_alpha 90.000000
_cell_angle_beta 90.000000
_cell_angle_gamma 90.000000
_cell_volume 5726.074199
_symmetry_space_group_name_H-M "C C C M"
_symmetry_group_IT_number 66
_symmetry_cell_setting 'orthorhombic'
loop_
_space_group_symop_operation_xyz
x,y,z
-x,-y,z
x,-y,1/2-z
-x,y,1/2-z
-x,-y,-z
x,y,-z
-x,y,1/2+z
x,-y,1/2+z
1/2+x,1/2+y,z
1/2-x,1/2-y,z
1/2+x,1/2-y,1/2-z
1/2-x,1/2+y,1/2-z
1/2-x,1/2-y,-z
1/2+x,1/2+y,-z
1/2-x,1/2+y,1/2+z
1/2+x,1/2-y,1/2+z
loop_
_atom_site_type_symbol
_atom_site_label
_atom_site_fract_x
_atom_site_fract_y
_atom_site_fract_z
Si Si1 0.529531 0.938238 0.335261
Si Si2 0.237294 0.622787 0.178663
Si Si3 0.450690 0.689635 0.672306
Si Si4 0.158002 0.207638 0.412463
Si Si5 0.000000 0.000000 0.250000
Si Si6 0.618526 0.202266 0.284670
Si Si7 0.345503 0.116694 0.912560
Si Si8 0.651360 0.417126 0.674278
O O1 0.500000 0.920719 0.250000
O O2 0.648636 0.919141 0.345369
O O3 0.457122 0.910588 0.396465
O O4 0.500000 0.000000 0.337912
O O5 0.303262 0.649431 0.113214
O O6 0.184370 0.673006 0.220930
O O7 0.306633 0.596820 0.242979
O O8 0.500000 0.670830 0.750000
O O9 0.545676 0.716089 0.626672
O O10 0.368803 0.735684 0.694497
O O11 0.402719 0.635941 0.639648
O O12 0.141881 0.210328 0.500000
O O13 0.250000 0.250000 0.394422
O O14 0.928291 0.035625 0.306229
O O15 0.500000 0.199813 0.250000
O O16 0.644230 0.168688 0.359452
O O17 0.255506 0.078131 0.877008
O O18 0.328141 0.126993 0.000000
#
# Coordination Sequence:
#
# PCOD9496532 Si02
#       8
#    16  16  16  16   4  16  16  16
#     4  11  22  39  66  93 123 163 210 262 312 373
#     4  11  20  39  63  96 124 165 208 266 312 382
#     4  11  21  40  62  92 125 166 215 266 312 381
#     4  11  24  37  58  94 130 166 206 259 324 383
#     4  12  24  44  70  94 116 164 220 290 322 366
#     4  10  19  37  62  91 122 164 208 250 308 374
#     4  11  24  41  61  95 134 168 206 258 323 389
#     4  11  24  41  68  96 120 162 224 268 320 377
#
# _framework density 20.258208
#
# number of rings (size 3 to 8) (size 9 to 14) (size 15 to 20)
#    0.000    1.103    6.207    1.655    1.931    3.586 
#    0.000    1.034    0.000    0.000    0.000    0.000 
#    0.000    0.000    0.000    0.000    0.000    0.000 
#
# Total GULP energy -323520.055371 kJ/mol
# GULP energy per Si atom -5577.931989 kJ/mol
# Density = 2.021210 g / cm^3
# Si number density = 20.258208 Si / 1000 Ang^3
#
#
#
# Elastic Constant Matrix: (Units=GPa)
#
#
# Indices 1 2 3 4 5 6 
#
# 1 97.4791 35.8528 22.5962 0.0000 0.0000 0.0000
# 2 35.8528 84.8432 13.8471 0.0000 0.0000 0.0000
# 3 22.5962 13.8471 82.3505 0.0000 0.0000 0.0000
# 4 0.0000 0.0000 0.0000 20.3334 0.0000 0.0000
# 5 0.0000 0.0000 0.0000 0.0000 20.0801 0.0000
# 6 0.0000 0.0000 0.0000 0.0000 0.0000 20.8149
#
#
#
# Elastic Compliance Matrix: (Units=1/GPa)
#
#
# Indices 1 2 3 4 5 6 
#
# 1 0.012686 -0.004928 -0.002652 0.000000 0.000000 0.000000
# 2 -0.004928 0.014033 -0.001007 0.000000 0.000000 0.000000
# 3 -0.002652 -0.001007 0.013040 0.000000 0.000000 0.000000
# 4 0.000000 0.000000 0.000000 0.049180 0.000000 0.000000
# 5 0.000000 0.000000 0.000000 0.000000 0.049801 0.000000
# 6 0.000000 0.000000 0.000000 0.000000 0.000000 0.048042
#
#
# Mechanical properties :
#
#
# Convention : Reuss Voigt Hill
#
# Bulk Modulus (GPa) = 44.27868 45.47387 44.87628
# Shear Modulus (GPa) = 23.64221 25.07080 24.35650
#
# Velocity S-wave (km/s) = 3.41991 3.52172 3.47119
# Velocity P-wave (km/s) = 6.12364 6.24760 6.18593
#
# Compressibility (1/GPa) = 0.02258423
#
# Stress axis : x y z
#
# Youngs Moduli (GPa) = 78.82763 71.25912 76.68488
#
# Poissons Ratio (x) = 0.35116 0.20339
# Poissons Ratio (y) = 0.38845 0.07726
# Poissons Ratio (z) = 0.20907 0.07179
#
# Static dielectric constant tensor:
#      x y z
#    x 1.781810 0.000000 0.000000 
#    y 0.000000 1.791870 0.000000 
#    z 0.000000 0.000000 1.677560 
# 
# From -- ./inp_files/39131.got.cif
#   From: 2010.05.17/outbox.cif.g08.bks.cpg/sg66_20_cif.got.tgz:39131.got - 2010.06.03 17:51:23.
