data_PCOD9496100
_publ_section_title
;
Structure prediction by ZEFSAII (Michael W. Deem and Ramdas Pophale) SiO2 
 PCOD9496100
Probable space group: C C C M
;
_chemical_formula_sum "Si O2"
_cell_formula_units_Z 116
_cell_length_a 15.651786
_cell_length_b 24.249264
_cell_length_c 15.204828
_cell_angle_alpha 90.000000
_cell_angle_beta 90.000000
_cell_angle_gamma 90.000000
_cell_volume 5770.905660
_symmetry_space_group_name_H-M "C C C M"
_symmetry_group_IT_number 66
_symmetry_cell_setting 'orthorhombic'
loop_
_space_group_symop_operation_xyz
x,y,z
-x,-y,z
x,-y,1/2-z
-x,y,1/2-z
-x,-y,-z
x,y,-z
-x,y,1/2+z
x,-y,1/2+z
1/2+x,1/2+y,z
1/2-x,1/2-y,z
1/2+x,1/2-y,1/2-z
1/2-x,1/2+y,1/2-z
1/2-x,1/2-y,-z
1/2+x,1/2+y,-z
1/2-x,1/2+y,1/2+z
1/2+x,1/2-y,1/2+z
loop_
_atom_site_type_symbol
_atom_site_label
_atom_site_fract_x
_atom_site_fract_y
_atom_site_fract_z
Si Si1 0.980254 0.679556 0.603366
Si Si2 0.152725 0.413208 0.599510
Si Si3 0.837409 0.725884 0.843447
Si Si4 0.000000 0.500000 0.750000
Si Si5 0.099232 0.161773 0.246031
Si Si6 0.845846 0.228973 0.895971
Si Si7 0.737112 0.885604 0.218816
Si Si8 0.383162 0.042956 0.100632
O O1 0.974932 0.684371 0.500000
O O2 0.932907 0.621901 0.622968
O O3 0.916252 0.726886 0.637493
O O4 0.078989 0.692068 0.622996
O O5 0.179861 0.393793 0.500000
O O6 0.212508 0.406147 0.684121
O O7 0.138365 0.478287 0.592109
O O8 0.750000 0.750000 0.891173
O O9 0.881120 0.780967 0.805157
O O10 0.794563 0.677999 0.784888
O O11 0.947280 0.538770 0.816492
O O12 0.133774 0.173879 0.343885
O O13 0.161265 0.116038 0.206042
O O14 0.000000 0.149657 0.250000
O O15 0.750000 0.250000 0.878884
O O16 0.854127 0.222102 0.000000
O O17 0.691894 0.919446 0.140481
O O18 0.409749 0.060577 0.000000
#
# Coordination Sequence:
#
# PCOD9496100 Si02
#       8
#    16  16  16   4  16  16  16  16
#     4  10  20  33  54  84 117 159 210 259 313 376
#     4  10  21  38  62  91 121 158 207 264 326 377
#     4  10  22  36  53  80 121 171 214 254 308 380
#     4  12  22  44  68  94 126 168 210 252 316 370
#     4  11  21  38  60  85 119 164 214 259 313 382
#     4  10  19  33  54  83 119 153 198 265 323 367
#     4  11  23  39  61  90 122 167 211 259 327 384
#     4  11  25  43  63  94 134 166 206 264 316 379
#
# _framework density 20.100830999999999
#
# number of rings (size 3 to 8) (size 9 to 14) (size 15 to 20)
#    0.000    1.517    2.759    3.103    1.931    2.483 
#    0.000    2.759    0.000    2.069    0.000    1.931 
#    0.000    0.000    0.000    0.000    0.000    0.000 
#
# Total GULP energy -322946.797333 kJ/mol
# GULP energy per Si atom -5568.048230 kJ/mol
# Density = 2.005508 g / cm^3
# Si number density = 20.100831 Si / 1000 Ang^3
#
#
#
# Elastic Constant Matrix: (Units=GPa)
#
#
# Indices 1 2 3 4 5 6 
#
# 1 145.8683 29.3140 38.2684 0.0000 0.0000 0.0000
# 2 29.3140 58.8511 25.2725 0.0000 0.0000 0.0000
# 3 38.2684 25.2725 95.6604 0.0000 0.0000 0.0000
# 4 0.0000 0.0000 0.0000 17.5022 0.0000 0.0000
# 5 0.0000 0.0000 0.0000 0.0000 15.6560 0.0000
# 6 0.0000 0.0000 0.0000 0.0000 0.0000 32.3639
#
#
#
# Elastic Compliance Matrix: (Units=1/GPa)
#
#
# Indices 1 2 3 4 5 6 
#
# 1 0.008098 -0.002981 -0.002452 0.000000 0.000000 0.000000
# 2 -0.002981 0.020264 -0.004161 0.000000 0.000000 0.000000
# 3 -0.002452 -0.004161 0.012534 0.000000 0.000000 0.000000
# 4 0.000000 0.000000 0.000000 0.057136 0.000000 0.000000
# 5 0.000000 0.000000 0.000000 0.000000 0.063873 0.000000
# 6 0.000000 0.000000 0.000000 0.000000 0.000000 0.030899
#
#
# Mechanical properties :
#
#
# Convention : Reuss Voigt Hill
#
# Bulk Modulus (GPa) = 46.06623 54.00998 50.03811
# Shear Modulus (GPa) = 22.80749 26.93939 24.87344
#
# Velocity S-wave (km/s) = 3.37212 3.66486 3.52153
# Velocity P-wave (km/s) = 6.17486 6.69598 6.44069
#
# Compressibility (1/GPa) = 0.02170787
#
# Stress axis : x y z
#
# Youngs Moduli (GPa) = 123.49080 49.34968 79.78373
#
# Poissons Ratio (x) = 0.14709 0.19563
# Poissons Ratio (y) = 0.36807 0.33199
# Poissons Ratio (z) = 0.30280 0.20535
#
# Static dielectric constant tensor:
#      x y z
#    x 1.836440 0.000000 0.000000 
#    y 0.000000 1.752130 0.000000 
#    z 0.000000 0.000000 1.776090 
# 
# From -- ./inp_files/40784.got.cif
#   From: 2010.05.17/outbox.cif.g08.bks.cpg/sg66_21_cif.got.tgz:40784.got - 2010.06.03 17:51:23.
