data_PCOD9496201
_publ_section_title
;
Structure prediction by ZEFSAII (Michael W. Deem and Ramdas Pophale) SiO2 
 PCOD9496201
Probable space group: C C C M
;
_chemical_formula_sum "Si O2"
_cell_formula_units_Z 128
_cell_length_a 20.144865
_cell_length_b 20.492361
_cell_length_c 16.047662
_cell_angle_alpha 90.000000
_cell_angle_beta 90.000000
_cell_angle_gamma 90.000000
_cell_volume 6624.729163
_symmetry_space_group_name_H-M "C C C M"
_symmetry_group_IT_number 66
_symmetry_cell_setting 'orthorhombic'
loop_
_space_group_symop_operation_xyz
x,y,z
-x,-y,z
x,-y,1/2-z
-x,y,1/2-z
-x,-y,-z
x,y,-z
-x,y,1/2+z
x,-y,1/2+z
1/2+x,1/2+y,z
1/2-x,1/2-y,z
1/2+x,1/2-y,1/2-z
1/2-x,1/2+y,1/2-z
1/2-x,1/2-y,-z
1/2+x,1/2+y,-z
1/2-x,1/2+y,1/2+z
1/2+x,1/2-y,1/2+z
loop_
_atom_site_type_symbol
_atom_site_label
_atom_site_fract_x
_atom_site_fract_y
_atom_site_fract_z
Si Si1 0.628559 0.933037 0.352502
Si Si2 0.322952 0.282014 0.898614
Si Si3 0.687674 0.704872 0.602091
Si Si4 0.075978 0.701075 0.906516
Si Si5 0.722476 0.435626 0.903373
Si Si6 0.550336 0.791241 0.169363
Si Si7 0.726624 0.420522 0.598957
Si Si8 0.374083 0.923808 0.658448
O O1 0.583464 0.870490 0.367873
O O2 0.697872 0.926350 0.400533
O O3 0.600358 0.005095 0.370794
O O4 0.645342 0.930756 0.255079
O O5 0.250000 0.250000 0.884495
O O6 0.382112 0.249269 0.845262
O O7 0.314303 0.357769 0.873086
O O8 0.335293 0.276671 0.000000
O O9 0.687810 0.700462 0.500000
O O10 0.750000 0.750000 0.625337
O O11 0.623985 0.744853 0.632195
O O12 0.692982 0.630844 0.634007
O O13 0.001365 0.725197 0.903086
O O14 0.100012 0.692333 0.000000
O O15 0.710021 0.507466 0.865567
O O16 0.701385 0.438247 0.000000
O O17 0.500000 0.784812 0.250000
O O18 0.573712 0.865807 0.156465
O O19 0.716758 0.424210 0.500000
O O20 0.805276 0.408648 0.612348
#
# Coordination Sequence:
#
# PCOD9496201 Si02
#       8
#    16  16  16  16  16  16  16  16
#     4  10  19  34  52  78 113 157 188 225 274 340
#     4  10  20  38  64  88 112 148 197 255 300 335
#     4   9  16  29  51  79 113 147 180 226 275 327
#     4  11  22  36  54  80 111 150 195 235 284 344
#     4   9  16  30  55  85 116 145 186 238 287 340
#     4  12  24  40  54  81 117 155 190 238 298 354
#     4   9  18  34  60  88 110 142 193 252 296 334
#     4  10  21  36  53  76 115 153 190 225 286 341
#
# _framework density 19.321543999999999
#
# number of rings (size 3 to 8) (size 9 to 14) (size 15 to 20)
#    0.000    2.000    3.750    0.750    0.000    1.500 
#    2.250    2.500    0.000    0.750    0.000    5.250 
#    0.000    0.000    0.000    0.000    0.000    0.000 
#
# Total GULP energy -356405.178982 kJ/mol
# GULP energy per Si atom -5568.830922 kJ/mol
# Density = 1.927757 g / cm^3
# Si number density = 19.321544 Si / 1000 Ang^3
#
#
#
# Elastic Constant Matrix: (Units=GPa)
#
#
# Indices 1 2 3 4 5 6 
#
# 1 106.6015 84.1821 15.9219 0.0000 0.0000 0.0000
# 2 84.1821 168.6574 23.6437 0.0000 0.0000 0.0000
# 3 15.9219 23.6437 22.8710 0.0000 0.0000 0.0000
# 4 0.0000 0.0000 0.0000 12.6817 0.0000 0.0000
# 5 0.0000 0.0000 0.0000 0.0000 16.7428 0.0000
# 6 0.0000 0.0000 0.0000 0.0000 0.0000 22.5270
#
#
#
# Elastic Compliance Matrix: (Units=1/GPa)
#
#
# Indices 1 2 3 4 5 6 
#
# 1 0.015695 -0.007370 -0.003307 0.000000 0.000000 0.000000
# 2 -0.007370 0.010395 -0.005615 0.000000 0.000000 0.000000
# 3 -0.003307 -0.005615 0.051831 0.000000 0.000000 0.000000
# 4 0.000000 0.000000 0.000000 0.078854 0.000000 0.000000
# 5 0.000000 0.000000 0.000000 0.000000 0.059727 0.000000
# 6 0.000000 0.000000 0.000000 0.000000 0.000000 0.044391
#
#
# Mechanical properties :
#
#
# Convention : Reuss Voigt Hill
#
# Bulk Modulus (GPa) = 22.05770 60.62500 41.34135
# Shear Modulus (GPa) = 16.20275 22.01579 19.10927
#
# Velocity S-wave (km/s) = 2.89897 3.37923 3.14827
# Velocity P-wave (km/s) = 4.75881 6.83159 5.88714
#
# Compressibility (1/GPa) = 0.04533564
#
# Stress axis : x y z
#
# Youngs Moduli (GPa) = 63.71543 96.19949 19.29352
#
# Poissons Ratio (x) = 0.70901 0.06380
# Poissons Ratio (y) = 0.46959 0.10834
# Poissons Ratio (z) = 0.21070 0.54020
#
# Static dielectric constant tensor:
#      x y z
#    x 1.655590 0.000000 0.000000 
#    y 0.000000 1.753650 0.000000 
#    z 0.000000 0.000000 1.760440 
# 
# From -- ./inp_files/42170.got.cif
#   From: 2010.05.17/outbox.cif.g08.bks.cpg/sg66_22_cif.got.tgz:42170.got - 2010.06.03 17:51:23.
