data_PCOD9496041
_publ_section_title
;
Structure prediction by ZEFSAII (Michael W. Deem and Ramdas Pophale) SiO2 
 PCOD9496041
Probable space group: C C C M
;
_chemical_formula_sum "Si O2"
_cell_formula_units_Z 116
_cell_length_a 22.596562
_cell_length_b 18.134309
_cell_length_c 14.389769
_cell_angle_alpha 90.000000
_cell_angle_beta 90.000000
_cell_angle_gamma 90.000000
_cell_volume 5896.539354
_symmetry_space_group_name_H-M "C C C M"
_symmetry_group_IT_number 66
_symmetry_cell_setting 'orthorhombic'
loop_
_space_group_symop_operation_xyz
x,y,z
-x,-y,z
x,-y,1/2-z
-x,y,1/2-z
-x,-y,-z
x,y,-z
-x,y,1/2+z
x,-y,1/2+z
1/2+x,1/2+y,z
1/2-x,1/2-y,z
1/2+x,1/2-y,1/2-z
1/2-x,1/2+y,1/2-z
1/2-x,1/2-y,-z
1/2+x,1/2+y,-z
1/2-x,1/2+y,1/2+z
1/2+x,1/2-y,1/2+z
loop_
_atom_site_type_symbol
_atom_site_label
_atom_site_fract_x
_atom_site_fract_y
_atom_site_fract_z
Si Si1 0.842180 0.709693 0.895237
Si Si2 0.954631 0.559335 0.394544
Si Si3 0.500000 0.500000 0.500000
Si Si4 0.269740 0.900226 0.711719
Si Si5 0.479741 0.208302 0.143579
Si Si6 0.155036 0.113901 0.104914
Si Si7 0.517580 0.378456 0.642631
Si Si8 0.178645 0.459997 0.387838
O O1 0.796355 0.676512 0.822849
O O2 0.910234 0.691494 0.870002
O O3 0.838262 0.797737 0.896831
O O4 0.829078 0.682674 0.000000
O O5 0.944992 0.532685 0.500000
O O6 0.888226 0.560729 0.357002
O O7 0.000000 0.500000 0.352036
O O8 0.983382 0.640129 0.396668
O O9 0.484613 0.437795 0.580475
O O10 0.202900 0.913239 0.678354
O O11 0.279051 0.911709 0.821133
O O12 0.308137 0.958384 0.650656
O O13 0.500000 0.209255 0.250000
O O14 0.489414 0.292738 0.110341
O O15 0.086779 0.100744 0.128755
O O16 0.166852 0.085750 0.000000
O O17 0.500000 0.382105 0.750000
O O18 0.186258 0.453440 0.500000
#
# Coordination Sequence:
#
# PCOD9496041 Si02
#       8
#    16  16   4  16  16  16  16  16
#     4  10  19  32  58  90 118 148 195 253 303 346
#     4  10  20  33  54  84 121 166 209 245 288 350
#     4  12  22  44  68  90 120 158 178 256 314 382
#     4  11  21  36  58  83 116 161 200 244 296 342
#     4  10  20  34  56  87 124 163 200 247 299 365
#     4  10  20  38  63  92 119 147 191 247 302 363
#     4  10  23  42  64  95 125 149 193 247 315 372
#     4  10  22  38  52  80 120 161 205 248 286 346
#
# _framework density 19.672556
#
# number of rings (size 3 to 8) (size 9 to 14) (size 15 to 20)
#    0.000    1.793    0.690    3.931    1.931    3.586 
#    4.966    0.000    0.000    1.655    0.000    0.000 
#    0.000    0.000    0.000    0.000    0.000    0.000 
#
# Total GULP energy -322925.808506 kJ/mol
# GULP energy per Si atom -5567.686354 kJ/mol
# Density = 1.962778 g / cm^3
# Si number density = 19.672556 Si / 1000 Ang^3
#
#
#
# Elastic Constant Matrix: (Units=GPa)
#
#
# Indices 1 2 3 4 5 6 
#
# 1 71.3339 10.8763 24.9610 0.0000 0.0000 0.0000
# 2 10.8763 58.1732 19.3674 0.0000 0.0000 0.0000
# 3 24.9610 19.3674 133.4363 0.0000 0.0000 0.0000
# 4 0.0000 0.0000 0.0000 33.7809 0.0000 0.0000
# 5 0.0000 0.0000 0.0000 0.0000 39.9907 0.0000
# 6 0.0000 0.0000 0.0000 0.0000 0.0000 17.3465
#
#
#
# Elastic Compliance Matrix: (Units=1/GPa)
#
#
# Indices 1 2 3 4 5 6 
#
# 1 0.015217 -0.001994 -0.002557 0.000000 0.000000 0.000000
# 2 -0.001994 0.018324 -0.002287 0.000000 0.000000 0.000000
# 3 -0.002557 -0.002287 0.008304 0.000000 0.000000 0.000000
# 4 0.000000 0.000000 0.000000 0.029603 0.000000 0.000000
# 5 0.000000 0.000000 0.000000 0.000000 0.025006 0.000000
# 6 0.000000 0.000000 0.000000 0.000000 0.000000 0.057649
#
#
# Mechanical properties :
#
#
# Convention : Reuss Voigt Hill
#
# Bulk Modulus (GPa) = 35.49792 41.48367 38.49079
# Shear Modulus (GPa) = 28.22173 32.07285 30.14729
#
# Velocity S-wave (km/s) = 3.79169 4.04212 3.91890
# Velocity P-wave (km/s) = 6.10350 6.55117 6.33129
#
# Compressibility (1/GPa) = 0.02817066
#
# Stress axis : x y z
#
# Youngs Moduli (GPa) = 65.71431 54.57294 120.41705
#
# Poissons Ratio (x) = 0.10880 0.30793
# Poissons Ratio (y) = 0.13102 0.27535
# Poissons Ratio (z) = 0.16805 0.12479
#
# Static dielectric constant tensor:
#      x y z
#    x 1.724380 0.000000 0.000000 
#    y 0.000000 1.737530 0.000000 
#    z 0.000000 0.000000 1.702530 
# 
# From -- ./inp_files/32645.got.cif
#   From: 2010.05.17/outbox.cif.g08.bks.cpg/sg66_17_cif.got.tgz:32645.got - 2010.06.03 17:51:23.
