data_PCOD9496787
_publ_section_title
;
Structure prediction by ZEFSAII (Michael W. Deem and Ramdas Pophale) SiO2 
 PCOD9496787
Probable space group: C C C M
;
_chemical_formula_sum "Si O2"
_cell_formula_units_Z 120
_cell_length_a 26.283629
_cell_length_b 7.018823
_cell_length_c 26.532905
_cell_angle_alpha 90.000000
_cell_angle_beta 90.000000
_cell_angle_gamma 90.000000
_cell_volume 4894.794022
_symmetry_space_group_name_H-M "C C C M"
_symmetry_group_IT_number 66
_symmetry_cell_setting 'orthorhombic'
loop_
_space_group_symop_operation_xyz
x,y,z
-x,-y,z
x,-y,1/2-z
-x,y,1/2-z
-x,-y,-z
x,y,-z
-x,y,1/2+z
x,-y,1/2+z
1/2+x,1/2+y,z
1/2-x,1/2-y,z
1/2+x,1/2-y,1/2-z
1/2-x,1/2+y,1/2-z
1/2-x,1/2-y,-z
1/2+x,1/2+y,-z
1/2-x,1/2+y,1/2+z
1/2+x,1/2-y,1/2+z
loop_
_atom_site_type_symbol
_atom_site_label
_atom_site_fract_x
_atom_site_fract_y
_atom_site_fract_z
Si Si1 0.411012 0.325415 0.942352
Si Si2 0.124856 0.619254 0.057372
Si Si3 0.117210 0.848170 0.288238
Si Si4 0.180884 0.928397 0.622509
Si Si5 0.989521 0.775717 0.806877
Si Si6 0.017669 0.704311 0.911040
Si Si7 0.208854 0.480221 0.364784
Si Si8 0.682180 0.000000 0.250000
O O1 0.364146 0.438003 0.917582
O O2 0.467924 0.334763 0.919508
O O3 0.393494 0.102657 0.940079
O O4 0.415855 0.378776 0.000000
O O5 0.072968 0.738552 0.066329
O O6 0.166629 0.632259 0.102278
O O7 0.144182 0.651707 0.000000
O O8 0.154333 0.966334 0.324067
O O9 0.070597 0.750965 0.317464
O O10 0.147952 0.683703 0.261086
O O11 0.094031 0.000000 0.250000
O O12 0.194901 0.703313 0.626816
O O13 0.233454 0.038163 0.615662
O O14 0.000000 0.710720 0.750000
O O15 0.023484 0.687049 0.850572
O O16 0.000000 0.000000 0.810053
O O17 0.000000 0.500000 0.932091
O O18 0.209652 0.457889 0.303677
#
# Coordination Sequence:
#
# PCOD9496787 Si02
#       8
#    16  16  16  16  16  16  16   8
#     4   9  16  30  53  82 114 153 203 254 311 373
#     4   9  18  31  51  82 118 158 201 258 318 367
#     4  11  22  40  61  85 125 166 204 256 317 380
#     4   9  18  34  54  82 117 157 201 258 309 370
#     4  11  23  38  53  82 121 154 198 255 312 386
#     4  10  20  33  55  83 117 155 202 252 309 383
#     4   9  19  34  53  83 122 153 206 266 304 374
#     4  10  24  38  61  90 122 164 215 256 314 390
#
# _framework density 24.515841000000002
#
# number of rings (size 3 to 8) (size 9 to 14) (size 15 to 20)
#    0.000    2.267    2.667    0.400    4.667    2.400 
#    0.000    2.667    0.000    1.600    0.000    0.000 
#    0.000    3.200    0.000    0.267    0.000    0.000 
#
# Total GULP energy -335357.360020 kJ/mol
# GULP energy per Si atom -5589.289334 kJ/mol
# Density = 2.446004 g / cm^3
# Si number density = 24.515841 Si / 1000 Ang^3
#
#
#
# Elastic Constant Matrix: (Units=GPa)
#
#
# Indices 1 2 3 4 5 6 
#
# 1 178.2722 30.1153 84.9664 0.0000 0.0000 0.0000
# 2 30.1153 49.6288 25.5621 0.0000 0.0000 0.0000
# 3 84.9664 25.5621 152.0642 0.0000 0.0000 0.0000
# 4 0.0000 0.0000 0.0000 20.9676 0.0000 0.0000
# 5 0.0000 0.0000 0.0000 0.0000 16.8467 0.0000
# 6 0.0000 0.0000 0.0000 0.0000 0.0000 38.0550
#
#
#
# Elastic Compliance Matrix: (Units=1/GPa)
#
#
# Indices 1 2 3 4 5 6 
#
# 1 0.007983 -0.002788 -0.003992 0.000000 0.000000 0.000000
# 2 -0.002788 0.023033 -0.002314 0.000000 0.000000 0.000000
# 3 -0.003992 -0.002314 0.009196 0.000000 0.000000 0.000000
# 4 0.000000 0.000000 0.000000 0.047693 0.000000 0.000000
# 5 0.000000 0.000000 0.000000 0.000000 0.059359 0.000000
# 6 0.000000 0.000000 0.000000 0.000000 0.000000 0.026278
#
#
# Mechanical properties :
#
#
# Convention : Reuss Voigt Hill
#
# Bulk Modulus (GPa) = 45.40511 73.47253 59.43882
# Shear Modulus (GPa) = 25.11674 31.12861 28.12268
#
# Velocity S-wave (km/s) = 3.20427 3.56720 3.39059
# Velocity P-wave (km/s) = 5.67897 6.85573 6.29491
#
# Compressibility (1/GPa) = 0.02202395
#
# Stress axis : x y z
#
# Youngs Moduli (GPa) = 125.26740 43.41532 108.74761
#
# Poissons Ratio (x) = 0.12105 0.43410
# Poissons Ratio (y) = 0.34926 0.25165
# Poissons Ratio (z) = 0.50004 0.10047
#
# Static dielectric constant tensor:
#      x y z
#    x 1.905610 0.000000 0.000000 
#    y 0.000000 2.003830 0.000000 
#    z 0.000000 0.000000 1.942210 
# 
# From -- ./inp_files/66346.got.cif
#   From: 2010.05.17/outbox.cif.g08.bks.cpg/sg66_34_cif.got.tgz:66346.got - 2010.06.03 17:51:23.
