data_PCOD9496637
_publ_section_title
;
Structure prediction by ZEFSAII (Michael W. Deem and Ramdas Pophale) SiO2 
 PCOD9496637
Probable space group: C C C M
;
_chemical_formula_sum "Si O2"
_cell_formula_units_Z 88
_cell_length_a 32.559340
_cell_length_b 5.242230
_cell_length_c 33.264944
_cell_angle_alpha 90.000000
_cell_angle_beta 90.000000
_cell_angle_gamma 90.000000
_cell_volume 5677.778697
_symmetry_space_group_name_H-M "C C C M"
_symmetry_group_IT_number 66
_symmetry_cell_setting 'orthorhombic'
loop_
_space_group_symop_operation_xyz
x,y,z
-x,-y,z
x,-y,1/2-z
-x,y,1/2-z
-x,-y,-z
x,y,-z
-x,y,1/2+z
x,-y,1/2+z
1/2+x,1/2+y,z
1/2-x,1/2-y,z
1/2+x,1/2-y,1/2-z
1/2-x,1/2+y,1/2-z
1/2-x,1/2-y,-z
1/2+x,1/2+y,-z
1/2-x,1/2+y,1/2+z
1/2+x,1/2-y,1/2+z
loop_
_atom_site_type_symbol
_atom_site_label
_atom_site_fract_x
_atom_site_fract_y
_atom_site_fract_z
Si Si1 0.550037 0.493983 0.095237
Si Si2 0.897879 0.102482 0.324286
Si Si3 0.643784 0.077421 0.205106
Si Si4 0.481933 0.749773 0.705083
Si Si5 0.276470 0.000000 0.750000
Si Si6 0.549616 0.994355 0.045598
O O1 0.500000 0.500000 0.100334
O O2 0.577094 0.542083 0.135051
O O3 0.561278 0.224830 0.075037
O O4 0.560429 0.723282 0.064715
O O5 0.867478 0.344759 0.324586
O O6 0.933897 0.208849 0.295056
O O7 0.875951 0.845923 0.308292
O O8 0.628299 0.000000 0.250000
O O9 0.692587 0.083634 0.213929
O O10 0.500000 0.500000 0.685372
O O11 0.500000 0.755489 0.750000
O O12 0.500000 0.000000 0.684156
O O13 0.250000 0.250000 0.760257
O O14 0.500000 0.000000 0.043571
O O15 0.564973 0.026283 0.000000
#
# Coordination Sequence:
#
# PCOD9496637 Si02
#       6
#    16  16  16  16   8  16
#     4  10  20  31  46  67  93 128 164 208 255 280
#     4  12  21  35  46  67  99 124 164 208 242 300
#     4  10  24  34  53  70  91 125 161 201 248 297
#     4  10  22  30  42  56  79 122 168 205 236 259
#     4  10  20  38  58  76  93 114 163 214 244 296
#     4   9  17  31  49  66  85 114 164 216 255 295
#
# _framework density 15.499019000000001
#
# number of rings (size 3 to 8) (size 9 to 14) (size 15 to 20)
#    0.545    1.273    0.000    4.909    7.636    4.364 
#    0.000    0.000    0.000    0.000    0.000    0.000 
#    0.000    0.000    0.000    0.000    0.000  229.091 
#
# Total GULP energy -244961.433792 kJ/mol
# GULP energy per Si atom -5567.305313 kJ/mol
# Density = 1.546374 g / cm^3
# Si number density = 15.499019 Si / 1000 Ang^3
#
#
#
# Elastic Constant Matrix: (Units=GPa)
#
#
# Indices 1 2 3 4 5 6 
#
# 1 74.1343 37.6354 19.7211 0.0000 0.0000 0.0000
# 2 37.6354 133.0104 14.7408 0.0000 0.0000 0.0000
# 3 19.7211 14.7408 66.9456 0.0000 0.0000 0.0000
# 4 0.0000 0.0000 0.0000 15.6691 0.0000 0.0000
# 5 0.0000 0.0000 0.0000 0.0000 7.7670 0.0000
# 6 0.0000 0.0000 0.0000 0.0000 0.0000 26.6189
#
#
#
# Elastic Compliance Matrix: (Units=1/GPa)
#
#
# Indices 1 2 3 4 5 6 
#
# 1 0.016727 -0.004292 -0.003983 0.000000 0.000000 0.000000
# 2 -0.004292 0.008807 -0.000675 0.000000 0.000000 0.000000
# 3 -0.003983 -0.000675 0.016259 0.000000 0.000000 0.000000
# 4 0.000000 0.000000 0.000000 0.063820 0.000000 0.000000
# 5 0.000000 0.000000 0.000000 0.000000 0.128750 0.000000
# 6 0.000000 0.000000 0.000000 0.000000 0.000000 0.037567
#
#
# Mechanical properties :
#
#
# Convention : Reuss Voigt Hill
#
# Bulk Modulus (GPa) = 41.84912 46.47610 44.16261
# Shear Modulus (GPa) = 16.79007 23.47718 20.13363
#
# Velocity S-wave (km/s) = 3.29492 3.89620 3.60811
# Velocity P-wave (km/s) = 6.44477 7.09169 6.77596
#
# Compressibility (1/GPa) = 0.02389536
#
# Stress axis : x y z
#
# Youngs Moduli (GPa) = 59.78294 113.54170 61.50312
#
# Poissons Ratio (x) = 0.48728 0.24494
# Poissons Ratio (y) = 0.25656 0.04152
# Poissons Ratio (z) = 0.23809 0.07665
#
# Static dielectric constant tensor:
#      x y z
#    x 1.560170 0.000000 0.000000 
#    y 0.000000 1.578350 0.000000 
#    z 0.000000 0.000000 1.497050 
# 
# From -- ./inp_files/70543.got.cif
#   From: 2010.05.17/outbox.cif.g08.bks.cpg/sg66_36_cif.got.tgz:70543.got - 2010.06.03 17:51:23.
