data_PCOD9496323
_publ_section_title
;
Structure prediction by ZEFSAII (Michael W. Deem and Ramdas Pophale) SiO2 
 PCOD9496323
Probable space group: C C C M
;
_chemical_formula_sum "Si O2"
_cell_formula_units_Z 52
_cell_length_a 27.223348
_cell_length_b 5.010400
_cell_length_c 14.628089
_cell_angle_alpha 90.000000
_cell_angle_beta 90.000000
_cell_angle_gamma 90.000000
_cell_volume 1995.269333
_symmetry_space_group_name_H-M "C C C M"
_symmetry_group_IT_number 66
_symmetry_cell_setting 'orthorhombic'
loop_
_space_group_symop_operation_xyz
x,y,z
-x,-y,z
x,-y,1/2-z
-x,y,1/2-z
-x,-y,-z
x,y,-z
-x,y,1/2+z
x,-y,1/2+z
1/2+x,1/2+y,z
1/2-x,1/2-y,z
1/2+x,1/2-y,1/2-z
1/2-x,1/2+y,1/2-z
1/2-x,1/2-y,-z
1/2+x,1/2+y,-z
1/2-x,1/2+y,1/2+z
1/2+x,1/2-y,1/2+z
loop_
_atom_site_type_symbol
_atom_site_label
_atom_site_fract_x
_atom_site_fract_y
_atom_site_fract_z
Si Si1 0.650514 0.521848 0.859544
Si Si2 0.500000 0.000000 0.750000
Si Si3 0.449855 0.658045 0.901943
Si Si4 0.207307 0.537944 0.859936
O O1 0.654694 0.500000 0.750000
O O2 0.594333 0.552911 0.886218
O O3 0.661519 0.219086 0.888152
O O4 0.691201 0.740129 0.890661
O O5 0.537893 0.159296 0.815327
O O6 0.500000 0.500000 0.909003
O O7 0.441688 0.797385 0.000000
O O8 0.213477 0.500000 0.750000
O O9 0.250000 0.750000 0.886866
#
# Coordination Sequence:
#
# PCOD9496323 Si02
#       4
#    16   4  16  16
#     4  10  21  36  63  98 138 192 238 308 370 441
#     4  12  24  44  76 104 144 196 260 316 374 458
#     4  11  26  45  69 104 148 196 248 311 381 457
#     4  10  19  34  61  98 139 183 245 307 370 434
#
# _framework density 26.061646
#
# number of rings (size 3 to 8) (size 9 to 14) (size 15 to 20)
#    0.000    1.538    0.000    6.462   10.769    0.000 
#    0.000    0.000    0.000    5.538    0.000    0.000 
#    0.000   11.077    0.000    0.000    0.000    0.000 
#
# Total GULP energy -144917.366177 kJ/mol
# GULP energy per Si atom -5573.744853 kJ/mol
# Density = 2.600233 g / cm^3
# Si number density = 26.061646 Si / 1000 Ang^3
#
#
#
# Elastic Constant Matrix: (Units=GPa)
#
#
# Indices 1 2 3 4 5 6 
#
# 1 140.0058 47.6170 22.1639 0.0000 0.0000 0.0000
# 2 47.6170 157.0518 45.9187 0.0000 0.0000 0.0000
# 3 22.1639 45.9187 162.3149 0.0000 0.0000 0.0000
# 4 0.0000 0.0000 0.0000 5.7457 0.0000 0.0000
# 5 0.0000 0.0000 0.0000 0.0000 199.8540 0.0000
# 6 0.0000 0.0000 0.0000 0.0000 0.0000 46.7242
#
#
#
# Elastic Compliance Matrix: (Units=1/GPa)
#
#
# Indices 1 2 3 4 5 6 
#
# 1 0.007993 -0.002294 -0.000442 0.000000 0.000000 0.000000
# 2 -0.002294 0.007600 -0.001837 0.000000 0.000000 0.000000
# 3 -0.000442 -0.001837 0.006741 0.000000 0.000000 0.000000
# 4 0.000000 0.000000 0.000000 0.174043 0.000000 0.000000
# 5 0.000000 0.000000 0.000000 0.000000 0.005004 0.000000
# 6 0.000000 0.000000 0.000000 0.000000 0.000000 0.021402
#
#
# Mechanical properties :
#
#
# Convention : Reuss Voigt Hill
#
# Bulk Modulus (GPa) = 75.83113 76.75240 76.29177
# Shear Modulus (GPa) = 21.15736 73.37631 47.26683
#
# Velocity S-wave (km/s) = 2.85234 5.31188 4.26332
# Velocity P-wave (km/s) = 6.32517 8.19363 7.31927
#
# Compressibility (1/GPa) = 0.01318720
#
# Stress axis : x y z
#
# Youngs Moduli (GPa) = 125.11242 131.58094 148.34824
#
# Poissons Ratio (x) = 0.30185 0.06563
# Poissons Ratio (y) = 0.28701 0.27248
# Poissons Ratio (z) = 0.05535 0.24168
#
# Static dielectric constant tensor:
#      x y z
#    x 2.102860 0.000000 0.000000 
#    y 0.000000 2.044150 0.000000 
#    z 0.000000 0.000000 2.183130 
# 
# From -- ./inp_files/43908.got.cif
#   From: 2010.05.17/outbox.cif.g08.bks.cpg/sg66_22_cif.got.tgz:43908.got - 2010.06.03 17:51:23.
