data_PCOD9496077
_publ_section_title
;
Structure prediction by ZEFSAII (Michael W. Deem and Ramdas Pophale) SiO2 
 PCOD9496077
Probable space group: C C C M
;
_chemical_formula_sum "Si O2"
_cell_formula_units_Z 80
_cell_length_a 18.816589
_cell_length_b 26.447709
_cell_length_c 8.461040
_cell_angle_alpha 90.000000
_cell_angle_beta 90.000000
_cell_angle_gamma 90.000000
_cell_volume 4210.684532
_symmetry_space_group_name_H-M "C C C M"
_symmetry_group_IT_number 66
_symmetry_cell_setting 'orthorhombic'
loop_
_space_group_symop_operation_xyz
x,y,z
-x,-y,z
x,-y,1/2-z
-x,y,1/2-z
-x,-y,-z
x,y,-z
-x,y,1/2+z
x,-y,1/2+z
1/2+x,1/2+y,z
1/2-x,1/2-y,z
1/2+x,1/2-y,1/2-z
1/2-x,1/2+y,1/2-z
1/2-x,1/2-y,-z
1/2+x,1/2+y,-z
1/2-x,1/2+y,1/2+z
1/2+x,1/2-y,1/2+z
loop_
_atom_site_type_symbol
_atom_site_label
_atom_site_fract_x
_atom_site_fract_y
_atom_site_fract_z
Si Si1 0.420177 0.444454 0.311837
Si Si2 0.580268 0.055023 0.689660
Si Si3 0.832351 0.849868 0.808626
Si Si4 0.668782 0.847477 0.807147
Si Si5 0.580479 0.250815 0.308828
O O1 0.399460 0.500000 0.250000
O O2 0.500000 0.434116 0.250000
O O3 0.421941 0.445368 0.500000
O O4 0.368087 0.400971 0.252217
O O5 0.500000 0.063418 0.750000
O O6 0.578802 0.054087 0.500000
O O7 0.630566 0.100740 0.742883
O O8 0.603771 0.000000 0.750000
O O9 0.750611 0.844966 0.756615
O O10 0.878460 0.801446 0.757279
O O11 0.832952 0.850804 0.000000
O O12 0.623536 0.798860 0.755669
O O13 0.668763 0.847054 0.000000
O O14 0.500000 0.250155 0.250000
O O15 0.579833 0.250564 0.500000
#
# Coordination Sequence:
#
# PCOD9496077 Si02
#       5
#    16  16  16  16  16
#     4  11  22  38  59  83 111 144 184 225 269 319
#     4  10  19  33  53  76 104 137 178 222 266 317
#     4  10  20  36  57  81 111 144 180 223 272 325
#     4   9  19  35  55  79 107 143 183 222 267 323
#     4  10  20  35  57  81 107 142 183 225 270 323
#
# _framework density 18.999285
#
# number of rings (size 3 to 8) (size 9 to 14) (size 15 to 20)
#    0.000    2.000    0.000    5.400    0.000    5.600 
#    0.000    6.000    0.000    2.400    0.000    0.000 
#    0.000    0.000    0.000    0.000    0.000    0.000 
#
# Total GULP energy -223469.626506 kJ/mol
# GULP energy per Si atom -5586.740663 kJ/mol
# Density = 1.895604 g / cm^3
# Si number density = 18.999285 Si / 1000 Ang^3
#
#
#
# Elastic Constant Matrix: (Units=GPa)
#
#
# Indices 1 2 3 4 5 6 
#
# 1 180.8463 145.7833 30.4257 0.0000 0.0000 0.0000
# 2 145.7833 192.0147 33.3932 0.0000 0.0000 0.0000
# 3 30.4257 33.3932 39.7699 0.0000 0.0000 0.0000
# 4 0.0000 0.0000 0.0000 21.0006 0.0000 0.0000
# 5 0.0000 0.0000 0.0000 0.0000 24.7516 0.0000
# 6 0.0000 0.0000 0.0000 0.0000 0.0000 35.6639
#
#
#
# Elastic Compliance Matrix: (Units=1/GPa)
#
#
# Indices 1 2 3 4 5 6 
#
# 1 0.014408 -0.010565 -0.002152 0.000000 0.000000 0.000000
# 2 -0.010565 0.013845 -0.003543 0.000000 0.000000 0.000000
# 3 -0.002152 -0.003543 0.029766 0.000000 0.000000 0.000000
# 4 0.000000 0.000000 0.000000 0.047618 0.000000 0.000000
# 5 0.000000 0.000000 0.000000 0.000000 0.040401 0.000000
# 6 0.000000 0.000000 0.000000 0.000000 0.000000 0.028040
#
#
# Mechanical properties :
#
#
# Convention : Reuss Voigt Hill
#
# Bulk Modulus (GPa) = 39.21570 92.42616 65.82093
# Shear Modulus (GPa) = 23.24538 29.81846 26.53192
#
# Velocity S-wave (km/s) = 3.50163 3.96593 3.74099
# Velocity P-wave (km/s) = 6.08556 8.35010 7.30610
#
# Compressibility (1/GPa) = 0.02549999
#
# Stress axis : x y z
#
# Youngs Moduli (GPa) = 69.40557 72.22744 33.59571
#
# Poissons Ratio (x) = 0.76307 0.07230
# Poissons Ratio (y) = 0.73326 0.11902
# Poissons Ratio (z) = 0.14936 0.25588
#
# Static dielectric constant tensor:
#      x y z
#    x 1.626070 0.000000 0.000000 
#    y 0.000000 1.644690 0.000000 
#    z 0.000000 0.000000 1.658800 
# 
# From -- ./inp_files/6706.got.cif
#   From: 2010.05.17/outbox.cif.g08.bks.cpg/sg66_4_cif.got.tgz:6706.got - 2010.06.03 17:51:23.
