data_PCOD9496193
_publ_section_title
;
Structure prediction by ZEFSAII (Michael W. Deem and Ramdas Pophale) SiO2 
 PCOD9496193
Probable space group: C C C M
;
_chemical_formula_sum "Si O2"
_cell_formula_units_Z 116
_cell_length_a 25.006628
_cell_length_b 15.537769
_cell_length_c 16.138034
_cell_angle_alpha 90.000000
_cell_angle_beta 90.000000
_cell_angle_gamma 90.000000
_cell_volume 6270.388075
_symmetry_space_group_name_H-M "C C C M"
_symmetry_group_IT_number 66
_symmetry_cell_setting 'orthorhombic'
loop_
_space_group_symop_operation_xyz
x,y,z
-x,-y,z
x,-y,1/2-z
-x,y,1/2-z
-x,-y,-z
x,y,-z
-x,y,1/2+z
x,-y,1/2+z
1/2+x,1/2+y,z
1/2-x,1/2-y,z
1/2+x,1/2-y,1/2-z
1/2-x,1/2+y,1/2-z
1/2-x,1/2-y,-z
1/2+x,1/2+y,-z
1/2-x,1/2+y,1/2+z
1/2+x,1/2-y,1/2+z
loop_
_atom_site_type_symbol
_atom_site_label
_atom_site_fract_x
_atom_site_fract_y
_atom_site_fract_z
Si Si1 0.672687 0.237595 0.648956
Si Si2 0.204981 0.440329 0.905122
Si Si3 0.669392 0.262190 0.834095
Si Si4 0.750000 0.250000 0.500000
Si Si5 0.061642 0.692923 0.099490
Si Si6 0.245517 0.616660 0.902497
Si Si7 0.094554 0.503381 0.847233
Si Si8 0.056275 0.323878 0.900689
O O1 0.697365 0.140661 0.653522
O O2 0.677873 0.280715 0.737475
O O3 0.705708 0.276273 0.573431
O O4 0.610001 0.223161 0.629315
O O5 0.245126 0.515677 0.881233
O O6 0.147598 0.487221 0.901547
O O7 0.214492 0.405461 0.000000
O O8 0.607986 0.247738 0.857298
O O9 0.698982 0.335852 0.885582
O O10 0.700746 0.173362 0.856055
O O11 0.070165 0.594380 0.128324
O O12 0.000692 0.717468 0.120960
O O13 0.068229 0.697050 0.000000
O O14 0.232633 0.620730 0.000000
O O15 0.108701 0.500000 0.750000
O O16 0.057882 0.420855 0.865256
O O17 0.059509 0.330448 0.000000
#
# Coordination Sequence:
#
# PCOD9496193 Si02
#       8
#    16  16  16   4  16  16  16  16
#     4  11  22  36  55  76 106 136 185 220 268 318
#     4  10  19  34  51  71  98 139 180 220 264 309
#     4  11  21  33  49  80 102 138 178 224 270 317
#     4  12  20  40  60  72 104 148 176 218 272 332
#     4  11  20  32  51  69 101 143 182 213 267 315
#     4  10  20  34  52  70 106 136 177 220 268 319
#     4  11  20  29  44  69 100 137 181 224 258 301
#     4  10  21  35  47  68  99 139 181 224 250 314
#
# _framework density 18.499652999999999
#
# number of rings (size 3 to 8) (size 9 to 14) (size 15 to 20)
#    0.000    1.379    2.759    6.621    0.000    3.862 
#    0.000    0.000    0.000    0.000    0.000    0.000 
#    0.000    2.207    0.000    5.517    0.000    0.000 
#
# Total GULP energy -323405.571071 kJ/mol
# GULP energy per Si atom -5575.958122 kJ/mol
# Density = 1.845755 g / cm^3
# Si number density = 18.499653 Si / 1000 Ang^3
#
#
#
# Elastic Constant Matrix: (Units=GPa)
#
#
# Indices 1 2 3 4 5 6 
#
# 1 111.8467 13.5712 25.5282 0.0000 0.0000 0.0000
# 2 13.5712 8.9124 2.3073 0.0000 0.0000 0.0000
# 3 25.5282 2.3073 89.7999 0.0000 0.0000 0.0000
# 4 0.0000 0.0000 0.0000 10.9614 0.0000 0.0000
# 5 0.0000 0.0000 0.0000 0.0000 -16.1276 0.0000
# 6 0.0000 0.0000 0.0000 0.0000 0.0000 24.9006
#
#
#
# Elastic Compliance Matrix: (Units=1/GPa)
#
#
# Indices 1 2 3 4 5 6 
#
# 1 0.011662 -0.017013 -0.002878 0.000000 0.000000 0.000000
# 2 -0.017013 0.137774 0.001296 0.000000 0.000000 0.000000
# 3 -0.002878 0.001296 0.011921 0.000000 0.000000 0.000000
# 4 0.000000 0.000000 0.000000 0.091229 0.000000 0.000000
# 5 0.000000 0.000000 0.000000 0.000000 -0.062006 0.000000
# 6 0.000000 0.000000 0.000000 0.000000 0.000000 0.040160
#
#
# Mechanical properties :
#
#
# Convention : Reuss Voigt Hill
#
# Bulk Modulus (GPa) = 8.05363 32.59693 20.32528
# Shear Modulus (GPa) = 16.16454 15.22371 15.69412
#
# Velocity S-wave (km/s) = 2.95918 2.87177 2.91580
# Velocity P-wave (km/s) = 4.00481 5.35300 4.72721
#
# Compressibility (1/GPa) = 0.12416763
#
# Stress axis : x y z
#
# Youngs Moduli (GPa) = 85.74818 7.25824 83.88730
#
# Poissons Ratio (x) = 0.12349 0.24144
# Poissons Ratio (y) = 1.45885 -0.10876
# Poissons Ratio (z) = 0.24679 -0.00941
#
# Static dielectric constant tensor:
#      x y z
#    x 1.586340 0.000000 0.000000 
#    y 0.000000 1.605080 0.000000 
#    z 0.000000 0.000000 1.646620 
# 
# From -- ./inp_files/32658.got.cif
#   From: 2010.05.17/outbox.cif.g08.bks.cpg/sg66_17_cif.got.tgz:32658.got - 2010.06.03 17:51:23.
