data_PCOD9496451
_publ_section_title
;
Structure prediction by ZEFSAII (Michael W. Deem and Ramdas Pophale) SiO2 
 PCOD9496451
Probable space group: C C C M
;
_chemical_formula_sum "Si O2"
_cell_formula_units_Z 96
_cell_length_a 11.143388
_cell_length_b 21.075005
_cell_length_c 20.055997
_cell_angle_alpha 90.000000
_cell_angle_beta 90.000000
_cell_angle_gamma 90.000000
_cell_volume 4710.089881
_symmetry_space_group_name_H-M "C C C M"
_symmetry_group_IT_number 66
_symmetry_cell_setting 'orthorhombic'
loop_
_space_group_symop_operation_xyz
x,y,z
-x,-y,z
x,-y,1/2-z
-x,y,1/2-z
-x,-y,-z
x,y,-z
-x,y,1/2+z
x,-y,1/2+z
1/2+x,1/2+y,z
1/2-x,1/2-y,z
1/2+x,1/2-y,1/2-z
1/2-x,1/2+y,1/2-z
1/2-x,1/2-y,-z
1/2+x,1/2+y,-z
1/2-x,1/2+y,1/2+z
1/2+x,1/2-y,1/2+z
loop_
_atom_site_type_symbol
_atom_site_label
_atom_site_fract_x
_atom_site_fract_y
_atom_site_fract_z
Si Si1 0.299649 0.040470 0.628655
Si Si2 0.877865 0.769795 0.293081
Si Si3 0.482111 0.852712 0.830499
Si Si4 0.364367 0.408119 0.265903
Si Si5 0.272469 0.105279 0.873375
Si Si6 0.886531 0.907749 0.000000
Si Si7 0.345822 0.560680 0.000000
O O1 0.409985 0.085018 0.647661
O O2 0.206825 0.042069 0.690117
O O3 0.233205 0.070069 0.565299
O O4 0.323509 0.966389 0.616305
O O5 0.750000 0.750000 0.260591
O O6 0.906682 0.711757 0.342753
O O7 0.863510 0.843431 0.310175
O O8 0.000000 0.771172 0.250000
O O9 0.500000 0.858580 0.750000
O O10 0.611221 0.850784 0.865480
O O11 0.500000 0.425959 0.250000
O O12 0.298055 0.392870 0.196673
O O13 0.181439 0.117305 0.934166
O O14 0.030144 0.900471 0.000000
O O15 0.872580 0.984615 0.000000
#
# Coordination Sequence:
#
# PCOD9496451 Si02
#       7
#    16  16  16  16  16   8   8
#     4  11  21  35  57  86 125 157 205 246 318 367
#     4  10  19  36  57  83 120 155 205 252 306 364
#     4  11  21  36  57  86 122 158 200 256 311 367
#     4  11  21  33  57  89 116 157 205 260 302 363
#     4  11  22  36  58  89 122 164 196 256 312 376
#     4   9  20  39  57  80 127 165 206 243 319 372
#     4   9  20  37  57  83 120 173 199 252 298 389
#
# _framework density 20.381777
#
# number of rings (size 3 to 8) (size 9 to 14) (size 15 to 20)
#    0.000    1.500    3.333    3.000    0.000    4.000 
#    0.000    2.500    0.000    3.000    0.000   33.250 
#    0.000    0.000    0.000    0.000    0.000    0.000 
#
# Total GULP energy -267682.695009 kJ/mol
# GULP energy per Si atom -5576.722813 kJ/mol
# Density = 2.033539 g / cm^3
# Si number density = 20.381777 Si / 1000 Ang^3
#
#
#
# Elastic Constant Matrix: (Units=GPa)
#
#
# Indices 1 2 3 4 5 6 
#
# 1 113.4161 15.4274 35.7208 0.0000 0.0000 0.0000
# 2 15.4274 65.6728 3.3716 0.0000 0.0000 0.0000
# 3 35.7208 3.3716 107.1001 0.0000 0.0000 0.0000
# 4 0.0000 0.0000 0.0000 15.7993 0.0000 0.0000
# 5 0.0000 0.0000 0.0000 0.0000 19.9061 0.0000
# 6 0.0000 0.0000 0.0000 0.0000 0.0000 13.8206
#
#
#
# Elastic Compliance Matrix: (Units=1/GPa)
#
#
# Indices 1 2 3 4 5 6 
#
# 1 0.010164 -0.002217 -0.003320 0.000000 0.000000 0.000000
# 2 -0.002217 0.015735 0.000244 0.000000 0.000000 0.000000
# 3 -0.003320 0.000244 0.010437 0.000000 0.000000 0.000000
# 4 0.000000 0.000000 0.000000 0.063294 0.000000 0.000000
# 5 0.000000 0.000000 0.000000 0.000000 0.050236 0.000000
# 6 0.000000 0.000000 0.000000 0.000000 0.000000 0.072356
#
#
# Mechanical properties :
#
#
# Convention : Reuss Voigt Hill
#
# Bulk Modulus (GPa) = 38.83541 43.91427 41.37484
# Shear Modulus (GPa) = 20.71318 25.34982 23.03150
#
# Velocity S-wave (km/s) = 3.19134 3.53051 3.36520
# Velocity P-wave (km/s) = 5.71620 6.18158 5.95344
#
# Compressibility (1/GPa) = 0.02574969
#
# Stress axis : x y z
#
# Youngs Moduli (GPa) = 98.38221 63.55117 95.81498
#
# Poissons Ratio (x) = 0.14091 0.31814
# Poissons Ratio (y) = 0.21814 -0.02340
# Poissons Ratio (z) = 0.32666 -0.01552
#
# Static dielectric constant tensor:
#      x y z
#    x 1.745320 0.000000 0.000000 
#    y 0.000000 1.780400 0.000000 
#    z 0.000000 0.000000 1.711430 
# 
# From -- ./inp_files/48833.got.cif
#   From: 2010.05.17/outbox.cif.g08.bks.cpg/sg66_25_cif.got.tgz:48833.got - 2010.06.03 17:51:23.
