data_PCOD9496808
_publ_section_title
;
Structure prediction by ZEFSAII (Michael W. Deem and Ramdas Pophale) SiO2 
 PCOD9496808
Probable space group: C C C M
;
_chemical_formula_sum "Si O2"
_cell_formula_units_Z 64
_cell_length_a 44.265519
_cell_length_b 9.586705
_cell_length_c 7.832904
_cell_angle_alpha 90.000000
_cell_angle_beta 90.000000
_cell_angle_gamma 90.000000
_cell_volume 3323.974841
_symmetry_space_group_name_H-M "C C C M"
_symmetry_group_IT_number 66
_symmetry_cell_setting 'orthorhombic'
loop_
_space_group_symop_operation_xyz
x,y,z
-x,-y,z
x,-y,1/2-z
-x,y,1/2-z
-x,-y,-z
x,y,-z
-x,y,1/2+z
x,-y,1/2+z
1/2+x,1/2+y,z
1/2-x,1/2-y,z
1/2+x,1/2-y,1/2-z
1/2-x,1/2+y,1/2-z
1/2-x,1/2-y,-z
1/2+x,1/2+y,-z
1/2-x,1/2+y,1/2+z
1/2+x,1/2-y,1/2+z
loop_
_atom_site_type_symbol
_atom_site_label
_atom_site_fract_x
_atom_site_fract_y
_atom_site_fract_z
Si Si1 0.090062 0.163256 0.206409
Si Si2 0.466436 0.162370 0.797593
Si Si3 0.778584 0.836679 0.206169
Si Si4 0.844270 0.835783 0.794738
O O1 0.061477 0.249022 0.274251
O O2 0.123074 0.216586 0.268188
O O3 0.087211 0.000000 0.250000
O O4 0.090340 0.173328 0.000000
O O5 0.500000 0.212513 0.750000
O O6 0.463952 0.000000 0.750000
O O7 0.464658 0.170773 0.000000
O O8 0.750000 0.750000 0.271417
O O9 0.811601 0.783771 0.268389
O O10 0.775682 0.000000 0.250000
O O11 0.778791 0.826156 0.000000
O O12 0.844310 0.000000 0.750000
O O13 0.844231 0.821253 0.000000
#
# Coordination Sequence:
#
# PCOD9496808 Si02
#       4
#    16  16  16  16
#     4   9  18  31  49  71  92 116 149 188 226 265
#     4  10  20  34  50  68  91 121 153 183 221 268
#     4   9  17  29  46  67  91 120 152 186 224 265
#     4   8  14  27  45  64  88 117 148 182 221 264
#
# _framework density 19.254059000000002
#
# number of rings (size 3 to 8) (size 9 to 14) (size 15 to 20)
#    0.000    3.000    0.000    1.500    0.000    3.000 
#    0.000    3.750    0.000    0.000    0.000    0.000 
#    0.000    0.000    0.000    0.000    0.000    0.000 
#
# Total GULP energy -178147.184760 kJ/mol
# GULP energy per Si atom -5567.099524 kJ/mol
# Density = 1.921024 g / cm^3
# Si number density = 19.254059 Si / 1000 Ang^3
#
#
#
# Elastic Constant Matrix: (Units=GPa)
#
#
# Indices 1 2 3 4 5 6 
#
# 1 271.3194 79.3441 14.4258 0.0000 0.0000 0.0000
# 2 79.3441 40.3471 -1.1996 0.0000 0.0000 0.0000
# 3 14.4258 -1.1996 27.4993 0.0000 0.0000 0.0000
# 4 0.0000 0.0000 0.0000 15.8494 0.0000 0.0000
# 5 0.0000 0.0000 0.0000 0.0000 0.3751 0.0000
# 6 0.0000 0.0000 0.0000 0.0000 0.0000 32.2748
#
#
#
# Elastic Compliance Matrix: (Units=1/GPa)
#
#
# Indices 1 2 3 4 5 6 
#
# 1 0.009521 -0.018897 -0.005819 0.000000 0.000000 0.000000
# 2 -0.018897 0.062322 0.012632 0.000000 0.000000 0.000000
# 3 -0.005819 0.012632 0.039968 0.000000 0.000000 0.000000
# 4 0.000000 0.000000 0.000000 0.063094 0.000000 0.000000
# 5 0.000000 0.000000 0.000000 0.000000 2.666300 0.000000
# 6 0.000000 0.000000 0.000000 0.000000 0.000000 0.030984
#
#
# Mechanical properties :
#
#
# Convention : Reuss Voigt Hill
#
# Bulk Modulus (GPa) = 11.40989 58.25625 34.83307
# Shear Modulus (GPa) = 1.70907 26.13955 13.92431
#
# Velocity S-wave (km/s) = 0.94317 3.68858 2.69213
# Velocity P-wave (km/s) = 2.66925 6.96154 5.27200
#
# Compressibility (1/GPa) = 0.08764325
#
# Stress axis : x y z
#
# Youngs Moduli (GPa) = 105.02774 16.04564 25.01983
#
# Poissons Ratio (x) = 0.30321 0.14559
# Poissons Ratio (y) = 1.98471 -0.31605
# Poissons Ratio (z) = 0.61117 -0.20269
#
# Static dielectric constant tensor:
#      x y z
#    x 1.777010 0.000000 0.000000 
#    y 0.000000 1.632870 0.000000 
#    z 0.000000 0.000000 1.733060 
# 
# From -- ./inp_files/11189.got.cif
#   From: 2010.05.17/outbox.cif.g08.bks.cpg/sg66_6_cif.got.tgz:11189.got - 2010.06.03 17:51:23.
