data_PCOD9496793
_publ_section_title
;
Structure prediction by ZEFSAII (Michael W. Deem and Ramdas Pophale) SiO2 
 PCOD9496793
Probable space group: C C C M
;
_chemical_formula_sum "Si O2"
_cell_formula_units_Z 80
_cell_length_a 14.326388
_cell_length_b 19.615633
_cell_length_c 14.395633
_cell_angle_alpha 90.000000
_cell_angle_beta 90.000000
_cell_angle_gamma 90.000000
_cell_volume 4045.477617
_symmetry_space_group_name_H-M "C C C M"
_symmetry_group_IT_number 66
_symmetry_cell_setting 'orthorhombic'
loop_
_space_group_symop_operation_xyz
x,y,z
-x,-y,z
x,-y,1/2-z
-x,y,1/2-z
-x,-y,-z
x,y,-z
-x,y,1/2+z
x,-y,1/2+z
1/2+x,1/2+y,z
1/2-x,1/2-y,z
1/2+x,1/2-y,1/2-z
1/2-x,1/2+y,1/2-z
1/2-x,1/2-y,-z
1/2+x,1/2+y,-z
1/2-x,1/2+y,1/2+z
1/2+x,1/2-y,1/2+z
loop_
_atom_site_type_symbol
_atom_site_label
_atom_site_fract_x
_atom_site_fract_y
_atom_site_fract_z
Si Si1 0.182983 0.316452 0.597743
Si Si2 0.648525 0.427120 0.718316
Si Si3 0.795059 0.674295 0.200914
Si Si4 0.531031 0.231668 0.395755
Si Si5 0.979119 0.113546 0.111698
O O1 0.199939 0.352945 0.500000
O O2 0.250000 0.250000 0.597600
O O3 0.200191 0.352515 0.693639
O O4 0.075438 0.293430 0.602069
O O5 0.686333 0.500000 0.750000
O O6 0.722302 0.380275 0.662524
O O7 0.604814 0.394266 0.813755
O O8 0.560784 0.435948 0.648226
O O9 0.750000 0.750000 0.196735
O O10 0.898998 0.686628 0.164477
O O11 0.569644 0.228755 0.500000
O O12 0.521969 0.310854 0.369862
O O13 0.958625 0.108686 0.000000
#
# Coordination Sequence:
#
# PCOD9496793 Si02
#       5
#    16  16  16  16  16
#     4   9  18  31  51  82 110 138 183 236 288 336
#     4  11  24  37  54  86 119 153 199 241 294 365
#     4  11  20  34  56  78 114 154 188 232 287 335
#     4  10  20  33  56  87 114 146 194 240 287 347
#     4  10  20  37  59  82 115 156 198 246 298 352
#
# _framework density 19.775167
#
# number of rings (size 3 to 8) (size 9 to 14) (size 15 to 20)
#    0.000    1.800    2.000    4.200    2.800    5.200 
#    0.000    0.000    0.000    2.400    0.000    2.800 
#    0.000    0.000    0.000    0.000    0.000    0.000 
#
# Total GULP energy -222752.759247 kJ/mol
# GULP energy per Si atom -5568.818981 kJ/mol
# Density = 1.973016 g / cm^3
# Si number density = 19.775167 Si / 1000 Ang^3
#
#
#
# Elastic Constant Matrix: (Units=GPa)
#
#
# Indices 1 2 3 4 5 6 
#
# 1 117.9143 29.1229 26.2725 0.0000 0.0000 0.0000
# 2 29.1229 60.9908 0.1222 0.0000 0.0000 0.0000
# 3 26.2725 0.1222 88.8183 0.0000 0.0000 0.0000
# 4 0.0000 0.0000 0.0000 -32.2072 0.0000 0.0000
# 5 0.0000 0.0000 0.0000 0.0000 23.9582 0.0000
# 6 0.0000 0.0000 0.0000 0.0000 0.0000 24.3123
#
#
#
# Elastic Compliance Matrix: (Units=1/GPa)
#
#
# Indices 1 2 3 4 5 6 
#
# 1 0.010387 -0.004954 -0.003066 0.000000 0.000000 0.000000
# 2 -0.004954 0.018758 0.001440 0.000000 0.000000 0.000000
# 3 -0.003066 0.001440 0.012164 0.000000 0.000000 0.000000
# 4 0.000000 0.000000 0.000000 -0.031049 0.000000 0.000000
# 5 0.000000 0.000000 0.000000 0.000000 0.041739 0.000000
# 6 0.000000 0.000000 0.000000 0.000000 0.000000 0.041131
#
#
# Mechanical properties :
#
#
# Convention : Reuss Voigt Hill
#
# Bulk Modulus (GPa) = 35.52455 42.08430 38.80442
# Shear Modulus (GPa) = 43.22474 17.35972 30.29223
#
# Velocity S-wave (km/s) = 4.68034 2.96608 3.91811
# Velocity P-wave (km/s) = 6.87100 5.74958 6.33515
#
# Compressibility (1/GPa) = 0.02814955
#
# Stress axis : x y z
#
# Youngs Moduli (GPa) = 96.27125 53.30934 82.21102
#
# Poissons Ratio (x) = 0.26408 0.25204
# Poissons Ratio (y) = 0.47690 -0.11834
# Poissons Ratio (z) = 0.29514 -0.07674
#
# Static dielectric constant tensor:
#      x y z
#    x 1.741150 0.000000 0.000000 
#    y 0.000000 1.925460 0.000000 
#    z 0.000000 0.000000 1.780100 
# 
# From -- ./inp_files/28092.got.cif
#   From: 2010.05.17/outbox.cif.g08.bks.cpg/sg66_15_cif.got.tgz:28092.got - 2010.06.03 17:51:23.
