data_PCOD9496753
_publ_section_title
;
Structure prediction by ZEFSAII (Michael W. Deem and Ramdas Pophale) SiO2 
 PCOD9496753
Probable space group: C C C M
;
_chemical_formula_sum "Si O2"
_cell_formula_units_Z 80
_cell_length_a 35.148643
_cell_length_b 4.976655
_cell_length_c 22.155497
_cell_angle_alpha 90.000000
_cell_angle_beta 90.000000
_cell_angle_gamma 90.000000
_cell_volume 3875.498689
_symmetry_space_group_name_H-M "C C C M"
_symmetry_group_IT_number 66
_symmetry_cell_setting 'orthorhombic'
loop_
_space_group_symop_operation_xyz
x,y,z
-x,-y,z
x,-y,1/2-z
-x,y,1/2-z
-x,-y,-z
x,y,-z
-x,y,1/2+z
x,-y,1/2+z
1/2+x,1/2+y,z
1/2-x,1/2-y,z
1/2+x,1/2-y,1/2-z
1/2-x,1/2+y,1/2-z
1/2-x,1/2-y,-z
1/2+x,1/2+y,-z
1/2-x,1/2+y,1/2+z
1/2+x,1/2-y,1/2+z
loop_
_atom_site_type_symbol
_atom_site_label
_atom_site_fract_x
_atom_site_fract_y
_atom_site_fract_z
Si Si1 0.607854 0.202192 0.875391
Si Si2 0.629258 0.301588 0.695160
Si Si3 0.709804 0.665698 0.854909
Si Si4 0.525973 0.738066 0.430966
Si Si5 0.312004 0.153855 0.430982
O O1 0.615585 0.513069 0.860133
O O2 0.565263 0.190331 0.898983
O O3 0.642388 0.132138 0.920545
O O4 0.613567 0.995496 0.818980
O O5 0.618749 0.500000 0.750000
O O6 0.674936 0.283016 0.690649
O O7 0.750000 0.750000 0.827269
O O8 0.704509 0.370511 0.883299
O O9 0.704472 0.868447 0.911132
O O10 0.500000 0.500000 0.403788
O O11 0.535361 0.656301 0.500000
O O12 0.500000 0.000000 0.432153
O O13 0.303492 0.222800 0.500000
#
# Coordination Sequence:
#
# PCOD9496753 Si02
#       5
#    16  16  16  16  16
#     4  10  20  36  57  80 110 142 183 229 266 325
#     4  10  21  38  58  78 102 142 189 232 280 321
#     4  10  21  35  51  77 108 138 181 230 275 327
#     4  10  20  34  56  87 119 148 176 213 269 330
#     4  10  20  33  52  77 108 147 181 215 267 330
#
# _framework density 20.642505
#
# number of rings (size 3 to 8) (size 9 to 14) (size 15 to 20)
#    0.000    2.000    0.000    3.600    0.000    2.400 
#    0.000   12.000    0.000    9.000    0.000    0.000 
#    0.000    0.000    0.000    0.000    0.000    0.000 
#
# Total GULP energy -223073.973042 kJ/mol
# GULP energy per Si atom -5576.849326 kJ/mol
# Density = 2.059552 g / cm^3
# Si number density = 20.642505 Si / 1000 Ang^3
#
#
#
# Elastic Constant Matrix: (Units=GPa)
#
#
# Indices 1 2 3 4 5 6 
#
# 1 137.7779 20.8927 3.1822 0.0000 0.0000 0.0000
# 2 20.8927 111.0733 3.4313 0.0000 0.0000 0.0000
# 3 3.1822 3.4313 14.4165 0.0000 0.0000 0.0000
# 4 0.0000 0.0000 0.0000 -1.7380 0.0000 0.0000
# 5 0.0000 0.0000 0.0000 0.0000 1.6903 0.0000
# 6 0.0000 0.0000 0.0000 0.0000 0.0000 24.0448
#
#
#
# Elastic Compliance Matrix: (Units=1/GPa)
#
#
# Indices 1 2 3 4 5 6 
#
# 1 0.007496 -0.001369 -0.001329 0.000000 0.000000 0.000000
# 2 -0.001369 0.009320 -0.001916 0.000000 0.000000 0.000000
# 3 -0.001329 -0.001916 0.070114 0.000000 0.000000 0.000000
# 4 0.000000 0.000000 0.000000 -0.575370 0.000000 0.000000
# 5 0.000000 0.000000 0.000000 0.000000 0.591623 0.000000
# 6 0.000000 0.000000 0.000000 0.000000 0.000000 0.041589
#
#
# Mechanical properties :
#
#
# Convention : Reuss Voigt Hill
#
# Bulk Modulus (GPa) = 12.86957 35.36444 24.11700
# Shear Modulus (GPa) = 27.79311 20.51685 24.15498
#
# Velocity S-wave (km/s) = 3.67332 3.15606 3.42447
# Velocity P-wave (km/s) = 4.92332 5.51815 5.22920
#
# Compressibility (1/GPa) = 0.07770270
#
# Stress axis : x y z
#
# Youngs Moduli (GPa) = 133.39832 107.29890 14.26241
#
# Poissons Ratio (x) = 0.14689 0.01895
# Poissons Ratio (y) = 0.18262 0.02733
# Poissons Ratio (z) = 0.17726 0.20559
#
# Static dielectric constant tensor:
#      x y z
#    x 1.746670 0.000000 0.000000 
#    y 0.000000 1.722460 0.000000 
#    z 0.000000 0.000000 1.783070 
# 
# From -- ./inp_files/54364.got.cif
#   From: 2010.05.17/outbox.cif.g08.bks.cpg/sg66_28_cif.got.tgz:54364.got - 2010.06.03 17:51:23.
