data_PCOD9496743
_publ_section_title
;
Structure prediction by ZEFSAII (Michael W. Deem and Ramdas Pophale) SiO2 
 PCOD9496743
Probable space group: C C C M
;
_chemical_formula_sum "Si O2"
_cell_formula_units_Z 72
_cell_length_a 9.771885
_cell_length_b 15.925396
_cell_length_c 22.526750
_cell_angle_alpha 90.000000
_cell_angle_beta 90.000000
_cell_angle_gamma 90.000000
_cell_volume 3505.638477
_symmetry_space_group_name_H-M "C C C M"
_symmetry_group_IT_number 66
_symmetry_cell_setting 'orthorhombic'
loop_
_space_group_symop_operation_xyz
x,y,z
-x,-y,z
x,-y,1/2-z
-x,y,1/2-z
-x,-y,-z
x,y,-z
-x,y,1/2+z
x,-y,1/2+z
1/2+x,1/2+y,z
1/2-x,1/2-y,z
1/2+x,1/2-y,1/2-z
1/2-x,1/2+y,1/2-z
1/2-x,1/2-y,-z
1/2+x,1/2+y,-z
1/2-x,1/2+y,1/2+z
1/2+x,1/2-y,1/2+z
loop_
_atom_site_type_symbol
_atom_site_label
_atom_site_fract_x
_atom_site_fract_y
_atom_site_fract_z
Si Si1 0.151392 0.820899 0.237968
Si Si2 0.239201 0.500000 0.250000
Si Si3 0.674669 0.332405 0.903662
Si Si4 0.091174 0.921809 0.569890
Si Si5 0.657595 0.005013 0.883692
O O1 0.250000 0.750000 0.263658
O O2 0.174791 0.915250 0.260517
O O3 0.170599 0.825147 0.167470
O O4 0.000000 0.792282 0.250000
O O5 0.159815 0.514747 0.188207
O O6 0.750000 0.250000 0.927584
O O7 0.517126 0.346175 0.922852
O O8 0.767530 0.414991 0.914167
O O9 0.113061 0.934529 0.500000
O O10 0.239687 0.928000 0.600178
O O11 0.000000 0.000000 0.594578
O O12 0.500000 0.000000 0.902620
#
# Coordination Sequence:
#
# PCOD9496743 Si02
#       5
#    16   8  16  16  16
#     4  10  20  33  51  76 106 139 177 218 264 321
#     4  10  20  34  54  76 108 146 180 212 264 332
#     4   9  19  35  53  75 103 136 175 218 265 319
#     4   9  18  34  55  77 103 139 180 217 262 321
#     4  10  20  34  54  79 106 138 176 220 267 317
#
# _framework density 20.538340000000002
#
# number of rings (size 3 to 8) (size 9 to 14) (size 15 to 20)
#    0.000    2.444    0.000    2.000    0.000    9.778 
#    0.000    1.111    0.000    1.333    0.000    0.000 
#    0.000    0.000    0.000    0.000    0.000    0.000 
#
# Total GULP energy -200555.093056 kJ/mol
# GULP energy per Si atom -5570.974807 kJ/mol
# Density = 2.049159 g / cm^3
# Si number density = 20.538340 Si / 1000 Ang^3
#
#
#
# Elastic Constant Matrix: (Units=GPa)
#
#
# Indices 1 2 3 4 5 6 
#
# 1 200.1009 67.9559 12.0076 0.0000 0.0000 0.0000
# 2 67.9559 94.0939 7.8822 0.0000 0.0000 0.0000
# 3 12.0076 7.8822 41.1514 0.0000 0.0000 0.0000
# 4 0.0000 0.0000 0.0000 6.7809 0.0000 0.0000
# 5 0.0000 0.0000 0.0000 0.0000 18.5231 0.0000
# 6 0.0000 0.0000 0.0000 0.0000 0.0000 24.2949
#
#
#
# Elastic Compliance Matrix: (Units=1/GPa)
#
#
# Indices 1 2 3 4 5 6 
#
# 1 0.006665 -0.004726 -0.001039 0.000000 0.000000 0.000000
# 2 -0.004726 0.014153 -0.001332 0.000000 0.000000 0.000000
# 3 -0.001039 -0.001332 0.024859 0.000000 0.000000 0.000000
# 4 0.000000 0.000000 0.000000 0.147474 0.000000 0.000000
# 5 0.000000 0.000000 0.000000 0.000000 0.053987 0.000000
# 6 0.000000 0.000000 0.000000 0.000000 0.000000 0.041161
#
#
# Mechanical properties :
#
#
# Convention : Reuss Voigt Hill
#
# Bulk Modulus (GPa) = 31.76479 56.78195 44.27337
# Shear Modulus (GPa) = 15.97510 26.41980 21.19745
#
# Velocity S-wave (km/s) = 2.79197 3.59048 3.21610
# Velocity P-wave (km/s) = 5.08853 6.70042 5.94931
#
# Compressibility (1/GPa) = 0.03148140
#
# Stress axis : x y z
#
# Youngs Moduli (GPa) = 150.03724 70.65751 40.22701
#
# Poissons Ratio (x) = 0.33396 0.04182
# Poissons Ratio (y) = 0.70915 0.05357
# Poissons Ratio (z) = 0.15596 0.09409
#
# Static dielectric constant tensor:
#      x y z
#    x 1.739200 0.000000 0.000000 
#    y 0.000000 1.812000 0.000000 
#    z 0.000000 0.000000 1.735540 
# 
# From -- ./inp_files/55212.got.cif
#   From: 2010.05.17/outbox.cif.g08.bks.cpg/sg66_28_cif.got.tgz:55212.got - 2010.06.03 17:51:23.
