data_PCOD9496230
_publ_section_title
;
Structure prediction by ZEFSAII (Michael W. Deem and Ramdas Pophale) SiO2 
 PCOD9496230
Probable space group: C C C M
;
_chemical_formula_sum "Si O2"
_cell_formula_units_Z 80
_cell_length_a 19.277751
_cell_length_b 26.581339
_cell_length_c 8.806633
_cell_angle_alpha 90.000000
_cell_angle_beta 90.000000
_cell_angle_gamma 90.000000
_cell_volume 4512.769161
_symmetry_space_group_name_H-M "C C C M"
_symmetry_group_IT_number 66
_symmetry_cell_setting 'orthorhombic'
loop_
_space_group_symop_operation_xyz
x,y,z
-x,-y,z
x,-y,1/2-z
-x,y,1/2-z
-x,-y,-z
x,y,-z
-x,y,1/2+z
x,-y,1/2+z
1/2+x,1/2+y,z
1/2-x,1/2-y,z
1/2+x,1/2-y,1/2-z
1/2-x,1/2+y,1/2-z
1/2-x,1/2-y,-z
1/2+x,1/2+y,-z
1/2-x,1/2+y,1/2+z
1/2+x,1/2-y,1/2+z
loop_
_atom_site_type_symbol
_atom_site_label
_atom_site_fract_x
_atom_site_fract_y
_atom_site_fract_z
Si Si1 0.076765 0.947453 0.817586
Si Si2 0.667676 0.142288 0.819017
Si Si3 0.330606 0.648091 0.181797
Si Si4 0.923046 0.553436 0.818163
Si Si5 0.334186 0.752680 0.675231
O O1 0.124691 0.900413 0.776311
O O2 0.000000 0.940321 0.750000
O O3 0.103864 0.000000 0.750000
O O4 0.072877 0.951160 0.000000
O O5 0.749646 0.139346 0.779928
O O6 0.625544 0.098949 0.734570
O O7 0.644064 0.198063 0.768232
O O8 0.660179 0.136596 0.000000
O O9 0.357325 0.699199 0.258655
O O10 0.333865 0.654931 0.000000
O O11 0.898147 0.500000 0.750000
O O12 0.000000 0.561428 0.750000
O O13 0.926641 0.550305 0.000000
O O14 0.354173 0.758334 0.500000
O O15 0.250000 0.750000 0.683369
#
# Coordination Sequence:
#
# PCOD9496230 Si02
#       5
#    16  16  16  16  16
#     4  10  20  35  53  74 101 135 173 211 257 308
#     4  10  19  34  55  79 107 138 172 213 259 307
#     4   9  19  34  53  77 105 137 173 214 261 311
#     4  11  22  38  57  78 105 138 175 213 258 310
#     4   9  17  30  50  77 106 136 171 212 259 309
#
# _framework density 17.727474000000001
#
# number of rings (size 3 to 8) (size 9 to 14) (size 15 to 20)
#    0.000    2.200    0.000    4.800    0.000    5.600 
#    0.000    3.000    0.000    2.400    0.000    0.000 
#    0.000    0.000    0.000    0.000    0.000    0.000 
#
# Total GULP energy -223220.114727 kJ/mol
# GULP energy per Si atom -5580.502868 kJ/mol
# Density = 1.768713 g / cm^3
# Si number density = 17.727474 Si / 1000 Ang^3
#
#
#
# Elastic Constant Matrix: (Units=GPa)
#
#
# Indices 1 2 3 4 5 6 
#
# 1 38.1675 64.8994 37.1002 0.0000 0.0000 0.0000
# 2 64.8994 184.7091 78.5056 0.0000 0.0000 0.0000
# 3 37.1002 78.5056 101.7159 0.0000 0.0000 0.0000
# 4 0.0000 0.0000 0.0000 35.4686 0.0000 0.0000
# 5 0.0000 0.0000 0.0000 0.0000 11.2426 0.0000
# 6 0.0000 0.0000 0.0000 0.0000 0.0000 -540.1410
#
#
#
# Elastic Compliance Matrix: (Units=1/GPa)
#
#
# Indices 1 2 3 4 5 6 
#
# 1 0.071228 -0.020812 -0.009917 0.000000 0.000000 0.000000
# 2 -0.020812 0.014138 -0.003321 0.000000 0.000000 0.000000
# 3 -0.009917 -0.003321 0.016012 0.000000 0.000000 0.000000
# 4 0.000000 0.000000 0.000000 0.028194 0.000000 0.000000
# 5 0.000000 0.000000 0.000000 0.000000 0.088947 0.000000
# 6 0.000000 0.000000 0.000000 0.000000 0.000000 -0.001851
#
#
# Mechanical properties :
#
#
# Convention : Reuss Voigt Hill
#
# Bulk Modulus (GPa) = 30.04995 76.17811 53.11403
# Shear Modulus (GPa) = 16.89995 -89.08012 -36.09008
#
# Velocity S-wave (km/s) = 3.09094 -7.09640 -4.51691
# Velocity P-wave (km/s) = 5.45219 4.90714 1.68023
#
# Compressibility (1/GPa) = 0.03327793
#
# Stress axis : x y z
#
# Youngs Moduli (GPa) = 14.03944 70.73309 62.45487
#
# Poissons Ratio (x) = 1.47207 0.61938
# Poissons Ratio (y) = 0.29218 0.20740
# Poissons Ratio (z) = 0.13923 0.23489
#
# Static dielectric constant tensor:
#      x y z
#    x 1.588650 0.000000 0.000000 
#    y 0.000000 1.596100 0.000000 
#    z 0.000000 0.000000 1.595360 
# 
# From -- ./inp_files/6722.got.cif
#   From: 2010.05.17/outbox.cif.g08.bks.cpg/sg66_4_cif.got.tgz:6722.got - 2010.06.03 17:51:23.
