data_PCOD9496773
_publ_section_title
;
Structure prediction by ZEFSAII (Michael W. Deem and Ramdas Pophale) SiO2 
 PCOD9496773
Probable space group: C C C M
;
_chemical_formula_sum "Si O2"
_cell_formula_units_Z 112
_cell_length_a 27.576916
_cell_length_b 12.016709
_cell_length_c 14.754899
_cell_angle_alpha 90.000000
_cell_angle_beta 90.000000
_cell_angle_gamma 90.000000
_cell_volume 4889.534126
_symmetry_space_group_name_H-M "C C C M"
_symmetry_group_IT_number 66
_symmetry_cell_setting 'orthorhombic'
loop_
_space_group_symop_operation_xyz
x,y,z
-x,-y,z
x,-y,1/2-z
-x,y,1/2-z
-x,-y,-z
x,y,-z
-x,y,1/2+z
x,-y,1/2+z
1/2+x,1/2+y,z
1/2-x,1/2-y,z
1/2+x,1/2-y,1/2-z
1/2-x,1/2+y,1/2-z
1/2-x,1/2-y,-z
1/2+x,1/2+y,-z
1/2-x,1/2+y,1/2+z
1/2+x,1/2-y,1/2+z
loop_
_atom_site_type_symbol
_atom_site_label
_atom_site_fract_x
_atom_site_fract_y
_atom_site_fract_z
Si Si1 0.083700 0.009476 0.858614
Si Si2 0.433093 0.256212 0.395528
Si Si3 0.037715 0.753869 0.393369
Si Si4 0.667498 0.764489 0.700440
Si Si5 0.704474 0.966791 0.401045
Si Si6 0.190406 0.974920 0.144031
Si Si7 0.644305 0.190010 0.394607
O O1 0.051747 0.116824 0.878256
O O2 0.086126 0.000000 0.750000
O O3 0.065378 0.891507 0.894656
O O4 0.139285 0.021137 0.891905
O O5 0.425763 0.219670 0.500000
O O6 0.485245 0.221982 0.355095
O O7 0.387789 0.221400 0.334256
O O8 0.030023 0.740679 0.500000
O O9 0.086966 0.688577 0.372636
O O10 0.696787 0.874558 0.675290
O O11 0.686475 0.659537 0.643343
O O12 0.667649 0.745183 0.808868
O O13 0.695953 0.914196 0.500000
O O14 0.759370 0.011179 0.398614
O O15 0.667674 0.068208 0.390641
O O16 0.193104 0.000000 0.250000
O O17 0.650207 0.229108 0.500000
#
# Coordination Sequence:
#
# PCOD9496773 Si02
#       7
#    16  16  16  16  16  16  16
#     4  10  20  33  53  84 121 159 199 242 291 355
#     4  10  21  35  56  88 121 155 197 245 299 359
#     4  10  20  36  56  81 118 158 196 243 298 355
#     4  11  22  39  64  88 119 155 194 245 296 356
#     4  11  24  41  62  87 117 155 199 248 298 348
#     4  10  21  37  58  87 121 154 194 240 292 351
#     4  10  22  40  61  86 117 156 201 246 294 351
#
# _framework density 22.906068000000001
#
# number of rings (size 3 to 8) (size 9 to 14) (size 15 to 20)
#    0.000    1.714    0.000    5.571    0.000    8.000 
#    0.000    3.571    0.000   14.571    0.000    0.000 
#    0.000    0.000    0.000    0.000    0.000    0.000 
#
# Total GULP energy -312854.254410 kJ/mol
# GULP energy per Si atom -5586.683114 kJ/mol
# Density = 2.285393 g / cm^3
# Si number density = 22.906068 Si / 1000 Ang^3
#
#
#
# Elastic Constant Matrix: (Units=GPa)
#
#
# Indices 1 2 3 4 5 6 
#
# 1 103.9922 -4.0371 0.0997 0.0000 0.0000 0.0000
# 2 -4.0371 8.4191 -7.8288 0.0000 0.0000 0.0000
# 3 0.0997 -7.8288 97.3349 0.0000 0.0000 0.0000
# 4 0.0000 0.0000 0.0000 26.2431 0.0000 0.0000
# 5 0.0000 0.0000 0.0000 0.0000 39.5166 0.0000
# 6 0.0000 0.0000 0.0000 0.0000 0.0000 26.5254
#
#
#
# Elastic Compliance Matrix: (Units=1/GPa)
#
#
# Indices 1 2 3 4 5 6 
#
# 1 0.009813 0.005076 0.000398 0.000000 0.000000 0.000000
# 2 0.005076 0.131005 0.010532 0.000000 0.000000 0.000000
# 3 0.000398 0.010532 0.011120 0.000000 0.000000 0.000000
# 4 0.000000 0.000000 0.000000 0.038105 0.000000 0.000000
# 5 0.000000 0.000000 0.000000 0.000000 0.025306 0.000000
# 6 0.000000 0.000000 0.000000 0.000000 0.000000 0.037700
#
#
# Mechanical properties :
#
#
# Convention : Reuss Voigt Hill
#
# Bulk Modulus (GPa) = 5.43627 20.69042 13.06334
# Shear Modulus (GPa) = 17.70824 33.22453 25.46638
#
# Velocity S-wave (km/s) = 2.78345 3.81263 3.33795
# Velocity P-wave (km/s) = 3.56491 5.33234 4.53555
#
# Compressibility (1/GPa) = 0.18394982
#
# Stress axis : x y z
#
# Youngs Moduli (GPa) = 101.90800 7.63329 89.92416
#
# Poissons Ratio (x) = -0.03874 -0.03581
# Poissons Ratio (y) = -0.51726 -0.94706
# Poissons Ratio (z) = -0.04058 -0.08039
#
# Static dielectric constant tensor:
#      x y z
#    x 1.888230 0.000000 0.000000 
#    y 0.000000 1.834550 0.000000 
#    z 0.000000 0.000000 1.878170 
# 
# From -- ./inp_files/32435.got.cif
#   From: 2010.05.17/outbox.cif.g08.bks.cpg/sg66_17_cif.got.tgz:32435.got - 2010.06.03 17:51:23.
