data_PCOD9496805
_publ_section_title
;
Structure prediction by ZEFSAII (Michael W. Deem and Ramdas Pophale) SiO2 
 PCOD9496805
Probable space group: C C C M
;
_chemical_formula_sum "Si O2"
_cell_formula_units_Z 84
_cell_length_a 6.894471
_cell_length_b 24.599874
_cell_length_c 19.514521
_cell_angle_alpha 90.000000
_cell_angle_beta 90.000000
_cell_angle_gamma 90.000000
_cell_volume 3309.723606
_symmetry_space_group_name_H-M "C C C M"
_symmetry_group_IT_number 66
_symmetry_cell_setting 'orthorhombic'
loop_
_space_group_symop_operation_xyz
x,y,z
-x,-y,z
x,-y,1/2-z
-x,y,1/2-z
-x,-y,-z
x,y,-z
-x,y,1/2+z
x,-y,1/2+z
1/2+x,1/2+y,z
1/2-x,1/2-y,z
1/2+x,1/2-y,1/2-z
1/2-x,1/2+y,1/2-z
1/2-x,1/2-y,-z
1/2+x,1/2+y,-z
1/2-x,1/2+y,1/2+z
1/2+x,1/2-y,1/2+z
loop_
_atom_site_type_symbol
_atom_site_label
_atom_site_fract_x
_atom_site_fract_y
_atom_site_fract_z
Si Si1 0.657737 0.419847 0.000000
Si Si2 0.000000 0.500000 0.750000
Si Si3 0.000000 0.878771 0.750000
Si Si4 0.403396 0.820060 0.000000
Si Si5 0.824924 0.850465 0.000000
Si Si6 0.285140 0.080801 0.649306
Si Si7 0.621465 0.790799 0.646906
Si Si8 0.631928 0.293806 0.651258
O O1 0.747537 0.438738 0.071592
O O2 0.427477 0.409802 0.000000
O O3 0.712749 0.355714 0.000000
O O4 0.894370 0.539768 0.697446
O O5 0.918182 0.913268 0.688069
O O6 0.855028 0.839406 0.790527
O O7 0.592478 0.857776 0.000000
O O8 0.406275 0.784579 0.934151
O O9 0.861727 0.817787 0.927134
O O10 0.375745 0.142143 0.653235
O O11 0.633148 0.718401 0.662874
O O12 0.382110 0.774708 0.663913
#
# Coordination Sequence:
#
# PCOD9496805 Si02
#       8
#     8   4   8   8   8  16  16  16
#     4  10  22  48  76 107 144 198 250 331 370 456
#     4  12  32  54  80 108 138 208 260 326 380 464
#     4  12  26  42  68 104 147 201 238 324 376 454
#     4  10  20  33  65 102 153 203 240 301 374 447
#     4  12  20  41  61 108 152 203 259 295 373 471
#     4  11  27  50  77 106 150 194 258 312 388 448
#     4  11  20  39  62 105 147 195 239 303 374 457
#     4  12  24  35  61 104 155 197 245 292 376 456
#
# _framework density 25.379763000000001
#
# number of rings (size 3 to 8) (size 9 to 14) (size 15 to 20)
#    0.000    0.762    5.714    2.286    5.333    0.762 
#    0.000    0.000    0.000    3.429    0.000    0.000 
#    0.000    0.000    0.000    0.000    0.000    0.000 
#
# Total GULP energy -233831.149536 kJ/mol
# GULP energy per Si atom -5567.408322 kJ/mol
# Density = 2.532200 g / cm^3
# Si number density = 25.379763 Si / 1000 Ang^3
#
#
#
# Elastic Constant Matrix: (Units=GPa)
#
#
# Indices 1 2 3 4 5 6 
#
# 1 121.0369 38.4643 44.4953 0.0000 0.0000 0.0000
# 2 38.4643 80.5498 62.9290 0.0000 0.0000 0.0000
# 3 44.4953 62.9290 202.5015 0.0000 0.0000 0.0000
# 4 0.0000 0.0000 0.0000 12.8942 0.0000 0.0000
# 5 0.0000 0.0000 0.0000 0.0000 58.0734 0.0000
# 6 0.0000 0.0000 0.0000 0.0000 0.0000 -11.3731
#
#
#
# Elastic Compliance Matrix: (Units=1/GPa)
#
#
# Indices 1 2 3 4 5 6 
#
# 1 0.009871 -0.003987 -0.000930 0.000000 0.000000 0.000000
# 2 -0.003987 0.018006 -0.004719 0.000000 0.000000 0.000000
# 3 -0.000930 -0.004719 0.006609 0.000000 0.000000 0.000000
# 4 0.000000 0.000000 0.000000 0.077554 0.000000 0.000000
# 5 0.000000 0.000000 0.000000 0.000000 0.017220 0.000000
# 6 0.000000 0.000000 0.000000 0.000000 0.000000 -0.087927
#
#
# Mechanical properties :
#
#
# Convention : Reuss Voigt Hill
#
# Bulk Modulus (GPa) = 65.73340 77.31838 71.52589
# Shear Modulus (GPa) = 76.13139 29.13220 52.63180
#
# Velocity S-wave (km/s) = 5.48288 3.39167 4.55881
# Velocity P-wave (km/s) = 8.12643 6.77264 7.48022
#
# Compressibility (1/GPa) = 0.01521297
#
# Stress axis : x y z
#
# Youngs Moduli (GPa) = 101.30844 55.53851 151.30617
#
# Poissons Ratio (x) = 0.22144 0.14070
# Poissons Ratio (y) = 0.40393 0.71406
# Poissons Ratio (z) = 0.09421 0.26210
#
# Static dielectric constant tensor:
#      x y z
#    x 2.523810 0.000000 0.000000 
#    y 0.000000 1.285120 0.000000 
#    z 0.000000 0.000000 1.909920 
# 
# From -- ./inp_files/47268.got.cif
#   From: 2010.05.17/outbox.cif.g08.bks.cpg/sg66_24_cif.got.tgz:47268.got - 2010.06.03 17:51:23.
