data_PCOD9496271
_publ_section_title
;
Structure prediction by ZEFSAII (Michael W. Deem and Ramdas Pophale) SiO2 
 PCOD9496271
Probable space group: C C C M
;
_chemical_formula_sum "Si O2"
_cell_formula_units_Z 112
_cell_length_a 14.038697
_cell_length_b 27.386584
_cell_length_c 14.656067
_cell_angle_alpha 90.000000
_cell_angle_beta 90.000000
_cell_angle_gamma 90.000000
_cell_volume 5634.846727
_symmetry_space_group_name_H-M "C C C M"
_symmetry_group_IT_number 66
_symmetry_cell_setting 'orthorhombic'
loop_
_space_group_symop_operation_xyz
x,y,z
-x,-y,z
x,-y,1/2-z
-x,y,1/2-z
-x,-y,-z
x,y,-z
-x,y,1/2+z
x,-y,1/2+z
1/2+x,1/2+y,z
1/2-x,1/2-y,z
1/2+x,1/2-y,1/2-z
1/2-x,1/2+y,1/2-z
1/2-x,1/2-y,-z
1/2+x,1/2+y,-z
1/2-x,1/2+y,1/2+z
1/2+x,1/2-y,1/2+z
loop_
_atom_site_type_symbol
_atom_site_label
_atom_site_fract_x
_atom_site_fract_y
_atom_site_fract_z
Si Si1 0.341187 0.168693 0.104628
Si Si2 0.447628 0.846655 0.891564
Si Si3 0.239020 0.305612 0.292950
Si Si4 0.216670 0.919645 0.398588
Si Si5 0.431083 0.043471 0.389190
Si Si6 0.609226 0.614935 0.276389
Si Si7 0.284439 0.536269 0.107629
O O1 0.451719 0.179388 0.124941
O O2 0.278772 0.192373 0.183817
O O3 0.316386 0.110113 0.106962
O O4 0.320986 0.183764 0.000000
O O5 0.355898 0.828237 0.837949
O O6 0.468707 0.903015 0.868834
O O7 0.427348 0.844216 0.000000
O O8 0.250000 0.250000 0.322927
O O9 0.330994 0.339017 0.314867
O O10 0.179451 0.909645 0.500000
O O11 0.154984 0.896875 0.320528
O O12 0.212325 0.977651 0.386000
O O13 0.423808 0.037483 0.500000
O O14 0.322106 0.045862 0.355037
O O15 0.500000 0.000000 0.357403
O O16 0.500000 0.623301 0.250000
O O17 0.636848 0.568043 0.339398
O O18 0.289222 0.549138 0.000000
#
# Coordination Sequence:
#
# PCOD9496271 Si02
#       7
#    16  16  16  16  16  16  16
#     4   9  19  37  62  89 117 148 189 247 310 372
#     4  10  19  35  60  90 123 153 186 240 314 379
#     4  11  24  41  62  83 114 156 206 259 309 363
#     4   9  19  36  58  85 117 156 197 239 291 352
#     4   9  16  28  53  88 122 156 187 224 289 372
#     4  11  24  40  57  80 116 159 207 256 299 345
#     4  10  19  34  57  85 122 159 195 238 290 355
#
# _framework density 19.876318000000001
#
# number of rings (size 3 to 8) (size 9 to 14) (size 15 to 20)
#    0.000    2.143    1.429    1.714    0.000    6.857 
#    0.000    1.429    0.000    0.000    0.000    0.000 
#    0.000    0.000    0.000    0.000    0.000    0.000 
#
# Total GULP energy -312108.700993 kJ/mol
# GULP energy per Si atom -5573.369661 kJ/mol
# Density = 1.983108 g / cm^3
# Si number density = 19.876318 Si / 1000 Ang^3
#
#
#
# Elastic Constant Matrix: (Units=GPa)
#
#
# Indices 1 2 3 4 5 6 
#
# 1 91.2903 17.1025 32.5629 0.0000 0.0000 0.0000
# 2 17.1025 71.0576 21.8654 0.0000 0.0000 0.0000
# 3 32.5629 21.8654 46.4449 0.0000 0.0000 0.0000
# 4 0.0000 0.0000 0.0000 18.2326 0.0000 0.0000
# 5 0.0000 0.0000 0.0000 0.0000 11.6340 0.0000
# 6 0.0000 0.0000 0.0000 0.0000 0.0000 11.6814
#
#
#
# Elastic Compliance Matrix: (Units=1/GPa)
#
#
# Indices 1 2 3 4 5 6 
#
# 1 0.014618 -0.000426 -0.010048 0.000000 0.000000 0.000000
# 2 -0.000426 0.016470 -0.007455 0.000000 0.000000 0.000000
# 3 -0.010048 -0.007455 0.032085 0.000000 0.000000 0.000000
# 4 0.000000 0.000000 0.000000 0.054847 0.000000 0.000000
# 5 0.000000 0.000000 0.000000 0.000000 0.085955 0.000000
# 6 0.000000 0.000000 0.000000 0.000000 0.000000 0.085606
#
#
# Mechanical properties :
#
#
# Convention : Reuss Voigt Hill
#
# Bulk Modulus (GPa) = 36.61047 39.09493 37.85270
# Shear Modulus (GPa) = 14.94573 17.46041 16.20307
#
# Velocity S-wave (km/s) = 2.74512 2.96709 2.85826
# Velocity P-wave (km/s) = 5.33917 5.60802 5.47525
#
# Compressibility (1/GPa) = 0.02731459
#
# Stress axis : x y z
#
# Youngs Moduli (GPa) = 68.40853 60.71789 31.16705
#
# Poissons Ratio (x) = 0.02589 0.31317
# Poissons Ratio (y) = 0.02917 0.23234
# Poissons Ratio (z) = 0.68737 0.45263
#
# Static dielectric constant tensor:
#      x y z
#    x 1.748550 0.000000 0.000000 
#    y 0.000000 1.735860 0.000000 
#    z 0.000000 0.000000 1.720160 
# 
# From -- ./inp_files/27026.got.cif
#   From: 2010.05.17/outbox.cif.g08.bks.cpg/sg66_14_cif.got.tgz:27026.got - 2010.06.03 17:51:23.
