data_PCOD9496385
_publ_section_title
;
Structure prediction by ZEFSAII (Michael W. Deem and Ramdas Pophale) SiO2 
 PCOD9496385
Probable space group: C C C M
;
_chemical_formula_sum "Si O2"
_cell_formula_units_Z 120
_cell_length_a 21.996974
_cell_length_b 20.547339
_cell_length_c 13.576296
_cell_angle_alpha 90.000000
_cell_angle_beta 90.000000
_cell_angle_gamma 90.000000
_cell_volume 6136.204515
_symmetry_space_group_name_H-M "C C C M"
_symmetry_group_IT_number 66
_symmetry_cell_setting 'orthorhombic'
loop_
_space_group_symop_operation_xyz
x,y,z
-x,-y,z
x,-y,1/2-z
-x,y,1/2-z
-x,-y,-z
x,y,-z
-x,y,1/2+z
x,-y,1/2+z
1/2+x,1/2+y,z
1/2-x,1/2-y,z
1/2+x,1/2-y,1/2-z
1/2-x,1/2+y,1/2-z
1/2-x,1/2-y,-z
1/2+x,1/2+y,-z
1/2-x,1/2+y,1/2+z
1/2+x,1/2-y,1/2+z
loop_
_atom_site_type_symbol
_atom_site_label
_atom_site_fract_x
_atom_site_fract_y
_atom_site_fract_z
Si Si1 0.654101 0.244283 0.113550
Si Si2 0.979866 0.695548 0.383895
Si Si3 0.400621 0.268693 0.884840
Si Si4 0.716148 0.500000 0.250000
Si Si5 0.051952 0.448158 0.619047
Si Si6 0.827746 0.474261 0.382355
Si Si7 0.688955 0.834679 0.800556
Si Si8 0.325068 0.356947 0.758870
O O1 0.581199 0.237742 0.119477
O O2 0.678432 0.188694 0.187919
O O3 0.673404 0.313143 0.160082
O O4 0.672357 0.235519 0.000000
O O5 0.994538 0.685327 0.500000
O O6 0.963463 0.623980 0.343817
O O7 0.039123 0.732431 0.344865
O O8 0.345529 0.218371 0.865892
O O9 0.381132 0.331821 0.823790
O O10 0.407543 0.282972 0.000000
O O11 0.763136 0.498985 0.341968
O O12 0.678143 0.566069 0.254922
O O13 0.052306 0.443978 0.500000
O O14 0.117907 0.476678 0.643902
O O15 0.000000 0.500000 0.644867
O O16 0.827135 0.465740 0.500000
O O17 0.837323 0.404408 0.331081
O O18 0.761423 0.838859 0.812894
#
# Coordination Sequence:
#
# PCOD9496385 Si02
#       8
#    16  16  16   8  16  16  16  16
#     4  10  21  38  59  82 115 154 194 247 303 351
#     4   9  19  33  55  86 114 150 196 237 291 361
#     4  10  19  35  59  85 118 151 185 243 304 354
#     4  10  24  42  57  83 118 148 206 254 292 372
#     4   9  17  31  52  81 116 154 194 230 272 341
#     4  10  21  37  58  81 118 162 195 244 300 343
#     4  10  21  35  55  88 117 149 204 246 283 357
#     4  10  23  38  56  83 112 147 198 249 297 366
#
# _framework density 19.556062000000001
#
# number of rings (size 3 to 8) (size 9 to 14) (size 15 to 20)
#    0.000    2.267    0.000    2.800    3.733    9.067 
#    0.000    0.333    0.000    1.600    0.000    2.800 
#    0.000    0.000    0.000    0.000    0.000    0.000 
#
# Total GULP energy -335090.972889 kJ/mol
# GULP energy per Si atom -5584.849548 kJ/mol
# Density = 1.951155 g / cm^3
# Si number density = 19.556062 Si / 1000 Ang^3
#
#
#
# Elastic Constant Matrix: (Units=GPa)
#
#
# Indices 1 2 3 4 5 6 
#
# 1 77.0807 73.8188 23.7267 0.0000 0.0000 0.0000
# 2 73.8188 165.8074 46.7301 0.0000 0.0000 0.0000
# 3 23.7267 46.7301 116.4013 0.0000 0.0000 0.0000
# 4 0.0000 0.0000 0.0000 18.7079 0.0000 0.0000
# 5 0.0000 0.0000 0.0000 0.0000 36.2348 0.0000
# 6 0.0000 0.0000 0.0000 0.0000 0.0000 21.1041
#
#
#
# Elastic Compliance Matrix: (Units=1/GPa)
#
#
# Indices 1 2 3 4 5 6 
#
# 1 0.022659 -0.009907 -0.000641 0.000000 0.000000 0.000000
# 2 -0.009907 0.011132 -0.002450 0.000000 0.000000 0.000000
# 3 -0.000641 -0.002450 0.009705 0.000000 0.000000 0.000000
# 4 0.000000 0.000000 0.000000 0.053453 0.000000 0.000000
# 5 0.000000 0.000000 0.000000 0.000000 0.027598 0.000000
# 6 0.000000 0.000000 0.000000 0.000000 0.000000 0.047384
#
#
# Mechanical properties :
#
#
# Convention : Reuss Voigt Hill
#
# Bulk Modulus (GPa) = 57.14365 71.98229 64.56297
# Shear Modulus (GPa) = 24.53857 29.54360 27.04109
#
# Velocity S-wave (km/s) = 3.54613 3.89101 3.72256
# Velocity P-wave (km/s) = 6.78606 7.55478 7.18071
#
# Compressibility (1/GPa) = 0.01749976
#
# Stress axis : x y z
#
# Youngs Moduli (GPa) = 44.13320 89.82949 103.03813
#
# Poissons Ratio (x) = 0.88995 0.06609
# Poissons Ratio (y) = 0.43723 0.25241
# Poissons Ratio (z) = 0.02831 0.22005
#
# Static dielectric constant tensor:
#      x y z
#    x 1.692450 0.000000 0.000000 
#    y 0.000000 1.707680 0.000000 
#    z 0.000000 0.000000 1.739620 
# 
# From -- ./inp_files/31566.got.cif
#   From: 2010.05.17/outbox.cif.g08.bks.cpg/sg66_16_cif.got.tgz:31566.got - 2010.06.03 17:51:23.
