data_PCOD9496093
_publ_section_title
;
Structure prediction by ZEFSAII (Michael W. Deem and Ramdas Pophale) SiO2 
 PCOD9496093
Probable space group: C C C M
;
_chemical_formula_sum "Si O2"
_cell_formula_units_Z 116
_cell_length_a 25.050781
_cell_length_b 31.069048
_cell_length_c 7.893091
_cell_angle_alpha 90.000000
_cell_angle_beta 90.000000
_cell_angle_gamma 90.000000
_cell_volume 6143.223645
_symmetry_space_group_name_H-M "C C C M"
_symmetry_group_IT_number 66
_symmetry_cell_setting 'orthorhombic'
loop_
_space_group_symop_operation_xyz
x,y,z
-x,-y,z
x,-y,1/2-z
-x,y,1/2-z
-x,-y,-z
x,y,-z
-x,y,1/2+z
x,-y,1/2+z
1/2+x,1/2+y,z
1/2-x,1/2-y,z
1/2+x,1/2-y,1/2-z
1/2-x,1/2+y,1/2-z
1/2-x,1/2-y,-z
1/2+x,1/2+y,-z
1/2-x,1/2+y,1/2+z
1/2+x,1/2-y,1/2+z
loop_
_atom_site_type_symbol
_atom_site_label
_atom_site_fract_x
_atom_site_fract_y
_atom_site_fract_z
Si Si1 0.337512 0.046848 0.702766
Si Si2 0.839209 0.136152 0.297011
Si Si3 0.263549 0.189920 0.196846
Si Si4 0.639845 0.137898 0.800511
Si Si5 0.215065 0.047589 0.701198
Si Si6 0.938254 0.713445 0.202520
Si Si7 0.938290 0.189826 0.295646
Si Si8 0.750000 0.750000 0.500000
O O1 0.334193 0.046868 0.500000
O O2 0.370986 0.088789 0.754225
O O3 0.276122 0.051198 0.769222
O O4 0.358417 0.000000 0.750000
O O5 0.840339 0.138114 0.500000
O O6 0.792680 0.169457 0.244278
O O7 0.821266 0.087949 0.252848
O O8 0.895773 0.154522 0.233048
O O9 0.307778 0.153151 0.202578
O O10 0.279773 0.222870 0.344918
O O11 0.259736 0.204544 0.000000
O O12 0.595228 0.173733 0.771933
O O13 0.652451 0.136796 0.000000
O O14 0.218497 0.049265 0.500000
O O15 0.194889 0.000000 0.750000
O O16 0.922851 0.761747 0.263245
O O17 0.000000 0.708360 0.250000
O O18 0.931911 0.713191 0.000000
O O19 0.935770 0.190399 0.500000
O O20 0.000000 0.181720 0.250000
#
# Coordination Sequence:
#
# PCOD9496093 Si02
#       8
#    16  16  16  16  16  16  16   4
#     4   9  19  33  53  79 113 147 186 231 282 344
#     4  10  21  36  56  81 115 148 188 236 284 344
#     4  11  24  39  56  82 116 159 195 235 292 349
#     4  11  21  37  57  84 118 151 191 242 286 346
#     4  10  19  33  54  80 113 148 187 229 282 342
#     4  10  21  38  58  82 110 150 197 243 290 342
#     4   9  20  38  56  79 107 142 189 237 281 335
#     4  12  26  40  52  78 124 156 198 236 288 352
#
# _framework density 18.882594000000001
#
# number of rings (size 3 to 8) (size 9 to 14) (size 15 to 20)
#    0.000    1.931    2.069    1.448    2.897    2.759 
#    0.000    0.000    0.000    0.828    0.000    5.793 
#    0.000    0.000    0.000    0.000    0.000    0.000 
#
# Total GULP energy -322879.764940 kJ/mol
# GULP energy per Si atom -5566.892499 kJ/mol
# Density = 1.883962 g / cm^3
# Si number density = 18.882594 Si / 1000 Ang^3
#
#
#
# Elastic Constant Matrix: (Units=GPa)
#
#
# Indices 1 2 3 4 5 6 
#
# 1 49.0177 28.8050 3.0788 0.0000 0.0000 0.0000
# 2 28.8050 94.8355 7.5432 0.0000 0.0000 0.0000
# 3 3.0788 7.5432 52.8679 0.0000 0.0000 0.0000
# 4 0.0000 0.0000 0.0000 52.5288 0.0000 0.0000
# 5 0.0000 0.0000 0.0000 0.0000 26.4751 0.0000
# 6 0.0000 0.0000 0.0000 0.0000 0.0000 -44.0042
#
#
#
# Elastic Compliance Matrix: (Units=1/GPa)
#
#
# Indices 1 2 3 4 5 6 
#
# 1 0.024841 -0.007515 -0.000374 0.000000 0.000000 0.000000
# 2 -0.007515 0.012939 -0.001409 0.000000 0.000000 0.000000
# 3 -0.000374 -0.001409 0.019138 0.000000 0.000000 0.000000
# 4 0.000000 0.000000 0.000000 0.019037 0.000000 0.000000
# 5 0.000000 0.000000 0.000000 0.000000 0.037771 0.000000
# 6 0.000000 0.000000 0.000000 0.000000 0.000000 -0.022725
#
#
# Mechanical properties :
#
#
# Convention : Reuss Voigt Hill
#
# Bulk Modulus (GPa) = 26.09500 30.61946 28.35723
# Shear Modulus (GPa) = 40.85933 17.48622 29.17278
#
# Velocity S-wave (km/s) = 4.65678 3.04641 3.93486
# Velocity P-wave (km/s) = 6.53940 5.35024 5.97448
#
# Compressibility (1/GPa) = 0.03832152
#
# Stress axis : x y z
#
# Youngs Moduli (GPa) = 40.25667 77.28419 52.25251
#
# Poissons Ratio (x) = 0.58081 0.01956
# Poissons Ratio (y) = 0.30254 0.07360
# Poissons Ratio (z) = 0.01507 0.10886
#
# Static dielectric constant tensor:
#      x y z
#    x 1.652040 0.000000 0.000000 
#    y 0.000000 1.737160 0.000000 
#    z 0.000000 0.000000 1.682100 
# 
# From -- ./inp_files/10903.got.cif
#   From: 2010.05.17/outbox.cif.g08.bks.cpg/sg66_6_cif.got.tgz:10903.got - 2010.06.03 17:51:23.
