data_PCOD9496387
_publ_section_title
;
Structure prediction by ZEFSAII (Michael W. Deem and Ramdas Pophale) SiO2 
 PCOD9496387
Probable space group: C C C M
;
_chemical_formula_sum "Si O2"
_cell_formula_units_Z 104
_cell_length_a 15.501501
_cell_length_b 16.121297
_cell_length_c 22.035198
_cell_angle_alpha 90.000000
_cell_angle_beta 90.000000
_cell_angle_gamma 90.000000
_cell_volume 5506.690766
_symmetry_space_group_name_H-M "C C C M"
_symmetry_group_IT_number 66
_symmetry_cell_setting 'orthorhombic'
loop_
_space_group_symop_operation_xyz
x,y,z
-x,-y,z
x,-y,1/2-z
-x,y,1/2-z
-x,-y,-z
x,y,-z
-x,y,1/2+z
x,-y,1/2+z
1/2+x,1/2+y,z
1/2-x,1/2-y,z
1/2+x,1/2-y,1/2-z
1/2-x,1/2+y,1/2-z
1/2-x,1/2-y,-z
1/2+x,1/2+y,-z
1/2-x,1/2+y,1/2+z
1/2+x,1/2-y,1/2+z
loop_
_atom_site_type_symbol
_atom_site_label
_atom_site_fract_x
_atom_site_fract_y
_atom_site_fract_z
Si Si1 0.616720 0.637787 0.566329
Si Si2 0.419374 0.623341 0.296030
Si Si3 0.720909 0.097931 0.742562
Si Si4 0.059354 0.319331 0.189019
Si Si5 0.500000 0.500000 0.109996
Si Si6 0.452350 0.176914 0.429772
Si Si7 0.779900 0.344349 0.125118
O O1 0.657176 0.647771 0.500000
O O2 0.548206 0.566155 0.569402
O O3 0.570422 0.725121 0.579775
O O4 0.691263 0.609627 0.611910
O O5 0.500000 0.610208 0.250000
O O6 0.322338 0.612395 0.270759
O O7 0.427248 0.719876 0.314561
O O8 0.437162 0.555469 0.347805
O O9 0.651631 0.135910 0.696154
O O10 0.697323 0.143911 0.805338
O O11 0.707076 0.000000 0.750000
O O12 0.000000 0.334958 0.250000
O O13 0.013949 0.346594 0.126125
O O14 0.479952 0.165286 0.500000
O O15 0.359990 0.133974 0.417071
O O16 0.750000 0.250000 0.113133
#
# Coordination Sequence:
#
# PCOD9496387 Si02
#       7
#    16  16  16  16   8  16  16
#     4  10  20  33  54  85 122 160 198 249 311 368
#     4  11  22  36  59  89 124 158 192 248 315 367
#     4  12  24  37  60  89 123 157 199 255 308 359
#     4  11  22  40  61  89 120 160 201 247 297 361
#     4  12  20  34  54  84 128 158 198 242 306 380
#     4  10  20  38  61  86 118 161 208 250 300 361
#     4  10  19  35  59  87 115 152 200 259 310 359
#
# _framework density 18.886116000000001
#
# number of rings (size 3 to 8) (size 9 to 14) (size 15 to 20)
#    0.000    1.231    3.077    5.077    4.308    2.154 
#    0.000    0.000    0.000    8.308    0.000    0.000 
#    0.000    0.000    0.000    0.000    0.000    0.000 
#
# Total GULP energy -289896.360889 kJ/mol
# GULP energy per Si atom -5574.930017 kJ/mol
# Density = 1.884313 g / cm^3
# Si number density = 18.886116 Si / 1000 Ang^3
#
#
#
# Elastic Constant Matrix: (Units=GPa)
#
#
# Indices 1 2 3 4 5 6 
#
# 1 108.5235 20.8605 56.0928 0.0000 0.0000 0.0000
# 2 20.8605 18.7733 0.5241 0.0000 0.0000 0.0000
# 3 56.0928 0.5241 108.0500 0.0000 0.0000 0.0000
# 4 0.0000 0.0000 0.0000 -4.2999 0.0000 0.0000
# 5 0.0000 0.0000 0.0000 0.0000 26.4412 0.0000
# 6 0.0000 0.0000 0.0000 0.0000 0.0000 10.0494
#
#
#
# Elastic Compliance Matrix: (Units=1/GPa)
#
#
# Indices 1 2 3 4 5 6 
#
# 1 0.017599 -0.019303 -0.009043 0.000000 0.000000 0.000000
# 2 -0.019303 0.074446 0.009660 0.000000 0.000000 0.000000
# 3 -0.009043 0.009660 0.013902 0.000000 0.000000 0.000000
# 4 0.000000 0.000000 0.000000 -0.232562 0.000000 0.000000
# 5 0.000000 0.000000 0.000000 0.000000 0.037820 0.000000
# 6 0.000000 0.000000 0.000000 0.000000 0.000000 0.099508
#
#
# Mechanical properties :
#
#
# Convention : Reuss Voigt Hill
#
# Bulk Modulus (GPa) = 14.58233 43.36684 28.97459
# Shear Modulus (GPa) = 70.47730 16.96276 43.72003
#
# Velocity S-wave (km/s) = 6.11539 3.00018 4.81659
# Velocity P-wave (km/s) = 7.58960 5.91723 6.80498
#
# Compressibility (1/GPa) = 0.06857613
#
# Stress axis : x y z
#
# Youngs Moduli (GPa) = 56.82166 13.43247 71.92961
#
# Poissons Ratio (x) = 0.25929 0.65043
# Poissons Ratio (y) = 1.09683 -0.69483
# Poissons Ratio (z) = 0.51382 -0.12976
#
# Static dielectric constant tensor:
#      x y z
#    x 1.685800 0.000000 0.000000 
#    y 0.000000 1.651830 0.000000 
#    z 0.000000 0.000000 1.699540 
# 
# From -- ./inp_files/50076.got.cif
#   From: 2010.05.17/outbox.cif.g08.bks.cpg/sg66_26_cif.got.tgz:50076.got - 2010.06.03 17:51:23.
