data_PCOD9496384
_publ_section_title
;
Structure prediction by ZEFSAII (Michael W. Deem and Ramdas Pophale) SiO2 
 PCOD9496384
Probable space group: C C C M
;
_chemical_formula_sum "Si O2"
_cell_formula_units_Z 128
_cell_length_a 12.334251
_cell_length_b 22.579584
_cell_length_c 25.109427
_cell_angle_alpha 90.000000
_cell_angle_beta 90.000000
_cell_angle_gamma 90.000000
_cell_volume 6993.032080
_symmetry_space_group_name_H-M "C C C M"
_symmetry_group_IT_number 66
_symmetry_cell_setting 'orthorhombic'
loop_
_space_group_symop_operation_xyz
x,y,z
-x,-y,z
x,-y,1/2-z
-x,y,1/2-z
-x,-y,-z
x,y,-z
-x,y,1/2+z
x,-y,1/2+z
1/2+x,1/2+y,z
1/2-x,1/2-y,z
1/2+x,1/2-y,1/2-z
1/2-x,1/2+y,1/2-z
1/2-x,1/2-y,-z
1/2+x,1/2+y,-z
1/2-x,1/2+y,1/2+z
1/2+x,1/2-y,1/2+z
loop_
_atom_site_type_symbol
_atom_site_label
_atom_site_fract_x
_atom_site_fract_y
_atom_site_fract_z
Si Si1 0.333129 0.303315 0.724816
Si Si2 0.334999 0.584089 0.939890
Si Si3 0.064619 0.149993 0.939136
Si Si4 0.120769 0.473720 0.160968
Si Si5 0.060310 0.224185 0.166526
Si Si6 0.468846 0.145968 0.190267
Si Si7 0.702808 0.901369 0.333722
Si Si8 0.236947 0.046396 0.940449
O O1 0.250000 0.250000 0.715124
O O2 0.363415 0.302577 0.787216
O O3 0.439930 0.289730 0.689703
O O4 0.276817 0.363553 0.705884
O O5 0.451695 0.614080 0.933214
O O6 0.256149 0.602703 0.892173
O O7 0.337112 0.512664 0.936696
O O8 0.296144 0.598829 0.000000
O O9 0.072802 0.196278 0.891382
O O10 0.161802 0.103195 0.933589
O O11 0.067037 0.173846 0.000000
O O12 0.107715 0.411830 0.191928
O O13 0.190090 0.529415 0.182395
O O14 0.171778 0.458170 0.104075
O O15 0.000000 0.500000 0.156321
O O16 0.077505 0.294940 0.164341
O O17 0.500000 0.163680 0.250000
O O18 0.582346 0.126070 0.164288
O O19 0.283925 0.047034 0.000000
#
# Coordination Sequence:
#
# PCOD9496384 Si02
#       8
#    16  16  16  16  16  16  16  16
#     4  11  20  37  60  85 114 155 193 238 286 348
#     4   9  17  32  56  83 113 152 195 240 290 351
#     4  10  20  35  56  84 118 152 191 243 294 350
#     4   9  21  36  57  86 111 146 191 246 292 345
#     4  11  22  36  59  89 113 154 200 235 284 357
#     4  11  21  39  57  80 111 151 198 235 289 358
#     4  10  19  35  59  85 115 145 189 246 295 339
#     4   9  18  34  55  81 112 154 197 231 288 356
#
# _framework density 18.303934000000002
#
# number of rings (size 3 to 8) (size 9 to 14) (size 15 to 20)
#    0.000    2.000    3.750    0.375    0.000    6.000 
#    0.000    4.375    0.000    4.125    0.000    0.000 
#    0.000    0.000    0.000    0.000    0.000    0.000 
#
# Total GULP energy -357008.091765 kJ/mol
# GULP energy per Si atom -5578.251434 kJ/mol
# Density = 1.826227 g / cm^3
# Si number density = 18.303934 Si / 1000 Ang^3
#
#
#
# Elastic Constant Matrix: (Units=GPa)
#
#
# Indices 1 2 3 4 5 6 
#
# 1 31.7524 29.5094 11.7757 0.0000 0.0000 0.0000
# 2 29.5094 114.0979 64.2681 0.0000 0.0000 0.0000
# 3 11.7757 64.2681 88.2712 0.0000 0.0000 0.0000
# 4 0.0000 0.0000 0.0000 34.3922 0.0000 0.0000
# 5 0.0000 0.0000 0.0000 0.0000 26.0502 0.0000
# 6 0.0000 0.0000 0.0000 0.0000 0.0000 19.4454
#
#
#
# Elastic Compliance Matrix: (Units=1/GPa)
#
#
# Indices 1 2 3 4 5 6 
#
# 1 0.042249 -0.013142 0.003932 0.000000 0.000000 0.000000
# 2 -0.013142 0.018945 -0.012040 0.000000 0.000000 0.000000
# 3 0.003932 -0.012040 0.019571 0.000000 0.000000 0.000000
# 4 0.000000 0.000000 0.000000 0.029076 0.000000 0.000000
# 5 0.000000 0.000000 0.000000 0.000000 0.038387 0.000000
# 6 0.000000 0.000000 0.000000 0.000000 0.000000 0.051426
#
#
# Mechanical properties :
#
#
# Convention : Reuss Voigt Hill
#
# Bulk Modulus (GPa) = 26.13400 49.46975 37.80187
# Shear Modulus (GPa) = 19.61481 24.54879 22.08180
#
# Velocity S-wave (km/s) = 3.27711 3.66618 3.47709
# Velocity P-wave (km/s) = 5.35052 6.70870 6.06773
#
# Compressibility (1/GPa) = 0.03826434
#
# Stress axis : x y z
#
# Youngs Moduli (GPa) = 23.66935 52.78357 51.09724
#
# Poissons Ratio (x) = 0.69366 -0.20091
# Poissons Ratio (y) = 0.31105 0.61523
# Poissons Ratio (z) = -0.09307 0.63554
#
# Static dielectric constant tensor:
#      x y z
#    x 1.627210 0.000000 0.000000 
#    y 0.000000 1.639510 0.000000 
#    z 0.000000 0.000000 1.623910 
# 
# From -- ./inp_files/64034.got.cif
#   From: 2010.05.17/outbox.cif.g08.bks.cpg/sg66_33_cif.got.tgz:64034.got - 2010.06.03 17:51:23.
