data_PCOD9496531
_publ_section_title
;
Structure prediction by ZEFSAII (Michael W. Deem and Ramdas Pophale) SiO2 
 PCOD9496531
Probable space group: C C C M
;
_chemical_formula_sum "Si O2"
_cell_formula_units_Z 80
_cell_length_a 14.971265
_cell_length_b 19.193965
_cell_length_c 13.903341
_cell_angle_alpha 90.000000
_cell_angle_beta 90.000000
_cell_angle_gamma 90.000000
_cell_volume 3995.235379
_symmetry_space_group_name_H-M "C C C M"
_symmetry_group_IT_number 66
_symmetry_cell_setting 'orthorhombic'
loop_
_space_group_symop_operation_xyz
x,y,z
-x,-y,z
x,-y,1/2-z
-x,y,1/2-z
-x,-y,-z
x,y,-z
-x,y,1/2+z
x,-y,1/2+z
1/2+x,1/2+y,z
1/2-x,1/2-y,z
1/2+x,1/2-y,1/2-z
1/2-x,1/2+y,1/2-z
1/2-x,1/2-y,-z
1/2+x,1/2+y,-z
1/2-x,1/2+y,1/2+z
1/2+x,1/2-y,1/2+z
loop_
_atom_site_type_symbol
_atom_site_label
_atom_site_fract_x
_atom_site_fract_y
_atom_site_fract_z
Si Si1 0.761328 0.072462 0.770648
Si Si2 0.418692 0.051176 0.387410
Si Si3 0.806296 0.320984 0.613445
Si Si4 0.166063 0.199739 0.384030
Si Si5 0.995439 0.706378 0.613345
O O1 0.671631 0.048953 0.827301
O O2 0.733791 0.116698 0.676469
O O3 0.815705 0.125962 0.836327
O O4 0.810360 0.000000 0.750000
O O5 0.400026 0.036347 0.500000
O O6 0.451500 0.130521 0.378894
O O7 0.500000 0.000000 0.358995
O O8 0.811605 0.340894 0.500000
O O9 0.750000 0.250000 0.620120
O O10 0.905011 0.302306 0.651791
O O11 0.165639 0.194139 0.500000
O O12 0.250000 0.250000 0.359306
O O13 0.074149 0.236013 0.351532
O O14 0.006915 0.721797 0.500000
#
# Coordination Sequence:
#
# PCOD9496531 Si02
#       5
#    16  16  16  16  16
#     4  12  24  36  55  89 128 163 198 243 316 372
#     4  10  20  35  56  88 126 158 191 237 307 383
#     4  10  23  42  60  83 117 161 210 253 299 364
#     4  10  19  37  62  88 115 150 205 258 297 353
#     4   9  18  35  61  85 110 150 200 250 297 349
#
# _framework density 20.023851000000001
#
# number of rings (size 3 to 8) (size 9 to 14) (size 15 to 20)
#    0.000    1.800    2.000    2.400    0.000    6.000 
#    0.000    0.000    0.000    3.000    0.000    5.600 
#    0.000    0.000    0.000    0.000    0.000    0.000 
#
# Total GULP energy -223592.186225 kJ/mol
# GULP energy per Si atom -5589.804656 kJ/mol
# Density = 1.997828 g / cm^3
# Si number density = 20.023851 Si / 1000 Ang^3
#
#
#
# Elastic Constant Matrix: (Units=GPa)
#
#
# Indices 1 2 3 4 5 6 
#
# 1 24.0845 13.0158 5.0588 0.0000 0.0000 0.0000
# 2 13.0158 119.7519 34.7927 0.0000 0.0000 0.0000
# 3 5.0588 34.7927 103.7048 0.0000 0.0000 0.0000
# 4 0.0000 0.0000 0.0000 26.3526 0.0000 0.0000
# 5 0.0000 0.0000 0.0000 0.0000 -13.4085 0.0000
# 6 0.0000 0.0000 0.0000 0.0000 0.0000 35.5812
#
#
#
# Elastic Compliance Matrix: (Units=1/GPa)
#
#
# Indices 1 2 3 4 5 6 
#
# 1 0.044146 -0.004623 -0.000602 0.000000 0.000000 0.000000
# 2 -0.004623 0.009737 -0.003041 0.000000 0.000000 0.000000
# 3 -0.000602 -0.003041 0.010692 0.000000 0.000000 0.000000
# 4 0.000000 0.000000 0.000000 0.037947 0.000000 0.000000
# 5 0.000000 0.000000 0.000000 0.000000 -0.074579 0.000000
# 6 0.000000 0.000000 0.000000 0.000000 0.000000 0.028105
#
#
# Mechanical properties :
#
#
# Convention : Reuss Voigt Hill
#
# Bulk Modulus (GPa) = 20.81541 39.25285 30.03413
# Shear Modulus (GPa) = 56.43723 22.68330 39.56027
#
# Velocity S-wave (km/s) = 5.31471 3.36938 4.44966
# Velocity P-wave (km/s) = 6.93394 5.89768 6.43669
#
# Compressibility (1/GPa) = 0.04804133
#
# Stress axis : x y z
#
# Youngs Moduli (GPa) = 22.65234 102.70478 93.52422
#
# Poissons Ratio (x) = 0.47482 0.05634
# Poissons Ratio (y) = 0.10472 0.28442
# Poissons Ratio (z) = 0.01365 0.31234
#
# Static dielectric constant tensor:
#      x y z
#    x 1.656160 0.000000 0.000000 
#    y 0.000000 1.647280 0.000000 
#    z 0.000000 0.000000 1.764790 
# 
# From -- ./inp_files/28110.got.cif
#   From: 2010.05.17/outbox.cif.g08.bks.cpg/sg66_15_cif.got.tgz:28110.got - 2010.06.03 17:51:23.
