data_PCOD9496046
_publ_section_title
;
Structure prediction by ZEFSAII (Michael W. Deem and Ramdas Pophale) SiO2 
 PCOD9496046
Probable space group: C C C M
;
_chemical_formula_sum "Si O2"
_cell_formula_units_Z 80
_cell_length_a 7.950072
_cell_length_b 16.696803
_cell_length_c 25.566464
_cell_angle_alpha 90.000000
_cell_angle_beta 90.000000
_cell_angle_gamma 90.000000
_cell_volume 3393.712527
_symmetry_space_group_name_H-M "C C C M"
_symmetry_group_IT_number 66
_symmetry_cell_setting 'orthorhombic'
loop_
_space_group_symop_operation_xyz
x,y,z
-x,-y,z
x,-y,1/2-z
-x,y,1/2-z
-x,-y,-z
x,y,-z
-x,y,1/2+z
x,-y,1/2+z
1/2+x,1/2+y,z
1/2-x,1/2-y,z
1/2+x,1/2-y,1/2-z
1/2-x,1/2+y,1/2-z
1/2-x,1/2-y,-z
1/2+x,1/2+y,-z
1/2-x,1/2+y,1/2+z
1/2+x,1/2-y,1/2+z
loop_
_atom_site_type_symbol
_atom_site_label
_atom_site_fract_x
_atom_site_fract_y
_atom_site_fract_z
Si Si1 0.199377 0.490792 0.812030
Si Si2 0.747399 0.529838 0.500000
Si Si3 0.148194 0.678597 0.289636
Si Si4 0.095989 0.635477 0.500000
Si Si5 0.500951 0.226367 0.601408
Si Si6 0.669808 0.387754 0.895812
O O1 0.214506 0.500000 0.750000
O O2 0.245282 0.397131 0.814271
O O3 0.305567 0.554307 0.845543
O O4 0.000000 0.500000 0.827773
O O5 0.770006 0.435041 0.500000
O O6 0.664625 0.556581 0.553688
O O7 0.922513 0.582059 0.500000
O O8 0.250000 0.750000 0.261833
O O9 0.000000 0.651368 0.250000
O O10 0.072637 0.717197 0.341063
O O11 0.097685 0.689458 0.551904
O O12 0.471640 0.320900 0.597043
O O13 0.334212 0.170175 0.602840
#
# Coordination Sequence:
#
# PCOD9496046 Si02
#       6
#    16   8  16   8  16  16
#     4  11  20  37  60  87 113 159 211 254 310 382
#     4   9  17  27  51  94 125 161 210 267 310 362
#     4  12  26  41  64  90 124 162 212 260 320 382
#     4   9  17  31  56  86 130 168 213 260 312 378
#     4  10  20  35  57  91 126 165 207 261 322 376
#     4  10  19  32  60  89 127 159 207 265 319 367
#
# _framework density 23.573004999999998
#
# number of rings (size 3 to 8) (size 9 to 14) (size 15 to 20)
#    0.000    1.600    4.000    1.800    8.400    2.400 
#    0.000    1.500    0.000    0.000    0.000    4.200 
#    0.000    0.000    0.000    0.000    0.000    0.000 
#
# Total GULP energy -223299.581753 kJ/mol
# GULP energy per Si atom -5582.489544 kJ/mol
# Density = 2.351935 g / cm^3
# Si number density = 23.573005 Si / 1000 Ang^3
#
#
#
# Elastic Constant Matrix: (Units=GPa)
#
#
# Indices 1 2 3 4 5 6 
#
# 1 26.2271 42.3776 25.8511 0.0000 0.0000 0.0000
# 2 42.3776 222.3429 81.0093 0.0000 0.0000 0.0000
# 3 25.8511 81.0093 147.7924 0.0000 0.0000 0.0000
# 4 0.0000 0.0000 0.0000 48.2478 0.0000 0.0000
# 5 0.0000 0.0000 0.0000 0.0000 -6.9596 0.0000
# 6 0.0000 0.0000 0.0000 0.0000 0.0000 30.8785
#
#
#
# Elastic Compliance Matrix: (Units=1/GPa)
#
#
# Indices 1 2 3 4 5 6 
#
# 1 0.058026 -0.009199 -0.005108 0.000000 0.000000 0.000000
# 2 -0.009199 0.007078 -0.002271 0.000000 0.000000 0.000000
# 3 -0.005108 -0.002271 0.008904 0.000000 0.000000 0.000000
# 4 0.000000 0.000000 0.000000 0.020726 0.000000 0.000000
# 5 0.000000 0.000000 0.000000 0.000000 -0.143685 0.000000
# 6 0.000000 0.000000 0.000000 0.000000 0.000000 0.032385
#
#
# Mechanical properties :
#
#
# Convention : Reuss Voigt Hill
#
# Bulk Modulus (GPa) = 24.47712 77.20425 50.84068
# Shear Modulus (GPa) = 165.52944 30.90831 98.21887
#
# Velocity S-wave (km/s) = 8.38882 3.62494 6.46191
# Velocity P-wave (km/s) = 10.20960 7.09524 8.79143
#
# Compressibility (1/GPa) = 0.04085449
#
# Stress axis : x y z
#
# Youngs Moduli (GPa) = 17.23368 141.28102 112.30522
#
# Poissons Ratio (x) = 1.29958 0.57361
# Poissons Ratio (y) = 0.15852 0.25502
# Poissons Ratio (z) = 0.08802 0.32081
#
# Static dielectric constant tensor:
#      x y z
#    x 2.148500 0.000000 0.000000 
#    y 0.000000 2.189310 0.000000 
#    z 0.000000 0.000000 1.830340 
# 
# From -- ./inp_files/56665.got.cif
#   From: 2010.05.17/outbox.cif.g08.bks.cpg/sg66_29_cif.got.tgz:56665.got - 2010.06.03 17:51:23.
