data_PCOD9496427
_publ_section_title
;
Structure prediction by ZEFSAII (Michael W. Deem and Ramdas Pophale) SiO2 
 PCOD9496427
Probable space group: C C C M
;
_chemical_formula_sum "Si O2"
_cell_formula_units_Z 88
_cell_length_a 24.242006
_cell_length_b 11.470895
_cell_length_c 14.535811
_cell_angle_alpha 90.000000
_cell_angle_beta 90.000000
_cell_angle_gamma 90.000000
_cell_volume 4042.082062
_symmetry_space_group_name_H-M "C C C M"
_symmetry_group_IT_number 66
_symmetry_cell_setting 'orthorhombic'
loop_
_space_group_symop_operation_xyz
x,y,z
-x,-y,z
x,-y,1/2-z
-x,y,1/2-z
-x,-y,-z
x,y,-z
-x,y,1/2+z
x,-y,1/2+z
1/2+x,1/2+y,z
1/2-x,1/2-y,z
1/2+x,1/2-y,1/2-z
1/2-x,1/2+y,1/2-z
1/2-x,1/2-y,-z
1/2+x,1/2+y,-z
1/2-x,1/2+y,1/2+z
1/2+x,1/2-y,1/2+z
loop_
_atom_site_type_symbol
_atom_site_label
_atom_site_fract_x
_atom_site_fract_y
_atom_site_fract_z
Si Si1 0.205354 0.151968 0.850218
Si Si2 0.685004 0.281287 0.000000
Si Si3 0.035910 0.788501 0.836939
Si Si4 0.847463 0.717199 0.697727
Si Si5 0.482808 0.137045 0.000000
Si Si6 0.775336 0.500000 0.250000
Si Si7 0.386716 0.693361 0.500000
Si Si8 0.415020 0.557278 0.000000
O O1 0.250000 0.250000 0.876646
O O2 0.183348 0.176095 0.747216
O O3 0.153123 0.171730 0.913648
O O4 0.238004 0.031454 0.839042
O O5 0.750000 0.250000 0.000000
O O6 0.661753 0.220986 0.090146
O O7 0.650865 0.405957 0.000000
O O8 0.087810 0.725294 0.788454
O O9 0.000000 0.830616 0.750000
O O10 0.007087 0.697962 0.907493
O O11 0.059537 0.886634 0.907055
O O12 0.815349 0.607944 0.736635
O O13 0.419187 0.184525 0.000000
O O14 0.500000 0.000000 0.000000
O O15 0.426324 0.580536 0.500000
#
# Coordination Sequence:
#
# PCOD9496427 Si02
#       8
#    16   8  16  16   8   8   8   8
#     4  10  23  40  61  97 138 178 223 276 346 425
#     4  10  19  35  63  90 132 173 214 279 345 420
#     4  10  22  45  70  96 135 183 227 295 362 408
#     4  10  22  39  60  96 130 170 231 273 339 423
#     4  11  27  47  65  97 133 173 242 296 333 421
#     4  10  22  38  63  98 143 174 222 284 334 430
#     4  12  25  44  70  98 136 187 232 291 366 426
#     4   9  24  41  65 109 135 166 245 289 349 459
#
# _framework density 21.770959000000001
#
# number of rings (size 3 to 8) (size 9 to 14) (size 15 to 20)
#    0.000    1.818    0.000    3.545    7.636    6.182 
#    0.000    3.636    0.000    0.000    0.000    0.000 
#    0.000    0.000    0.000    0.000    0.000    0.000 
#
# Total GULP energy -245340.060798 kJ/mol
# GULP energy per Si atom -5575.910473 kJ/mol
# Density = 2.172141 g / cm^3
# Si number density = 21.770959 Si / 1000 Ang^3
#
#
#
# Elastic Constant Matrix: (Units=GPa)
#
#
# Indices 1 2 3 4 5 6 
#
# 1 122.5886 32.5908 35.4090 0.0000 0.0000 0.0000
# 2 32.5908 82.3050 27.4288 0.0000 0.0000 0.0000
# 3 35.4090 27.4288 92.3811 0.0000 0.0000 0.0000
# 4 0.0000 0.0000 0.0000 4.3530 0.0000 0.0000
# 5 0.0000 0.0000 0.0000 0.0000********** 0.0000
# 6 0.0000 0.0000 0.0000 0.0000 0.0000 18.4050
#
#
#
# Elastic Compliance Matrix: (Units=1/GPa)
#
#
# Indices 1 2 3 4 5 6 
#
# 1 0.009761 -0.002906 -0.002879 0.000000 0.000000 0.000000
# 2 -0.002906 0.014349 -0.003147 0.000000 0.000000 0.000000
# 3 -0.002879 -0.003147 0.012862 0.000000 0.000000 0.000000
# 4 0.000000 0.000000 0.000000 0.229726 0.000000 0.000000
# 5 0.000000 0.000000 0.000000 0.000000 -0.000047 0.000000
# 6 0.000000 0.000000 0.000000 0.000000 0.000000 0.054333
#
#
# Mechanical properties :
#
#
# Convention : Reuss Voigt Hill
#
# Bulk Modulus (GPa) = 52.32704 54.23688 53.28196
# Shear Modulus (GPa) = 14.48363 -4252.02223 -2118.76930
#
# Velocity S-wave (km/s) = 2.58209 -44.24150 -31.23014
# Velocity P-wave (km/s) = 5.74256 50.84074 35.71977
#
# Compressibility (1/GPa) = 0.01911058
#
# Stress axis : x y z
#
# Youngs Moduli (GPa) = 102.44419 69.69014 77.74623
#
# Poissons Ratio (x) = 0.20252 0.22381
# Poissons Ratio (y) = 0.29770 0.24464
# Poissons Ratio (z) = 0.29490 0.21929
#
# Static dielectric constant tensor:
#      x y z
#    x 1.895560 0.000000 0.000000 
#    y 0.000000 1.813670 0.000000 
#    z 0.000000 0.000000 1.785780 
# 
# From -- ./inp_files/26601.got.cif
#   From: 2010.05.17/outbox.cif.g08.bks.cpg/sg66_14_cif.got.tgz:26601.got - 2010.06.03 17:51:23.
