data_PCOD9496509
_publ_section_title
;
Structure prediction by ZEFSAII (Michael W. Deem and Ramdas Pophale) SiO2 
 PCOD9496509
Probable space group: C C C M
;
_chemical_formula_sum "Si O2"
_cell_formula_units_Z 112
_cell_length_a 25.447232
_cell_length_b 13.175400
_cell_length_c 15.224895
_cell_angle_alpha 90.000000
_cell_angle_beta 90.000000
_cell_angle_gamma 90.000000
_cell_volume 5104.564132
_symmetry_space_group_name_H-M "C C C M"
_symmetry_group_IT_number 66
_symmetry_cell_setting 'orthorhombic'
loop_
_space_group_symop_operation_xyz
x,y,z
-x,-y,z
x,-y,1/2-z
-x,y,1/2-z
-x,-y,-z
x,y,-z
-x,y,1/2+z
x,-y,1/2+z
1/2+x,1/2+y,z
1/2-x,1/2-y,z
1/2+x,1/2-y,1/2-z
1/2-x,1/2+y,1/2-z
1/2-x,1/2-y,-z
1/2+x,1/2+y,-z
1/2-x,1/2+y,1/2+z
1/2+x,1/2-y,1/2+z
loop_
_atom_site_type_symbol
_atom_site_label
_atom_site_fract_x
_atom_site_fract_y
_atom_site_fract_z
Si Si1 0.892314 0.126414 0.605312
Si Si2 0.306384 0.220150 0.352161
Si Si3 0.306053 0.795102 0.358050
Si Si4 0.348692 0.987943 0.851437
Si Si5 0.007544 0.816852 0.896108
Si Si6 0.115660 0.096821 0.393491
Si Si7 0.530610 0.911180 0.655374
O O1 0.897276 0.117809 0.500000
O O2 0.851322 0.214263 0.623323
O O3 0.950087 0.156821 0.640726
O O4 0.871349 0.017103 0.636468
O O5 0.250000 0.250000 0.387929
O O6 0.301495 0.201872 0.247637
O O7 0.323556 0.112719 0.391835
O O8 0.347195 0.311858 0.363690
O O9 0.250000 0.750000 0.391188
O O10 0.328174 0.905018 0.390429
O O11 0.410222 0.954775 0.844309
O O12 0.332376 0.000000 0.750000
O O13 0.056135 0.882549 0.862487
O O14 0.024210 0.699927 0.883780
O O15 0.004677 0.836760 0.000000
O O16 0.116772 0.100077 0.500000
O O17 0.500000 0.901729 0.750000
O O18 0.500000 0.000000 0.605588
#
# Coordination Sequence:
#
# PCOD9496509 Si02
#       7
#    16  16  16  16  16  16  16
#     4  10  22  39  60  84 116 156 195 238 289 345
#     4  10  22  38  61  88 115 150 195 242 290 345
#     4  10  23  40  61  86 115 155 195 240 286 344
#     4  10  19  37  57  86 118 148 188 235 293 342
#     4  10  21  37  57  84 117 149 191 238 291 346
#     4  10  21  39  61  85 117 153 192 239 293 348
#     4  11  20  32  57  85 112 155 187 231 285 347
#
# _framework density 21.941147999999998
#
# number of rings (size 3 to 8) (size 9 to 14) (size 15 to 20)
#    0.000    1.857    2.857    1.286    4.000    3.143 
#    0.000    1.429    0.000    2.571    0.000    0.000 
#    0.000    0.000    0.000    0.000    0.000    0.000 
#
# Total GULP energy -312243.316352 kJ/mol
# GULP energy per Si atom -5575.773506 kJ/mol
# Density = 2.189121 g / cm^3
# Si number density = 21.941148 Si / 1000 Ang^3
#
#
#
# Elastic Constant Matrix: (Units=GPa)
#
#
# Indices 1 2 3 4 5 6 
#
# 1 175.3550 105.6807 9.4487 0.0000 0.0000 0.0000
# 2 105.6807 212.8928 -4.7908 0.0000 0.0000 0.0000
# 3 9.4487 -4.7908 37.8248 0.0000 0.0000 0.0000
# 4 0.0000 0.0000 0.0000 22.7255 0.0000 0.0000
# 5 0.0000 0.0000 0.0000 0.0000 13.8043 0.0000
# 6 0.0000 0.0000 0.0000 0.0000 0.0000 18.7136
#
#
#
# Elastic Compliance Matrix: (Units=1/GPa)
#
#
# Indices 1 2 3 4 5 6 
#
# 1 0.008390 -0.004224 -0.002631 0.000000 0.000000 0.000000
# 2 -0.004224 0.006837 0.001921 0.000000 0.000000 0.000000
# 3 -0.002631 0.001921 0.027338 0.000000 0.000000 0.000000
# 4 0.000000 0.000000 0.000000 0.044003 0.000000 0.000000
# 5 0.000000 0.000000 0.000000 0.000000 0.072441 0.000000
# 6 0.000000 0.000000 0.000000 0.000000 0.000000 0.053437
#
#
# Mechanical properties :
#
#
# Convention : Reuss Voigt Hill
#
# Bulk Modulus (GPa) = 30.58287 71.86110 51.22199
# Shear Modulus (GPa) = 21.43951 32.09763 26.76857
#
# Velocity S-wave (km/s) = 3.12931 3.82893 3.49666
# Velocity P-wave (km/s) = 5.19862 7.23675 6.30064
#
# Compressibility (1/GPa) = 0.03269804
#
# Stress axis : x y z
#
# Youngs Moduli (GPa) = 119.18622 146.25626 36.57881
#
# Poissons Ratio (x) = 0.61781 0.09624
# Poissons Ratio (y) = 0.50346 -0.07028
# Poissons Ratio (z) = 0.31357 -0.28099
#
# Static dielectric constant tensor:
#      x y z
#    x 1.722830 0.000000 0.000000 
#    y 0.000000 1.871510 0.000000 
#    z 0.000000 0.000000 1.843600 
# 
# From -- ./inp_files/52582.got.cif
#   From: 2010.05.17/outbox.cif.g08.bks.cpg/sg66_27_cif.got.tgz:52582.got - 2010.06.03 17:51:23.
