data_PCOD9496807
_publ_section_title
;
Structure prediction by ZEFSAII (Michael W. Deem and Ramdas Pophale) SiO2 
 PCOD9496807
Probable space group: C C C M
;
_chemical_formula_sum "Si O2"
_cell_formula_units_Z 112
_cell_length_a 12.194067
_cell_length_b 29.931378
_cell_length_c 15.350762
_cell_angle_alpha 90.000000
_cell_angle_beta 90.000000
_cell_angle_gamma 90.000000
_cell_volume 5602.801380
_symmetry_space_group_name_H-M "C C C M"
_symmetry_group_IT_number 66
_symmetry_cell_setting 'orthorhombic'
loop_
_space_group_symop_operation_xyz
x,y,z
-x,-y,z
x,-y,1/2-z
-x,y,1/2-z
-x,-y,-z
x,y,-z
-x,y,1/2+z
x,-y,1/2+z
1/2+x,1/2+y,z
1/2-x,1/2-y,z
1/2+x,1/2-y,1/2-z
1/2-x,1/2+y,1/2-z
1/2-x,1/2-y,-z
1/2+x,1/2+y,-z
1/2-x,1/2+y,1/2+z
1/2+x,1/2-y,1/2+z
loop_
_atom_site_type_symbol
_atom_site_label
_atom_site_fract_x
_atom_site_fract_y
_atom_site_fract_z
Si Si1 0.841383 0.524091 0.106212
Si Si2 0.421979 0.065642 0.395322
Si Si3 0.874879 0.821085 0.774530
Si Si4 0.313233 0.703097 0.094299
Si Si5 0.948529 0.754528 0.093966
Si Si6 0.247358 0.385871 0.896728
Si Si7 0.989634 0.343787 0.351120
O O1 0.837156 0.472558 0.135988
O O2 0.755678 0.562134 0.131768
O O3 0.959815 0.544896 0.131258
O O4 0.840787 0.523433 0.000000
O O5 0.419393 0.065913 0.500000
O O6 0.421687 0.117166 0.368590
O O7 0.801287 0.820720 0.687251
O O8 0.879329 0.772946 0.824396
O O9 0.830738 0.856355 0.843097
O O10 0.000000 0.831779 0.750000
O O11 0.250000 0.750000 0.098090
O O12 0.442156 0.715415 0.092534
O O13 0.284973 0.681668 0.000000
O O14 0.991494 0.704020 0.102902
O O15 0.891582 0.759411 0.000000
O O16 0.126755 0.365233 0.878555
O O17 0.267496 0.383479 0.000000
O O18 0.000000 0.333788 0.250000
#
# Coordination Sequence:
#
# PCOD9496807 Si02
#       7
#    16  16  16  16  16  16  16
#     4   7  12  25  46  69  95 132 173 215 263 323
#     4   8  13  26  45  64  94 135 175 211 256 317
#     4  10  21  34  53  77 103 141 187 246 293 334
#     4   9  19  34  50  67  93 141 187 224 276 339
#     4  10  20  34  49  72 106 144 190 237 283 332
#     4  10  20  34  53  77 106 144 192 237 286 339
#     4  11  21  30  44  74 112 151 184 227 275 334
#
# _framework density 19.989999000000001
#
# number of rings (size 3 to 8) (size 9 to 14) (size 15 to 20)
#    0.000    2.714    0.000    4.714    4.000    0.571 
#    0.000    7.143    0.000    0.000    0.000    0.000 
#    0.000    3.429    0.000   12.286    3.143    0.429 
#
# Total GULP energy -311964.217698 kJ/mol
# GULP energy per Si atom -5570.789602 kJ/mol
# Density = 1.994450 g / cm^3
# Si number density = 19.989999 Si / 1000 Ang^3
#
#
#
# Elastic Constant Matrix: (Units=GPa)
#
#
# Indices 1 2 3 4 5 6 
#
# 1 24.0316 25.1405 28.8830 0.0000 0.0000 0.0000
# 2 25.1405 112.8884 38.4237 0.0000 0.0000 0.0000
# 3 28.8830 38.4237 114.0730 0.0000 0.0000 0.0000
# 4 0.0000 0.0000 0.0000 8.0393 0.0000 0.0000
# 5 0.0000 0.0000 0.0000 0.0000 36.9780 0.0000
# 6 0.0000 0.0000 0.0000 0.0000 0.0000 -43.5413
#
#
#
# Elastic Compliance Matrix: (Units=1/GPa)
#
#
# Indices 1 2 3 4 5 6 
#
# 1 0.069725 -0.010752 -0.014033 0.000000 0.000000 0.000000
# 2 -0.010752 0.011663 -0.001206 0.000000 0.000000 0.000000
# 3 -0.014033 -0.001206 0.012726 0.000000 0.000000 0.000000
# 4 0.000000 0.000000 0.000000 0.124389 0.000000 0.000000
# 5 0.000000 0.000000 0.000000 0.000000 0.027043 0.000000
# 6 0.000000 0.000000 0.000000 0.000000 0.000000 -0.022967
#
#
# Mechanical properties :
#
#
# Convention : Reuss Voigt Hill
#
# Bulk Modulus (GPa) = 23.73447 48.43195 36.08321
# Shear Modulus (GPa) = 17.32471 10.86491 14.09481
#
# Velocity S-wave (km/s) = 2.94712 2.33388 2.65824
# Velocity P-wave (km/s) = 4.84558 5.61634 5.24514
#
# Compressibility (1/GPa) = 0.04213282
#
# Stress axis : x y z
#
# Youngs Moduli (GPa) = 14.34200 85.73891 78.58112
#
# Poissons Ratio (x) = 0.92184 1.10271
# Poissons Ratio (y) = 0.15420 0.09479
# Poissons Ratio (z) = 0.20126 0.10343
#
# Static dielectric constant tensor:
#      x y z
#    x 1.703080 0.000000 0.000000 
#    y 0.000000 1.760680 0.000000 
#    z 0.000000 0.000000 1.775470 
# 
# From -- ./inp_files/29012.got.cif
#   From: 2010.05.17/outbox.cif.g08.bks.cpg/sg66_15_cif.got.tgz:29012.got - 2010.06.03 17:51:23.
