data_PCOD9496119
_publ_section_title
;
Structure prediction by ZEFSAII (Michael W. Deem and Ramdas Pophale) SiO2 
 PCOD9496119
Probable space group: C C C M
;
_chemical_formula_sum "Si O2"
_cell_formula_units_Z 80
_cell_length_a 24.646492
_cell_length_b 9.541527
_cell_length_c 17.799032
_cell_angle_alpha 90.000000
_cell_angle_beta 90.000000
_cell_angle_gamma 90.000000
_cell_volume 4185.712366
_symmetry_space_group_name_H-M "C C C M"
_symmetry_group_IT_number 66
_symmetry_cell_setting 'orthorhombic'
loop_
_space_group_symop_operation_xyz
x,y,z
-x,-y,z
x,-y,1/2-z
-x,y,1/2-z
-x,-y,-z
x,y,-z
-x,y,1/2+z
x,-y,1/2+z
1/2+x,1/2+y,z
1/2-x,1/2-y,z
1/2+x,1/2-y,1/2-z
1/2-x,1/2+y,1/2-z
1/2-x,1/2-y,-z
1/2+x,1/2+y,-z
1/2-x,1/2+y,1/2+z
1/2+x,1/2-y,1/2+z
loop_
_atom_site_type_symbol
_atom_site_label
_atom_site_fract_x
_atom_site_fract_y
_atom_site_fract_z
Si Si1 0.072176 0.783865 0.414345
Si Si2 0.467478 0.769900 0.178579
Si Si3 0.794865 0.632481 0.299617
Si Si4 0.114442 0.536895 0.912580
Si Si5 0.127415 0.855898 0.729542
O O1 0.072665 0.831622 0.500000
O O2 0.094950 0.624337 0.411220
O O3 0.110497 0.863972 0.356752
O O4 0.012238 0.788654 0.378512
O O5 0.500000 0.832111 0.250000
O O6 0.431346 0.878973 0.133020
O O7 0.426339 0.661020 0.218251
O O8 0.776203 0.500000 0.250000
O O9 0.750000 0.750000 0.320261
O O10 0.829341 0.571644 0.369852
O O11 0.837186 0.720342 0.248108
O O12 0.116988 0.579664 0.000000
O O13 0.155608 0.000000 0.750000
#
# Coordination Sequence:
#
# PCOD9496119 Si02
#       5
#    16  16  16  16  16
#     4  10  19  33  55  83 121 160 196 235 291 350
#     4   9  19  30  53  85 122 163 206 237 281 337
#     4  11  22  40  65  89 110 146 198 253 306 361
#     4  10  20  35  56  87 124 156 194 246 300 354
#     4  10  21  38  56  83 120 158 200 246 290 346
#
# _framework density 19.112635999999998
#
# number of rings (size 3 to 8) (size 9 to 14) (size 15 to 20)
#    0.000    2.000    2.000    1.800    0.000    8.000 
#    0.000    6.000    0.000    4.800    0.000    0.000 
#    0.000    0.000    0.000    0.000    0.000    0.000 
#
# Total GULP energy -223074.072914 kJ/mol
# GULP energy per Si atom -5576.851823 kJ/mol
# Density = 1.906913 g / cm^3
# Si number density = 19.112636 Si / 1000 Ang^3
#
#
#
# Elastic Constant Matrix: (Units=GPa)
#
#
# Indices 1 2 3 4 5 6 
#
# 1 90.9691 17.8743 42.0425 0.0000 0.0000 0.0000
# 2 17.8743 71.7042 28.7235 0.0000 0.0000 0.0000
# 3 42.0425 28.7235 150.8774 0.0000 0.0000 0.0000
# 4 0.0000 0.0000 0.0000 17.0925 0.0000 0.0000
# 5 0.0000 0.0000 0.0000 0.0000 13.9505 0.0000
# 6 0.0000 0.0000 0.0000 0.0000 0.0000 -29.0848
#
#
#
# Elastic Compliance Matrix: (Units=1/GPa)
#
#
# Indices 1 2 3 4 5 6 
#
# 1 0.012856 -0.001916 -0.003218 0.000000 0.000000 0.000000
# 2 -0.001916 0.015383 -0.002395 0.000000 0.000000 0.000000
# 3 -0.003218 -0.002395 0.007980 0.000000 0.000000 0.000000
# 4 0.000000 0.000000 0.000000 0.058505 0.000000 0.000000
# 5 0.000000 0.000000 0.000000 0.000000 0.071682 0.000000
# 6 0.000000 0.000000 0.000000 0.000000 0.000000 -0.034382
#
#
# Mechanical properties :
#
#
# Convention : Reuss Voigt Hill
#
# Bulk Modulus (GPa) = 47.25178 54.53682 50.89430
# Shear Modulus (GPa) = 32.43895 15.38567 23.91231
#
# Velocity S-wave (km/s) = 4.12424 2.84033 3.54096
# Velocity P-wave (km/s) = 6.88880 6.27320 6.58820
#
# Compressibility (1/GPa) = 0.02116322
#
# Stress axis : x y z
#
# Youngs Moduli (GPa) = 77.78292 65.00665 125.30665
#
# Poissons Ratio (x) = 0.12454 0.40320
# Poissons Ratio (y) = 0.14902 0.30007
# Poissons Ratio (z) = 0.25028 0.15567
#
# Static dielectric constant tensor:
#      x y z
#    x 1.689690 0.000000 0.000000 
#    y 0.000000 1.666340 0.000000 
#    z 0.000000 0.000000 1.641500 
# 
# From -- ./inp_files/36934.got.cif
#   From: 2010.05.17/outbox.cif.g08.bks.cpg/sg66_19_cif.got.tgz:36934.got - 2010.06.03 17:51:23.
