data_PCOD9496205
_publ_section_title
;
Structure prediction by ZEFSAII (Michael W. Deem and Ramdas Pophale) SiO2 
 PCOD9496205
Probable space group: C C C M
;
_chemical_formula_sum "Si O2"
_cell_formula_units_Z 72
_cell_length_a 4.959595
_cell_length_b 27.289472
_cell_length_c 26.242905
_cell_angle_alpha 90.000000
_cell_angle_beta 90.000000
_cell_angle_gamma 90.000000
_cell_volume 3551.838862
_symmetry_space_group_name_H-M "C C C M"
_symmetry_group_IT_number 66
_symmetry_cell_setting 'orthorhombic'
loop_
_space_group_symop_operation_xyz
x,y,z
-x,-y,z
x,-y,1/2-z
-x,y,1/2-z
-x,-y,-z
x,y,-z
-x,y,1/2+z
x,-y,1/2+z
1/2+x,1/2+y,z
1/2-x,1/2-y,z
1/2+x,1/2-y,1/2-z
1/2-x,1/2+y,1/2-z
1/2-x,1/2-y,-z
1/2+x,1/2+y,-z
1/2-x,1/2+y,1/2+z
1/2+x,1/2-y,1/2+z
loop_
_atom_site_type_symbol
_atom_site_label
_atom_site_fract_x
_atom_site_fract_y
_atom_site_fract_z
Si Si1 0.011771 0.093108 0.192563
Si Si2 0.494117 0.155299 0.662836
Si Si3 0.250000 0.750000 0.784475
Si Si4 0.398550 0.552958 0.414270
Si Si5 0.908932 0.385660 0.057174
O O1 0.222216 0.138427 0.186569
O O2 0.000000 0.074035 0.250000
O O3 0.717389 0.113685 0.179807
O O4 0.099932 0.056816 0.147382
O O5 0.380945 0.206364 0.682921
O O6 0.496006 0.151735 0.601589
O O7 0.500000 0.731862 0.750000
O O8 0.500000 0.500000 0.430527
O O9 0.107832 0.568071 0.434752
O O10 0.608506 0.594309 0.433155
O O11 0.935293 0.366817 0.000000
#
# Coordination Sequence:
#
# PCOD9496205 Si02
#       5
#    16  16   8  16  16
#     4  10  19  34  53  73 107 144 170 208 264 317
#     4  10  21  35  52  79 106 134 176 215 256 315
#     4  12  22  34  57  84 109 136 172 218 266 316
#     4  10  21  34  52  80 105 133 180 223 257 311
#     4  10  21  37  55  74 104 141 174 217 268 310
#
# _framework density 20.271189
#
# number of rings (size 3 to 8) (size 9 to 14) (size 15 to 20)
#    0.000    1.778    0.000    5.333    0.000    3.111 
#    0.000    0.556    0.000    8.000    0.000   10.889 
#    0.000    0.000    0.000    0.000    0.000    0.000 
#
# Total GULP energy -201100.986318 kJ/mol
# GULP energy per Si atom -5586.138509 kJ/mol
# Density = 2.022505 g / cm^3
# Si number density = 20.271189 Si / 1000 Ang^3
#
#
#
# Elastic Constant Matrix: (Units=GPa)
#
#
# Indices 1 2 3 4 5 6 
#
# 1 83.6763 -5.2621 18.9543 0.0000 0.0000 0.0000
# 2 -5.2621 48.9196 5.4947 0.0000 0.0000 0.0000
# 3 18.9543 5.4947 142.8769 0.0000 0.0000 0.0000
# 4 0.0000 0.0000 0.0000 -2.6857 0.0000 0.0000
# 5 0.0000 0.0000 0.0000 0.0000 13.6927 0.0000
# 6 0.0000 0.0000 0.0000 0.0000 0.0000 22.6412
#
#
#
# Elastic Compliance Matrix: (Units=1/GPa)
#
#
# Indices 1 2 3 4 5 6 
#
# 1 0.012434 0.001529 -0.001708 0.000000 0.000000 0.000000
# 2 0.001529 0.020719 -0.001000 0.000000 0.000000 0.000000
# 3 -0.001708 -0.001000 0.007264 0.000000 0.000000 0.000000
# 4 0.000000 0.000000 0.000000 -0.372344 0.000000 0.000000
# 5 0.000000 0.000000 0.000000 0.000000 0.073031 0.000000
# 6 0.000000 0.000000 0.000000 0.000000 0.000000 0.044167
#
#
# Mechanical properties :
#
#
# Convention : Reuss Voigt Hill
#
# Bulk Modulus (GPa) = 26.27478 34.87184 30.57331
# Shear Modulus (GPa) = -25.03941 23.81538 -0.61201
#
# Velocity S-wave (km/s) = -3.51838 3.43131 -0.55006
# Velocity P-wave (km/s) = 1.87499 5.73921 3.83555
#
# Compressibility (1/GPa) = 0.03805931
#
# Stress axis : x y z
#
# Youngs Moduli (GPa) = 80.42490 48.26602 137.66322
#
# Poissons Ratio (x) = -0.07382 0.23517
# Poissons Ratio (y) = -0.12300 0.13762
# Poissons Ratio (z) = 0.13739 0.04825
#
# Static dielectric constant tensor:
#      x y z
#    x 1.696390 0.000000 0.000000 
#    y 0.000000 1.696590 0.000000 
#    z 0.000000 0.000000 1.774010 
# 
# From -- ./inp_files/61441.got.cif
#   From: 2010.05.17/outbox.cif.g08.bks.cpg/sg66_31_cif.got.tgz:61441.got - 2010.06.03 17:51:23.
