data_PCOD9496327
_publ_section_title
;
Structure prediction by ZEFSAII (Michael W. Deem and Ramdas Pophale) SiO2 
 PCOD9496327
Probable space group: C C C M
;
_chemical_formula_sum "Si O2"
_cell_formula_units_Z 96
_cell_length_a 11.979422
_cell_length_b 22.841450
_cell_length_c 14.265411
_cell_angle_alpha 90.000000
_cell_angle_beta 90.000000
_cell_angle_gamma 90.000000
_cell_volume 3903.406875
_symmetry_space_group_name_H-M "C C C M"
_symmetry_group_IT_number 66
_symmetry_cell_setting 'orthorhombic'
loop_
_space_group_symop_operation_xyz
x,y,z
-x,-y,z
x,-y,1/2-z
-x,y,1/2-z
-x,-y,-z
x,y,-z
-x,y,1/2+z
x,-y,1/2+z
1/2+x,1/2+y,z
1/2-x,1/2-y,z
1/2+x,1/2-y,1/2-z
1/2-x,1/2+y,1/2-z
1/2-x,1/2-y,-z
1/2+x,1/2+y,-z
1/2-x,1/2+y,1/2+z
1/2+x,1/2-y,1/2+z
loop_
_atom_site_type_symbol
_atom_site_label
_atom_site_fract_x
_atom_site_fract_y
_atom_site_fract_z
Si Si1 0.371508 0.751312 0.782849
Si Si2 0.986562 0.147180 0.110744
Si Si3 0.200708 0.091195 0.885072
Si Si4 0.337813 0.868321 0.892921
Si Si5 0.160974 0.038973 0.387392
Si Si6 0.557322 0.059108 0.391735
O O1 0.500000 0.766676 0.750000
O O2 0.250000 0.750000 0.726867
O O3 0.404655 0.691951 0.838485
O O4 0.339588 0.805190 0.849104
O O5 0.115098 0.142281 0.145297
O O6 0.943299 0.081233 0.125118
O O7 0.984971 0.160550 0.000000
O O8 0.329805 0.088949 0.854990
O O9 0.159862 0.026927 0.852309
O O10 0.195980 0.094686 0.000000
O O11 0.262701 0.920941 0.852152
O O12 0.462450 0.892771 0.891478
O O13 0.298670 0.862368 0.000000
O O14 0.174001 0.031828 0.500000
O O15 0.586052 0.042591 0.500000
O O16 0.500000 0.000000 0.352399
#
# Coordination Sequence:
#
# PCOD9496327 Si02
#       6
#    16  16  16  16  16  16
#     4  12  27  45  63  84 116 167 216 261 312 369
#     4  10  20  35  60  92 122 154 200 258 311 364
#     4   9  16  27  49  90 133 157 181 234 310 374
#     4  10  19  34  62  94 118 149 201 256 301 359
#     4   9  15  27  54  91 123 146 180 239 304 359
#     4   9  15  26  48  84 125 157 185 229 297 369
#
# _framework density 24.593900999999999
#
# number of rings (size 3 to 8) (size 9 to 14) (size 15 to 20)
#    0.000    2.167    3.333    1.000    0.000    4.000 
#    0.000    0.000    0.000    7.500    0.000    0.000 
#    0.000    0.000    0.000    0.000    0.000    0.000 
#
# Total GULP energy -267655.223773 kJ/mol
# GULP energy per Si atom -5576.150495 kJ/mol
# Density = 2.453792 g / cm^3
# Si number density = 24.593901 Si / 1000 Ang^3
#
#
#
# Elastic Constant Matrix: (Units=GPa)
#
#
# Indices 1 2 3 4 5 6 
#
# 1 197.8188 46.1732 29.1673 0.0000 0.0000 0.0000
# 2 46.1732 62.7704 2.2441 0.0000 0.0000 0.0000
# 3 29.1673 2.2441 63.1073 0.0000 0.0000 0.0000
# 4 0.0000 0.0000 0.0000 95.3723 0.0000 0.0000
# 5 0.0000 0.0000 0.0000 0.0000 -9.3216 0.0000
# 6 0.0000 0.0000 0.0000 0.0000 0.0000 48.4960
#
#
#
# Elastic Compliance Matrix: (Units=1/GPa)
#
#
# Indices 1 2 3 4 5 6 
#
# 1 0.006586 -0.004742 -0.002875 0.000000 0.000000 0.000000
# 2 -0.004742 0.019365 0.001503 0.000000 0.000000 0.000000
# 3 -0.002875 0.001503 0.017121 0.000000 0.000000 0.000000
# 4 0.000000 0.000000 0.000000 0.010485 0.000000 0.000000
# 5 0.000000 0.000000 0.000000 0.000000 -0.107278 0.000000
# 6 0.000000 0.000000 0.000000 0.000000 0.000000 0.020620
#
#
# Mechanical properties :
#
#
# Convention : Reuss Voigt Hill
#
# Bulk Modulus (GPa) = 32.42069 53.20731 42.81400
# Shear Modulus (GPa) = -472.12681 43.31681 -214.40500
#
# Velocity S-wave (km/s) = -13.87032 4.20132 -9.34705
# Velocity P-wave (km/s) = 15.59819 6.72429 9.95207
#
# Compressibility (1/GPa) = 0.03084450
#
# Stress axis : x y z
#
# Youngs Moduli (GPa) = 151.84099 51.63885 58.40611
#
# Poissons Ratio (x) = 0.24485 0.16793
# Poissons Ratio (y) = 0.71998 -0.08778
# Poissons Ratio (z) = 0.43658 -0.07761
#
# Static dielectric constant tensor:
#      x y z
#    x 2.074610 0.000000 0.000000 
#    y 0.000000 1.914090 0.000000 
#    z 0.000000 0.000000 2.020590 
# 
# From -- ./inp_files/38880.got.cif
#   From: 2010.05.17/outbox.cif.g08.bks.cpg/sg66_20_cif.got.tgz:38880.got - 2010.06.03 17:51:23.
