data_PCOD9496839
_publ_section_title
;
Structure prediction by ZEFSAII (Michael W. Deem and Ramdas Pophale) SiO2 
 PCOD9496839
Probable space group: C C C M
;
_chemical_formula_sum "Si O2"
_cell_formula_units_Z 96
_cell_length_a 20.253969
_cell_length_b 29.587407
_cell_length_c 9.218937
_cell_angle_alpha 90.000000
_cell_angle_beta 90.000000
_cell_angle_gamma 90.000000
_cell_volume 5524.562535
_symmetry_space_group_name_H-M "C C C M"
_symmetry_group_IT_number 66
_symmetry_cell_setting 'orthorhombic'
loop_
_space_group_symop_operation_xyz
x,y,z
-x,-y,z
x,-y,1/2-z
-x,y,1/2-z
-x,-y,-z
x,y,-z
-x,y,1/2+z
x,-y,1/2+z
1/2+x,1/2+y,z
1/2-x,1/2-y,z
1/2+x,1/2-y,1/2-z
1/2-x,1/2+y,1/2-z
1/2-x,1/2-y,-z
1/2+x,1/2+y,-z
1/2-x,1/2+y,1/2+z
1/2+x,1/2-y,1/2+z
loop_
_atom_site_type_symbol
_atom_site_label
_atom_site_fract_x
_atom_site_fract_y
_atom_site_fract_z
Si Si1 0.348288 0.711541 0.829082
Si Si2 0.197569 0.599358 0.331091
Si Si3 0.439158 0.047771 0.169703
Si Si4 0.669383 0.548542 0.174664
Si Si5 0.308587 0.192124 0.669404
Si Si6 0.428737 0.631886 0.674260
O O1 0.349879 0.764017 0.779628
O O2 0.270104 0.701154 0.820901
O O3 0.388989 0.675048 0.738034
O O4 0.367053 0.708817 0.000000
O O5 0.211675 0.608815 0.500000
O O6 0.131386 0.570724 0.318320
O O7 0.261283 0.571511 0.276412
O O8 0.182631 0.646110 0.253428
O O9 0.500000 0.072298 0.250000
O O10 0.433287 0.000000 0.250000
O O11 0.454545 0.042784 0.000000
O O12 0.659320 0.500000 0.250000
O O13 0.613063 0.586060 0.204936
O O14 0.672078 0.541826 0.000000
O O15 0.324120 0.186463 0.500000
O O16 0.500000 0.629668 0.750000
O O17 0.434826 0.635997 0.500000
#
# Coordination Sequence:
#
# PCOD9496839 Si02
#       6
#    16  16  16  16  16  16
#     4   9  18  35  56  83 112 141 180 221 269 328
#     4  10  20  35  54  82 114 144 183 229 274 328
#     4  10  20  34  53  75 105 142 181 223 266 324
#     4  10  22  38  56  81 111 144 188 237 285 335
#     4   9  18  32  56  85 112 140 175 222 270 324
#     4  11  23  39  59  82 112 150 191 236 286 340
#
# _framework density 17.376942
#
# number of rings (size 3 to 8) (size 9 to 14) (size 15 to 20)
#    0.000    2.167    1.667    3.000    0.000    4.333 
#    0.000    4.167    0.000    2.000    0.000    0.000 
#    0.000    0.000    0.000    0.000    0.000    0.000 
#
# Total GULP energy -267522.895726 kJ/mol
# GULP energy per Si atom -5573.393661 kJ/mol
# Density = 1.733739 g / cm^3
# Si number density = 17.376942 Si / 1000 Ang^3
#
#
#
# Elastic Constant Matrix: (Units=GPa)
#
#
# Indices 1 2 3 4 5 6 
#
# 1 98.9173 66.6435 58.9176 0.0000 0.0000 0.0000
# 2 66.6435 157.5096 76.3062 0.0000 0.0000 0.0000
# 3 58.9176 76.3062 81.4129 0.0000 0.0000 0.0000
# 4 0.0000 0.0000 0.0000 31.7112 0.0000 0.0000
# 5 0.0000 0.0000 0.0000 0.0000 27.0989 0.0000
# 6 0.0000 0.0000 0.0000 0.0000 0.0000 18.7567
#
#
#
# Elastic Compliance Matrix: (Units=1/GPa)
#
#
# Indices 1 2 3 4 5 6 
#
# 1 0.018261 -0.002425 -0.010942 0.000000 0.000000 0.000000
# 2 -0.002425 0.011951 -0.009447 0.000000 0.000000 0.000000
# 3 -0.010942 -0.009447 0.029055 0.000000 0.000000 0.000000
# 4 0.000000 0.000000 0.000000 0.031535 0.000000 0.000000
# 5 0.000000 0.000000 0.000000 0.000000 0.036902 0.000000
# 6 0.000000 0.000000 0.000000 0.000000 0.000000 0.053314
#
#
# Mechanical properties :
#
#
# Convention : Reuss Voigt Hill
#
# Bulk Modulus (GPa) = 73.31281 82.39718 77.85499
# Shear Modulus (GPa) = 21.62696 24.57817 23.10257
#
# Velocity S-wave (km/s) = 3.53169 3.76495 3.65018
# Velocity P-wave (km/s) = 7.67540 8.14986 7.91618
#
# Compressibility (1/GPa) = 0.01364018
#
# Stress axis : x y z
#
# Youngs Moduli (GPa) = 54.76222 83.67176 34.41690
#
# Poissons Ratio (x) = 0.20294 0.37658
# Poissons Ratio (y) = 0.13282 0.32512
# Poissons Ratio (z) = 0.59920 0.79041
#
# Static dielectric constant tensor:
#      x y z
#    x 1.611880 0.000000 0.000000 
#    y 0.000000 -0.417520 0.000000 
#    z 0.000000 0.000000 1.589820 
# 
# From -- ./inp_files/8020.got.cif
#   From: 2010.05.17/outbox.cif.g08.bks.cpg/sg66_5_cif.got.tgz:8020.got - 2010.06.03 17:51:23.
