data_PCOD9496011
_publ_section_title
;
Structure prediction by ZEFSAII (Michael W. Deem and Ramdas Pophale) SiO2 
 PCOD9496011
Probable space group: C C C M
;
_chemical_formula_sum "Si O2"
_cell_formula_units_Z 80
_cell_length_a 8.490681
_cell_length_b 16.136312
_cell_length_c 30.368584
_cell_angle_alpha 90.000000
_cell_angle_beta 90.000000
_cell_angle_gamma 90.000000
_cell_volume 4160.747390
_symmetry_space_group_name_H-M "C C C M"
_symmetry_group_IT_number 66
_symmetry_cell_setting 'orthorhombic'
loop_
_space_group_symop_operation_xyz
x,y,z
-x,-y,z
x,-y,1/2-z
-x,y,1/2-z
-x,-y,-z
x,y,-z
-x,y,1/2+z
x,-y,1/2+z
1/2+x,1/2+y,z
1/2-x,1/2-y,z
1/2+x,1/2-y,1/2-z
1/2-x,1/2+y,1/2-z
1/2-x,1/2-y,-z
1/2+x,1/2+y,-z
1/2-x,1/2+y,1/2+z
1/2+x,1/2-y,1/2+z
loop_
_atom_site_type_symbol
_atom_site_label
_atom_site_fract_x
_atom_site_fract_y
_atom_site_fract_z
Si Si1 0.566362 0.594255 0.048209
Si Si2 0.936360 0.761810 0.200606
Si Si3 0.631629 0.172117 0.871281
Si Si4 0.440221 0.593391 0.859054
Si Si5 0.055598 0.594842 0.450130
O O1 0.500000 0.500000 0.046802
O O2 0.494846 0.628968 0.093151
O O3 0.754942 0.595970 0.053022
O O4 0.526710 0.631555 0.000000
O O5 0.750000 0.750000 0.199811
O O6 0.000000 0.756366 0.250000
O O7 0.019736 0.694391 0.169321
O O8 0.988013 0.848910 0.178688
O O9 0.750000 0.250000 0.877362
O O10 0.751447 0.098091 0.859507
O O11 0.529840 0.150048 0.913831
O O12 0.500000 0.500000 0.855275
O O13 0.012833 0.620324 0.500000
O O14 0.000000 0.500000 0.444439
#
# Coordination Sequence:
#
# PCOD9496011 Si02
#       5
#    16  16  16  16  16
#     4   9  17  30  50  79 114 150 187 230 282 333
#     4  11  23  42  63  83 113 151 189 234 293 351
#     4  10  22  38  58  86 119 153 192 233 287 348
#     4  10  20  36  60  87 115 151 193 238 285 335
#     4  10  19  32  54  84 117 155 197 239 282 332
#
# _framework density 19.227315000000001
#
# number of rings (size 3 to 8) (size 9 to 14) (size 15 to 20)
#    0.000    2.000    0.000    5.400    0.000    3.200 
#    0.000    3.000    0.000   15.000    0.000    0.000 
#    0.000    0.000    0.000    0.000    0.000    0.000 
#
# Total GULP energy -223279.647852 kJ/mol
# GULP energy per Si atom -5581.991196 kJ/mol
# Density = 1.918355 g / cm^3
# Si number density = 19.227315 Si / 1000 Ang^3
#
#
#
# Elastic Constant Matrix: (Units=GPa)
#
#
# Indices 1 2 3 4 5 6 
#
# 1 150.8447 40.5939 91.3797 0.0000 0.0000 0.0000
# 2 40.5939 45.2981 50.5842 0.0000 0.0000 0.0000
# 3 91.3797 50.5842 203.3749 0.0000 0.0000 0.0000
# 4 0.0000 0.0000 0.0000 32.8691 0.0000 0.0000
# 5 0.0000 0.0000 0.0000 0.0000 40.6371 0.0000
# 6 0.0000 0.0000 0.0000 0.0000 0.0000 33.5058
#
#
#
# Elastic Compliance Matrix: (Units=1/GPa)
#
#
# Indices 1 2 3 4 5 6 
#
# 1 0.009997 -0.005459 -0.003134 0.000000 0.000000 0.000000
# 2 -0.005459 0.033547 -0.005891 0.000000 0.000000 0.000000
# 3 -0.003134 -0.005891 0.007790 0.000000 0.000000 0.000000
# 4 0.000000 0.000000 0.000000 0.030424 0.000000 0.000000
# 5 0.000000 0.000000 0.000000 0.000000 0.024608 0.000000
# 6 0.000000 0.000000 0.000000 0.000000 0.000000 0.029846
#
#
# Mechanical properties :
#
#
# Convention : Reuss Voigt Hill
#
# Bulk Modulus (GPa) = 44.71107 84.95926 64.83517
# Shear Modulus (GPa) = 28.96290 35.86639 32.41464
#
# Velocity S-wave (km/s) = 3.88537 4.32370 4.11038
# Velocity P-wave (km/s) = 6.59034 8.31916 7.50470
#
# Compressibility (1/GPa) = 0.02236583
#
# Stress axis : x y z
#
# Youngs Moduli (GPa) = 100.03048 29.80934 128.36282
#
# Poissons Ratio (x) = 0.16273 0.40229
# Poissons Ratio (y) = 0.54607 0.75618
# Poissons Ratio (z) = 0.31350 0.17561
#
# Static dielectric constant tensor:
#      x y z
#    x 1.665290 0.000000 0.000000 
#    y 0.000000 1.686390 0.000000 
#    z 0.000000 0.000000 1.667250 
# 
# From -- ./inp_files/62434.got.cif
#   From: 2010.05.17/outbox.cif.g08.bks.cpg/sg66_32_cif.got.tgz:62434.got - 2010.06.03 17:51:23.
