data_PCOD9496842
_publ_section_title
;
Structure prediction by ZEFSAII (Michael W. Deem and Ramdas Pophale) SiO2 
 PCOD9496842
Probable space group: C C C M
;
_chemical_formula_sum "Si O2"
_cell_formula_units_Z 116
_cell_length_a 23.056953
_cell_length_b 32.553854
_cell_length_c 8.319160
_cell_angle_alpha 90.000000
_cell_angle_beta 90.000000
_cell_angle_gamma 90.000000
_cell_volume 6244.300613
_symmetry_space_group_name_H-M "C C C M"
_symmetry_group_IT_number 66
_symmetry_cell_setting 'orthorhombic'
loop_
_space_group_symop_operation_xyz
x,y,z
-x,-y,z
x,-y,1/2-z
-x,y,1/2-z
-x,-y,-z
x,y,-z
-x,y,1/2+z
x,-y,1/2+z
1/2+x,1/2+y,z
1/2-x,1/2-y,z
1/2+x,1/2-y,1/2-z
1/2-x,1/2+y,1/2-z
1/2-x,1/2-y,-z
1/2+x,1/2+y,-z
1/2-x,1/2+y,1/2+z
1/2+x,1/2-y,1/2+z
loop_
_atom_site_type_symbol
_atom_site_label
_atom_site_fract_x
_atom_site_fract_y
_atom_site_fract_z
Si Si1 0.564140 0.839230 0.191882
Si Si2 0.597262 0.070089 0.192697
Si Si3 0.168690 0.282511 0.803847
Si Si4 0.669522 0.603149 0.194222
Si Si5 0.565111 0.546023 0.192663
Si Si6 0.500000 0.000000 0.750000
Si Si7 0.797526 0.192760 0.695992
Si Si8 0.273585 0.954063 0.192863
O O1 0.500000 0.828448 0.250000
O O2 0.579103 0.885626 0.242273
O O3 0.613883 0.808430 0.253728
O O4 0.564640 0.837530 0.000000
O O5 0.550414 0.035668 0.236240
O O6 0.661611 0.057735 0.250227
O O7 0.598548 0.072349 0.000000
O O8 0.171075 0.234851 0.753064
O O9 0.229943 0.303028 0.756308
O O10 0.167862 0.282683 0.000000
O O11 0.612751 0.578578 0.251262
O O12 0.675249 0.650055 0.251979
O O13 0.726296 0.577773 0.243551
O O14 0.667256 0.604093 0.000000
O O15 0.580046 0.500000 0.250000
O O16 0.500000 0.555329 0.250000
O O17 0.565247 0.545802 0.000000
O O18 0.798307 0.192515 0.500000
O O19 0.259602 0.000000 0.250000
O O20 0.273253 0.953291 0.000000
#
# Coordination Sequence:
#
# PCOD9496842 Si02
#       8
#    16  16  16  16  16   4  16  16
#     4  11  22  35  54  79 107 140 179 222 271 321
#     4  11  24  39  56  79 106 143 189 231 272 316
#     4   8  15  29  52  79 103 132 171 217 260 307
#     4  10  20  34  55  83 110 140 177 222 271 321
#     4  10  20  34  53  76 103 137 177 214 256 311
#     4  12  22  40  60  74 106 144 192 228 266 308
#     4   8  14  29  53  79 104 130 170 217 262 310
#     4  11  23  37  53  78 111 145 182 226 271 321
#
# _framework density 18.576938999999999
#
# number of rings (size 3 to 8) (size 9 to 14) (size 15 to 20)
#    0.000    2.069    1.379    3.931    0.000    4.966 
#    0.000    0.690    0.000    1.655    0.000    6.759 
#    0.000    0.000    0.000    0.000    0.000    0.000 
#
# Total GULP energy -323298.096094 kJ/mol
# GULP energy per Si atom -5574.105105 kJ/mol
# Density = 1.853466 g / cm^3
# Si number density = 18.576939 Si / 1000 Ang^3
#
#
#
# Elastic Constant Matrix: (Units=GPa)
#
#
# Indices 1 2 3 4 5 6 
#
# 1 139.9173 130.1269 11.1961 0.0000 0.0000 0.0000
# 2 130.1269 190.8917 12.8723 0.0000 0.0000 0.0000
# 3 11.1961 12.8723 22.7873 0.0000 0.0000 0.0000
# 4 0.0000 0.0000 0.0000 -9.0382 0.0000 0.0000
# 5 0.0000 0.0000 0.0000 0.0000 3.9967 0.0000
# 6 0.0000 0.0000 0.0000 0.0000 0.0000 -25.3855
#
#
#
# Elastic Compliance Matrix: (Units=1/GPa)
#
#
# Indices 1 2 3 4 5 6 
#
# 1 0.019629 -0.013234 -0.002168 0.000000 0.000000 0.000000
# 2 -0.013234 0.014369 -0.001614 0.000000 0.000000 0.000000
# 3 -0.002168 -0.001614 0.045862 0.000000 0.000000 0.000000
# 4 0.000000 0.000000 0.000000 -0.110641 0.000000 0.000000
# 5 0.000000 0.000000 0.000000 0.000000 0.250209 0.000000
# 6 0.000000 0.000000 0.000000 0.000000 0.000000 -0.039393
#
#
# Mechanical properties :
#
#
# Convention : Reuss Voigt Hill
#
# Bulk Modulus (GPa) = 21.82209 73.55411 47.68810
# Shear Modulus (GPa) = 21.80121 7.20797 14.50459
#
# Velocity S-wave (km/s) = 3.42945 1.97192 2.79728
# Velocity P-wave (km/s) = 5.23964 6.69813 6.01327
#
# Compressibility (1/GPa) = 0.04582513
#
# Stress axis : x y z
#
# Youngs Moduli (GPa) = 50.94505 69.59384 21.80476
#
# Poissons Ratio (x) = 0.92104 0.04728
# Poissons Ratio (y) = 0.67423 0.03520
# Poissons Ratio (z) = 0.11047 0.11236
#
# Static dielectric constant tensor:
#      x y z
#    x 1.634920 0.000000 0.000000 
#    y 0.000000 1.893080 0.000000 
#    z 0.000000 0.000000 1.656270 
# 
# From -- ./inp_files/9412.got.cif
#   From: 2010.05.17/outbox.cif.g08.bks.cpg/sg66_5_cif.got.tgz:9412.got - 2010.06.03 17:51:23.
