data_PCOD9496418
_publ_section_title
;
Structure prediction by ZEFSAII (Michael W. Deem and Ramdas Pophale) SiO2 
 PCOD9496418
Probable space group: C C C M
;
_chemical_formula_sum "Si O2"
_cell_formula_units_Z 96
_cell_length_a 15.401470
_cell_length_b 19.509177
_cell_length_c 16.272462
_cell_angle_alpha 90.000000
_cell_angle_beta 90.000000
_cell_angle_gamma 90.000000
_cell_volume 4889.386727
_symmetry_space_group_name_H-M "C C C M"
_symmetry_group_IT_number 66
_symmetry_cell_setting 'orthorhombic'
loop_
_space_group_symop_operation_xyz
x,y,z
-x,-y,z
x,-y,1/2-z
-x,y,1/2-z
-x,-y,-z
x,y,-z
-x,y,1/2+z
x,-y,1/2+z
1/2+x,1/2+y,z
1/2-x,1/2-y,z
1/2+x,1/2-y,1/2-z
1/2-x,1/2+y,1/2-z
1/2-x,1/2-y,-z
1/2+x,1/2+y,-z
1/2-x,1/2+y,1/2+z
1/2+x,1/2-y,1/2+z
loop_
_atom_site_type_symbol
_atom_site_label
_atom_site_fract_x
_atom_site_fract_y
_atom_site_fract_z
Si Si1 0.912623 0.181873 0.302852
Si Si2 0.063187 0.562097 0.100605
Si Si3 0.086509 0.957472 0.599612
Si Si4 0.671891 0.300483 0.137251
Si Si5 0.260183 0.448184 0.595909
Si Si6 0.498224 0.212777 0.595622
O O1 0.908752 0.118320 0.364137
O O2 0.838313 0.188184 0.235024
O O3 0.000000 0.170477 0.250000
O O4 0.926525 0.252360 0.351614
O O5 0.162532 0.553441 0.130243
O O6 0.028241 0.637066 0.125162
O O7 0.000000 0.500000 0.125590
O O8 0.064807 0.562947 0.000000
O O9 0.085992 0.954781 0.500000
O O10 0.171123 0.998111 0.630871
O O11 0.000000 0.000000 0.623953
O O12 0.750000 0.250000 0.117411
O O13 0.694143 0.374198 0.100601
O O14 0.584551 0.263770 0.105278
O O15 0.250200 0.466104 0.500000
O O16 0.521515 0.208973 0.500000
#
# Coordination Sequence:
#
# PCOD9496418 Si02
#       6
#    16  16  16  16  16  16
#     4  10  22  36  54  79 117 155 185 223 287 358
#     4   9  18  34  57  84 112 143 187 247 298 335
#     4  10  20  36  58  85 117 148 190 240 287 348
#     4  11  21  35  56  83 117 149 186 240 290 344
#     4  10  20  34  58  90 116 146 194 245 292 338
#     4  10  19  35  62  86 109 145 195 246 294 342
#
# _framework density 19.634364000000001
#
# number of rings (size 3 to 8) (size 9 to 14) (size 15 to 20)
#    0.000    2.000    1.667    3.000    0.000    4.333 
#    3.000    0.000    0.000    5.500    0.000    0.000 
#    0.000    0.000    0.000    0.000    0.000    0.000 
#
# Total GULP energy -267876.429829 kJ/mol
# GULP energy per Si atom -5580.758955 kJ/mol
# Density = 1.958968 g / cm^3
# Si number density = 19.634364 Si / 1000 Ang^3
#
#
#
# Elastic Constant Matrix: (Units=GPa)
#
#
# Indices 1 2 3 4 5 6 
#
# 1 46.9950 48.8716 10.5176 0.0000 0.0000 0.0000
# 2 48.8716 129.5730 13.2659 0.0000 0.0000 0.0000
# 3 10.5176 13.2659 28.7180 0.0000 0.0000 0.0000
# 4 0.0000 0.0000 0.0000 -4.2944 0.0000 0.0000
# 5 0.0000 0.0000 0.0000 0.0000 -8.0790 0.0000
# 6 0.0000 0.0000 0.0000 0.0000 0.0000 29.6925
#
#
#
# Elastic Compliance Matrix: (Units=1/GPa)
#
#
# Indices 1 2 3 4 5 6 
#
# 1 0.036429 -0.012988 -0.007342 0.000000 0.000000 0.000000
# 2 -0.012988 0.012732 -0.001124 0.000000 0.000000 0.000000
# 3 -0.007342 -0.001124 0.038030 0.000000 0.000000 0.000000
# 4 0.000000 0.000000 0.000000 -0.232861 0.000000 0.000000
# 5 0.000000 0.000000 0.000000 0.000000 -0.123778 0.000000
# 6 0.000000 0.000000 0.000000 0.000000 0.000000 0.033679
#
#
# Mechanical properties :
#
#
# Convention : Reuss Voigt Hill
#
# Bulk Modulus (GPa) = 22.58299 38.95511 30.76905
# Shear Modulus (GPa) = -28.07401 12.30589 -7.88406
#
# Velocity S-wave (km/s) = -3.78543 2.50622 -2.00603
# Velocity P-wave (km/s) = 2.75303 5.31584 3.21551
#
# Compressibility (1/GPa) = 0.04428112
#
# Stress axis : x y z
#
# Youngs Moduli (GPa) = 27.45057 78.54419 26.29529
#
# Poissons Ratio (x) = 1.02017 0.19305
# Poissons Ratio (y) = 0.35654 0.02957
# Poissons Ratio (z) = 0.20154 0.08831
#
# Static dielectric constant tensor:
#      x y z
#    x 0.732420 0.000000 0.000000 
#    y 0.000000 1.701360 0.000000 
#    z 0.000000 0.000000 1.705340 
# 
# From -- ./inp_files/41738.got.cif
#   From: 2010.05.17/outbox.cif.g08.bks.cpg/sg66_21_cif.got.tgz:41738.got - 2010.06.03 17:51:23.
