data_PCOD9496678
_publ_section_title
;
Structure prediction by ZEFSAII (Michael W. Deem and Ramdas Pophale) SiO2 
 PCOD9496678
Probable space group: C C C M
;
_chemical_formula_sum "Si O2"
_cell_formula_units_Z 72
_cell_length_a 24.136254
_cell_length_b 5.089425
_cell_length_c 33.145927
_cell_angle_alpha 90.000000
_cell_angle_beta 90.000000
_cell_angle_gamma 90.000000
_cell_volume 4071.634221
_symmetry_space_group_name_H-M "C C C M"
_symmetry_group_IT_number 66
_symmetry_cell_setting 'orthorhombic'
loop_
_space_group_symop_operation_xyz
x,y,z
-x,-y,z
x,-y,1/2-z
-x,y,1/2-z
-x,-y,-z
x,y,-z
-x,y,1/2+z
x,-y,1/2+z
1/2+x,1/2+y,z
1/2-x,1/2-y,z
1/2+x,1/2-y,1/2-z
1/2-x,1/2+y,1/2-z
1/2-x,1/2-y,-z
1/2+x,1/2+y,-z
1/2-x,1/2+y,1/2+z
1/2+x,1/2-y,1/2+z
loop_
_atom_site_type_symbol
_atom_site_label
_atom_site_fract_x
_atom_site_fract_y
_atom_site_fract_z
Si Si1 0.124933 0.631656 0.930671
Si Si2 0.933350 0.519138 0.847471
Si Si3 0.307871 0.622077 0.547281
Si Si4 0.460696 0.749185 0.000000
Si Si5 0.566857 0.477517 0.204358
O O1 0.098478 0.557016 0.887958
O O2 0.148964 0.361393 0.948769
O O3 0.078270 0.741734 0.960848
O O4 0.171022 0.862495 0.929810
O O5 0.917765 0.798795 0.828047
O O6 0.000000 0.500000 0.854936
O O7 0.919895 0.304119 0.813697
O O8 0.301935 0.547721 0.500000
O O9 0.250000 0.750000 0.561141
O O10 0.500000 0.500000 0.000000
O O11 0.500000 0.000000 0.000000
O O12 0.500000 0.500000 0.206908
O O13 0.588441 0.500000 0.250000
#
# Coordination Sequence:
#
# PCOD9496678 Si02
#       5
#    16  16  16   8  16
#     4  12  22  38  54  79 109 143 187 227 275 323
#     4  10  20  32  50  77 111 146 176 217 261 316
#     4  11  22  39  59  77  99 136 189 244 291 320
#     4  12  24  36  51  74 109 154 190 216 256 324
#     4   9  17  31  50  73 104 144 183 215 257 311
#
# _framework density 17.683319000000001
#
# number of rings (size 3 to 8) (size 9 to 14) (size 15 to 20)
#    0.000    1.333    2.222    4.667    0.000    7.111 
#    0.000    0.000    0.000    0.000    0.000    0.000 
#    0.000   49.778    0.000    0.000    0.000    0.000 
#
# Total GULP energy -201002.847715 kJ/mol
# GULP energy per Si atom -5583.412437 kJ/mol
# Density = 1.764307 g / cm^3
# Si number density = 17.683319 Si / 1000 Ang^3
#
#
#
# Elastic Constant Matrix: (Units=GPa)
#
#
# Indices 1 2 3 4 5 6 
#
# 1 44.6917 16.1661 30.4188 0.0000 0.0000 0.0000
# 2 16.1661 87.8745 7.3521 0.0000 0.0000 0.0000
# 3 30.4188 7.3521 94.1023 0.0000 0.0000 0.0000
# 4 0.0000 0.0000 0.0000 4.4153 0.0000 0.0000
# 5 0.0000 0.0000 0.0000 0.0000 7.4032 0.0000
# 6 0.0000 0.0000 0.0000 0.0000 0.0000 30.2840
#
#
#
# Elastic Compliance Matrix: (Units=1/GPa)
#
#
# Indices 1 2 3 4 5 6 
#
# 1 0.030599 -0.004833 -0.009514 0.000000 0.000000 0.000000
# 2 -0.004833 0.012218 0.000608 0.000000 0.000000 0.000000
# 3 -0.009514 0.000608 0.013655 0.000000 0.000000 0.000000
# 4 0.000000 0.000000 0.000000 0.226486 0.000000 0.000000
# 5 0.000000 0.000000 0.000000 0.000000 0.135078 0.000000
# 6 0.000000 0.000000 0.000000 0.000000 0.000000 0.033021
#
#
# Mechanical properties :
#
#
# Convention : Reuss Voigt Hill
#
# Bulk Modulus (GPa) = 34.49036 37.17140 35.83088
# Shear Modulus (GPa) = 10.24172 19.93592 15.08882
#
# Velocity S-wave (km/s) = 2.40921 3.36130 2.92426
# Velocity P-wave (km/s) = 5.22359 6.01088 5.63101
#
# Compressibility (1/GPa) = 0.02899361
#
# Stress axis : x y z
#
# Youngs Moduli (GPa) = 32.68057 81.84514 73.23563
#
# Poissons Ratio (x) = 0.39558 0.69674
# Poissons Ratio (y) = 0.15796 -0.04451
# Poissons Ratio (z) = 0.31091 -0.04974
#
# Static dielectric constant tensor:
#      x y z
#    x 1.621030 0.000000 0.000000 
#    y 0.000000 1.610170 0.000000 
#    z 0.000000 0.000000 1.594000 
# 
# From -- ./inp_files/70287.got.cif
#   From: 2010.05.17/outbox.cif.g08.bks.cpg/sg66_36_cif.got.tgz:70287.got - 2010.06.03 17:51:23.
