data_PCOD9496732
_publ_section_title
;
Structure prediction by ZEFSAII (Michael W. Deem and Ramdas Pophale) SiO2 
 PCOD9496732
Probable space group: C C C M
;
_chemical_formula_sum "Si O2"
_cell_formula_units_Z 116
_cell_length_a 26.446001
_cell_length_b 25.023583
_cell_length_c 9.632457
_cell_angle_alpha 90.000000
_cell_angle_beta 90.000000
_cell_angle_gamma 90.000000
_cell_volume 6374.506719
_symmetry_space_group_name_H-M "C C C M"
_symmetry_group_IT_number 66
_symmetry_cell_setting 'orthorhombic'
loop_
_space_group_symop_operation_xyz
x,y,z
-x,-y,z
x,-y,1/2-z
-x,y,1/2-z
-x,-y,-z
x,y,-z
-x,y,1/2+z
x,-y,1/2+z
1/2+x,1/2+y,z
1/2-x,1/2-y,z
1/2+x,1/2-y,1/2-z
1/2-x,1/2+y,1/2-z
1/2-x,1/2-y,-z
1/2+x,1/2+y,-z
1/2-x,1/2+y,1/2+z
1/2+x,1/2-y,1/2+z
loop_
_atom_site_type_symbol
_atom_site_label
_atom_site_fract_x
_atom_site_fract_y
_atom_site_fract_z
Si Si1 0.053480 0.951995 0.834073
Si Si2 0.778074 0.831418 0.247093
Si Si3 0.626903 0.732415 0.154531
Si Si4 0.948103 0.832142 0.336691
Si Si5 0.750000 0.250000 0.000000
Si Si6 0.787596 0.949555 0.656981
Si Si7 0.164503 0.450097 0.657308
Si Si8 0.834568 0.648758 0.844927
O O1 0.074495 0.892221 0.821762
O O2 0.000000 0.947639 0.750000
O O3 0.079965 0.000000 0.750000
O O4 0.047860 0.963211 0.000000
O O5 0.820319 0.799125 0.164433
O O6 0.764061 0.794881 0.379396
O O7 0.798771 0.890205 0.287437
O O8 0.725475 0.840820 0.167806
O O9 0.590800 0.709412 0.272199
O O10 0.638337 0.794740 0.175346
O O11 0.605142 0.724344 0.000000
O O12 0.957479 0.823795 0.500000
O O13 0.000000 0.829091 0.250000
O O14 0.807086 0.955352 0.500000
O O15 0.726001 0.951246 0.652695
O O16 0.803085 0.000000 0.750000
O O17 0.148009 0.500000 0.750000
O O18 0.146200 0.453317 0.500000
O O19 0.150818 0.394770 0.731225
O O20 0.845199 0.628419 0.000000
#
# Coordination Sequence:
#
# PCOD9496732 Si02
#       8
#    16  16  16  16   4  16  16  16
#     4   9  16  28  49  76  97 122 155 200 253 308
#     4  11  21  33  54  75 104 136 176 219 264 309
#     4  11  23  36  53  77 104 136 173 214 263 310
#     4  10  22  38  57  77 102 131 166 209 258 312
#     4  12  20  32  54  80 104 132 178 224 266 316
#     4   9  18  30  45  66  93 130 172 211 254 304
#     4   9  17  28  46  69  98 134 174 212 252 297
#     4  10  20  33  50  74 107 138 173 213 256 304
#
# _framework density 18.197486999999999
#
# number of rings (size 3 to 8) (size 9 to 14) (size 15 to 20)
#    0.000    2.069    2.069    2.069    1.931    7.172 
#    0.000    0.690    0.000    0.000    0.000    0.000 
#    0.000    0.552    0.000    5.793    0.000    2.621 
#
# Total GULP energy -322975.695355 kJ/mol
# GULP energy per Si atom -5568.546472 kJ/mol
# Density = 1.815607 g / cm^3
# Si number density = 18.197487 Si / 1000 Ang^3
#
#
#
# Elastic Constant Matrix: (Units=GPa)
#
#
# Indices 1 2 3 4 5 6 
#
# 1 28.7242 15.8469 23.4759 0.0000 0.0000 0.0000
# 2 15.8469 115.4521 79.6764 0.0000 0.0000 0.0000
# 3 23.4759 79.6764 160.5305 0.0000 0.0000 0.0000
# 4 0.0000 0.0000 0.0000 34.0363 0.0000 0.0000
# 5 0.0000 0.0000 0.0000 0.0000 -33.9114 0.0000
# 6 0.0000 0.0000 0.0000 0.0000 0.0000 -7.9442
#
#
#
# Elastic Compliance Matrix: (Units=1/GPa)
#
#
# Indices 1 2 3 4 5 6 
#
# 1 0.039906 -0.002205 -0.004741 0.000000 0.000000 0.000000
# 2 -0.002205 0.013296 -0.006277 0.000000 0.000000 0.000000
# 3 -0.004741 -0.006277 0.010038 0.000000 0.000000 0.000000
# 4 0.000000 0.000000 0.000000 0.029380 0.000000 0.000000
# 5 0.000000 0.000000 0.000000 0.000000 -0.029489 0.000000
# 6 0.000000 0.000000 0.000000 0.000000 0.000000 -0.125878
#
#
# Mechanical properties :
#
#
# Convention : Reuss Voigt Hill
#
# Bulk Modulus (GPa) = 27.17910 60.30058 43.73984
# Shear Modulus (GPa) = -208.02033 10.81665 -98.60184
#
# Velocity S-wave (km/s) = -10.70331 2.44068 -7.36899
# Velocity P-wave (km/s) = 11.73796 6.41493 6.95084
#
# Compressibility (1/GPa) = 0.03679298
#
# Stress axis : x y z
#
# Youngs Moduli (GPa) = 25.05919 75.21035 99.62115
#
# Poissons Ratio (x) = 0.16587 0.47232
# Poissons Ratio (y) = 0.05527 0.62529
# Poissons Ratio (z) = 0.11881 0.47207
#
# Static dielectric constant tensor:
#      x y z
#    x 1.617620 0.000000 0.000000 
#    y 0.000000 1.636470 0.000000 
#    z 0.000000 0.000000 1.636860 
# 
# From -- ./inp_files/9475.got.cif
#   From: 2010.05.17/outbox.cif.g08.bks.cpg/sg66_5_cif.got.tgz:9475.got - 2010.06.03 17:51:23.
