data_PCOD9496754
_publ_section_title
;
Structure prediction by ZEFSAII (Michael W. Deem and Ramdas Pophale) SiO2 
 PCOD9496754
Probable space group: C C C M
;
_chemical_formula_sum "Si O2"
_cell_formula_units_Z 96
_cell_length_a 25.507006
_cell_length_b 11.758220
_cell_length_c 16.971656
_cell_angle_alpha 90.000000
_cell_angle_beta 90.000000
_cell_angle_gamma 90.000000
_cell_volume 5090.087950
_symmetry_space_group_name_H-M "C C C M"
_symmetry_group_IT_number 66
_symmetry_cell_setting 'orthorhombic'
loop_
_space_group_symop_operation_xyz
x,y,z
-x,-y,z
x,-y,1/2-z
-x,y,1/2-z
-x,-y,-z
x,y,-z
-x,y,1/2+z
x,-y,1/2+z
1/2+x,1/2+y,z
1/2-x,1/2-y,z
1/2+x,1/2-y,1/2-z
1/2-x,1/2+y,1/2-z
1/2-x,1/2-y,-z
1/2+x,1/2+y,-z
1/2-x,1/2+y,1/2+z
1/2+x,1/2-y,1/2+z
loop_
_atom_site_type_symbol
_atom_site_label
_atom_site_fract_x
_atom_site_fract_y
_atom_site_fract_z
Si Si1 0.109149 0.945946 0.867992
Si Si2 0.051038 0.422445 0.411816
Si Si3 0.993248 0.167596 0.913945
Si Si4 0.408873 0.671327 0.301744
Si Si5 0.866901 0.612741 0.279798
Si Si6 0.312600 0.255782 0.586283
O O1 0.053442 0.924730 0.910637
O O2 0.095209 0.886097 0.784213
O O3 0.157681 0.876671 0.903917
O O4 0.121332 0.078719 0.855738
O O5 0.072728 0.448600 0.500000
O O6 0.035595 0.289681 0.411205
O O7 0.086927 0.436228 0.335562
O O8 0.000000 0.500000 0.403341
O O9 0.033720 0.168391 0.841457
O O10 0.019858 0.161560 0.000000
O O11 0.387730 0.798664 0.286437
O O12 0.838456 0.500000 0.250000
O O13 0.832407 0.683121 0.340797
O O14 0.329405 0.211886 0.500000
O O15 0.250000 0.250000 0.587655
#
# Coordination Sequence:
#
# PCOD9496754 Si02
#       6
#    16  16  16  16  16  16
#     4  10  20  35  56  80 113 148 190 249 291 337
#     4  10  20  33  52  79 115 157 198 238 277 337
#     4  11  20  31  50  78 114 156 197 233 280 347
#     4  10  21  34  51  82 116 151 190 230 289 351
#     4  11  22  38  58  86 117 156 190 240 294 351
#     4  10  21  41  67  89 108 145 200 250 295 347
#
# _framework density 18.860185000000001
#
# number of rings (size 3 to 8) (size 9 to 14) (size 15 to 20)
#    0.000    1.667    3.333    3.000    0.000    5.000 
#    6.000    0.833    0.000    0.000    0.000    2.333 
#    0.000    0.000    0.000    0.000    0.000    0.000 
#
# Total GULP energy -267376.533804 kJ/mol
# GULP energy per Si atom -5570.344454 kJ/mol
# Density = 1.881726 g / cm^3
# Si number density = 18.860185 Si / 1000 Ang^3
#
#
#
# Elastic Constant Matrix: (Units=GPa)
#
#
# Indices 1 2 3 4 5 6 
#
# 1 74.0339 14.9902 28.8324 0.0000 0.0000 0.0000
# 2 14.9902 103.5826 27.0329 0.0000 0.0000 0.0000
# 3 28.8324 27.0329 70.2176 0.0000 0.0000 0.0000
# 4 0.0000 0.0000 0.0000 54.9967 0.0000 0.0000
# 5 0.0000 0.0000 0.0000 0.0000 13.1355 0.0000
# 6 0.0000 0.0000 0.0000 0.0000 0.0000 13.3779
#
#
#
# Elastic Compliance Matrix: (Units=1/GPa)
#
#
# Indices 1 2 3 4 5 6 
#
# 1 0.016121 -0.000673 -0.006360 0.000000 0.000000 0.000000
# 2 -0.000673 0.010761 -0.003866 0.000000 0.000000 0.000000
# 3 -0.006360 -0.003866 0.018342 0.000000 0.000000 0.000000
# 4 0.000000 0.000000 0.000000 0.018183 0.000000 0.000000
# 5 0.000000 0.000000 0.000000 0.000000 0.076129 0.000000
# 6 0.000000 0.000000 0.000000 0.000000 0.000000 0.074750
#
#
# Mechanical properties :
#
#
# Convention : Reuss Voigt Hill
#
# Bulk Modulus (GPa) = 42.69221 43.28280 42.98750
# Shear Modulus (GPa) = 20.50089 28.10060 24.30075
#
# Velocity S-wave (km/s) = 3.30053 3.86417 3.59342
# Velocity P-wave (km/s) = 6.10000 6.55043 6.32922
#
# Compressibility (1/GPa) = 0.02342348
#
# Stress axis : x y z
#
# Youngs Moduli (GPa) = 62.03249 92.93199 54.52102
#
# Poissons Ratio (x) = 0.06255 0.34677
# Poissons Ratio (y) = 0.04175 0.21080
# Poissons Ratio (z) = 0.39454 0.35930
#
# Static dielectric constant tensor:
#      x y z
#    x 1.638760 0.000000 0.000000 
#    y 0.000000 1.729420 0.000000 
#    z 0.000000 0.000000 1.705060 
# 
# From -- ./inp_files/38893.got.cif
#   From: 2010.05.17/outbox.cif.g08.bks.cpg/sg66_20_cif.got.tgz:38893.got - 2010.06.03 17:51:23.
