data_PCOD9496545
_publ_section_title
;
Structure prediction by ZEFSAII (Michael W. Deem and Ramdas Pophale) SiO2 
 PCOD9496545
Probable space group: C C C M
;
_chemical_formula_sum "Si O2"
_cell_formula_units_Z 84
_cell_length_a 10.459936
_cell_length_b 16.305391
_cell_length_c 22.388445
_cell_angle_alpha 90.000000
_cell_angle_beta 90.000000
_cell_angle_gamma 90.000000
_cell_volume 3818.424214
_symmetry_space_group_name_H-M "C C C M"
_symmetry_group_IT_number 66
_symmetry_cell_setting 'orthorhombic'
loop_
_space_group_symop_operation_xyz
x,y,z
-x,-y,z
x,-y,1/2-z
-x,y,1/2-z
-x,-y,-z
x,y,-z
-x,y,1/2+z
x,-y,1/2+z
1/2+x,1/2+y,z
1/2-x,1/2-y,z
1/2+x,1/2-y,1/2-z
1/2-x,1/2+y,1/2-z
1/2-x,1/2-y,-z
1/2+x,1/2+y,-z
1/2-x,1/2+y,1/2+z
1/2+x,1/2-y,1/2+z
loop_
_atom_site_type_symbol
_atom_site_label
_atom_site_fract_x
_atom_site_fract_y
_atom_site_fract_z
Si Si1 0.691479 0.925232 0.850540
Si Si2 0.500000 0.000000 0.250000
Si Si3 0.010786 0.645646 0.932568
Si Si4 0.750000 0.250000 0.691884
Si Si5 0.000000 0.206706 0.750000
Si Si6 0.715318 0.444731 0.932839
Si Si7 0.613494 0.297542 0.131445
O O1 0.599474 0.952760 0.795088
O O2 0.597114 0.911360 0.906152
O O3 0.759659 0.838036 0.839806
O O4 0.786842 0.993482 0.876802
O O5 0.143664 0.596637 0.931642
O O6 0.022073 0.724968 0.890708
O O7 0.984693 0.670951 0.000000
O O8 0.620915 0.240552 0.729672
O O9 0.058983 0.163366 0.692160
O O10 0.626728 0.367000 0.918088
O O11 0.692197 0.477279 0.000000
O O12 0.750000 0.250000 0.140131
#
# Coordination Sequence:
#
# PCOD9496545 Si02
#       7
#    16   4  16   8   8  16  16
#     4  12  24  41  65 101 135 184 230 297 352 420
#     4  12  26  40  70 100 144 182 240 290 368 420
#     4  10  19  37  65  97 135 181 240 289 339 414
#     4  12  28  44  71 102 143 186 234 280 362 422
#     4  12  23  44  71  96 142 184 234 285 344 439
#     4  10  21  40  66 101 137 182 241 295 343 411
#     4  10  21  37  66 101 136 183 227 286 350 415
#
# _framework density 21.998602999999999
#
# number of rings (size 3 to 8) (size 9 to 14) (size 15 to 20)
#    0.000    1.143    4.762    1.714    2.667    3.810 
#    0.000    3.810    0.000    1.143    0.000    0.000 
#    0.000    0.000    0.000    0.000    0.000    0.000 
#
# Total GULP energy -234207.752313 kJ/mol
# GULP energy per Si atom -5576.375055 kJ/mol
# Density = 2.194853 g / cm^3
# Si number density = 21.998603 Si / 1000 Ang^3
#
#
#
# Elastic Constant Matrix: (Units=GPa)
#
#
# Indices 1 2 3 4 5 6 
#
# 1 37.3299 10.5797 13.1469 0.0000 0.0000 0.0000
# 2 10.5797 102.6286 34.6219 0.0000 0.0000 0.0000
# 3 13.1469 34.6219 112.2561 0.0000 0.0000 0.0000
# 4 0.0000 0.0000 0.0000 -18.1456 0.0000 0.0000
# 5 0.0000 0.0000 0.0000 0.0000 21.5835 0.0000
# 6 0.0000 0.0000 0.0000 0.0000 0.0000 13.3954
#
#
#
# Elastic Compliance Matrix: (Units=1/GPa)
#
#
# Indices 1 2 3 4 5 6 
#
# 1 0.028307 -0.002009 -0.002696 0.000000 0.000000 0.000000
# 2 -0.002009 0.011018 -0.003163 0.000000 0.000000 0.000000
# 3 -0.002696 -0.003163 0.010199 0.000000 0.000000 0.000000
# 4 0.000000 0.000000 0.000000 -0.055110 0.000000 0.000000
# 5 0.000000 0.000000 0.000000 0.000000 0.046332 0.000000
# 6 0.000000 0.000000 0.000000 0.000000 0.000000 0.074652
#
#
# Mechanical properties :
#
#
# Convention : Reuss Voigt Hill
#
# Bulk Modulus (GPa) = 29.59481 40.99017 35.29249
# Shear Modulus (GPa) = 35.11335 16.29108 25.70222
#
# Velocity S-wave (km/s) = 3.99953 2.72426 3.42183
# Velocity P-wave (km/s) = 5.90005 5.34500 5.62937
#
# Compressibility (1/GPa) = 0.03378971
#
# Stress axis : x y z
#
# Youngs Moduli (GPa) = 35.32716 90.76100 98.04496
#
# Poissons Ratio (x) = 0.18231 0.26430
# Poissons Ratio (y) = 0.07096 0.31011
# Poissons Ratio (z) = 0.09523 0.28707
#
# Static dielectric constant tensor:
#      x y z
#    x 1.799880 0.000000 0.000000 
#    y 0.000000 1.787340 0.000000 
#    z 0.000000 0.000000 1.824710 
# 
# From -- ./inp_files/48511.got.cif
#   From: 2010.05.17/outbox.cif.g08.bks.cpg/sg66_25_cif.got.tgz:48511.got - 2010.06.03 17:51:23.
