data_PCOD9496789
_publ_section_title
;
Structure prediction by ZEFSAII (Michael W. Deem and Ramdas Pophale) SiO2 
 PCOD9496789
Probable space group: C C C M
;
_chemical_formula_sum "Si O2"
_cell_formula_units_Z 80
_cell_length_a 11.290314
_cell_length_b 14.059135
_cell_length_c 20.957268
_cell_angle_alpha 90.000000
_cell_angle_beta 90.000000
_cell_angle_gamma 90.000000
_cell_volume 3326.590085
_symmetry_space_group_name_H-M "C C C M"
_symmetry_group_IT_number 66
_symmetry_cell_setting 'orthorhombic'
loop_
_space_group_symop_operation_xyz
x,y,z
-x,-y,z
x,-y,1/2-z
-x,y,1/2-z
-x,-y,-z
x,y,-z
-x,y,1/2+z
x,-y,1/2+z
1/2+x,1/2+y,z
1/2-x,1/2-y,z
1/2+x,1/2-y,1/2-z
1/2-x,1/2+y,1/2-z
1/2-x,1/2-y,-z
1/2+x,1/2+y,-z
1/2-x,1/2+y,1/2+z
1/2+x,1/2-y,1/2+z
loop_
_atom_site_type_symbol
_atom_site_label
_atom_site_fract_x
_atom_site_fract_y
_atom_site_fract_z
Si Si1 0.303505 0.559565 0.427428
Si Si2 0.303475 0.853907 0.891482
Si Si3 0.549159 0.893494 0.119282
Si Si4 0.188307 0.648760 0.259585
Si Si5 0.926833 0.096294 0.307615
O O1 0.341892 0.564699 0.500000
O O2 0.274560 0.446355 0.411574
O O3 0.173559 0.605942 0.417327
O O4 0.396639 0.616062 0.381741
O O5 0.250000 0.750000 0.902656
O O6 0.438172 0.848112 0.916688
O O7 0.325117 0.865469 0.815181
O O8 0.582219 0.857814 0.190418
O O9 0.500000 0.000000 0.126986
O O10 0.250000 0.750000 0.268742
O O11 0.293497 0.581718 0.284054
O O12 0.000000 0.149974 0.250000
O O13 0.000000 0.000000 0.313022
#
# Coordination Sequence:
#
# PCOD9496789 Si02
#       5
#    16  16  16  16  16
#     4  10  22  39  57  82 117 159 203 248 308 375
#     4  10  20  33  55  87 120 155 201 255 308 361
#     4   9  20  36  58  83 116 158 201 248 300 366
#     4  10  21  35  55  87 123 154 192 250 317 370
#     4  10  20  36  60  84 113 151 196 248 302 358
#
# _framework density 24.048649999999999
#
# number of rings (size 3 to 8) (size 9 to 14) (size 15 to 20)
#    0.000    2.200    0.000    3.000    0.000   18.000 
#    0.000    0.000    0.000    9.600    0.000    2.800 
#    0.000    0.000    0.000    0.000    0.000    0.000 
#
# Total GULP energy -222808.682671 kJ/mol
# GULP energy per Si atom -5570.217067 kJ/mol
# Density = 2.399391 g / cm^3
# Si number density = 24.048650 Si / 1000 Ang^3
#
#
#
# Elastic Constant Matrix: (Units=GPa)
#
#
# Indices 1 2 3 4 5 6 
#
# 1 97.0469 26.7901 25.6510 0.0000 0.0000 0.0000
# 2 26.7901 35.0500 17.9861 0.0000 0.0000 0.0000
# 3 25.6510 17.9861 157.0893 0.0000 0.0000 0.0000
# 4 0.0000 0.0000 0.0000 -35.7505 0.0000 0.0000
# 5 0.0000 0.0000 0.0000 0.0000 9.2916 0.0000
# 6 0.0000 0.0000 0.0000 0.0000 0.0000 19.4092
#
#
#
# Elastic Compliance Matrix: (Units=1/GPa)
#
#
# Indices 1 2 3 4 5 6 
#
# 1 0.013225 -0.009562 -0.001065 0.000000 0.000000 0.000000
# 2 -0.009562 0.037225 -0.002701 0.000000 0.000000 0.000000
# 3 -0.001065 -0.002701 0.006849 0.000000 0.000000 0.000000
# 4 0.000000 0.000000 0.000000 -0.027972 0.000000 0.000000
# 5 0.000000 0.000000 0.000000 0.000000 0.107624 0.000000
# 6 0.000000 0.000000 0.000000 0.000000 0.000000 0.051522
#
#
# Mechanical properties :
#
#
# Convention : Reuss Voigt Hill
#
# Bulk Modulus (GPa) = 32.63265 47.78226 40.20746
# Shear Modulus (GPa) = 22.18828 13.17401 17.68115
#
# Velocity S-wave (km/s) = 3.04080 2.34307 2.71444
# Velocity P-wave (km/s) = 5.09190 5.21844 5.15556
#
# Compressibility (1/GPa) = 0.03064416
#
# Stress axis : x y z
#
# Youngs Moduli (GPa) = 75.61195 26.86337 146.00912
#
# Poissons Ratio (x) = 0.25688 0.15546
# Poissons Ratio (y) = 0.72303 0.39433
# Poissons Ratio (z) = 0.08051 0.07255
#
# Static dielectric constant tensor:
#      x y z
#    x 2.106760 0.000000 0.000000 
#    y 0.000000 2.017030 0.000000 
#    z 0.000000 0.000000 1.989440 
# 
# From -- ./inp_files/56598.got.cif
#   From: 2010.05.17/outbox.cif.g08.bks.cpg/sg66_29_cif.got.tgz:56598.got - 2010.06.03 17:51:23.
