data_PCOD9496882
_publ_section_title
;
Structure prediction by ZEFSAII (Michael W. Deem and Ramdas Pophale) SiO2 
 PCOD9496882
Probable space group: C C C M
;
_chemical_formula_sum "Si O2"
_cell_formula_units_Z 60
_cell_length_a 31.299686
_cell_length_b 20.374847
_cell_length_c 5.272162
_cell_angle_alpha 90.000000
_cell_angle_beta 90.000000
_cell_angle_gamma 90.000000
_cell_volume 3362.196436
_symmetry_space_group_name_H-M "C C C M"
_symmetry_group_IT_number 66
_symmetry_cell_setting 'orthorhombic'
loop_
_space_group_symop_operation_xyz
x,y,z
-x,-y,z
x,-y,1/2-z
-x,y,1/2-z
-x,-y,-z
x,y,-z
-x,y,1/2+z
x,-y,1/2+z
1/2+x,1/2+y,z
1/2-x,1/2-y,z
1/2+x,1/2-y,1/2-z
1/2-x,1/2+y,1/2-z
1/2-x,1/2-y,-z
1/2+x,1/2+y,-z
1/2-x,1/2+y,1/2+z
1/2+x,1/2-y,1/2+z
loop_
_atom_site_type_symbol
_atom_site_label
_atom_site_fract_x
_atom_site_fract_y
_atom_site_fract_z
Si Si1 0.655550 0.313512 0.000000
Si Si2 0.027086 0.686579 0.500000
Si Si3 0.934917 0.541816 0.000000
Si Si4 0.750000 0.750000 0.500000
Si Si5 0.189022 0.958010 0.000000
Si Si6 0.621047 0.754934 0.000000
Si Si7 0.339752 0.900843 0.500000
Si Si8 0.284323 0.099051 0.500000
O O1 0.632907 0.285967 0.250638
O O2 0.703344 0.284883 0.000000
O O3 0.661450 0.391583 0.000000
O O4 0.039277 0.609520 0.500000
O O5 0.071711 0.724854 0.500000
O O6 0.000000 0.701274 0.250000
O O7 0.944220 0.500000 0.250000
O O8 0.884558 0.560923 0.000000
O O9 0.726915 0.823626 0.500000
O O10 0.239367 0.938709 0.000000
O O11 0.180393 0.000000 0.750000
O O12 0.648048 0.823140 0.000000
O O13 0.312083 0.915410 0.749734
#
# Coordination Sequence:
#
# PCOD9496882 Si02
#       8
#     8   8   8   4   8   8   8   8
#     4  11  22  37  62  84 116 157 192 245 281 347
#     4  11  24  41  63  88 120 151 182 248 309 349
#     4  11  24  38  56  81 112 156 206 240 283 350
#     4  10  20  34  54  86 110 146 200 232 294 330
#     4  11  24  40  52  80 117 154 196 237 281 337
#     4  11  21  39  60  88 116 144 197 240 301 348
#     4  11  21  36  53  79 112 147 195 259 291 329
#     4  11  22  34  55  77 110 155 198 245 291 336
#
# _framework density 17.845478
#
# number of rings (size 3 to 8) (size 9 to 14) (size 15 to 20)
#    0.000    1.067    2.667    4.000    0.000   13.333 
#    0.000    0.000    0.000    0.000    0.000    0.000 
#    0.000   37.333    0.000    0.000    0.000    0.000 
#
# Total GULP energy -167328.791370 kJ/mol
# GULP energy per Si atom -5577.626379 kJ/mol
# Density = 1.780486 g / cm^3
# Si number density = 17.845478 Si / 1000 Ang^3
#
#
#
# Elastic Constant Matrix: (Units=GPa)
#
#
# Indices 1 2 3 4 5 6 
#
# 1 103.5551 41.2069 70.4293 0.0000 0.0000 0.0000
# 2 41.2069 123.2121 66.8950 0.0000 0.0000 0.0000
# 3 70.4293 66.8950 197.7378 0.0000 0.0000 0.0000
# 4 0.0000 0.0000 0.0000 6.6445 0.0000 0.0000
# 5 0.0000 0.0000 0.0000 0.0000 -56.2883 0.0000
# 6 0.0000 0.0000 0.0000 0.0000 0.0000 20.7413
#
#
#
# Elastic Compliance Matrix: (Units=1/GPa)
#
#
# Indices 1 2 3 4 5 6 
#
# 1 0.013251 -0.002290 -0.003945 0.000000 0.000000 0.000000
# 2 -0.002290 0.010338 -0.002682 0.000000 0.000000 0.000000
# 3 -0.003945 -0.002682 0.007370 0.000000 0.000000 0.000000
# 4 0.000000 0.000000 0.000000 0.150499 0.000000 0.000000
# 5 0.000000 0.000000 0.000000 0.000000 -0.017766 0.000000
# 6 0.000000 0.000000 0.000000 0.000000 0.000000 0.048213
#
#
# Mechanical properties :
#
#
# Convention : Reuss Voigt Hill
#
# Bulk Modulus (GPa) = 76.18899 86.84083 81.51491
# Shear Modulus (GPa) = 21.35719 10.61776 15.98748
#
# Velocity S-wave (km/s) = 3.46321 2.44187 2.99638
# Velocity P-wave (km/s) = 7.66669 7.53118 7.59924
#
# Compressibility (1/GPa) = 0.01312526
#
# Stress axis : x y z
#
# Youngs Moduli (GPa) = 75.46651 96.73172 135.69328
#
# Poissons Ratio (x) = 0.22149 0.53531
# Poissons Ratio (y) = 0.17280 0.36390
# Poissons Ratio (z) = 0.29772 0.25941
#
# Static dielectric constant tensor:
#      x y z
#    x 1.574370 0.000000 0.000000 
#    y 0.000000 1.601490 0.000000 
#    z 0.000000 0.000000 1.601950 
# 
# From -- ./inp_files/1727.got.cif
#   From: 2010.05.17/outbox.cif.g08.bks.cpg/sg66_1_cif.got.tgz:1727.got - 2010.06.03 17:51:23.
