data_PCOD9496166
_publ_section_title
;
Structure prediction by ZEFSAII (Michael W. Deem and Ramdas Pophale) SiO2 
 PCOD9496166
Probable space group: C C C M
;
_chemical_formula_sum "Si O2"
_cell_formula_units_Z 56
_cell_length_a 5.047157
_cell_length_b 19.115889
_cell_length_c 27.075252
_cell_angle_alpha 90.000000
_cell_angle_beta 90.000000
_cell_angle_gamma 90.000000
_cell_volume 2612.244491
_symmetry_space_group_name_H-M "C C C M"
_symmetry_group_IT_number 66
_symmetry_cell_setting 'orthorhombic'
loop_
_space_group_symop_operation_xyz
x,y,z
-x,-y,z
x,-y,1/2-z
-x,y,1/2-z
-x,-y,-z
x,y,-z
-x,y,1/2+z
x,-y,1/2+z
1/2+x,1/2+y,z
1/2-x,1/2-y,z
1/2+x,1/2-y,1/2-z
1/2-x,1/2+y,1/2-z
1/2-x,1/2-y,-z
1/2+x,1/2+y,-z
1/2-x,1/2+y,1/2+z
1/2+x,1/2-y,1/2+z
loop_
_atom_site_type_symbol
_atom_site_label
_atom_site_fract_x
_atom_site_fract_y
_atom_site_fract_z
Si Si1 0.563382 0.917713 0.056236
Si Si2 0.571694 0.375471 0.884025
Si Si3 0.750000 0.750000 0.668808
Si Si4 0.266267 0.889120 0.782156
O O1 0.302272 0.879274 0.075646
O O2 0.802977 0.902500 0.093115
O O3 0.500000 0.000000 0.056669
O O4 0.631851 0.897879 0.000000
O O5 0.550948 0.295826 0.864218
O O6 0.677349 0.418148 0.835722
O O7 0.629881 0.811753 0.701705
O O8 0.500000 0.921968 0.750000
O O9 0.000000 0.883768 0.750000
#
# Coordination Sequence:
#
# PCOD9496166 Si02
#       4
#    16  16   8  16
#     4  11  23  42  63  81 108 157 211 255 296 349
#     4  10  22  36  60  91 120 145 201 245 299 355
#     4   8  22  32  61  88 130 150 191 234 304 360
#     4  10  19  33  58  88 123 159 190 226 286 365
#
# _framework density 21.437503
#
# number of rings (size 3 to 8) (size 9 to 14) (size 15 to 20)
#    1.714    0.286    0.000    4.286    0.000    5.714 
#    0.000    4.286    0.000   12.857    0.000    0.000 
#    0.000    0.000    0.000    0.000    0.000    0.000 
#
# Total GULP energy -156021.508824 kJ/mol
# GULP energy per Si atom -5572.196744 kJ/mol
# Density = 2.138871 g / cm^3
# Si number density = 21.437503 Si / 1000 Ang^3
#
#
#
# Elastic Constant Matrix: (Units=GPa)
#
#
# Indices 1 2 3 4 5 6 
#
# 1 109.1808 35.4861 13.6763 0.0000 0.0000 0.0000
# 2 35.4861 51.8050 42.2133 0.0000 0.0000 0.0000
# 3 13.6763 42.2133 61.4744 0.0000 0.0000 0.0000
# 4 0.0000 0.0000 0.0000 10.8989 0.0000 0.0000
# 5 0.0000 0.0000 0.0000 0.0000 33.1240 0.0000
# 6 0.0000 0.0000 0.0000 0.0000 0.0000 13.9209
#
#
#
# Elastic Compliance Matrix: (Units=1/GPa)
#
#
# Indices 1 2 3 4 5 6 
#
# 1 0.013107 -0.014989 0.007377 0.000000 0.000000 0.000000
# 2 -0.014989 0.060967 -0.038530 0.000000 0.000000 0.000000
# 3 0.007377 -0.038530 0.041084 0.000000 0.000000 0.000000
# 4 0.000000 0.000000 0.000000 0.091752 0.000000 0.000000
# 5 0.000000 0.000000 0.000000 0.000000 0.030190 0.000000
# 6 0.000000 0.000000 0.000000 0.000000 0.000000 0.071834
#
#
# Mechanical properties :
#
#
# Convention : Reuss Voigt Hill
#
# Bulk Modulus (GPa) = 43.72043 45.02351 44.37197
# Shear Modulus (GPa) = 12.22963 20.32773 16.27868
#
# Velocity S-wave (km/s) = 2.39106 3.08268 2.75863
# Velocity P-wave (km/s) = 5.29731 5.80675 5.55787
#
# Compressibility (1/GPa) = 0.02287260
#
# Stress axis : x y z
#
# Youngs Moduli (GPa) = 76.29569 16.40229 24.34053
#
# Poissons Ratio (x) = 0.24586 -0.17956
# Poissons Ratio (y) = 1.14361 0.93785
# Poissons Ratio (z) = -0.56283 0.63198
#
# Static dielectric constant tensor:
#      x y z
#    x 1.746060 0.000000 0.000000 
#    y 0.000000 1.813780 0.000000 
#    z 0.000000 0.000000 1.789210 
# 
# From -- ./inp_files/61181.got.cif
#   From: 2010.05.17/outbox.cif.g08.bks.cpg/sg66_31_cif.got.tgz:61181.got - 2010.06.03 17:51:23.
