data_PCOD9496775
_publ_section_title
;
Structure prediction by ZEFSAII (Michael W. Deem and Ramdas Pophale) SiO2 
 PCOD9496775
Probable space group: C C C M
;
_chemical_formula_sum "Si O2"
_cell_formula_units_Z 68
_cell_length_a 11.591356
_cell_length_b 10.863205
_cell_length_c 26.805024
_cell_angle_alpha 90.000000
_cell_angle_beta 90.000000
_cell_angle_gamma 90.000000
_cell_volume 3375.269227
_symmetry_space_group_name_H-M "C C C M"
_symmetry_group_IT_number 66
_symmetry_cell_setting 'orthorhombic'
loop_
_space_group_symop_operation_xyz
x,y,z
-x,-y,z
x,-y,1/2-z
-x,y,1/2-z
-x,-y,-z
x,y,-z
-x,y,1/2+z
x,-y,1/2+z
1/2+x,1/2+y,z
1/2-x,1/2-y,z
1/2+x,1/2-y,1/2-z
1/2-x,1/2+y,1/2-z
1/2-x,1/2-y,-z
1/2+x,1/2+y,-z
1/2-x,1/2+y,1/2+z
1/2+x,1/2-y,1/2+z
loop_
_atom_site_type_symbol
_atom_site_label
_atom_site_fract_x
_atom_site_fract_y
_atom_site_fract_z
Si Si1 0.319140 0.128506 0.679709
Si Si2 0.734446 0.880472 0.853218
Si Si3 0.006673 0.632630 0.908241
Si Si4 0.914571 0.115099 0.443731
Si Si5 0.000000 0.500000 0.250000
O O1 0.250000 0.250000 0.693122
O O2 0.378885 0.146995 0.625233
O O3 0.419100 0.088360 0.717351
O O4 0.241420 0.005514 0.675843
O O5 0.750000 0.750000 0.826161
O O6 0.601270 0.880329 0.870093
O O7 0.814441 0.880813 0.902461
O O8 0.983132 0.755969 0.938827
O O9 0.000000 0.500000 0.935433
O O10 0.867900 0.103955 0.500000
O O11 0.000000 0.000000 0.434817
#
# Coordination Sequence:
#
# PCOD9496775 Si02
#       5
#    16  16  16  16   4
#     4  11  22  41  66  86 117 159 199 256 323 381
#     4   9  18  35  61  83 119 161 200 249 306 364
#     4   9  18  36  57  82 111 156 198 247 303 369
#     4  10  20  33  53  88 127 163 210 256 294 364
#     4  12  24  44  64  96 126 148 212 274 320 398
#
# _framework density 20.146540999999999
#
# number of rings (size 3 to 8) (size 9 to 14) (size 15 to 20)
#    0.000    2.118    3.529    1.412    0.000    5.647 
#    0.000    3.529    0.000   12.706    0.000    0.000 
#    0.000    0.000    0.000    0.000    0.000    0.000 
#
# Total GULP energy -189559.397384 kJ/mol
# GULP energy per Si atom -5575.276394 kJ/mol
# Density = 2.010069 g / cm^3
# Si number density = 20.146541 Si / 1000 Ang^3
#
#
#
# Elastic Constant Matrix: (Units=GPa)
#
#
# Indices 1 2 3 4 5 6 
#
# 1 58.3796 51.6164 25.2843 0.0000 0.0000 0.0000
# 2 51.6164 217.1451 41.0160 0.0000 0.0000 0.0000
# 3 25.2843 41.0160 62.7958 0.0000 0.0000 0.0000
# 4 0.0000 0.0000 0.0000 6.7724 0.0000 0.0000
# 5 0.0000 0.0000 0.0000 0.0000 41.4406 0.0000
# 6 0.0000 0.0000 0.0000 0.0000 0.0000 35.5607
#
#
#
# Elastic Compliance Matrix: (Units=1/GPa)
#
#
# Indices 1 2 3 4 5 6 
#
# 1 0.023966 -0.004419 -0.006763 0.000000 0.000000 0.000000
# 2 -0.004419 0.006068 -0.002184 0.000000 0.000000 0.000000
# 3 -0.006763 -0.002184 0.020074 0.000000 0.000000 0.000000
# 4 0.000000 0.000000 0.000000 0.147658 0.000000 0.000000
# 5 0.000000 0.000000 0.000000 0.000000 0.024131 0.000000
# 6 0.000000 0.000000 0.000000 0.000000 0.000000 0.028121
#
#
# Mechanical properties :
#
#
# Convention : Reuss Voigt Hill
#
# Bulk Modulus (GPa) = 42.78039 63.79489 53.28764
# Shear Modulus (GPa) = 17.57201 31.44831 24.51016
#
# Velocity S-wave (km/s) = 2.95652 3.95521 3.49175
# Velocity P-wave (km/s) = 5.73894 7.25206 6.53941
#
# Compressibility (1/GPa) = 0.02337520
#
# Stress axis : x y z
#
# Youngs Moduli (GPa) = 41.72635 164.79174 49.81478
#
# Poissons Ratio (x) = 0.72826 0.33690
# Poissons Ratio (y) = 0.18440 0.10880
# Poissons Ratio (z) = 0.28220 0.35994
#
# Static dielectric constant tensor:
#      x y z
#    x 1.707680 0.000000 0.000000 
#    y 0.000000 1.778420 0.000000 
#    z 0.000000 0.000000 1.715690 
# 
# From -- ./inp_files/63373.got.cif
#   From: 2010.05.17/outbox.cif.g08.bks.cpg/sg66_32_cif.got.tgz:63373.got - 2010.06.03 17:51:23.
