data_PCOD9496020
_publ_section_title
;
Structure prediction by ZEFSAII (Michael W. Deem and Ramdas Pophale) SiO2 
 PCOD9496020
Probable space group: C C C M
;
_chemical_formula_sum "Si O2"
_cell_formula_units_Z 80
_cell_length_a 16.689401
_cell_length_b 8.994452
_cell_length_c 28.876278
_cell_angle_alpha 90.000000
_cell_angle_beta 90.000000
_cell_angle_gamma 90.000000
_cell_volume 4334.676311
_symmetry_space_group_name_H-M "C C C M"
_symmetry_group_IT_number 66
_symmetry_cell_setting 'orthorhombic'
loop_
_space_group_symop_operation_xyz
x,y,z
-x,-y,z
x,-y,1/2-z
-x,y,1/2-z
-x,-y,-z
x,y,-z
-x,y,1/2+z
x,-y,1/2+z
1/2+x,1/2+y,z
1/2-x,1/2-y,z
1/2+x,1/2-y,1/2-z
1/2-x,1/2+y,1/2-z
1/2-x,1/2-y,-z
1/2+x,1/2+y,-z
1/2-x,1/2+y,1/2+z
1/2+x,1/2-y,1/2+z
loop_
_atom_site_type_symbol
_atom_site_label
_atom_site_fract_x
_atom_site_fract_y
_atom_site_fract_z
Si Si1 0.586615 0.688137 0.947144
Si Si2 0.581329 0.903555 0.133135
Si Si3 0.008922 0.828572 0.805085
Si Si4 0.893213 0.152797 0.946615
Si Si5 0.337314 0.197595 0.646186
O O1 0.610667 0.814553 0.911583
O O2 0.489432 0.677112 0.943896
O O3 0.619394 0.522882 0.937117
O O4 0.606924 0.725072 0.000000
O O5 0.554563 0.780033 0.170229
O O6 0.500000 0.000000 0.122955
O O7 0.646378 0.022152 0.149443
O O8 0.000000 0.818638 0.750000
O O9 0.095068 0.774530 0.822615
O O10 0.000000 0.000000 0.819708
O O11 0.853108 0.250877 0.906985
O O12 0.869412 0.184184 0.000000
O O13 0.250000 0.250000 0.660019
#
# Coordination Sequence:
#
# PCOD9496020 Si02
#       5
#    16  16  16  16  16
#     4   9  16  29  53  82 107 147 205 243 267 323
#     4  10  19  32  55  83 110 148 186 232 283 331
#     4  10  21  41  65  84 105 145 190 233 286 349
#     4   9  17  31  53  79 115 155 191 235 281 334
#     4  11  23  37  55  86 123 150 184 235 289 338
#
# _framework density 18.455819000000002
#
# number of rings (size 3 to 8) (size 9 to 14) (size 15 to 20)
#    0.000    2.200    4.000    2.400    0.000    5.200 
#    0.000    8.000    0.000    2.400    0.000    0.000 
#    0.000    0.000    0.000    0.000    0.000    0.000 
#
# Total GULP energy -223210.897383 kJ/mol
# GULP energy per Si atom -5580.272435 kJ/mol
# Density = 1.841381 g / cm^3
# Si number density = 18.455819 Si / 1000 Ang^3
#
#
#
# Elastic Constant Matrix: (Units=GPa)
#
#
# Indices 1 2 3 4 5 6 
#
# 1 64.7586 45.9965 27.9991 0.0000 0.0000 0.0000
# 2 45.9965 150.9916 63.3902 0.0000 0.0000 0.0000
# 3 27.9991 63.3902 77.2930 0.0000 0.0000 0.0000
# 4 0.0000 0.0000 0.0000 -365.5504 0.0000 0.0000
# 5 0.0000 0.0000 0.0000 0.0000 6.8530 0.0000
# 6 0.0000 0.0000 0.0000 0.0000 0.0000 19.1368
#
#
#
# Elastic Compliance Matrix: (Units=1/GPa)
#
#
# Indices 1 2 3 4 5 6 
#
# 1 0.020302 -0.004723 -0.003480 0.000000 0.000000 0.000000
# 2 -0.004723 0.011200 -0.007474 0.000000 0.000000 0.000000
# 3 -0.003480 -0.007474 0.020328 0.000000 0.000000 0.000000
# 4 0.000000 0.000000 0.000000 -0.002736 0.000000 0.000000
# 5 0.000000 0.000000 0.000000 0.000000 0.145921 0.000000
# 6 0.000000 0.000000 0.000000 0.000000 0.000000 0.052255
#
#
# Mechanical properties :
#
#
# Convention : Reuss Voigt Hill
#
# Bulk Modulus (GPa) = 48.84302 63.09054 55.96678
# Shear Modulus (GPa) = 17.51617 -57.53496 -20.00939
#
# Velocity S-wave (km/s) = 3.08407 -5.58946 -3.29626
# Velocity P-wave (km/s) = 6.26133 2.71980 3.98792
#
# Compressibility (1/GPa) = 0.02047375
#
# Stress axis : x y z
#
# Youngs Moduli (GPa) = 49.25720 89.28934 49.19252
#
# Poissons Ratio (x) = 0.42174 0.17121
# Poissons Ratio (y) = 0.23265 0.36767
# Poissons Ratio (z) = 0.17144 0.66736
#
# Static dielectric constant tensor:
#      x y z
#    x 1.623850 0.000000 0.000000 
#    y 0.000000 1.645110 0.000000 
#    z 0.000000 0.000000 1.634580 
# 
# From -- ./inp_files/62369.got.cif
#   From: 2010.05.17/outbox.cif.g08.bks.cpg/sg66_32_cif.got.tgz:62369.got - 2010.06.03 17:51:23.
