data_PCOD9496733
_publ_section_title
;
Structure prediction by ZEFSAII (Michael W. Deem and Ramdas Pophale) SiO2 
 PCOD9496733
Probable space group: C C C M
;
_chemical_formula_sum "Si O2"
_cell_formula_units_Z 96
_cell_length_a 25.560440
_cell_length_b 9.157478
_cell_length_c 22.958465
_cell_angle_alpha 90.000000
_cell_angle_beta 90.000000
_cell_angle_gamma 90.000000
_cell_volume 5373.868777
_symmetry_space_group_name_H-M "C C C M"
_symmetry_group_IT_number 66
_symmetry_cell_setting 'orthorhombic'
loop_
_space_group_symop_operation_xyz
x,y,z
-x,-y,z
x,-y,1/2-z
-x,y,1/2-z
-x,-y,-z
x,y,-z
-x,y,1/2+z
x,-y,1/2+z
1/2+x,1/2+y,z
1/2-x,1/2-y,z
1/2+x,1/2-y,1/2-z
1/2-x,1/2+y,1/2-z
1/2-x,1/2-y,-z
1/2+x,1/2+y,-z
1/2-x,1/2+y,1/2+z
1/2+x,1/2-y,1/2+z
loop_
_atom_site_type_symbol
_atom_site_label
_atom_site_fract_x
_atom_site_fract_y
_atom_site_fract_z
Si Si1 0.937420 0.672380 0.259553
Si Si2 0.114353 0.533949 0.568858
Si Si3 0.402662 0.632644 0.128614
Si Si4 0.688362 0.237311 0.930704
Si Si5 0.920661 0.208426 0.637479
Si Si6 0.021374 0.685085 0.066941
O O1 0.925000 0.500000 0.250000
O O2 0.919231 0.758979 0.317775
O O3 0.913365 0.751319 0.204252
O O4 0.000000 0.684853 0.250000
O O5 0.115122 0.555567 0.500000
O O6 0.160144 0.418434 0.582802
O O7 0.118086 0.687863 0.600897
O O8 0.057277 0.457190 0.582169
O O9 0.342636 0.652741 0.110981
O O10 0.416348 0.464563 0.135394
O O11 0.434940 0.690289 0.073006
O O12 0.750000 0.250000 0.920967
O O13 0.679435 0.263790 0.000000
O O14 0.976533 0.261759 0.610927
O O15 0.003213 0.674125 0.000000
#
# Coordination Sequence:
#
# PCOD9496733 Si02
#       6
#    16  16  16  16  16  16
#     4  11  23  37  56  77 109 155 200 230 270 340
#     4   9  19  34  54  82 113 148 192 230 278 345
#     4  11  22  36  54  82 116 145 187 238 287 339
#     4   9  19  39  64  84 108 147 193 240 288 339
#     4  12  22  32  53  80 118 149 182 234 284 340
#     4  10  20  33  50  75 113 156 188 219 269 344
#
# _framework density 17.864224
#
# number of rings (size 3 to 8) (size 9 to 14) (size 15 to 20)
#    0.000    1.667    1.667    5.500    2.333    5.333 
#    0.000    0.833    0.000    9.000    0.000    0.000 
#    0.000    0.000    0.000    0.000    0.000    0.000 
#
# Total GULP energy -267387.537463 kJ/mol
# GULP energy per Si atom -5570.573697 kJ/mol
# Density = 1.782356 g / cm^3
# Si number density = 17.864224 Si / 1000 Ang^3
#
#
#
# Elastic Constant Matrix: (Units=GPa)
#
#
# Indices 1 2 3 4 5 6 
#
# 1 92.4067 30.4075 37.5903 0.0000 0.0000 0.0000
# 2 30.4075 145.9523 53.3884 0.0000 0.0000 0.0000
# 3 37.5903 53.3884 84.2778 0.0000 0.0000 0.0000
# 4 0.0000 0.0000 0.0000 19.6390 0.0000 0.0000
# 5 0.0000 0.0000 0.0000 0.0000 16.1662 0.0000
# 6 0.0000 0.0000 0.0000 0.0000 0.0000 6.9229
#
#
#
# Elastic Compliance Matrix: (Units=1/GPa)
#
#
# Indices 1 2 3 4 5 6 
#
# 1 0.013289 -0.000782 -0.005432 0.000000 0.000000 0.000000
# 2 -0.000782 0.008964 -0.005330 0.000000 0.000000 0.000000
# 3 -0.005432 -0.005330 0.017665 0.000000 0.000000 0.000000
# 4 0.000000 0.000000 0.000000 0.050919 0.000000 0.000000
# 5 0.000000 0.000000 0.000000 0.000000 0.061858 0.000000
# 6 0.000000 0.000000 0.000000 0.000000 0.000000 0.144447
#
#
# Mechanical properties :
#
#
# Convention : Reuss Voigt Hill
#
# Bulk Modulus (GPa) = 59.41626 62.82325 61.11976
# Shear Modulus (GPa) = 15.34503 21.96233 18.65368
#
# Velocity S-wave (km/s) = 2.93402 3.51009 3.23490
# Velocity P-wave (km/s) = 6.69403 7.18826 6.94554
#
# Compressibility (1/GPa) = 0.01683041
#
# Stress axis : x y z
#
# Youngs Moduli (GPa) = 75.25255 111.55680 56.60983
#
# Poissons Ratio (x) = 0.08719 0.30750
# Poissons Ratio (y) = 0.05881 0.30173
# Poissons Ratio (z) = 0.40877 0.59459
#
# Static dielectric constant tensor:
#      x y z
#    x 1.642970 0.000000 0.000000 
#    y 0.000000 1.669550 0.000000 
#    z 0.000000 0.000000 1.624570 
# 
# From -- ./inp_files/59803.got.cif
#   From: 2010.05.17/outbox.cif.g08.bks.cpg/sg66_30_cif.got.tgz:59803.got - 2010.06.03 17:51:23.
