data_PCOD9496186
_publ_section_title
;
Structure prediction by ZEFSAII (Michael W. Deem and Ramdas Pophale) SiO2 
 PCOD9496186
Probable space group: C C C M
;
_chemical_formula_sum "Si O2"
_cell_formula_units_Z 68
_cell_length_a 9.420277
_cell_length_b 16.533802
_cell_length_c 18.844936
_cell_angle_alpha 90.000000
_cell_angle_beta 90.000000
_cell_angle_gamma 90.000000
_cell_volume 2935.155217
_symmetry_space_group_name_H-M "C C C M"
_symmetry_group_IT_number 66
_symmetry_cell_setting 'orthorhombic'
loop_
_space_group_symop_operation_xyz
x,y,z
-x,-y,z
x,-y,1/2-z
-x,y,1/2-z
-x,-y,-z
x,y,-z
-x,y,1/2+z
x,-y,1/2+z
1/2+x,1/2+y,z
1/2-x,1/2-y,z
1/2+x,1/2-y,1/2-z
1/2-x,1/2+y,1/2-z
1/2-x,1/2-y,-z
1/2+x,1/2+y,-z
1/2-x,1/2+y,1/2+z
1/2+x,1/2-y,1/2+z
loop_
_atom_site_type_symbol
_atom_site_label
_atom_site_fract_x
_atom_site_fract_y
_atom_site_fract_z
Si Si1 0.250000 0.750000 0.376077
Si Si2 0.537255 0.641912 0.500000
Si Si3 0.000000 0.500000 0.250000
Si Si4 0.822262 0.621686 0.656811
Si Si5 0.813436 0.445264 0.000000
Si Si6 0.295592 0.129480 0.000000
Si Si7 0.952335 0.794689 0.653363
O O1 0.319874 0.816661 0.429443
O O2 0.378420 0.707943 0.333491
O O3 0.641884 0.566253 0.500000
O O4 0.374113 0.618155 0.500000
O O5 0.563397 0.695826 0.568601
O O6 0.100869 0.445297 0.297808
O O7 0.849810 0.598931 0.573983
O O8 0.891432 0.708140 0.673855
O O9 0.654961 0.633787 0.675713
O O10 0.142458 0.460471 0.000000
#
# Coordination Sequence:
#
# PCOD9496186 Si02
#       7
#     8   8   4  16   8   8  16
#     4   9  18  32  58  96 136 166 212 271 330 415
#     4   8  15  31  58 100 138 159 208 274 328 402
#     4  12  28  46  60  94 140 188 232 310 332 416
#     4  10  23  41  67  94 133 170 229 274 348 397
#     4  10  19  33  63 101 126 169 215 281 333 403
#     4   9  17  27  50  99 144 169 194 259 349 396
#     4   9  18  39  66  95 125 174 212 267 331 418
#
# _framework density 23.167428000000001
#
# number of rings (size 3 to 8) (size 9 to 14) (size 15 to 20)
#    0.000    2.588    0.000    1.765    3.294    3.294 
#    0.000    2.353    0.000    1.412    0.000    0.000 
#    0.000    0.000    0.000    0.000    0.000    2.706 
#
# Total GULP energy -189831.837121 kJ/mol
# GULP energy per Si atom -5583.289327 kJ/mol
# Density = 2.311470 g / cm^3
# Si number density = 23.167428 Si / 1000 Ang^3
#
#
#
# Elastic Constant Matrix: (Units=GPa)
#
#
# Indices 1 2 3 4 5 6 
#
# 1 157.0606 51.9340 38.6731 0.0000 0.0000 0.0000
# 2 51.9340 135.4870 42.7335 0.0000 0.0000 0.0000
# 3 38.6731 42.7335 105.9168 0.0000 0.0000 0.0000
# 4 0.0000 0.0000 0.0000 5.2880 0.0000 0.0000
# 5 0.0000 0.0000 0.0000 0.0000 -103.3879 0.0000
# 6 0.0000 0.0000 0.0000 0.0000 0.0000 39.0509
#
#
#
# Elastic Compliance Matrix: (Units=1/GPa)
#
#
# Indices 1 2 3 4 5 6 
#
# 1 0.007589 -0.002332 -0.001830 0.000000 0.000000 0.000000
# 2 -0.002332 0.009173 -0.002850 0.000000 0.000000 0.000000
# 3 -0.001830 -0.002850 0.011259 0.000000 0.000000 0.000000
# 4 0.000000 0.000000 0.000000 0.189108 0.000000 0.000000
# 5 0.000000 0.000000 0.000000 0.000000 -0.009672 0.000000
# 6 0.000000 0.000000 0.000000 0.000000 0.000000 0.025608
#
#
# Mechanical properties :
#
#
# Convention : Reuss Voigt Hill
#
# Bulk Modulus (GPa) = 71.43680 73.90507 72.67094
# Shear Modulus (GPa) = 19.86069 5.86511 12.86290
#
# Velocity S-wave (km/s) = 2.93109 1.59283 2.35886
# Velocity P-wave (km/s) = 6.50823 5.94580 6.23336
#
# Compressibility (1/GPa) = 0.01399839
#
# Stress axis : x y z
#
# Youngs Moduli (GPa) = 131.77737 109.01140 88.81491
#
# Poissons Ratio (x) = 0.25417 0.16254
# Poissons Ratio (y) = 0.30725 0.25310
# Poissons Ratio (z) = 0.24116 0.31066
#
# Static dielectric constant tensor:
#      x y z
#    x 1.958170 0.000000 0.000000 
#    y 0.000000 1.831980 0.000000 
#    z 0.000000 0.000000 1.883250 
# 
# From -- ./inp_files/46811.got.cif
#   From: 2010.05.17/outbox.cif.g08.bks.cpg/sg66_24_cif.got.tgz:46811.got - 2010.06.03 17:51:23.
