data_PCOD9496414
_publ_section_title
;
Structure prediction by ZEFSAII (Michael W. Deem and Ramdas Pophale) SiO2 
 PCOD9496414
Probable space group: C C C M
;
_chemical_formula_sum "Si O2"
_cell_formula_units_Z 112
_cell_length_a 12.350525
_cell_length_b 28.492052
_cell_length_c 15.652617
_cell_angle_alpha 90.000000
_cell_angle_beta 90.000000
_cell_angle_gamma 90.000000
_cell_volume 5508.027579
_symmetry_space_group_name_H-M "C C C M"
_symmetry_group_IT_number 66
_symmetry_cell_setting 'orthorhombic'
loop_
_space_group_symop_operation_xyz
x,y,z
-x,-y,z
x,-y,1/2-z
-x,y,1/2-z
-x,-y,-z
x,y,-z
-x,y,1/2+z
x,-y,1/2+z
1/2+x,1/2+y,z
1/2-x,1/2-y,z
1/2+x,1/2-y,1/2-z
1/2-x,1/2+y,1/2-z
1/2-x,1/2-y,-z
1/2+x,1/2+y,-z
1/2-x,1/2+y,1/2+z
1/2+x,1/2-y,1/2+z
loop_
_atom_site_type_symbol
_atom_site_label
_atom_site_fract_x
_atom_site_fract_y
_atom_site_fract_z
Si Si1 0.562969 0.316508 0.905016
Si Si2 0.738728 0.450195 0.898798
Si Si3 0.372986 0.894137 0.243614
Si Si4 0.999031 0.075665 0.401639
Si Si5 0.744793 0.306438 0.233968
Si Si6 0.663977 0.707561 0.093191
Si Si7 0.243913 0.059954 0.101543
O O1 0.511639 0.368211 0.900654
O O2 0.657772 0.316329 0.838144
O O3 0.462677 0.280656 0.891804
O O4 0.606441 0.308679 0.000000
O O5 0.814328 0.420794 0.835174
O O6 0.613137 0.444351 0.868781
O O7 0.770595 0.504645 0.895348
O O8 0.743211 0.435094 0.000000
O O9 0.500000 0.903131 0.250000
O O10 0.349634 0.838720 0.225943
O O11 0.318993 0.912119 0.332216
O O12 0.994451 0.059090 0.500000
O O13 0.881113 0.063826 0.366800
O O14 0.750000 0.250000 0.234859
O O15 0.697585 0.321617 0.325531
O O16 0.750000 0.750000 0.089547
O O17 0.667906 0.684455 0.000000
O O18 0.250823 0.074148 0.000000
#
# Coordination Sequence:
#
# PCOD9496414 Si02
#       7
#    16  16  16  16  16  16  16
#     4  10  19  35  61  90 123 161 201 257 325 385
#     4  10  21  41  67  95 132 169 205 258 325 389
#     4  12  27  44  62  90 129 173 221 267 313 378
#     4   9  17  34  63  96 127 158 200 255 321 388
#     4  11  24  41  63  86 117 164 218 270 317 373
#     4   9  19  35  57  86 118 153 198 253 315 376
#     4  10  22  40  66  99 129 164 210 263 321 386
#
# _framework density 20.333957999999999
#
# number of rings (size 3 to 8) (size 9 to 14) (size 15 to 20)
#    0.000    1.857    1.429    2.143    0.000    8.286 
#    0.000    2.857    0.000    0.000    0.000    0.000 
#    0.000    0.000    0.000    0.000    0.000    0.000 
#
# Total GULP energy -312116.929423 kJ/mol
# GULP energy per Si atom -5573.516597 kJ/mol
# Density = 2.028768 g / cm^3
# Si number density = 20.333958 Si / 1000 Ang^3
#
#
#
# Elastic Constant Matrix: (Units=GPa)
#
#
# Indices 1 2 3 4 5 6 
#
# 1 142.0420 40.7589 64.1564 0.0000 0.0000 0.0000
# 2 40.7589 84.9993 28.1231 0.0000 0.0000 0.0000
# 3 64.1564 28.1231 105.8154 0.0000 0.0000 0.0000
# 4 0.0000 0.0000 0.0000 8.9078 0.0000 0.0000
# 5 0.0000 0.0000 0.0000 0.0000 33.9685 0.0000
# 6 0.0000 0.0000 0.0000 0.0000 0.0000 24.7203
#
#
#
# Elastic Compliance Matrix: (Units=1/GPa)
#
#
# Indices 1 2 3 4 5 6 
#
# 1 0.010428 -0.003189 -0.005475 0.000000 0.000000 0.000000
# 2 -0.003189 0.013874 -0.001754 0.000000 0.000000 0.000000
# 3 -0.005475 -0.001754 0.013236 0.000000 0.000000 0.000000
# 4 0.000000 0.000000 0.000000 0.112262 0.000000 0.000000
# 5 0.000000 0.000000 0.000000 0.000000 0.029439 0.000000
# 6 0.000000 0.000000 0.000000 0.000000 0.000000 0.040453
#
#
# Mechanical properties :
#
#
# Convention : Reuss Voigt Hill
#
# Bulk Modulus (GPa) = 59.87106 66.54815 63.20960
# Shear Modulus (GPa) = 20.31730 26.84052 23.57891
#
# Velocity S-wave (km/s) = 3.16441 3.63710 3.40896
# Velocity P-wave (km/s) = 6.54669 7.10188 6.82993
#
# Compressibility (1/GPa) = 0.01670256
#
# Stress axis : x y z
#
# Youngs Moduli (GPa) = 95.89356 72.07559 75.55060
#
# Poissons Ratio (x) = 0.22985 0.41365
# Poissons Ratio (y) = 0.30581 0.13251
# Poissons Ratio (z) = 0.52503 0.12641
#
# Static dielectric constant tensor:
#      x y z
#    x 1.727260 0.000000 0.000000 
#    y 0.000000 1.793560 0.000000 
#    z 0.000000 0.000000 1.754410 
# 
# From -- ./inp_files/26959.got.cif
#   From: 2010.05.17/outbox.cif.g08.bks.cpg/sg66_14_cif.got.tgz:26959.got - 2010.06.03 17:51:23.
