data_PCOD9496594
_publ_section_title
;
Structure prediction by ZEFSAII (Michael W. Deem and Ramdas Pophale) SiO2 
 PCOD9496594
Probable space group: C C C M
;
_chemical_formula_sum "Si O2"
_cell_formula_units_Z 112
_cell_length_a 14.520673
_cell_length_b 14.864760
_cell_length_c 24.218397
_cell_angle_alpha 90.000000
_cell_angle_beta 90.000000
_cell_angle_gamma 90.000000
_cell_volume 5227.451849
_symmetry_space_group_name_H-M "C C C M"
_symmetry_group_IT_number 66
_symmetry_cell_setting 'orthorhombic'
loop_
_space_group_symop_operation_xyz
x,y,z
-x,-y,z
x,-y,1/2-z
-x,y,1/2-z
-x,-y,-z
x,y,-z
-x,y,1/2+z
x,-y,1/2+z
1/2+x,1/2+y,z
1/2-x,1/2-y,z
1/2+x,1/2-y,1/2-z
1/2-x,1/2+y,1/2-z
1/2-x,1/2-y,-z
1/2+x,1/2+y,-z
1/2-x,1/2+y,1/2+z
1/2+x,1/2-y,1/2+z
loop_
_atom_site_type_symbol
_atom_site_label
_atom_site_fract_x
_atom_site_fract_y
_atom_site_fract_z
Si Si1 0.847365 0.150547 0.352979
Si Si2 0.654126 0.141495 0.615023
Si Si3 0.389659 0.711876 0.761313
Si Si4 0.481273 0.105311 0.437842
Si Si5 0.000821 0.892919 0.439636
Si Si6 0.141459 0.764155 0.889186
Si Si7 0.604750 0.908925 0.770386
O O1 0.758504 0.107550 0.382716
O O2 0.842734 0.256467 0.364833
O O3 0.850502 0.145472 0.286345
O O4 0.937253 0.123101 0.385826
O O5 0.586347 0.141255 0.563998
O O6 0.603281 0.089553 0.664001
O O7 0.500000 0.711059 0.750000
O O8 0.370417 0.700670 0.825973
O O9 0.354616 0.814017 0.749386
O O10 0.443056 0.110248 0.500000
O O11 0.417626 0.171046 0.399924
O O12 0.500000 0.000000 0.424804
O O13 0.036217 0.859985 0.500000
O O14 0.906354 0.839400 0.427766
O O15 0.000000 0.000000 0.443473
O O16 0.250000 0.750000 0.899780
O O17 0.500000 0.908439 0.750000
O O18 0.651486 0.000000 0.750000
#
# Coordination Sequence:
#
# PCOD9496594 Si02
#       7
#    16  16  16  16  16  16  16
#     4  10  21  41  64  97 128 172 221 277 334 404
#     4  10  21  36  63  92 131 168 217 272 331 403
#     4  10  19  39  65  91 135 179 220 273 342 422
#     4  11  25  44  68 101 141 181 228 292 353 408
#     4  11  25  48  73  96 130 180 239 294 347 412
#     4  12  26  44  73 105 141 187 233 284 356 422
#     4   9  18  30  53  88 127 172 210 258 323 401
#
# _framework density 21.425353000000001
#
# number of rings (size 3 to 8) (size 9 to 14) (size 15 to 20)
#    0.000    1.571    2.857    2.143    8.000    2.857 
#    0.000    5.714    0.000    0.000    0.000    0.000 
#    0.000    0.000    0.000    0.000    0.000    0.000 
#
# Total GULP energy -311807.578228 kJ/mol
# GULP energy per Si atom -5567.992468 kJ/mol
# Density = 2.137659 g / cm^3
# Si number density = 21.425353 Si / 1000 Ang^3
#
#
#
# Elastic Constant Matrix: (Units=GPa)
#
#
# Indices 1 2 3 4 5 6 
#
# 1 132.2253 25.0784 30.3791 0.0000 0.0000 0.0000
# 2 25.0784 64.4188 26.4107 0.0000 0.0000 0.0000
# 3 30.3791 26.4107 110.1084 0.0000 0.0000 0.0000
# 4 0.0000 0.0000 0.0000 -0.0868 0.0000 0.0000
# 5 0.0000 0.0000 0.0000 0.0000 0.7078 0.0000
# 6 0.0000 0.0000 0.0000 0.0000 0.0000 -31.3645
#
#
#
# Elastic Compliance Matrix: (Units=1/GPa)
#
#
# Indices 1 2 3 4 5 6 
#
# 1 0.008446 -0.002587 -0.001710 0.000000 0.000000 0.000000
# 2 -0.002587 0.018009 -0.003606 0.000000 0.000000 0.000000
# 3 -0.001710 -0.003606 0.010419 0.000000 0.000000 0.000000
# 4 0.000000 0.000000 0.000000-11.521893 0.000000 0.000000
# 5 0.000000 0.000000 0.000000 0.000000 1.412817 0.000000
# 6 0.000000 0.000000 0.000000 0.000000 0.000000 -0.031883
#
#
# Mechanical properties :
#
#
# Convention : Reuss Voigt Hill
#
# Bulk Modulus (GPa) = 47.46479 52.27656 49.87068
# Shear Modulus (GPa) = -0.49597 8.84359 4.17381
#
# Velocity S-wave (km/s) = -0.48165 2.03386 1.39725
# Velocity P-wave (km/s) = 4.67892 5.47429 5.09216
#
# Compressibility (1/GPa) = 0.02106825
#
# Stress axis : x y z
#
# Youngs Moduli (GPa) = 118.39392 55.52795 95.98229
#
# Poissons Ratio (x) = 0.14366 0.16411
# Poissons Ratio (y) = 0.30631 0.34610
# Poissons Ratio (z) = 0.20243 0.20022
#
# Static dielectric constant tensor:
#      x y z
#    x 1.893830 0.000000 0.000000 
#    y 0.000000 1.765120 0.000000 
#    z 0.000000 0.000000 2.049510 
# 
# From -- ./inp_files/58214.got.cif
#   From: 2010.05.17/outbox.cif.g08.bks.cpg/sg66_30_cif.got.tgz:58214.got - 2010.06.03 17:51:23.
