data_PCOD9496472
_publ_section_title
;
Structure prediction by ZEFSAII (Michael W. Deem and Ramdas Pophale) SiO2 
 PCOD9496472
Probable space group: C C C M
;
_chemical_formula_sum "Si O2"
_cell_formula_units_Z 112
_cell_length_a 12.602259
_cell_length_b 23.876465
_cell_length_c 18.474745
_cell_angle_alpha 90.000000
_cell_angle_beta 90.000000
_cell_angle_gamma 90.000000
_cell_volume 5559.002661
_symmetry_space_group_name_H-M "C C C M"
_symmetry_group_IT_number 66
_symmetry_cell_setting 'orthorhombic'
loop_
_space_group_symop_operation_xyz
x,y,z
-x,-y,z
x,-y,1/2-z
-x,y,1/2-z
-x,-y,-z
x,y,-z
-x,y,1/2+z
x,-y,1/2+z
1/2+x,1/2+y,z
1/2-x,1/2-y,z
1/2+x,1/2-y,1/2-z
1/2-x,1/2+y,1/2-z
1/2-x,1/2-y,-z
1/2+x,1/2+y,-z
1/2-x,1/2+y,1/2+z
1/2+x,1/2-y,1/2+z
loop_
_atom_site_type_symbol
_atom_site_label
_atom_site_fract_x
_atom_site_fract_y
_atom_site_fract_z
Si Si1 0.472326 0.160992 0.669991
Si Si2 0.303679 0.188295 0.131903
Si Si3 0.246315 0.684095 0.794301
Si Si4 0.134804 0.108940 0.919879
Si Si5 0.094453 0.467109 0.327525
Si Si6 0.313337 0.519924 0.087386
Si Si7 0.051316 0.891429 0.174271
O O1 0.500000 0.185317 0.750000
O O2 0.569619 0.182617 0.621675
O O3 0.351933 0.176685 0.651096
O O4 0.456120 0.094469 0.679097
O O5 0.250000 0.250000 0.125914
O O6 0.284272 0.163773 0.213396
O O7 0.239531 0.146086 0.082014
O O8 0.250000 0.750000 0.786061
O O9 0.353593 0.652607 0.814592
O O10 0.047756 0.135228 0.867464
O O11 0.161311 0.045318 0.898335
O O12 0.089217 0.106865 0.000000
O O13 0.112431 0.500000 0.250000
O O14 0.202412 0.466224 0.372747
O O15 0.000000 0.500000 0.366833
O O16 0.401382 0.558666 0.125589
O O17 0.309404 0.528070 0.000000
O O18 0.000000 0.910897 0.250000
#
# Coordination Sequence:
#
# PCOD9496472 Si02
#       7
#    16  16  16  16  16  16  16
#     4  10  19  36  59  94 129 159 202 275 325 365
#     4  10  22  40  65  94 127 169 217 269 330 393
#     4  10  22  38  64  98 128 161 210 274 329 375
#     4  11  25  43  63  91 135 175 215 272 333 391
#     4  11  21  35  65  96 129 173 222 270 319 392
#     4  11  26  44  63  96 140 176 215 277 344 397
#     4  12  24  41  70  99 125 173 224 270 323 406
#
# _framework density 20.147499
#
# number of rings (size 3 to 8) (size 9 to 14) (size 15 to 20)
#    0.000    1.286    4.286    1.714    6.000    2.857 
#    0.000    0.714    0.000    1.714    0.000    0.000 
#    0.000    0.000    0.000    0.000    0.000    0.000 
#
# Total GULP energy -312092.709089 kJ/mol
# GULP energy per Si atom -5573.084091 kJ/mol
# Density = 2.010164 g / cm^3
# Si number density = 20.147499 Si / 1000 Ang^3
#
#
#
# Elastic Constant Matrix: (Units=GPa)
#
#
# Indices 1 2 3 4 5 6 
#
# 1 141.8988 23.0636 45.3685 0.0000 0.0000 0.0000
# 2 23.0636 65.9510 24.4628 0.0000 0.0000 0.0000
# 3 45.3685 24.4628 57.2429 0.0000 0.0000 0.0000
# 4 0.0000 0.0000 0.0000 10.7116 0.0000 0.0000
# 5 0.0000 0.0000 0.0000 0.0000 10.7607 0.0000
# 6 0.0000 0.0000 0.0000 0.0000 0.0000 22.6919
#
#
#
# Elastic Compliance Matrix: (Units=1/GPa)
#
#
# Indices 1 2 3 4 5 6 
#
# 1 0.009461 -0.000627 -0.007231 0.000000 0.000000 0.000000
# 2 -0.000627 0.018061 -0.007222 0.000000 0.000000 0.000000
# 3 -0.007231 -0.007222 0.026286 0.000000 0.000000 0.000000
# 4 0.000000 0.000000 0.000000 0.093357 0.000000 0.000000
# 5 0.000000 0.000000 0.000000 0.000000 0.092931 0.000000
# 6 0.000000 0.000000 0.000000 0.000000 0.000000 0.044069
#
#
# Mechanical properties :
#
#
# Convention : Reuss Voigt Hill
#
# Bulk Modulus (GPa) = 42.28291 50.09804 46.19048
# Shear Modulus (GPa) = 15.51807 20.31268 17.91538
#
# Velocity S-wave (km/s) = 2.77830 3.17866 2.98520
# Velocity P-wave (km/s) = 5.59680 6.19608 5.90405
#
# Compressibility (1/GPa) = 0.02365022
#
# Stress axis : x y z
#
# Youngs Moduli (GPa) = 105.69815 55.36929 38.04273
#
# Poissons Ratio (x) = 0.03469 0.27507
# Poissons Ratio (y) = 0.06623 0.27473
# Poissons Ratio (z) = 0.76426 0.39985
#
# Static dielectric constant tensor:
#      x y z
#    x 1.699030 0.000000 0.000000 
#    y 0.000000 1.287430 0.000000 
#    z 0.000000 0.000000 1.764060 
# 
# From -- ./inp_files/49000.got.cif
#   From: 2010.05.17/outbox.cif.g08.bks.cpg/sg66_25_cif.got.tgz:49000.got - 2010.06.03 17:51:23.
