data_PCOD9496593
_publ_section_title
;
Structure prediction by ZEFSAII (Michael W. Deem and Ramdas Pophale) SiO2 
 PCOD9496593
Probable space group: C C C M
;
_chemical_formula_sum "Si O2"
_cell_formula_units_Z 72
_cell_length_a 8.494052
_cell_length_b 29.253629
_cell_length_c 14.051950
_cell_angle_alpha 90.000000
_cell_angle_beta 90.000000
_cell_angle_gamma 90.000000
_cell_volume 3491.654475
_symmetry_space_group_name_H-M "C C C M"
_symmetry_group_IT_number 66
_symmetry_cell_setting 'orthorhombic'
loop_
_space_group_symop_operation_xyz
x,y,z
-x,-y,z
x,-y,1/2-z
-x,y,1/2-z
-x,-y,-z
x,y,-z
-x,y,1/2+z
x,-y,1/2+z
1/2+x,1/2+y,z
1/2-x,1/2-y,z
1/2+x,1/2-y,1/2-z
1/2-x,1/2+y,1/2-z
1/2-x,1/2-y,-z
1/2+x,1/2+y,-z
1/2-x,1/2+y,1/2+z
1/2+x,1/2-y,1/2+z
loop_
_atom_site_type_symbol
_atom_site_label
_atom_site_fract_x
_atom_site_fract_y
_atom_site_fract_z
Si Si1 0.737336 0.451188 0.725049
Si Si2 0.500000 0.372996 0.250000
Si Si3 0.740651 0.804526 0.298462
Si Si4 0.573322 0.831609 0.104342
Si Si5 0.478691 0.936242 0.893161
O O1 0.663222 0.500000 0.750000
O O2 0.618795 0.409808 0.700384
O O3 0.837785 0.434955 0.817327
O O4 0.871792 0.463738 0.647530
O O5 0.392460 0.337513 0.311004
O O6 0.750000 0.750000 0.302921
O O7 0.680385 0.815990 0.191649
O O8 0.603748 0.816195 0.372364
O O9 0.555769 0.885949 0.105252
O O10 0.625970 0.816028 0.000000
O O11 0.430614 0.948292 0.000000
#
# Coordination Sequence:
#
# PCOD9496593 Si02
#       5
#    16   8  16  16  16
#     4  11  22  37  60  88 121 162 199 241 299 355
#     4  12  21  40  58  86 130 148 189 252 304 360
#     4  11  22  40  64  88 115 155 195 246 307 356
#     4  10  20  40  63  83 114 155 201 243 288 356
#     4  10  19  39  65  84 115 160 204 245 281 343
#
# _framework density 20.620597
#
# number of rings (size 3 to 8) (size 9 to 14) (size 15 to 20)
#    0.000    1.333    4.444    4.333    0.000    2.667 
#    0.000    4.444    0.000    2.667    0.000    0.000 
#    0.000    0.000    0.000    0.000    0.000    0.000 
#
# Total GULP energy -200608.317820 kJ/mol
# GULP energy per Si atom -5572.453273 kJ/mol
# Density = 2.057366 g / cm^3
# Si number density = 20.620597 Si / 1000 Ang^3
#
#
#
# Elastic Constant Matrix: (Units=GPa)
#
#
# Indices 1 2 3 4 5 6 
#
# 1 89.3310 27.5586 8.5543 0.0000 0.0000 0.0000
# 2 27.5586 120.4355 -15.2090 0.0000 0.0000 0.0000
# 3 8.5543 -15.2090 83.3054 0.0000 0.0000 0.0000
# 4 0.0000 0.0000 0.0000 9.0161 0.0000 0.0000
# 5 0.0000 0.0000 0.0000 0.0000 2.9130 0.0000
# 6 0.0000 0.0000 0.0000 0.0000 0.0000 13.8864
#
#
#
# Elastic Compliance Matrix: (Units=1/GPa)
#
#
# Indices 1 2 3 4 5 6 
#
# 1 0.012308 -0.003046 -0.001820 0.000000 0.000000 0.000000
# 2 -0.003046 0.009253 0.002002 0.000000 0.000000 0.000000
# 3 -0.001820 0.002002 0.012556 0.000000 0.000000 0.000000
# 4 0.000000 0.000000 0.000000 0.110912 0.000000 0.000000
# 5 0.000000 0.000000 0.000000 0.000000 0.343290 0.000000
# 6 0.000000 0.000000 0.000000 0.000000 0.000000 0.072013
#
#
# Mechanical properties :
#
#
# Convention : Reuss Voigt Hill
#
# Bulk Modulus (GPa) = 35.22428 37.20885 36.21657
# Shear Modulus (GPa) = 8.68772 23.30764 15.99768
#
# Velocity S-wave (km/s) = 2.05482 3.36565 2.78836
# Velocity P-wave (km/s) = 4.76958 5.76083 5.28848
#
# Compressibility (1/GPa) = 0.02838951
#
# Stress axis : x y z
#
# Youngs Moduli (GPa) = 81.24536 108.07183 79.64035
#
# Poissons Ratio (x) = 0.32922 0.14495
# Poissons Ratio (y) = 0.24750 -0.15945
# Poissons Ratio (z) = 0.14787 -0.21638
#
# Static dielectric constant tensor:
#      x y z
#    x 1.767800 0.000000 0.000000 
#    y 0.000000 1.831510 0.000000 
#    z 0.000000 0.000000 1.721490 
# 
# From -- ./inp_files/24625.got.cif
#   From: 2010.05.17/outbox.cif.g08.bks.cpg/sg66_13_cif.got.tgz:24625.got - 2010.06.03 17:51:23.
