data_PCOD9496703
_publ_section_title
;
Structure prediction by ZEFSAII (Michael W. Deem and Ramdas Pophale) SiO2 
 PCOD9496703
Probable space group: C C C M
;
_chemical_formula_sum "Si O2"
_cell_formula_units_Z 68
_cell_length_a 17.898700
_cell_length_b 10.205973
_cell_length_c 20.181089
_cell_angle_alpha 90.000000
_cell_angle_beta 90.000000
_cell_angle_gamma 90.000000
_cell_volume 3686.553167
_symmetry_space_group_name_H-M "C C C M"
_symmetry_group_IT_number 66
_symmetry_cell_setting 'orthorhombic'
loop_
_space_group_symop_operation_xyz
x,y,z
-x,-y,z
x,-y,1/2-z
-x,y,1/2-z
-x,-y,-z
x,y,-z
-x,y,1/2+z
x,-y,1/2+z
1/2+x,1/2+y,z
1/2-x,1/2-y,z
1/2+x,1/2-y,1/2-z
1/2-x,1/2+y,1/2-z
1/2-x,1/2-y,-z
1/2+x,1/2+y,-z
1/2-x,1/2+y,1/2+z
1/2+x,1/2-y,1/2+z
loop_
_atom_site_type_symbol
_atom_site_label
_atom_site_fract_x
_atom_site_fract_y
_atom_site_fract_z
Si Si1 0.921877 0.946587 0.382378
Si Si2 0.100384 0.647906 0.859121
Si Si3 0.158858 0.000000 0.250000
Si Si4 0.000000 0.500000 0.250000
Si Si5 0.816032 0.920149 0.500000
Si Si6 0.750000 0.750000 0.294215
Si Si7 0.146206 0.606807 0.000000
O O1 0.932466 0.791995 0.370897
O O2 0.856770 0.970522 0.434839
O O3 0.894067 0.006743 0.313703
O O4 0.000000 0.000000 0.406609
O O5 0.186129 0.678352 0.837558
O O6 0.104062 0.577956 0.930984
O O7 0.054433 0.579630 0.800242
O O8 0.208672 0.867989 0.244293
O O9 0.834625 0.763586 0.500000
O O10 0.729086 0.952433 0.500000
#
# Coordination Sequence:
#
# PCOD9496703 Si02
#       7
#    16  16   8   4   8   8   8
#     4  10  20  33  55  83 111 148 184 237 288 347
#     4  10  22  36  59  83 116 148 196 234 291 338
#     4  10  20  32  56  80 112 150 196 234 297 345
#     4  12  26  38  54  94 124 152 184 254 294 354
#     4   9  17  32  58  84 108 138 196 239 271 334
#     4  10  20  37  56  87 112 158 196 250 286 359
#     4   9  16  35  58  81 106 149 192 229 274 348
#
# _framework density 18.445412999999999
#
# number of rings (size 3 to 8) (size 9 to 14) (size 15 to 20)
#    0.000    2.118    0.000    5.647    6.588    0.471 
#    0.000    0.000    0.000    0.706    0.000    0.000 
#    0.000    0.000    0.000    0.000    0.000    0.000 
#
# Total GULP energy -189541.795783 kJ/mol
# GULP energy per Si atom -5574.758700 kJ/mol
# Density = 1.840343 g / cm^3
# Si number density = 18.445413 Si / 1000 Ang^3
#
#
#
# Elastic Constant Matrix: (Units=GPa)
#
#
# Indices 1 2 3 4 5 6 
#
# 1 90.0791 20.1106 46.8812 0.0000 0.0000 0.0000
# 2 20.1106 30.1795 23.1683 0.0000 0.0000 0.0000
# 3 46.8812 23.1683 153.8180 0.0000 0.0000 0.0000
# 4 0.0000 0.0000 0.0000 -18.0221 0.0000 0.0000
# 5 0.0000 0.0000 0.0000 0.0000 18.9282 0.0000
# 6 0.0000 0.0000 0.0000 0.0000 0.0000 20.7205
#
#
#
# Elastic Compliance Matrix: (Units=1/GPa)
#
#
# Indices 1 2 3 4 5 6 
#
# 1 0.014407 -0.007044 -0.003330 0.000000 0.000000 0.000000
# 2 -0.007044 0.040911 -0.004015 0.000000 0.000000 0.000000
# 3 -0.003330 -0.004015 0.008121 0.000000 0.000000 0.000000
# 4 0.000000 0.000000 0.000000 -0.055488 0.000000 0.000000
# 5 0.000000 0.000000 0.000000 0.000000 0.052831 0.000000
# 6 0.000000 0.000000 0.000000 0.000000 0.000000 0.048261
#
#
# Mechanical properties :
#
#
# Convention : Reuss Voigt Hill
#
# Bulk Modulus (GPa) = 28.85101 50.48854 39.66978
# Shear Modulus (GPa) = 33.47248 16.58643 25.02945
#
# Velocity S-wave (km/s) = 4.26452 3.00195 3.68767
# Velocity P-wave (km/s) = 6.31850 6.28067 6.29962
#
# Compressibility (1/GPa) = 0.03466083
#
# Stress axis : x y z
#
# Youngs Moduli (GPa) = 69.41042 24.44310 123.13864
#
# Poissons Ratio (x) = 0.17218 0.41006
# Poissons Ratio (y) = 0.48892 0.49443
# Poissons Ratio (z) = 0.23114 0.09815
#
# Static dielectric constant tensor:
#      x y z
#    x 1.660200 0.000000 0.000000 
#    y 0.000000 1.635310 0.000000 
#    z 0.000000 0.000000 1.669560 
# 
# From -- ./inp_files/38418.got.cif
#   From: 2010.05.17/outbox.cif.g08.bks.cpg/sg66_20_cif.got.tgz:38418.got - 2010.06.03 17:51:23.
