data_PCOD9496187
_publ_section_title
;
Structure prediction by ZEFSAII (Michael W. Deem and Ramdas Pophale) SiO2 
 PCOD9496187
Probable space group: C C C M
;
_chemical_formula_sum "Si O2"
_cell_formula_units_Z 68
_cell_length_a 15.805077
_cell_length_b 9.910137
_cell_length_c 19.354861
_cell_angle_alpha 90.000000
_cell_angle_beta 90.000000
_cell_angle_gamma 90.000000
_cell_volume 3031.561137
_symmetry_space_group_name_H-M "C C C M"
_symmetry_group_IT_number 66
_symmetry_cell_setting 'orthorhombic'
loop_
_space_group_symop_operation_xyz
x,y,z
-x,-y,z
x,-y,1/2-z
-x,y,1/2-z
-x,-y,-z
x,y,-z
-x,y,1/2+z
x,-y,1/2+z
1/2+x,1/2+y,z
1/2-x,1/2-y,z
1/2+x,1/2-y,1/2-z
1/2-x,1/2+y,1/2-z
1/2-x,1/2-y,-z
1/2+x,1/2+y,-z
1/2-x,1/2+y,1/2+z
1/2+x,1/2-y,1/2+z
loop_
_atom_site_type_symbol
_atom_site_label
_atom_site_fract_x
_atom_site_fract_y
_atom_site_fract_z
Si Si1 0.675947 0.575556 0.352231
Si Si2 0.535901 0.296409 0.500000
Si Si3 0.500000 0.000000 0.250000
Si Si4 0.109731 0.511142 0.500000
Si Si5 0.702086 0.535243 0.000000
Si Si6 0.140076 0.388316 0.348984
Si Si7 0.500000 0.500000 0.879577
O O1 0.686636 0.555484 0.433857
O O2 0.771019 0.537257 0.328228
O O3 0.659639 0.731473 0.339634
O O4 0.587982 0.497465 0.337100
O O5 0.541522 0.133868 0.500000
O O6 0.631850 0.350742 0.500000
O O7 0.498130 0.369714 0.568408
O O8 0.562244 0.919673 0.299944
O O9 0.202267 0.582698 0.500000
O O10 0.114935 0.428420 0.427837
#
# Coordination Sequence:
#
# PCOD9496187 Si02
#       7
#    16   8   4   8   8  16   8
#     4   9  18  39  64  90 121 167 197 251 307 381
#     4   9  17  27  50  95 140 159 192 255 321 358
#     4  12  28  46  56  88 128 166 200 272 314 364
#     4  10  19  33  63  99 118 165 211 255 304 385
#     4   8  15  31  58  96 136 151 192 264 313 354
#     4  10  23  41  65  90 129 160 211 254 320 367
#     4   9  18  32  56  93 132 161 198 261 312 361
#
# _framework density 22.430688
#
# number of rings (size 3 to 8) (size 9 to 14) (size 15 to 20)
#    0.000    2.588    0.000    1.765    3.294    3.294 
#    0.000    4.706   10.353    0.000    0.000    0.000 
#    0.000    0.000    0.000    0.000    0.000    0.118 
#
# Total GULP energy -189493.785078 kJ/mol
# GULP energy per Si atom -5573.346620 kJ/mol
# Density = 2.237963 g / cm^3
# Si number density = 22.430688 Si / 1000 Ang^3
#
#
#
# Elastic Constant Matrix: (Units=GPa)
#
#
# Indices 1 2 3 4 5 6 
#
# 1 208.7330 20.2896 46.6793 0.0000 0.0000 0.0000
# 2 20.2896 57.3481 16.4197 0.0000 0.0000 0.0000
# 3 46.6793 16.4197 95.3738 0.0000 0.0000 0.0000
# 4 0.0000 0.0000 0.0000 -13.1050 0.0000 0.0000
# 5 0.0000 0.0000 0.0000 0.0000 -87.7726 0.0000
# 6 0.0000 0.0000 0.0000 0.0000 0.0000 34.7391
#
#
#
# Elastic Compliance Matrix: (Units=1/GPa)
#
#
# Indices 1 2 3 4 5 6 
#
# 1 0.005461 -0.001227 -0.002461 0.000000 0.000000 0.000000
# 2 -0.001227 0.018617 -0.002605 0.000000 0.000000 0.000000
# 3 -0.002461 -0.002605 0.012138 0.000000 0.000000 0.000000
# 4 0.000000 0.000000 0.000000 -0.076307 0.000000 0.000000
# 5 0.000000 0.000000 0.000000 0.000000 -0.011393 0.000000
# 6 0.000000 0.000000 0.000000 0.000000 0.000000 0.028786
#
#
# Mechanical properties :
#
#
# Convention : Reuss Voigt Hill
#
# Bulk Modulus (GPa) = 42.31941 58.69248 50.50594
# Shear Modulus (GPa) = -2236.89319 5.31005 -1115.79157
#
# Velocity S-wave (km/s) = -31.61347 1.54028 -22.32755
# Velocity P-wave (km/s) = 36.24419 5.42091 25.34024
#
# Compressibility (1/GPa) = 0.02362982
#
# Stress axis : x y z
#
# Youngs Moduli (GPa) = 183.13268 53.71353 82.38517
#
# Poissons Ratio (x) = 0.06592 0.20277
# Poissons Ratio (y) = 0.22474 0.21458
# Poissons Ratio (z) = 0.45074 0.13990
#
# Static dielectric constant tensor:
#      x y z
#    x 1.999710 0.000000 0.000000 
#    y 0.000000 1.905000 0.000000 
#    z 0.000000 0.000000 1.887020 
# 
# From -- ./inp_files/50687.got.cif
#   From: 2010.05.17/outbox.cif.g08.bks.cpg/sg66_26_cif.got.tgz:50687.got - 2010.06.03 17:51:23.
