data_PCOD9496994
_publ_section_title
;
Structure prediction by ZEFSAII (Michael W. Deem and Ramdas Pophale) SiO2 
 PCOD9496994
Probable space group: C C C M
;
_chemical_formula_sum "Si O2"
_cell_formula_units_Z 96
_cell_length_a 27.842834
_cell_length_b 20.892056
_cell_length_c 8.696094
_cell_angle_alpha 90.000000
_cell_angle_beta 90.000000
_cell_angle_gamma 90.000000
_cell_volume 5058.466113
_symmetry_space_group_name_H-M "C C C M"
_symmetry_group_IT_number 66
_symmetry_cell_setting 'orthorhombic'
loop_
_space_group_symop_operation_xyz
x,y,z
-x,-y,z
x,-y,1/2-z
-x,y,1/2-z
-x,-y,-z
x,y,-z
-x,y,1/2+z
x,-y,1/2+z
1/2+x,1/2+y,z
1/2-x,1/2-y,z
1/2+x,1/2-y,1/2-z
1/2-x,1/2+y,1/2-z
1/2-x,1/2-y,-z
1/2+x,1/2+y,-z
1/2-x,1/2+y,1/2+z
1/2+x,1/2-y,1/2+z
loop_
_atom_site_type_symbol
_atom_site_label
_atom_site_fract_x
_atom_site_fract_y
_atom_site_fract_z
Si Si1 0.447650 0.322674 0.815777
Si Si2 0.286917 0.194707 0.685774
Si Si3 0.603180 0.199854 0.185310
Si Si4 0.738614 0.430581 0.315661
Si Si5 0.053750 0.432637 0.315633
Si Si6 0.127444 0.069193 0.814782
O O1 0.500000 0.337269 0.750000
O O2 0.430195 0.253474 0.759326
O O3 0.408455 0.375151 0.763646
O O4 0.449515 0.323339 0.000000
O O5 0.285603 0.191476 0.500000
O O6 0.250000 0.250000 0.736018
O O7 0.341517 0.209725 0.731983
O O8 0.270366 0.126808 0.751425
O O9 0.585453 0.128718 0.226811
O O10 0.600071 0.205506 0.000000
O O11 0.752418 0.500000 0.250000
O O12 0.740906 0.432106 0.500000
O O13 0.682832 0.418671 0.268605
O O14 0.072394 0.500000 0.250000
O O15 0.051177 0.436834 0.500000
O O16 0.000000 0.423905 0.250000
O O17 0.113334 0.000000 0.750000
O O18 0.126384 0.066570 0.000000
#
# Coordination Sequence:
#
# PCOD9496994 Si02
#       6
#    16  16  16  16  16  16
#     4  11  23  38  57  82 111 144 184 228 276 329
#     4  10  21  37  57  82 113 147 183 226 277 330
#     4  10  22  38  56  81 111 144 183 225 270 324
#     4  10  20  36  58  83 112 146 186 229 275 329
#     4  10  20  35  55  78 105 136 174 216 261 315
#     4   9  20  37  57  82 111 145 184 226 273 327
#
# _framework density 18.978085
#
# number of rings (size 3 to 8) (size 9 to 14) (size 15 to 20)
#    0.000    2.000    0.000    3.500    0.000    6.667 
#    0.000    3.333    0.000    0.000    0.000    0.000 
#    0.000    0.000    0.000    0.000    0.000    0.000 
#
# Total GULP energy -268176.294943 kJ/mol
# GULP energy per Si atom -5587.006145 kJ/mol
# Density = 1.893489 g / cm^3
# Si number density = 18.978085 Si / 1000 Ang^3
#
#
#
# Elastic Constant Matrix: (Units=GPa)
#
#
# Indices 1 2 3 4 5 6 
#
# 1 23.6021 -11.7898 1.7685 0.0000 0.0000 0.0000
# 2 -11.7898 37.5502 1.4193 0.0000 0.0000 0.0000
# 3 1.7685 1.4193 13.5002 0.0000 0.0000 0.0000
# 4 0.0000 0.0000 0.0000 26.8517 0.0000 0.0000
# 5 0.0000 0.0000 0.0000 0.0000 20.4339 0.0000
# 6 0.0000 0.0000 0.0000 0.0000 0.0000 36.9052
#
#
#
# Elastic Compliance Matrix: (Units=1/GPa)
#
#
# Indices 1 2 3 4 5 6 
#
# 1 0.051188 0.016390 -0.008429 0.000000 0.000000 0.000000
# 2 0.016390 0.031985 -0.005510 0.000000 0.000000 0.000000
# 3 -0.008429 -0.005510 0.075756 0.000000 0.000000 0.000000
# 4 0.000000 0.000000 0.000000 0.037242 0.000000 0.000000
# 5 0.000000 0.000000 0.000000 0.000000 0.048938 0.000000
# 6 0.000000 0.000000 0.000000 0.000000 0.000000 0.027096
#
#
# Mechanical properties :
#
#
# Convention : Reuss Voigt Hill
#
# Bulk Modulus (GPa) = 6.10374 6.38315 6.24345
# Shear Modulus (GPa) = 15.53212 22.38846 18.96029
#
# Velocity S-wave (km/s) = 2.86391 3.43840 3.16422
# Velocity P-wave (km/s) = 3.76287 4.37427 4.08004
#
# Compressibility (1/GPa) = 0.16383385
#
# Stress axis : x y z
#
# Youngs Moduli (GPa) = 19.53583 31.26425 13.20019
#
# Poissons Ratio (x) = -0.51243 0.11126
# Poissons Ratio (y) = -0.32020 0.07273
# Poissons Ratio (z) = 0.16466 0.17226
#
# Static dielectric constant tensor:
#      x y z
#    x 1.649350 0.000000 0.000000 
#    y 0.000000 1.631750 0.000000 
#    z 0.000000 0.000000 1.636470 
# 
# From -- ./inp_files/8025.got.cif
#   From: 2010.05.17/outbox.cif.g08.bks.cpg/sg66_5_cif.got.tgz:8025.got - 2010.06.03 17:51:23.
