data_PCOD9496943
_publ_section_title
;
Structure prediction by ZEFSAII (Michael W. Deem and Ramdas Pophale) SiO2 
 PCOD9496943
Probable space group: C C C M
;
_chemical_formula_sum "Si O2"
_cell_formula_units_Z 64
_cell_length_a 8.896326
_cell_length_b 18.950434
_cell_length_c 19.012053
_cell_angle_alpha 90.000000
_cell_angle_beta 90.000000
_cell_angle_gamma 90.000000
_cell_volume 3205.227541
_symmetry_space_group_name_H-M "C C C M"
_symmetry_group_IT_number 66
_symmetry_cell_setting 'orthorhombic'
loop_
_space_group_symop_operation_xyz
x,y,z
-x,-y,z
x,-y,1/2-z
-x,y,1/2-z
-x,-y,-z
x,y,-z
-x,y,1/2+z
x,-y,1/2+z
1/2+x,1/2+y,z
1/2-x,1/2-y,z
1/2+x,1/2-y,1/2-z
1/2-x,1/2+y,1/2-z
1/2-x,1/2-y,-z
1/2+x,1/2+y,-z
1/2-x,1/2+y,1/2+z
1/2+x,1/2-y,1/2+z
loop_
_atom_site_type_symbol
_atom_site_label
_atom_site_fract_x
_atom_site_fract_y
_atom_site_fract_z
Si Si1 0.378738 0.808941 0.583428
Si Si2 0.147900 0.926638 0.799835
Si Si3 0.844893 0.453095 0.331750
Si Si4 0.590451 0.277487 0.822283
O O1 0.393811 0.816095 0.500000
O O2 0.250000 0.750000 0.597898
O O3 0.352321 0.885681 0.617775
O O4 0.521691 0.773633 0.620249
O O5 0.288867 0.921216 0.744214
O O6 0.113417 0.858223 0.845378
O O7 0.000000 0.932960 0.750000
O O8 0.206722 0.992414 0.845521
O O9 0.000000 0.500000 0.332674
O O10 0.500000 0.278035 0.750000
O O11 0.750000 0.250000 0.800751
#
# Coordination Sequence:
#
# PCOD9496943 Si02
#       4
#    16  16  16  16
#     4  11  25  44  63  87 126 171 211 252 304 366
#     4  10  20  34  59  91 122 151 196 261 316 366
#     4  11  21  37  60  87 120 155 199 250 310 364
#     4  11  21  37  64  94 124 158 204 256 308 367
#
# _framework density 19.967379999999999
#
# number of rings (size 3 to 8) (size 9 to 14) (size 15 to 20)
#    0.000    1.250    0.000    9.750    0.000    3.000 
#    0.000    1.250    0.000    6.000    0.000    0.000 
#    0.000    0.000    0.000    0.000    0.000    0.000 
#
# Total GULP energy -178193.088776 kJ/mol
# GULP energy per Si atom -5568.534024 kJ/mol
# Density = 1.992193 g / cm^3
# Si number density = 19.967380 Si / 1000 Ang^3
#
#
#
# Elastic Constant Matrix: (Units=GPa)
#
#
# Indices 1 2 3 4 5 6 
#
# 1 128.6515 72.7061 34.5806 0.0000 0.0000 0.0000
# 2 72.7061 191.9179 67.2482 0.0000 0.0000 0.0000
# 3 34.5806 67.2482 73.0616 0.0000 0.0000 0.0000
# 4 0.0000 0.0000 0.0000 49.1950 0.0000 0.0000
# 5 0.0000 0.0000 0.0000 0.0000 -3.1351 0.0000
# 6 0.0000 0.0000 0.0000 0.0000 0.0000 35.5012
#
#
#
# Elastic Compliance Matrix: (Units=1/GPa)
#
#
# Indices 1 2 3 4 5 6 
#
# 1 0.010057 -0.003162 -0.001850 0.000000 0.000000 0.000000
# 2 -0.003162 0.008685 -0.006498 0.000000 0.000000 0.000000
# 3 -0.001850 -0.006498 0.020543 0.000000 0.000000 0.000000
# 4 0.000000 0.000000 0.000000 0.020327 0.000000 0.000000
# 5 0.000000 0.000000 0.000000 0.000000 -0.318974 0.000000
# 6 0.000000 0.000000 0.000000 0.000000 0.000000 0.028168
#
#
# Mechanical properties :
#
#
# Convention : Reuss Voigt Hill
#
# Bulk Modulus (GPa) = 61.47445 82.52231 71.99838
# Shear Modulus (GPa) = -24.66065 30.91863 3.12899
#
# Velocity S-wave (km/s) = -3.51814 3.93931 1.25318
# Velocity P-wave (km/s) = 3.78830 7.88094 6.18306
#
# Compressibility (1/GPa) = 0.01626692
#
# Stress axis : x y z
#
# Youngs Moduli (GPa) = 99.43295 115.13925 48.67800
#
# Poissons Ratio (x) = 0.36405 0.09005
# Poissons Ratio (y) = 0.31439 0.31629
# Poissons Ratio (z) = 0.18393 0.74812
#
# Static dielectric constant tensor:
#      x y z
#    x 1.753080 0.000000 0.000000 
#    y 0.000000 1.355780 0.000000 
#    z 0.000000 0.000000 1.654990 
# 
# From -- ./inp_files/46580.got.cif
#   From: 2010.05.17/outbox.cif.g08.bks.cpg/sg66_24_cif.got.tgz:46580.got - 2010.06.03 17:51:23.
