data_PCOD9496400
_publ_section_title
;
Structure prediction by ZEFSAII (Michael W. Deem and Ramdas Pophale) SiO2 
 PCOD9496400
Probable space group: C C C M
;
_chemical_formula_sum "Si O2"
_cell_formula_units_Z 116
_cell_length_a 10.863151
_cell_length_b 27.259421
_cell_length_c 18.572269
_cell_angle_alpha 90.000000
_cell_angle_beta 90.000000
_cell_angle_gamma 90.000000
_cell_volume 5499.679848
_symmetry_space_group_name_H-M "C C C M"
_symmetry_group_IT_number 66
_symmetry_cell_setting 'orthorhombic'
loop_
_space_group_symop_operation_xyz
x,y,z
-x,-y,z
x,-y,1/2-z
-x,y,1/2-z
-x,-y,-z
x,y,-z
-x,y,1/2+z
x,-y,1/2+z
1/2+x,1/2+y,z
1/2-x,1/2-y,z
1/2+x,1/2-y,1/2-z
1/2-x,1/2+y,1/2-z
1/2-x,1/2-y,-z
1/2+x,1/2+y,-z
1/2-x,1/2+y,1/2+z
1/2+x,1/2-y,1/2+z
loop_
_atom_site_type_symbol
_atom_site_label
_atom_site_fract_x
_atom_site_fract_y
_atom_site_fract_z
Si Si1 0.709813 0.360267 0.337112
Si Si2 0.873674 0.969866 0.581708
Si Si3 0.435234 0.895068 0.919280
Si Si4 0.000000 0.500000 0.250000
Si Si5 0.452477 0.193306 0.168006
Si Si6 0.021724 0.197250 0.663165
Si Si7 0.654304 0.955910 0.877798
Si Si8 0.303850 0.384142 0.671361
O O1 0.806118 0.315257 0.329609
O O2 0.585225 0.337572 0.367187
O O3 0.767107 0.405718 0.379265
O O4 0.693205 0.382065 0.256945
O O5 0.859587 0.950937 0.500000
O O6 0.888612 0.926345 0.638808
O O7 0.751237 0.002578 0.598195
O O8 0.000000 0.000000 0.584480
O O9 0.503128 0.847263 0.888267
O O10 0.529450 0.940750 0.919440
O O11 0.326049 0.899419 0.861996
O O12 0.389498 0.887485 0.000000
O O13 0.092682 0.468922 0.199470
O O14 0.500000 0.183696 0.250000
O O15 0.500792 0.246399 0.144194
O O16 0.000000 0.196361 0.750000
O O17 0.149863 0.169991 0.647710
#
# Coordination Sequence:
#
# PCOD9496400 Si02
#       8
#    16  16  16   4  16  16  16  16
#     4  10  19  35  60  87 115 151 196 259 307 369
#     4  11  24  41  60  83 119 171 219 259 314 388
#     4  11  23  38  60  88 123 162 202 253 316 377
#     4  12  24  36  60  96 120 160 194 270 320 376
#     4  10  19  36  61  87 118 154 196 251 308 373
#     4   9  20  34  56  87 115 151 198 245 306 371
#     4  11  22  38  61  86 122 154 212 257 321 368
#     4  11  21  37  57  85 123 153 202 256 316 371
#
# _framework density 21.092137000000001
#
# number of rings (size 3 to 8) (size 9 to 14) (size 15 to 20)
#    0.000    1.517    1.379    4.552    1.931    0.552 
#    0.000    6.552    0.000    8.276    0.000    0.000 
#    0.000    0.000    0.000    0.000    0.000    0.000 
#
# Total GULP energy -323536.920740 kJ/mol
# GULP energy per Si atom -5578.222771 kJ/mol
# Density = 2.104413 g / cm^3
# Si number density = 21.092137 Si / 1000 Ang^3
#
#
#
# Elastic Constant Matrix: (Units=GPa)
#
#
# Indices 1 2 3 4 5 6 
#
# 1 67.7136 17.2654 -0.1436 0.0000 0.0000 0.0000
# 2 17.2654 103.9998 4.5793 0.0000 0.0000 0.0000
# 3 -0.1436 4.5793 39.8438 0.0000 0.0000 0.0000
# 4 0.0000 0.0000 0.0000 28.6635 0.0000 0.0000
# 5 0.0000 0.0000 0.0000 0.0000 13.7851 0.0000
# 6 0.0000 0.0000 0.0000 0.0000 0.0000 32.6174
#
#
#
# Elastic Compliance Matrix: (Units=1/GPa)
#
#
# Indices 1 2 3 4 5 6 
#
# 1 0.015426 -0.002576 0.000352 0.000000 0.000000 0.000000
# 2 -0.002576 0.010095 -0.001169 0.000000 0.000000 0.000000
# 3 0.000352 -0.001169 0.025234 0.000000 0.000000 0.000000
# 4 0.000000 0.000000 0.000000 0.034888 0.000000 0.000000
# 5 0.000000 0.000000 0.000000 0.000000 0.072542 0.000000
# 6 0.000000 0.000000 0.000000 0.000000 0.000000 0.030658
#
#
# Mechanical properties :
#
#
# Convention : Reuss Voigt Hill
#
# Bulk Modulus (GPa) = 22.74499 28.32884 25.53691
# Shear Modulus (GPa) = 23.77718 27.67027 25.72373
#
# Velocity S-wave (km/s) = 3.36117 3.62591 3.49605
# Velocity P-wave (km/s) = 5.08629 5.56685 5.33199
#
# Compressibility (1/GPa) = 0.04396573
#
# Stress axis : x y z
#
# Youngs Moduli (GPa) = 64.82674 99.06279 39.62954
#
# Poissons Ratio (x) = 0.25522 -0.01394
# Poissons Ratio (y) = 0.16702 0.04635
# Poissons Ratio (z) = -0.02280 0.11585
#
# Static dielectric constant tensor:
#      x y z
#    x 1.850540 0.000000 0.000000 
#    y 0.000000 1.788150 0.000000 
#    z 0.000000 0.000000 1.748080 
# 
# From -- ./inp_files/39140.got.cif
#   From: 2010.05.17/outbox.cif.g08.bks.cpg/sg66_20_cif.got.tgz:39140.got - 2010.06.03 17:51:23.
