data_PCOD9496477
_publ_section_title
;
Structure prediction by ZEFSAII (Michael W. Deem and Ramdas Pophale) SiO2 
 PCOD9496477
Probable space group: C C C M
;
_chemical_formula_sum "Si O2"
_cell_formula_units_Z 120
_cell_length_a 10.961037
_cell_length_b 25.906477
_cell_length_c 21.000240
_cell_angle_alpha 90.000000
_cell_angle_beta 90.000000
_cell_angle_gamma 90.000000
_cell_volume 5963.267063
_symmetry_space_group_name_H-M "C C C M"
_symmetry_group_IT_number 66
_symmetry_cell_setting 'orthorhombic'
loop_
_space_group_symop_operation_xyz
x,y,z
-x,-y,z
x,-y,1/2-z
-x,y,1/2-z
-x,-y,-z
x,y,-z
-x,y,1/2+z
x,-y,1/2+z
1/2+x,1/2+y,z
1/2-x,1/2-y,z
1/2+x,1/2-y,1/2-z
1/2-x,1/2+y,1/2-z
1/2-x,1/2-y,-z
1/2+x,1/2+y,-z
1/2-x,1/2+y,1/2+z
1/2+x,1/2-y,1/2+z
loop_
_atom_site_type_symbol
_atom_site_label
_atom_site_fract_x
_atom_site_fract_y
_atom_site_fract_z
Si Si1 0.325687 0.636400 0.929433
Si Si2 0.091234 0.697181 0.884111
Si Si3 0.250000 0.750000 0.216072
Si Si4 0.743447 0.451757 0.835032
Si Si5 0.275210 0.564340 0.317042
Si Si6 0.497522 0.091821 0.826540
Si Si7 0.883838 0.172388 0.298526
Si Si8 0.054555 0.213111 0.931339
O O1 0.213388 0.675206 0.916515
O O2 0.320666 0.592628 0.875801
O O3 0.447194 0.670287 0.928333
O O4 0.311307 0.613517 0.000000
O O5 0.136230 0.735482 0.828277
O O6 0.024472 0.647921 0.854836
O O7 0.007713 0.730901 0.929307
O O8 0.221698 0.801297 0.256092
O O9 0.730498 0.442061 0.759666
O O10 0.691025 0.508900 0.846121
O O11 0.889681 0.445058 0.847171
O O12 0.138877 0.574885 0.342601
O O13 0.357895 0.614686 0.323328
O O14 0.500000 0.094209 0.750000
O O15 0.883747 0.206182 0.362927
O O16 0.000000 0.172698 0.250000
O O17 0.119039 0.206387 0.000000
#
# Coordination Sequence:
#
# PCOD9496477 Si02
#       8
#    16  16   8  16  16  16  16  16
#     4  10  19  36  60  84 112 147 192 250 298 347
#     4  11  19  33  57  89 117 142 193 238 302 349
#     4  12  22  34  60  88 118 150 194 254 294 346
#     4   9  18  35  57  87 112 138 189 240 297 350
#     4  10  20  35  57  81 115 152 184 240 298 343
#     4   9  18  30  55  86 115 143 182 232 287 354
#     4  12  24  38  58  85 121 155 203 247 298 358
#     4  11  23  38  55  80 119 159 195 237 294 361
#
# _framework density 20.123197000000001
#
# number of rings (size 3 to 8) (size 9 to 14) (size 15 to 20)
#    0.000    1.600    2.667    4.000    3.733    2.667 
#    0.000    5.667    0.000    9.600    0.000    0.000 
#    0.000    0.000    0.000    0.000    0.000    0.000 
#
# Total GULP energy -334736.434942 kJ/mol
# GULP energy per Si atom -5578.940582 kJ/mol
# Density = 2.007740 g / cm^3
# Si number density = 20.123197 Si / 1000 Ang^3
#
#
#
# Elastic Constant Matrix: (Units=GPa)
#
#
# Indices 1 2 3 4 5 6 
#
# 1 7.1376 1.6618 1.5079 0.0000 0.0000 0.0000
# 2 1.6618 100.7206 19.1229 0.0000 0.0000 0.0000
# 3 1.5079 19.1229 67.6857 0.0000 0.0000 0.0000
# 4 0.0000 0.0000 0.0000 15.4522 0.0000 0.0000
# 5 0.0000 0.0000 0.0000 0.0000 10.5686 0.0000
# 6 0.0000 0.0000 0.0000 0.0000 0.0000 19.0440
#
#
#
# Elastic Compliance Matrix: (Units=1/GPa)
#
#
# Indices 1 2 3 4 5 6 
#
# 1 0.141084 -0.001829 -0.002626 0.000000 0.000000 0.000000
# 2 -0.001829 0.010515 -0.002930 0.000000 0.000000 0.000000
# 3 -0.002626 -0.002930 0.015660 0.000000 0.000000 0.000000
# 4 0.000000 0.000000 0.000000 0.064716 0.000000 0.000000
# 5 0.000000 0.000000 0.000000 0.000000 0.094620 0.000000
# 6 0.000000 0.000000 0.000000 0.000000 0.000000 0.052510
#
#
# Mechanical properties :
#
#
# Convention : Reuss Voigt Hill
#
# Bulk Modulus (GPa) = 6.55787 24.45878 15.50833
# Shear Modulus (GPa) = 11.24342 19.22974 15.23658
#
# Velocity S-wave (km/s) = 2.36631 3.09463 2.75465
# Velocity P-wave (km/s) = 3.27595 4.99499 4.22385
#
# Compressibility (1/GPa) = 0.15248843
#
# Stress axis : x y z
#
# Youngs Moduli (GPa) = 7.08800 95.10297 63.85511
#
# Poissons Ratio (x) = 0.17395 0.16770
# Poissons Ratio (y) = 0.01296 0.18709
# Poissons Ratio (z) = 0.01861 0.27865
#
# Static dielectric constant tensor:
#      x y z
#    x 1.734140 0.000000 0.000000 
#    y 0.000000 1.720740 0.000000 
#    z 0.000000 0.000000 1.720210 
# 
# From -- ./inp_files/49074.got.cif
#   From: 2010.05.17/outbox.cif.g08.bks.cpg/sg66_25_cif.got.tgz:49074.got - 2010.06.03 17:51:23.
