data_PCOD9496398
_publ_section_title
;
Structure prediction by ZEFSAII (Michael W. Deem and Ramdas Pophale) SiO2 
 PCOD9496398
Probable space group: C C C M
;
_chemical_formula_sum "Si O2"
_cell_formula_units_Z 112
_cell_length_a 31.799671
_cell_length_b 11.766234
_cell_length_c 15.555816
_cell_angle_alpha 90.000000
_cell_angle_beta 90.000000
_cell_angle_gamma 90.000000
_cell_volume 5820.400984
_symmetry_space_group_name_H-M "C C C M"
_symmetry_group_IT_number 66
_symmetry_cell_setting 'orthorhombic'
loop_
_space_group_symop_operation_xyz
x,y,z
-x,-y,z
x,-y,1/2-z
-x,y,1/2-z
-x,-y,-z
x,y,-z
-x,y,1/2+z
x,-y,1/2+z
1/2+x,1/2+y,z
1/2-x,1/2-y,z
1/2+x,1/2-y,1/2-z
1/2-x,1/2+y,1/2-z
1/2-x,1/2-y,-z
1/2+x,1/2+y,-z
1/2-x,1/2+y,1/2+z
1/2+x,1/2-y,1/2+z
loop_
_atom_site_type_symbol
_atom_site_label
_atom_site_fract_x
_atom_site_fract_y
_atom_site_fract_z
Si Si1 0.399144 0.141366 0.901789
Si Si2 0.646426 0.084486 0.104698
Si Si3 0.992755 0.374260 0.350059
Si Si4 0.639085 0.558395 0.341048
Si Si5 0.072836 0.234394 0.600158
Si Si6 0.830011 0.175945 0.595765
Si Si7 0.700610 0.753377 0.716762
O O1 0.443976 0.154064 0.859428
O O2 0.374029 0.257549 0.899578
O O3 0.368077 0.042179 0.870300
O O4 0.408172 0.108231 0.000000
O O5 0.604886 0.161645 0.118370
O O6 0.681008 0.134546 0.170503
O O7 0.657029 0.089287 0.000000
O O8 0.000000 0.500000 0.390585
O O9 0.000000 0.385254 0.250000
O O10 0.026214 0.279597 0.379320
O O11 0.633001 0.500000 0.250000
O O12 0.595605 0.623361 0.361444
O O13 0.658182 0.456901 0.398044
O O14 0.674899 0.653959 0.331480
O O15 0.073885 0.213002 0.500000
O O16 0.811520 0.200267 0.500000
O O17 0.806397 0.224743 0.680921
O O18 0.750000 0.750000 0.700747
#
# Coordination Sequence:
#
# PCOD9496398 Si02
#       7
#    16  16  16  16  16  16  16
#     4  10  21  38  59  87 122 166 207 247 305 371
#     4   9  19  36  60  90 123 157 197 248 310 365
#     4  11  23  32  54  90 125 158 202 253 307 352
#     4   9  20  39  64  86 115 159 204 241 302 360
#     4  10  19  35  60  86 115 155 199 247 297 349
#     4  10  22  41  63  85 121 167 205 241 296 372
#     4  10  22  40  65  94 119 150 201 258 311 365
#
# _framework density 19.242660000000001
#
# number of rings (size 3 to 8) (size 9 to 14) (size 15 to 20)
#    0.000    2.143    1.429    0.857    6.000    2.286 
#    7.714    0.714    0.000    2.571    0.000    0.000 
#    0.000    0.000    0.000    0.000    0.000    0.000 
#
# Total GULP energy -311794.711888 kJ/mol
# GULP energy per Si atom -5567.762712 kJ/mol
# Density = 1.919886 g / cm^3
# Si number density = 19.242660 Si / 1000 Ang^3
#
#
#
# Elastic Constant Matrix: (Units=GPa)
#
#
# Indices 1 2 3 4 5 6 
#
# 1 123.3743 54.2393 41.9281 0.0000 0.0000 0.0000
# 2 54.2393 59.1605 18.3417 0.0000 0.0000 0.0000
# 3 41.9281 18.3417 53.0345 0.0000 0.0000 0.0000
# 4 0.0000 0.0000 0.0000 12.7509 0.0000 0.0000
# 5 0.0000 0.0000 0.0000 0.0000 9.0194 0.0000
# 6 0.0000 0.0000 0.0000 0.0000 0.0000 13.6113
#
#
#
# Elastic Compliance Matrix: (Units=1/GPa)
#
#
# Indices 1 2 3 4 5 6 
#
# 1 0.016576 -0.012472 -0.008792 0.000000 0.000000 0.000000
# 2 -0.012472 0.028317 0.000067 0.000000 0.000000 0.000000
# 3 -0.008792 0.000067 0.025783 0.000000 0.000000 0.000000
# 4 0.000000 0.000000 0.000000 0.078426 0.000000 0.000000
# 5 0.000000 0.000000 0.000000 0.000000 0.110872 0.000000
# 6 0.000000 0.000000 0.000000 0.000000 0.000000 0.073468
#
#
# Mechanical properties :
#
#
# Convention : Reuss Voigt Hill
#
# Bulk Modulus (GPa) = 35.35711 51.62083 43.48897
# Shear Modulus (GPa) = 12.97818 15.14701 14.06260
#
# Velocity S-wave (km/s) = 2.59983 2.80868 2.70627
# Velocity P-wave (km/s) = 5.23702 6.11577 5.69338
#
# Compressibility (1/GPa) = 0.02828286
#
# Stress axis : x y z
#
# Youngs Moduli (GPa) = 60.32796 35.31492 38.78516
#
# Poissons Ratio (x) = 0.44043 0.34098
# Poissons Ratio (y) = 0.75238 -0.00258
# Poissons Ratio (z) = 0.53037 -0.00235
#
# Static dielectric constant tensor:
#      x y z
#    x -2.940100 0.000000 0.000000 
#    y 0.000000 1.773890 0.000000 
#    z 0.000000 0.000000 1.733890 
# 
# From -- ./inp_files/26972.got.cif
#   From: 2010.05.17/outbox.cif.g08.bks.cpg/sg66_14_cif.got.tgz:26972.got - 2010.06.03 17:51:23.
