data_PCOD9496609
_publ_section_title
;
Structure prediction by ZEFSAII (Michael W. Deem and Ramdas Pophale) SiO2 
 PCOD9496609
Probable space group: C C C M
;
_chemical_formula_sum "Si O2"
_cell_formula_units_Z 24
_cell_length_a 6.610663
_cell_length_b 12.116566
_cell_length_c 12.354620
_cell_angle_alpha 90.000000
_cell_angle_beta 90.000000
_cell_angle_gamma 90.000000
_cell_volume 989.586957
_symmetry_space_group_name_H-M "C C C M"
_symmetry_group_IT_number 66
_symmetry_cell_setting 'orthorhombic'
loop_
_space_group_symop_operation_xyz
x,y,z
-x,-y,z
x,-y,1/2-z
-x,y,1/2-z
-x,-y,-z
x,y,-z
-x,y,1/2+z
x,-y,1/2+z
1/2+x,1/2+y,z
1/2-x,1/2-y,z
1/2+x,1/2-y,1/2-z
1/2-x,1/2+y,1/2-z
1/2-x,1/2-y,-z
1/2+x,1/2+y,-z
1/2-x,1/2+y,1/2+z
1/2+x,1/2-y,1/2+z
loop_
_atom_site_type_symbol
_atom_site_label
_atom_site_fract_x
_atom_site_fract_y
_atom_site_fract_z
Si Si1 0.500000 0.693023 0.250000
Si Si2 0.872572 0.388769 0.123297
O O1 0.312778 0.621728 0.207576
O O2 0.511120 0.782013 0.151111
O O3 0.000000 0.500000 0.133132
O O4 0.798132 0.382909 0.000000
#
# Coordination Sequence:
#
# PCOD9496609 Si02
#       2
#     8  16
#     4  10  19  40  75 104 134 180 232 286 342 412
#     4  10  22  43  72 105 142 185 231 284 350 418
#
# _framework density 24.252544
#
# number of rings (size 3 to 8) (size 9 to 14) (size 15 to 20)
#    0.000    2.000    0.000    5.000    0.000    0.000 
#    0.000   53.333    0.000  104.000    0.000    0.000 
#    0.000    0.000    0.000    0.000    0.000    0.000 
#
# Total GULP energy -66890.896302 kJ/mol
# GULP energy per Si atom -5574.241359 kJ/mol
# Density = 2.419734 g / cm^3
# Si number density = 24.252544 Si / 1000 Ang^3
#
#
#
# Elastic Constant Matrix: (Units=GPa)
#
#
# Indices 1 2 3 4 5 6 
#
# 1 186.6119 91.4219 103.2110 0.0000 0.0000 0.0000
# 2 91.4219 203.5375 43.3724 0.0000 0.0000 0.0000
# 3 103.2110 43.3724 145.9398 0.0000 0.0000 0.0000
# 4 0.0000 0.0000 0.0000 22.1871 0.0000 0.0000
# 5 0.0000 0.0000 0.0000 0.0000 44.1272 0.0000
# 6 0.0000 0.0000 0.0000 0.0000 0.0000 49.1630
#
#
#
# Elastic Compliance Matrix: (Units=1/GPa)
#
#
# Indices 1 2 3 4 5 6 
#
# 1 0.010609 -0.003380 -0.006498 0.000000 0.000000 0.000000
# 2 -0.003380 0.006322 0.000512 0.000000 0.000000 0.000000
# 3 -0.006498 0.000512 0.011296 0.000000 0.000000 0.000000
# 4 0.000000 0.000000 0.000000 0.045071 0.000000 0.000000
# 5 0.000000 0.000000 0.000000 0.000000 0.022662 0.000000
# 6 0.000000 0.000000 0.000000 0.000000 0.000000 0.020340
#
#
# Mechanical properties :
#
#
# Convention : Reuss Voigt Hill
#
# Bulk Modulus (GPa) = 105.33798 112.45553 108.89675
# Shear Modulus (GPa) = 36.17997 42.96772 39.57385
#
# Velocity S-wave (km/s) = 3.86657 4.21370 4.04386
# Velocity P-wave (km/s) = 7.96630 8.37513 8.17327
#
# Compressibility (1/GPa) = 0.00949325
#
# Stress axis : x y z
#
# Youngs Moduli (GPa) = 94.26247 158.16754 88.53031
#
# Poissons Ratio (x) = 0.53466 0.57527
# Poissons Ratio (y) = 0.31864 -0.04530
# Poissons Ratio (z) = 0.61252 -0.08093
#
# Static dielectric constant tensor:
#      x y z
#    x 2.088620 0.000000 0.000000 
#    y 0.000000 1.994270 0.000000 
#    z 0.000000 0.000000 1.958030 
# 
# From -- ./inp_files/22699.got.cif
#   From: 2010.05.17/outbox.cif.g08.bks.cpg/sg66_12_cif.got.tgz:22699.got - 2010.06.03 17:51:23.
