data_PCOD9496690
_publ_section_title
;
Structure prediction by ZEFSAII (Michael W. Deem and Ramdas Pophale) SiO2 
 PCOD9496690
Probable space group: C C C M
;
_chemical_formula_sum "Si O2"
_cell_formula_units_Z 104
_cell_length_a 9.016650
_cell_length_b 23.486807
_cell_length_c 26.613964
_cell_angle_alpha 90.000000
_cell_angle_beta 90.000000
_cell_angle_gamma 90.000000
_cell_volume 5636.100856
_symmetry_space_group_name_H-M "C C C M"
_symmetry_group_IT_number 66
_symmetry_cell_setting 'orthorhombic'
loop_
_space_group_symop_operation_xyz
x,y,z
-x,-y,z
x,-y,1/2-z
-x,y,1/2-z
-x,-y,-z
x,y,-z
-x,y,1/2+z
x,-y,1/2+z
1/2+x,1/2+y,z
1/2-x,1/2-y,z
1/2+x,1/2-y,1/2-z
1/2-x,1/2+y,1/2-z
1/2-x,1/2-y,-z
1/2+x,1/2+y,-z
1/2-x,1/2+y,1/2+z
1/2+x,1/2-y,1/2+z
loop_
_atom_site_type_symbol
_atom_site_label
_atom_site_fract_x
_atom_site_fract_y
_atom_site_fract_z
Si Si1 0.415869 0.334401 0.109100
Si Si2 0.908444 0.718596 0.394468
Si Si3 0.250000 0.250000 0.747358
Si Si4 0.972733 0.298351 0.500000
Si Si5 0.636806 0.666464 0.000000
Si Si6 0.106212 0.141291 0.703027
Si Si7 0.675626 0.063943 0.254055
Si Si8 0.872087 0.662707 0.171439
O O1 0.475374 0.270156 0.108680
O O2 0.419827 0.358547 0.052757
O O3 0.517846 0.364006 0.151280
O O4 0.247352 0.329872 0.127435
O O5 0.750000 0.750000 0.390344
O O6 0.931435 0.691879 0.449746
O O7 0.965842 0.674319 0.352128
O O8 0.154560 0.206588 0.713981
O O9 0.156111 0.290760 0.784616
O O10 0.816126 0.331429 0.500000
O O11 0.922976 0.231757 0.500000
O O12 0.246110 0.100718 0.710790
O O13 0.000000 0.126409 0.750000
O O14 0.500000 0.059597 0.250000
O O15 0.679917 0.102901 0.304115
O O16 0.737599 0.000000 0.250000
#
# Coordination Sequence:
#
# PCOD9496690 Si02
#       8
#    16  16   8   8   8  16  16  16
#     4  11  20  35  52  84 115 160 195 237 289 353
#     4  11  21  29  50  82 122 154 196 235 282 348
#     4  10  20  32  52  80 118 150 178 230 290 364
#     4   9  17  32  48  72 111 169 193 233 269 342
#     4   9  18  32  56  68 116 167 207 220 286 352
#     4  11  21  36  57  84 116 147 192 245 298 349
#     4  10  24  42  58  79 112 154 196 241 305 369
#     4  11  19  37  55  79 117 153 193 233 291 354
#
# _framework density 18.452473000000001
#
# number of rings (size 3 to 8) (size 9 to 14) (size 15 to 20)
#    0.000    1.538    6.154    0.231    3.231    4.000 
#    0.000    0.000    0.000    0.000    0.000    3.231 
#    0.000    6.154    0.000    0.000    0.000    0.000 
#
# Total GULP energy -289868.232599 kJ/mol
# GULP energy per Si atom -5574.389088 kJ/mol
# Density = 1.841047 g / cm^3
# Si number density = 18.452473 Si / 1000 Ang^3
#
#
#
# Elastic Constant Matrix: (Units=GPa)
#
#
# Indices 1 2 3 4 5 6 
#
# 1 80.6344 30.1375 58.0884 0.0000 0.0000 0.0000
# 2 30.1375 74.6726 33.3477 0.0000 0.0000 0.0000
# 3 58.0884 33.3477 158.4297 0.0000 0.0000 0.0000
# 4 0.0000 0.0000 0.0000 3.7411 0.0000 0.0000
# 5 0.0000 0.0000 0.0000 0.0000 26.9437 0.0000
# 6 0.0000 0.0000 0.0000 0.0000 0.0000 15.6807
#
#
#
# Elastic Compliance Matrix: (Units=1/GPa)
#
#
# Indices 1 2 3 4 5 6 
#
# 1 0.018317 -0.004849 -0.005695 0.000000 0.000000 0.000000
# 2 -0.004849 0.016065 -0.001604 0.000000 0.000000 0.000000
# 3 -0.005695 -0.001604 0.008738 0.000000 0.000000 0.000000
# 4 0.000000 0.000000 0.000000 0.267300 0.000000 0.000000
# 5 0.000000 0.000000 0.000000 0.000000 0.037114 0.000000
# 6 0.000000 0.000000 0.000000 0.000000 0.000000 0.063773
#
#
# Mechanical properties :
#
#
# Convention : Reuss Voigt Hill
#
# Bulk Modulus (GPa) = 53.12473 61.87598 57.50036
# Shear Modulus (GPa) = 11.31536 22.08397 16.69966
#
# Velocity S-wave (km/s) = 2.47901 3.46324 3.01160
# Velocity P-wave (km/s) = 6.08658 7.04254 6.58194
#
# Compressibility (1/GPa) = 0.01882362
#
# Stress axis : x y z
#
# Youngs Moduli (GPa) = 54.59452 62.24703 114.44757
#
# Poissons Ratio (x) = 0.30185 0.65180
# Poissons Ratio (y) = 0.26474 0.18352
# Poissons Ratio (z) = 0.31093 0.09982
#
# Static dielectric constant tensor:
#      x y z
#    x 1.708610 0.000000 0.000000 
#    y 0.000000 1.656870 0.000000 
#    z 0.000000 0.000000 1.714280 
# 
# From -- ./inp_files/62845.got.cif
#   From: 2010.05.17/outbox.cif.g08.bks.cpg/sg66_32_cif.got.tgz:62845.got - 2010.06.03 17:51:23.
