data_PCOD9496236
_publ_section_title
;
Structure prediction by ZEFSAII (Michael W. Deem and Ramdas Pophale) SiO2 
 PCOD9496236
Probable space group: C C C M
;
_chemical_formula_sum "Si O2"
_cell_formula_units_Z 112
_cell_length_a 21.566776
_cell_length_b 14.201362
_cell_length_c 20.079479
_cell_angle_alpha 90.000000
_cell_angle_beta 90.000000
_cell_angle_gamma 90.000000
_cell_volume 6149.894500
_symmetry_space_group_name_H-M "C C C M"
_symmetry_group_IT_number 66
_symmetry_cell_setting 'orthorhombic'
loop_
_space_group_symop_operation_xyz
x,y,z
-x,-y,z
x,-y,1/2-z
-x,y,1/2-z
-x,-y,-z
x,y,-z
-x,y,1/2+z
x,-y,1/2+z
1/2+x,1/2+y,z
1/2-x,1/2-y,z
1/2+x,1/2-y,1/2-z
1/2-x,1/2+y,1/2-z
1/2-x,1/2-y,-z
1/2+x,1/2+y,-z
1/2-x,1/2+y,1/2+z
1/2+x,1/2-y,1/2+z
loop_
_atom_site_type_symbol
_atom_site_label
_atom_site_fract_x
_atom_site_fract_y
_atom_site_fract_z
Si Si1 0.949971 0.424534 0.361271
Si Si2 0.649348 0.936355 0.425893
Si Si3 0.100927 0.293934 0.744296
Si Si4 0.365952 0.404854 0.290303
Si Si5 0.554030 0.421979 0.923487
Si Si6 0.954565 0.705903 0.599855
Si Si7 0.721148 0.907797 0.296398
O O1 0.896661 0.484914 0.396119
O O2 0.923104 0.356050 0.305027
O O3 0.000000 0.500000 0.333983
O O4 0.987782 0.361625 0.413983
O O5 0.669822 0.959362 0.500000
O O6 0.608414 0.840233 0.427875
O O7 0.703687 0.927775 0.372756
O O8 0.103618 0.181450 0.750293
O O9 0.057744 0.304474 0.679242
O O10 0.169577 0.333119 0.727259
O O11 0.374048 0.500000 0.250000
O O12 0.395718 0.420660 0.363519
O O13 0.292972 0.381350 0.293946
O O14 0.500000 0.500000 0.910870
O O15 0.532303 0.312559 0.920210
O O16 0.576236 0.438624 0.000000
O O17 0.712594 0.000000 0.250000
#
# Coordination Sequence:
#
# PCOD9496236 Si02
#       7
#    16  16  16  16  16  16  16
#     4  10  20  32  54  85 119 152 183 222 288 347
#     4  10  20  33  54  86 119 148 184 231 284 342
#     4  10  19  34  55  82 112 147 185 236 282 338
#     4  10  23  38  58  85 109 143 197 243 283 325
#     4  10  22  40  58  78 109 150 188 233 285 337
#     4   9  20  32  53  80 112 146 188 225 280 338
#     4  10  19  36  57  81 111 147 185 232 284 339
#
# _framework density 18.211694000000001
#
# number of rings (size 3 to 8) (size 9 to 14) (size 15 to 20)
#    0.000    2.143    1.429    1.286    2.000    6.857 
#    0.000    0.000    0.000    5.143    0.000    2.000 
#    0.000    0.000    0.000    0.000    0.000    0.000 
#
# Total GULP energy -312109.996309 kJ/mol
# GULP energy per Si atom -5573.392791 kJ/mol
# Density = 1.817024 g / cm^3
# Si number density = 18.211694 Si / 1000 Ang^3
#
#
#
# Elastic Constant Matrix: (Units=GPa)
#
#
# Indices 1 2 3 4 5 6 
#
# 1 45.0992 43.2408 21.6694 0.0000 0.0000 0.0000
# 2 43.2408 117.3252 39.1519 0.0000 0.0000 0.0000
# 3 21.6694 39.1519 103.5876 0.0000 0.0000 0.0000
# 4 0.0000 0.0000 0.0000 8.7933 0.0000 0.0000
# 5 0.0000 0.0000 0.0000 0.0000 -657.0602 0.0000
# 6 0.0000 0.0000 0.0000 0.0000 0.0000 21.9650
#
#
#
# Elastic Compliance Matrix: (Units=1/GPa)
#
#
# Indices 1 2 3 4 5 6 
#
# 1 0.034985 -0.011960 -0.002798 0.000000 0.000000 0.000000
# 2 -0.011960 0.013842 -0.002730 0.000000 0.000000 0.000000
# 3 -0.002798 -0.002730 0.011271 0.000000 0.000000 0.000000
# 4 0.000000 0.000000 0.000000 0.113723 0.000000 0.000000
# 5 0.000000 0.000000 0.000000 0.000000 -0.001522 0.000000
# 6 0.000000 0.000000 0.000000 0.000000 0.000000 0.045527
#
#
# Mechanical properties :
#
#
# Convention : Reuss Voigt Hill
#
# Bulk Modulus (GPa) = 39.80588 52.68181 46.24384
# Shear Modulus (GPa) = 19.14413 -114.46373 -47.65980
#
# Velocity S-wave (km/s) = 3.24574 -7.93651 -5.12120
# Velocity P-wave (km/s) = 5.99593 7.41580 3.08568
#
# Compressibility (1/GPa) = 0.02512192
#
# Stress axis : x y z
#
# Youngs Moduli (GPa) = 28.58356 72.24229 88.72507
#
# Poissons Ratio (x) = 0.86404 0.24825
# Poissons Ratio (y) = 0.34187 0.24221
# Poissons Ratio (z) = 0.07998 0.19721
#
# Static dielectric constant tensor:
#      x y z
#    x 1.621770 0.000000 0.000000 
#    y 0.000000 1.647600 0.000000 
#    z 0.000000 0.000000 1.641290 
# 
# From -- ./inp_files/52587.got.cif
#   From: 2010.05.17/outbox.cif.g08.bks.cpg/sg66_27_cif.got.tgz:52587.got - 2010.06.03 17:51:23.
