data_PCOD9496184
_publ_section_title
;
Structure prediction by ZEFSAII (Michael W. Deem and Ramdas Pophale) SiO2 
 PCOD9496184
Probable space group: C C C M
;
_chemical_formula_sum "Si O2"
_cell_formula_units_Z 56
_cell_length_a 4.988487
_cell_length_b 25.002737
_cell_length_c 21.202837
_cell_angle_alpha 90.000000
_cell_angle_beta 90.000000
_cell_angle_gamma 90.000000
_cell_volume 2644.541411
_symmetry_space_group_name_H-M "C C C M"
_symmetry_group_IT_number 66
_symmetry_cell_setting 'orthorhombic'
loop_
_space_group_symop_operation_xyz
x,y,z
-x,-y,z
x,-y,1/2-z
-x,y,1/2-z
-x,-y,-z
x,y,-z
-x,y,1/2+z
x,-y,1/2+z
1/2+x,1/2+y,z
1/2-x,1/2-y,z
1/2+x,1/2-y,1/2-z
1/2-x,1/2+y,1/2-z
1/2-x,1/2-y,-z
1/2+x,1/2+y,-z
1/2-x,1/2+y,1/2+z
1/2+x,1/2-y,1/2+z
loop_
_atom_site_type_symbol
_atom_site_label
_atom_site_fract_x
_atom_site_fract_y
_atom_site_fract_z
Si Si1 0.377724 0.697782 0.182801
Si Si2 0.000000 0.386010 0.250000
Si Si3 0.340304 0.053585 0.426357
Si Si4 0.683971 0.602570 0.133984
O O1 0.500000 0.716263 0.250000
O O2 0.250000 0.750000 0.152273
O O3 0.590151 0.663845 0.143234
O O4 0.166700 0.652769 0.204210
O O5 0.201740 0.415585 0.202713
O O6 0.271973 0.048655 0.500000
O O7 0.570231 0.097400 0.414082
O O8 0.070991 0.068258 0.389006
O O9 0.500000 0.000000 0.406489
#
# Coordination Sequence:
#
# PCOD9496184 Si02
#       4
#    16   8  16  16
#     4  10  19  33  62  92 129 168 207 249 306 390
#     4  10  20  38  61  98 132 166 199 250 324 390
#     4  11  24  44  69  91 117 168 231 274 309 367
#     4  11  22  39  65  96 131 158 211 267 322 375
#
# _framework density 21.175692999999999
#
# number of rings (size 3 to 8) (size 9 to 14) (size 15 to 20)
#    0.000    1.429    4.286    1.714    0.000    2.286 
#    0.000    0.714   12.571    5.143    0.000    0.000 
#    0.000    0.000    0.000    0.000    0.000    0.000 
#
# Total GULP energy -156272.777916 kJ/mol
# GULP energy per Si atom -5581.170640 kJ/mol
# Density = 2.112750 g / cm^3
# Si number density = 21.175693 Si / 1000 Ang^3
#
#
#
# Elastic Constant Matrix: (Units=GPa)
#
#
# Indices 1 2 3 4 5 6 
#
# 1 156.5639 36.3713 58.7775 0.0000 0.0000 0.0000
# 2 36.3713 56.9557 50.0938 0.0000 0.0000 0.0000
# 3 58.7775 50.0938 73.1147 0.0000 0.0000 0.0000
# 4 0.0000 0.0000 0.0000 9.6893 0.0000 0.0000
# 5 0.0000 0.0000 0.0000 0.0000 40.9377 0.0000
# 6 0.0000 0.0000 0.0000 0.0000 0.0000 33.9624
#
#
#
# Elastic Compliance Matrix: (Units=1/GPa)
#
#
# Indices 1 2 3 4 5 6 
#
# 1 0.009205 0.001586 -0.008486 0.000000 0.000000 0.000000
# 2 0.001586 0.044454 -0.031732 0.000000 0.000000 0.000000
# 3 -0.008486 -0.031732 0.042240 0.000000 0.000000 0.000000
# 4 0.000000 0.000000 0.000000 0.103207 0.000000 0.000000
# 5 0.000000 0.000000 0.000000 0.000000 0.024427 0.000000
# 6 0.000000 0.000000 0.000000 0.000000 0.000000 0.029444
#
#
# Mechanical properties :
#
#
# Convention : Reuss Voigt Hill
#
# Bulk Modulus (GPa) = 53.66564 64.12441 58.89503
# Shear Modulus (GPa) = 14.86095 26.34399 20.60247
#
# Velocity S-wave (km/s) = 2.65201 3.53096 3.12257
# Velocity P-wave (km/s) = 5.89708 6.85357 6.39324
#
# Compressibility (1/GPa) = 0.01863390
#
# Stress axis : x y z
#
# Youngs Moduli (GPa) = 108.64037 22.49537 23.67429
#
# Poissons Ratio (x) = -0.03567 0.20090
# Poissons Ratio (y) = -0.17228 0.75123
# Poissons Ratio (z) = 0.92194 0.71382
#
# Static dielectric constant tensor:
#      x y z
#    x 1.869540 0.000000 0.000000 
#    y 0.000000 1.809770 0.000000 
#    z 0.000000 0.000000 1.774840 
# 
# From -- ./inp_files/45647.got.cif
#   From: 2010.05.17/outbox.cif.g08.bks.cpg/sg66_23_cif.got.tgz:45647.got - 2010.06.03 17:51:23.
