data_PCOD9496038
_publ_section_title
;
Structure prediction by ZEFSAII (Michael W. Deem and Ramdas Pophale) SiO2 
 PCOD9496038
Probable space group: C C C M
;
_chemical_formula_sum "Si O2"
_cell_formula_units_Z 68
_cell_length_a 18.969491
_cell_length_b 7.997778
_cell_length_c 19.637574
_cell_angle_alpha 90.000000
_cell_angle_beta 90.000000
_cell_angle_gamma 90.000000
_cell_volume 2979.290538
_symmetry_space_group_name_H-M "C C C M"
_symmetry_group_IT_number 66
_symmetry_cell_setting 'orthorhombic'
loop_
_space_group_symop_operation_xyz
x,y,z
-x,-y,z
x,-y,1/2-z
-x,y,1/2-z
-x,-y,-z
x,y,-z
-x,y,1/2+z
x,-y,1/2+z
1/2+x,1/2+y,z
1/2-x,1/2-y,z
1/2+x,1/2-y,1/2-z
1/2-x,1/2+y,1/2-z
1/2-x,1/2-y,-z
1/2+x,1/2+y,-z
1/2-x,1/2+y,1/2+z
1/2+x,1/2-y,1/2+z
loop_
_atom_site_type_symbol
_atom_site_label
_atom_site_fract_x
_atom_site_fract_y
_atom_site_fract_z
Si Si1 0.500000 0.000000 0.750000
Si Si2 0.775673 0.445511 0.423384
Si Si3 0.046665 0.170247 0.426020
Si Si4 0.918693 0.335668 0.629708
Si Si5 0.151689 0.982774 0.168919
O O1 0.449044 0.895432 0.701291
O O2 0.764787 0.509289 0.500000
O O3 0.750000 0.250000 0.424115
O O4 0.857607 0.446982 0.403053
O O5 0.727264 0.533193 0.367117
O O6 0.082318 0.180380 0.500000
O O7 0.987583 0.309990 0.416229
O O8 0.099725 0.156730 0.362623
O O9 0.000000 0.000000 0.426032
O O10 0.882233 0.156194 0.642313
O O11 0.155881 0.000000 0.250000
#
# Coordination Sequence:
#
# PCOD9496038 Si02
#       5
#     4  16  16  16  16
#     4  12  24  36  52  76 116 160 184 230 272 348
#     4   9  18  34  55  79 107 141 184 230 276 337
#     4   9  17  32  56  83 110 141 183 240 290 333
#     4  10  21  35  53  79 110 152 191 227 279 342
#     4  10  19  32  57  87 112 136 182 243 297 333
#
# _framework density 22.824225999999999
#
# number of rings (size 3 to 8) (size 9 to 14) (size 15 to 20)
#    0.000    2.353    0.000    2.824    1.647    8.941 
#    0.000    2.353    0.000    0.000    0.000    4.941 
#    0.000    0.000    0.000    0.000    0.000    0.000 
#
# Total GULP energy -189955.147055 kJ/mol
# GULP energy per Si atom -5586.916090 kJ/mol
# Density = 2.277228 g / cm^3
# Si number density = 22.824226 Si / 1000 Ang^3
#
#
#
# Elastic Constant Matrix: (Units=GPa)
#
#
# Indices 1 2 3 4 5 6 
#
# 1 161.3334 19.7961 91.3232 0.0000 0.0000 0.0000
# 2 19.7961 40.9696 1.2322 0.0000 0.0000 0.0000
# 3 91.3232 1.2322 193.6737 0.0000 0.0000 0.0000
# 4 0.0000 0.0000 0.0000 13.4481 0.0000 0.0000
# 5 0.0000 0.0000 0.0000 0.0000 -293.0896 0.0000
# 6 0.0000 0.0000 0.0000 0.0000 0.0000 7.9407
#
#
#
# Elastic Compliance Matrix: (Units=1/GPa)
#
#
# Indices 1 2 3 4 5 6 
#
# 1 0.009153 -0.004293 -0.004288 0.000000 0.000000 0.000000
# 2 -0.004293 0.026427 0.001856 0.000000 0.000000 0.000000
# 3 -0.004288 0.001856 0.007174 0.000000 0.000000 0.000000
# 4 0.000000 0.000000 0.000000 0.074360 0.000000 0.000000
# 5 0.000000 0.000000 0.000000 0.000000 -0.003412 0.000000
# 6 0.000000 0.000000 0.000000 0.000000 0.000000 0.125934
#
#
# Mechanical properties :
#
#
# Convention : Reuss Voigt Hill
#
# Bulk Modulus (GPa) = 34.12705 68.96442 51.54574
# Shear Modulus (GPa) = 19.02197 -35.43182 -8.20493
#
# Velocity S-wave (km/s) = 2.89002 -3.94430 -1.89806
# Velocity P-wave (km/s) = 5.11086 3.08832 4.22248
#
# Compressibility (1/GPa) = 0.02930227
#
# Stress axis : x y z
#
# Youngs Moduli (GPa) = 109.25795 37.83997 139.39905
#
# Poissons Ratio (x) = 0.16247 0.59781
# Poissons Ratio (y) = 0.46910 -0.25878
# Poissons Ratio (z) = 0.46855 -0.07025
#
# Static dielectric constant tensor:
#      x y z
#    x 1.841650 0.000000 0.000000 
#    y 0.000000 1.969820 0.000000 
#    z 0.000000 0.000000 1.809690 
# 
# From -- ./inp_files/50618.got.cif
#   From: 2010.05.17/outbox.cif.g08.bks.cpg/sg66_26_cif.got.tgz:50618.got - 2010.06.03 17:51:23.
