data_PCOD9496648
_publ_section_title
;
Structure prediction by ZEFSAII (Michael W. Deem and Ramdas Pophale) SiO2 
 PCOD9496648
Probable space group: C C C M
;
_chemical_formula_sum "Si O2"
_cell_formula_units_Z 80
_cell_length_a 7.305088
_cell_length_b 28.771996
_cell_length_c 14.381607
_cell_angle_alpha 90.000000
_cell_angle_beta 90.000000
_cell_angle_gamma 90.000000
_cell_volume 3022.754386
_symmetry_space_group_name_H-M "C C C M"
_symmetry_group_IT_number 66
_symmetry_cell_setting 'orthorhombic'
loop_
_space_group_symop_operation_xyz
x,y,z
-x,-y,z
x,-y,1/2-z
-x,y,1/2-z
-x,-y,-z
x,y,-z
-x,y,1/2+z
x,-y,1/2+z
1/2+x,1/2+y,z
1/2-x,1/2-y,z
1/2+x,1/2-y,1/2-z
1/2-x,1/2+y,1/2-z
1/2-x,1/2-y,-z
1/2+x,1/2+y,-z
1/2-x,1/2+y,1/2+z
1/2+x,1/2-y,1/2+z
loop_
_atom_site_type_symbol
_atom_site_label
_atom_site_fract_x
_atom_site_fract_y
_atom_site_fract_z
Si Si1 0.972080 0.949130 0.606942
Si Si2 0.457241 0.847411 0.109807
Si Si3 0.955359 0.551333 0.358681
Si Si4 0.536109 0.649112 0.385128
Si Si5 0.526652 0.250921 0.109456
O O1 0.037667 0.952248 0.500000
O O2 0.754440 0.943159 0.611394
O O3 0.046489 0.900353 0.646104
O O4 0.000000 0.000000 0.649768
O O5 0.543273 0.898609 0.117096
O O6 0.248844 0.850275 0.145898
O O7 0.540416 0.798987 0.146413
O O8 0.440464 0.839517 0.000000
O O9 0.000000 0.500000 0.397070
O O10 0.000000 0.548054 0.250000
O O11 0.532471 0.647644 0.500000
O O12 0.460300 0.699046 0.354577
O O13 0.750000 0.250000 0.115639
O O14 0.480657 0.252809 0.000000
#
# Coordination Sequence:
#
# PCOD9496648 Si02
#       5
#    16  16  16  16  16
#     4   9  17  30  50  76 101 124 157 203 248 288
#     4   8  13  22  39  63  90 120 154 193 233 276
#     4  10  20  32  44  65  95 131 167 196 238 291
#     4   7  10  18  35  63  96 119 140 180 233 284
#     4   7   9  15  31  59  91 117 142 177 227 280
#
# _framework density 26.465928000000002
#
# number of rings (size 3 to 8) (size 9 to 14) (size 15 to 20)
#    0.000    3.800    0.000    4.200    0.000    1.600 
#    0.000    2.000    0.000    0.000    0.000   29.400 
#    0.000    8.000    0.000    0.000    0.000    5.000 
#
# Total GULP energy -222683.428835 kJ/mol
# GULP energy per Si atom -5567.085721 kJ/mol
# Density = 2.640569 g / cm^3
# Si number density = 26.465928 Si / 1000 Ang^3
#
#
#
# Elastic Constant Matrix: (Units=GPa)
#
#
# Indices 1 2 3 4 5 6 
#
# 1 91.5447 21.7584 -15.9825 0.0000 0.0000 0.0000
# 2 21.7584 420.1926 4.6816 0.0000 0.0000 0.0000
# 3 -15.9825 4.6816 102.7858 0.0000 0.0000 0.0000
# 4 0.0000 0.0000 0.0000 12.7625 0.0000 0.0000
# 5 0.0000 0.0000 0.0000 0.0000 6.3154 0.0000
# 6 0.0000 0.0000 0.0000 0.0000 0.0000 3.4933
#
#
#
# Elastic Compliance Matrix: (Units=1/GPa)
#
#
# Indices 1 2 3 4 5 6 
#
# 1 0.011382 -0.000609 0.001798 0.000000 0.000000 0.000000
# 2 -0.000609 0.002414 -0.000205 0.000000 0.000000 0.000000
# 3 0.001798 -0.000205 0.010018 0.000000 0.000000 0.000000
# 4 0.000000 0.000000 0.000000 0.078355 0.000000 0.000000
# 5 0.000000 0.000000 0.000000 0.000000 0.158343 0.000000
# 6 0.000000 0.000000 0.000000 0.000000 0.000000 0.286262
#
#
# Mechanical properties :
#
#
# Convention : Reuss Voigt Hill
#
# Bulk Modulus (GPa) = 38.78848 70.60421 54.69635
# Shear Modulus (GPa) = 9.03505 44.78528 26.91016
#
# Velocity S-wave (km/s) = 1.84966 4.11808 3.19217
# Velocity P-wave (km/s) = 4.38742 7.02473 5.85646
#
# Compressibility (1/GPa) = 0.02578085
#
# Stress axis : x y z
#
# Youngs Moduli (GPa) = 87.85554 414.30186 99.82220
#
# Poissons Ratio (x) = 0.25249 -0.17944
# Poissons Ratio (y) = 0.05354 0.02043
# Poissons Ratio (z) = -0.15793 0.08481
#
# Static dielectric constant tensor:
#      x y z
#    x 2.509580 0.000000 0.000000 
#    y 0.000000 2.225750 0.000000 
#    z 0.000000 0.000000 2.023970 
# 
# From -- ./inp_files/47474.got.cif
#   From: 2010.05.17/outbox.cif.g08.bks.cpg/sg66_24_cif.got.tgz:47474.got - 2010.06.03 17:51:23.
