data_PCOD9496219
_publ_section_title
;
Structure prediction by ZEFSAII (Michael W. Deem and Ramdas Pophale) SiO2 
 PCOD9496219
Probable space group: C C C M
;
_chemical_formula_sum "Si O2"
_cell_formula_units_Z 96
_cell_length_a 30.575035
_cell_length_b 20.339847
_cell_length_c 8.829479
_cell_angle_alpha 90.000000
_cell_angle_beta 90.000000
_cell_angle_gamma 90.000000
_cell_volume 5490.978239
_symmetry_space_group_name_H-M "C C C M"
_symmetry_group_IT_number 66
_symmetry_cell_setting 'orthorhombic'
loop_
_space_group_symop_operation_xyz
x,y,z
-x,-y,z
x,-y,1/2-z
-x,y,1/2-z
-x,-y,-z
x,y,-z
-x,y,1/2+z
x,-y,1/2+z
1/2+x,1/2+y,z
1/2-x,1/2-y,z
1/2+x,1/2-y,1/2-z
1/2-x,1/2+y,1/2-z
1/2-x,1/2-y,-z
1/2+x,1/2+y,-z
1/2-x,1/2+y,1/2+z
1/2+x,1/2-y,1/2+z
loop_
_atom_site_type_symbol
_atom_site_label
_atom_site_fract_x
_atom_site_fract_y
_atom_site_fract_z
Si Si1 0.733427 0.069261 0.818163
Si Si2 0.872375 0.200936 0.681436
Si Si3 0.951743 0.289450 0.317949
Si Si4 0.450899 0.934639 0.318776
Si Si5 0.836309 0.069430 0.181202
Si Si6 0.295726 0.212153 0.318043
O O1 0.784832 0.077782 0.777343
O O2 0.709026 0.135930 0.771247
O O3 0.718103 0.000000 0.750000
O O4 0.731156 0.065156 0.000000
O O5 0.872028 0.195597 0.500000
O O6 0.918149 0.233445 0.730343
O O7 0.862815 0.130533 0.753929
O O8 0.834130 0.249891 0.734557
O O9 0.955623 0.287899 0.500000
O O10 0.932951 0.362386 0.279716
O O11 0.000000 0.282428 0.250000
O O12 0.500000 0.932914 0.250000
O O13 0.453125 0.941310 0.500000
O O14 0.429192 0.000000 0.250000
O O15 0.850731 0.000000 0.250000
O O16 0.838999 0.068150 0.000000
O O17 0.302902 0.214812 0.500000
O O18 0.250000 0.250000 0.289522
#
# Coordination Sequence:
#
# PCOD9496219 Si02
#       6
#    16  16  16  16  16  16
#     4   9  18  32  51  73 103 140 178 218 259 307
#     4  11  22  35  53  81 110 139 176 221 268 318
#     4   9  20  36  53  75 105 137 176 222 268 318
#     4   9  15  26  45  69  95 125 162 208 254 301
#     4  10  19  34  54  79 107 139 176 218 261 313
#     4  10  19  35  53  74 106 142 177 217 261 312
#
# _framework density 17.483224
#
# number of rings (size 3 to 8) (size 9 to 14) (size 15 to 20)
#    0.000    2.333    1.667    2.000    0.000    3.667 
#    0.000    0.833    0.000    4.500    0.000    3.500 
#    0.000    0.000    0.000    0.000    0.000    0.000 
#
# Total GULP energy -267688.759389 kJ/mol
# GULP energy per Si atom -5576.849154 kJ/mol
# Density = 1.744343 g / cm^3
# Si number density = 17.483224 Si / 1000 Ang^3
#
#
#
# Elastic Constant Matrix: (Units=GPa)
#
#
# Indices 1 2 3 4 5 6 
#
# 1 54.1651 55.9369 22.2664 0.0000 0.0000 0.0000
# 2 55.9369 187.3701 46.5364 0.0000 0.0000 0.0000
# 3 22.2664 46.5364 36.9408 0.0000 0.0000 0.0000
# 4 0.0000 0.0000 0.0000 39.5258 0.0000 0.0000
# 5 0.0000 0.0000 0.0000 0.0000 12.4793 0.0000
# 6 0.0000 0.0000 0.0000 0.0000 0.0000 23.2509
#
#
#
# Elastic Compliance Matrix: (Units=1/GPa)
#
#
# Indices 1 2 3 4 5 6 
#
# 1 0.028815 -0.006242 -0.009506 0.000000 0.000000 0.000000
# 2 -0.006242 0.009119 -0.007726 0.000000 0.000000 0.000000
# 3 -0.009506 -0.007726 0.042533 0.000000 0.000000 0.000000
# 4 0.000000 0.000000 0.000000 0.025300 0.000000 0.000000
# 5 0.000000 0.000000 0.000000 0.000000 0.080133 0.000000
# 6 0.000000 0.000000 0.000000 0.000000 0.000000 0.043009
#
#
# Mechanical properties :
#
#
# Convention : Reuss Voigt Hill
#
# Bulk Modulus (GPa) = 29.83219 58.66169 44.24694
# Shear Modulus (GPa) = 17.41980 25.30029 21.36004
#
# Velocity S-wave (km/s) = 3.15996 3.80823 3.49914
# Velocity P-wave (km/s) = 5.51490 7.27755 6.45666
#
# Compressibility (1/GPa) = 0.03352084
#
# Stress axis : x y z
#
# Youngs Moduli (GPa) = 34.70355 109.65888 23.51125
#
# Poissons Ratio (x) = 0.68444 0.22350
# Poissons Ratio (y) = 0.21660 0.18164
# Poissons Ratio (z) = 0.32989 0.84720
#
# Static dielectric constant tensor:
#      x y z
#    x 1.576640 0.000000 0.000000 
#    y 0.000000 1.622060 0.000000 
#    z 0.000000 0.000000 1.585950 
# 
# From -- ./inp_files/8053.got.cif
#   From: 2010.05.17/outbox.cif.g08.bks.cpg/sg66_5_cif.got.tgz:8053.got - 2010.06.03 17:51:23.
