data_PCOD9496209
_publ_section_title
;
Structure prediction by ZEFSAII (Michael W. Deem and Ramdas Pophale) SiO2 
 PCOD9496209
Probable space group: C C C M
;
_chemical_formula_sum "Si O2"
_cell_formula_units_Z 96
_cell_length_a 19.328325
_cell_length_b 30.151752
_cell_length_c 8.500603
_cell_angle_alpha 90.000000
_cell_angle_beta 90.000000
_cell_angle_gamma 90.000000
_cell_volume 4954.005745
_symmetry_space_group_name_H-M "C C C M"
_symmetry_group_IT_number 66
_symmetry_cell_setting 'orthorhombic'
loop_
_space_group_symop_operation_xyz
x,y,z
-x,-y,z
x,-y,1/2-z
-x,y,1/2-z
-x,-y,-z
x,y,-z
-x,y,1/2+z
x,-y,1/2+z
1/2+x,1/2+y,z
1/2-x,1/2-y,z
1/2+x,1/2-y,1/2-z
1/2-x,1/2+y,1/2-z
1/2-x,1/2-y,-z
1/2+x,1/2+y,-z
1/2-x,1/2+y,1/2+z
1/2+x,1/2-y,1/2+z
loop_
_atom_site_type_symbol
_atom_site_label
_atom_site_fract_x
_atom_site_fract_y
_atom_site_fract_z
Si Si1 0.726593 0.799354 0.307631
Si Si2 0.574713 0.827226 0.682596
Si Si3 0.715625 0.953695 0.182099
Si Si4 0.926188 0.434375 0.816762
Si Si5 0.688546 0.616933 0.316188
Si Si6 0.577356 0.548713 0.186597
O O1 0.724976 0.802812 0.500000
O O2 0.750000 0.750000 0.265868
O O3 0.648219 0.809820 0.250745
O O4 0.783663 0.835692 0.255160
O O5 0.500000 0.812957 0.750000
O O6 0.573865 0.814488 0.500000
O O7 0.576993 0.880700 0.692311
O O8 0.633793 0.952382 0.206042
O O9 0.745771 0.914863 0.289070
O O10 0.741676 0.000000 0.250000
O O11 0.734883 0.947986 0.000000
O O12 0.000000 0.448012 0.750000
O O13 0.916344 0.446876 0.000000
O O14 0.671871 0.621174 0.500000
O O15 0.627035 0.589137 0.236365
O O16 0.599314 0.500000 0.250000
O O17 0.500000 0.556427 0.250000
O O18 0.575800 0.545724 0.000000
#
# Coordination Sequence:
#
# PCOD9496209 Si02
#       6
#    16  16  16  16  16  16
#     4   9  18  35  60  87 115 151 195 241 295 355
#     4   9  17  32  55  82 109 145 188 232 279 337
#     4  12  24  37  54  79 111 150 192 236 282 336
#     4  10  19  34  53  78 108 145 187 232 279 330
#     4  11  21  38  60  85 117 153 192 240 291 348
#     4  11  22  39  62  91 122 158 199 241 294 358
#
# _framework density 19.378257000000001
#
# number of rings (size 3 to 8) (size 9 to 14) (size 15 to 20)
#    0.000    1.667    1.667    5.000    0.000    1.000 
#    0.000    2.500    0.000    6.500    0.000    0.000 
#    0.000    0.000    0.000    0.000    0.000    0.000 
#
# Total GULP energy -267919.605885 kJ/mol
# GULP energy per Si atom -5581.658456 kJ/mol
# Density = 1.933415 g / cm^3
# Si number density = 19.378257 Si / 1000 Ang^3
#
#
#
# Elastic Constant Matrix: (Units=GPa)
#
#
# Indices 1 2 3 4 5 6 
#
# 1 146.6969 56.4642 28.8254 0.0000 0.0000 0.0000
# 2 56.4642 121.8976 24.1580 0.0000 0.0000 0.0000
# 3 28.8254 24.1580 70.8504 0.0000 0.0000 0.0000
# 4 0.0000 0.0000 0.0000 14.4591 0.0000 0.0000
# 5 0.0000 0.0000 0.0000 0.0000 30.8723 0.0000
# 6 0.0000 0.0000 0.0000 0.0000 0.0000 33.9108
#
#
#
# Elastic Compliance Matrix: (Units=1/GPa)
#
#
# Indices 1 2 3 4 5 6 
#
# 1 0.008633 -0.003542 -0.002305 0.000000 0.000000 0.000000
# 2 -0.003542 0.010252 -0.002054 0.000000 0.000000 0.000000
# 3 -0.002305 -0.002054 0.015752 0.000000 0.000000 0.000000
# 4 0.000000 0.000000 0.000000 0.069161 0.000000 0.000000
# 5 0.000000 0.000000 0.000000 0.000000 0.032391 0.000000
# 6 0.000000 0.000000 0.000000 0.000000 0.000000 0.029489
#
#
# Mechanical properties :
#
#
# Convention : Reuss Voigt Hill
#
# Bulk Modulus (GPa) = 53.09348 62.03779 57.56563
# Shear Modulus (GPa) = 26.62995 31.18159 28.90577
#
# Velocity S-wave (km/s) = 3.71107 4.01571 3.86639
# Velocity P-wave (km/s) = 6.76909 7.32017 7.05002
#
# Compressibility (1/GPa) = 0.01883470
#
# Stress axis : x y z
#
# Youngs Moduli (GPa) = 115.83451 97.54656 63.48267
#
# Poissons Ratio (x) = 0.34553 0.14630
# Poissons Ratio (y) = 0.41031 0.13042
# Poissons Ratio (z) = 0.26695 0.20039
#
# Static dielectric constant tensor:
#      x y z
#    x 1.710320 0.000000 0.000000 
#    y 0.000000 1.680960 0.000000 
#    z 0.000000 0.000000 1.671700 
# 
# From -- ./inp_files/7981.got.cif
#   From: 2010.05.17/outbox.cif.g08.bks.cpg/sg66_4_cif.got.tgz:7981.got - 2010.06.03 17:51:23.
