data_PCOD9496235
_publ_section_title
;
Structure prediction by ZEFSAII (Michael W. Deem and Ramdas Pophale) SiO2 
 PCOD9496235
Probable space group: C C C M
;
_chemical_formula_sum "Si O2"
_cell_formula_units_Z 96
_cell_length_a 7.897116
_cell_length_b 19.981968
_cell_length_c 27.825951
_cell_angle_alpha 90.000000
_cell_angle_beta 90.000000
_cell_angle_gamma 90.000000
_cell_volume 4390.932820
_symmetry_space_group_name_H-M "C C C M"
_symmetry_group_IT_number 66
_symmetry_cell_setting 'orthorhombic'
loop_
_space_group_symop_operation_xyz
x,y,z
-x,-y,z
x,-y,1/2-z
-x,y,1/2-z
-x,-y,-z
x,y,-z
-x,y,1/2+z
x,-y,1/2+z
1/2+x,1/2+y,z
1/2-x,1/2-y,z
1/2+x,1/2-y,1/2-z
1/2-x,1/2+y,1/2-z
1/2-x,1/2-y,-z
1/2+x,1/2+y,-z
1/2-x,1/2+y,1/2+z
1/2+x,1/2-y,1/2+z
loop_
_atom_site_type_symbol
_atom_site_label
_atom_site_fract_x
_atom_site_fract_y
_atom_site_fract_z
Si Si1 0.325704 0.683072 0.197291
Si Si2 0.752944 0.914228 0.121749
Si Si3 0.429407 0.713550 0.618990
Si Si4 0.194867 0.423423 0.235171
Si Si5 0.104901 0.341482 0.601373
Si Si6 0.693909 0.971016 0.552914
O O1 0.250000 0.750000 0.220294
O O2 0.499652 0.705319 0.172810
O O3 0.315753 0.623115 0.233682
O O4 0.210959 0.662849 0.150758
O O5 0.894440 0.862177 0.103197
O O6 0.741028 0.919028 0.179199
O O7 0.572388 0.880099 0.109426
O O8 0.772623 0.985196 0.095775
O O9 0.250000 0.750000 0.619887
O O10 0.553996 0.764183 0.590746
O O11 0.212325 0.500000 0.250000
O O12 0.000000 0.403903 0.250000
O O13 0.194790 0.391974 0.564714
O O14 0.766481 0.983756 0.500000
O O15 0.500000 0.000000 0.551384
#
# Coordination Sequence:
#
# PCOD9496235 Si02
#       6
#    16  16  16  16  16  16
#     4  10  20  36  58  87 118 161 208 247 297 363
#     4  10  19  34  55  81 119 154 197 247 305 360
#     4   9  20  36  57  82 116 159 199 250 307 360
#     4  11  22  35  57  87 120 164 206 252 297 361
#     4   9  17  34  57  80 112 149 198 249 300 359
#     4   9  18  33  59  89 115 152 203 255 311 383
#
# _framework density 21.863233999999999
#
# number of rings (size 3 to 8) (size 9 to 14) (size 15 to 20)
#    0.000    2.333    1.667    1.000    4.667    2.667 
#    0.000    5.000    0.000   11.500    0.000    0.000 
#    0.000    0.000    0.000    0.000    0.000    0.000 
#
# Total GULP energy -267711.617856 kJ/mol
# GULP energy per Si atom -5577.325372 kJ/mol
# Density = 2.181347 g / cm^3
# Si number density = 21.863234 Si / 1000 Ang^3
#
#
#
# Elastic Constant Matrix: (Units=GPa)
#
#
# Indices 1 2 3 4 5 6 
#
# 1 50.3036 25.1516 7.8870 0.0000 0.0000 0.0000
# 2 25.1516 109.0507 37.9935 0.0000 0.0000 0.0000
# 3 7.8870 37.9935 76.2461 0.0000 0.0000 0.0000
# 4 0.0000 0.0000 0.0000 17.7962 0.0000 0.0000
# 5 0.0000 0.0000 0.0000 0.0000 1.7109 0.0000
# 6 0.0000 0.0000 0.0000 0.0000 0.0000 15.8545
#
#
#
# Elastic Compliance Matrix: (Units=1/GPa)
#
#
# Indices 1 2 3 4 5 6 
#
# 1 0.022477 -0.005293 0.000312 0.000000 0.000000 0.000000
# 2 -0.005293 0.012343 -0.005603 0.000000 0.000000 0.000000
# 3 0.000312 -0.005603 0.015875 0.000000 0.000000 0.000000
# 4 0.000000 0.000000 0.000000 0.056192 0.000000 0.000000
# 5 0.000000 0.000000 0.000000 0.000000 0.584487 0.000000
# 6 0.000000 0.000000 0.000000 0.000000 0.000000 0.063073
#
#
# Mechanical properties :
#
#
# Convention : Reuss Voigt Hill
#
# Bulk Modulus (GPa) = 33.86638 41.96275 37.91457
# Shear Modulus (GPa) = 6.36572 18.04354 12.20463
#
# Velocity S-wave (km/s) = 1.70820 2.87591 2.36524
# Velocity P-wave (km/s) = 4.40617 5.50116 4.98383
#
# Compressibility (1/GPa) = 0.02952781
#
# Stress axis : x y z
#
# Youngs Moduli (GPa) = 44.49039 81.01819 62.99184
#
# Poissons Ratio (x) = 0.42882 -0.01968
# Poissons Ratio (y) = 0.23548 0.35294
# Poissons Ratio (z) = -0.01390 0.45394
#
# Static dielectric constant tensor:
#      x y z
#    x 1.891820 0.000000 0.000000 
#    y 0.000000 1.827900 0.000000 
#    z 0.000000 0.000000 1.748160 
# 
# From -- ./inp_files/62583.got.cif
#   From: 2010.05.17/outbox.cif.g08.bks.cpg/sg66_32_cif.got.tgz:62583.got - 2010.06.03 17:51:23.
