data_PCOD9496238
_publ_section_title
;
Structure prediction by ZEFSAII (Michael W. Deem and Ramdas Pophale) SiO2 
 PCOD9496238
Probable space group: C C C M
;
_chemical_formula_sum "Si O2"
_cell_formula_units_Z 116
_cell_length_a 24.886081
_cell_length_b 30.859259
_cell_length_c 7.884715
_cell_angle_alpha 90.000000
_cell_angle_beta 90.000000
_cell_angle_gamma 90.000000
_cell_volume 6055.193190
_symmetry_space_group_name_H-M "C C C M"
_symmetry_group_IT_number 66
_symmetry_cell_setting 'orthorhombic'
loop_
_space_group_symop_operation_xyz
x,y,z
-x,-y,z
x,-y,1/2-z
-x,y,1/2-z
-x,-y,-z
x,y,-z
-x,y,1/2+z
x,-y,1/2+z
1/2+x,1/2+y,z
1/2-x,1/2-y,z
1/2+x,1/2-y,1/2-z
1/2-x,1/2+y,1/2-z
1/2-x,1/2-y,-z
1/2+x,1/2+y,-z
1/2-x,1/2+y,1/2+z
1/2+x,1/2-y,1/2+z
loop_
_atom_site_type_symbol
_atom_site_label
_atom_site_fract_x
_atom_site_fract_y
_atom_site_fract_z
Si Si1 0.562060 0.310583 0.295520
Si Si2 0.718770 0.548145 0.204447
Si Si3 0.437749 0.786980 0.703158
Si Si4 0.660643 0.365654 0.705331
Si Si5 0.235150 0.310493 0.193956
Si Si6 0.657670 0.047489 0.701237
Si Si7 0.858973 0.362511 0.807293
Si Si8 0.750000 0.250000 0.000000
O O1 0.500000 0.318632 0.250000
O O2 0.565305 0.310006 0.500000
O O3 0.577379 0.261786 0.237473
O O4 0.604242 0.346342 0.231756
O O5 0.699058 0.500000 0.250000
O O6 0.682063 0.587870 0.267711
O O7 0.780510 0.551475 0.268130
O O8 0.720504 0.551222 0.000000
O O9 0.500000 0.792369 0.750000
O O10 0.431154 0.788166 0.500000
O O11 0.403272 0.825841 0.778130
O O12 0.657116 0.368891 0.500000
O O13 0.706728 0.330092 0.739614
O O14 0.192299 0.349225 0.196325
O O15 0.220491 0.278054 0.345530
O O16 0.235671 0.294100 0.000000
O O17 0.660186 0.049657 0.500000
O O18 0.624537 0.088640 0.764402
O O19 0.637531 0.000000 0.750000
O O20 0.841222 0.362122 0.000000
#
# Coordination Sequence:
#
# PCOD9496238 Si02
#       8
#    16  16  16  16  16  16  16   4
#     4   9  19  36  56  79 104 141 188 234 283 338
#     4   9  17  31  51  77 107 142 182 225 278 340
#     4  10  21  38  58  82 109 149 194 242 294 341
#     4   9  18  35  57  77 109 150 187 227 285 347
#     4  11  23  40  56  79 117 157 192 237 290 349
#     4  10  19  34  55  82 114 152 189 233 291 345
#     4  12  23  37  57  86 118 151 196 243 284 350
#     4  12  26  40  48  86 116 156 198 228 292 356
#
# _framework density 19.157111
#
# number of rings (size 3 to 8) (size 9 to 14) (size 15 to 20)
#    0.000    1.931    2.069    2.276    1.931    1.103 
#    2.483    0.000    0.000    0.828    0.000    5.793 
#    0.000    0.000    0.000    0.000    0.000    0.000 
#
# Total GULP energy -323099.929131 kJ/mol
# GULP energy per Si atom -5570.688433 kJ/mol
# Density = 1.911351 g / cm^3
# Si number density = 19.157111 Si / 1000 Ang^3
#
#
#
# Elastic Constant Matrix: (Units=GPa)
#
#
# Indices 1 2 3 4 5 6 
#
# 1 40.5975 19.6464 4.6667 0.0000 0.0000 0.0000
# 2 19.6464 86.0797 15.5967 0.0000 0.0000 0.0000
# 3 4.6667 15.5967 63.2932 0.0000 0.0000 0.0000
# 4 0.0000 0.0000 0.0000 -2.8729 0.0000 0.0000
# 5 0.0000 0.0000 0.0000 0.0000 16.0219 0.0000
# 6 0.0000 0.0000 0.0000 0.0000 0.0000 16.3940
#
#
#
# Elastic Compliance Matrix: (Units=1/GPa)
#
#
# Indices 1 2 3 4 5 6 
#
# 1 0.027706 -0.006232 -0.000507 0.000000 0.000000 0.000000
# 2 -0.006232 0.013562 -0.002882 0.000000 0.000000 0.000000
# 3 -0.000507 -0.002882 0.016547 0.000000 0.000000 0.000000
# 4 0.000000 0.000000 0.000000 -0.348081 0.000000 0.000000
# 5 0.000000 0.000000 0.000000 0.000000 0.062415 0.000000
# 6 0.000000 0.000000 0.000000 0.000000 0.000000 0.060998
#
#
# Mechanical properties :
#
#
# Convention : Reuss Voigt Hill
#
# Bulk Modulus (GPa) = 25.92523 29.97665 27.95094
# Shear Modulus (GPa) = -37.10485 15.91263 -10.59611
#
# Velocity S-wave (km/s) = -4.40576 2.88521 -2.35439
# Velocity P-wave (km/s) = 3.50980 5.17503 2.68908
#
# Compressibility (1/GPa) = 0.03857246
#
# Stress axis : x y z
#
# Youngs Moduli (GPa) = 36.09320 73.73726 60.43332
#
# Poissons Ratio (x) = 0.45950 0.03065
# Poissons Ratio (y) = 0.22492 0.17419
# Poissons Ratio (z) = 0.01831 0.21254
#
# Static dielectric constant tensor:
#      x y z
#    x 1.657360 0.000000 0.000000 
#    y 0.000000 1.747200 0.000000 
#    z 0.000000 0.000000 1.694230 
# 
# From -- ./inp_files/9608.got.cif
#   From: 2010.05.17/outbox.cif.g08.bks.cpg/sg66_5_cif.got.tgz:9608.got - 2010.06.03 17:51:23.
