data_PCOD9496525
_publ_section_title
;
Structure prediction by ZEFSAII (Michael W. Deem and Ramdas Pophale) SiO2 
 PCOD9496525
Probable space group: C C C M
;
_chemical_formula_sum "Si O2"
_cell_formula_units_Z 64
_cell_length_a 8.279842
_cell_length_b 25.399486
_cell_length_c 14.331645
_cell_angle_alpha 90.000000
_cell_angle_beta 90.000000
_cell_angle_gamma 90.000000
_cell_volume 3013.998414
_symmetry_space_group_name_H-M "C C C M"
_symmetry_group_IT_number 66
_symmetry_cell_setting 'orthorhombic'
loop_
_space_group_symop_operation_xyz
x,y,z
-x,-y,z
x,-y,1/2-z
-x,y,1/2-z
-x,-y,-z
x,y,-z
-x,y,1/2+z
x,-y,1/2+z
1/2+x,1/2+y,z
1/2-x,1/2-y,z
1/2+x,1/2-y,1/2-z
1/2-x,1/2+y,1/2-z
1/2-x,1/2-y,-z
1/2+x,1/2+y,-z
1/2-x,1/2+y,1/2+z
1/2+x,1/2-y,1/2+z
loop_
_atom_site_type_symbol
_atom_site_label
_atom_site_fract_x
_atom_site_fract_y
_atom_site_fract_z
Si Si1 0.356309 0.169301 0.000000
Si Si2 0.364511 0.338723 0.674450
Si Si3 0.991137 0.216345 0.000000
Si Si4 0.547985 0.559370 0.110828
Si Si5 0.140996 0.388577 0.192777
O O1 0.399606 0.137453 0.906511
O O2 0.161936 0.182725 0.000000
O O3 0.450911 0.224034 0.000000
O O4 0.500000 0.324185 0.750000
O O5 0.386460 0.299609 0.589366
O O6 0.413612 0.396706 0.634977
O O7 0.202201 0.344194 0.733645
O O8 0.500000 0.500000 0.132777
O O9 0.705817 0.575535 0.168462
O O10 0.581535 0.562132 0.000000
O O11 0.000000 0.416630 0.250000
#
# Coordination Sequence:
#
# PCOD9496525 Si02
#       5
#     8  16   8  16  16
#     4  11  22  41  61  93 135 174 212 274 329 361
#     4  10  19  37  61  91 121 173 217 258 313 382
#     4  11  20  39  65  91 130 172 231 272 301 388
#     4  10  19  39  68  92 120 164 216 261 321 399
#     4  11  23  41  63  96 135 168 210 273 331 383
#
# _framework density 21.234252000000001
#
# number of rings (size 3 to 8) (size 9 to 14) (size 15 to 20)
#    0.000    1.500    7.500    0.000    0.000    6.500 
#    0.000    3.750    0.000    3.000    0.000    0.000 
#    0.000    0.000    0.000    0.000    0.000    0.000 
#
# Total GULP energy -178776.361849 kJ/mol
# GULP energy per Si atom -5586.761308 kJ/mol
# Density = 2.118592 g / cm^3
# Si number density = 21.234252 Si / 1000 Ang^3
#
#
#
# Elastic Constant Matrix: (Units=GPa)
#
#
# Indices 1 2 3 4 5 6 
#
# 1 38.6408 17.5622 49.7323 0.0000 0.0000 0.0000
# 2 17.5622 108.7695 45.5772 0.0000 0.0000 0.0000
# 3 49.7323 45.5772 167.2439 0.0000 0.0000 0.0000
# 4 0.0000 0.0000 0.0000 -157.1299 0.0000 0.0000
# 5 0.0000 0.0000 0.0000 0.0000 27.9790 0.0000
# 6 0.0000 0.0000 0.0000 0.0000 0.0000 17.4809
#
#
#
# Elastic Compliance Matrix: (Units=1/GPa)
#
#
# Indices 1 2 3 4 5 6 
#
# 1 0.042220 -0.001757 -0.012076 0.000000 0.000000 0.000000
# 2 -0.001757 0.010452 -0.002326 0.000000 0.000000 0.000000
# 3 -0.012076 -0.002326 0.010204 0.000000 0.000000 0.000000
# 4 0.000000 0.000000 0.000000 -0.006364 0.000000 0.000000
# 5 0.000000 0.000000 0.000000 0.000000 0.035741 0.000000
# 6 0.000000 0.000000 0.000000 0.000000 0.000000 0.057205
#
#
# Mechanical properties :
#
#
# Convention : Reuss Voigt Hill
#
# Bulk Modulus (GPa) = 32.72387 60.04420 46.38403
# Shear Modulus (GPa) = 26.04677 -8.88184 8.58247
#
# Velocity S-wave (km/s) = 3.50614 -2.04741 2.01260
# Velocity P-wave (km/s) = 5.64226 4.76962 5.22419
#
# Compressibility (1/GPa) = 0.03055873
#
# Stress axis : x y z
#
# Youngs Moduli (GPa) = 23.68541 95.67487 97.99962
#
# Poissons Ratio (x) = 0.16809 1.18344
# Poissons Ratio (y) = 0.04161 0.22794
# Poissons Ratio (z) = 0.28602 0.22254
#
# Static dielectric constant tensor:
#      x y z
#    x 1.837990 0.000000 0.000000 
#    y 0.000000 1.749950 0.000000 
#    z 0.000000 0.000000 1.773100 
# 
# From -- ./inp_files/24184.got.cif
#   From: 2010.05.17/outbox.cif.g08.bks.cpg/sg66_13_cif.got.tgz:24184.got - 2010.06.03 17:51:23.
