data_PCOD9496083
_publ_section_title
;
Structure prediction by ZEFSAII (Michael W. Deem and Ramdas Pophale) SiO2 
 PCOD9496083
Probable space group: C C C M
;
_chemical_formula_sum "Si O2"
_cell_formula_units_Z 116
_cell_length_a 27.456999
_cell_length_b 27.364405
_cell_length_c 8.368717
_cell_angle_alpha 90.000000
_cell_angle_beta 90.000000
_cell_angle_gamma 90.000000
_cell_volume 6287.788994
_symmetry_space_group_name_H-M "C C C M"
_symmetry_group_IT_number 66
_symmetry_cell_setting 'orthorhombic'
loop_
_space_group_symop_operation_xyz
x,y,z
-x,-y,z
x,-y,1/2-z
-x,y,1/2-z
-x,-y,-z
x,y,-z
-x,y,1/2+z
x,-y,1/2+z
1/2+x,1/2+y,z
1/2-x,1/2-y,z
1/2+x,1/2-y,1/2-z
1/2-x,1/2+y,1/2-z
1/2-x,1/2-y,-z
1/2+x,1/2+y,-z
1/2-x,1/2+y,1/2+z
1/2+x,1/2-y,1/2+z
loop_
_atom_site_type_symbol
_atom_site_label
_atom_site_fract_x
_atom_site_fract_y
_atom_site_fract_z
Si Si1 0.425442 0.318784 0.813581
Si Si2 0.000000 0.000000 0.250000
Si Si3 0.345854 0.822065 0.189541
Si Si4 0.051845 0.291069 0.808902
Si Si5 0.825466 0.789659 0.313357
Si Si6 0.928969 0.922710 0.311983
Si Si7 0.684511 0.445030 0.809749
Si Si8 0.248344 0.359532 0.185686
O O1 0.443257 0.265796 0.752730
O O2 0.367080 0.315294 0.791181
O O3 0.442113 0.366418 0.718732
O O4 0.437754 0.324063 0.000000
O O5 0.040113 0.959016 0.300265
O O6 0.401609 0.820681 0.246481
O O7 0.326234 0.767345 0.228301
O O8 0.308454 0.859377 0.269449
O O9 0.344345 0.828346 0.000000
O O10 0.000000 0.310013 0.750000
O O11 0.053725 0.289985 0.000000
O O12 0.839265 0.794516 0.500000
O O13 0.775083 0.816789 0.284856
O O14 0.938117 0.935508 0.500000
O O15 0.871665 0.929780 0.278831
O O16 0.691068 0.500000 0.750000
O O17 0.722397 0.408487 0.727823
O O18 0.691518 0.441900 0.000000
O O19 0.253724 0.348410 0.000000
#
# Coordination Sequence:
#
# PCOD9496083 Si02
#       8
#    16   4  16  16  16  16  16  16
#     4  10  21  35  54  77 103 136 180 228 276 335
#     4  12  26  44  56  78  98 132 188 250 300 344
#     4  10  21  36  55  80 112 147 184 227 273 329
#     4  10  21  37  55  80 111 148 186 225 270 324
#     4  10  19  33  53  78 108 143 180 221 274 333
#     4  11  24  40  58  75  99 134 178 235 295 346
#     4  11  23  41  61  81 106 140 183 231 288 348
#     4  12  23  35  55  82 111 144 181 225 279 338
#
# _framework density 18.448456
#
# number of rings (size 3 to 8) (size 9 to 14) (size 15 to 20)
#    0.000    1.379    2.069    3.931    0.966    6.621 
#    0.000    0.000    0.000    0.000    0.000    0.000 
#    0.000    0.552    0.000    5.517    0.000    3.310 
#
# Total GULP energy -323826.769612 kJ/mol
# GULP energy per Si atom -5583.220166 kJ/mol
# Density = 1.840647 g / cm^3
# Si number density = 18.448456 Si / 1000 Ang^3
#
#
#
# Elastic Constant Matrix: (Units=GPa)
#
#
# Indices 1 2 3 4 5 6 
#
# 1 119.2656 37.5555 15.2553 0.0000 0.0000 0.0000
# 2 37.5555 42.5845 19.9173 0.0000 0.0000 0.0000
# 3 15.2553 19.9173 43.7243 0.0000 0.0000 0.0000
# 4 0.0000 0.0000 0.0000 15.5184 0.0000 0.0000
# 5 0.0000 0.0000 0.0000 0.0000 12.9055 0.0000
# 6 0.0000 0.0000 0.0000 0.0000 0.0000 16.1911
#
#
#
# Elastic Compliance Matrix: (Units=1/GPa)
#
#
# Indices 1 2 3 4 5 6 
#
# 1 0.011629 -0.010621 0.000781 0.000000 0.000000 0.000000
# 2 -0.010621 0.039540 -0.014306 0.000000 0.000000 0.000000
# 3 0.000781 -0.014306 0.029115 0.000000 0.000000 0.000000
# 4 0.000000 0.000000 0.000000 0.064440 0.000000 0.000000
# 5 0.000000 0.000000 0.000000 0.000000 0.077487 0.000000
# 6 0.000000 0.000000 0.000000 0.000000 0.000000 0.061762
#
#
# Mechanical properties :
#
#
# Convention : Reuss Voigt Hill
#
# Bulk Modulus (GPa) = 31.25765 39.00338 35.13052
# Shear Modulus (GPa) = 14.58028 17.77943 16.17985
#
# Velocity S-wave (km/s) = 2.81432 3.10778 2.96468
# Velocity P-wave (km/s) = 5.24791 5.83656 5.55004
#
# Compressibility (1/GPa) = 0.03199217
#
# Stress axis : x y z
#
# Youngs Moduli (GPa) = 85.99010 25.29057 34.34684
#
# Poissons Ratio (x) = 0.26861 -0.02681
# Poissons Ratio (y) = 0.91330 0.49136
# Poissons Ratio (z) = -0.06713 0.36180
#
# Static dielectric constant tensor:
#      x y z
#    x 1.658730 0.000000 0.000000 
#    y 0.000000 1.619780 0.000000 
#    z 0.000000 0.000000 1.661430 
# 
# From -- ./inp_files/9454.got.cif
#   From: 2010.05.17/outbox.cif.g08.bks.cpg/sg66_5_cif.got.tgz:9454.got - 2010.06.03 17:51:23.
