data_PCOD9496401
_publ_section_title
;
Structure prediction by ZEFSAII (Michael W. Deem and Ramdas Pophale) SiO2 
 PCOD9496401
Probable space group: C C C M
;
_chemical_formula_sum "Si O2"
_cell_formula_units_Z 48
_cell_length_a 12.559888
_cell_length_b 8.380716
_cell_length_c 20.085689
_cell_angle_alpha 90.000000
_cell_angle_beta 90.000000
_cell_angle_gamma 90.000000
_cell_volume 2114.236784
_symmetry_space_group_name_H-M "C C C M"
_symmetry_group_IT_number 66
_symmetry_cell_setting 'orthorhombic'
loop_
_space_group_symop_operation_xyz
x,y,z
-x,-y,z
x,-y,1/2-z
-x,y,1/2-z
-x,-y,-z
x,y,-z
-x,y,1/2+z
x,-y,1/2+z
1/2+x,1/2+y,z
1/2-x,1/2-y,z
1/2+x,1/2-y,1/2-z
1/2-x,1/2+y,1/2-z
1/2-x,1/2-y,-z
1/2+x,1/2+y,-z
1/2-x,1/2+y,1/2+z
1/2+x,1/2-y,1/2+z
loop_
_atom_site_type_symbol
_atom_site_label
_atom_site_fract_x
_atom_site_fract_y
_atom_site_fract_z
Si Si1 0.352887 0.130494 0.424724
Si Si2 0.225084 0.563158 0.686322
Si Si3 0.938616 0.146089 0.820094
O O1 0.390348 0.110793 0.500000
O O2 0.250000 0.250000 0.427437
O O3 0.431661 0.212507 0.371917
O O4 0.320756 0.969591 0.386645
O O5 0.157474 0.500000 0.750000
O O6 0.250000 0.750000 0.692738
O O7 0.322614 0.433659 0.690648
O O8 0.000000 0.177185 0.750000
O O9 0.000000 0.000000 0.853684
#
# Coordination Sequence:
#
# PCOD9496401 Si02
#       3
#    16  16  16
#     4   9  20  38  60  87 118 155 196 238 294 357
#     4  11  21  36  61  87 113 155 205 248 287 346
#     4  10  19  35  60  87 120 152 195 241 294 349
#
# _framework density 22.703229
#
# number of rings (size 3 to 8) (size 9 to 14) (size 15 to 20)
#    0.000    2.000    3.333    3.000    0.000    1.333 
#    0.000    3.333    0.000    2.000    0.000    0.000 
#    0.000    1.333    0.000    0.000    0.000    0.000 
#
# Total GULP energy -133747.730973 kJ/mol
# GULP energy per Si atom -5572.822124 kJ/mol
# Density = 2.265156 g / cm^3
# Si number density = 22.703229 Si / 1000 Ang^3
#
#
#
# Elastic Constant Matrix: (Units=GPa)
#
#
# Indices 1 2 3 4 5 6 
#
# 1 46.6122 15.0342 29.9043 0.0000 0.0000 0.0000
# 2 15.0342 151.4222 97.4300 0.0000 0.0000 0.0000
# 3 29.9043 97.4300 227.9400 0.0000 0.0000 0.0000
# 4 0.0000 0.0000 0.0000 26.9139 0.0000 0.0000
# 5 0.0000 0.0000 0.0000 0.0000 15.8355 0.0000
# 6 0.0000 0.0000 0.0000 0.0000 0.0000 25.3502
#
#
#
# Elastic Compliance Matrix: (Units=1/GPa)
#
#
# Indices 1 2 3 4 5 6 
#
# 1 0.023451 -0.000481 -0.002871 0.000000 0.000000 0.000000
# 2 -0.000481 0.009119 -0.003835 0.000000 0.000000 0.000000
# 3 -0.002871 -0.003835 0.006403 0.000000 0.000000 0.000000
# 4 0.000000 0.000000 0.000000 0.037156 0.000000 0.000000
# 5 0.000000 0.000000 0.000000 0.000000 0.063149 0.000000
# 6 0.000000 0.000000 0.000000 0.000000 0.000000 0.039447
#
#
# Mechanical properties :
#
#
# Convention : Reuss Voigt Hill
#
# Bulk Modulus (GPa) = 40.65182 78.96794 59.80988
# Shear Modulus (GPa) = 24.83876 32.52699 28.68287
#
# Velocity S-wave (km/s) = 3.31125 3.78921 3.55827
# Velocity P-wave (km/s) = 5.70647 7.34863 6.57899
#
# Compressibility (1/GPa) = 0.02459915
#
# Stress axis : x y z
#
# Youngs Moduli (GPa) = 42.64280 109.65819 156.17925
#
# Poissons Ratio (x) = 0.05275 0.44838
# Poissons Ratio (y) = 0.02051 0.59891
# Poissons Ratio (z) = 0.12242 0.42052
#
# Static dielectric constant tensor:
#      x y z
#    x 2.090070 0.000000 0.000000 
#    y 0.000000 1.843800 0.000000 
#    z 0.000000 0.000000 1.868810 
# 
# From -- ./inp_files/35621.got.cif
#   From: 2010.05.17/outbox.cif.g08.bks.cpg/sg66_18_cif.got.tgz:35621.got - 2010.06.03 17:51:23.
