data_PCOD9496627
_publ_section_title
;
Structure prediction by ZEFSAII (Michael W. Deem and Ramdas Pophale) SiO2 
 PCOD9496627
Probable space group: C C C M
;
_chemical_formula_sum "Si O2"
_cell_formula_units_Z 80
_cell_length_a 13.468382
_cell_length_b 31.327548
_cell_length_c 8.197618
_cell_angle_alpha 90.000000
_cell_angle_beta 90.000000
_cell_angle_gamma 90.000000
_cell_volume 3458.832305
_symmetry_space_group_name_H-M "C C C M"
_symmetry_group_IT_number 66
_symmetry_cell_setting 'orthorhombic'
loop_
_space_group_symop_operation_xyz
x,y,z
-x,-y,z
x,-y,1/2-z
-x,y,1/2-z
-x,-y,-z
x,y,-z
-x,y,1/2+z
x,-y,1/2+z
1/2+x,1/2+y,z
1/2-x,1/2-y,z
1/2+x,1/2-y,1/2-z
1/2-x,1/2+y,1/2-z
1/2-x,1/2-y,-z
1/2+x,1/2+y,-z
1/2-x,1/2+y,1/2+z
1/2+x,1/2-y,1/2+z
loop_
_atom_site_type_symbol
_atom_site_label
_atom_site_fract_x
_atom_site_fract_y
_atom_site_fract_z
Si Si1 0.127607 0.194938 0.000000
Si Si2 0.370019 0.207458 0.000000
Si Si3 0.899862 0.433161 0.692133
Si Si4 0.132514 0.140429 0.687005
Si Si5 0.682687 0.455263 0.805376
Si Si6 0.632227 0.158497 0.823286
O O1 0.096510 0.169217 0.837581
O O2 0.248797 0.201030 0.000000
O O3 0.094381 0.243897 0.000000
O O4 0.400627 0.184878 0.167124
O O5 0.903729 0.423981 0.500000
O O6 0.792878 0.453562 0.727420
O O7 0.900445 0.389971 0.797951
O O8 0.000000 0.455976 0.750000
O O9 0.095626 0.145330 0.500000
O O10 0.130075 0.090001 0.734612
O O11 0.248437 0.153939 0.678071
O O12 0.635009 0.500000 0.750000
O O13 0.693624 0.455462 0.000000
O O14 0.602851 0.175672 0.000000
#
# Coordination Sequence:
#
# PCOD9496627 Si02
#       6
#     8   8  16  16  16  16
#     4   9  16  24  42  56  77  95 121 141 187 234
#     4   9  16  26  38  62  73  97 119 145 183 236
#     4  11  20  31  44  57  74  97 129 165 204 245
#     4   8  16  27  39  55  75  96 119 150 187 231
#     4  10  20  31  43  58  73  97 130 164 206 244
#     4   9  16  28  41  55  76  97 119 150 189 230
#
# _framework density 23.129193000000001
#
# number of rings (size 3 to 8) (size 9 to 14) (size 15 to 20)
#    0.000    2.600    1.000    3.600    5.600    1.200 
#    0.000    6.000    0.000    0.000    0.000    0.000 
#    0.000    0.000    0.000    0.000    0.000    0.000 
#
# Total GULP energy -223378.412631 kJ/mol
# GULP energy per Si atom -5584.460316 kJ/mol
# Density = 2.307655 g / cm^3
# Si number density = 23.129193 Si / 1000 Ang^3
#
#
#
# Elastic Constant Matrix: (Units=GPa)
#
#
# Indices 1 2 3 4 5 6 
#
# 1 64.8682 6.4858 22.8191 0.0000 0.0000 0.0000
# 2 6.4858 185.4271 104.1092 0.0000 0.0000 0.0000
# 3 22.8191 104.1092 174.8530 0.0000 0.0000 0.0000
# 4 0.0000 0.0000 0.0000 94.1267 0.0000 0.0000
# 5 0.0000 0.0000 0.0000 0.0000 17.6898 0.0000
# 6 0.0000 0.0000 0.0000 0.0000 0.0000 329.3715
#
#
#
# Elastic Compliance Matrix: (Units=1/GPa)
#
#
# Indices 1 2 3 4 5 6 
#
# 1 0.016265 0.000936 -0.002680 0.000000 0.000000 0.000000
# 2 0.000936 0.008155 -0.004978 0.000000 0.000000 0.000000
# 3 -0.002680 -0.004978 0.009033 0.000000 0.000000 0.000000
# 4 0.000000 0.000000 0.000000 0.010624 0.000000 0.000000
# 5 0.000000 0.000000 0.000000 0.000000 0.056530 0.000000
# 6 0.000000 0.000000 0.000000 0.000000 0.000000 0.003036
#
#
# Mechanical properties :
#
#
# Convention : Reuss Voigt Hill
#
# Bulk Modulus (GPa) = 49.97749 76.88630 63.43189
# Shear Modulus (GPa) = 40.40223 107.68653 74.04438
#
# Velocity S-wave (km/s) = 4.18402 6.83080 5.66418
# Velocity P-wave (km/s) = 6.70792 9.77381 8.38223
#
# Compressibility (1/GPa) = 0.02000901
#
# Stress axis : x y z
#
# Youngs Moduli (GPa) = 61.48169 122.62475 110.71065
#
# Poissons Ratio (x) = -0.11473 0.29668
# Poissons Ratio (y) = -0.05753 0.55108
# Poissons Ratio (z) = 0.16476 0.61038
#
# Static dielectric constant tensor:
#      x y z
#    x 1.961780 0.000000 0.000000 
#    y 0.000000 1.839800 0.000000 
#    z 0.000000 0.000000 1.745210 
# 
# From -- ./inp_files/6754.got.cif
#   From: 2010.05.17/outbox.cif.g08.bks.cpg/sg66_4_cif.got.tgz:6754.got - 2010.06.03 17:51:23.
