data_PCOD9496244
_publ_section_title
;
Structure prediction by ZEFSAII (Michael W. Deem and Ramdas Pophale) SiO2 
 PCOD9496244
Probable space group: C C C M
;
_chemical_formula_sum "Si O2"
_cell_formula_units_Z 120
_cell_length_a 26.545768
_cell_length_b 28.724610
_cell_length_c 9.065599
_cell_angle_alpha 90.000000
_cell_angle_beta 90.000000
_cell_angle_gamma 90.000000
_cell_volume 6912.671838
_symmetry_space_group_name_H-M "C C C M"
_symmetry_group_IT_number 66
_symmetry_cell_setting 'orthorhombic'
loop_
_space_group_symop_operation_xyz
x,y,z
-x,-y,z
x,-y,1/2-z
-x,y,1/2-z
-x,-y,-z
x,y,-z
-x,y,1/2+z
x,-y,1/2+z
1/2+x,1/2+y,z
1/2-x,1/2-y,z
1/2+x,1/2-y,1/2-z
1/2-x,1/2+y,1/2-z
1/2-x,1/2-y,-z
1/2+x,1/2+y,-z
1/2-x,1/2+y,1/2+z
1/2+x,1/2-y,1/2+z
loop_
_atom_site_type_symbol
_atom_site_label
_atom_site_fract_x
_atom_site_fract_y
_atom_site_fract_z
Si Si1 0.500000 0.124412 0.250000
Si Si2 0.945040 0.879193 0.676036
Si Si3 0.367119 0.449853 0.821512
Si Si4 0.241065 0.950620 0.178002
Si Si5 0.097398 0.684522 0.329460
Si Si6 0.054335 0.771131 0.173587
Si Si7 0.928875 0.455375 0.162984
Si Si8 0.660660 0.893315 0.322669
O O1 0.543577 0.156907 0.317548
O O2 0.532111 0.087351 0.155735
O O3 0.947117 0.889272 0.500000
O O4 0.906376 0.912338 0.760220
O O5 0.929908 0.824852 0.692637
O O6 0.000000 0.884433 0.750000
O O7 0.380261 0.500000 0.750000
O O8 0.311718 0.438816 0.756187
O O9 0.366608 0.452110 0.000000
O O10 0.283310 0.911533 0.204877
O O11 0.257085 0.000000 0.250000
O O12 0.234767 0.955919 0.000000
O O13 0.108375 0.691963 0.500000
O O14 0.090280 0.733053 0.245716
O O15 0.140323 0.652888 0.254951
O O16 0.000000 0.766296 0.250000
O O17 0.049065 0.761627 0.000000
O O18 0.946545 0.500000 0.250000
O O19 0.878033 0.433592 0.228858
O O20 0.917302 0.472018 0.000000
O O21 0.654056 0.888348 0.500000
#
# Coordination Sequence:
#
# PCOD9496244 Si02
#       8
#     8  16  16  16  16  16  16  16
#     4  10  21  32  44  64  94 130 171 216 268 326
#     4  10  21  38  59  87 119 151 183 216 257 311
#     4  11  22  37  59  87 118 151 183 219 258 309
#     4  10  19  34  56  80 107 142 182 228 275 325
#     4  11  21  32  51  74 100 135 178 227 277 327
#     4  10  20  34  55  79 108 142 179 222 268 319
#     4  10  20  32  44  61  89 126 169 215 268 325
#     4   9  20  35  50  70 100 135 175 226 280 329
#
# _framework density 17.359424000000001
#
# number of rings (size 3 to 8) (size 9 to 14) (size 15 to 20)
#    0.000    1.867    0.667    4.600    0.000    7.200 
#    0.000    1.333    0.000    0.800    0.000    5.600 
#    0.000    0.000    0.000    0.000    0.000    0.000 
#
# Total GULP energy -334598.127525 kJ/mol
# GULP energy per Si atom -5576.635459 kJ/mol
# Density = 1.731991 g / cm^3
# Si number density = 17.359424 Si / 1000 Ang^3
#
#
#
# Elastic Constant Matrix: (Units=GPa)
#
#
# Indices 1 2 3 4 5 6 
#
# 1 86.4323 74.9516 60.9637 0.0000 0.0000 0.0000
# 2 74.9516 112.6716 80.7219 0.0000 0.0000 0.0000
# 3 60.9637 80.7219 136.1797 0.0000 0.0000 0.0000
# 4 0.0000 0.0000 0.0000 18.9167 0.0000 0.0000
# 5 0.0000 0.0000 0.0000 0.0000 27.9341 0.0000
# 6 0.0000 0.0000 0.0000 0.0000 0.0000 28.3138
#
#
#
# Elastic Compliance Matrix: (Units=1/GPa)
#
#
# Indices 1 2 3 4 5 6 
#
# 1 0.027856 -0.016680 -0.002583 0.000000 0.000000 0.000000
# 2 -0.016680 0.025414 -0.007597 0.000000 0.000000 0.000000
# 3 -0.002583 -0.007597 0.013003 0.000000 0.000000 0.000000
# 4 0.000000 0.000000 0.000000 0.052863 0.000000 0.000000
# 5 0.000000 0.000000 0.000000 0.000000 0.035799 0.000000
# 6 0.000000 0.000000 0.000000 0.000000 0.000000 0.035318
#
#
# Mechanical properties :
#
#
# Convention : Reuss Voigt Hill
#
# Bulk Modulus (GPa) = 79.66573 85.39534 82.53054
# Shear Modulus (GPa) = 20.14843 22.94270 21.54556
#
# Velocity S-wave (km/s) = 3.41055 3.63936 3.52681
# Velocity P-wave (km/s) = 7.84223 8.18286 8.01436
#
# Compressibility (1/GPa) = 0.01255245
#
# Stress axis : x y z
#
# Youngs Moduli (GPa) = 35.89901 39.34820 76.90429
#
# Poissons Ratio (x) = 0.65631 0.19866
# Poissons Ratio (y) = 0.59878 0.58428
# Poissons Ratio (z) = 0.09274 0.29895
#
# Static dielectric constant tensor:
#      x y z
#    x 1.590000 0.000000 0.000000 
#    y 0.000000 1.588480 0.000000 
#    z 0.000000 0.000000 1.597170 
# 
# From -- ./inp_files/10809.got.cif
#   From: 2010.05.17/outbox.cif.g08.bks.cpg/sg66_6_cif.got.tgz:10809.got - 2010.06.03 17:51:23.
