data_PCOD9496137
_publ_section_title
;
Structure prediction by ZEFSAII (Michael W. Deem and Ramdas Pophale) SiO2 
 PCOD9496137
Probable space group: C C C M
;
_chemical_formula_sum "Si O2"
_cell_formula_units_Z 96
_cell_length_a 24.415385
_cell_length_b 8.649548
_cell_length_c 21.653222
_cell_angle_alpha 90.000000
_cell_angle_beta 90.000000
_cell_angle_gamma 90.000000
_cell_volume 4572.771692
_symmetry_space_group_name_H-M "C C C M"
_symmetry_group_IT_number 66
_symmetry_cell_setting 'orthorhombic'
loop_
_space_group_symop_operation_xyz
x,y,z
-x,-y,z
x,-y,1/2-z
-x,y,1/2-z
-x,-y,-z
x,y,-z
-x,y,1/2+z
x,-y,1/2+z
1/2+x,1/2+y,z
1/2-x,1/2-y,z
1/2+x,1/2-y,1/2-z
1/2-x,1/2+y,1/2-z
1/2-x,1/2-y,-z
1/2+x,1/2+y,-z
1/2-x,1/2+y,1/2+z
1/2+x,1/2-y,1/2+z
loop_
_atom_site_type_symbol
_atom_site_label
_atom_site_fract_x
_atom_site_fract_y
_atom_site_fract_z
Si Si1 0.435785 0.188842 0.742630
Si Si2 0.184763 0.058664 0.073613
Si Si3 0.280183 0.893295 0.148682
Si Si4 0.885858 0.786313 0.611477
Si Si5 0.353671 0.834623 0.345442
Si Si6 0.940362 0.490301 0.930931
O O1 0.500000 0.230134 0.750000
O O2 0.413163 0.257243 0.678386
O O3 0.391650 0.243463 0.793633
O O4 0.432830 0.000000 0.750000
O O5 0.178645 0.215541 0.111913
O O6 0.236973 0.969222 0.101822
O O7 0.130980 0.956120 0.090593
O O8 0.189188 0.079084 0.000000
O O9 0.250000 0.750000 0.183915
O O10 0.328362 0.805825 0.112564
O O11 0.311537 0.036318 0.180605
O O12 0.924470 0.689041 0.567042
O O13 0.396751 0.921219 0.389895
O O14 0.000000 0.500000 0.901014
O O15 0.942333 0.555494 0.000000
#
# Coordination Sequence:
#
# PCOD9496137 Si02
#       6
#    16  16  16  16  16  16
#     4  11  21  40  70  94 119 159 210 265 315 374
#     4  11  24  41  60  89 130 172 209 257 320 381
#     4   9  20  37  60  90 121 159 209 251 303 368
#     4  10  21  39  61  90 122 161 212 258 313 375
#     4  11  22  38  62  92 124 161 210 262 315 372
#     4  10  19  33  56  84 114 154 204 256 311 374
#
# _framework density 20.993831
#
# number of rings (size 3 to 8) (size 9 to 14) (size 15 to 20)
#    0.000    1.667    3.333    2.500    0.000    7.667 
#    0.000   12.500    0.000    6.000    0.000    0.000 
#    0.000    0.000    0.000    0.000    0.000    0.000 
#
# Total GULP energy -267569.145292 kJ/mol
# GULP energy per Si atom -5574.357194 kJ/mol
# Density = 2.094605 g / cm^3
# Si number density = 20.993831 Si / 1000 Ang^3
#
#
#
# Elastic Constant Matrix: (Units=GPa)
#
#
# Indices 1 2 3 4 5 6 
#
# 1 130.7374 41.9750 43.1818 0.0000 0.0000 0.0000
# 2 41.9750 77.4287 24.8164 0.0000 0.0000 0.0000
# 3 43.1818 24.8164 127.1819 0.0000 0.0000 0.0000
# 4 0.0000 0.0000 0.0000 14.8062 0.0000 0.0000
# 5 0.0000 0.0000 0.0000 0.0000 13.4979 0.0000
# 6 0.0000 0.0000 0.0000 0.0000 0.0000 13.5632
#
#
#
# Elastic Compliance Matrix: (Units=1/GPa)
#
#
# Indices 1 2 3 4 5 6 
#
# 1 0.009943 -0.004596 -0.002479 0.000000 0.000000 0.000000
# 2 -0.004596 0.015901 -0.001542 0.000000 0.000000 0.000000
# 3 -0.002479 -0.001542 0.009005 0.000000 0.000000 0.000000
# 4 0.000000 0.000000 0.000000 0.067539 0.000000 0.000000
# 5 0.000000 0.000000 0.000000 0.000000 0.074085 0.000000
# 6 0.000000 0.000000 0.000000 0.000000 0.000000 0.073729
#
#
# Mechanical properties :
#
#
# Convention : Reuss Voigt Hill
#
# Bulk Modulus (GPa) = 56.76977 61.69937 59.23457
# Shear Modulus (GPa) = 18.29427 23.39846 20.84637
#
# Velocity S-wave (km/s) = 2.95517 3.34209 3.15457
# Velocity P-wave (km/s) = 6.22446 6.65927 6.44553
#
# Compressibility (1/GPa) = 0.01761501
#
# Stress axis : x y z
#
# Youngs Moduli (GPa) = 100.56967 62.88975 111.04357
#
# Poissons Ratio (x) = 0.28903 0.27531
# Poissons Ratio (y) = 0.46220 0.17126
# Poissons Ratio (z) = 0.24934 0.09699
#
# Static dielectric constant tensor:
#      x y z
#    x 1.784650 0.000000 0.000000 
#    y 0.000000 1.827580 0.000000 
#    z 0.000000 0.000000 1.780000 
# 
# From -- ./inp_files/52995.got.cif
#   From: 2010.05.17/outbox.cif.g08.bks.cpg/sg66_27_cif.got.tgz:52995.got - 2010.06.03 17:51:23.
