data_PCOD9496611
_publ_section_title
;
Structure prediction by ZEFSAII (Michael W. Deem and Ramdas Pophale) SiO2 
 PCOD9496611
Probable space group: C C C M
;
_chemical_formula_sum "Si O2"
_cell_formula_units_Z 116
_cell_length_a 8.803165
_cell_length_b 30.973203
_cell_length_c 21.909169
_cell_angle_alpha 90.000000
_cell_angle_beta 90.000000
_cell_angle_gamma 90.000000
_cell_volume 5973.802583
_symmetry_space_group_name_H-M "C C C M"
_symmetry_group_IT_number 66
_symmetry_cell_setting 'orthorhombic'
loop_
_space_group_symop_operation_xyz
x,y,z
-x,-y,z
x,-y,1/2-z
-x,y,1/2-z
-x,-y,-z
x,y,-z
-x,y,1/2+z
x,-y,1/2+z
1/2+x,1/2+y,z
1/2-x,1/2-y,z
1/2+x,1/2-y,1/2-z
1/2-x,1/2+y,1/2-z
1/2-x,1/2-y,-z
1/2+x,1/2+y,-z
1/2-x,1/2+y,1/2+z
1/2+x,1/2-y,1/2+z
loop_
_atom_site_type_symbol
_atom_site_label
_atom_site_fract_x
_atom_site_fract_y
_atom_site_fract_z
Si Si1 0.325716 0.789292 0.235377
Si Si2 0.257238 0.565240 0.258866
Si Si3 0.085591 0.292977 0.072029
Si Si4 0.631800 0.124332 0.928586
Si Si5 0.000000 0.000000 0.750000
Si Si6 0.621041 0.296354 0.642383
Si Si7 0.155846 0.140432 0.326164
Si Si8 0.986931 0.550069 0.652962
O O1 0.250000 0.750000 0.199289
O O2 0.220344 0.792562 0.295600
O O3 0.299236 0.831920 0.197865
O O4 0.000000 0.718098 0.250000
O O5 0.382892 0.531767 0.283082
O O6 0.346300 0.604537 0.226688
O O7 0.133650 0.569911 0.312004
O O8 0.150935 0.549396 0.202500
O O9 0.252097 0.310211 0.092711
O O10 0.063350 0.249664 0.113893
O O11 0.964079 0.331190 0.081137
O O12 0.085395 0.281414 0.000000
O O13 0.789411 0.124202 0.891582
O O14 0.546108 0.083054 0.901085
O O15 0.655822 0.120475 0.000000
O O16 0.488021 0.328965 0.661723
O O17 0.000000 0.500000 0.634589
#
# Coordination Sequence:
#
# PCOD9496611 Si02
#       8
#    16  16  16  16   4  16  16  16
#     4  12  25  38  56  86 126 162 201 250 312 371
#     4  10  22  36  60  93 130 156 200 244 313 393
#     4  10  22  41  62  85 118 175 225 265 308 367
#     4  10  24  42  64  91 120 163 221 268 312 369
#     4  12  20  34  60  92 130 158 192 252 308 384
#     4  11  22  39  59  87 125 168 209 258 314 379
#     4  11  26  37  61  94 125 164 203 261 318 375
#     4  10  19  41  63  91 125 168 201 252 321 388
#
# _framework density 19.418118
#
# number of rings (size 3 to 8) (size 9 to 14) (size 15 to 20)
#    0.000    1.379    2.759    3.310    9.655    1.379 
#    0.000    1.379    0.000    0.000    0.000    2.414 
#    0.000    0.000    0.000    0.000    0.000    0.000 
#
# Total GULP energy -323117.622524 kJ/mol
# GULP energy per Si atom -5570.993492 kJ/mol
# Density = 1.937392 g / cm^3
# Si number density = 19.418118 Si / 1000 Ang^3
#
#
#
# Elastic Constant Matrix: (Units=GPa)
#
#
# Indices 1 2 3 4 5 6 
#
# 1 120.2917 49.9943 34.1753 0.0000 0.0000 0.0000
# 2 49.9943 95.3869 49.2300 0.0000 0.0000 0.0000
# 3 34.1753 49.2300 105.7473 0.0000 0.0000 0.0000
# 4 0.0000 0.0000 0.0000 16.3243 0.0000 0.0000
# 5 0.0000 0.0000 0.0000 0.0000 13.5946 0.0000
# 6 0.0000 0.0000 0.0000 0.0000 0.0000 32.9961
#
#
#
# Elastic Compliance Matrix: (Units=1/GPa)
#
#
# Indices 1 2 3 4 5 6 
#
# 1 0.010728 -0.005046 -0.001118 0.000000 0.000000 0.000000
# 2 -0.005046 0.016172 -0.005898 0.000000 0.000000 0.000000
# 3 -0.001118 -0.005898 0.012564 0.000000 0.000000 0.000000
# 4 0.000000 0.000000 0.000000 0.061258 0.000000 0.000000
# 5 0.000000 0.000000 0.000000 0.000000 0.073558 0.000000
# 6 0.000000 0.000000 0.000000 0.000000 0.000000 0.030307
#
#
# Mechanical properties :
#
#
# Convention : Reuss Voigt Hill
#
# Bulk Modulus (GPa) = 65.18930 65.35834 65.27382
# Shear Modulus (GPa) = 21.38357 25.11809 23.25083
#
# Velocity S-wave (km/s) = 3.32206 3.60048 3.46407
# Velocity P-wave (km/s) = 6.95407 7.14256 7.04894
#
# Compressibility (1/GPa) = 0.01533994
#
# Stress axis : x y z
#
# Youngs Moduli (GPa) = 93.21602 61.83418 79.59418
#
# Poissons Ratio (x) = 0.31199 0.08899
# Poissons Ratio (y) = 0.47033 0.46947
# Poissons Ratio (z) = 0.10422 0.36471
#
# Static dielectric constant tensor:
#      x y z
#    x 1.709780 0.000000 0.000000 
#    y 0.000000 1.990490 0.000000 
#    z 0.000000 0.000000 1.678040 
# 
# From -- ./inp_files/55994.got.cif
#   From: 2010.05.17/outbox.cif.g08.bks.cpg/sg66_28_cif.got.tgz:55994.got - 2010.06.03 17:51:23.
