data_PCOD9496192
_publ_section_title
;
Structure prediction by ZEFSAII (Michael W. Deem and Ramdas Pophale) SiO2 
 PCOD9496192
Probable space group: C C C M
;
_chemical_formula_sum "Si O2"
_cell_formula_units_Z 96
_cell_length_a 26.153031
_cell_length_b 8.718260
_cell_length_c 25.991935
_cell_angle_alpha 90.000000
_cell_angle_beta 90.000000
_cell_angle_gamma 90.000000
_cell_volume 5926.393133
_symmetry_space_group_name_H-M "C C C M"
_symmetry_group_IT_number 66
_symmetry_cell_setting 'orthorhombic'
loop_
_space_group_symop_operation_xyz
x,y,z
-x,-y,z
x,-y,1/2-z
-x,y,1/2-z
-x,-y,-z
x,y,-z
-x,y,1/2+z
x,-y,1/2+z
1/2+x,1/2+y,z
1/2-x,1/2-y,z
1/2+x,1/2-y,1/2-z
1/2-x,1/2+y,1/2-z
1/2-x,1/2-y,-z
1/2+x,1/2+y,-z
1/2-x,1/2+y,1/2+z
1/2+x,1/2-y,1/2+z
loop_
_atom_site_type_symbol
_atom_site_label
_atom_site_fract_x
_atom_site_fract_y
_atom_site_fract_z
Si Si1 0.693696 0.827034 0.060762
Si Si2 0.278978 0.104222 0.372171
Si Si3 0.058866 0.177246 0.237168
Si Si4 0.785884 0.888450 0.204253
Si Si5 0.865167 0.404922 0.797878
Si Si6 0.879933 0.278606 0.649394
O O1 0.750000 0.750000 0.071831
O O2 0.644299 0.763526 0.092417
O O3 0.698879 0.998798 0.082839
O O4 0.685960 0.817914 0.000000
O O5 0.250000 0.250000 0.393379
O O6 0.321543 0.168776 0.332592
O O7 0.244042 0.989134 0.338183
O O8 0.094310 0.290025 0.272140
O O9 0.070759 0.203944 0.176451
O O10 0.000000 0.210588 0.250000
O O11 0.069202 0.000000 0.250000
O O12 0.750000 0.750000 0.222758
O O13 0.834561 0.803222 0.181216
O O14 0.800412 0.000000 0.250000
O O15 0.841584 0.500000 0.750000
O O16 0.885543 0.542175 0.834654
#
# Coordination Sequence:
#
# PCOD9496192 Si02
#       6
#    16  16  16  16  16  16
#     4  10  19  36  54  72 105 146 188 231 265 308
#     4  11  21  30  47  75 105 142 181 215 268 310
#     4  10  22  36  52  77 109 141 174 217 274 330
#     4  12  21  30  45  73 110 144 177 207 254 321
#     4   9  19  32  45  69 100 139 174 210 258 315
#     4  10  19  34  50  74 101 138 181 215 258 319
#
# _framework density 16.198723000000001
#
# number of rings (size 3 to 8) (size 9 to 14) (size 15 to 20)
#    0.000    1.667    5.000    1.500    9.333    3.333 
#    0.000    0.000    0.000    0.000    0.000   11.667 
#    0.000    0.000    0.000    0.000    0.000    0.000 
#
# Total GULP energy -267221.681735 kJ/mol
# GULP energy per Si atom -5567.118369 kJ/mol
# Density = 1.616185 g / cm^3
# Si number density = 16.198723 Si / 1000 Ang^3
#
#
#
# Elastic Constant Matrix: (Units=GPa)
#
#
# Indices 1 2 3 4 5 6 
#
# 1 73.3078 24.8013 38.6599 0.0000 0.0000 0.0000
# 2 24.8013 73.6077 28.5600 0.0000 0.0000 0.0000
# 3 38.6599 28.5600 102.3684 0.0000 0.0000 0.0000
# 4 0.0000 0.0000 0.0000 16.8867 0.0000 0.0000
# 5 0.0000 0.0000 0.0000 0.0000 19.0768 0.0000
# 6 0.0000 0.0000 0.0000 0.0000 0.0000 24.8329
#
#
#
# Elastic Compliance Matrix: (Units=1/GPa)
#
#
# Indices 1 2 3 4 5 6 
#
# 1 0.017948 -0.003832 -0.005709 0.000000 0.000000 0.000000
# 2 -0.003832 0.016053 -0.003031 0.000000 0.000000 0.000000
# 3 -0.005709 -0.003031 0.012770 0.000000 0.000000 0.000000
# 4 0.000000 0.000000 0.000000 0.059218 0.000000 0.000000
# 5 0.000000 0.000000 0.000000 0.000000 0.052420 0.000000
# 6 0.000000 0.000000 0.000000 0.000000 0.000000 0.040269
#
#
# Mechanical properties :
#
#
# Convention : Reuss Voigt Hill
#
# Bulk Modulus (GPa) = 46.24020 48.14736 47.19378
# Shear Modulus (GPa) = 21.64190 22.64347 22.14268
#
# Velocity S-wave (km/s) = 3.65913 3.74285 3.70123
# Velocity P-wave (km/s) = 6.81615 6.96175 6.88934
#
# Compressibility (1/GPa) = 0.02162620
#
# Stress axis : x y z
#
# Youngs Moduli (GPa) = 55.71515 62.29374 78.30591
#
# Poissons Ratio (x) = 0.23873 0.44706
# Poissons Ratio (y) = 0.21352 0.23737
# Poissons Ratio (z) = 0.31808 0.18883
#
# Static dielectric constant tensor:
#      x y z
#    x 1.581950 0.000000 0.000000 
#    y 0.000000 1.563760 0.000000 
#    z 0.000000 0.000000 1.554070 
# 
# From -- ./inp_files/62919.got.cif
#   From: 2010.05.17/outbox.cif.g08.bks.cpg/sg66_32_cif.got.tgz:62919.got - 2010.06.03 17:51:23.
