data_PCOD9496153
_publ_section_title
;
Structure prediction by ZEFSAII (Michael W. Deem and Ramdas Pophale) SiO2 
 PCOD9496153
Probable space group: C C C M
;
_chemical_formula_sum "Si O2"
_cell_formula_units_Z 104
_cell_length_a 16.548424
_cell_length_b 20.939682
_cell_length_c 14.358814
_cell_angle_alpha 90.000000
_cell_angle_beta 90.000000
_cell_angle_gamma 90.000000
_cell_volume 4975.598080
_symmetry_space_group_name_H-M "C C C M"
_symmetry_group_IT_number 66
_symmetry_cell_setting 'orthorhombic'
loop_
_space_group_symop_operation_xyz
x,y,z
-x,-y,z
x,-y,1/2-z
-x,y,1/2-z
-x,-y,-z
x,y,-z
-x,y,1/2+z
x,-y,1/2+z
1/2+x,1/2+y,z
1/2-x,1/2-y,z
1/2+x,1/2-y,1/2-z
1/2-x,1/2+y,1/2-z
1/2-x,1/2-y,-z
1/2+x,1/2+y,-z
1/2-x,1/2+y,1/2+z
1/2+x,1/2-y,1/2+z
loop_
_atom_site_type_symbol
_atom_site_label
_atom_site_fract_x
_atom_site_fract_y
_atom_site_fract_z
Si Si1 0.294353 0.908626 0.600924
Si Si2 0.750000 0.250000 0.788281
Si Si3 0.858209 0.923933 0.388996
Si Si4 0.696437 0.122166 0.804709
Si Si5 0.104212 0.936625 0.605152
Si Si6 0.915875 0.472812 0.108045
Si Si7 0.587351 0.677020 0.748009
O O1 0.312715 0.878482 0.500000
O O2 0.305082 0.867911 0.693726
O O3 0.201718 0.930606 0.598979
O O4 0.351038 0.970201 0.611997
O O5 0.713901 0.191224 0.846643
O O6 0.669265 0.280970 0.739134
O O7 0.845169 0.922871 0.500000
O O8 0.772252 0.921848 0.335082
O O9 0.901066 0.861015 0.349303
O O10 0.906455 0.989148 0.366931
O O11 0.616967 0.086917 0.836275
O O12 0.070899 0.927185 0.500000
O O13 0.082029 0.880658 0.676343
O O14 0.000000 0.500000 0.142028
O O15 0.925076 0.454360 0.000000
O O16 0.500000 0.710994 0.750000
#
# Coordination Sequence:
#
# PCOD9496153 Si02
#       7
#    16   8  16  16  16  16  16
#     4  10  19  33  57  87 120 156 200 255 316 383
#     4  10  24  44  60  86 120 172 224 262 294 378
#     4  10  20  35  62  95 124 154 193 248 313 383
#     4  11  20  37  60  85 121 168 215 252 313 374
#     4  10  19  35  62  94 122 153 192 246 314 376
#     4  10  21  36  58  93 129 157 202 272 339 394
#     4  11  24  43  63  86 123 164 208 257 308 364
#
# _framework density 20.902009
#
# number of rings (size 3 to 8) (size 9 to 14) (size 15 to 20)
#    0.000    1.692    4.615    1.385    0.000    3.077 
#    2.769   12.692    0.000    0.000    0.000    0.000 
#    0.000    0.000    0.000    0.000    0.000    0.000 
#
# Total GULP energy -289955.854423 kJ/mol
# GULP energy per Si atom -5576.074124 kJ/mol
# Density = 2.085444 g / cm^3
# Si number density = 20.902009 Si / 1000 Ang^3
#
#
#
# Elastic Constant Matrix: (Units=GPa)
#
#
# Indices 1 2 3 4 5 6 
#
# 1 127.0342 38.0069 20.0913 0.0000 0.0000 0.0000
# 2 38.0069 79.1925 27.2555 0.0000 0.0000 0.0000
# 3 20.0913 27.2555 98.5535 0.0000 0.0000 0.0000
# 4 0.0000 0.0000 0.0000 5.2493 0.0000 0.0000
# 5 0.0000 0.0000 0.0000 0.0000 18.8898 0.0000
# 6 0.0000 0.0000 0.0000 0.0000 0.0000 24.0269
#
#
#
# Elastic Compliance Matrix: (Units=1/GPa)
#
#
# Indices 1 2 3 4 5 6 
#
# 1 0.009239 -0.004184 -0.000726 0.000000 0.000000 0.000000
# 2 -0.004184 0.015851 -0.003531 0.000000 0.000000 0.000000
# 3 -0.000726 -0.003531 0.011271 0.000000 0.000000 0.000000
# 4 0.000000 0.000000 0.000000 0.190503 0.000000 0.000000
# 5 0.000000 0.000000 0.000000 0.000000 0.052939 0.000000
# 6 0.000000 0.000000 0.000000 0.000000 0.000000 0.041620
#
#
# Mechanical properties :
#
#
# Convention : Reuss Voigt Hill
#
# Bulk Modulus (GPa) = 51.33811 52.83196 52.08504
# Shear Modulus (GPa) = 14.50131 24.26163 19.38147
#
# Velocity S-wave (km/s) = 2.63682 3.41065 3.04839
# Velocity P-wave (km/s) = 5.82109 6.39069 6.11253
#
# Compressibility (1/GPa) = 0.01947871
#
# Stress axis : x y z
#
# Youngs Moduli (GPa) = 108.24234 63.08927 88.72122
#
# Poissons Ratio (x) = 0.26396 0.06444
# Poissons Ratio (y) = 0.45287 0.31324
# Poissons Ratio (z) = 0.07862 0.22275
#
# Static dielectric constant tensor:
#      x y z
#    x 1.807250 0.000000 0.000000 
#    y 0.000000 1.753450 0.000000 
#    z 0.000000 0.000000 1.794260 
# 
# From -- ./inp_files/30211.got.cif
#   From: 2010.05.17/outbox.cif.g08.bks.cpg/sg66_16_cif.got.tgz:30211.got - 2010.06.03 17:51:23.
