data_PCOD9496511
_publ_section_title
;
Structure prediction by ZEFSAII (Michael W. Deem and Ramdas Pophale) SiO2 
 PCOD9496511
Probable space group: C C C M
;
_chemical_formula_sum "Si O2"
_cell_formula_units_Z 104
_cell_length_a 22.162981
_cell_length_b 14.599545
_cell_length_c 15.531517
_cell_angle_alpha 90.000000
_cell_angle_beta 90.000000
_cell_angle_gamma 90.000000
_cell_volume 5025.524234
_symmetry_space_group_name_H-M "C C C M"
_symmetry_group_IT_number 66
_symmetry_cell_setting 'orthorhombic'
loop_
_space_group_symop_operation_xyz
x,y,z
-x,-y,z
x,-y,1/2-z
-x,y,1/2-z
-x,-y,-z
x,y,-z
-x,y,1/2+z
x,-y,1/2+z
1/2+x,1/2+y,z
1/2-x,1/2-y,z
1/2+x,1/2-y,1/2-z
1/2-x,1/2+y,1/2-z
1/2-x,1/2-y,-z
1/2+x,1/2+y,-z
1/2-x,1/2+y,1/2+z
1/2+x,1/2-y,1/2+z
loop_
_atom_site_type_symbol
_atom_site_label
_atom_site_fract_x
_atom_site_fract_y
_atom_site_fract_z
Si Si1 0.583773 0.583943 0.602665
Si Si2 0.626422 0.793358 0.172746
Si Si3 0.796150 0.902988 0.296994
Si Si4 0.333989 0.083145 0.320253
Si Si5 0.564267 0.028787 0.600553
Si Si6 0.050832 0.871267 0.396368
Si Si7 0.250000 0.250000 0.834818
O O1 0.590946 0.595202 0.500000
O O2 0.643219 0.616727 0.651284
O O3 0.520159 0.630753 0.626952
O O4 0.573937 0.474914 0.618461
O O5 0.645595 0.826310 0.268550
O O6 0.586333 0.876795 0.140312
O O7 0.589926 0.700885 0.156719
O O8 0.690303 0.789317 0.120722
O O9 0.734403 0.906934 0.353328
O O10 0.778868 0.829755 0.223869
O O11 0.804537 0.000000 0.250000
O O12 0.330358 0.000000 0.250000
O O13 0.385475 0.048845 0.383609
O O14 0.556911 0.044137 0.500000
O O15 0.500000 0.000000 0.638465
O O16 0.056030 0.853741 0.500000
#
# Coordination Sequence:
#
# PCOD9496511 Si02
#       7
#    16  16  16  16  16  16   8
#     4   9  19  36  58  83 117 152 184 233 292 350
#     4  10  19  37  60  83 115 148 192 242 293 337
#     4  10  19  37  58  79 117 152 189 240 295 346
#     4   8  18  34  54  79 109 150 188 233 281 335
#     4  10  21  38  57  82 117 153 193 240 290 349
#     4   9  18  35  57  86 118 147 185 235 289 342
#     4  10  22  38  56  86 116 148 200 256 292 336
#
# _framework density 20.694358000000001
#
# number of rings (size 3 to 8) (size 9 to 14) (size 15 to 20)
#    0.000    2.615    0.000    3.231    0.000    3.385 
#    8.308    8.077    0.000    0.000    0.000    0.000 
#    0.000    0.000    0.000    1.692    0.000    0.000 
#
# Total GULP energy -290081.525187 kJ/mol
# GULP energy per Si atom -5578.490869 kJ/mol
# Density = 2.064726 g / cm^3
# Si number density = 20.694358 Si / 1000 Ang^3
#
#
#
# Elastic Constant Matrix: (Units=GPa)
#
#
# Indices 1 2 3 4 5 6 
#
# 1 200.9748 49.9260 39.3942 0.0000 0.0000 0.0000
# 2 49.9260 87.0938 19.0739 0.0000 0.0000 0.0000
# 3 39.3942 19.0739 21.3207 0.0000 0.0000 0.0000
# 4 0.0000 0.0000 0.0000 12.6238 0.0000 0.0000
# 5 0.0000 0.0000 0.0000 0.0000 28.6010 0.0000
# 6 0.0000 0.0000 0.0000 0.0000 0.0000 39.5085
#
#
#
# Elastic Compliance Matrix: (Units=1/GPa)
#
#
# Indices 1 2 3 4 5 6 
#
# 1 0.007993 -0.001676 -0.013270 0.000000 0.000000 0.000000
# 2 -0.001676 0.014631 -0.009993 0.000000 0.000000 0.000000
# 3 -0.013270 -0.009993 0.080361 0.000000 0.000000 0.000000
# 4 0.000000 0.000000 0.000000 0.079216 0.000000 0.000000
# 5 0.000000 0.000000 0.000000 0.000000 0.034964 0.000000
# 6 0.000000 0.000000 0.000000 0.000000 0.000000 0.025311
#
#
# Mechanical properties :
#
#
# Convention : Reuss Voigt Hill
#
# Bulk Modulus (GPa) = 18.82933 58.46418 38.64676
# Shear Modulus (GPa) = 16.12619 29.54633 22.83626
#
# Velocity S-wave (km/s) = 2.79454 3.78265 3.32550
# Velocity P-wave (km/s) = 4.41941 6.88408 5.78454
#
# Compressibility (1/GPa) = 0.05310863
#
# Stress axis : x y z
#
# Youngs Moduli (GPa) = 125.10737 68.34793 12.44387
#
# Poissons Ratio (x) = 0.11455 0.16513
# Poissons Ratio (y) = 0.20967 0.12435
# Poissons Ratio (z) = 1.66013 0.68298
#
# Static dielectric constant tensor:
#      x y z
#    x 1.807680 0.000000 0.000000 
#    y 0.000000 1.753980 0.000000 
#    z 0.000000 0.000000 1.748540 
# 
# From -- ./inp_files/42944.got.cif
#   From: 2010.05.17/outbox.cif.g08.bks.cpg/sg66_22_cif.got.tgz:42944.got - 2010.06.03 17:51:23.
