data_PCOD9496919
_publ_section_title
;
Structure prediction by ZEFSAII (Michael W. Deem and Ramdas Pophale) SiO2 
 PCOD9496919
Probable space group: C C C M
;
_chemical_formula_sum "Si O2"
_cell_formula_units_Z 112
_cell_length_a 30.263892
_cell_length_b 10.894477
_cell_length_c 14.323171
_cell_angle_alpha 90.000000
_cell_angle_beta 90.000000
_cell_angle_gamma 90.000000
_cell_volume 4722.482331
_symmetry_space_group_name_H-M "C C C M"
_symmetry_group_IT_number 66
_symmetry_cell_setting 'orthorhombic'
loop_
_space_group_symop_operation_xyz
x,y,z
-x,-y,z
x,-y,1/2-z
-x,y,1/2-z
-x,-y,-z
x,y,-z
-x,y,1/2+z
x,-y,1/2+z
1/2+x,1/2+y,z
1/2-x,1/2-y,z
1/2+x,1/2-y,1/2-z
1/2-x,1/2+y,1/2-z
1/2-x,1/2-y,-z
1/2+x,1/2+y,-z
1/2-x,1/2+y,1/2+z
1/2+x,1/2-y,1/2+z
loop_
_atom_site_type_symbol
_atom_site_label
_atom_site_fract_x
_atom_site_fract_y
_atom_site_fract_z
Si Si1 0.297856 0.267926 0.340134
Si Si2 0.142351 0.869557 0.297891
Si Si3 0.678498 0.007365 0.896021
Si Si4 0.728439 0.459073 0.393054
Si Si5 0.056347 0.763860 0.319175
Si Si6 0.461312 0.734089 0.106981
Si Si7 0.922967 0.508389 0.890269
O O1 0.250000 0.250000 0.292402
O O2 0.342663 0.274936 0.281314
O O3 0.306326 0.149187 0.402001
O O4 0.290061 0.400793 0.386179
O O5 0.189058 0.883816 0.348899
O O6 0.101876 0.819738 0.356918
O O7 0.132266 0.000000 0.250000
O O8 0.628590 0.002997 0.860830
O O9 0.722230 0.948480 0.849711
O O10 0.675360 0.954981 0.000000
O O11 0.732748 0.425824 0.500000
O O12 0.056236 0.807806 0.210153
O O13 0.057531 0.616501 0.327414
O O14 0.012987 0.796538 0.377712
O O15 0.448574 0.878961 0.110704
O O16 0.447860 0.694421 0.000000
O O17 0.924854 0.547635 0.000000
#
# Coordination Sequence:
#
# PCOD9496919 Si02
#       7
#    16  16  16  16  16  16  16
#     4   9  17  31  52  76 105 147 195 239 284 337
#     4  10  22  38  55  81 115 152 196 244 291 344
#     4   9  17  31  54  85 117 148 188 239 291 348
#     4   9  18  33  53  79 114 154 194 238 288 345
#     4  11  22  38  61  83 112 154 193 235 297 361
#     4  10  22  40  61  87 116 146 189 245 298 352
#     4  10  20  34  56  88 123 154 189 236 291 356
#
# _framework density 23.716341
#
# number of rings (size 3 to 8) (size 9 to 14) (size 15 to 20)
#    0.000    2.286    0.000    2.571    0.000    6.286 
#    0.000    8.571    0.000    3.857    0.000    0.000 
#    0.000    1.143    0.000    0.000    0.000    0.000 
#
# Total GULP energy -311901.138914 kJ/mol
# GULP energy per Si atom -5569.663195 kJ/mol
# Density = 2.366236 g / cm^3
# Si number density = 23.716341 Si / 1000 Ang^3
#
#
#
# Elastic Constant Matrix: (Units=GPa)
#
#
# Indices 1 2 3 4 5 6 
#
# 1 129.2295 3.9279 11.4039 0.0000 0.0000 0.0000
# 2 3.9279 9.6042 6.3703 0.0000 0.0000 0.0000
# 3 11.4039 6.3703 88.8997 0.0000 0.0000 0.0000
# 4 0.0000 0.0000 0.0000 -3.3382 0.0000 0.0000
# 5 0.0000 0.0000 0.0000 0.0000 24.4657 0.0000
# 6 0.0000 0.0000 0.0000 0.0000 0.0000 28.7293
#
#
#
# Elastic Compliance Matrix: (Units=1/GPa)
#
#
# Indices 1 2 3 4 5 6 
#
# 1 0.007892 -0.002684 -0.000820 0.000000 0.000000 0.000000
# 2 -0.002684 0.110230 -0.007554 0.000000 0.000000 0.000000
# 3 -0.000820 -0.007554 0.011895 0.000000 0.000000 0.000000
# 4 0.000000 0.000000 0.000000 -0.299564 0.000000 0.000000
# 5 0.000000 0.000000 0.000000 0.000000 0.040874 0.000000
# 6 0.000000 0.000000 0.000000 0.000000 0.000000 0.034808
#
#
# Mechanical properties :
#
#
# Convention : Reuss Voigt Hill
#
# Bulk Modulus (GPa) = 9.26782 30.12641 19.69711
# Shear Modulus (GPa) = -139.73314 23.70677 -58.01318
#
# Velocity S-wave (km/s) = -7.68417 3.16507 -4.95120
# Velocity P-wave (km/s) = 8.64941 5.10757 4.93584
#
# Compressibility (1/GPa) = 0.10790023
#
# Stress axis : x y z
#
# Youngs Moduli (GPa) = 126.70877 9.07197 84.06773
#
# Poissons Ratio (x) = 0.02435 0.06894
# Poissons Ratio (y) = 0.34006 0.63509
# Poissons Ratio (z) = 0.10391 0.06853
#
# Static dielectric constant tensor:
#      x y z
#    x 1.927840 0.000000 0.000000 
#    y 0.000000 1.924930 0.000000 
#    z 0.000000 0.000000 1.702460 
# 
# From -- ./inp_files/33819.got.cif
#   From: 2010.05.17/outbox.cif.g08.bks.cpg/sg66_17_cif.got.tgz:33819.got - 2010.06.03 17:51:23.
