data_PCOD9496474
_publ_section_title
;
Structure prediction by ZEFSAII (Michael W. Deem and Ramdas Pophale) SiO2 
 PCOD9496474
Probable space group: C C C M
;
_chemical_formula_sum "Si O2"
_cell_formula_units_Z 88
_cell_length_a 14.995287
_cell_length_b 12.381218
_cell_length_c 22.355850
_cell_angle_alpha 90.000000
_cell_angle_beta 90.000000
_cell_angle_gamma 90.000000
_cell_volume 4150.585263
_symmetry_space_group_name_H-M "C C C M"
_symmetry_group_IT_number 66
_symmetry_cell_setting 'orthorhombic'
loop_
_space_group_symop_operation_xyz
x,y,z
-x,-y,z
x,-y,1/2-z
-x,y,1/2-z
-x,-y,-z
x,y,-z
-x,y,1/2+z
x,-y,1/2+z
1/2+x,1/2+y,z
1/2-x,1/2-y,z
1/2+x,1/2-y,1/2-z
1/2-x,1/2+y,1/2-z
1/2-x,1/2-y,-z
1/2+x,1/2+y,-z
1/2-x,1/2+y,1/2+z
1/2+x,1/2-y,1/2+z
loop_
_atom_site_type_symbol
_atom_site_label
_atom_site_fract_x
_atom_site_fract_y
_atom_site_fract_z
Si Si1 0.006933 0.379442 0.878481
Si Si2 0.000000 0.325394 0.750000
Si Si3 0.898228 0.027611 0.864112
Si Si4 0.843991 0.799974 0.119869
Si Si5 0.335873 0.678926 0.764479
Si Si6 0.144140 0.243623 0.430078
O O1 0.079464 0.287237 0.896633
O O2 0.000000 0.500000 0.904302
O O3 0.031147 0.390198 0.807761
O O4 0.910409 0.331749 0.893354
O O5 0.924681 0.247385 0.776054
O O6 0.844983 0.072153 0.805302
O O7 0.892249 0.128683 0.908225
O O8 0.862793 0.922371 0.899156
O O9 0.000000 0.000000 0.845729
O O10 0.750000 0.750000 0.101114
O O11 0.837999 0.823823 0.192078
O O12 0.250000 0.750000 0.780962
O O13 0.126752 0.259641 0.500000
O O14 0.250000 0.250000 0.420331
#
# Coordination Sequence:
#
# PCOD9496474 Si02
#       6
#    16   8  16  16  16  16
#     4  11  23  41  64  94 134 172 212 268 326 396
#     4  10  19  36  59  98 130 169 217 256 324 396
#     4  12  21  40  67  93 127 173 217 281 330 384
#     4  10  23  38  57  98 135 170 211 258 329 399
#     4  10  20  35  59  92 134 173 214 255 317 395
#     4  11  26  47  70  96 124 173 235 278 328 394
#
# _framework density 21.201829
#
# number of rings (size 3 to 8) (size 9 to 14) (size 15 to 20)
#    0.000    1.273    3.636    2.455    2.545    1.455 
#    0.000    5.455    0.000    1.091    0.000    0.000 
#    0.000    0.000    0.000    0.000    0.000    0.000 
#
# Total GULP energy -245231.588170 kJ/mol
# GULP energy per Si atom -5573.445186 kJ/mol
# Density = 2.115357 g / cm^3
# Si number density = 21.201829 Si / 1000 Ang^3
#
#
#
# Elastic Constant Matrix: (Units=GPa)
#
#
# Indices 1 2 3 4 5 6 
#
# 1 118.6560 55.8561 3.8409 0.0000 0.0000 0.0000
# 2 55.8561 170.6798 -4.2978 0.0000 0.0000 0.0000
# 3 3.8409 -4.2978 52.9501 0.0000 0.0000 0.0000
# 4 0.0000 0.0000 0.0000 13.1293 0.0000 0.0000
# 5 0.0000 0.0000 0.0000 0.0000 13.4969 0.0000
# 6 0.0000 0.0000 0.0000 0.0000 0.0000 35.5296
#
#
#
# Elastic Compliance Matrix: (Units=1/GPa)
#
#
# Indices 1 2 3 4 5 6 
#
# 1 0.010014 -0.003302 -0.000994 0.000000 0.000000 0.000000
# 2 -0.003302 0.006960 0.000804 0.000000 0.000000 0.000000
# 3 -0.000994 0.000804 0.019023 0.000000 0.000000 0.000000
# 4 0.000000 0.000000 0.000000 0.076166 0.000000 0.000000
# 5 0.000000 0.000000 0.000000 0.000000 0.074091 0.000000
# 6 0.000000 0.000000 0.000000 0.000000 0.000000 0.028146
#
#
# Mechanical properties :
#
#
# Convention : Reuss Voigt Hill
#
# Bulk Modulus (GPa) = 34.46756 50.34269 42.40513
# Shear Modulus (GPa) = 21.63986 31.55696 26.59841
#
# Velocity S-wave (km/s) = 3.19824 3.86217 3.54578
# Velocity P-wave (km/s) = 5.47088 6.60943 6.06692
#
# Compressibility (1/GPa) = 0.02901278
#
# Stress axis : x y z
#
# Youngs Moduli (GPa) = 99.85562 143.68041 52.56760
#
# Poissons Ratio (x) = 0.47448 0.05228
# Poissons Ratio (y) = 0.32976 -0.04229
# Poissons Ratio (z) = 0.09930 -0.11558
#
# Static dielectric constant tensor:
#      x y z
#    x 1.758660 0.000000 0.000000 
#    y 0.000000 1.813390 0.000000 
#    z 0.000000 0.000000 1.824400 
# 
# From -- ./inp_files/64542.got.cif
#   From: 2010.05.17/outbox.cif.g08.bks.cpg/sg66_33_cif.got.tgz:64542.got - 2010.06.03 17:51:23.
