data_PCOD9496350
_publ_section_title
;
Structure prediction by ZEFSAII (Michael W. Deem and Ramdas Pophale) SiO2 
 PCOD9496350
Probable space group: C C C M
;
_chemical_formula_sum "Si O2"
_cell_formula_units_Z 96
_cell_length_a 10.295201
_cell_length_b 26.609036
_cell_length_c 19.928848
_cell_angle_alpha 90.000000
_cell_angle_beta 90.000000
_cell_angle_gamma 90.000000
_cell_volume 5459.415719
_symmetry_space_group_name_H-M "C C C M"
_symmetry_group_IT_number 66
_symmetry_cell_setting 'orthorhombic'
loop_
_space_group_symop_operation_xyz
x,y,z
-x,-y,z
x,-y,1/2-z
-x,y,1/2-z
-x,-y,-z
x,y,-z
-x,y,1/2+z
x,-y,1/2+z
1/2+x,1/2+y,z
1/2-x,1/2-y,z
1/2+x,1/2-y,1/2-z
1/2-x,1/2+y,1/2-z
1/2-x,1/2-y,-z
1/2+x,1/2+y,-z
1/2-x,1/2+y,1/2+z
1/2+x,1/2-y,1/2+z
loop_
_atom_site_type_symbol
_atom_site_label
_atom_site_fract_x
_atom_site_fract_y
_atom_site_fract_z
Si Si1 0.628765 0.969279 0.078950
Si Si2 0.437511 0.799709 0.823115
Si Si3 0.352005 0.316236 0.313210
Si Si4 0.858652 0.349991 0.420952
Si Si5 0.611814 0.359030 0.333947
Si Si6 0.859868 0.977556 0.177458
O O1 0.609821 0.909357 0.089232
O O2 0.748938 0.987486 0.123331
O O3 0.500000 0.000000 0.096477
O O4 0.655792 0.976541 0.000000
O O5 0.500000 0.810823 0.750000
O O6 0.399940 0.740788 0.824422
O O7 0.296691 0.825256 0.833252
O O8 0.540275 0.816878 0.878661
O O9 0.460703 0.349731 0.349288
O O10 0.358364 0.327798 0.233614
O O11 0.863033 0.339105 0.500000
O O12 0.714034 0.343511 0.390650
O O13 0.628995 0.417456 0.317232
O O14 0.825868 0.000000 0.250000
O O15 0.000000 0.000000 0.158446
#
# Coordination Sequence:
#
# PCOD9496350 Si02
#       6
#    16  16  16  16  16  16
#     4   9  20  39  58  78 111 150 185 225 278 341
#     4  11  20  35  58  84 111 142 191 233 274 334
#     4  10  20  33  57  81 110 144 190 230 273 333
#     4  10  22  39  58  83 115 150 188 231 285 339
#     4  10  19  35  56  79 113 150 184 232 282 338
#     4  10  20  33  52  83 115 141 182 235 282 325
#
# _framework density 17.584299000000001
#
# number of rings (size 3 to 8) (size 9 to 14) (size 15 to 20)
#    0.000    2.000    3.333    2.000    0.000    4.000 
#    0.000    4.167    0.000    0.000    0.000    1.167 
#    0.000    0.000    0.000    0.000    0.000    0.000 
#
# Total GULP energy -267694.284655 kJ/mol
# GULP energy per Si atom -5576.964264 kJ/mol
# Density = 1.754428 g / cm^3
# Si number density = 17.584299 Si / 1000 Ang^3
#
#
#
# Elastic Constant Matrix: (Units=GPa)
#
#
# Indices 1 2 3 4 5 6 
#
# 1 150.4355 49.0954 81.4688 0.0000 0.0000 0.0000
# 2 49.0954 47.3856 48.6286 0.0000 0.0000 0.0000
# 3 81.4688 48.6286 101.7298 0.0000 0.0000 0.0000
# 4 0.0000 0.0000 0.0000 -44.2434 0.0000 0.0000
# 5 0.0000 0.0000 0.0000 0.0000 35.3943 0.0000
# 6 0.0000 0.0000 0.0000 0.0000 0.0000 32.8690
#
#
#
# Elastic Compliance Matrix: (Units=1/GPa)
#
#
# Indices 1 2 3 4 5 6 
#
# 1 0.012357 -0.005197 -0.007412 0.000000 0.000000 0.000000
# 2 -0.005197 0.043610 -0.016685 0.000000 0.000000 0.000000
# 3 -0.007412 -0.016685 0.023741 0.000000 0.000000 0.000000
# 4 0.000000 0.000000 0.000000 -0.022602 0.000000 0.000000
# 5 0.000000 0.000000 0.000000 0.000000 0.028253 0.000000
# 6 0.000000 0.000000 0.000000 0.000000 0.000000 0.030424
#
#
# Mechanical properties :
#
#
# Convention : Reuss Voigt Hill
#
# Bulk Modulus (GPa) = 47.34429 73.10403 60.22416
# Shear Modulus (GPa) = 27.56171 12.82784 20.19478
#
# Velocity S-wave (km/s) = 3.96334 2.70387 3.39256
# Velocity P-wave (km/s) = 6.92291 7.17019 7.04763
#
# Compressibility (1/GPa) = 0.02112187
#
# Stress axis : x y z
#
# Youngs Moduli (GPa) = 80.92313 22.93051 42.12055
#
# Poissons Ratio (x) = 0.11916 0.31220
# Poissons Ratio (y) = 0.42054 0.70276
# Poissons Ratio (z) = 0.59981 0.38259
#
# Static dielectric constant tensor:
#      x y z
#    x 1.621160 0.000000 0.000000 
#    y 0.000000 1.621240 0.000000 
#    z 0.000000 0.000000 1.570090 
# 
# From -- ./inp_files/47331.got.cif
#   From: 2010.05.17/outbox.cif.g08.bks.cpg/sg66_24_cif.got.tgz:47331.got - 2010.06.03 17:51:23.
