data_PCOD9496055
_publ_section_title
;
Structure prediction by ZEFSAII (Michael W. Deem and Ramdas Pophale) SiO2 
 PCOD9496055
Probable space group: C C C M
;
_chemical_formula_sum "Si O2"
_cell_formula_units_Z 80
_cell_length_a 10.708147
_cell_length_b 24.510765
_cell_length_c 14.434464
_cell_angle_alpha 90.000000
_cell_angle_beta 90.000000
_cell_angle_gamma 90.000000
_cell_volume 3788.539785
_symmetry_space_group_name_H-M "C C C M"
_symmetry_group_IT_number 66
_symmetry_cell_setting 'orthorhombic'
loop_
_space_group_symop_operation_xyz
x,y,z
-x,-y,z
x,-y,1/2-z
-x,y,1/2-z
-x,-y,-z
x,y,-z
-x,y,1/2+z
x,-y,1/2+z
1/2+x,1/2+y,z
1/2-x,1/2-y,z
1/2+x,1/2-y,1/2-z
1/2-x,1/2+y,1/2-z
1/2-x,1/2-y,-z
1/2+x,1/2+y,-z
1/2-x,1/2+y,1/2+z
1/2+x,1/2-y,1/2+z
loop_
_atom_site_type_symbol
_atom_site_label
_atom_site_fract_x
_atom_site_fract_y
_atom_site_fract_z
Si Si1 0.144550 0.292426 0.146631
Si Si2 0.856095 0.016927 0.112271
Si Si3 0.439050 0.370489 0.612296
Si Si4 0.884701 0.749705 0.354069
Si Si5 0.276006 0.404242 0.111250
O O1 0.250000 0.250000 0.110007
O O2 0.134230 0.278968 0.255389
O O3 0.185295 0.355103 0.138315
O O4 0.008926 0.277858 0.105049
O O5 0.849598 0.079721 0.143476
O O6 0.769335 0.967212 0.145891
O O7 0.845939 0.018829 0.000000
O O8 0.000000 0.000000 0.131749
O O9 0.428013 0.364401 0.500000
O O10 0.412520 0.313370 0.658533
O O11 0.582295 0.385727 0.631871
O O12 0.750000 0.750000 0.402056
O O13 0.266451 0.407572 0.000000
#
# Coordination Sequence:
#
# PCOD9496055 Si02
#       5
#    16  16  16  16  16
#     4  10  19  33  50  71 100 141 181 215 259 312
#     4   7  12  24  45  77 107 128 154 206 271 311
#     4   9  16  29  51  78 108 135 168 214 266 322
#     4  10  21  33  47  70 104 146 175 211 265 315
#     4   9  16  28  52  82 105 129 172 223 265 313
#
# _framework density 21.116313999999999
#
# number of rings (size 3 to 8) (size 9 to 14) (size 15 to 20)
#    0.000    3.000    2.000    2.400    0.000    1.600 
#    0.000    0.000    0.000    6.000    0.000    9.800 
#    0.000    0.000    0.000    0.000    0.000    1.400 
#
# Total GULP energy -222909.955523 kJ/mol
# GULP energy per Si atom -5572.748888 kJ/mol
# Density = 2.106825 g / cm^3
# Si number density = 21.116314 Si / 1000 Ang^3
#
#
#
# Elastic Constant Matrix: (Units=GPa)
#
#
# Indices 1 2 3 4 5 6 
#
# 1 123.2138 57.2165 16.2754 0.0000 0.0000 0.0000
# 2 57.2165 221.3955 29.3220 0.0000 0.0000 0.0000
# 3 16.2754 29.3220 65.2888 0.0000 0.0000 0.0000
# 4 0.0000 0.0000 0.0000 22.2901 0.0000 0.0000
# 5 0.0000 0.0000 0.0000 0.0000 19.6076 0.0000
# 6 0.0000 0.0000 0.0000 0.0000 0.0000 34.2385
#
#
#
# Elastic Compliance Matrix: (Units=1/GPa)
#
#
# Indices 1 2 3 4 5 6 
#
# 1 0.009329 -0.002236 -0.001321 0.000000 0.000000 0.000000
# 2 -0.002236 0.005338 -0.001840 0.000000 0.000000 0.000000
# 3 -0.001321 -0.001840 0.016472 0.000000 0.000000 0.000000
# 4 0.000000 0.000000 0.000000 0.044863 0.000000 0.000000
# 5 0.000000 0.000000 0.000000 0.000000 0.051001 0.000000
# 6 0.000000 0.000000 0.000000 0.000000 0.000000 0.029207
#
#
# Mechanical properties :
#
#
# Convention : Reuss Voigt Hill
#
# Bulk Modulus (GPa) = 49.15270 68.39175 58.77222
# Shear Modulus (GPa) = 28.77094 35.69951 32.23523
#
# Velocity S-wave (km/s) = 3.69521 4.11617 3.91135
# Velocity P-wave (km/s) = 6.44467 7.41949 6.94919
#
# Compressibility (1/GPa) = 0.02034476
#
# Stress axis : x y z
#
# Youngs Moduli (GPa) = 107.19510 187.32391 60.70763
#
# Poissons Ratio (x) = 0.41884 0.08022
# Poissons Ratio (y) = 0.23968 0.11171
# Poissons Ratio (z) = 0.14164 0.34470
#
# Static dielectric constant tensor:
#      x y z
#    x 1.802070 0.000000 0.000000 
#    y 0.000000 1.785730 0.000000 
#    z 0.000000 0.000000 1.900380 
# 
# From -- ./inp_files/26416.got.cif
#   From: 2010.05.17/outbox.cif.g08.bks.cpg/sg66_14_cif.got.tgz:26416.got - 2010.06.03 17:51:23.
