data_PCOD9496228
_publ_section_title
;
Structure prediction by ZEFSAII (Michael W. Deem and Ramdas Pophale) SiO2 
 PCOD9496228
Probable space group: C C C M
;
_chemical_formula_sum "Si O2"
_cell_formula_units_Z 96
_cell_length_a 31.176872
_cell_length_b 21.085837
_cell_length_c 8.894678
_cell_angle_alpha 90.000000
_cell_angle_beta 90.000000
_cell_angle_gamma 90.000000
_cell_volume 5847.276294
_symmetry_space_group_name_H-M "C C C M"
_symmetry_group_IT_number 66
_symmetry_cell_setting 'orthorhombic'
loop_
_space_group_symop_operation_xyz
x,y,z
-x,-y,z
x,-y,1/2-z
-x,y,1/2-z
-x,-y,-z
x,y,-z
-x,y,1/2+z
x,-y,1/2+z
1/2+x,1/2+y,z
1/2-x,1/2-y,z
1/2+x,1/2-y,1/2-z
1/2-x,1/2+y,1/2-z
1/2-x,1/2-y,-z
1/2+x,1/2+y,-z
1/2-x,1/2+y,1/2+z
1/2+x,1/2-y,1/2+z
loop_
_atom_site_type_symbol
_atom_site_label
_atom_site_fract_x
_atom_site_fract_y
_atom_site_fract_z
Si Si1 0.933969 0.063968 0.824088
Si Si2 0.751275 0.566164 0.821284
Si Si3 0.151931 0.093309 0.827813
Si Si4 0.867242 0.757864 0.824683
Si Si5 0.785123 0.696031 0.319468
Si Si6 0.955641 0.793788 0.681225
O O1 0.883316 0.067697 0.786460
O O2 0.951310 0.131985 0.768964
O O3 0.950916 0.000000 0.750000
O O4 0.941446 0.060587 0.000000
O O5 0.766302 0.500000 0.750000
O O6 0.699927 0.571450 0.796956
O O7 0.771575 0.628272 0.746496
O O8 0.758736 0.566903 0.000000
O O9 0.149731 0.169532 0.818434
O O10 0.139915 0.075572 0.000000
O O11 0.831347 0.716173 0.743738
O O12 0.913464 0.759092 0.744378
O O13 0.871588 0.740652 0.000000
O O14 0.785918 0.693613 0.500000
O O15 0.750000 0.750000 0.275258
O O16 0.955989 0.791846 0.500000
O O17 0.000000 0.769133 0.750000
#
# Coordination Sequence:
#
# PCOD9496228 Si02
#       6
#    16  16  16  16  16  16
#     4  10  20  31  45  64  90 124 166 212 259 310
#     4  11  22  35  50  73 105 141 180 222 266 313
#     4   9  18  31  48  69  95 130 171 214 260 307
#     4  10  19  34  55  77 101 132 171 216 263 313
#     4  11  22  35  54  79 107 141 180 221 263 315
#     4  10  21  36  52  72  96 126 164 212 265 316
#
# _framework density 16.417901000000001
#
# number of rings (size 3 to 8) (size 9 to 14) (size 15 to 20)
#    0.000    1.833    1.667    3.000    0.000    6.333 
#    0.000    1.667    0.000    0.000    0.000    0.000 
#    0.000    0.667    0.000    6.667    0.000    4.000 
#
# Total GULP energy -268028.773410 kJ/mol
# GULP energy per Si atom -5583.932779 kJ/mol
# Density = 1.638053 g / cm^3
# Si number density = 16.417901 Si / 1000 Ang^3
#
#
#
# Elastic Constant Matrix: (Units=GPa)
#
#
# Indices 1 2 3 4 5 6 
#
# 1 108.5091 48.2504 54.1941 0.0000 0.0000 0.0000
# 2 48.2504 84.5724 41.7229 0.0000 0.0000 0.0000
# 3 54.1941 41.7229 64.9368 0.0000 0.0000 0.0000
# 4 0.0000 0.0000 0.0000 24.4729 0.0000 0.0000
# 5 0.0000 0.0000 0.0000 0.0000 20.3727 0.0000
# 6 0.0000 0.0000 0.0000 0.0000 0.0000 0.2512
#
#
#
# Elastic Compliance Matrix: (Units=1/GPa)
#
#
# Indices 1 2 3 4 5 6 
#
# 1 0.016623 -0.003865 -0.011390 0.000000 0.000000 0.000000
# 2 -0.003865 0.018210 -0.008475 0.000000 0.000000 0.000000
# 3 -0.011390 -0.008475 0.030350 0.000000 0.000000 0.000000
# 4 0.000000 0.000000 0.000000 0.040862 0.000000 0.000000
# 5 0.000000 0.000000 0.000000 0.000000 0.049085 0.000000
# 6 0.000000 0.000000 0.000000 0.000000 0.000000 3.981138
#
#
# Mechanical properties :
#
#
# Convention : Reuss Voigt Hill
#
# Bulk Modulus (GPa) = 56.41882 60.70590 58.56236
# Shear Modulus (GPa) = 1.19342 16.60941 8.90141
#
# Velocity S-wave (km/s) = 0.85351 3.18412 2.33100
# Velocity P-wave (km/s) = 5.95064 7.11153 6.55683
#
# Compressibility (1/GPa) = 0.01772458
#
# Stress axis : x y z
#
# Youngs Moduli (GPa) = 60.15812 54.91460 32.94848
#
# Poissons Ratio (x) = 0.21223 0.37528
# Poissons Ratio (y) = 0.23249 0.27924
# Poissons Ratio (z) = 0.68519 0.46540
#
# Static dielectric constant tensor:
#      x y z
#    x 1.548460 0.000000 0.000000 
#    y 0.000000 1.546150 0.000000 
#    z 0.000000 0.000000 1.553510 
# 
# From -- ./inp_files/7949.got.cif
#   From: 2010.05.17/outbox.cif.g08.bks.cpg/sg66_4_cif.got.tgz:7949.got - 2010.06.03 17:51:23.
