data_PCOD9496176
_publ_section_title
;
Structure prediction by ZEFSAII (Michael W. Deem and Ramdas Pophale) SiO2 
 PCOD9496176
Probable space group: C C C M
;
_chemical_formula_sum "Si O2"
_cell_formula_units_Z 112
_cell_length_a 32.824436
_cell_length_b 11.569293
_cell_length_c 13.420495
_cell_angle_alpha 90.000000
_cell_angle_beta 90.000000
_cell_angle_gamma 90.000000
_cell_volume 5096.507026
_symmetry_space_group_name_H-M "C C C M"
_symmetry_group_IT_number 66
_symmetry_cell_setting 'orthorhombic'
loop_
_space_group_symop_operation_xyz
x,y,z
-x,-y,z
x,-y,1/2-z
-x,y,1/2-z
-x,-y,-z
x,y,-z
-x,y,1/2+z
x,-y,1/2+z
1/2+x,1/2+y,z
1/2-x,1/2-y,z
1/2+x,1/2-y,1/2-z
1/2-x,1/2+y,1/2-z
1/2-x,1/2-y,-z
1/2+x,1/2+y,-z
1/2-x,1/2+y,1/2+z
1/2+x,1/2-y,1/2+z
loop_
_atom_site_type_symbol
_atom_site_label
_atom_site_fract_x
_atom_site_fract_y
_atom_site_fract_z
Si Si1 0.600790 0.571827 0.384854
Si Si2 0.555911 0.180759 0.379871
Si Si3 0.580433 0.931752 0.620044
Si Si4 0.472983 0.710643 0.120609
Si Si5 0.176655 0.440898 0.616975
Si Si6 0.629525 0.673375 0.188677
Si Si7 0.706954 0.812644 0.806211
O O1 0.606578 0.605423 0.500000
O O2 0.553406 0.596505 0.356724
O O3 0.626487 0.645627 0.306132
O O4 0.614192 0.441075 0.367382
O O5 0.556149 0.184730 0.500000
O O6 0.518618 0.261389 0.345452
O O7 0.598330 0.228380 0.341916
O O8 0.555348 0.046343 0.351774
O O9 0.580392 0.928657 0.500000
O O10 0.556164 0.817476 0.650837
O O11 0.628326 0.940216 0.646320
O O12 0.475793 0.711607 0.000000
O O13 0.179488 0.412129 0.500000
O O14 0.198956 0.352438 0.691594
O O15 0.196459 0.567968 0.635456
O O16 0.673805 0.717430 0.163142
O O17 0.750000 0.750000 0.819147
#
# Coordination Sequence:
#
# PCOD9496176 Si02
#       7
#    16  16  16  16  16  16  16
#     4  10  23  41  61  87 124 170 219 266 315 379
#     4  10  19  33  59  93 130 169 214 263 318 380
#     4   9  16  32  60  91 127 168 211 258 317 382
#     4   9  18  33  55  90 131 170 211 262 315 369
#     4  10  22  42  69  98 130 171 209 258 332 398
#     4  11  23  41  65  88 120 169 217 266 327 388
#     4  11  25  44  66  97 132 162 211 276 332 391
#
# _framework density 21.975835
#
# number of rings (size 3 to 8) (size 9 to 14) (size 15 to 20)
#    0.000    2.000    1.429    1.714    0.000    8.000 
#    0.000    5.000    0.000    1.714    0.000    0.000 
#    0.000    0.000    0.000    0.000    0.000    0.000 
#
# Total GULP energy -312991.577634 kJ/mol
# GULP energy per Si atom -5589.135315 kJ/mol
# Density = 2.192582 g / cm^3
# Si number density = 21.975835 Si / 1000 Ang^3
#
#
#
# Elastic Constant Matrix: (Units=GPa)
#
#
# Indices 1 2 3 4 5 6 
#
# 1 169.6514 50.0514 9.3345 0.0000 0.0000 0.0000
# 2 50.0514 82.6757 9.0808 0.0000 0.0000 0.0000
# 3 9.3345 9.0808 69.7924 0.0000 0.0000 0.0000
# 4 0.0000 0.0000 0.0000 17.0550 0.0000 0.0000
# 5 0.0000 0.0000 0.0000 0.0000 22.0484 0.0000
# 6 0.0000 0.0000 0.0000 0.0000 0.0000 26.6916
#
#
#
# Elastic Compliance Matrix: (Units=1/GPa)
#
#
# Indices 1 2 3 4 5 6 
#
# 1 0.007187 -0.004307 -0.000401 0.000000 0.000000 0.000000
# 2 -0.004307 0.014852 -0.001356 0.000000 0.000000 0.000000
# 3 -0.000401 -0.001356 0.014558 0.000000 0.000000 0.000000
# 4 0.000000 0.000000 0.000000 0.058634 0.000000 0.000000
# 5 0.000000 0.000000 0.000000 0.000000 0.045355 0.000000
# 6 0.000000 0.000000 0.000000 0.000000 0.000000 0.037465
#
#
# Mechanical properties :
#
#
# Convention : Reuss Voigt Hill
#
# Bulk Modulus (GPa) = 40.86829 51.00588 45.93709
# Shear Modulus (GPa) = 25.20975 30.06917 27.63946
#
# Velocity S-wave (km/s) = 3.39065 3.70304 3.55028
# Velocity P-wave (km/s) = 5.82803 6.44544 6.14450
#
# Compressibility (1/GPa) = 0.02446885
#
# Stress axis : x y z
#
# Youngs Moduli (GPa) = 139.13661 67.33145 68.68929
#
# Poissons Ratio (x) = 0.29000 0.02754
# Poissons Ratio (y) = 0.59927 0.09317
# Poissons Ratio (z) = 0.05577 0.09133
#
# Static dielectric constant tensor:
#      x y z
#    x 1.756750 0.000000 0.000000 
#    y 0.000000 1.865380 0.000000 
#    z 0.000000 0.000000 1.877200 
# 
# From -- ./inp_files/33832.got.cif
#   From: 2010.05.17/outbox.cif.g08.bks.cpg/sg66_17_cif.got.tgz:33832.got - 2010.06.03 17:51:23.
