data_PCOD9496744
_publ_section_title
;
Structure prediction by ZEFSAII (Michael W. Deem and Ramdas Pophale) SiO2 
 PCOD9496744
Probable space group: C C C M
;
_chemical_formula_sum "Si O2"
_cell_formula_units_Z 64
_cell_length_a 14.916885
_cell_length_b 28.062482
_cell_length_c 8.667769
_cell_angle_alpha 90.000000
_cell_angle_beta 90.000000
_cell_angle_gamma 90.000000
_cell_volume 3628.369854
_symmetry_space_group_name_H-M "C C C M"
_symmetry_group_IT_number 66
_symmetry_cell_setting 'orthorhombic'
loop_
_space_group_symop_operation_xyz
x,y,z
-x,-y,z
x,-y,1/2-z
-x,y,1/2-z
-x,-y,-z
x,y,-z
-x,y,1/2+z
x,-y,1/2+z
1/2+x,1/2+y,z
1/2-x,1/2-y,z
1/2+x,1/2-y,1/2-z
1/2-x,1/2+y,1/2-z
1/2-x,1/2-y,-z
1/2+x,1/2+y,-z
1/2-x,1/2+y,1/2+z
1/2+x,1/2-y,1/2+z
loop_
_atom_site_type_symbol
_atom_site_label
_atom_site_fract_x
_atom_site_fract_y
_atom_site_fract_z
Si Si1 0.403586 0.446836 0.684516
Si Si2 0.097571 0.220647 0.815178
Si Si3 0.273470 0.632251 0.684742
Si Si4 0.098523 0.325323 0.315880
O O1 0.389727 0.500000 0.750000
O O2 0.500000 0.430090 0.750000
O O3 0.407722 0.448209 0.500000
O O4 0.326412 0.411741 0.742057
O O5 0.169175 0.179931 0.779297
O O6 0.120546 0.271758 0.742539
O O7 0.000000 0.206898 0.750000
O O8 0.092181 0.226185 0.000000
O O9 0.270304 0.627203 0.500000
O O10 0.174785 0.640021 0.751772
O O11 0.096346 0.325814 0.500000
O O12 0.000000 0.336495 0.250000
#
# Coordination Sequence:
#
# PCOD9496744 Si02
#       4
#    16  16  16  16
#     4  11  22  38  59  84 113 144 177 217 268 321
#     4  10  20  33  51  76 109 145 180 221 267 317
#     4  11  22  36  55  80 109 142 182 225 269 320
#     4  11  22  36  54  76 106 144 184 226 270 317
#
# _framework density 17.638774999999999
#
# number of rings (size 3 to 8) (size 9 to 14) (size 15 to 20)
#    0.000    1.250    0.000    9.750    0.000    9.000 
#    0.000    0.000    0.000    0.750    0.000    5.250 
#    0.000    0.000    0.000    0.000    0.000    0.000 
#
# Total GULP energy -178967.585144 kJ/mol
# GULP energy per Si atom -5592.737036 kJ/mol
# Density = 1.759863 g / cm^3
# Si number density = 17.638775 Si / 1000 Ang^3
#
#
#
# Elastic Constant Matrix: (Units=GPa)
#
#
# Indices 1 2 3 4 5 6 
#
# 1 117.9143 79.7841 64.9255 0.0000 0.0000 0.0000
# 2 79.7841 76.8106 53.2462 0.0000 0.0000 0.0000
# 3 64.9255 53.2462 126.5317 0.0000 0.0000 0.0000
# 4 0.0000 0.0000 0.0000 32.8669 0.0000 0.0000
# 5 0.0000 0.0000 0.0000 0.0000 4.9436 0.0000
# 6 0.0000 0.0000 0.0000 0.0000 0.0000 26.4101
#
#
#
# Elastic Compliance Matrix: (Units=1/GPa)
#
#
# Indices 1 2 3 4 5 6 
#
# 1 0.029404 -0.028355 -0.003156 0.000000 0.000000 0.000000
# 2 -0.028355 0.045724 -0.004692 0.000000 0.000000 0.000000
# 3 -0.003156 -0.004692 0.011497 0.000000 0.000000 0.000000
# 4 0.000000 0.000000 0.000000 0.030426 0.000000 0.000000
# 5 0.000000 0.000000 0.000000 0.000000 0.202281 0.000000
# 6 0.000000 0.000000 0.000000 0.000000 0.000000 0.037864
#
#
# Mechanical properties :
#
#
# Convention : Reuss Voigt Hill
#
# Bulk Modulus (GPa) = 70.32293 79.68536 75.00415
# Shear Modulus (GPa) = 11.51172 21.06417 16.28795
#
# Velocity S-wave (km/s) = 2.55745 3.45946 3.04207
# Velocity P-wave (km/s) = 6.97679 7.82506 7.41307
#
# Compressibility (1/GPa) = 0.01422011
#
# Stress axis : x y z
#
# Youngs Moduli (GPa) = 34.00932 21.87045 86.98081
#
# Poissons Ratio (x) = 0.62013 0.27448
# Poissons Ratio (y) = 0.96432 0.40811
# Poissons Ratio (z) = 0.10732 0.10262
#
# Static dielectric constant tensor:
#      x y z
#    x 1.599860 0.000000 0.000000 
#    y 0.000000 1.583110 0.000000 
#    z 0.000000 0.000000 1.584910 
# 
# From -- ./inp_files/5049.got.cif
#   From: 2010.05.17/outbox.cif.g08.bks.cpg/sg66_3_cif.got.tgz:5049.got - 2010.06.03 17:51:23.
