data_PCOD9496836
_publ_section_title
;
Structure prediction by ZEFSAII (Michael W. Deem and Ramdas Pophale) SiO2 
 PCOD9496836
Probable space group: C C C M
;
_chemical_formula_sum "Si O2"
_cell_formula_units_Z 112
_cell_length_a 14.797427
_cell_length_b 24.938035
_cell_length_c 14.510290
_cell_angle_alpha 90.000000
_cell_angle_beta 90.000000
_cell_angle_gamma 90.000000
_cell_volume 5354.569113
_symmetry_space_group_name_H-M "C C C M"
_symmetry_group_IT_number 66
_symmetry_cell_setting 'orthorhombic'
loop_
_space_group_symop_operation_xyz
x,y,z
-x,-y,z
x,-y,1/2-z
-x,y,1/2-z
-x,-y,-z
x,y,-z
-x,y,1/2+z
x,-y,1/2+z
1/2+x,1/2+y,z
1/2-x,1/2-y,z
1/2+x,1/2-y,1/2-z
1/2-x,1/2+y,1/2-z
1/2-x,1/2-y,-z
1/2+x,1/2+y,-z
1/2-x,1/2+y,1/2+z
1/2+x,1/2-y,1/2+z
loop_
_atom_site_type_symbol
_atom_site_label
_atom_site_fract_x
_atom_site_fract_y
_atom_site_fract_z
Si Si1 0.052984 0.550922 0.894820
Si Si2 0.137388 0.151214 0.109006
Si Si3 0.952739 0.215414 0.891856
Si Si4 0.244958 0.034060 0.342701
Si Si5 0.714459 0.342840 0.205674
Si Si6 0.404414 0.832572 0.111316
Si Si7 0.579263 0.534244 0.896017
O O1 0.159234 0.537327 0.892772
O O2 0.050632 0.611507 0.855459
O O3 0.000000 0.500000 0.853559
O O4 0.019278 0.555578 0.000000
O O5 0.213101 0.165695 0.183906
O O6 0.104432 0.092151 0.140994
O O7 0.050051 0.188519 0.119748
O O8 0.163681 0.150063 0.000000
O O9 0.873824 0.186429 0.834804
O O10 0.958906 0.278458 0.870576
O O11 0.927784 0.210043 0.000000
O O12 0.212706 0.093995 0.319717
O O13 0.259153 0.000000 0.250000
O O14 0.167486 0.002474 0.395987
O O15 0.806991 0.324028 0.158245
O O16 0.391616 0.837922 0.000000
O O17 0.500000 0.500000 0.850745
O O18 0.548054 0.546538 0.000000
#
# Coordination Sequence:
#
# PCOD9496836 Si02
#       7
#    16  16  16  16  16  16  16
#     4   9  19  37  63  90 116 149 191 243 304 364
#     4  10  21  36  54  81 116 159 201 238 289 354
#     4  10  20  35  59  89 120 151 191 249 306 357
#     4  11  21  34  54  84 117 157 195 244 294 350
#     4  11  20  34  57  85 120 154 196 243 300 359
#     4   9  19  36  63  95 119 144 190 251 311 364
#     4  10  20  34  52  79 116 158 201 241 287 350
#
# _framework density 20.916716999999998
#
# number of rings (size 3 to 8) (size 9 to 14) (size 15 to 20)
#    0.000    2.000    1.429    2.571    0.000    4.571 
#    0.000    0.000   15.714    1.714    0.000    0.000 
#    0.000    5.143    0.000    0.000    0.000    0.000 
#
# Total GULP energy -312435.441407 kJ/mol
# GULP energy per Si atom -5579.204311 kJ/mol
# Density = 2.086911 g / cm^3
# Si number density = 20.916717 Si / 1000 Ang^3
#
#
#
# Elastic Constant Matrix: (Units=GPa)
#
#
# Indices 1 2 3 4 5 6 
#
# 1 55.1961 52.9019 21.6430 0.0000 0.0000 0.0000
# 2 52.9019 117.7900 21.6064 0.0000 0.0000 0.0000
# 3 21.6430 21.6064 83.6179 0.0000 0.0000 0.0000
# 4 0.0000 0.0000 0.0000 19.0797 0.0000 0.0000
# 5 0.0000 0.0000 0.0000 0.0000 21.3812 0.0000
# 6 0.0000 0.0000 0.0000 0.0000 0.0000 26.9035
#
#
#
# Elastic Compliance Matrix: (Units=1/GPa)
#
#
# Indices 1 2 3 4 5 6 
#
# 1 0.033730 -0.014221 -0.005056 0.000000 0.000000 0.000000
# 2 -0.014221 0.014908 -0.000171 0.000000 0.000000 0.000000
# 3 -0.005056 -0.000171 0.013312 0.000000 0.000000 0.000000
# 4 0.000000 0.000000 0.000000 0.052412 0.000000 0.000000
# 5 0.000000 0.000000 0.000000 0.000000 0.046770 0.000000
# 6 0.000000 0.000000 0.000000 0.000000 0.000000 0.037170
#
#
# Mechanical properties :
#
#
# Convention : Reuss Voigt Hill
#
# Bulk Modulus (GPa) = 43.37737 49.87848 46.62793
# Shear Modulus (GPa) = 20.41794 24.16974 22.29384
#
# Velocity S-wave (km/s) = 3.12774 3.40299 3.26826
# Velocity P-wave (km/s) = 5.81608 6.27203 6.04836
#
# Compressibility (1/GPa) = 0.02305350
#
# Stress axis : x y z
#
# Youngs Moduli (GPa) = 29.64731 67.07712 75.12034
#
# Poissons Ratio (x) = 0.95393 0.37978
# Poissons Ratio (y) = 0.42163 0.01286
# Poissons Ratio (z) = 0.14989 0.01149
#
# Static dielectric constant tensor:
#      x y z
#    x 1.712670 0.000000 0.000000 
#    y 0.000000 1.780330 0.000000 
#    z 0.000000 0.000000 1.794430 
# 
# From -- ./inp_files/28668.got.cif
#   From: 2010.05.17/outbox.cif.g08.bks.cpg/sg66_15_cif.got.tgz:28668.got - 2010.06.03 17:51:23.
