data_PCOD9496843
_publ_section_title
;
Structure prediction by ZEFSAII (Michael W. Deem and Ramdas Pophale) SiO2 
 PCOD9496843
Probable space group: C C C M
;
_chemical_formula_sum "Si O2"
_cell_formula_units_Z 72
_cell_length_a 4.913059
_cell_length_b 21.358172
_cell_length_c 30.638620
_cell_angle_alpha 90.000000
_cell_angle_beta 90.000000
_cell_angle_gamma 90.000000
_cell_volume 3215.031700
_symmetry_space_group_name_H-M "C C C M"
_symmetry_group_IT_number 66
_symmetry_cell_setting 'orthorhombic'
loop_
_space_group_symop_operation_xyz
x,y,z
-x,-y,z
x,-y,1/2-z
-x,y,1/2-z
-x,-y,-z
x,y,-z
-x,y,1/2+z
x,-y,1/2+z
1/2+x,1/2+y,z
1/2-x,1/2-y,z
1/2+x,1/2-y,1/2-z
1/2-x,1/2+y,1/2-z
1/2-x,1/2-y,-z
1/2+x,1/2+y,-z
1/2-x,1/2+y,1/2+z
1/2+x,1/2-y,1/2+z
loop_
_atom_site_type_symbol
_atom_site_label
_atom_site_fract_x
_atom_site_fract_y
_atom_site_fract_z
Si Si1 0.173673 0.560113 0.641707
Si Si2 0.878761 0.605405 0.047917
Si Si3 0.500000 0.707875 0.750000
Si Si4 0.832015 0.136248 0.164146
Si Si5 0.388679 0.315096 0.429565
O O1 0.194394 0.562198 0.589038
O O2 0.471480 0.575527 0.659583
O O3 0.000000 0.500000 0.655181
O O4 0.980085 0.617287 0.656805
O O5 0.681280 0.666059 0.051977
O O6 0.183892 0.630093 0.055173
O O7 0.846272 0.577453 0.000000
O O8 0.750000 0.750000 0.766276
O O9 0.386136 0.667605 0.789904
O O10 0.909179 0.180015 0.123027
O O11 0.250000 0.250000 0.442245
#
# Coordination Sequence:
#
# PCOD9496843 Si02
#       5
#    16  16   8  16  16
#     4  10  21  40  61  80 113 154 190 237 289 329
#     4  10  21  34  52  81 110 143 194 240 276 336
#     4  12  24  40  65  92 121 150 182 228 280 336
#     4  10  22  39  58  87 115 145 193 233 276 343
#     4  10  20  34  53  76 112 152 183 227 288 343
#
# _framework density 22.394801999999999
#
# number of rings (size 3 to 8) (size 9 to 14) (size 15 to 20)
#    0.000    1.778    0.000    4.000    0.000    6.667 
#    0.000    3.333    0.000    8.000    0.000    0.000 
#    0.000    0.000    0.000    0.000    0.000    0.000 
#
# Total GULP energy -201233.215230 kJ/mol
# GULP energy per Si atom -5589.811534 kJ/mol
# Density = 2.234383 g / cm^3
# Si number density = 22.394802 Si / 1000 Ang^3
#
#
#
# Elastic Constant Matrix: (Units=GPa)
#
#
# Indices 1 2 3 4 5 6 
#
# 1 109.7279 -1.9047 7.3785 0.0000 0.0000 0.0000
# 2 -1.9047 33.0288 -4.4922 0.0000 0.0000 0.0000
# 3 7.3785 -4.4922 117.9382 0.0000 0.0000 0.0000
# 4 0.0000 0.0000 0.0000 -6.5467 0.0000 0.0000
# 5 0.0000 0.0000 0.0000 0.0000 13.8859 0.0000
# 6 0.0000 0.0000 0.0000 0.0000 0.0000 29.1948
#
#
#
# Elastic Compliance Matrix: (Units=1/GPa)
#
#
# Indices 1 2 3 4 5 6 
#
# 1 0.009159 0.000453 -0.000556 0.000000 0.000000 0.000000
# 2 0.000453 0.030457 0.001132 0.000000 0.000000 0.000000
# 3 -0.000556 0.001132 0.008557 0.000000 0.000000 0.000000
# 4 0.000000 0.000000 0.000000 -0.152749 0.000000 0.000000
# 5 0.000000 0.000000 0.000000 0.000000 0.072016 0.000000
# 6 0.000000 0.000000 0.000000 0.000000 0.000000 0.034253
#
#
# Mechanical properties :
#
#
# Convention : Reuss Voigt Hill
#
# Bulk Modulus (GPa) = 19.90865 29.18423 24.54644
# Shear Modulus (GPa) = 305.30237 24.62101 164.96169
#
# Velocity S-wave (km/s) = 11.68860 3.31933 8.59189
# Velocity P-wave (km/s) = 13.82294 5.26788 10.46002
#
# Compressibility (1/GPa) = 0.05022942
#
# Stress axis : x y z
#
# Youngs Moduli (GPa) = 109.18606 32.83354 116.86478
#
# Poissons Ratio (x) = -0.01486 0.06495
# Poissons Ratio (y) = -0.04942 -0.13226
# Poissons Ratio (z) = 0.06068 -0.03716
#
# Static dielectric constant tensor:
#      x y z
#    x 1.781550 0.000000 0.000000 
#    y 0.000000 1.880760 0.000000 
#    z 0.000000 0.000000 1.795610 
# 
# From -- ./inp_files/61442.got.cif
#   From: 2010.05.17/outbox.cif.g08.bks.cpg/sg66_31_cif.got.tgz:61442.got - 2010.06.03 17:51:23.
