data_PCOD9496136
_publ_section_title
;
Structure prediction by ZEFSAII (Michael W. Deem and Ramdas Pophale) SiO2 
 PCOD9496136
Probable space group: C C C M
;
_chemical_formula_sum "Si O2"
_cell_formula_units_Z 116
_cell_length_a 28.182765
_cell_length_b 22.978949
_cell_length_c 9.270626
_cell_angle_alpha 90.000000
_cell_angle_beta 90.000000
_cell_angle_gamma 90.000000
_cell_volume 6003.753067
_symmetry_space_group_name_H-M "C C C M"
_symmetry_group_IT_number 66
_symmetry_cell_setting 'orthorhombic'
loop_
_space_group_symop_operation_xyz
x,y,z
-x,-y,z
x,-y,1/2-z
-x,y,1/2-z
-x,-y,-z
x,y,-z
-x,y,1/2+z
x,-y,1/2+z
1/2+x,1/2+y,z
1/2-x,1/2-y,z
1/2+x,1/2-y,1/2-z
1/2-x,1/2+y,1/2-z
1/2-x,1/2-y,-z
1/2+x,1/2+y,-z
1/2-x,1/2+y,1/2+z
1/2+x,1/2-y,1/2+z
loop_
_atom_site_type_symbol
_atom_site_label
_atom_site_fract_x
_atom_site_fract_y
_atom_site_fract_z
Si Si1 0.500000 0.000000 0.250000
Si Si2 0.122483 0.060213 0.327562
Si Si3 0.046656 0.280382 0.169766
Si Si4 0.380872 0.673952 0.330612
Si Si5 0.806383 0.243281 0.170674
Si Si6 0.072898 0.399070 0.667638
Si Si7 0.265206 0.559098 0.172796
Si Si8 0.175217 0.627650 0.173696
O O1 0.537304 0.953871 0.320574
O O2 0.115355 0.057460 0.500000
O O3 0.100634 0.117794 0.255967
O O4 0.179188 0.067684 0.298542
O O5 0.108100 0.000000 0.250000
O O6 0.085963 0.230497 0.188389
O O7 0.057697 0.343548 0.238180
O O8 0.000000 0.258751 0.250000
O O9 0.038589 0.288491 0.000000
O O10 0.377190 0.660449 0.500000
O O11 0.330530 0.693795 0.264464
O O12 0.750000 0.250000 0.187675
O O13 0.829509 0.304965 0.214045
O O14 0.815273 0.231825 0.000000
O O15 0.073067 0.381060 0.500000
O O16 0.128227 0.409131 0.711583
O O17 0.251082 0.500000 0.250000
O O18 0.226286 0.605334 0.224650
O O19 0.261186 0.554056 0.000000
O O20 0.178117 0.627497 0.000000
#
# Coordination Sequence:
#
# PCOD9496136 Si02
#       8
#     4  16  16  16  16  16  16  16
#     4  12  26  36  60  94 114 148 208 264 314 364
#     4  10  20  36  60  88 121 160 199 242 288 348
#     4  11  24  42  65  90 119 151 195 250 304 366
#     4  11  23  38  58  89 122 154 195 245 302 363
#     4  10  19  33  56  84 114 153 200 247 296 360
#     4  11  23  40  60  82 114 153 198 252 310 363
#     4   9  18  33  52  77 110 150 199 243 286 343
#     4   9  18  33  52  75 108 151 193 239 295 354
#
# _framework density 19.321247
#
# number of rings (size 3 to 8) (size 9 to 14) (size 15 to 20)
#    0.000    1.793    2.069    2.276    0.966    5.241 
#    0.000    1.379    0.000    0.414    0.000    2.897 
#    0.000    0.000    0.000    0.000    0.000    0.000 
#
# Total GULP energy -323309.702589 kJ/mol
# GULP energy per Si atom -5574.305217 kJ/mol
# Density = 1.927727 g / cm^3
# Si number density = 19.321247 Si / 1000 Ang^3
#
#
#
# Elastic Constant Matrix: (Units=GPa)
#
#
# Indices 1 2 3 4 5 6 
#
# 1 41.3120 12.7435 28.6856 0.0000 0.0000 0.0000
# 2 12.7435 103.1334 54.7429 0.0000 0.0000 0.0000
# 3 28.6856 54.7429 75.9080 0.0000 0.0000 0.0000
# 4 0.0000 0.0000 0.0000 29.6224 0.0000 0.0000
# 5 0.0000 0.0000 0.0000 0.0000 13.9864 0.0000
# 6 0.0000 0.0000 0.0000 0.0000 0.0000 16.9446
#
#
#
# Elastic Compliance Matrix: (Units=1/GPa)
#
#
# Indices 1 2 3 4 5 6 
#
# 1 0.033921 0.004233 -0.015872 0.000000 0.000000 0.000000
# 2 0.004233 0.016238 -0.013310 0.000000 0.000000 0.000000
# 3 -0.015872 -0.013310 0.028771 0.000000 0.000000 0.000000
# 4 0.000000 0.000000 0.000000 0.033758 0.000000 0.000000
# 5 0.000000 0.000000 0.000000 0.000000 0.071498 0.000000
# 6 0.000000 0.000000 0.000000 0.000000 0.000000 0.059016
#
#
# Mechanical properties :
#
#
# Convention : Reuss Voigt Hill
#
# Bulk Modulus (GPa) = 34.44414 45.85525 40.14969
# Shear Modulus (GPa) = 16.51384 20.38944 18.45164
#
# Velocity S-wave (km/s) = 2.92669 3.25204 3.09365
# Velocity P-wave (km/s) = 5.41170 6.15513 5.79535
#
# Compressibility (1/GPa) = 0.02903252
#
# Stress axis : x y z
#
# Youngs Moduli (GPa) = 29.48037 61.58333 34.75760
#
# Poissons Ratio (x) = -0.26069 0.55166
# Poissons Ratio (y) = -0.12480 0.46263
# Poissons Ratio (z) = 0.46790 0.81969
#
# Static dielectric constant tensor:
#      x y z
#    x 1.714470 0.000000 0.000000 
#    y 0.000000 2.555590 0.000000 
#    z 0.000000 0.000000 1.643180 
# 
# From -- ./inp_files/10607.got.cif
#   From: 2010.05.17/outbox.cif.g08.bks.cpg/sg66_6_cif.got.tgz:10607.got - 2010.06.03 17:51:23.
