data_PCOD9496788
_publ_section_title
;
Structure prediction by ZEFSAII (Michael W. Deem and Ramdas Pophale) SiO2 
 PCOD9496788
Probable space group: C C C M
;
_chemical_formula_sum "Si O2"
_cell_formula_units_Z 96
_cell_length_a 30.270097
_cell_length_b 9.407044
_cell_length_c 14.669662
_cell_angle_alpha 90.000000
_cell_angle_beta 90.000000
_cell_angle_gamma 90.000000
_cell_volume 4177.217565
_symmetry_space_group_name_H-M "C C C M"
_symmetry_group_IT_number 66
_symmetry_cell_setting 'orthorhombic'
loop_
_space_group_symop_operation_xyz
x,y,z
-x,-y,z
x,-y,1/2-z
-x,y,1/2-z
-x,-y,-z
x,y,-z
-x,y,1/2+z
x,-y,1/2+z
1/2+x,1/2+y,z
1/2-x,1/2-y,z
1/2+x,1/2-y,1/2-z
1/2-x,1/2+y,1/2-z
1/2-x,1/2-y,-z
1/2+x,1/2+y,-z
1/2-x,1/2+y,1/2+z
1/2+x,1/2-y,1/2+z
loop_
_atom_site_type_symbol
_atom_site_label
_atom_site_fract_x
_atom_site_fract_y
_atom_site_fract_z
Si Si1 0.464970 0.110245 0.603916
Si Si2 0.471483 0.375948 0.104038
Si Si3 0.294024 0.825624 0.649244
Si Si4 0.790773 0.650429 0.632792
Si Si5 0.884361 0.212060 0.895187
Si Si6 0.124966 0.114088 0.110099
O O1 0.454674 0.055441 0.500000
O O2 0.495606 0.247265 0.598589
O O3 0.419526 0.173829 0.645386
O O4 0.500000 0.000000 0.646422
O O5 0.500000 0.500000 0.149267
O O6 0.423617 0.332620 0.140118
O O7 0.461632 0.424801 0.000000
O O8 0.250000 0.750000 0.613881
O O9 0.288768 0.845696 0.757561
O O10 0.336154 0.720920 0.639253
O O11 0.293977 0.984021 0.607566
O O12 0.750000 0.750000 0.601319
O O13 0.836453 0.720391 0.604588
O O14 0.877223 0.051718 0.858055
O O15 0.900113 0.193960 0.000000
O O16 0.129542 0.111723 0.000000
#
# Coordination Sequence:
#
# PCOD9496788 Si02
#       6
#    16  16  16  16  16  16
#     4   9  17  28  46  76 112 147 182 219 264 322
#     4   9  15  28  48  74 110 146 179 216 260 316
#     4  10  22  40  60  81 104 141 190 230 276 342
#     4  10  22  40  60  80 106 142 185 230 282 340
#     4  10  20  34  54  85 117 145 182 229 282 329
#     4  10  20  33  55  86 115 145 184 230 277 327
#
# _framework density 22.981805000000001
#
# number of rings (size 3 to 8) (size 9 to 14) (size 15 to 20)
#    0.000    2.333    1.667    1.000    2.333    3.333 
#    0.000    0.000    0.000    1.000    0.000    0.000 
#    0.000    0.000    0.000    0.000    0.000    0.000 
#
# Total GULP energy -267465.163360 kJ/mol
# GULP energy per Si atom -5572.190903 kJ/mol
# Density = 2.292950 g / cm^3
# Si number density = 22.981805 Si / 1000 Ang^3
#
#
#
# Elastic Constant Matrix: (Units=GPa)
#
#
# Indices 1 2 3 4 5 6 
#
# 1 228.7402 83.6986 0.0417 0.0000 0.0000 0.0000
# 2 83.6986 110.7615 17.1610 0.0000 0.0000 0.0000
# 3 0.0417 17.1610 61.0848 0.0000 0.0000 0.0000
# 4 0.0000 0.0000 0.0000 12.0392 0.0000 0.0000
# 5 0.0000 0.0000 0.0000 0.0000 34.6828 0.0000
# 6 0.0000 0.0000 0.0000 0.0000 0.0000 51.1665
#
#
#
# Elastic Compliance Matrix: (Units=1/GPa)
#
#
# Indices 1 2 3 4 5 6 
#
# 1 0.006149 -0.004857 0.001360 0.000000 0.000000 0.000000
# 2 -0.004857 0.013276 -0.003726 0.000000 0.000000 0.000000
# 3 0.001360 -0.003726 0.017417 0.000000 0.000000 0.000000
# 4 0.000000 0.000000 0.000000 0.083062 0.000000 0.000000
# 5 0.000000 0.000000 0.000000 0.000000 0.028833 0.000000
# 6 0.000000 0.000000 0.000000 0.000000 0.000000 0.019544
#
#
# Mechanical properties :
#
#
# Convention : Reuss Voigt Hill
#
# Bulk Modulus (GPa) = 44.65272 66.93214 55.79243
# Shear Modulus (GPa) = 26.28919 39.55671 32.92295
#
# Velocity S-wave (km/s) = 3.38585 4.15326 3.78903
# Velocity P-wave (km/s) = 5.89551 7.22403 6.59332
#
# Compressibility (1/GPa) = 0.02239505
#
# Stress axis : x y z
#
# Youngs Moduli (GPa) = 162.63226 75.32266 57.41634
#
# Poissons Ratio (x) = 0.36586 -0.07811
# Poissons Ratio (y) = 0.78994 0.21396
# Poissons Ratio (z) = -0.22124 0.28069
#
# Static dielectric constant tensor:
#      x y z
#    x 1.834310 0.000000 0.000000 
#    y 0.000000 1.866720 0.000000 
#    z 0.000000 0.000000 1.974460 
# 
# From -- ./inp_files/52953.got.cif
#   From: 2010.05.17/outbox.cif.g08.bks.cpg/sg66_27_cif.got.tgz:52953.got - 2010.06.03 17:51:23.
