data_PCOD9496064
_publ_section_title
;
Structure prediction by ZEFSAII (Michael W. Deem and Ramdas Pophale) SiO2 
 PCOD9496064
Probable space group: C C C M
;
_chemical_formula_sum "Si O2"
_cell_formula_units_Z 88
_cell_length_a 5.069476
_cell_length_b 31.672800
_cell_length_c 28.196414
_cell_angle_alpha 90.000000
_cell_angle_beta 90.000000
_cell_angle_gamma 90.000000
_cell_volume 4527.343100
_symmetry_space_group_name_H-M "C C C M"
_symmetry_group_IT_number 66
_symmetry_cell_setting 'orthorhombic'
loop_
_space_group_symop_operation_xyz
x,y,z
-x,-y,z
x,-y,1/2-z
-x,y,1/2-z
-x,-y,-z
x,y,-z
-x,y,1/2+z
x,-y,1/2+z
1/2+x,1/2+y,z
1/2-x,1/2-y,z
1/2+x,1/2-y,1/2-z
1/2-x,1/2+y,1/2-z
1/2-x,1/2-y,-z
1/2+x,1/2+y,-z
1/2-x,1/2+y,1/2+z
1/2+x,1/2-y,1/2+z
loop_
_atom_site_type_symbol
_atom_site_label
_atom_site_fract_x
_atom_site_fract_y
_atom_site_fract_z
Si Si1 0.754691 0.795888 0.784051
Si Si2 0.564763 0.544226 0.115818
Si Si3 0.003557 0.279551 0.500000
Si Si4 0.016941 0.138723 0.858464
Si Si5 0.925279 0.440454 0.053618
Si Si6 0.018321 0.346655 0.582190
O O1 0.500000 0.803540 0.750000
O O2 0.750000 0.750000 0.810901
O O3 0.845609 0.835237 0.816209
O O4 0.000000 0.788899 0.750000
O O5 0.500000 0.500000 0.141590
O O6 0.514928 0.587504 0.145371
O O7 0.355888 0.544509 0.072573
O O8 0.852847 0.546427 0.091917
O O9 0.750000 0.250000 0.500000
O O10 0.250000 0.250000 0.500000
O O11 0.023872 0.308270 0.546573
O O12 0.218674 0.147699 0.901117
O O13 0.727219 0.155205 0.874006
O O14 0.909147 0.389811 0.055700
O O15 0.986054 0.453334 0.000000
#
# Coordination Sequence:
#
# PCOD9496064 Si02
#       6
#    16  16   8  16  16  16
#     4  10  21  38  61  89 114 137 175 230 286 348
#     4  10  21  33  50  80 109 142 189 230 277 331
#     4  12  24  36  52  76 109 152 199 248 284 316
#     4  10  21  37  60  80 110 152 181 226 290 341
#     4  10  19  33  52  70 104 149 188 238 281 315
#     4  10  21  37  52  76 109 150 196 228 273 338
#
# _framework density 19.437449000000001
#
# number of rings (size 3 to 8) (size 9 to 14) (size 15 to 20)
#    0.000    1.818    0.909    3.273    0.000    4.364 
#    0.000    0.000    0.000    0.545    0.000    1.273 
#    0.000    0.000    0.000    0.000    0.000    0.000 
#
# Total GULP energy -245249.891222 kJ/mol
# GULP energy per Si atom -5573.861164 kJ/mol
# Density = 1.939321 g / cm^3
# Si number density = 19.437449 Si / 1000 Ang^3
#
#
#
# Elastic Constant Matrix: (Units=GPa)
#
#
# Indices 1 2 3 4 5 6 
#
# 1 108.0512 24.1496 -3.8031 0.0000 0.0000 0.0000
# 2 24.1496 171.8742 39.1000 0.0000 0.0000 0.0000
# 3 -3.8031 39.1000 31.3141 0.0000 0.0000 0.0000
# 4 0.0000 0.0000 0.0000 -28.2575 0.0000 0.0000
# 5 0.0000 0.0000 0.0000 0.0000 19.6182 0.0000
# 6 0.0000 0.0000 0.0000 0.0000 0.0000 27.1318
#
#
#
# Elastic Compliance Matrix: (Units=1/GPa)
#
#
# Indices 1 2 3 4 5 6 
#
# 1 0.009920 -0.002330 0.004114 0.000000 0.000000 0.000000
# 2 -0.002330 0.008674 -0.011113 0.000000 0.000000 0.000000
# 3 0.004114 -0.011113 0.046311 0.000000 0.000000 0.000000
# 4 0.000000 0.000000 0.000000 -0.035389 0.000000 0.000000
# 5 0.000000 0.000000 0.000000 0.000000 0.050973 0.000000
# 6 0.000000 0.000000 0.000000 0.000000 0.000000 0.036857
#
#
# Mechanical properties :
#
#
# Convention : Reuss Voigt Hill
#
# Bulk Modulus (GPa) = 21.62335 47.79251 34.70793
# Shear Modulus (GPa) = 33.02075 20.48471 26.75273
#
# Velocity S-wave (km/s) = 4.12615 3.24987 3.71394
# Velocity P-wave (km/s) = 5.81798 6.22282 6.02380
#
# Compressibility (1/GPa) = 0.04624630
#
# Stress axis : x y z
#
# Youngs Moduli (GPa) = 100.80270 115.29043 21.59332
#
# Poissons Ratio (x) = 0.26860 -0.08883
# Poissons Ratio (y) = 0.23485 0.23997
# Poissons Ratio (z) = -0.41469 1.28126
#
# Static dielectric constant tensor:
#      x y z
#    x 1.660280 0.000000 0.000000 
#    y 0.000000 1.789310 0.000000 
#    z 0.000000 0.000000 1.658800 
# 
# From -- ./inp_files/61664.got.cif
#   From: 2010.05.17/outbox.cif.g08.bks.cpg/sg66_31_cif.got.tgz:61664.got - 2010.06.03 17:51:23.
