data_PCOD9496112
_publ_section_title
;
Structure prediction by ZEFSAII (Michael W. Deem and Ramdas Pophale) SiO2 
 PCOD9496112
Probable space group: C C C M
;
_chemical_formula_sum "Si O2"
_cell_formula_units_Z 80
_cell_length_a 17.296590
_cell_length_b 13.698575
_cell_length_c 18.137146
_cell_angle_alpha 90.000000
_cell_angle_beta 90.000000
_cell_angle_gamma 90.000000
_cell_volume 4297.390623
_symmetry_space_group_name_H-M "C C C M"
_symmetry_group_IT_number 66
_symmetry_cell_setting 'orthorhombic'
loop_
_space_group_symop_operation_xyz
x,y,z
-x,-y,z
x,-y,1/2-z
-x,y,1/2-z
-x,-y,-z
x,y,-z
-x,y,1/2+z
x,-y,1/2+z
1/2+x,1/2+y,z
1/2-x,1/2-y,z
1/2+x,1/2-y,1/2-z
1/2-x,1/2+y,1/2-z
1/2-x,1/2-y,-z
1/2+x,1/2+y,-z
1/2-x,1/2+y,1/2+z
1/2+x,1/2-y,1/2+z
loop_
_atom_site_type_symbol
_atom_site_label
_atom_site_fract_x
_atom_site_fract_y
_atom_site_fract_z
Si Si1 0.588524 0.101807 0.226816
Si Si2 0.324948 0.621607 0.868631
Si Si3 0.151197 0.335957 0.584994
Si Si4 0.580070 0.558241 0.915641
Si Si5 0.090809 0.185942 0.226521
O O1 0.500000 0.098054 0.250000
O O2 0.590784 0.114453 0.138984
O O3 0.619058 0.202032 0.263401
O O4 0.627077 0.000000 0.250000
O O5 0.233646 0.635826 0.878757
O O6 0.358904 0.719128 0.907465
O O7 0.354221 0.523771 0.906488
O O8 0.358035 0.625577 0.785470
O O9 0.149692 0.363555 0.500000
O O10 0.500000 0.500000 0.899614
O O11 0.593723 0.641157 0.854776
O O12 0.576544 0.593690 0.000000
O O13 0.000000 0.181813 0.250000
#
# Coordination Sequence:
#
# PCOD9496112 Si02
#       5
#    16  16  16  16  16
#     4   9  20  39  57  77 106 142 191 243 291 350
#     4  10  19  33  55  80 115 151 193 237 278 344
#     4  10  20  36  58  84 109 145 196 249 289 326
#     4  11  21  31  49  82 121 156 187 228 285 356
#     4  10  19  34  52  78 112 152 189 228 289 356
#
# _framework density 18.615946999999998
#
# number of rings (size 3 to 8) (size 9 to 14) (size 15 to 20)
#    0.000    2.000    2.000    3.000    0.000    1.600 
#    0.000    3.000    0.000    0.000    0.000   15.400 
#    0.000    0.000    0.000    0.000    0.000    0.000 
#
# Total GULP energy -223018.817183 kJ/mol
# GULP energy per Si atom -5575.470430 kJ/mol
# Density = 1.857358 g / cm^3
# Si number density = 18.615947 Si / 1000 Ang^3
#
#
#
# Elastic Constant Matrix: (Units=GPa)
#
#
# Indices 1 2 3 4 5 6 
#
# 1 36.1440 11.0742 39.9202 0.0000 0.0000 0.0000
# 2 11.0742 81.9891 57.0031 0.0000 0.0000 0.0000
# 3 39.9202 57.0031 172.4677 0.0000 0.0000 0.0000
# 4 0.0000 0.0000 0.0000 19.7742 0.0000 0.0000
# 5 0.0000 0.0000 0.0000 0.0000 20.2947 0.0000
# 6 0.0000 0.0000 0.0000 0.0000 0.0000 13.6139
#
#
#
# Elastic Compliance Matrix: (Units=1/GPa)
#
#
# Indices 1 2 3 4 5 6 
#
# 1 0.037268 0.001251 -0.009040 0.000000 0.000000 0.000000
# 2 0.001251 0.015878 -0.005537 0.000000 0.000000 0.000000
# 3 -0.009040 -0.005537 0.009721 0.000000 0.000000 0.000000
# 4 0.000000 0.000000 0.000000 0.050571 0.000000 0.000000
# 5 0.000000 0.000000 0.000000 0.000000 0.049274 0.000000
# 6 0.000000 0.000000 0.000000 0.000000 0.000000 0.073454
#
#
# Mechanical properties :
#
#
# Convention : Reuss Voigt Hill
#
# Bulk Modulus (GPa) = 27.61332 56.28841 41.95087
# Shear Modulus (GPa) = 18.18914 22.91010 20.54962
#
# Velocity S-wave (km/s) = 3.12921 3.51190 3.32606
# Velocity P-wave (km/s) = 5.28406 6.83717 6.11016
#
# Compressibility (1/GPa) = 0.03621440
#
# Stress axis : x y z
#
# Youngs Moduli (GPa) = 26.83269 62.98166 102.87268
#
# Poissons Ratio (x) = -0.07880 0.92994
# Poissons Ratio (y) = -0.03357 0.56965
# Poissons Ratio (z) = 0.24256 0.34875
#
# Static dielectric constant tensor:
#      x y z
#    x 1.679140 0.000000 0.000000 
#    y 0.000000 1.685150 0.000000 
#    z 0.000000 0.000000 1.651270 
# 
# From -- ./inp_files/28102.got.cif
#   From: 2010.05.17/outbox.cif.g08.bks.cpg/sg66_15_cif.got.tgz:28102.got - 2010.06.03 17:51:23.
