data_PCOD9496148
_publ_section_title
;
Structure prediction by ZEFSAII (Michael W. Deem and Ramdas Pophale) SiO2 
 PCOD9496148
Probable space group: C C C M
;
_chemical_formula_sum "Si O2"
_cell_formula_units_Z 88
_cell_length_a 24.271334
_cell_length_b 8.666152
_cell_length_c 18.835229
_cell_angle_alpha 90.000000
_cell_angle_beta 90.000000
_cell_angle_gamma 90.000000
_cell_volume 3961.784545
_symmetry_space_group_name_H-M "C C C M"
_symmetry_group_IT_number 66
_symmetry_cell_setting 'orthorhombic'
loop_
_space_group_symop_operation_xyz
x,y,z
-x,-y,z
x,-y,1/2-z
-x,y,1/2-z
-x,-y,-z
x,y,-z
-x,y,1/2+z
x,-y,1/2+z
1/2+x,1/2+y,z
1/2-x,1/2-y,z
1/2+x,1/2-y,1/2-z
1/2-x,1/2+y,1/2-z
1/2-x,1/2-y,-z
1/2+x,1/2+y,-z
1/2-x,1/2+y,1/2+z
1/2+x,1/2-y,1/2+z
loop_
_atom_site_type_symbol
_atom_site_label
_atom_site_fract_x
_atom_site_fract_y
_atom_site_fract_z
Si Si1 0.412231 0.428690 0.636792
Si Si2 0.975950 0.809932 0.079674
Si Si3 0.190790 0.097056 0.083724
Si Si4 0.389478 0.877957 0.191701
Si Si5 0.000000 0.500000 0.864963
Si Si6 0.315192 0.947565 0.585666
O O1 0.458820 0.342438 0.589540
O O2 0.444536 0.593307 0.640813
O O3 0.356053 0.475325 0.599537
O O4 0.393573 0.308427 0.697940
O O5 0.969253 0.629234 0.089388
O O6 0.957985 0.854874 0.000000
O O7 0.250878 0.042034 0.108834
O O8 0.172100 0.269018 0.107513
O O9 0.197843 0.115591 0.000000
O O10 0.368460 0.000000 0.250000
O O11 0.453132 0.920763 0.180458
O O12 0.353455 0.926684 0.123281
O O13 0.319819 0.961868 0.500000
#
# Coordination Sequence:
#
# PCOD9496148 Si02
#       6
#    16  16  16  16   8  16
#     4  10  20  33  55  85 120 158 194 243 302 358
#     4  10  19  33  56  94 128 153 194 251 305 362
#     4   9  17  35  59  86 118 153 192 245 305 369
#     4  11  24  41  57  81 118 160 202 252 306 365
#     4  10  22  38  60  80 113 168 205 236 299 374
#     4   9  20  37  60  85 114 154 200 244 302 370
#
# _framework density 22.212212999999998
#
# number of rings (size 3 to 8) (size 9 to 14) (size 15 to 20)
#    0.000    2.182    0.000    4.909    0.000    7.273 
#    0.000    9.091    0.000    8.727    0.000    0.000 
#    0.000    0.000    0.000    0.000    0.000    0.000 
#
# Total GULP energy -244973.204851 kJ/mol
# GULP energy per Si atom -5567.572838 kJ/mol
# Density = 2.216166 g / cm^3
# Si number density = 22.212213 Si / 1000 Ang^3
#
#
#
# Elastic Constant Matrix: (Units=GPa)
#
#
# Indices 1 2 3 4 5 6 
#
# 1 92.7322 24.6471 9.2519 0.0000 0.0000 0.0000
# 2 24.6471 125.3476 30.2589 0.0000 0.0000 0.0000
# 3 9.2519 30.2589 47.2650 0.0000 0.0000 0.0000
# 4 0.0000 0.0000 0.0000 13.6432 0.0000 0.0000
# 5 0.0000 0.0000 0.0000 0.0000 8.5852 0.0000
# 6 0.0000 0.0000 0.0000 0.0000 0.0000 30.0797
#
#
#
# Elastic Compliance Matrix: (Units=1/GPa)
#
#
# Indices 1 2 3 4 5 6 
#
# 1 0.011414 -0.002017 -0.000943 0.000000 0.000000 0.000000
# 2 -0.002017 0.009792 -0.005874 0.000000 0.000000 0.000000
# 3 -0.000943 -0.005874 0.025103 0.000000 0.000000 0.000000
# 4 0.000000 0.000000 0.000000 0.073297 0.000000 0.000000
# 5 0.000000 0.000000 0.000000 0.000000 0.116479 0.000000
# 6 0.000000 0.000000 0.000000 0.000000 0.000000 0.033245
#
#
# Mechanical properties :
#
#
# Convention : Reuss Voigt Hill
#
# Bulk Modulus (GPa) = 34.91539 43.74005 39.32772
# Shear Modulus (GPa) = 16.86086 23.87408 20.36747
#
# Velocity S-wave (km/s) = 2.75813 3.28200 3.03140
# Velocity P-wave (km/s) = 5.08883 5.83923 5.47690
#
# Compressibility (1/GPa) = 0.02864067
#
# Stress axis : x y z
#
# Youngs Moduli (GPa) = 87.61293 102.11995 39.83645
#
# Poissons Ratio (x) = 0.20594 0.03757
# Poissons Ratio (y) = 0.17668 0.23401
# Poissons Ratio (z) = 0.08263 0.59988
#
# Static dielectric constant tensor:
#      x y z
#    x 1.816600 0.000000 0.000000 
#    y 0.000000 1.953820 0.000000 
#    z 0.000000 0.000000 1.854920 
# 
# From -- ./inp_files/52431.got.cif
#   From: 2010.05.17/outbox.cif.g08.bks.cpg/sg66_27_cif.got.tgz:52431.got - 2010.06.03 17:51:23.
