data_PCOD9496212
_publ_section_title
;
Structure prediction by ZEFSAII (Michael W. Deem and Ramdas Pophale) SiO2 
 PCOD9496212
Probable space group: C C C M
;
_chemical_formula_sum "Si O2"
_cell_formula_units_Z 96
_cell_length_a 20.682733
_cell_length_b 8.805909
_cell_length_c 27.078177
_cell_angle_alpha 90.000000
_cell_angle_beta 90.000000
_cell_angle_gamma 90.000000
_cell_volume 4931.755544
_symmetry_space_group_name_H-M "C C C M"
_symmetry_group_IT_number 66
_symmetry_cell_setting 'orthorhombic'
loop_
_space_group_symop_operation_xyz
x,y,z
-x,-y,z
x,-y,1/2-z
-x,y,1/2-z
-x,-y,-z
x,y,-z
-x,y,1/2+z
x,-y,1/2+z
1/2+x,1/2+y,z
1/2-x,1/2-y,z
1/2+x,1/2-y,1/2-z
1/2-x,1/2+y,1/2-z
1/2-x,1/2-y,-z
1/2+x,1/2+y,-z
1/2-x,1/2+y,1/2+z
1/2+x,1/2-y,1/2+z
loop_
_atom_site_type_symbol
_atom_site_label
_atom_site_fract_x
_atom_site_fract_y
_atom_site_fract_z
Si Si1 0.122233 0.524038 0.132764
Si Si2 0.951298 0.180178 0.121958
Si Si3 0.387617 0.450664 0.804389
Si Si4 0.455854 0.846053 0.443620
Si Si5 0.457543 0.162791 0.201280
Si Si6 0.257755 0.931711 0.801451
O O1 0.105277 0.694512 0.114708
O O2 0.102907 0.396089 0.092412
O O3 0.071549 0.488260 0.177275
O O4 0.193397 0.524772 0.154908
O O5 0.922792 0.029301 0.148207
O O6 0.999246 0.205664 0.075074
O O7 0.997626 0.246712 0.163779
O O8 0.414268 0.500000 0.750000
O O9 0.394881 0.271189 0.798234
O O10 0.313584 0.500251 0.808047
O O11 0.435904 0.822958 0.500000
O O12 0.500000 0.000000 0.440964
O O13 0.500000 0.154682 0.250000
O O14 0.250000 0.750000 0.798094
O O15 0.283811 0.000000 0.750000
#
# Coordination Sequence:
#
# PCOD9496212 Si02
#       6
#    16  16  16  16  16  16
#     4  10  22  36  56  81 109 148 193 236 283 331
#     4  10  19  34  53  83 109 145 180 233 287 335
#     4  11  22  36  50  73 114 162 187 224 271 336
#     4   8  16  34  60  88 112 139 186 247 306 346
#     4  11  22  33  51  78 113 147 185 228 278 337
#     4  11  25  39  52  74 115 158 199 230 263 338
#
# _framework density 19.465684
#
# number of rings (size 3 to 8) (size 9 to 14) (size 15 to 20)
#    0.000    1.833    3.333    2.000    7.000    0.667 
#    0.000    0.000    0.000    9.500    0.000    4.667 
#    0.000    0.000    0.000    0.000    0.000    0.000 
#
# Total GULP energy -267307.255190 kJ/mol
# GULP energy per Si atom -5568.901150 kJ/mol
# Density = 1.942138 g / cm^3
# Si number density = 19.465684 Si / 1000 Ang^3
#
#
#
# Elastic Constant Matrix: (Units=GPa)
#
#
# Indices 1 2 3 4 5 6 
#
# 1 82.2370 38.6530 40.8669 0.0000 0.0000 0.0000
# 2 38.6530 79.9282 34.5198 0.0000 0.0000 0.0000
# 3 40.8669 34.5198 115.9333 0.0000 0.0000 0.0000
# 4 0.0000 0.0000 0.0000 5.4996 0.0000 0.0000
# 5 0.0000 0.0000 0.0000 0.0000 15.3497 0.0000
# 6 0.0000 0.0000 0.0000 0.0000 0.0000 20.9648
#
#
#
# Elastic Compliance Matrix: (Units=1/GPa)
#
#
# Indices 1 2 3 4 5 6 
#
# 1 0.017313 -0.006583 -0.004143 0.000000 0.000000 0.000000
# 2 -0.006583 0.016861 -0.002700 0.000000 0.000000 0.000000
# 3 -0.004143 -0.002700 0.010890 0.000000 0.000000 0.000000
# 4 0.000000 0.000000 0.000000 0.181831 0.000000 0.000000
# 5 0.000000 0.000000 0.000000 0.000000 0.065148 0.000000
# 6 0.000000 0.000000 0.000000 0.000000 0.000000 0.047699
#
#
# Mechanical properties :
#
#
# Convention : Reuss Voigt Hill
#
# Bulk Modulus (GPa) = 54.90842 56.24198 55.57520
# Shear Modulus (GPa) = 13.41694 19.30007 16.35850
#
# Velocity S-wave (km/s) = 2.62823 3.15221 2.90207
# Velocity P-wave (km/s) = 6.12202 6.49648 6.31203
#
# Compressibility (1/GPa) = 0.01821214
#
# Stress axis : x y z
#
# Youngs Moduli (GPa) = 57.76035 59.30881 91.82883
#
# Poissons Ratio (x) = 0.39045 0.38041
# Poissons Ratio (y) = 0.38025 0.24792
# Poissons Ratio (z) = 0.23928 0.16012
#
# Static dielectric constant tensor:
#      x y z
#    x 1.720240 0.000000 0.000000 
#    y 0.000000 1.827540 0.000000 
#    z 0.000000 0.000000 1.761000 
# 
# From -- ./inp_files/62580.got.cif
#   From: 2010.05.17/outbox.cif.g08.bks.cpg/sg66_32_cif.got.tgz:62580.got - 2010.06.03 17:51:23.
