data_PCOD9496697
_publ_section_title
;
Structure prediction by ZEFSAII (Michael W. Deem and Ramdas Pophale) SiO2 
 PCOD9496697
Probable space group: C C C M
;
_chemical_formula_sum "Si O2"
_cell_formula_units_Z 96
_cell_length_a 21.191717
_cell_length_b 9.787604
_cell_length_c 24.514353
_cell_angle_alpha 90.000000
_cell_angle_beta 90.000000
_cell_angle_gamma 90.000000
_cell_volume 5084.672329
_symmetry_space_group_name_H-M "C C C M"
_symmetry_group_IT_number 66
_symmetry_cell_setting 'orthorhombic'
loop_
_space_group_symop_operation_xyz
x,y,z
-x,-y,z
x,-y,1/2-z
-x,y,1/2-z
-x,-y,-z
x,y,-z
-x,y,1/2+z
x,-y,1/2+z
1/2+x,1/2+y,z
1/2-x,1/2-y,z
1/2+x,1/2-y,1/2-z
1/2-x,1/2+y,1/2-z
1/2-x,1/2-y,-z
1/2+x,1/2+y,-z
1/2-x,1/2+y,1/2+z
1/2+x,1/2-y,1/2+z
loop_
_atom_site_type_symbol
_atom_site_label
_atom_site_fract_x
_atom_site_fract_y
_atom_site_fract_z
Si Si1 0.282768 0.553786 0.562450
Si Si2 0.982296 0.850145 0.646674
Si Si3 0.440650 0.925293 0.808019
Si Si4 0.349416 0.007708 0.598607
Si Si5 0.092965 0.766089 0.436823
Si Si6 0.873048 0.807480 0.439857
O O1 0.261996 0.582746 0.500000
O O2 0.221045 0.552283 0.599358
O O3 0.341275 0.653679 0.574580
O O4 0.312444 0.403323 0.564415
O O5 0.961551 0.733382 0.689935
O O6 0.922839 0.853207 0.605528
O O7 0.040626 0.805581 0.607741
O O8 0.000000 0.000000 0.668675
O O9 0.378815 0.955371 0.842908
O O10 0.500000 0.000000 0.836557
O O11 0.434313 0.000000 0.750000
O O12 0.353576 0.150621 0.566962
O O13 0.392076 0.893463 0.570005
O O14 0.075406 0.797082 0.500000
O O15 0.901042 0.829328 0.500000
#
# Coordination Sequence:
#
# PCOD9496697 Si02
#       6
#    16  16  16  16  16  16
#     4  10  20  34  53  82 126 171 197 225 277 347
#     4  11  21  37  60  91 118 154 195 239 293 350
#     4  10  22  43  65  85 106 140 196 257 318 346
#     4  11  21  35  57  83 113 158 205 245 287 348
#     4  11  21  33  54  88 127 164 197 232 277 342
#     4  10  20  32  53  85 126 167 198 232 274 337
#
# _framework density 18.880271
#
# number of rings (size 3 to 8) (size 9 to 14) (size 15 to 20)
#    0.000    1.500    3.333    3.000    0.000    3.333 
#    0.000    4.167    0.000    8.000    0.000    0.000 
#    0.000    0.000    0.000    0.000    0.000    0.000 
#
# Total GULP energy -267754.939795 kJ/mol
# GULP energy per Si atom -5578.227912 kJ/mol
# Density = 1.883730 g / cm^3
# Si number density = 18.880271 Si / 1000 Ang^3
#
#
#
# Elastic Constant Matrix: (Units=GPa)
#
#
# Indices 1 2 3 4 5 6 
#
# 1 88.9186 22.1440 42.7376 0.0000 0.0000 0.0000
# 2 22.1440 123.2396 38.9157 0.0000 0.0000 0.0000
# 3 42.7376 38.9157 86.4181 0.0000 0.0000 0.0000
# 4 0.0000 0.0000 0.0000 20.1081 0.0000 0.0000
# 5 0.0000 0.0000 0.0000 0.0000 20.3257 0.0000
# 6 0.0000 0.0000 0.0000 0.0000 0.0000 23.1440
#
#
#
# Elastic Compliance Matrix: (Units=1/GPa)
#
#
# Indices 1 2 3 4 5 6 
#
# 1 0.014770 -0.000405 -0.007122 0.000000 0.000000 0.000000
# 2 -0.000405 0.009470 -0.004064 0.000000 0.000000 0.000000
# 3 -0.007122 -0.004064 0.016924 0.000000 0.000000 0.000000
# 4 0.000000 0.000000 0.000000 0.049731 0.000000 0.000000
# 5 0.000000 0.000000 0.000000 0.000000 0.049199 0.000000
# 6 0.000000 0.000000 0.000000 0.000000 0.000000 0.043208
#
#
# Mechanical properties :
#
#
# Convention : Reuss Voigt Hill
#
# Bulk Modulus (GPa) = 55.61206 56.24121 55.92663
# Shear Modulus (GPa) = 23.53162 25.70082 24.61622
#
# Velocity S-wave (km/s) = 3.53421 3.69352 3.61474
# Velocity P-wave (km/s) = 6.79509 6.93127 6.86352
#
# Compressibility (1/GPa) = 0.01798171
#
# Stress axis : x y z
#
# Youngs Moduli (GPa) = 67.70341 105.59116 59.08691
#
# Poissons Ratio (x) = 0.04276 0.42083
# Poissons Ratio (y) = 0.02742 0.24016
# Poissons Ratio (z) = 0.48220 0.42917
#
# Static dielectric constant tensor:
#      x y z
#    x 1.655790 0.000000 0.000000 
#    y 0.000000 1.705670 0.000000 
#    z 0.000000 0.000000 1.648250 
# 
# From -- ./inp_files/65677.got.cif
#   From: 2010.05.17/outbox.cif.g08.bks.cpg/sg66_33_cif.got.tgz:65677.got - 2010.06.03 17:51:23.
