data_PCOD9496163
_publ_section_title
;
Structure prediction by ZEFSAII (Michael W. Deem and Ramdas Pophale) SiO2 
 PCOD9496163
Probable space group: C C C M
;
_chemical_formula_sum "Si O2"
_cell_formula_units_Z 64
_cell_length_a 8.635533
_cell_length_b 30.561248
_cell_length_c 11.260393
_cell_angle_alpha 90.000000
_cell_angle_beta 90.000000
_cell_angle_gamma 90.000000
_cell_volume 2971.760333
_symmetry_space_group_name_H-M "C C C M"
_symmetry_group_IT_number 66
_symmetry_cell_setting 'orthorhombic'
loop_
_space_group_symop_operation_xyz
x,y,z
-x,-y,z
x,-y,1/2-z
-x,y,1/2-z
-x,-y,-z
x,y,-z
-x,y,1/2+z
x,-y,1/2+z
1/2+x,1/2+y,z
1/2-x,1/2-y,z
1/2+x,1/2-y,1/2-z
1/2-x,1/2+y,1/2-z
1/2-x,1/2-y,-z
1/2+x,1/2+y,-z
1/2-x,1/2+y,1/2+z
1/2+x,1/2-y,1/2+z
loop_
_atom_site_type_symbol
_atom_site_label
_atom_site_fract_x
_atom_site_fract_y
_atom_site_fract_z
Si Si1 0.849629 0.833043 0.127774
Si Si2 0.559296 0.049767 0.627814
Si Si3 0.919358 0.063995 0.629115
Si Si4 0.804614 0.799901 0.371113
O O1 0.905719 0.883218 0.131835
O O2 0.757591 0.822913 0.247931
O O3 0.007915 0.804677 0.127140
O O4 0.769671 0.826054 0.000000
O O5 0.500000 0.070998 0.750000
O O6 0.514455 0.070227 0.500000
O O7 0.743905 0.047813 0.631673
O O8 0.500000 0.000000 0.626564
O O9 0.990755 0.052219 0.500000
O O10 0.000000 0.049781 0.750000
O O11 0.752328 0.818129 0.500000
O O12 0.750000 0.750000 0.365191
#
# Coordination Sequence:
#
# PCOD9496163 Si02
#       4
#    16  16  16  16
#     4   9  17  30  48  73 103 135 178 228 274 323
#     4   9  19  37  59  83 115 152 188 229 283 349
#     4  10  19  33  58  88 114 146 189 239 291 341
#     4   9  16  27  46  70 100 136 172 216 273 329
#
# _framework density 21.536055999999999
#
# number of rings (size 3 to 8) (size 9 to 14) (size 15 to 20)
#    0.000    2.750    2.500    0.000    0.000    1.500 
#    0.000    2.500    5.500   13.500    0.000    0.000 
#    0.000    0.000    0.000    0.000    0.000    0.000 
#
# Total GULP energy -178169.942932 kJ/mol
# GULP energy per Si atom -5567.810717 kJ/mol
# Density = 2.148704 g / cm^3
# Si number density = 21.536056 Si / 1000 Ang^3
#
#
#
# Elastic Constant Matrix: (Units=GPa)
#
#
# Indices 1 2 3 4 5 6 
#
# 1 43.9079 25.5788 27.3588 0.0000 0.0000 0.0000
# 2 25.5788 72.5373 18.6797 0.0000 0.0000 0.0000
# 3 27.3588 18.6797 322.0367 0.0000 0.0000 0.0000
# 4 0.0000 0.0000 0.0000-3958.9892 0.0000 0.0000
# 5 0.0000 0.0000 0.0000 0.0000 25.6420 0.0000
# 6 0.0000 0.0000 0.0000 0.0000 0.0000 23.5242
#
#
#
# Elastic Compliance Matrix: (Units=1/GPa)
#
#
# Indices 1 2 3 4 5 6 
#
# 1 0.029826 -0.010015 -0.001953 0.000000 0.000000 0.000000
# 2 -0.010015 0.017358 -0.000156 0.000000 0.000000 0.000000
# 3 -0.001953 -0.000156 0.003280 0.000000 0.000000 0.000000
# 4 0.000000 0.000000 0.000000 -0.000253 0.000000 0.000000
# 5 0.000000 0.000000 0.000000 0.000000 0.038998 0.000000
# 6 0.000000 0.000000 0.000000 0.000000 0.000000 0.042509
#
#
# Mechanical properties :
#
#
# Convention : Reuss Voigt Hill
#
# Bulk Modulus (GPa) = 38.14382 64.63514 51.38948
# Shear Modulus (GPa) = 30.35731 -757.50694 -363.57482
#
# Velocity S-wave (km/s) = 3.75854 -18.77505 -13.00723
# Velocity P-wave (km/s) = 6.04860 20.97441 14.20106
#
# Compressibility (1/GPa) = 0.02621657
#
# Stress axis : x y z
#
# Youngs Moduli (GPa) = 33.52793 57.61160 304.85916
#
# Poissons Ratio (x) = 0.57695 0.59538
# Poissons Ratio (y) = 0.33577 0.04757
# Poissons Ratio (z) = 0.06548 0.00899
#
# Static dielectric constant tensor:
#      x y z
#    x 1.721470 0.000000 0.000000 
#    y 0.000000 1.749860 0.000000 
#    z 0.000000 0.000000 1.941320 
# 
# From -- ./inp_files/13588.got.cif
#   From: 2010.05.17/outbox.cif.g08.bks.cpg/sg66_7_cif.got.tgz:13588.got - 2010.06.03 17:51:23.
