data_PCOD9496797
_publ_section_title
;
Structure prediction by ZEFSAII (Michael W. Deem and Ramdas Pophale) SiO2 
 PCOD9496797
Probable space group: C C C M
;
_chemical_formula_sum "Si O2"
_cell_formula_units_Z 56
_cell_length_a 10.345261
_cell_length_b 29.401267
_cell_length_c 9.969595
_cell_angle_alpha 90.000000
_cell_angle_beta 90.000000
_cell_angle_gamma 90.000000
_cell_volume 3032.389709
_symmetry_space_group_name_H-M "C C C M"
_symmetry_group_IT_number 66
_symmetry_cell_setting 'orthorhombic'
loop_
_space_group_symop_operation_xyz
x,y,z
-x,-y,z
x,-y,1/2-z
-x,y,1/2-z
-x,-y,-z
x,y,-z
-x,y,1/2+z
x,-y,1/2+z
1/2+x,1/2+y,z
1/2-x,1/2-y,z
1/2+x,1/2-y,1/2-z
1/2-x,1/2+y,1/2-z
1/2-x,1/2-y,-z
1/2+x,1/2+y,-z
1/2-x,1/2+y,1/2+z
1/2+x,1/2-y,1/2+z
loop_
_atom_site_type_symbol
_atom_site_label
_atom_site_fract_x
_atom_site_fract_y
_atom_site_fract_z
Si Si1 0.638971 0.786306 0.500000
Si Si2 0.356422 0.112761 0.500000
Si Si3 0.170268 0.613810 0.500000
Si Si4 0.343224 0.948172 0.250463
Si Si5 0.660602 0.705434 0.000000
Si Si6 0.500000 0.258271 0.250000
O O1 0.750000 0.750000 0.500000
O O2 0.695741 0.836573 0.500000
O O3 0.566377 0.775495 0.359585
O O4 0.513501 0.120926 0.500000
O O5 0.313927 0.082479 0.376370
O O6 0.199774 0.581740 0.374809
O O7 0.249992 0.660550 0.500000
O O8 0.500000 0.951315 0.250000
O O9 0.294849 0.000000 0.250000
O O10 0.750000 0.750000 0.000000
O O11 0.581083 0.710786 0.858072
#
# Coordination Sequence:
#
# PCOD9496797 Si02
#       6
#     8   8   8  16   8   8
#     4  11  24  36  57  79 114 146 186 223 274 324
#     4  10  21  30  52  82 112 147 182 217 271 338
#     4  10  20  33  57  78 109 151 179 217 280 337
#     4   9  18  32  50  79 115 144 179 226 275 332
#     4  11  23  39  60  81 114 149 191 228 281 330
#     4  10  24  40  54  80 116 144 186 238 270 318
#
# _framework density 18.467283999999999
#
# number of rings (size 3 to 8) (size 9 to 14) (size 15 to 20)
#    0.000    2.000    0.000    3.429   14.000    3.429 
#    0.000    0.000    0.000    0.000    0.000    3.000 
#    0.000    0.000    0.000    0.000    0.000    0.000 
#
# Total GULP energy -155871.467655 kJ/mol
# GULP energy per Si atom -5566.838131 kJ/mol
# Density = 1.842525 g / cm^3
# Si number density = 18.467284 Si / 1000 Ang^3
#
#
#
# Elastic Constant Matrix: (Units=GPa)
#
#
# Indices 1 2 3 4 5 6 
#
# 1 23.3424 32.9559 37.4111 0.0000 0.0000 0.0000
# 2 32.9559 222.6205 96.1720 0.0000 0.0000 0.0000
# 3 37.4111 96.1720 212.0693 0.0000 0.0000 0.0000
# 4 0.0000 0.0000 0.0000 32.6644 0.0000 0.0000
# 5 0.0000 0.0000 0.0000 0.0000 -34.4090 0.0000
# 6 0.0000 0.0000 0.0000 0.0000 0.0000 25.5184
#
#
#
# Elastic Compliance Matrix: (Units=1/GPa)
#
#
# Indices 1 2 3 4 5 6 
#
# 1 0.065298 -0.005833 -0.008874 0.000000 0.000000 0.000000
# 2 -0.005833 0.006107 -0.001741 0.000000 0.000000 0.000000
# 3 -0.008874 -0.001741 0.007070 0.000000 0.000000 0.000000
# 4 0.000000 0.000000 0.000000 0.030614 0.000000 0.000000
# 5 0.000000 0.000000 0.000000 0.000000 -0.029062 0.000000
# 6 0.000000 0.000000 0.000000 0.000000 0.000000 0.039187
#
#
# Mechanical properties :
#
#
# Convention : Reuss Voigt Hill
#
# Bulk Modulus (GPa) = 21.93920 87.90111 54.92016
# Shear Modulus (GPa) = 29.88571 24.18764 27.03668
#
# Velocity S-wave (km/s) = 4.02718 3.62298 3.83042
# Velocity P-wave (km/s) = 5.79052 8.07483 7.02613
#
# Compressibility (1/GPa) = 0.04558050
#
# Stress axis : x y z
#
# Youngs Moduli (GPa) = 15.31440 163.73566 141.43682
#
# Poissons Ratio (x) = 0.95505 1.25511
# Poissons Ratio (y) = 0.08933 0.24620
# Poissons Ratio (z) = 0.13590 0.28501
#
# Static dielectric constant tensor:
#      x y z
#    x 1.684110 0.000000 0.000000 
#    y 0.000000 1.602570 0.000000 
#    z 0.000000 0.000000 2.552670 
# 
# From -- ./inp_files/3778.got.cif
#   From: 2010.05.17/outbox.cif.g08.bks.cpg/sg66_2_cif.got.tgz:3778.got - 2010.06.03 17:51:23.
