data_PCOD9496374
_publ_section_title
;
Structure prediction by ZEFSAII (Michael W. Deem and Ramdas Pophale) SiO2 
 PCOD9496374
Probable space group: C C C M
;
_chemical_formula_sum "Si O2"
_cell_formula_units_Z 68
_cell_length_a 5.364375
_cell_length_b 34.260562
_cell_length_c 20.413130
_cell_angle_alpha 90.000000
_cell_angle_beta 90.000000
_cell_angle_gamma 90.000000
_cell_volume 3751.657763
_symmetry_space_group_name_H-M "C C C M"
_symmetry_group_IT_number 66
_symmetry_cell_setting 'orthorhombic'
loop_
_space_group_symop_operation_xyz
x,y,z
-x,-y,z
x,-y,1/2-z
-x,y,1/2-z
-x,-y,-z
x,y,-z
-x,y,1/2+z
x,-y,1/2+z
1/2+x,1/2+y,z
1/2-x,1/2-y,z
1/2+x,1/2-y,1/2-z
1/2-x,1/2+y,1/2-z
1/2-x,1/2-y,-z
1/2+x,1/2+y,-z
1/2-x,1/2+y,1/2+z
1/2+x,1/2-y,1/2+z
loop_
_atom_site_type_symbol
_atom_site_label
_atom_site_fract_x
_atom_site_fract_y
_atom_site_fract_z
Si Si1 0.000000 0.364756 0.750000
Si Si2 0.545833 0.157029 0.394783
Si Si3 0.955776 0.107837 0.925683
Si Si4 0.000000 0.500000 0.250000
Si Si5 0.002159 0.275736 0.000000
Si Si6 0.315542 0.564222 0.196858
O O1 0.944840 0.340391 0.684431
O O2 0.783725 0.394979 0.772071
O O3 0.300803 0.131952 0.414207
O O4 0.517073 0.196494 0.436019
O O5 0.800376 0.134735 0.414715
O O6 0.944581 0.074356 0.871080
O O7 0.959890 0.093621 0.000000
O O8 0.894457 0.468185 0.197606
O O9 0.250000 0.250000 0.000000
O O10 0.750000 0.250000 0.000000
O O11 0.500000 0.546925 0.250000
#
# Coordination Sequence:
#
# PCOD9496374 Si02
#       6
#     8  16  16   4   8  16
#     4   9  20  35  60  90 110 150 210 260 288 328
#     4  11  21  38  61  87 121 152 197 254 296 341
#     4  11  20  36  61  92 115 150 204 259 292 335
#     4  10  22  36  54  82 128 168 190 246 318 372
#     4  12  24  40  58  88 124 165 195 225 305 390
#     4  10  19  35  58  86 117 156 205 246 300 365
#
# _framework density 18.125319000000001
#
# number of rings (size 3 to 8) (size 9 to 14) (size 15 to 20)
#    0.000    1.412    4.706    1.765    0.000    0.000 
#    0.000    1.765    0.000    2.824    0.000    0.000 
#    0.000    0.000    0.000    0.000    0.000    0.000 
#
# Total GULP energy -189324.601267 kJ/mol
# GULP energy per Si atom -5568.370626 kJ/mol
# Density = 1.808407 g / cm^3
# Si number density = 18.125319 Si / 1000 Ang^3
#
#
#
# Elastic Constant Matrix: (Units=GPa)
#
#
# Indices 1 2 3 4 5 6 
#
# 1 97.1826 30.4872 28.8562 0.0000 0.0000 0.0000
# 2 30.4872 94.1695 61.5236 0.0000 0.0000 0.0000
# 3 28.8562 61.5236 188.5246 0.0000 0.0000 0.0000
# 4 0.0000 0.0000 0.0000 0.0480 0.0000 0.0000
# 5 0.0000 0.0000 0.0000 0.0000 18.3415 0.0000
# 6 0.0000 0.0000 0.0000 0.0000 0.0000 24.7329
#
#
#
# Elastic Compliance Matrix: (Units=1/GPa)
#
#
# Indices 1 2 3 4 5 6 
#
# 1 0.011524 -0.003277 -0.000694 0.000000 0.000000 0.000000
# 2 -0.003277 0.014429 -0.004207 0.000000 0.000000 0.000000
# 3 -0.000694 -0.004207 0.006784 0.000000 0.000000 0.000000
# 4 0.000000 0.000000 0.000000 20.819512 0.000000 0.000000
# 5 0.000000 0.000000 0.000000 0.000000 0.054521 0.000000
# 6 0.000000 0.000000 0.000000 0.000000 0.000000 0.040432
#
#
# Mechanical properties :
#
#
# Convention : Reuss Voigt Hill
#
# Bulk Modulus (GPa) = 61.05371 69.06785 65.06078
# Shear Modulus (GPa) = 0.23845 25.89180 13.06512
#
# Velocity S-wave (km/s) = 0.36310 3.78363 2.68772
# Velocity P-wave (km/s) = 5.82521 7.56811 6.75313
#
# Compressibility (1/GPa) = 0.01637902
#
# Stress axis : x y z
#
# Youngs Moduli (GPa) = 86.77386 69.30605 147.41456
#
# Poissons Ratio (x) = 0.22713 0.10237
# Poissons Ratio (y) = 0.28438 0.62019
# Poissons Ratio (z) = 0.06026 0.29158
#
# Static dielectric constant tensor:
#      x y z
#    x 1.835620 0.000000 0.000000 
#    y 0.000000 1.598240 0.000000 
#    z 0.000000 0.000000 1.546900 
# 
# From -- ./inp_files/45803.got.cif
#   From: 2010.05.17/outbox.cif.g08.bks.cpg/sg66_23_cif.got.tgz:45803.got - 2010.06.03 17:51:23.
