data_PCOD9496610
_publ_section_title
;
Structure prediction by ZEFSAII (Michael W. Deem and Ramdas Pophale) SiO2 
 PCOD9496610
Probable space group: C C C M
;
_chemical_formula_sum "Si O2"
_cell_formula_units_Z 88
_cell_length_a 17.495868
_cell_length_b 9.063945
_cell_length_c 28.609410
_cell_angle_alpha 90.000000
_cell_angle_beta 90.000000
_cell_angle_gamma 90.000000
_cell_volume 4536.925592
_symmetry_space_group_name_H-M "C C C M"
_symmetry_group_IT_number 66
_symmetry_cell_setting 'orthorhombic'
loop_
_space_group_symop_operation_xyz
x,y,z
-x,-y,z
x,-y,1/2-z
-x,y,1/2-z
-x,-y,-z
x,y,-z
-x,y,1/2+z
x,-y,1/2+z
1/2+x,1/2+y,z
1/2-x,1/2-y,z
1/2+x,1/2-y,1/2-z
1/2-x,1/2+y,1/2-z
1/2-x,1/2-y,-z
1/2+x,1/2+y,-z
1/2-x,1/2+y,1/2+z
1/2+x,1/2-y,1/2+z
loop_
_atom_site_type_symbol
_atom_site_label
_atom_site_fract_x
_atom_site_fract_y
_atom_site_fract_z
Si Si1 0.941812 0.864530 0.368401
Si Si2 0.573096 0.096245 0.193048
Si Si3 0.482082 0.174591 0.053717
Si Si4 0.147735 0.363243 0.124054
Si Si5 0.793155 0.500000 0.250000
Si Si6 0.197144 0.062630 0.843519
O O1 0.955042 0.751415 0.326117
O O2 0.959039 0.770008 0.415132
O O3 0.858134 0.932445 0.359650
O O4 0.000000 0.000000 0.368102
O O5 0.643569 0.114832 0.229275
O O6 0.500000 0.000000 0.206456
O O7 0.607342 0.998155 0.150535
O O8 0.400050 0.184699 0.079193
O O9 0.500000 0.000000 0.055054
O O10 0.481308 0.222898 0.000000
O O11 0.152178 0.217660 0.156589
O O12 0.234934 0.414768 0.118863
O O13 0.739594 0.540524 0.206213
#
# Coordination Sequence:
#
# PCOD9496610 Si02
#       6
#    16  16  16  16   8  16
#     4  12  22  40  65  96 131 169 207 271 336 375
#     4  11  20  38  64  89 126 174 218 258 318 384
#     4  11  22  42  71  96 121 166 222 264 317 400
#     4  10  19  41  62  85 129 173 206 254 332 386
#     4  10  25  40  61  94 126 166 224 260 305 382
#     4  10  23  38  64  89 130 170 208 266 321 383
#
# _framework density 19.396394999999998
#
# number of rings (size 3 to 8) (size 9 to 14) (size 15 to 20)
#    0.000    1.273    5.455    0.273    0.000    9.091 
#    0.000    5.000    0.000    2.182    0.000    0.000 
#    0.000    0.000    0.000    0.000    0.000    0.000 
#
# Total GULP energy -245239.960665 kJ/mol
# GULP energy per Si atom -5573.635470 kJ/mol
# Density = 1.935225 g / cm^3
# Si number density = 19.396395 Si / 1000 Ang^3
#
#
#
# Elastic Constant Matrix: (Units=GPa)
#
#
# Indices 1 2 3 4 5 6 
#
# 1 117.0801 45.6274 67.9303 0.0000 0.0000 0.0000
# 2 45.6274 101.1038 43.7324 0.0000 0.0000 0.0000
# 3 67.9303 43.7324 125.8787 0.0000 0.0000 0.0000
# 4 0.0000 0.0000 0.0000 -12.7704 0.0000 0.0000
# 5 0.0000 0.0000 0.0000 0.0000 21.9050 0.0000
# 6 0.0000 0.0000 0.0000 0.0000 0.0000 43.6299
#
#
#
# Elastic Compliance Matrix: (Units=1/GPa)
#
#
# Indices 1 2 3 4 5 6 
#
# 1 0.013374 -0.003429 -0.006026 0.000000 0.000000 0.000000
# 2 -0.003429 0.012519 -0.002499 0.000000 0.000000 0.000000
# 3 -0.006026 -0.002499 0.012064 0.000000 0.000000 0.000000
# 4 0.000000 0.000000 0.000000 -0.078306 0.000000 0.000000
# 5 0.000000 0.000000 0.000000 0.000000 0.045652 0.000000
# 6 0.000000 0.000000 0.000000 0.000000 0.000000 0.022920
#
#
# Mechanical properties :
#
#
# Convention : Reuss Voigt Hill
#
# Bulk Modulus (GPa) = 71.17649 73.18253 72.17951
# Shear Modulus (GPa) = 88.00768 23.00439 55.50603
#
# Velocity S-wave (km/s) = 6.74327 3.44759 5.35526
# Velocity P-wave (km/s) = 9.86936 7.32528 8.69092
#
# Compressibility (1/GPa) = 0.01404958
#
# Stress axis : x y z
#
# Youngs Moduli (GPa) = 74.77380 79.87720 82.89017
#
# Poissons Ratio (x) = 0.27390 0.49948
# Poissons Ratio (y) = 0.25640 0.20714
# Poissons Ratio (z) = 0.45057 0.19961
#
# Static dielectric constant tensor:
#      x y z
#    x 1.722340 0.000000 0.000000 
#    y 0.000000 1.714310 0.000000 
#    z 0.000000 0.000000 1.692180 
# 
# From -- ./inp_files/69927.got.cif
#   From: 2010.05.17/outbox.cif.g08.bks.cpg/sg66_35_cif.got.tgz:69927.got - 2010.06.03 17:51:23.
