data_PCOD9496406
_publ_section_title
;
Structure prediction by ZEFSAII (Michael W. Deem and Ramdas Pophale) SiO2 
 PCOD9496406
Probable space group: C C C M
;
_chemical_formula_sum "Si O2"
_cell_formula_units_Z 64
_cell_length_a 11.523268
_cell_length_b 17.460690
_cell_length_c 15.421843
_cell_angle_alpha 90.000000
_cell_angle_beta 90.000000
_cell_angle_gamma 90.000000
_cell_volume 3102.939743
_symmetry_space_group_name_H-M "C C C M"
_symmetry_group_IT_number 66
_symmetry_cell_setting 'orthorhombic'
loop_
_space_group_symop_operation_xyz
x,y,z
-x,-y,z
x,-y,1/2-z
-x,y,1/2-z
-x,-y,-z
x,y,-z
-x,y,1/2+z
x,-y,1/2+z
1/2+x,1/2+y,z
1/2-x,1/2-y,z
1/2+x,1/2-y,1/2-z
1/2-x,1/2+y,1/2-z
1/2-x,1/2-y,-z
1/2+x,1/2+y,-z
1/2-x,1/2+y,1/2+z
1/2+x,1/2-y,1/2+z
loop_
_atom_site_type_symbol
_atom_site_label
_atom_site_fract_x
_atom_site_fract_y
_atom_site_fract_z
Si Si1 0.745513 0.141125 0.355240
Si Si2 0.325424 0.681051 0.840365
Si Si3 0.947120 0.251639 0.403239
Si Si4 0.367442 0.511464 0.144613
O O1 0.774724 0.162180 0.255123
O O2 0.840913 0.191932 0.404356
O O3 0.616056 0.170245 0.374117
O O4 0.776819 0.054530 0.379782
O O5 0.250000 0.750000 0.878922
O O6 0.454726 0.715690 0.842471
O O7 0.330216 0.596786 0.881459
O O8 0.995211 0.259644 0.500000
O O9 0.500000 0.500000 0.113707
O O10 0.373287 0.500000 0.250000
#
# Coordination Sequence:
#
# PCOD9496406 Si02
#       4
#    16  16  16  16
#     4  10  19  35  61  82 112 153 199 235 280 340
#     4  11  21  35  61  87 114 148 196 241 289 339
#     4  11  22  36  56  87 122 152 188 236 293 350
#     4   9  17  31  55  87 113 139 193 252 281 321
#
# _framework density 20.625603000000002
#
# number of rings (size 3 to 8) (size 9 to 14) (size 15 to 20)
#    0.000    1.750    5.000    2.250    0.000    0.500 
#    0.000    5.000    0.000    6.000    0.000    0.000 
#    0.000    0.000    0.000    0.000    0.000    0.000 
#
# Total GULP energy -178328.541016 kJ/mol
# GULP energy per Si atom -5572.766907 kJ/mol
# Density = 2.057866 g / cm^3
# Si number density = 20.625603 Si / 1000 Ang^3
#
#
#
# Elastic Constant Matrix: (Units=GPa)
#
#
# Indices 1 2 3 4 5 6 
#
# 1 59.4401 67.8431 1.3831 0.0000 0.0000 0.0000
# 2 67.8431 214.4551 -2.6201 0.0000 0.0000 0.0000
# 3 1.3831 -2.6201 44.9002 0.0000 0.0000 0.0000
# 4 0.0000 0.0000 0.0000 1.5415 0.0000 0.0000
# 5 0.0000 0.0000 0.0000 0.0000 45.5555 0.0000
# 6 0.0000 0.0000 0.0000 0.0000 0.0000 39.0019
#
#
#
# Elastic Compliance Matrix: (Units=1/GPa)
#
#
# Indices 1 2 3 4 5 6 
#
# 1 0.026407 -0.008370 -0.001302 0.000000 0.000000 0.000000
# 2 -0.008370 0.007319 0.000685 0.000000 0.000000 0.000000
# 3 -0.001302 0.000685 0.022352 0.000000 0.000000 0.000000
# 4 0.000000 0.000000 0.000000 0.648715 0.000000 0.000000
# 5 0.000000 0.000000 0.000000 0.000000 0.021951 0.000000
# 6 0.000000 0.000000 0.000000 0.000000 0.000000 0.025640
#
#
# Mechanical properties :
#
#
# Convention : Reuss Voigt Hill
#
# Bulk Modulus (GPa) = 26.24368 50.22304 38.23336
# Shear Modulus (GPa) = 6.38522 34.03241 20.20881
#
# Velocity S-wave (km/s) = 1.76139 4.06644 3.13356
# Velocity P-wave (km/s) = 4.10952 6.81547 5.62755
#
# Compressibility (1/GPa) = 0.03810441
#
# Stress axis : x y z
#
# Youngs Moduli (GPa) = 37.86880 136.62817 44.73931
#
# Poissons Ratio (x) = 1.14355 0.05824
# Poissons Ratio (y) = 0.31695 -0.03064
# Poissons Ratio (z) = 0.04930 -0.09358
#
# Static dielectric constant tensor:
#      x y z
#    x 1.736240 0.000000 0.000000 
#    y 0.000000 1.771520 0.000000 
#    z 0.000000 0.000000 1.812940 
# 
# From -- ./inp_files/38202.got.cif
#   From: 2010.05.17/outbox.cif.g08.bks.cpg/sg66_20_cif.got.tgz:38202.got - 2010.06.03 17:51:23.
