data_PCOD9496629
_publ_section_title
;
Structure prediction by ZEFSAII (Michael W. Deem and Ramdas Pophale) SiO2 
 PCOD9496629
Probable space group: C C C M
;
_chemical_formula_sum "Si O2"
_cell_formula_units_Z 88
_cell_length_a 30.063639
_cell_length_b 19.965145
_cell_length_c 8.957958
_cell_angle_alpha 90.000000
_cell_angle_beta 90.000000
_cell_angle_gamma 90.000000
_cell_volume 5376.789551
_symmetry_space_group_name_H-M "C C C M"
_symmetry_group_IT_number 66
_symmetry_cell_setting 'orthorhombic'
loop_
_space_group_symop_operation_xyz
x,y,z
-x,-y,z
x,-y,1/2-z
-x,y,1/2-z
-x,-y,-z
x,y,-z
-x,y,1/2+z
x,-y,1/2+z
1/2+x,1/2+y,z
1/2-x,1/2-y,z
1/2+x,1/2-y,1/2-z
1/2-x,1/2+y,1/2-z
1/2-x,1/2-y,-z
1/2+x,1/2+y,-z
1/2-x,1/2+y,1/2+z
1/2+x,1/2-y,1/2+z
loop_
_atom_site_type_symbol
_atom_site_label
_atom_site_fract_x
_atom_site_fract_y
_atom_site_fract_z
Si Si1 0.250000 0.750000 0.251125
Si Si2 0.686235 0.431495 0.178343
Si Si3 0.223995 0.393333 0.165861
Si Si4 0.452845 0.926399 0.820026
Si Si5 0.872265 0.653653 0.820531
Si Si6 0.654550 0.711385 0.332383
O O1 0.237841 0.684624 0.343462
O O2 0.293602 0.732353 0.159046
O O3 0.669170 0.500000 0.250000
O O4 0.737699 0.423500 0.230707
O O5 0.658391 0.365102 0.224967
O O6 0.684930 0.434093 0.000000
O O7 0.172958 0.388132 0.219013
O O8 0.225750 0.423768 0.000000
O O9 0.500000 0.904095 0.750000
O O10 0.413544 0.878761 0.764165
O O11 0.444645 0.000000 0.750000
O O12 0.455206 0.929970 0.000000
O O13 0.866566 0.730968 0.769596
O O14 0.876781 0.650078 0.000000
O O15 0.635492 0.712585 0.500000
#
# Coordination Sequence:
#
# PCOD9496629 Si02
#       6
#     8  16  16  16  16  16
#     4   8  14  24  42  62  84 114 152 192 234 282
#     4  10  20  31  44  62  90 127 167 206 246 289
#     4   9  17  28  43  62  87 118 155 196 236 277
#     4  11  22  38  58  77 100 127 155 189 231 283
#     4  10  20  33  50  73  97 124 159 198 239 285
#     4   9  17  29  45  66  90 121 159 200 243 284
#
# _framework density 16.366643
#
# number of rings (size 3 to 8) (size 9 to 14) (size 15 to 20)
#    0.000    2.364    0.000    3.818    0.000   10.909 
#    0.000    0.000    0.000    0.000    0.000    0.000 
#    0.000    0.727    0.000    7.636    0.000    4.182 
#
# Total GULP energy -245040.325499 kJ/mol
# GULP energy per Si atom -5569.098307 kJ/mol
# Density = 1.632939 g / cm^3
# Si number density = 16.366643 Si / 1000 Ang^3
#
#
#
# Elastic Constant Matrix: (Units=GPa)
#
#
# Indices 1 2 3 4 5 6 
#
# 1 74.8920 31.8395 35.0928 0.0000 0.0000 0.0000
# 2 31.8395 68.5450 27.0188 0.0000 0.0000 0.0000
# 3 35.0928 27.0188 86.7494 0.0000 0.0000 0.0000
# 4 0.0000 0.0000 0.0000 43.1450 0.0000 0.0000
# 5 0.0000 0.0000 0.0000 0.0000 14.4568 0.0000
# 6 0.0000 0.0000 0.0000 0.0000 0.0000 22.5293
#
#
#
# Elastic Compliance Matrix: (Units=1/GPa)
#
#
# Indices 1 2 3 4 5 6 
#
# 1 0.018718 -0.006509 -0.005545 0.000000 0.000000 0.000000
# 2 -0.006509 0.018894 -0.003252 0.000000 0.000000 0.000000
# 3 -0.005545 -0.003252 0.014783 0.000000 0.000000 0.000000
# 4 0.000000 0.000000 0.000000 0.023178 0.000000 0.000000
# 5 0.000000 0.000000 0.000000 0.000000 0.069172 0.000000
# 6 0.000000 0.000000 0.000000 0.000000 0.000000 0.044387
#
#
# Mechanical properties :
#
#
# Convention : Reuss Voigt Hill
#
# Bulk Modulus (GPa) = 45.90396 46.45428 46.17912
# Shear Modulus (GPa) = 22.02610 25.10856 23.56733
#
# Velocity S-wave (km/s) = 3.67248 3.92105 3.79880
# Velocity P-wave (km/s) = 6.78904 6.99604 6.89332
#
# Compressibility (1/GPa) = 0.02178461
#
# Stress axis : x y z
#
# Youngs Moduli (GPa) = 53.42477 52.92654 67.64431
#
# Poissons Ratio (x) = 0.34450 0.37507
# Poissons Ratio (y) = 0.34774 0.21995
# Poissons Ratio (z) = 0.29622 0.17210
#
# Static dielectric constant tensor:
#      x y z
#    x 1.535640 0.000000 0.000000 
#    y 0.000000 1.586290 0.000000 
#    z 0.000000 0.000000 1.577380 
# 
# From -- ./inp_files/8981.got.cif
#   From: 2010.05.17/outbox.cif.g08.bks.cpg/sg66_5_cif.got.tgz:8981.got - 2010.06.03 17:51:23.
