data_PCOD9496908
_publ_section_title
;
Structure prediction by ZEFSAII (Michael W. Deem and Ramdas Pophale) SiO2 
 PCOD9496908
Probable space group: C C C M
;
_chemical_formula_sum "Si O2"
_cell_formula_units_Z 80
_cell_length_a 22.205666
_cell_length_b 13.299957
_cell_length_c 14.822258
_cell_angle_alpha 90.000000
_cell_angle_beta 90.000000
_cell_angle_gamma 90.000000
_cell_volume 4377.522717
_symmetry_space_group_name_H-M "C C C M"
_symmetry_group_IT_number 66
_symmetry_cell_setting 'orthorhombic'
loop_
_space_group_symop_operation_xyz
x,y,z
-x,-y,z
x,-y,1/2-z
-x,y,1/2-z
-x,-y,-z
x,y,-z
-x,y,1/2+z
x,-y,1/2+z
1/2+x,1/2+y,z
1/2-x,1/2-y,z
1/2+x,1/2-y,1/2-z
1/2-x,1/2+y,1/2-z
1/2-x,1/2-y,-z
1/2+x,1/2+y,-z
1/2-x,1/2+y,1/2+z
1/2+x,1/2-y,1/2+z
loop_
_atom_site_type_symbol
_atom_site_label
_atom_site_fract_x
_atom_site_fract_y
_atom_site_fract_z
Si Si1 0.682055 0.581969 0.500000
Si Si2 0.657683 0.903478 0.190195
Si Si3 0.565388 0.763044 0.294090
Si Si4 0.656901 0.591393 0.687251
Si Si5 0.322147 0.006256 0.500000
Si Si6 0.392831 0.785546 0.000000
Si Si7 0.250000 0.750000 0.760710
O O1 0.649953 0.543679 0.589551
O O2 0.751623 0.543694 0.500000
O O3 0.659537 0.699595 0.500000
O O4 0.600073 0.852075 0.239498
O O5 0.707008 0.817074 0.200371
O O6 0.674144 0.000000 0.250000
O O7 0.658932 0.942911 0.088286
O O8 0.500000 0.757155 0.250000
O O9 0.601098 0.658012 0.279958
O O10 0.571194 0.777869 0.403840
O O11 0.673112 0.500000 0.750000
O O12 0.711111 0.672244 0.681143
O O13 0.360373 0.107934 0.500000
#
# Coordination Sequence:
#
# PCOD9496908 Si02
#       7
#     8  16  16  16   8   8   8
#     4  10  21  32  60  89 122 154 196 244 290 367
#     4  11  22  37  55  85 119 157 195 245 306 357
#     4  10  23  42  62  84 118 156 207 258 294 351
#     4  10  21  37  59  89 118 158 196 242 303 354
#     4  12  21  34  58  89 121 156 198 241 303 367
#     4  10  21  39  62  88 113 158 207 249 295 351
#     4  10  20  34  56  82 124 154 190 240 304 368
#
# _framework density 18.275175999999998
#
# number of rings (size 3 to 8) (size 9 to 14) (size 15 to 20)
#    0.000    1.600    2.000    3.300    5.600    2.000 
#    0.000    6.000    0.000    3.600    0.000    0.000 
#    0.000    0.000    0.000    0.000    0.000    0.000 
#
# Total GULP energy -222730.133724 kJ/mol
# GULP energy per Si atom -5568.253343 kJ/mol
# Density = 1.823358 g / cm^3
# Si number density = 18.275176 Si / 1000 Ang^3
#
#
#
# Elastic Constant Matrix: (Units=GPa)
#
#
# Indices 1 2 3 4 5 6 
#
# 1 108.0748 38.5452 43.4636 0.0000 0.0000 0.0000
# 2 38.5452 65.3283 47.3074 0.0000 0.0000 0.0000
# 3 43.4636 47.3074 161.7128 0.0000 0.0000 0.0000
# 4 0.0000 0.0000 0.0000 6.2946 0.0000 0.0000
# 5 0.0000 0.0000 0.0000 0.0000 18.3951 0.0000
# 6 0.0000 0.0000 0.0000 0.0000 0.0000 10.6921
#
#
#
# Elastic Compliance Matrix: (Units=1/GPa)
#
#
# Indices 1 2 3 4 5 6 
#
# 1 0.011985 -0.006013 -0.001462 0.000000 0.000000 0.000000
# 2 -0.006013 0.022438 -0.004948 0.000000 0.000000 0.000000
# 3 -0.001462 -0.004948 0.008024 0.000000 0.000000 0.000000
# 4 0.000000 0.000000 0.000000 0.158866 0.000000 0.000000
# 5 0.000000 0.000000 0.000000 0.000000 0.054362 0.000000
# 6 0.000000 0.000000 0.000000 0.000000 0.000000 0.093527
#
#
# Mechanical properties :
#
#
# Convention : Reuss Voigt Hill
#
# Bulk Modulus (GPa) = 56.81281 65.97201 61.39241
# Shear Modulus (GPa) = 13.16081 20.79634 16.97858
#
# Velocity S-wave (km/s) = 2.68647 3.37702 3.05134
# Velocity P-wave (km/s) = 6.38574 7.16821 6.78826
#
# Compressibility (1/GPa) = 0.01760167
#
# Stress axis : x y z
#
# Youngs Moduli (GPa) = 83.43480 44.56728 124.62112
#
# Poissons Ratio (x) = 0.26797 0.18224
# Poissons Ratio (y) = 0.50167 0.61662
# Poissons Ratio (z) = 0.12201 0.22052
#
# Static dielectric constant tensor:
#      x y z
#    x 1.647060 0.000000 0.000000 
#    y 0.000000 1.640690 0.000000 
#    z 0.000000 0.000000 1.712410 
# 
# From -- ./inp_files/32165.got.cif
#   From: 2010.05.17/outbox.cif.g08.bks.cpg/sg66_17_cif.got.tgz:32165.got - 2010.06.03 17:51:23.
