data_PCOD9496110
_publ_section_title
;
Structure prediction by ZEFSAII (Michael W. Deem and Ramdas Pophale) SiO2 
 PCOD9496110
Probable space group: C C C M
;
_chemical_formula_sum "Si O2"
_cell_formula_units_Z 80
_cell_length_a 10.253936
_cell_length_b 24.699082
_cell_length_c 18.449223
_cell_angle_alpha 90.000000
_cell_angle_beta 90.000000
_cell_angle_gamma 90.000000
_cell_volume 4672.501987
_symmetry_space_group_name_H-M "C C C M"
_symmetry_group_IT_number 66
_symmetry_cell_setting 'orthorhombic'
loop_
_space_group_symop_operation_xyz
x,y,z
-x,-y,z
x,-y,1/2-z
-x,y,1/2-z
-x,-y,-z
x,y,-z
-x,y,1/2+z
x,-y,1/2+z
1/2+x,1/2+y,z
1/2-x,1/2-y,z
1/2+x,1/2-y,1/2-z
1/2-x,1/2+y,1/2-z
1/2-x,1/2-y,-z
1/2+x,1/2+y,-z
1/2-x,1/2+y,1/2+z
1/2+x,1/2-y,1/2+z
loop_
_atom_site_type_symbol
_atom_site_label
_atom_site_fract_x
_atom_site_fract_y
_atom_site_fract_z
Si Si1 0.368659 0.526504 0.329300
Si Si2 0.387874 0.044878 0.914094
Si Si3 0.104806 0.154067 0.189484
Si Si4 0.907489 0.245425 0.581148
Si Si5 0.408777 0.845725 0.319325
O O1 0.500000 0.500000 0.358702
O O2 0.342388 0.500000 0.250000
O O3 0.245719 0.521038 0.381480
O O4 0.398743 0.589805 0.320019
O O5 0.411481 0.100310 0.869174
O O6 0.500000 0.000000 0.903559
O O7 0.377002 0.056568 0.000000
O O8 0.067901 0.187792 0.118164
O O9 0.258261 0.165255 0.204787
O O10 0.000000 0.170030 0.250000
O O11 0.959931 0.249820 0.500000
O O12 0.750000 0.250000 0.577003
O O13 0.951588 0.294282 0.632749
O O14 0.500000 0.852814 0.250000
#
# Coordination Sequence:
#
# PCOD9496110 Si02
#       5
#    16  16  16  16  16
#     4  10  20  35  57  81 109 147 184 230 274 324
#     4  10  23  37  54  82 114 148 185 226 272 330
#     4  10  19  33  55  80 107 135 181 224 266 325
#     4   9  18  34  55  79 108 139 177 226 274 322
#     4  10  21  34  58  83 105 144 181 227 272 321
#
# _framework density 17.121448999999998
#
# number of rings (size 3 to 8) (size 9 to 14) (size 15 to 20)
#    0.000    2.200    2.000    1.200    5.600    5.200 
#    0.000    0.000    0.000    3.600    0.000    0.000 
#    0.000    0.000    0.000    0.000    0.000    0.000 
#
# Total GULP energy -222942.536839 kJ/mol
# GULP energy per Si atom -5573.563421 kJ/mol
# Density = 1.708248 g / cm^3
# Si number density = 17.121449 Si / 1000 Ang^3
#
#
#
# Elastic Constant Matrix: (Units=GPa)
#
#
# Indices 1 2 3 4 5 6 
#
# 1 88.1249 33.9739 73.7735 0.0000 0.0000 0.0000
# 2 33.9739 102.0925 67.5905 0.0000 0.0000 0.0000
# 3 73.7735 67.5905 139.7130 0.0000 0.0000 0.0000
# 4 0.0000 0.0000 0.0000 22.4137 0.0000 0.0000
# 5 0.0000 0.0000 0.0000 0.0000 18.8597 0.0000
# 6 0.0000 0.0000 0.0000 0.0000 0.0000 3.2667
#
#
#
# Elastic Compliance Matrix: (Units=1/GPa)
#
#
# Indices 1 2 3 4 5 6 
#
# 1 0.020355 0.000503 -0.010992 0.000000 0.000000 0.000000
# 2 0.000503 0.014423 -0.007243 0.000000 0.000000 0.000000
# 3 -0.010992 -0.007243 0.016466 0.000000 0.000000 0.000000
# 4 0.000000 0.000000 0.000000 0.044616 0.000000 0.000000
# 5 0.000000 0.000000 0.000000 0.000000 0.053023 0.000000
# 6 0.000000 0.000000 0.000000 0.000000 0.000000 0.306123
#
#
# Mechanical properties :
#
#
# Convention : Reuss Voigt Hill
#
# Bulk Modulus (GPa) = 63.36949 75.62291 69.49620
# Shear Modulus (GPa) = 10.08614 19.21418 14.65016
#
# Velocity S-wave (km/s) = 2.42976 3.35360 2.92834
# Velocity P-wave (km/s) = 6.70550 7.69805 7.21885
#
# Compressibility (1/GPa) = 0.01578046
#
# Stress axis : x y z
#
# Youngs Moduli (GPa) = 49.12736 69.33359 60.73171
#
# Poissons Ratio (x) = -0.03491 0.66756
# Poissons Ratio (y) = -0.02473 0.43991
# Poissons Ratio (z) = 0.54000 0.50221
#
# Static dielectric constant tensor:
#      x y z
#    x 1.581250 0.000000 0.000000 
#    y 0.000000 1.583580 0.000000 
#    z 0.000000 0.000000 1.573680 
# 
# From -- ./inp_files/26380.got.cif
#   From: 2010.05.17/outbox.cif.g08.bks.cpg/sg66_14_cif.got.tgz:26380.got - 2010.06.03 17:51:23.
