data_PCOD9496751
_publ_section_title
;
Structure prediction by ZEFSAII (Michael W. Deem and Ramdas Pophale) SiO2 
 PCOD9496751
Probable space group: C C C M
;
_chemical_formula_sum "Si O2"
_cell_formula_units_Z 72
_cell_length_a 12.650619
_cell_length_b 15.876277
_cell_length_c 19.864952
_cell_angle_alpha 90.000000
_cell_angle_beta 90.000000
_cell_angle_gamma 90.000000
_cell_volume 3989.770950
_symmetry_space_group_name_H-M "C C C M"
_symmetry_group_IT_number 66
_symmetry_cell_setting 'orthorhombic'
loop_
_space_group_symop_operation_xyz
x,y,z
-x,-y,z
x,-y,1/2-z
-x,y,1/2-z
-x,-y,-z
x,y,-z
-x,y,1/2+z
x,-y,1/2+z
1/2+x,1/2+y,z
1/2-x,1/2-y,z
1/2+x,1/2-y,1/2-z
1/2-x,1/2+y,1/2-z
1/2-x,1/2-y,-z
1/2+x,1/2+y,-z
1/2-x,1/2+y,1/2+z
1/2+x,1/2-y,1/2+z
loop_
_atom_site_type_symbol
_atom_site_label
_atom_site_fract_x
_atom_site_fract_y
_atom_site_fract_z
Si Si1 0.343307 0.305850 0.819116
Si Si2 0.292567 0.344693 0.577963
Si Si3 0.028438 0.902254 0.423801
Si Si4 0.000000 0.318010 0.250000
Si Si5 0.211883 0.410583 0.287622
O O1 0.250000 0.250000 0.850264
O O2 0.387066 0.375038 0.869247
O O3 0.438791 0.243743 0.800657
O O4 0.291886 0.348399 0.752817
O O5 0.267095 0.366635 0.500000
O O6 0.250000 0.250000 0.590691
O O7 0.419233 0.350754 0.584427
O O8 0.244656 0.406203 0.634384
O O9 0.067028 0.888987 0.500000
O O10 0.000000 0.000000 0.416118
O O11 0.906743 0.374416 0.219067
O O12 0.218174 0.500000 0.250000
#
# Coordination Sequence:
#
# PCOD9496751 Si02
#       5
#    16  16  16   8  16
#     4  10  20  33  52  76 103 138 177 216 262 321
#     4  10  20  35  57  82 108 142 184 226 266 315
#     4  10  20  34  52  77 109 140 174 221 270 312
#     4  10  21  36  53  76 108 138 174 222 269 314
#     4  11  21  35  56  81 108 139 177 221 270 318
#
# _framework density 18.046149
#
# number of rings (size 3 to 8) (size 9 to 14) (size 15 to 20)
#    0.000    1.778    0.000    6.333    0.000    0.444 
#    0.000    2.222    0.000    5.333    0.000    0.000 
#    0.000    0.000    0.000    0.000    0.000    0.000 
#
# Total GULP energy -200903.471457 kJ/mol
# GULP energy per Si atom -5580.651985 kJ/mol
# Density = 1.800507 g / cm^3
# Si number density = 18.046149 Si / 1000 Ang^3
#
#
#
# Elastic Constant Matrix: (Units=GPa)
#
#
# Indices 1 2 3 4 5 6 
#
# 1 73.2801 27.9952 58.4302 0.0000 0.0000 0.0000
# 2 27.9952 71.9476 37.1046 0.0000 0.0000 0.0000
# 3 58.4302 37.1046 114.7720 0.0000 0.0000 0.0000
# 4 0.0000 0.0000 0.0000 28.3289 0.0000 0.0000
# 5 0.0000 0.0000 0.0000 0.0000 10.0943 0.0000
# 6 0.0000 0.0000 0.0000 0.0000 0.0000 19.3986
#
#
#
# Elastic Compliance Matrix: (Units=1/GPa)
#
#
# Indices 1 2 3 4 5 6 
#
# 1 0.023724 -0.003603 -0.010913 0.000000 0.000000 0.000000
# 2 -0.003603 0.017227 -0.003735 0.000000 0.000000 0.000000
# 3 -0.010913 -0.003735 0.015476 0.000000 0.000000 0.000000
# 4 0.000000 0.000000 0.000000 0.035300 0.000000 0.000000
# 5 0.000000 0.000000 0.000000 0.000000 0.099066 0.000000
# 6 0.000000 0.000000 0.000000 0.000000 0.000000 0.051550
#
#
# Mechanical properties :
#
#
# Convention : Reuss Voigt Hill
#
# Bulk Modulus (GPa) = 50.18770 56.33996 53.26383
# Shear Modulus (GPa) = 17.51385 20.66235 19.08810
#
# Velocity S-wave (km/s) = 3.11867 3.38742 3.25582
# Velocity P-wave (km/s) = 6.39056 6.82548 6.61160
#
# Compressibility (1/GPa) = 0.01992520
#
# Stress axis : x y z
#
# Youngs Moduli (GPa) = 42.15053 58.04765 64.61483
#
# Poissons Ratio (x) = 0.20916 0.70516
# Poissons Ratio (y) = 0.15188 0.24134
# Poissons Ratio (z) = 0.46000 0.21681
#
# Static dielectric constant tensor:
#      x y z
#    x 1.634200 0.000000 0.000000 
#    y 0.000000 1.630650 0.000000 
#    z 0.000000 0.000000 1.612150 
# 
# From -- ./inp_files/48370.got.cif
#   From: 2010.05.17/outbox.cif.g08.bks.cpg/sg66_25_cif.got.tgz:48370.got - 2010.06.03 17:51:23.
