data_PCOD9496076
_publ_section_title
;
Structure prediction by ZEFSAII (Michael W. Deem and Ramdas Pophale) SiO2 
 PCOD9496076
Probable space group: C C C M
;
_chemical_formula_sum "Si O2"
_cell_formula_units_Z 80
_cell_length_a 14.343005
_cell_length_b 17.946113
_cell_length_c 18.122478
_cell_angle_alpha 90.000000
_cell_angle_beta 90.000000
_cell_angle_gamma 90.000000
_cell_volume 4664.747376
_symmetry_space_group_name_H-M "C C C M"
_symmetry_group_IT_number 66
_symmetry_cell_setting 'orthorhombic'
loop_
_space_group_symop_operation_xyz
x,y,z
-x,-y,z
x,-y,1/2-z
-x,y,1/2-z
-x,-y,-z
x,y,-z
-x,y,1/2+z
x,-y,1/2+z
1/2+x,1/2+y,z
1/2-x,1/2-y,z
1/2+x,1/2-y,1/2-z
1/2-x,1/2+y,1/2-z
1/2-x,1/2-y,-z
1/2+x,1/2+y,-z
1/2-x,1/2+y,1/2+z
1/2+x,1/2-y,1/2+z
loop_
_atom_site_type_symbol
_atom_site_label
_atom_site_fract_x
_atom_site_fract_y
_atom_site_fract_z
Si Si1 0.659870 0.704937 0.294615
Si Si2 0.092056 0.951807 0.415340
Si Si3 0.503295 0.292124 0.081857
Si Si4 0.754741 0.930647 0.204904
Si Si5 0.154716 0.707530 0.355007
O O1 0.750000 0.750000 0.323607
O O2 0.580681 0.701941 0.355370
O O3 0.691971 0.625377 0.261670
O O4 0.629795 0.752195 0.222577
O O5 0.120539 0.969488 0.500000
O O6 0.060967 0.865677 0.412920
O O7 0.171898 0.961267 0.355091
O O8 0.000000 0.000000 0.398577
O O9 0.432667 0.223516 0.093684
O O10 0.544974 0.290461 0.000000
O O11 0.682405 0.876890 0.162754
O O12 0.714617 0.000000 0.250000
O O13 0.250000 0.750000 0.380579
#
# Coordination Sequence:
#
# PCOD9496076 Si02
#       5
#    16  16  16  16  16
#     4   9  19  34  51  74 100 133 177 225 260 312
#     4  10  20  30  45  78 113 141 171 208 266 335
#     4  11  20  31  52  76 106 144 176 214 271 319
#     4  10  19  33  53  76 103 141 178 219 276 315
#     4   9  18  33  50  74 101 136 177 221 252 312
#
# _framework density 17.149910999999999
#
# number of rings (size 3 to 8) (size 9 to 14) (size 15 to 20)
#    0.000    2.600    4.000    1.800    0.000    3.600 
#    0.000    0.000    0.000   10.800    0.000    5.600 
#    0.000    0.000    0.000    0.000    0.000    0.000 
#
# Total GULP energy -222926.850012 kJ/mol
# GULP energy per Si atom -5573.171250 kJ/mol
# Density = 1.711088 g / cm^3
# Si number density = 17.149911 Si / 1000 Ang^3
#
#
#
# Elastic Constant Matrix: (Units=GPa)
#
#
# Indices 1 2 3 4 5 6 
#
# 1 25.1211 4.4534 16.8963 0.0000 0.0000 0.0000
# 2 4.4534 82.2601 3.9652 0.0000 0.0000 0.0000
# 3 16.8963 3.9652 28.8928 0.0000 0.0000 0.0000
# 4 0.0000 0.0000 0.0000 16.0453 0.0000 0.0000
# 5 0.0000 0.0000 0.0000 0.0000 -5.0232 0.0000
# 6 0.0000 0.0000 0.0000 0.0000 0.0000 18.3953
#
#
#
# Elastic Compliance Matrix: (Units=1/GPa)
#
#
# Indices 1 2 3 4 5 6 
#
# 1 0.065857 -0.001720 -0.038276 0.000000 0.000000 0.000000
# 2 -0.001720 0.012282 -0.000680 0.000000 0.000000 0.000000
# 3 -0.038276 -0.000680 0.057088 0.000000 0.000000 0.000000
# 4 0.000000 0.000000 0.000000 0.062323 0.000000 0.000000
# 5 0.000000 0.000000 0.000000 0.000000 -0.199076 0.000000
# 6 0.000000 0.000000 0.000000 0.000000 0.000000 0.054362
#
#
# Mechanical properties :
#
#
# Convention : Reuss Voigt Hill
#
# Bulk Modulus (GPa) = 18.56176 20.76709 19.66442
# Shear Modulus (GPa) = 32.86296 13.28076 23.07186
#
# Velocity S-wave (km/s) = 4.38221 2.78581 3.67182
# Velocity P-wave (km/s) = 6.03753 4.74163 5.42839
#
# Compressibility (1/GPa) = 0.05387420
#
# Stress axis : x y z
#
# Youngs Moduli (GPa) = 15.18449 81.41691 17.51689
#
# Poissons Ratio (x) = 0.14006 0.67048
# Poissons Ratio (y) = 0.02612 0.01190
# Poissons Ratio (z) = 0.58121 0.05533
#
# Static dielectric constant tensor:
#      x y z
#    x 1.584770 0.000000 0.000000 
#    y 0.000000 1.598410 0.000000 
#    z 0.000000 0.000000 1.595610 
# 
# From -- ./inp_files/40190.got.cif
#   From: 2010.05.17/outbox.cif.g08.bks.cpg/sg66_21_cif.got.tgz:40190.got - 2010.06.03 17:51:23.
