data_PCOD9496108
_publ_section_title
;
Structure prediction by ZEFSAII (Michael W. Deem and Ramdas Pophale) SiO2 
 PCOD9496108
Probable space group: C C C M
;
_chemical_formula_sum "Si O2"
_cell_formula_units_Z 116
_cell_length_a 22.032108
_cell_length_b 28.007412
_cell_length_c 9.764288
_cell_angle_alpha 90.000000
_cell_angle_beta 90.000000
_cell_angle_gamma 90.000000
_cell_volume 6025.174265
_symmetry_space_group_name_H-M "C C C M"
_symmetry_group_IT_number 66
_symmetry_cell_setting 'orthorhombic'
loop_
_space_group_symop_operation_xyz
x,y,z
-x,-y,z
x,-y,1/2-z
-x,y,1/2-z
-x,-y,-z
x,y,-z
-x,y,1/2+z
x,-y,1/2+z
1/2+x,1/2+y,z
1/2-x,1/2-y,z
1/2+x,1/2-y,1/2-z
1/2-x,1/2+y,1/2-z
1/2-x,1/2-y,-z
1/2+x,1/2+y,-z
1/2-x,1/2+y,1/2+z
1/2+x,1/2-y,1/2+z
loop_
_atom_site_type_symbol
_atom_site_label
_atom_site_fract_x
_atom_site_fract_y
_atom_site_fract_z
Si Si1 0.766582 0.805421 0.842619
Si Si2 0.331203 0.045850 0.341464
Si Si3 0.410712 0.582944 0.653517
Si Si4 0.088284 0.810540 0.344252
Si Si5 0.500000 0.500000 0.750000
Si Si6 0.313440 0.546473 0.158373
Si Si7 0.165394 0.649404 0.837217
Si Si8 0.555905 0.222056 0.836923
O O1 0.750000 0.750000 0.816363
O O2 0.838474 0.813044 0.830540
O O3 0.726065 0.836937 0.742852
O O4 0.749563 0.816047 0.000000
O O5 0.346067 0.035919 0.500000
O O6 0.258359 0.055338 0.334429
O O7 0.358370 0.096708 0.297842
O O8 0.345316 0.000000 0.250000
O O9 0.383910 0.579600 0.500000
O O10 0.438401 0.636018 0.663319
O O11 0.456166 0.537987 0.672161
O O12 0.359027 0.582468 0.769173
O O13 0.076170 0.792358 0.500000
O O14 0.066651 0.774182 0.228797
O O15 0.323681 0.500000 0.250000
O O16 0.329686 0.539766 0.000000
O O17 0.115276 0.689840 0.812661
O O18 0.177914 0.647583 0.000000
O O19 0.500000 0.201381 0.750000
O O20 0.545114 0.223815 0.000000
#
# Coordination Sequence:
#
# PCOD9496108 Si02
#       8
#    16  16  16  16   4  16  16  16
#     4  10  19  33  57  89 123 153 188 236 295 358
#     4   9  19  35  56  87 120 149 183 227 277 341
#     4  11  24  40  57  76 104 143 192 246 296 341
#     4  10  22  40  60  85 116 151 192 243 297 357
#     4  12  26  40  56  78 106 144 202 256 302 328
#     4  10  19  33  55  79 109 144 181 225 280 340
#     4  10  21  37  59  87 121 156 194 238 288 345
#     4  11  24  41  61  85 114 154 196 239 286 343
#
# _framework density 19.252555999999998
#
# number of rings (size 3 to 8) (size 9 to 14) (size 15 to 20)
#    0.000    1.793    2.069    1.862    0.966    3.586 
#    0.000    0.000    0.000    0.414    0.000    2.897 
#    0.000    0.000    0.000    0.000    0.000    0.000 
#
# Total GULP energy -323555.067656 kJ/mol
# GULP energy per Si atom -5578.535649 kJ/mol
# Density = 1.920874 g / cm^3
# Si number density = 19.252556 Si / 1000 Ang^3
#
#
#
# Elastic Constant Matrix: (Units=GPa)
#
#
# Indices 1 2 3 4 5 6 
#
# 1 42.2063 20.2428 21.9471 0.0000 0.0000 0.0000
# 2 20.2428 111.9146 47.9822 0.0000 0.0000 0.0000
# 3 21.9471 47.9822 99.6769 0.0000 0.0000 0.0000
# 4 0.0000 0.0000 0.0000 28.8549 0.0000 0.0000
# 5 0.0000 0.0000 0.0000 0.0000 19.4054 0.0000
# 6 0.0000 0.0000 0.0000 0.0000 0.0000 10.3291
#
#
#
# Elastic Compliance Matrix: (Units=1/GPa)
#
#
# Indices 1 2 3 4 5 6 
#
# 1 0.027533 -0.003000 -0.004618 0.000000 0.000000 0.000000
# 2 -0.003000 0.011586 -0.004917 0.000000 0.000000 0.000000
# 3 -0.004618 -0.004917 0.013416 0.000000 0.000000 0.000000
# 4 0.000000 0.000000 0.000000 0.034656 0.000000 0.000000
# 5 0.000000 0.000000 0.000000 0.000000 0.051532 0.000000
# 6 0.000000 0.000000 0.000000 0.000000 0.000000 0.096814
#
#
# Mechanical properties :
#
#
# Convention : Reuss Voigt Hill
#
# Bulk Modulus (GPa) = 36.40931 48.23800 42.32366
# Shear Modulus (GPa) = 18.53478 22.62625 20.58052
#
# Velocity S-wave (km/s) = 3.10614 3.43189 3.27307
# Velocity P-wave (km/s) = 5.64062 6.38855 6.02620
#
# Compressibility (1/GPa) = 0.02746550
#
# Stress axis : x y z
#
# Youngs Moduli (GPa) = 36.31941 86.31099 74.53777
#
# Poissons Ratio (x) = 0.25895 0.34423
# Poissons Ratio (y) = 0.10897 0.36648
# Poissons Ratio (z) = 0.16773 0.42436
#
# Static dielectric constant tensor:
#      x y z
#    x 1.686750 0.000000 0.000000 
#    y 0.000000 1.708450 0.000000 
#    z 0.000000 0.000000 1.653740 
# 
# From -- ./inp_files/9419.got.cif
#   From: 2010.05.17/outbox.cif.g08.bks.cpg/sg66_5_cif.got.tgz:9419.got - 2010.06.03 17:51:23.
