data_PCOD9496942
_publ_section_title
;
Structure prediction by ZEFSAII (Michael W. Deem and Ramdas Pophale) SiO2 
 PCOD9496942
Probable space group: C C C M
;
_chemical_formula_sum "Si O2"
_cell_formula_units_Z 88
_cell_length_a 6.042666
_cell_length_b 27.667996
_cell_length_c 25.588177
_cell_angle_alpha 90.000000
_cell_angle_beta 90.000000
_cell_angle_gamma 90.000000
_cell_volume 4278.047874
_symmetry_space_group_name_H-M "C C C M"
_symmetry_group_IT_number 66
_symmetry_cell_setting 'orthorhombic'
loop_
_space_group_symop_operation_xyz
x,y,z
-x,-y,z
x,-y,1/2-z
-x,y,1/2-z
-x,-y,-z
x,y,-z
-x,y,1/2+z
x,-y,1/2+z
1/2+x,1/2+y,z
1/2-x,1/2-y,z
1/2+x,1/2-y,1/2-z
1/2-x,1/2+y,1/2-z
1/2-x,1/2-y,-z
1/2+x,1/2+y,-z
1/2-x,1/2+y,1/2+z
1/2+x,1/2-y,1/2+z
loop_
_atom_site_type_symbol
_atom_site_label
_atom_site_fract_x
_atom_site_fract_y
_atom_site_fract_z
Si Si1 0.243801 0.476801 0.000000
Si Si2 0.356459 0.548601 0.387212
Si Si3 0.774497 0.801570 0.843076
Si Si4 0.830473 0.138878 0.881423
Si Si5 0.564363 0.792375 0.441343
Si Si6 0.444383 0.897541 0.691835
O O1 0.500000 0.500000 0.000000
O O2 0.239770 0.452969 0.943145
O O3 0.000000 0.500000 0.000000
O O4 0.500000 0.500000 0.377945
O O5 0.513744 0.594518 0.393043
O O6 0.186861 0.562064 0.341059
O O7 0.750000 0.750000 0.815271
O O8 0.618642 0.794562 0.895082
O O9 0.695501 0.847509 0.809656
O O10 0.020080 0.816722 0.860576
O O11 0.697995 0.158221 0.931188
O O12 0.663374 0.118827 0.838404
O O13 0.469904 0.789864 0.500000
O O14 0.750000 0.750000 0.436927
O O15 0.500000 0.913096 0.750000
#
# Coordination Sequence:
#
# PCOD9496942 Si02
#       6
#     8  16  16  16  16  16
#     4  10  24  44  76 106 142 183 236 293 350 432
#     4  10  24  44  70  99 134 182 225 286 354 426
#     4  10  20  39  58  90 131 176 222 278 343 411
#     4  10  22  41  63  91 136 167 225 283 346 413
#     4  10  20  34  59  90 129 179 227 281 340 412
#     4  10  24  45  67  96 135 172 231 295 345 420
#
# _framework density 20.570129000000001
#
# number of rings (size 3 to 8) (size 9 to 14) (size 15 to 20)
#    0.000    2.000    1.818    0.000    6.364    4.000 
#   16.364    2.727    0.000    0.000    0.000    0.000 
#    0.000    0.000    0.000    0.000    0.000    0.000 
#
# Total GULP energy -245175.506990 kJ/mol
# GULP energy per Si atom -5572.170613 kJ/mol
# Density = 2.052331 g / cm^3
# Si number density = 20.570129 Si / 1000 Ang^3
#
#
#
# Elastic Constant Matrix: (Units=GPa)
#
#
# Indices 1 2 3 4 5 6 
#
# 1 82.7449 32.3713 35.2662 0.0000 0.0000 0.0000
# 2 32.3713 94.6810 45.9436 0.0000 0.0000 0.0000
# 3 35.2662 45.9436 135.2036 0.0000 0.0000 0.0000
# 4 0.0000 0.0000 0.0000 4.8750 0.0000 0.0000
# 5 0.0000 0.0000 0.0000 0.0000 -7.0558 0.0000
# 6 0.0000 0.0000 0.0000 0.0000 0.0000 35.7177
#
#
#
# Elastic Compliance Matrix: (Units=1/GPa)
#
#
# Indices 1 2 3 4 5 6 
#
# 1 0.014644 -0.003776 -0.002537 0.000000 0.000000 0.000000
# 2 -0.003776 0.013621 -0.003644 0.000000 0.000000 0.000000
# 3 -0.002537 -0.003644 0.009296 0.000000 0.000000 0.000000
# 4 0.000000 0.000000 0.000000 0.205130 0.000000 0.000000
# 5 0.000000 0.000000 0.000000 0.000000 -0.141727 0.000000
# 6 0.000000 0.000000 0.000000 0.000000 0.000000 0.027997
#
#
# Mechanical properties :
#
#
# Convention : Reuss Voigt Hill
#
# Bulk Modulus (GPa) = 56.66207 59.97686 58.31947
# Shear Modulus (GPa) = 32.30910 19.97725 26.14318
#
# Velocity S-wave (km/s) = 3.96748 3.11975 3.56888
# Velocity P-wave (km/s) = 6.97090 6.49598 6.73763
#
# Compressibility (1/GPa) = 0.01764849
#
# Stress axis : x y z
#
# Youngs Moduli (GPa) = 68.28934 73.41736 107.57288
#
# Poissons Ratio (x) = 0.27721 0.27286
# Poissons Ratio (y) = 0.25784 0.39195
# Poissons Ratio (z) = 0.17322 0.26750
#
# Static dielectric constant tensor:
#      x y z
#    x 1.719640 0.000000 0.000000 
#    y 0.000000 1.775790 0.000000 
#    z 0.000000 0.000000 1.662670 
# 
# From -- ./inp_files/54434.got.cif
#   From: 2010.05.17/outbox.cif.g08.bks.cpg/sg66_28_cif.got.tgz:54434.got - 2010.06.03 17:51:23.
