data_PCOD9496688
_publ_section_title
;
Structure prediction by ZEFSAII (Michael W. Deem and Ramdas Pophale) SiO2 
 PCOD9496688
Probable space group: C C C M
;
_chemical_formula_sum "Si O2"
_cell_formula_units_Z 52
_cell_length_a 18.180926
_cell_length_b 17.110389
_cell_length_c 9.769599
_cell_angle_alpha 90.000000
_cell_angle_beta 90.000000
_cell_angle_gamma 90.000000
_cell_volume 3039.153393
_symmetry_space_group_name_H-M "C C C M"
_symmetry_group_IT_number 66
_symmetry_cell_setting 'orthorhombic'
loop_
_space_group_symop_operation_xyz
x,y,z
-x,-y,z
x,-y,1/2-z
-x,y,1/2-z
-x,-y,-z
x,y,-z
-x,y,1/2+z
x,-y,1/2+z
1/2+x,1/2+y,z
1/2-x,1/2-y,z
1/2+x,1/2-y,1/2-z
1/2-x,1/2+y,1/2-z
1/2-x,1/2-y,-z
1/2+x,1/2+y,-z
1/2-x,1/2+y,1/2+z
1/2+x,1/2-y,1/2+z
loop_
_atom_site_type_symbol
_atom_site_label
_atom_site_fract_x
_atom_site_fract_y
_atom_site_fract_z
Si Si1 0.500000 0.500000 0.250000
Si Si2 0.116517 0.839361 0.000000
Si Si3 0.686216 0.817162 0.500000
Si Si4 0.769796 0.908516 0.716965
Si Si5 0.451347 0.398698 0.000000
Si Si6 0.203133 0.827828 0.500000
O O1 0.450781 0.450338 0.140694
O O2 0.119905 0.744361 0.000000
O O3 0.160057 0.878547 0.127857
O O4 0.032393 0.863032 0.000000
O O5 0.750000 0.750000 0.500000
O O6 0.701599 0.872672 0.629673
O O7 0.772798 0.869986 0.863100
O O8 0.767766 0.000000 0.750000
O O9 0.385831 0.335970 0.000000
O O10 0.250000 0.750000 0.500000
#
# Coordination Sequence:
#
# PCOD9496688 Si02
#       6
#     4   8   8  16   8   8
#     4  10  24  34  52  82 116 142 166 220 272 342
#     4  10  20  35  53  71 107 150 176 207 268 329
#     4   8  17  36  50  69 103 145 182 209 256 325
#     4  10  20  32  52  78 104 140 175 220 264 313
#     4  11  24  35  52  79 112 143 178 208 277 323
#     4  12  23  34  51  77 107 137 179 224 259 314
#
# _framework density 17.110028
#
# number of rings (size 3 to 8) (size 9 to 14) (size 15 to 20)
#    0.000    2.154    0.000    6.462   12.923    0.000 
#    0.000    0.000    0.000    0.000    0.000    6.462 
#    0.000    0.000    0.000    0.000    0.000    0.000 
#
# Total GULP energy -144751.928525 kJ/mol
# GULP energy per Si atom -5567.381866 kJ/mol
# Density = 1.707108 g / cm^3
# Si number density = 17.110028 Si / 1000 Ang^3
#
#
#
# Elastic Constant Matrix: (Units=GPa)
#
#
# Indices 1 2 3 4 5 6 
#
# 1 69.1959 71.1456 39.3604 0.0000 0.0000 0.0000
# 2 71.1456 168.8407 81.7502 0.0000 0.0000 0.0000
# 3 39.3604 81.7502 176.1891 0.0000 0.0000 0.0000
# 4 0.0000 0.0000 0.0000 35.3992 0.0000 0.0000
# 5 0.0000 0.0000 0.0000 0.0000 2.4029 0.0000
# 6 0.0000 0.0000 0.0000 0.0000 0.0000 22.0507
#
#
#
# Elastic Compliance Matrix: (Units=1/GPa)
#
#
# Indices 1 2 3 4 5 6 
#
# 1 0.025615 -0.010347 -0.000921 0.000000 0.000000 0.000000
# 2 -0.010347 0.011819 -0.003172 0.000000 0.000000 0.000000
# 3 -0.000921 -0.003172 0.007353 0.000000 0.000000 0.000000
# 4 0.000000 0.000000 0.000000 0.028249 0.000000 0.000000
# 5 0.000000 0.000000 0.000000 0.000000 0.416163 0.000000
# 6 0.000000 0.000000 0.000000 0.000000 0.000000 0.045350
#
#
# Mechanical properties :
#
#
# Convention : Reuss Voigt Hill
#
# Bulk Modulus (GPa) = 62.87226 88.74867 75.81046
# Shear Modulus (GPa) = 8.79147 26.76851 17.77999
#
# Velocity S-wave (km/s) = 2.26922 3.95966 3.22709
# Velocity P-wave (km/s) = 6.60995 8.53740 7.63474
#
# Compressibility (1/GPa) = 0.01590526
#
# Stress axis : x y z
#
# Youngs Moduli (GPa) = 39.04010 84.61046 135.99137
#
# Poissons Ratio (x) = 0.87550 0.12527
# Poissons Ratio (y) = 0.40396 0.43140
# Poissons Ratio (z) = 0.03596 0.26841
#
# Static dielectric constant tensor:
#      x y z
#    x 1.637690 0.000000 0.000000 
#    y 0.000000 1.571990 0.000000 
#    z 0.000000 0.000000 1.660110 
# 
# From -- ./inp_files/7299.got.cif
#   From: 2010.05.17/outbox.cif.g08.bks.cpg/sg66_4_cif.got.tgz:7299.got - 2010.06.03 17:51:23.
