data_PCOD9496232
_publ_section_title
;
Structure prediction by ZEFSAII (Michael W. Deem and Ramdas Pophale) SiO2 
 PCOD9496232
Probable space group: C C C M
;
_chemical_formula_sum "Si O2"
_cell_formula_units_Z 72
_cell_length_a 18.436783
_cell_length_b 16.923572
_cell_length_c 13.430923
_cell_angle_alpha 90.000000
_cell_angle_beta 90.000000
_cell_angle_gamma 90.000000
_cell_volume 4190.665887
_symmetry_space_group_name_H-M "C C C M"
_symmetry_group_IT_number 66
_symmetry_cell_setting 'orthorhombic'
loop_
_space_group_symop_operation_xyz
x,y,z
-x,-y,z
x,-y,1/2-z
-x,y,1/2-z
-x,-y,-z
x,y,-z
-x,y,1/2+z
x,-y,1/2+z
1/2+x,1/2+y,z
1/2-x,1/2-y,z
1/2+x,1/2-y,1/2-z
1/2-x,1/2+y,1/2-z
1/2-x,1/2-y,-z
1/2+x,1/2+y,-z
1/2-x,1/2+y,1/2+z
1/2+x,1/2-y,1/2+z
loop_
_atom_site_type_symbol
_atom_site_label
_atom_site_fract_x
_atom_site_fract_y
_atom_site_fract_z
Si Si1 0.943192 0.068467 0.384186
Si Si2 0.500000 0.705554 0.750000
Si Si3 0.631307 0.253522 0.118278
Si Si4 0.751557 0.375753 0.181191
Si Si5 0.274097 0.450571 0.113423
O O1 0.955806 0.086552 0.500000
O O2 0.860823 0.040575 0.372516
O O3 0.955980 0.146631 0.321625
O O4 0.000000 0.000000 0.357461
O O5 0.442077 0.750958 0.817835
O O6 0.677065 0.332104 0.148664
O O7 0.684297 0.181192 0.145622
O O8 0.617918 0.255771 0.000000
O O9 0.756971 0.462025 0.132058
O O10 0.751859 0.391645 0.299926
O O11 0.260273 0.424632 0.000000
#
# Coordination Sequence:
#
# PCOD9496232 Si02
#       5
#    16   8  16  16  16
#     4  10  20  31  48  77 113 145 173 216 279 342
#     4  12  21  34  52  79 112 144 182 222 274 335
#     4  11  22  37  56  79 111 152 189 226 275 334
#     4  10  20  36  56  82 112 148 191 230 270 331
#     4  10  19  34  55  81 110 143 184 234 282 324
#
# _framework density 17.181039999999999
#
# number of rings (size 3 to 8) (size 9 to 14) (size 15 to 20)
#    0.000    1.556    2.222    5.000    3.111    1.778 
#    0.000    4.444    0.000    2.667    0.000    7.778 
#    0.000    0.000    0.000    0.000    0.000    0.000 
#
# Total GULP energy -200989.640125 kJ/mol
# GULP energy per Si atom -5583.045559 kJ/mol
# Density = 1.714194 g / cm^3
# Si number density = 17.181040 Si / 1000 Ang^3
#
#
#
# Elastic Constant Matrix: (Units=GPa)
#
#
# Indices 1 2 3 4 5 6 
#
# 1 72.2475 24.5027 46.6904 0.0000 0.0000 0.0000
# 2 24.5027 45.4434 34.5091 0.0000 0.0000 0.0000
# 3 46.6904 34.5091 156.2650 0.0000 0.0000 0.0000
# 4 0.0000 0.0000 0.0000 19.4423 0.0000 0.0000
# 5 0.0000 0.0000 0.0000 0.0000 27.7215 0.0000
# 6 0.0000 0.0000 0.0000 0.0000 0.0000 15.6105
#
#
#
# Elastic Compliance Matrix: (Units=1/GPa)
#
#
# Indices 1 2 3 4 5 6 
#
# 1 0.018878 -0.007083 -0.004076 0.000000 0.000000 0.000000
# 2 -0.007083 0.029097 -0.004309 0.000000 0.000000 0.000000
# 3 -0.004076 -0.004309 0.008569 0.000000 0.000000 0.000000
# 4 0.000000 0.000000 0.000000 0.051434 0.000000 0.000000
# 5 0.000000 0.000000 0.000000 0.000000 0.036073 0.000000
# 6 0.000000 0.000000 0.000000 0.000000 0.000000 0.064059
#
#
# Mechanical properties :
#
#
# Convention : Reuss Voigt Hill
#
# Bulk Modulus (GPa) = 39.05303 53.92891 46.49097
# Shear Modulus (GPa) = 20.19519 23.77179 21.98349
#
# Velocity S-wave (km/s) = 3.43218 3.72372 3.58092
# Velocity P-wave (km/s) = 6.20372 7.06717 6.64947
#
# Compressibility (1/GPa) = 0.02560621
#
# Stress axis : x y z
#
# Youngs Moduli (GPa) = 52.97193 34.36768 116.70000
#
# Poissons Ratio (x) = 0.24344 0.47570
# Poissons Ratio (y) = 0.37522 0.50289
# Poissons Ratio (z) = 0.21593 0.14810
#
# Static dielectric constant tensor:
#      x y z
#    x 1.582600 0.000000 0.000000 
#    y 0.000000 1.560130 0.000000 
#    z 0.000000 0.000000 1.617320 
# 
# From -- ./inp_files/27972.got.cif
#   From: 2010.05.17/outbox.cif.g08.bks.cpg/sg66_14_cif.got.tgz:27972.got - 2010.06.03 17:51:23.
