data_PCOD9496005
_publ_section_title
;
Structure prediction by ZEFSAII (Michael W. Deem and Ramdas Pophale) SiO2 
 PCOD9496005
Probable space group: C C C M
;
_chemical_formula_sum "Si O2"
_cell_formula_units_Z 112
_cell_length_a 36.344667
_cell_length_b 5.205862
_cell_length_c 28.753821
_cell_angle_alpha 90.000000
_cell_angle_beta 90.000000
_cell_angle_gamma 90.000000
_cell_volume 5440.375928
_symmetry_space_group_name_H-M "C C C M"
_symmetry_group_IT_number 66
_symmetry_cell_setting 'orthorhombic'
loop_
_space_group_symop_operation_xyz
x,y,z
-x,-y,z
x,-y,1/2-z
-x,y,1/2-z
-x,-y,-z
x,y,-z
-x,y,1/2+z
x,-y,1/2+z
1/2+x,1/2+y,z
1/2-x,1/2-y,z
1/2+x,1/2-y,1/2-z
1/2-x,1/2+y,1/2-z
1/2-x,1/2-y,-z
1/2+x,1/2+y,-z
1/2-x,1/2+y,1/2+z
1/2+x,1/2-y,1/2+z
loop_
_atom_site_type_symbol
_atom_site_label
_atom_site_fract_x
_atom_site_fract_y
_atom_site_fract_z
Si Si1 0.956223 0.961010 0.696333
Si Si2 0.075610 0.460089 0.850764
Si Si3 0.202002 0.971879 0.697943
Si Si4 0.651812 0.972136 0.302478
Si Si5 0.770793 0.000268 0.099701
Si Si6 0.348685 0.459291 0.053627
Si Si7 0.101817 0.544279 0.946350
O O1 0.945642 0.680926 0.677520
O O2 0.944445 0.000000 0.750000
O O3 0.937039 0.180743 0.665716
O O4 0.000000 0.000000 0.694260
O O5 0.118594 0.495177 0.837923
O O6 0.072232 0.499698 0.905994
O O7 0.171748 0.198566 0.693516
O O8 0.217880 0.000000 0.750000
O O9 0.181580 0.698995 0.692755
O O10 0.229882 0.001041 0.655799
O O11 0.636459 0.000000 0.250000
O O12 0.750000 0.750000 0.082151
O O13 0.750000 0.250000 0.081951
O O14 0.813274 0.990653 0.085563
O O15 0.368488 0.185543 0.058503
O O16 0.378024 0.684764 0.062159
O O17 0.336458 0.485450 0.000000
O O18 0.088658 0.539379 0.000000
#
# Coordination Sequence:
#
# PCOD9496005 Si02
#       7
#    16  16  16  16  16  16  16
#     4  11  24  40  58  86 125 164 198 230 271 330
#     4  12  21  36  63  88 118 154 194 239 284 335
#     4  10  21  36  51  72 105 138 174 228 286 336
#     4  10  19  32  54  81 105 133 176 231 288 338
#     4  12  24  36  53  75 102 141 188 227 269 339
#     4  10  21  39  59  82 114 144 178 235 300 347
#     4  10  21  38  63  91 116 146 187 239 296 350
#
# _framework density 20.586811999999998
#
# number of rings (size 3 to 8) (size 9 to 14) (size 15 to 20)
#    0.000    1.286    0.000    6.857    0.000    3.429 
#    0.000    0.000    0.000    2.571    0.000    0.000 
#    0.000    0.000    0.000    0.000    0.000    0.000 
#
# Total GULP energy -313337.709073 kJ/mol
# GULP energy per Si atom -5595.316233 kJ/mol
# Density = 2.053996 g / cm^3
# Si number density = 20.586812 Si / 1000 Ang^3
#
#
#
# Elastic Constant Matrix: (Units=GPa)
#
#
# Indices 1 2 3 4 5 6 
#
# 1 15.9902 -6.6826 11.4174 0.0000 0.0000 0.0000
# 2 -6.6826 41.6709 -3.1475 0.0000 0.0000 0.0000
# 3 11.4174 -3.1475 76.3123 0.0000 0.0000 0.0000
# 4 0.0000 0.0000 0.0000 -28.5342 0.0000 0.0000
# 5 0.0000 0.0000 0.0000 0.0000 14.3672 0.0000
# 6 0.0000 0.0000 0.0000 0.0000 0.0000 22.2459
#
#
#
# Elastic Compliance Matrix: (Units=1/GPa)
#
#
# Indices 1 2 3 4 5 6 
#
# 1 0.074889 0.011198 -0.010743 0.000000 0.000000 0.000000
# 2 0.011198 0.025747 -0.000613 0.000000 0.000000 0.000000
# 3 -0.010743 -0.000613 0.014686 0.000000 0.000000 0.000000
# 4 0.000000 0.000000 0.000000 -0.035046 0.000000 0.000000
# 5 0.000000 0.000000 0.000000 0.000000 0.069603 0.000000
# 6 0.000000 0.000000 0.000000 0.000000 0.000000 0.044952
#
#
# Mechanical properties :
#
#
# Convention : Reuss Voigt Hill
#
# Bulk Modulus (GPa) = 8.69520 15.23867 11.96693
# Shear Modulus (GPa) = 21.41491 10.44151 15.92821
#
# Velocity S-wave (km/s) = 3.22875 2.25454 2.78458
# Velocity P-wave (km/s) = 4.25824 3.76769 4.02045
#
# Compressibility (1/GPa) = 0.11500603
#
# Stress axis : x y z
#
# Youngs Moduli (GPa) = 13.35315 38.83940 68.09216
#
# Poissons Ratio (x) = -0.43493 0.73148
# Poissons Ratio (y) = -0.14953 0.04177
# Poissons Ratio (z) = 0.14345 0.02383
#
# Static dielectric constant tensor:
#      x y z
#    x 1.677710 0.000000 0.000000 
#    y 0.000000 1.714210 0.000000 
#    z 0.000000 0.000000 1.777550 
# 
# From -- ./inp_files/70707.got.cif
#   From: 2010.05.17/outbox.cif.g08.bks.cpg/sg66_36_cif.got.tgz:70707.got - 2010.06.03 17:51:23.
