data_PCOD9496917
_publ_section_title
;
Structure prediction by ZEFSAII (Michael W. Deem and Ramdas Pophale) SiO2 
 PCOD9496917
Probable space group: C C C M
;
_chemical_formula_sum "Si O2"
_cell_formula_units_Z 88
_cell_length_a 9.987274
_cell_length_b 26.075768
_cell_length_c 18.656221
_cell_angle_alpha 90.000000
_cell_angle_beta 90.000000
_cell_angle_gamma 90.000000
_cell_volume 4858.562021
_symmetry_space_group_name_H-M "C C C M"
_symmetry_group_IT_number 66
_symmetry_cell_setting 'orthorhombic'
loop_
_space_group_symop_operation_xyz
x,y,z
-x,-y,z
x,-y,1/2-z
-x,y,1/2-z
-x,-y,-z
x,y,-z
-x,y,1/2+z
x,-y,1/2+z
1/2+x,1/2+y,z
1/2-x,1/2-y,z
1/2+x,1/2-y,1/2-z
1/2-x,1/2+y,1/2-z
1/2-x,1/2-y,-z
1/2+x,1/2+y,-z
1/2-x,1/2+y,1/2+z
1/2+x,1/2-y,1/2+z
loop_
_atom_site_type_symbol
_atom_site_label
_atom_site_fract_x
_atom_site_fract_y
_atom_site_fract_z
Si Si1 0.750000 0.250000 0.128757
Si Si2 0.876963 0.878159 0.197708
Si Si3 0.543218 0.666472 0.578642
Si Si4 0.631497 0.154465 0.797118
Si Si5 0.772851 0.417707 0.082914
Si Si6 0.656965 0.511041 0.165993
O O1 0.648893 0.287223 0.086593
O O2 0.657856 0.211567 0.174244
O O3 0.760055 0.858559 0.248438
O O4 0.826066 0.928312 0.155933
O O5 0.000000 0.894233 0.250000
O O6 0.937463 0.837041 0.142692
O O7 0.480726 0.668421 0.500000
O O8 0.633917 0.615001 0.584251
O O9 0.500000 0.150076 0.750000
O O10 0.632733 0.115122 0.864211
O O11 0.742542 0.473040 0.116905
O O12 0.816257 0.420053 0.000000
O O13 0.500000 0.500000 0.153332
O O14 0.686541 0.500000 0.250000
#
# Coordination Sequence:
#
# PCOD9496917 Si02
#       6
#     8  16  16  16  16  16
#     4  10  21  36  62  82 115 148 202 242 295 360
#     4  12  19  36  58  85 121 149 195 246 285 344
#     4  10  20  34  56  87 121 153 189 245 300 344
#     4  11  24  39  60  87 112 157 197 243 294 345
#     4  10  20  35  56  88 121 150 192 240 290 347
#     4  11  16  29  55  87 116 151 190 234 288 331
#
# _framework density 18.112355000000001
#
# number of rings (size 3 to 8) (size 9 to 14) (size 15 to 20)
#    0.000    1.273    9.091    0.273    2.545    1.818 
#    0.000    2.727    0.000    2.182    0.000    0.000 
#    0.000    0.000    0.000    0.000    0.000    0.000 
#
# Total GULP energy -245456.983812 kJ/mol
# GULP energy per Si atom -5578.567814 kJ/mol
# Density = 1.807113 g / cm^3
# Si number density = 18.112355 Si / 1000 Ang^3
#
#
#
# Elastic Constant Matrix: (Units=GPa)
#
#
# Indices 1 2 3 4 5 6 
#
# 1 52.6279 18.8049 43.9390 0.0000 0.0000 0.0000
# 2 18.8049 89.2426 43.8611 0.0000 0.0000 0.0000
# 3 43.9390 43.8611 134.9460 0.0000 0.0000 0.0000
# 4 0.0000 0.0000 0.0000 2.6945 0.0000 0.0000
# 5 0.0000 0.0000 0.0000 0.0000 16.7572 0.0000
# 6 0.0000 0.0000 0.0000 0.0000 0.0000 11.5290
#
#
#
# Elastic Compliance Matrix: (Units=1/GPa)
#
#
# Indices 1 2 3 4 5 6 
#
# 1 0.026282 -0.001585 -0.008042 0.000000 0.000000 0.000000
# 2 -0.001585 0.013431 -0.003849 0.000000 0.000000 0.000000
# 3 -0.008042 -0.003849 0.011280 0.000000 0.000000 0.000000
# 4 0.000000 0.000000 0.000000 0.371129 0.000000 0.000000
# 5 0.000000 0.000000 0.000000 0.000000 0.059676 0.000000
# 6 0.000000 0.000000 0.000000 0.000000 0.000000 0.086738
#
#
# Mechanical properties :
#
#
# Convention : Reuss Voigt Hill
#
# Bulk Modulus (GPa) = 41.59799 54.44737 48.02268
# Shear Modulus (GPa) = 8.28496 17.54357 12.91426
#
# Velocity S-wave (km/s) = 2.14106 3.11561 2.67312
# Velocity P-wave (km/s) = 5.39710 6.56268 6.00822
#
# Compressibility (1/GPa) = 0.02403962
#
# Stress axis : x y z
#
# Youngs Moduli (GPa) = 38.04834 74.45257 88.65148
#
# Poissons Ratio (x) = 0.11804 0.71296
# Poissons Ratio (y) = 0.06032 0.34125
# Poissons Ratio (z) = 0.30600 0.28659
#
# Static dielectric constant tensor:
#      x y z
#    x 1.589030 0.000000 0.000000 
#    y 0.000000 1.642680 0.000000 
#    z 0.000000 0.000000 1.643040 
# 
# From -- ./inp_files/47152.got.cif
#   From: 2010.05.17/outbox.cif.g08.bks.cpg/sg66_24_cif.got.tgz:47152.got - 2010.06.03 17:51:23.
