data_PCOD9496914
_publ_section_title
;
Structure prediction by ZEFSAII (Michael W. Deem and Ramdas Pophale) SiO2 
 PCOD9496914
Probable space group: C C C M
;
_chemical_formula_sum "Si O2"
_cell_formula_units_Z 116
_cell_length_a 25.971136
_cell_length_b 25.330988
_cell_length_c 9.251557
_cell_angle_alpha 90.000000
_cell_angle_beta 90.000000
_cell_angle_gamma 90.000000
_cell_volume 6086.363754
_symmetry_space_group_name_H-M "C C C M"
_symmetry_group_IT_number 66
_symmetry_cell_setting 'orthorhombic'
loop_
_space_group_symop_operation_xyz
x,y,z
-x,-y,z
x,-y,1/2-z
-x,y,1/2-z
-x,-y,-z
x,y,-z
-x,y,1/2+z
x,-y,1/2+z
1/2+x,1/2+y,z
1/2-x,1/2-y,z
1/2+x,1/2-y,1/2-z
1/2-x,1/2+y,1/2-z
1/2-x,1/2-y,-z
1/2+x,1/2+y,-z
1/2-x,1/2+y,1/2+z
1/2+x,1/2-y,1/2+z
loop_
_atom_site_type_symbol
_atom_site_label
_atom_site_fract_x
_atom_site_fract_y
_atom_site_fract_z
Si Si1 0.603184 0.449938 0.164525
Si Si2 0.235064 0.656152 0.325794
Si Si3 0.547876 0.159077 0.331368
Si Si4 0.644683 0.764082 0.168420
Si Si5 0.845847 0.840085 0.326116
Si Si6 0.500000 0.500000 0.250000
Si Si7 0.928085 0.448109 0.164333
Si Si8 0.696048 0.947576 0.665953
O O1 0.625838 0.500000 0.250000
O O2 0.621698 0.392549 0.216288
O O3 0.541366 0.461535 0.171824
O O4 0.619783 0.454150 0.000000
O O5 0.238757 0.652665 0.500000
O O6 0.197858 0.705940 0.292691
O O7 0.290426 0.659535 0.251254
O O8 0.210277 0.603620 0.258399
O O9 0.500000 0.185686 0.250000
O O10 0.536350 0.151363 0.500000
O O11 0.599525 0.193089 0.320810
O O12 0.556785 0.103746 0.251701
O O13 0.631151 0.714598 0.267934
O O14 0.648986 0.747302 0.000000
O O15 0.841105 0.839360 0.500000
O O16 0.944179 0.500000 0.250000
O O17 0.865881 0.449628 0.158018
O O18 0.947560 0.447144 0.000000
O O19 0.715594 0.944869 0.500000
O O20 0.714059 0.000000 0.750000
#
# Coordination Sequence:
#
# PCOD9496914 Si02
#       8
#    16  16  16  16  16   4  16  16
#     4   9  20  38  63  93 124 158 197 243 295 357
#     4  11  22  39  62  87 120 163 209 255 309 366
#     4  11  23  41  62  86 118 154 200 253 307 361
#     4  10  23  43  63  85 117 161 207 252 307 370
#     4  11  24  40  60  93 128 157 202 253 302 362
#     4   8  18  40  70  92 126 160 206 236 298 356
#     4  10  20  35  58  86 116 151 195 244 299 358
#     4  10  20  34  56  86 119 157 202 246 300 360
#
# _framework density 19.058999
#
# number of rings (size 3 to 8) (size 9 to 14) (size 15 to 20)
#    0.414    1.379    1.379    2.690    0.000    6.897 
#    1.241    2.759    0.000    0.000    0.000    0.000 
#    0.000    0.000    0.000    0.000    0.000    0.000 
#
# Total GULP energy -323565.089957 kJ/mol
# GULP energy per Si atom -5578.708448 kJ/mol
# Density = 1.901562 g / cm^3
# Si number density = 19.058999 Si / 1000 Ang^3
#
#
#
# Elastic Constant Matrix: (Units=GPa)
#
#
# Indices 1 2 3 4 5 6 
#
# 1 63.9958 32.3180 33.6850 0.0000 0.0000 0.0000
# 2 32.3180 137.1248 72.5703 0.0000 0.0000 0.0000
# 3 33.6850 72.5703 122.1854 0.0000 0.0000 0.0000
# 4 0.0000 0.0000 0.0000 36.4062 0.0000 0.0000
# 5 0.0000 0.0000 0.0000 0.0000 41.7513 0.0000
# 6 0.0000 0.0000 0.0000 0.0000 0.0000 -2.0515
#
#
#
# Elastic Compliance Matrix: (Units=1/GPa)
#
#
# Indices 1 2 3 4 5 6 
#
# 1 0.018833 -0.002466 -0.003727 0.000000 0.000000 0.000000
# 2 -0.002466 0.010959 -0.005829 0.000000 0.000000 0.000000
# 3 -0.003727 -0.005829 0.012674 0.000000 0.000000 0.000000
# 4 0.000000 0.000000 0.000000 0.027468 0.000000 0.000000
# 5 0.000000 0.000000 0.000000 0.000000 0.023951 0.000000
# 6 0.000000 0.000000 0.000000 0.000000 0.000000 -0.487457
#
#
# Mechanical properties :
#
#
# Convention : Reuss Voigt Hill
#
# Bulk Modulus (GPa) = 54.28543 66.71697 60.50120
# Shear Modulus (GPa) = -13.75945 27.53672 6.88864
#
# Velocity S-wave (km/s) = -2.68981 3.80520 1.90321
# Velocity P-wave (km/s) = 4.34717 7.37479 6.05332
#
# Compressibility (1/GPa) = 0.01842115
#
# Stress axis : x y z
#
# Youngs Moduli (GPa) = 53.09725 91.25225 78.90249
#
# Poissons Ratio (x) = 0.22503 0.29411
# Poissons Ratio (y) = 0.13094 0.45991
# Poissons Ratio (z) = 0.19792 0.53190
#
# Static dielectric constant tensor:
#      x y z
#    x 1.703910 0.000000 0.000000 
#    y 0.000000 1.658550 0.000000 
#    z 0.000000 0.000000 1.649890 
# 
# From -- ./inp_files/11722.got.cif
#   From: 2010.05.17/outbox.cif.g08.bks.cpg/sg66_6_cif.got.tgz:11722.got - 2010.06.03 17:51:23.
