data_PCOD9496493
_publ_section_title
;
Structure prediction by ZEFSAII (Michael W. Deem and Ramdas Pophale) SiO2 
 PCOD9496493
Probable space group: C C C M
;
_chemical_formula_sum "Si O2"
_cell_formula_units_Z 64
_cell_length_a 10.292865
_cell_length_b 15.565839
_cell_length_c 19.239922
_cell_angle_alpha 90.000000
_cell_angle_beta 90.000000
_cell_angle_gamma 90.000000
_cell_volume 3082.564111
_symmetry_space_group_name_H-M "C C C M"
_symmetry_group_IT_number 66
_symmetry_cell_setting 'orthorhombic'
loop_
_space_group_symop_operation_xyz
x,y,z
-x,-y,z
x,-y,1/2-z
-x,y,1/2-z
-x,-y,-z
x,y,-z
-x,y,1/2+z
x,-y,1/2+z
1/2+x,1/2+y,z
1/2-x,1/2-y,z
1/2+x,1/2-y,1/2-z
1/2-x,1/2+y,1/2-z
1/2-x,1/2-y,-z
1/2+x,1/2+y,-z
1/2-x,1/2+y,1/2+z
1/2+x,1/2-y,1/2+z
loop_
_atom_site_type_symbol
_atom_site_label
_atom_site_fract_x
_atom_site_fract_y
_atom_site_fract_z
Si Si1 0.634451 0.548954 0.000000
Si Si2 0.635275 0.317916 0.625184
Si Si3 0.954398 0.665215 0.358332
Si Si4 0.694534 0.900329 0.769129
Si Si5 0.113410 0.570353 0.000000
O O1 0.500000 0.500000 0.000000
O O2 0.637515 0.610131 0.066887
O O3 0.752263 0.481640 0.000000
O O4 0.750000 0.250000 0.608002
O O5 0.505552 0.261788 0.631053
O O6 0.676563 0.361916 0.697161
O O7 0.848558 0.652706 0.298393
O O8 0.906000 0.626401 0.430599
O O9 0.079486 0.613268 0.326526
O O10 0.703843 0.000000 0.750000
O O11 0.000000 0.500000 0.000000
#
# Coordination Sequence:
#
# PCOD9496493 Si02
#       5
#     8  16  16  16   8
#     4  12  26  44  64 100 140 172 212 272 340 392
#     4  10  21  41  65  90 129 179 218 266 328 395
#     4  10  20  36  63  96 122 163 225 278 316 381
#     4  10  19  36  61  93 130 169 220 275 325 386
#     4  12  21  38  70  98 124 170 224 272 320 386
#
# _framework density 20.761937
#
# number of rings (size 3 to 8) (size 9 to 14) (size 15 to 20)
#    0.000    1.500    0.000    8.625    0.000    0.000 
#    0.000   30.000    0.000    1.500    0.000    0.000 
#    0.000    0.000    0.000    0.000    0.000    0.000 
#
# Total GULP energy -179012.182570 kJ/mol
# GULP energy per Si atom -5594.130705 kJ/mol
# Density = 2.071468 g / cm^3
# Si number density = 20.761937 Si / 1000 Ang^3
#
#
#
# Elastic Constant Matrix: (Units=GPa)
#
#
# Indices 1 2 3 4 5 6 
#
# 1 90.5113 67.4395 72.6051 0.0000 0.0000 0.0000
# 2 67.4395 122.2518 96.3131 0.0000 0.0000 0.0000
# 3 72.6051 96.3131 193.1317 0.0000 0.0000 0.0000
# 4 0.0000 0.0000 0.0000 88.0170 0.0000 0.0000
# 5 0.0000 0.0000 0.0000 0.0000 114.6245 0.0000
# 6 0.0000 0.0000 0.0000 0.0000 0.0000 26.1960
#
#
#
# Elastic Compliance Matrix: (Units=1/GPa)
#
#
# Indices 1 2 3 4 5 6 
#
# 1 0.019970 -0.008403 -0.003317 0.000000 0.000000 0.000000
# 2 -0.008403 0.017009 -0.005323 0.000000 0.000000 0.000000
# 3 -0.003317 -0.005323 0.009079 0.000000 0.000000 0.000000
# 4 0.000000 0.000000 0.000000 0.011361 0.000000 0.000000
# 5 0.000000 0.000000 0.000000 0.000000 0.008724 0.000000
# 6 0.000000 0.000000 0.000000 0.000000 0.000000 0.038174
#
#
# Mechanical properties :
#
#
# Convention : Reuss Voigt Hill
#
# Bulk Modulus (GPa) = 83.52815 97.62338 90.57577
# Shear Modulus (GPa) = 35.11328 57.06997 46.09162
#
# Velocity S-wave (km/s) = 4.11692 5.24857 4.71681
# Velocity P-wave (km/s) = 7.93205 9.15709 8.56650
#
# Compressibility (1/GPa) = 0.01197201
#
# Stress axis : x y z
#
# Youngs Moduli (GPa) = 50.07419 58.79116 110.13938
#
# Poissons Ratio (x) = 0.49405 0.36532
# Poissons Ratio (y) = 0.42080 0.58630
# Poissons Ratio (z) = 0.16609 0.31296
#
# Static dielectric constant tensor:
#      x y z
#    x 1.745610 0.000000 0.000000 
#    y 0.000000 1.707400 0.000000 
#    z 0.000000 0.000000 1.749960 
# 
# From -- ./inp_files/38049.got.cif
#   From: 2010.05.17/outbox.cif.g08.bks.cpg/sg66_20_cif.got.tgz:38049.got - 2010.06.03 17:51:23.
