data_PCOD9496644
_publ_section_title
;
Structure prediction by ZEFSAII (Michael W. Deem and Ramdas Pophale) SiO2 
 PCOD9496644
Probable space group: C C C M
;
_chemical_formula_sum "Si O2"
_cell_formula_units_Z 92
_cell_length_a 9.888994
_cell_length_b 19.118772
_cell_length_c 26.428130
_cell_angle_alpha 90.000000
_cell_angle_beta 90.000000
_cell_angle_gamma 90.000000
_cell_volume 4996.645540
_symmetry_space_group_name_H-M "C C C M"
_symmetry_group_IT_number 66
_symmetry_cell_setting 'orthorhombic'
loop_
_space_group_symop_operation_xyz
x,y,z
-x,-y,z
x,-y,1/2-z
-x,y,1/2-z
-x,-y,-z
x,y,-z
-x,y,1/2+z
x,-y,1/2+z
1/2+x,1/2+y,z
1/2-x,1/2-y,z
1/2+x,1/2-y,1/2-z
1/2-x,1/2+y,1/2-z
1/2-x,1/2-y,-z
1/2+x,1/2+y,-z
1/2-x,1/2+y,1/2+z
1/2+x,1/2-y,1/2+z
loop_
_atom_site_type_symbol
_atom_site_label
_atom_site_fract_x
_atom_site_fract_y
_atom_site_fract_z
Si Si1 0.546136 0.400508 0.000000
Si Si2 0.441880 0.923151 0.884208
Si Si3 0.904340 0.919152 0.898174
Si Si4 0.019376 0.736961 0.500000
Si Si5 0.849101 0.064642 0.841400
Si Si6 0.361577 0.100333 0.500000
Si Si7 0.335644 0.187613 0.897419
Si Si8 0.000000 0.000000 0.250000
O O1 0.470974 0.429194 0.951776
O O2 0.526664 0.316549 0.000000
O O3 0.703952 0.416374 0.000000
O O4 0.300244 0.909996 0.855051
O O5 0.419895 0.925176 0.945720
O O6 0.542949 0.858162 0.873394
O O7 0.500000 0.000000 0.869829
O O8 0.777809 0.870324 0.906575
O O9 0.029230 0.889183 0.864870
O O10 0.858139 0.990052 0.870967
O O11 0.894430 0.683054 0.500000
O O12 0.105317 0.719505 0.550383
O O13 0.900439 0.046124 0.785256
O O14 0.250000 0.250000 0.870895
#
# Coordination Sequence:
#
# PCOD9496644 Si02
#       8
#     8  16  16   8  16   8  16   4
#     4  12  18  31  49  76 115 162 201 245 265 351
#     4  11  21  36  55  81 126 152 203 239 289 344
#     4  10  20  31  55  78 116 147 201 230 285 343
#     4  10  21  31  47  69 119 165 219 221 275 324
#     4  10  21  40  57  90 105 151 186 246 309 362
#     4  10  22  32  46  79 118 172 192 246 274 323
#     4  11  20  34  51  79 116 168 195 243 271 335
#     4   8  20  40  70  82 120 136 186 248 326 362
#
# _framework density 18.412353
#
# number of rings (size 3 to 8) (size 9 to 14) (size 15 to 20)
#    0.000    1.739    5.217    1.304    0.000    2.087 
#    0.000    1.304    0.000    0.000    0.000   19.478 
#    0.000    0.000    0.000    0.000    0.000    0.000 
#
# Total GULP energy -256223.866627 kJ/mol
# GULP energy per Si atom -5570.084057 kJ/mol
# Density = 1.837045 g / cm^3
# Si number density = 18.412353 Si / 1000 Ang^3
#
#
#
# Elastic Constant Matrix: (Units=GPa)
#
#
# Indices 1 2 3 4 5 6 
#
# 1 129.8247 24.0372 20.4862 0.0000 0.0000 0.0000
# 2 24.0372 63.3442 2.0161 0.0000 0.0000 0.0000
# 3 20.4862 2.0161 74.5811 0.0000 0.0000 0.0000
# 4 0.0000 0.0000 0.0000 -102.1028 0.0000 0.0000
# 5 0.0000 0.0000 0.0000 0.0000 13.4461 0.0000
# 6 0.0000 0.0000 0.0000 0.0000 0.0000 29.9185
#
#
#
# Elastic Compliance Matrix: (Units=1/GPa)
#
#
# Indices 1 2 3 4 5 6 
#
# 1 0.008659 -0.003213 -0.002292 0.000000 0.000000 0.000000
# 2 -0.003213 0.016993 0.000423 0.000000 0.000000 0.000000
# 3 -0.002292 0.000423 0.014026 0.000000 0.000000 0.000000
# 4 0.000000 0.000000 0.000000 -0.009794 0.000000 0.000000
# 5 0.000000 0.000000 0.000000 0.000000 0.074371 0.000000
# 6 0.000000 0.000000 0.000000 0.000000 0.000000 0.033424
#
#
# Mechanical properties :
#
#
# Convention : Reuss Voigt Hill
#
# Bulk Modulus (GPa) = 33.88097 40.09211 36.98654
# Shear Modulus (GPa) = 31.70972 2.99972 17.35472
#
# Velocity S-wave (km/s) = 4.15444 1.27778 3.07344
# Velocity P-wave (km/s) = 6.43845 4.89886 5.72069
#
# Compressibility (1/GPa) = 0.02951509
#
# Stress axis : x y z
#
# Youngs Moduli (GPa) = 115.48410 58.84944 71.29476
#
# Poissons Ratio (x) = 0.18908 0.16339
# Poissons Ratio (y) = 0.37105 -0.03017
# Poissons Ratio (z) = 0.26465 -0.02490
#
# Static dielectric constant tensor:
#      x y z
#    x 1.677570 0.000000 0.000000 
#    y 0.000000 1.684830 0.000000 
#    z 0.000000 0.000000 1.603290 
# 
# From -- ./inp_files/55542.got.cif
#   From: 2010.05.17/outbox.cif.g08.bks.cpg/sg66_28_cif.got.tgz:55542.got - 2010.06.03 17:51:23.
