data_PCOD9496980
_publ_section_title
;
Structure prediction by ZEFSAII (Michael W. Deem and Ramdas Pophale) SiO2 
 PCOD9496980
Probable space group: C C C M
;
_chemical_formula_sum "Si O2"
_cell_formula_units_Z 96
_cell_length_a 9.135733
_cell_length_b 22.338325
_cell_length_c 23.397404
_cell_angle_alpha 90.000000
_cell_angle_beta 90.000000
_cell_angle_gamma 90.000000
_cell_volume 4774.871381
_symmetry_space_group_name_H-M "C C C M"
_symmetry_group_IT_number 66
_symmetry_cell_setting 'orthorhombic'
loop_
_space_group_symop_operation_xyz
x,y,z
-x,-y,z
x,-y,1/2-z
-x,y,1/2-z
-x,-y,-z
x,y,-z
-x,y,1/2+z
x,-y,1/2+z
1/2+x,1/2+y,z
1/2-x,1/2-y,z
1/2+x,1/2-y,1/2-z
1/2-x,1/2+y,1/2-z
1/2-x,1/2-y,-z
1/2+x,1/2+y,-z
1/2-x,1/2+y,1/2+z
1/2+x,1/2-y,1/2+z
loop_
_atom_site_type_symbol
_atom_site_label
_atom_site_fract_x
_atom_site_fract_y
_atom_site_fract_z
Si Si1 0.154177 0.919510 0.770892
Si Si2 0.129061 0.206169 0.327205
Si Si3 0.814661 0.661644 0.564425
Si Si4 0.106577 0.286164 0.882170
Si Si5 0.326440 0.043135 0.628224
Si Si6 0.369308 0.918026 0.335255
O O1 0.131417 0.850408 0.787024
O O2 0.188783 0.949227 0.831322
O O3 0.275896 0.928233 0.721804
O O4 0.000000 0.940604 0.750000
O O5 0.250000 0.250000 0.301961
O O6 0.199599 0.185396 0.388400
O O7 0.979138 0.241671 0.338510
O O8 0.767769 0.673208 0.500000
O O9 0.827544 0.590166 0.576704
O O10 0.972682 0.692871 0.576208
O O11 0.250000 0.250000 0.903615
O O12 0.154356 0.349998 0.855197
O O13 0.456833 0.069608 0.669294
O O14 0.338143 0.972024 0.619257
#
# Coordination Sequence:
#
# PCOD9496980 Si02
#       6
#    16  16  16  16  16  16
#     4  11  21  32  52  81 110 144 179 218 267 319
#     4   9  20  35  52  80 111 143 187 220 254 322
#     4   9  19  38  62  80 102 140 181 227 274 317
#     4  10  20  35  53  80 112 141 176 222 269 318
#     4   9  20  37  55  81 106 136 187 227 264 322
#     4  10  20  36  55  75 110 149 176 217 272 317
#
# _framework density 20.105252
#
# number of rings (size 3 to 8) (size 9 to 14) (size 15 to 20)
#    0.000    2.333    0.000    3.000    0.000    8.000 
#    0.000    8.333    0.000    0.000    0.000   15.167 
#    0.000    0.000    0.000    0.000    0.000    0.000 
#
# Total GULP energy -267253.090347 kJ/mol
# GULP energy per Si atom -5567.772716 kJ/mol
# Density = 2.005949 g / cm^3
# Si number density = 20.105252 Si / 1000 Ang^3
#
#
#
# Elastic Constant Matrix: (Units=GPa)
#
#
# Indices 1 2 3 4 5 6 
#
# 1 63.3425 18.4914 14.8368 0.0000 0.0000 0.0000
# 2 18.4914 167.6324 21.9338 0.0000 0.0000 0.0000
# 3 14.8368 21.9338 39.1362 0.0000 0.0000 0.0000
# 4 0.0000 0.0000 0.0000 7.5533 0.0000 0.0000
# 5 0.0000 0.0000 0.0000 0.0000 -6.2405 0.0000
# 6 0.0000 0.0000 0.0000 0.0000 0.0000 7.8271
#
#
#
# Elastic Compliance Matrix: (Units=1/GPa)
#
#
# Indices 1 2 3 4 5 6 
#
# 1 0.017528 -0.001148 -0.006002 0.000000 0.000000 0.000000
# 2 -0.001148 0.006513 -0.003215 0.000000 0.000000 0.000000
# 3 -0.006002 -0.003215 0.029629 0.000000 0.000000 0.000000
# 4 0.000000 0.000000 0.000000 0.132393 0.000000 0.000000
# 5 0.000000 0.000000 0.000000 0.000000 -0.160243 0.000000
# 6 0.000000 0.000000 0.000000 0.000000 0.000000 0.127762
#
#
# Mechanical properties :
#
#
# Convention : Reuss Voigt Hill
#
# Bulk Modulus (GPa) = 30.35772 42.29280 36.32526
# Shear Modulus (GPa) = 26.98470 16.15124 21.56797
#
# Velocity S-wave (km/s) = 3.66754 2.83739 3.27884
# Velocity P-wave (km/s) = 5.75036 5.64054 5.69572
#
# Compressibility (1/GPa) = 0.03294055
#
# Stress axis : x y z
#
# Youngs Moduli (GPa) = 57.05115 153.54552 33.75111
#
# Poissons Ratio (x) = 0.17631 0.20256
# Poissons Ratio (y) = 0.06551 0.10850
# Poissons Ratio (z) = 0.34239 0.49361
#
# Static dielectric constant tensor:
#      x y z
#    x 1.758860 0.000000 0.000000 
#    y 0.000000 1.883890 0.000000 
#    z 0.000000 0.000000 1.682210 
# 
# From -- ./inp_files/55586.got.cif
#   From: 2010.05.17/outbox.cif.g08.bks.cpg/sg66_28_cif.got.tgz:55586.got - 2010.06.03 17:51:23.
