data_PCOD9496670
_publ_section_title
;
Structure prediction by ZEFSAII (Michael W. Deem and Ramdas Pophale) SiO2 
 PCOD9496670
Probable space group: C C C M
;
_chemical_formula_sum "Si O2"
_cell_formula_units_Z 88
_cell_length_a 21.022458
_cell_length_b 20.649614
_cell_length_c 9.514069
_cell_angle_alpha 90.000000
_cell_angle_beta 90.000000
_cell_angle_gamma 90.000000
_cell_volume 4130.111041
_symmetry_space_group_name_H-M "C C C M"
_symmetry_group_IT_number 66
_symmetry_cell_setting 'orthorhombic'
loop_
_space_group_symop_operation_xyz
x,y,z
-x,-y,z
x,-y,1/2-z
-x,y,1/2-z
-x,-y,-z
x,y,-z
-x,y,1/2+z
x,-y,1/2+z
1/2+x,1/2+y,z
1/2-x,1/2-y,z
1/2+x,1/2-y,1/2-z
1/2-x,1/2+y,1/2-z
1/2-x,1/2-y,-z
1/2+x,1/2+y,-z
1/2-x,1/2+y,1/2+z
1/2+x,1/2-y,1/2+z
loop_
_atom_site_type_symbol
_atom_site_label
_atom_site_fract_x
_atom_site_fract_y
_atom_site_fract_z
Si Si1 0.702710 0.337589 0.167746
Si Si2 0.062677 0.621372 0.165820
Si Si3 0.405832 0.559523 0.847666
Si Si4 0.112580 0.745827 0.336033
Si Si5 0.500000 0.661059 0.750000
Si Si6 0.696733 0.937383 0.336514
O O1 0.655955 0.398835 0.190841
O O2 0.672805 0.280392 0.260301
O O3 0.770346 0.369183 0.205764
O O4 0.701330 0.320522 0.000000
O O5 0.088489 0.685567 0.243744
O O6 0.121036 0.571557 0.173736
O O7 0.000000 0.600352 0.250000
O O8 0.049151 0.633838 0.000000
O O9 0.420294 0.500000 0.750000
O O10 0.461170 0.612579 0.848491
O O11 0.395038 0.531221 0.000000
O O12 0.124682 0.730428 0.500000
O O13 0.052817 0.795525 0.326158
O O14 0.713844 0.946472 0.500000
O O15 0.717438 0.000000 0.250000
#
# Coordination Sequence:
#
# PCOD9496670 Si02
#       6
#    16  16  16  16   8  16
#     4   9  20  39  60  85 121 162 202 246 304 364
#     4  11  24  42  65  93 125 161 204 255 316 376
#     4  10  20  32  49  75 109 151 196 243 289 345
#     4  11  22  37  61  90 121 160 207 253 305 365
#     4  10  21  34  52  76 113 154 202 244 302 352
#     4  10  23  43  67  93 123 163 206 256 313 374
#
# _framework density 21.306933000000001
#
# number of rings (size 3 to 8) (size 9 to 14) (size 15 to 20)
#    0.000    1.818    0.909    2.455    0.000    9.091 
#    0.000    5.455    0.000    0.000    0.000    0.000 
#    0.000    0.000    0.000    0.000    0.000    0.000 
#
# Total GULP energy -245695.047840 kJ/mol
# GULP energy per Si atom -5583.978360 kJ/mol
# Density = 2.125844 g / cm^3
# Si number density = 21.306933 Si / 1000 Ang^3
#
#
#
# Elastic Constant Matrix: (Units=GPa)
#
#
# Indices 1 2 3 4 5 6 
#
# 1 94.7517 -3.7512 18.0704 0.0000 0.0000 0.0000
# 2 -3.7512 44.5901 23.1177 0.0000 0.0000 0.0000
# 3 18.0704 23.1177 92.6782 0.0000 0.0000 0.0000
# 4 0.0000 0.0000 0.0000 157.0367 0.0000 0.0000
# 5 0.0000 0.0000 0.0000 0.0000 31.5037 0.0000
# 6 0.0000 0.0000 0.0000 0.0000 0.0000 49.8945
#
#
#
# Elastic Compliance Matrix: (Units=1/GPa)
#
#
# Indices 1 2 3 4 5 6 
#
# 1 0.011177 0.002378 -0.002772 0.000000 0.000000 0.000000
# 2 0.002378 0.026263 -0.007015 0.000000 0.000000 0.000000
# 3 -0.002772 -0.007015 0.013080 0.000000 0.000000 0.000000
# 4 0.000000 0.000000 0.000000 0.006368 0.000000 0.000000
# 5 0.000000 0.000000 0.000000 0.000000 0.031742 0.000000
# 6 0.000000 0.000000 0.000000 0.000000 0.000000 0.020042
#
#
# Mechanical properties :
#
#
# Convention : Reuss Voigt Hill
#
# Bulk Modulus (GPa) = 28.01005 34.09930 31.05468
# Shear Modulus (GPa) = 36.92973 60.65920 48.79447
#
# Velocity S-wave (km/s) = 4.16772 5.34145 4.79066
# Velocity P-wave (km/s) = 6.02780 7.35391 6.72363
#
# Compressibility (1/GPa) = 0.03570147
#
# Stress axis : x y z
#
# Youngs Moduli (GPa) = 89.47152 38.07596 76.45074
#
# Poissons Ratio (x) = -0.09053 0.21194
# Poissons Ratio (y) = -0.21272 0.53628
# Poissons Ratio (z) = 0.24804 0.26709
#
# Static dielectric constant tensor:
#      x y z
#    x 1.834780 0.000000 0.000000 
#    y 0.000000 1.735590 0.000000 
#    z 0.000000 0.000000 1.750550 
# 
# From -- ./inp_files/8987.got.cif
#   From: 2010.05.17/outbox.cif.g08.bks.cpg/sg66_5_cif.got.tgz:8987.got - 2010.06.03 17:51:23.
