data_PCOD9496456
_publ_section_title
;
Structure prediction by ZEFSAII (Michael W. Deem and Ramdas Pophale) SiO2 
 PCOD9496456
Probable space group: C C C M
;
_chemical_formula_sum "Si O2"
_cell_formula_units_Z 64
_cell_length_a 18.509734
_cell_length_b 9.512853
_cell_length_c 20.906612
_cell_angle_alpha 90.000000
_cell_angle_beta 90.000000
_cell_angle_gamma 90.000000
_cell_volume 3681.244156
_symmetry_space_group_name_H-M "C C C M"
_symmetry_group_IT_number 66
_symmetry_cell_setting 'orthorhombic'
loop_
_space_group_symop_operation_xyz
x,y,z
-x,-y,z
x,-y,1/2-z
-x,y,1/2-z
-x,-y,-z
x,y,-z
-x,y,1/2+z
x,-y,1/2+z
1/2+x,1/2+y,z
1/2-x,1/2-y,z
1/2+x,1/2-y,1/2-z
1/2-x,1/2+y,1/2-z
1/2-x,1/2-y,-z
1/2+x,1/2+y,-z
1/2-x,1/2+y,1/2+z
1/2+x,1/2-y,1/2+z
loop_
_atom_site_type_symbol
_atom_site_label
_atom_site_fract_x
_atom_site_fract_y
_atom_site_fract_z
Si Si1 0.826252 0.815265 0.901173
Si Si2 0.825886 0.054842 0.000000
Si Si3 0.843634 0.371952 0.000000
Si Si4 0.250000 0.250000 0.222608
Si Si5 0.583188 0.042852 0.387526
Si Si6 0.346426 0.000000 0.250000
O O1 0.750000 0.750000 0.927453
O O2 0.804201 0.830977 0.826589
O O3 0.889857 0.700391 0.905963
O O4 0.842034 0.957000 0.938799
O O5 0.862026 0.206926 0.000000
O O6 0.741209 0.093460 0.000000
O O7 0.874944 0.442949 0.936528
O O8 0.204307 0.364173 0.259962
O O9 0.500000 0.000000 0.393354
O O10 0.608293 0.022810 0.314278
#
# Coordination Sequence:
#
# PCOD9496456 Si02
#       6
#    16   8   8   8  16   8
#     4   9  17  34  54  76 106 143 180 218 272 331
#     4  11  18  32  58  82 108 140 185 234 275 315
#     4  11  22  33  54  87 110 135 184 240 271 311
#     4   8  18  29  54  77 104 132 182 230 266 308
#     4  11  22  37  55  80 113 148 181 221 275 338
#     4  10  19  36  58  82 107 142 182 226 270 325
#
# _framework density 17.385425999999999
#
# number of rings (size 3 to 8) (size 9 to 14) (size 15 to 20)
#    0.750    1.250    2.500    1.875    0.000    4.000 
#    0.000    2.500    0.000    0.000    0.000    5.250 
#    0.000    0.000    0.000    0.000    0.000    0.000 
#
# Total GULP energy -178184.063779 kJ/mol
# GULP energy per Si atom -5568.251993 kJ/mol
# Density = 1.734586 g / cm^3
# Si number density = 17.385426 Si / 1000 Ang^3
#
#
#
# Elastic Constant Matrix: (Units=GPa)
#
#
# Indices 1 2 3 4 5 6 
#
# 1 75.1561 28.6840 10.6956 0.0000 0.0000 0.0000
# 2 28.6840 116.7305 37.3199 0.0000 0.0000 0.0000
# 3 10.6956 37.3199 61.0371 0.0000 0.0000 0.0000
# 4 0.0000 0.0000 0.0000 335.9167 0.0000 0.0000
# 5 0.0000 0.0000 0.0000 0.0000 -21.9076 0.0000
# 6 0.0000 0.0000 0.0000 0.0000 0.0000 21.9440
#
#
#
# Elastic Compliance Matrix: (Units=1/GPa)
#
#
# Indices 1 2 3 4 5 6 
#
# 1 0.014693 -0.003465 -0.000456 0.000000 0.000000 0.000000
# 2 -0.003465 0.011465 -0.006403 0.000000 0.000000 0.000000
# 3 -0.000456 -0.006403 0.020378 0.000000 0.000000 0.000000
# 4 0.000000 0.000000 0.000000 0.002977 0.000000 0.000000
# 5 0.000000 0.000000 0.000000 0.000000 -0.045646 0.000000
# 6 0.000000 0.000000 0.000000 0.000000 0.000000 0.045571
#
#
# Mechanical properties :
#
#
# Convention : Reuss Voigt Hill
#
# Bulk Modulus (GPa) = 38.62698 45.14697 41.88698
# Shear Modulus (GPa) = 63.52008 78.93890 71.22949
#
# Velocity S-wave (km/s) = 6.05109 6.74565 6.40779
# Velocity P-wave (km/s) = 8.43132 9.31109 8.88210
#
# Compressibility (1/GPa) = 0.02588864
#
# Stress axis : x y z
#
# Youngs Moduli (GPa) = 68.06030 87.22039 49.07140
#
# Poissons Ratio (x) = 0.30218 0.02239
# Poissons Ratio (y) = 0.23580 0.31421
# Poissons Ratio (z) = 0.03106 0.55848
#
# Static dielectric constant tensor:
#      x y z
#    x 1.595720 0.000000 0.000000 
#    y 0.000000 1.587250 0.000000 
#    z 0.000000 0.000000 1.594380 
# 
# From -- ./inp_files/50586.got.cif
#   From: 2010.05.17/outbox.cif.g08.bks.cpg/sg66_26_cif.got.tgz:50586.got - 2010.06.03 17:51:23.
