data_PCOD9496592
_publ_section_title
;
Structure prediction by ZEFSAII (Michael W. Deem and Ramdas Pophale) SiO2 
 PCOD9496592
Probable space group: C C C M
;
_chemical_formula_sum "Si O2"
_cell_formula_units_Z 80
_cell_length_a 8.487909
_cell_length_b 26.524527
_cell_length_c 18.945484
_cell_angle_alpha 90.000000
_cell_angle_beta 90.000000
_cell_angle_gamma 90.000000
_cell_volume 4265.344047
_symmetry_space_group_name_H-M "C C C M"
_symmetry_group_IT_number 66
_symmetry_cell_setting 'orthorhombic'
loop_
_space_group_symop_operation_xyz
x,y,z
-x,-y,z
x,-y,1/2-z
-x,y,1/2-z
-x,-y,-z
x,y,-z
-x,y,1/2+z
x,-y,1/2+z
1/2+x,1/2+y,z
1/2-x,1/2-y,z
1/2+x,1/2-y,1/2-z
1/2-x,1/2+y,1/2-z
1/2-x,1/2-y,-z
1/2+x,1/2+y,-z
1/2-x,1/2+y,1/2+z
1/2+x,1/2-y,1/2+z
loop_
_atom_site_type_symbol
_atom_site_label
_atom_site_fract_x
_atom_site_fract_y
_atom_site_fract_z
Si Si1 0.052842 0.853733 0.921171
Si Si2 0.555588 0.557003 0.170630
Si Si3 0.359608 0.117173 0.802005
Si Si4 0.832958 0.197169 0.211687
Si Si5 0.203643 0.693073 0.419225
O O1 0.146757 0.817290 0.869619
O O2 0.036348 0.907375 0.883410
O O3 0.873577 0.833639 0.922956
O O4 0.115365 0.856288 0.000000
O O5 0.500000 0.500000 0.157226
O O6 0.500000 0.568839 0.250000
O O7 0.741401 0.572995 0.170481
O O8 0.500000 0.099279 0.750000
O O9 0.260094 0.153549 0.751214
O O10 0.396585 0.156603 0.866942
O O11 0.750000 0.250000 0.219231
O O12 0.000000 0.199896 0.250000
O O13 0.140587 0.696969 0.500000
O O14 0.250000 0.750000 0.394398
#
# Coordination Sequence:
#
# PCOD9496592 Si02
#       5
#    16  16  16  16  16
#     4  10  20  36  56  84 120 157 202 244 295 360
#     4  10  19  39  65  84 113 150 196 255 304 350
#     4  11  21  35  59  90 117 153 198 246 297 353
#     4  12  22  36  56  84 121 163 202 246 289 347
#     4   9  18  33  53  80 120 167 202 233 287 354
#
# _framework density 18.755813
#
# number of rings (size 3 to 8) (size 9 to 14) (size 15 to 20)
#    0.000    1.600    6.000    1.200    2.800    0.800 
#    0.000    3.000    0.000    0.000    0.000    1.400 
#    0.000    0.000    0.000    0.000    0.000    0.000 
#
# Total GULP energy -222940.573843 kJ/mol
# GULP energy per Si atom -5573.514346 kJ/mol
# Density = 1.871312 g / cm^3
# Si number density = 18.755813 Si / 1000 Ang^3
#
#
#
# Elastic Constant Matrix: (Units=GPa)
#
#
# Indices 1 2 3 4 5 6 
#
# 1 39.4066 24.1536 0.0649 0.0000 0.0000 0.0000
# 2 24.1536 115.2648 27.6928 0.0000 0.0000 0.0000
# 3 0.0649 27.6928 103.5216 0.0000 0.0000 0.0000
# 4 0.0000 0.0000 0.0000 10.6776 0.0000 0.0000
# 5 0.0000 0.0000 0.0000 0.0000 17.4070 0.0000
# 6 0.0000 0.0000 0.0000 0.0000 0.0000 22.6374
#
#
#
# Elastic Compliance Matrix: (Units=1/GPa)
#
#
# Indices 1 2 3 4 5 6 
#
# 1 0.029407 -0.006581 0.001742 0.000000 0.000000 0.000000
# 2 -0.006581 0.010744 -0.002870 0.000000 0.000000 0.000000
# 3 0.001742 -0.002870 0.010426 0.000000 0.000000 0.000000
# 4 0.000000 0.000000 0.000000 0.093654 0.000000 0.000000
# 5 0.000000 0.000000 0.000000 0.000000 0.057448 0.000000
# 6 0.000000 0.000000 0.000000 0.000000 0.000000 0.044175
#
#
# Mechanical properties :
#
#
# Convention : Reuss Voigt Hill
#
# Bulk Modulus (GPa) = 28.44125 40.22395 34.33260
# Shear Modulus (GPa) = 18.31552 23.89651 21.10601
#
# Velocity S-wave (km/s) = 3.12833 3.57331 3.35820
# Velocity P-wave (km/s) = 5.31465 6.20624 5.77767
#
# Compressibility (1/GPa) = 0.03516019
#
# Stress axis : x y z
#
# Youngs Moduli (GPa) = 34.00535 93.07357 95.90963
#
# Poissons Ratio (x) = 0.61249 -0.16707
# Poissons Ratio (y) = 0.22378 0.27526
# Poissons Ratio (z) = -0.05924 0.26712
#
# Static dielectric constant tensor:
#      x y z
#    x 1.662520 0.000000 0.000000 
#    y 0.000000 1.656060 0.000000 
#    z 0.000000 0.000000 1.710010 
# 
# From -- ./inp_files/36972.got.cif
#   From: 2010.05.17/outbox.cif.g08.bks.cpg/sg66_19_cif.got.tgz:36972.got - 2010.06.03 17:51:23.
