data_PCOD9496458
_publ_section_title
;
Structure prediction by ZEFSAII (Michael W. Deem and Ramdas Pophale) SiO2 
 PCOD9496458
Probable space group: C C C M
;
_chemical_formula_sum "Si O2"
_cell_formula_units_Z 112
_cell_length_a 13.952278
_cell_length_b 28.513432
_cell_length_c 14.353504
_cell_angle_alpha 90.000000
_cell_angle_beta 90.000000
_cell_angle_gamma 90.000000
_cell_volume 5710.216172
_symmetry_space_group_name_H-M "C C C M"
_symmetry_group_IT_number 66
_symmetry_cell_setting 'orthorhombic'
loop_
_space_group_symop_operation_xyz
x,y,z
-x,-y,z
x,-y,1/2-z
-x,y,1/2-z
-x,-y,-z
x,y,-z
-x,y,1/2+z
x,-y,1/2+z
1/2+x,1/2+y,z
1/2-x,1/2-y,z
1/2+x,1/2-y,1/2-z
1/2-x,1/2+y,1/2-z
1/2-x,1/2-y,-z
1/2+x,1/2+y,-z
1/2-x,1/2+y,1/2+z
1/2+x,1/2-y,1/2+z
loop_
_atom_site_type_symbol
_atom_site_label
_atom_site_fract_x
_atom_site_fract_y
_atom_site_fract_z
Si Si1 0.404321 0.119845 0.279235
Si Si2 0.077007 0.187858 0.613357
Si Si3 0.180550 0.329453 0.106958
Si Si4 0.618987 0.364258 0.389700
Si Si5 0.516064 0.789257 0.389606
Si Si6 0.386005 0.447154 0.253932
Si Si7 0.778596 0.111649 0.890070
O O1 0.500000 0.092423 0.250000
O O2 0.352868 0.133708 0.183657
O O3 0.442327 0.166574 0.333504
O O4 0.322879 0.099827 0.344946
O O5 0.076856 0.189074 0.500000
O O6 0.174609 0.161538 0.641762
O O7 0.982524 0.158125 0.639508
O O8 0.062909 0.241109 0.644573
O O9 0.294810 0.326165 0.119299
O O10 0.100393 0.288786 0.118653
O O11 0.167059 0.345540 0.000000
O O12 0.612629 0.376282 0.500000
O O13 0.641792 0.409874 0.326993
O O14 0.537499 0.795027 0.500000
O O15 0.346942 0.500000 0.250000
O O16 0.500000 0.449643 0.250000
O O17 0.353824 0.425477 0.351649
O O18 0.771523 0.112425 0.000000
#
# Coordination Sequence:
#
# PCOD9496458 Si02
#       7
#    16  16  16  16  16  16  16
#     4  10  20  36  55  84 112 151 200 243 295 352
#     4   9  19  34  54  80 120 159 198 245 285 336
#     4   9  18  33  53  76 111 152 197 243 285 336
#     4  10  19  36  58  82 114 158 198 241 293 347
#     4   9  18  34  52  81 116 154 200 245 287 334
#     4  11  23  39  61  91 123 153 191 243 297 365
#     4  11  22  39  61  88 120 159 197 246 306 360
#
# _framework density 19.613969000000001
#
# number of rings (size 3 to 8) (size 9 to 14) (size 15 to 20)
#    0.000    2.143    2.857    0.429    0.000    2.286 
#    7.714    9.286    0.000    0.429    0.000    1.000 
#    0.000    0.000    0.000    0.000    0.000    0.000 
#
# Total GULP energy -311984.269086 kJ/mol
# GULP energy per Si atom -5571.147662 kJ/mol
# Density = 1.956933 g / cm^3
# Si number density = 19.613969 Si / 1000 Ang^3
#
#
#
# Elastic Constant Matrix: (Units=GPa)
#
#
# Indices 1 2 3 4 5 6 
#
# 1 97.8606 0.7577 21.2810 0.0000 0.0000 0.0000
# 2 0.7577 35.3715 -2.7877 0.0000 0.0000 0.0000
# 3 21.2810 -2.7877 78.6653 0.0000 0.0000 0.0000
# 4 0.0000 0.0000 0.0000 13.7154 0.0000 0.0000
# 5 0.0000 0.0000 0.0000 0.0000 31.4363 0.0000
# 6 0.0000 0.0000 0.0000 0.0000 0.0000 0.0384
#
#
#
# Elastic Compliance Matrix: (Units=1/GPa)
#
#
# Indices 1 2 3 4 5 6 
#
# 1 0.010865 -0.000466 -0.002956 0.000000 0.000000 0.000000
# 2 -0.000466 0.028370 0.001131 0.000000 0.000000 0.000000
# 3 -0.002956 0.001131 0.013552 0.000000 0.000000 0.000000
# 4 0.000000 0.000000 0.000000 0.072911 0.000000 0.000000
# 5 0.000000 0.000000 0.000000 0.000000 0.031810 0.000000
# 6 0.000000 0.000000 0.000000 0.000000 0.000000 26.054075
#
#
# Mechanical properties :
#
#
# Convention : Reuss Voigt Hill
#
# Bulk Modulus (GPa) = 20.74387 27.82217 24.28302
# Shear Modulus (GPa) = 0.19061 21.88112 11.03586
#
# Velocity S-wave (km/s) = 0.31207 3.34367 2.37460
# Velocity P-wave (km/s) = 3.27550 5.39652 4.46382
#
# Compressibility (1/GPa) = 0.04820701
#
# Stress axis : x y z
#
# Youngs Moduli (GPa) = 92.03878 35.24793 73.79106
#
# Poissons Ratio (x) = 0.01641 0.21811
# Poissons Ratio (y) = 0.04286 -0.08348
# Poissons Ratio (z) = 0.27204 -0.03988
#
# Static dielectric constant tensor:
#      x y z
#    x 1.750490 0.000000 0.000000 
#    y 0.000000 1.677060 0.000000 
#    z 0.000000 0.000000 1.705590 
# 
# From -- ./inp_files/28863.got.cif
#   From: 2010.05.17/outbox.cif.g08.bks.cpg/sg66_15_cif.got.tgz:28863.got - 2010.06.03 17:51:23.
