data_PCOD9496585
_publ_section_title
;
Structure prediction by ZEFSAII (Michael W. Deem and Ramdas Pophale) SiO2 
 PCOD9496585
Probable space group: C C C M
;
_chemical_formula_sum "Si O2"
_cell_formula_units_Z 80
_cell_length_a 11.400446
_cell_length_b 12.608883
_cell_length_c 24.848266
_cell_angle_alpha 90.000000
_cell_angle_beta 90.000000
_cell_angle_gamma 90.000000
_cell_volume 3571.860953
_symmetry_space_group_name_H-M "C C C M"
_symmetry_group_IT_number 66
_symmetry_cell_setting 'orthorhombic'
loop_
_space_group_symop_operation_xyz
x,y,z
-x,-y,z
x,-y,1/2-z
-x,y,1/2-z
-x,-y,-z
x,y,-z
-x,y,1/2+z
x,-y,1/2+z
1/2+x,1/2+y,z
1/2-x,1/2-y,z
1/2+x,1/2-y,1/2-z
1/2-x,1/2+y,1/2-z
1/2-x,1/2-y,-z
1/2+x,1/2+y,-z
1/2-x,1/2+y,1/2+z
1/2+x,1/2-y,1/2+z
loop_
_atom_site_type_symbol
_atom_site_label
_atom_site_fract_x
_atom_site_fract_y
_atom_site_fract_z
Si Si1 0.376851 0.440746 0.197954
Si Si2 0.250000 0.750000 0.867729
Si Si3 0.489868 0.774916 0.672740
Si Si4 0.000000 0.500000 0.320732
Si Si5 0.130974 0.317694 0.058228
Si Si6 0.716451 0.976217 0.605099
O O1 0.500000 0.500000 0.192087
O O2 0.319833 0.500000 0.250000
O O3 0.413232 0.317749 0.200444
O O4 0.306861 0.462851 0.143644
O O5 0.370562 0.747746 0.831881
O O6 0.256720 0.643704 0.904160
O O7 0.444480 0.788110 0.610708
O O8 0.456873 0.887093 0.701044
O O9 0.895162 0.540117 0.357077
O O10 0.250000 0.250000 0.060675
O O11 0.171609 0.440618 0.061587
O O12 0.073274 0.298293 0.000000
#
# Coordination Sequence:
#
# PCOD9496585 Si02
#       6
#    16   8  16   8  16  16
#     4  11  22  37  65  90 117 157 215 257 319 372
#     4  10  20  36  61  82 126 164 196 254 321 354
#     4  10  19  39  62  91 124 166 202 261 313 375
#     4   8  20  34  64  84 124 170 192 246 320 360
#     4  10  20  36  64  96 125 166 214 254 306 382
#     4  10  19  39  59  91 124 166 202 261 309 369
#
# _framework density 22.397288
#
# number of rings (size 3 to 8) (size 9 to 14) (size 15 to 20)
#    0.000    2.000    4.000    0.000    0.000    0.000 
#    0.000   24.500    0.000    3.600    0.000    0.000 
#    0.000    0.000    0.000    0.000    0.000    0.000 
#
# Total GULP energy -222760.153815 kJ/mol
# GULP energy per Si atom -5569.003845 kJ/mol
# Density = 2.234631 g / cm^3
# Si number density = 22.397288 Si / 1000 Ang^3
#
#
#
# Elastic Constant Matrix: (Units=GPa)
#
#
# Indices 1 2 3 4 5 6 
#
# 1 55.3424 7.3857 14.8359 0.0000 0.0000 0.0000
# 2 7.3857 207.0552 10.9552 0.0000 0.0000 0.0000
# 3 14.8359 10.9552 118.7168 0.0000 0.0000 0.0000
# 4 0.0000 0.0000 0.0000 2.4318 0.0000 0.0000
# 5 0.0000 0.0000 0.0000 0.0000 3.8203 0.0000
# 6 0.0000 0.0000 0.0000 0.0000 0.0000 30.3257
#
#
#
# Elastic Compliance Matrix: (Units=1/GPa)
#
#
# Indices 1 2 3 4 5 6 
#
# 1 0.018757 -0.000548 -0.002294 0.000000 0.000000 0.000000
# 2 -0.000548 0.004869 -0.000381 0.000000 0.000000 0.000000
# 3 -0.002294 -0.000381 0.008745 0.000000 0.000000 0.000000
# 4 0.000000 0.000000 0.000000 0.411222 0.000000 0.000000
# 5 0.000000 0.000000 0.000000 0.000000 0.261760 0.000000
# 6 0.000000 0.000000 0.000000 0.000000 0.000000 0.032975
#
#
# Mechanical properties :
#
#
# Convention : Reuss Voigt Hill
#
# Bulk Modulus (GPa) = 38.56914 49.71865 44.14390
# Shear Modulus (GPa) = 6.63644 30.51141 18.57392
#
# Velocity S-wave (km/s) = 1.72322 3.69491 2.88287
# Velocity P-wave (km/s) = 4.60621 6.36002 5.55279
#
# Compressibility (1/GPa) = 0.02592746
#
# Stress axis : x y z
#
# Youngs Moduli (GPa) = 53.31274 205.36743 114.34879
#
# Poissons Ratio (x) = 0.11249 0.26226
# Poissons Ratio (y) = 0.02920 0.04355
# Poissons Ratio (z) = 0.12227 0.07822
#
# Static dielectric constant tensor:
#      x y z
#    x 1.660960 0.000000 0.000000 
#    y 0.000000 2.073700 0.000000 
#    z 0.000000 0.000000 1.872580 
# 
# From -- ./inp_files/68823.got.cif
#   From: 2010.05.17/outbox.cif.g08.bks.cpg/sg66_35_cif.got.tgz:68823.got - 2010.06.03 17:51:23.
