data_PCOD9496099
_publ_section_title
;
Structure prediction by ZEFSAII (Michael W. Deem and Ramdas Pophale) SiO2 
 PCOD9496099
Probable space group: C C C M
;
_chemical_formula_sum "Si O2"
_cell_formula_units_Z 120
_cell_length_a 10.885683
_cell_length_b 20.860817
_cell_length_c 27.166916
_cell_angle_alpha 90.000000
_cell_angle_beta 90.000000
_cell_angle_gamma 90.000000
_cell_volume 6169.178500
_symmetry_space_group_name_H-M "C C C M"
_symmetry_group_IT_number 66
_symmetry_cell_setting 'orthorhombic'
loop_
_space_group_symop_operation_xyz
x,y,z
-x,-y,z
x,-y,1/2-z
-x,y,1/2-z
-x,-y,-z
x,y,-z
-x,y,1/2+z
x,-y,1/2+z
1/2+x,1/2+y,z
1/2-x,1/2-y,z
1/2+x,1/2-y,1/2-z
1/2-x,1/2+y,1/2-z
1/2-x,1/2-y,-z
1/2+x,1/2+y,-z
1/2-x,1/2+y,1/2+z
1/2+x,1/2-y,1/2+z
loop_
_atom_site_type_symbol
_atom_site_label
_atom_site_fract_x
_atom_site_fract_y
_atom_site_fract_z
Si Si1 0.551966 0.900974 0.371108
Si Si2 0.857424 0.571671 0.734302
Si Si3 0.285979 0.965406 0.056625
Si Si4 0.250000 0.750000 0.606836
Si Si5 0.399056 0.553313 0.610689
Si Si6 0.216914 0.623047 0.328738
Si Si7 0.581857 0.357703 0.056915
Si Si8 0.510964 0.780978 0.558183
O O1 0.639472 0.908855 0.322961
O O2 0.600530 0.955329 0.407632
O O3 0.412592 0.902774 0.350829
O O4 0.552207 0.836507 0.404405
O O5 0.812754 0.500000 0.750000
O O6 0.795480 0.623758 0.770052
O O7 0.000000 0.571331 0.750000
O O8 0.201381 0.901662 0.063704
O O9 0.198037 0.024040 0.071852
O O10 0.321816 0.970440 0.000000
O O11 0.249308 0.688305 0.642856
O O12 0.371999 0.759472 0.573448
O O13 0.500000 0.500000 0.620997
O O14 0.321930 0.573222 0.657409
O O15 0.473030 0.613092 0.589143
O O16 0.594211 0.282296 0.065059
O O17 0.545180 0.366155 0.000000
O O18 0.514905 0.799760 0.500000
#
# Coordination Sequence:
#
# PCOD9496099 Si02
#       8
#    16  16  16   8  16  16  16  16
#     4  10  21  35  54  84 115 147 190 242 292 354
#     4   9  18  35  59  81 105 142 186 233 292 357
#     4  10  20  34  52  79 116 152 191 239 291 350
#     4  10  19  34  56  84 118 150 197 250 286 354
#     4  10  19  34  57  83 111 150 194 239 284 346
#     4  10  20  36  59  84 110 149 192 243 296 349
#     4   9  18  33  53  76 110 159 201 228 276 350
#     4  10  19  33  54  82 119 158 197 240 296 358
#
# _framework density 19.451536000000001
#
# number of rings (size 3 to 8) (size 9 to 14) (size 15 to 20)
#    0.000    2.267    1.333    1.800    0.000    3.733 
#    0.000    6.000    0.000    9.200    0.000    0.000 
#    0.000    0.000    0.000    0.000    0.000    0.000 
#
# Total GULP energy -334489.239214 kJ/mol
# GULP energy per Si atom -5574.820654 kJ/mol
# Density = 1.940726 g / cm^3
# Si number density = 19.451536 Si / 1000 Ang^3
#
#
#
# Elastic Constant Matrix: (Units=GPa)
#
#
# Indices 1 2 3 4 5 6 
#
# 1 43.7829 22.5173 43.5515 0.0000 0.0000 0.0000
# 2 22.5173 60.4110 51.2713 0.0000 0.0000 0.0000
# 3 43.5515 51.2713 144.9982 0.0000 0.0000 0.0000
# 4 0.0000 0.0000 0.0000 9.1135 0.0000 0.0000
# 5 0.0000 0.0000 0.0000 0.0000 8.5399 0.0000
# 6 0.0000 0.0000 0.0000 0.0000 0.0000 13.3803
#
#
#
# Elastic Compliance Matrix: (Units=1/GPa)
#
#
# Indices 1 2 3 4 5 6 
#
# 1 0.033894 -0.005706 -0.008163 0.000000 0.000000 0.000000
# 2 -0.005706 0.024611 -0.006989 0.000000 0.000000 0.000000
# 3 -0.008163 -0.006989 0.011820 0.000000 0.000000 0.000000
# 4 0.000000 0.000000 0.000000 0.109727 0.000000 0.000000
# 5 0.000000 0.000000 0.000000 0.000000 0.117098 0.000000
# 6 0.000000 0.000000 0.000000 0.000000 0.000000 0.074737
#
#
# Mechanical properties :
#
#
# Convention : Reuss Voigt Hill
#
# Bulk Modulus (GPa) = 34.95219 53.76361 44.35790
# Shear Modulus (GPa) = 11.81647 14.99688 13.40667
#
# Velocity S-wave (km/s) = 2.46739 2.77968 2.62818
# Velocity P-wave (km/s) = 5.11128 6.16457 5.66247
#
# Compressibility (1/GPa) = 0.02861051
#
# Stress axis : x y z
#
# Youngs Moduli (GPa) = 29.50368 40.63143 84.60445
#
# Poissons Ratio (x) = 0.23183 0.69062
# Poissons Ratio (y) = 0.16834 0.59129
# Poissons Ratio (z) = 0.24084 0.28397
#
# Static dielectric constant tensor:
#      x y z
#    x 1.694440 0.000000 0.000000 
#    y 0.000000 1.718230 0.000000 
#    z 0.000000 0.000000 1.669050 
# 
# From -- ./inp_files/57241.got.cif
#   From: 2010.05.17/outbox.cif.g08.bks.cpg/sg66_29_cif.got.tgz:57241.got - 2010.06.03 17:51:23.
