data_PCOD9496162
_publ_section_title
;
Structure prediction by ZEFSAII (Michael W. Deem and Ramdas Pophale) SiO2 
 PCOD9496162
Probable space group: C C C M
;
_chemical_formula_sum "Si O2"
_cell_formula_units_Z 64
_cell_length_a 16.139241
_cell_length_b 12.816424
_cell_length_c 16.264131
_cell_angle_alpha 90.000000
_cell_angle_beta 90.000000
_cell_angle_gamma 90.000000
_cell_volume 3364.192490
_symmetry_space_group_name_H-M "C C C M"
_symmetry_group_IT_number 66
_symmetry_cell_setting 'orthorhombic'
loop_
_space_group_symop_operation_xyz
x,y,z
-x,-y,z
x,-y,1/2-z
-x,y,1/2-z
-x,-y,-z
x,y,-z
-x,y,1/2+z
x,-y,1/2+z
1/2+x,1/2+y,z
1/2-x,1/2-y,z
1/2+x,1/2-y,1/2-z
1/2-x,1/2+y,1/2-z
1/2-x,1/2-y,-z
1/2+x,1/2+y,-z
1/2-x,1/2+y,1/2+z
1/2+x,1/2-y,1/2+z
loop_
_atom_site_type_symbol
_atom_site_label
_atom_site_fract_x
_atom_site_fract_y
_atom_site_fract_z
Si Si1 0.630631 0.990601 0.097457
Si Si2 0.711558 0.364223 0.401067
Si Si3 0.973648 0.111082 0.345706
Si Si4 0.485400 0.164252 0.347458
O O1 0.719622 0.948624 0.125105
O O2 0.561835 0.901396 0.115012
O O3 0.596421 0.096598 0.136496
O O4 0.633805 0.005515 0.000000
O O5 0.698556 0.372944 0.500000
O O6 0.750000 0.250000 0.386071
O O7 0.624622 0.376875 0.356146
O O8 0.000000 0.108306 0.250000
O O9 0.013827 0.217666 0.380309
O O10 0.000000 0.000000 0.382983
O O11 0.500000 0.167442 0.250000
#
# Coordination Sequence:
#
# PCOD9496162 Si02
#       4
#    16  16  16  16
#     4  10  19  33  58  88 113 143 189 241 281 331
#     4  10  20  37  60  85 113 151 198 235 276 344
#     4  10  22  41  55  82 117 156 196 231 287 348
#     4  10  19  34  55  85 120 148 187 235 290 339
#
# _framework density 19.023880999999999
#
# number of rings (size 3 to 8) (size 9 to 14) (size 15 to 20)
#    0.000    2.000    2.500    3.000    0.000    1.500 
#    9.000    1.250    0.000    3.000    0.000    0.000 
#    0.000    0.000    0.000    0.000    0.000    0.000 
#
# Total GULP energy -178538.857822 kJ/mol
# GULP energy per Si atom -5579.339307 kJ/mol
# Density = 1.898058 g / cm^3
# Si number density = 19.023881 Si / 1000 Ang^3
#
#
#
# Elastic Constant Matrix: (Units=GPa)
#
#
# Indices 1 2 3 4 5 6 
#
# 1 147.1573 74.5655 36.7587 0.0000 0.0000 0.0000
# 2 74.5655 183.9998 23.6104 0.0000 0.0000 0.0000
# 3 36.7587 23.6104 37.7089 0.0000 0.0000 0.0000
# 4 0.0000 0.0000 0.0000 58.3308 0.0000 0.0000
# 5 0.0000 0.0000 0.0000 0.0000 33.4736 0.0000
# 6 0.0000 0.0000 0.0000 0.0000 0.0000 35.0013
#
#
#
# Elastic Compliance Matrix: (Units=1/GPa)
#
#
# Indices 1 2 3 4 5 6 
#
# 1 0.010458 -0.003186 -0.008200 0.000000 0.000000 0.000000
# 2 -0.003186 0.006880 -0.001202 0.000000 0.000000 0.000000
# 3 -0.008200 -0.001202 0.035265 0.000000 0.000000 0.000000
# 4 0.000000 0.000000 0.000000 0.017144 0.000000 0.000000
# 5 0.000000 0.000000 0.000000 0.000000 0.029874 0.000000
# 6 0.000000 0.000000 0.000000 0.000000 0.000000 0.028570
#
#
# Mechanical properties :
#
#
# Convention : Reuss Voigt Hill
#
# Bulk Modulus (GPa) = 36.46009 70.97060 53.71534
# Shear Modulus (GPa) = 30.76752 40.95658 35.86205
#
# Velocity S-wave (km/s) = 4.02594 4.64497 4.34649
# Velocity P-wave (km/s) = 6.38890 8.13356 7.31344
#
# Compressibility (1/GPa) = 0.02742725
#
# Stress axis : x y z
#
# Youngs Moduli (GPa) = 95.62068 145.34607 28.35698
#
# Poissons Ratio (x) = 0.46306 0.23252
# Poissons Ratio (y) = 0.30464 0.03409
# Poissons Ratio (z) = 0.78406 0.17473
#
# Static dielectric constant tensor:
#      x y z
#    x 1.638470 0.000000 0.000000 
#    y 0.000000 1.711840 0.000000 
#    z 0.000000 0.000000 1.665870 
# 
# From -- ./inp_files/38009.got.cif
#   From: 2010.05.17/outbox.cif.g08.bks.cpg/sg66_20_cif.got.tgz:38009.got - 2010.06.03 17:51:23.
