data_PCOD9496152
_publ_section_title
;
Structure prediction by ZEFSAII (Michael W. Deem and Ramdas Pophale) SiO2 
 PCOD9496152
Probable space group: C C C M
;
_chemical_formula_sum "Si O2"
_cell_formula_units_Z 96
_cell_length_a 12.163173
_cell_length_b 21.873619
_cell_length_c 14.085376
_cell_angle_alpha 90.000000
_cell_angle_beta 90.000000
_cell_angle_gamma 90.000000
_cell_volume 3747.451076
_symmetry_space_group_name_H-M "C C C M"
_symmetry_group_IT_number 66
_symmetry_cell_setting 'orthorhombic'
loop_
_space_group_symop_operation_xyz
x,y,z
-x,-y,z
x,-y,1/2-z
-x,y,1/2-z
-x,-y,-z
x,y,-z
-x,y,1/2+z
x,-y,1/2+z
1/2+x,1/2+y,z
1/2-x,1/2-y,z
1/2+x,1/2-y,1/2-z
1/2-x,1/2+y,1/2-z
1/2-x,1/2-y,-z
1/2+x,1/2+y,-z
1/2-x,1/2+y,1/2+z
1/2+x,1/2-y,1/2+z
loop_
_atom_site_type_symbol
_atom_site_label
_atom_site_fract_x
_atom_site_fract_y
_atom_site_fract_z
Si Si1 0.380705 0.518426 0.359189
Si Si2 0.719310 0.644573 0.112114
Si Si3 0.953806 0.236467 0.615112
Si Si4 0.681819 0.310340 0.884188
Si Si5 0.686947 0.926269 0.388846
Si Si6 0.539943 0.878661 0.114466
O O1 0.500000 0.500000 0.399527
O O2 0.385655 0.500000 0.250000
O O3 0.365592 0.589542 0.378139
O O4 0.266777 0.484757 0.388818
O O5 0.658817 0.705338 0.149731
O O6 0.834800 0.618288 0.150258
O O7 0.739973 0.657031 0.000000
O O8 0.948339 0.234389 0.500000
O O9 0.983198 0.306941 0.635392
O O10 0.057057 0.196766 0.647039
O O11 0.750000 0.250000 0.860435
O O12 0.740754 0.370832 0.847716
O O13 0.679100 0.313146 0.000000
O O14 0.672101 0.911913 0.500000
O O15 0.561329 0.921120 0.351124
O O16 0.546282 0.888068 0.000000
#
# Coordination Sequence:
#
# PCOD9496152 Si02
#       6
#    16  16  16  16  16  16
#     4  11  25  43  58  75 103 148 192 238 289 334
#     4  10  20  34  56  85 114 147 188 229 274 336
#     4   9  15  26  48  82 119 147 174 219 276 329
#     4   9  14  23  44  77 111 139 171 217 272 323
#     4  10  19  33  57  86 116 146 183 232 277 332
#     4   9  17  30  51  86 123 147 173 220 284 338
#
# _framework density 25.61741
#
# number of rings (size 3 to 8) (size 9 to 14) (size 15 to 20)
#    0.000    2.333    1.667    2.000    0.000    5.333 
#    0.000    4.167    0.000    2.000    4.333    0.000 
#    0.000    0.000    0.000    0.000    0.000    0.000 
#
# Total GULP energy -268072.430871 kJ/mol
# GULP energy per Si atom -5584.842310 kJ/mol
# Density = 2.555910 g / cm^3
# Si number density = 25.617410 Si / 1000 Ang^3
#
#
#
# Elastic Constant Matrix: (Units=GPa)
#
#
# Indices 1 2 3 4 5 6 
#
# 1 204.5746 42.3422 26.2042 0.0000 0.0000 0.0000
# 2 42.3422 47.9149 -7.3469 0.0000 0.0000 0.0000
# 3 26.2042 -7.3469 80.9542 0.0000 0.0000 0.0000
# 4 0.0000 0.0000 0.0000 65.6455 0.0000 0.0000
# 5 0.0000 0.0000 0.0000 0.0000 18.6289 0.0000
# 6 0.0000 0.0000 0.0000 0.0000 0.0000 30.1031
#
#
#
# Elastic Compliance Matrix: (Units=1/GPa)
#
#
# Indices 1 2 3 4 5 6 
#
# 1 0.006503 -0.006156 -0.002664 0.000000 0.000000 0.000000
# 2 -0.006156 0.026991 0.004442 0.000000 0.000000 0.000000
# 3 -0.002664 0.004442 0.013618 0.000000 0.000000 0.000000
# 4 0.000000 0.000000 0.000000 0.015233 0.000000 0.000000
# 5 0.000000 0.000000 0.000000 0.000000 0.053680 0.000000
# 6 0.000000 0.000000 0.000000 0.000000 0.000000 0.033219
#
#
# Mechanical properties :
#
#
# Convention : Reuss Voigt Hill
#
# Bulk Modulus (GPa) = 26.07016 50.64918 38.35967
# Shear Modulus (GPa) = 29.27647 41.02510 35.15079
#
# Velocity S-wave (km/s) = 3.38425 4.00616 3.70827
# Velocity P-wave (km/s) = 5.04675 6.41977 5.77421
#
# Compressibility (1/GPa) = 0.03835803
#
# Stress axis : x y z
#
# Youngs Moduli (GPa) = 153.76475 37.04934 73.43210
#
# Poissons Ratio (x) = 0.22806 0.19560
# Poissons Ratio (y) = 0.94650 -0.32619
# Poissons Ratio (z) = 0.40959 -0.16457
#
# Static dielectric constant tensor:
#      x y z
#    x 2.037590 0.000000 0.000000 
#    y 0.000000 2.000850 0.000000 
#    z 0.000000 0.000000 1.995150 
# 
# From -- ./inp_files/48825.got.cif
#   From: 2010.05.17/outbox.cif.g08.bks.cpg/sg66_25_cif.got.tgz:48825.got - 2010.06.03 17:51:23.
