data_PCOD9496284
_publ_section_title
;
Structure prediction by ZEFSAII (Michael W. Deem and Ramdas Pophale) SiO2 
 PCOD9496284
Probable space group: C C C M
;
_chemical_formula_sum "Si O2"
_cell_formula_units_Z 116
_cell_length_a 27.994716
_cell_length_b 22.942523
_cell_length_c 9.715659
_cell_angle_alpha 90.000000
_cell_angle_beta 90.000000
_cell_angle_gamma 90.000000
_cell_volume 6240.070629
_symmetry_space_group_name_H-M "C C C M"
_symmetry_group_IT_number 66
_symmetry_cell_setting 'orthorhombic'
loop_
_space_group_symop_operation_xyz
x,y,z
-x,-y,z
x,-y,1/2-z
-x,y,1/2-z
-x,-y,-z
x,y,-z
-x,y,1/2+z
x,-y,1/2+z
1/2+x,1/2+y,z
1/2-x,1/2-y,z
1/2+x,1/2-y,1/2-z
1/2-x,1/2+y,1/2-z
1/2-x,1/2-y,-z
1/2+x,1/2+y,-z
1/2-x,1/2+y,1/2+z
1/2+x,1/2-y,1/2+z
loop_
_atom_site_type_symbol
_atom_site_label
_atom_site_fract_x
_atom_site_fract_y
_atom_site_fract_z
Si Si1 0.500000 0.000000 0.250000
Si Si2 0.127414 0.056855 0.335848
Si Si3 0.048129 0.278002 0.162636
Si Si4 0.392536 0.685364 0.162873
Si Si5 0.803137 0.256600 0.164146
Si Si6 0.082285 0.412382 0.845063
Si Si7 0.261349 0.554445 0.160348
Si Si8 0.165359 0.621041 0.162163
O O1 0.537414 0.955833 0.176085
O O2 0.123657 0.046091 0.500000
O O3 0.100273 0.117237 0.305885
O O4 0.183747 0.067984 0.304058
O O5 0.112612 0.000000 0.250000
O O6 0.080817 0.229531 0.236435
O O7 0.065731 0.345131 0.172073
O O8 0.000000 0.275781 0.250000
O O9 0.042071 0.265343 0.000000
O O10 0.336295 0.700539 0.177850
O O11 0.404100 0.695947 0.000000
O O12 0.750000 0.250000 0.222296
O O13 0.832893 0.312407 0.215264
O O14 0.797653 0.267653 0.000000
O O15 0.126599 0.417909 0.740665
O O16 0.100061 0.420591 0.000000
O O17 0.246180 0.500000 0.250000
O O18 0.220421 0.602068 0.178413
O O19 0.261359 0.538681 0.000000
O O20 0.153205 0.619567 0.000000
#
# Coordination Sequence:
#
# PCOD9496284 Si02
#       8
#     4  16  16  16  16  16  16  16
#     4  12  26  48  64  82 106 152 202 254 302 356
#     4   9  18  33  55  83 118 155 195 235 276 331
#     4  11  23  41  63  87 115 147 186 238 294 354
#     4  10  19  34  58  87 115 150 194 239 286 343
#     4   9  16  28  51  82 113 149 193 236 277 335
#     4  11  25  42  61  83 109 143 189 244 299 351
#     4   9  18  32  49  75 109 151 196 236 276 330
#     4  10  20  34  54  79 111 149 189 237 290 340
#
# _framework density 18.589532999999999
#
# number of rings (size 3 to 8) (size 9 to 14) (size 15 to 20)
#    0.000    2.069    2.069    1.448    0.966    6.069 
#    0.000    0.000    0.000    3.724    0.000    2.897 
#    0.000    0.000    0.000    0.000    0.000    0.000 
#
# Total GULP energy -323072.388405 kJ/mol
# GULP energy per Si atom -5570.213593 kJ/mol
# Density = 1.854722 g / cm^3
# Si number density = 18.589533 Si / 1000 Ang^3
#
#
#
# Elastic Constant Matrix: (Units=GPa)
#
#
# Indices 1 2 3 4 5 6 
#
# 1 42.8145 9.7043 29.9147 0.0000 0.0000 0.0000
# 2 9.7043 107.1891 49.4251 0.0000 0.0000 0.0000
# 3 29.9147 49.4251 63.6204 0.0000 0.0000 0.0000
# 4 0.0000 0.0000 0.0000 20.0877 0.0000 0.0000
# 5 0.0000 0.0000 0.0000 0.0000 19.0801 0.0000
# 6 0.0000 0.0000 0.0000 0.0000 0.0000 39.2800
#
#
#
# Elastic Compliance Matrix: (Units=1/GPa)
#
#
# Indices 1 2 3 4 5 6 
#
# 1 0.038336 0.007543 -0.023886 0.000000 0.000000 0.000000
# 2 0.007543 0.016021 -0.015993 0.000000 0.000000 0.000000
# 3 -0.023886 -0.015993 0.039374 0.000000 0.000000 0.000000
# 4 0.000000 0.000000 0.000000 0.049782 0.000000 0.000000
# 5 0.000000 0.000000 0.000000 0.000000 0.052411 0.000000
# 6 0.000000 0.000000 0.000000 0.000000 0.000000 0.025458
#
#
# Mechanical properties :
#
#
# Convention : Reuss Voigt Hill
#
# Bulk Modulus (GPa) = 34.41232 43.52361 38.96796
# Shear Modulus (GPa) = 16.90675 23.99488 20.45082
#
# Velocity S-wave (km/s) = 3.01903 3.59663 3.32041
# Velocity P-wave (km/s) = 5.54117 6.38055 5.97562
#
# Compressibility (1/GPa) = 0.02905936
#
# Stress axis : x y z
#
# Youngs Moduli (GPa) = 26.08507 62.41892 25.39738
#
# Poissons Ratio (x) = -0.47083 0.60664
# Poissons Ratio (y) = -0.19676 0.40618
# Poissons Ratio (z) = 0.62307 0.99826
#
# Static dielectric constant tensor:
#      x y z
#    x 1.656980 0.000000 0.000000 
#    y 0.000000 1.680050 0.000000 
#    z 0.000000 0.000000 1.619210 
# 
# From -- ./inp_files/10609.got.cif
#   From: 2010.05.17/outbox.cif.g08.bks.cpg/sg66_6_cif.got.tgz:10609.got - 2010.06.03 17:51:23.
