data_PCOD9496586
_publ_section_title
;
Structure prediction by ZEFSAII (Michael W. Deem and Ramdas Pophale) SiO2 
 PCOD9496586
Probable space group: C C C M
;
_chemical_formula_sum "Si O2"
_cell_formula_units_Z 48
_cell_length_a 8.719741
_cell_length_b 28.122439
_cell_length_c 10.221947
_cell_angle_alpha 90.000000
_cell_angle_beta 90.000000
_cell_angle_gamma 90.000000
_cell_volume 2506.629772
_symmetry_space_group_name_H-M "C C C M"
_symmetry_group_IT_number 66
_symmetry_cell_setting 'orthorhombic'
loop_
_space_group_symop_operation_xyz
x,y,z
-x,-y,z
x,-y,1/2-z
-x,y,1/2-z
-x,-y,-z
x,y,-z
-x,y,1/2+z
x,-y,1/2+z
1/2+x,1/2+y,z
1/2-x,1/2-y,z
1/2+x,1/2-y,1/2-z
1/2-x,1/2+y,1/2-z
1/2-x,1/2-y,-z
1/2+x,1/2+y,-z
1/2-x,1/2+y,1/2+z
1/2+x,1/2-y,1/2+z
loop_
_atom_site_type_symbol
_atom_site_label
_atom_site_fract_x
_atom_site_fract_y
_atom_site_fract_z
Si Si1 0.168278 0.599414 0.500000
Si Si2 0.832168 0.800315 0.000000
Si Si3 0.000000 0.163306 0.250000
Si Si4 0.120771 0.456827 0.500000
Si Si5 0.170904 0.071121 0.734516
O O1 0.216270 0.654538 0.500000
O O2 0.242890 0.575353 0.627899
O O3 0.988302 0.589547 0.500000
O O4 0.750000 0.750000 0.000000
O O5 0.933164 0.807232 0.130392
O O6 0.870777 0.126098 0.196657
O O7 0.227800 0.454845 0.627192
O O8 0.000000 0.500000 0.500000
O O9 0.000000 0.050697 0.750000
#
# Coordination Sequence:
#
# PCOD9496586 Si02
#       5
#     8   8   8   8  16
#     4  10  21  38  60  89 123 163 198 266 317 354
#     4  10  19  39  59  91 125 158 214 260 309 379
#     4   8  18  38  66  81 122 170 209 248 308 388
#     4  12  24  39  61  98 128 153 209 274 312 363
#     4   9  19  40  66  81 121 173 205 236 313 386
#
# _framework density 19.149217
#
# number of rings (size 3 to 8) (size 9 to 14) (size 15 to 20)
#    1.000    1.333    0.000    3.000    0.000    2.667 
#   12.000    5.833    0.000    0.000    0.000    0.000 
#    0.000    0.000    0.000    0.000    0.000    0.000 
#
# Total GULP energy -133857.923495 kJ/mol
# GULP energy per Si atom -5577.413479 kJ/mol
# Density = 1.910563 g / cm^3
# Si number density = 19.149217 Si / 1000 Ang^3
#
#
#
# Elastic Constant Matrix: (Units=GPa)
#
#
# Indices 1 2 3 4 5 6 
#
# 1 141.1361 52.1061 85.7584 0.0000 0.0000 0.0000
# 2 52.1061 116.7371 86.4004 0.0000 0.0000 0.0000
# 3 85.7584 86.4004 150.0522 0.0000 0.0000 0.0000
# 4 0.0000 0.0000 0.0000 5.4684 0.0000 0.0000
# 5 0.0000 0.0000 0.0000 0.0000 33.1919 0.0000
# 6 0.0000 0.0000 0.0000 0.0000 0.0000 36.3359
#
#
#
# Elastic Compliance Matrix: (Units=1/GPa)
#
#
# Indices 1 2 3 4 5 6 
#
# 1 0.010868 -0.000442 -0.005957 0.000000 0.000000 0.000000
# 2 -0.000442 0.014946 -0.008353 0.000000 0.000000 0.000000
# 3 -0.005957 -0.008353 0.014879 0.000000 0.000000 0.000000
# 4 0.000000 0.000000 0.000000 0.182868 0.000000 0.000000
# 5 0.000000 0.000000 0.000000 0.000000 0.030128 0.000000
# 6 0.000000 0.000000 0.000000 0.000000 0.000000 0.027521
#
#
# Mechanical properties :
#
#
# Convention : Reuss Voigt Hill
#
# Bulk Modulus (GPa) = 89.37887 95.16168 92.27027
# Shear Modulus (GPa) = 15.90109 27.24328 21.57219
#
# Velocity S-wave (km/s) = 2.88475 3.77594 3.36002
# Velocity P-wave (km/s) = 7.60737 8.29536 7.95880
#
# Compressibility (1/GPa) = 0.01118833
#
# Stress axis : x y z
#
# Youngs Moduli (GPa) = 92.01218 66.90694 67.21088
#
# Poissons Ratio (x) = 0.02959 0.40036
# Poissons Ratio (y) = 0.04070 0.56143
# Poissons Ratio (z) = 0.54809 0.55889
#
# Static dielectric constant tensor:
#      x y z
#    x 1.663920 0.000000 0.000000 
#    y 0.000000 1.690780 0.000000 
#    z 0.000000 0.000000 1.652520 
# 
# From -- ./inp_files/2809.got.cif
#   From: 2010.05.17/outbox.cif.g08.bks.cpg/sg66_2_cif.got.tgz:2809.got - 2010.06.03 17:51:23.
