data_PCOD9496417
_publ_section_title
;
Structure prediction by ZEFSAII (Michael W. Deem and Ramdas Pophale) SiO2 
 PCOD9496417
Probable space group: C C C M
;
_chemical_formula_sum "Si O2"
_cell_formula_units_Z 100
_cell_length_a 19.191642
_cell_length_b 33.246048
_cell_length_c 7.980800
_cell_angle_alpha 90.000000
_cell_angle_beta 90.000000
_cell_angle_gamma 90.000000
_cell_volume 5092.119521
_symmetry_space_group_name_H-M "C C C M"
_symmetry_group_IT_number 66
_symmetry_cell_setting 'orthorhombic'
loop_
_space_group_symop_operation_xyz
x,y,z
-x,-y,z
x,-y,1/2-z
-x,y,1/2-z
-x,-y,-z
x,y,-z
-x,y,1/2+z
x,-y,1/2+z
1/2+x,1/2+y,z
1/2-x,1/2-y,z
1/2+x,1/2-y,1/2-z
1/2-x,1/2+y,1/2-z
1/2-x,1/2-y,-z
1/2+x,1/2+y,-z
1/2-x,1/2+y,1/2+z
1/2+x,1/2-y,1/2+z
loop_
_atom_site_type_symbol
_atom_site_label
_atom_site_fract_x
_atom_site_fract_y
_atom_site_fract_z
Si Si1 0.250000 0.250000 0.000000
Si Si2 0.219992 0.042695 0.312548
Si Si3 0.192074 0.389755 0.191594
Si Si4 0.424050 0.440303 0.194446
Si Si5 0.922167 0.156388 0.696063
Si Si6 0.580070 0.954025 0.199520
Si Si7 0.773592 0.186941 0.809689
O O1 0.241127 0.215740 0.151507
O O2 0.244202 0.050936 0.500000
O O3 0.245099 0.078147 0.193682
O O4 0.137004 0.042140 0.305632
O O5 0.246357 0.000000 0.250000
O O6 0.129105 0.417540 0.262470
O O7 0.221547 0.351293 0.288080
O O8 0.175768 0.377931 0.000000
O O9 0.500000 0.453559 0.250000
O O10 0.421623 0.391880 0.215202
O O11 0.411765 0.449756 0.000000
O O12 0.913370 0.165938 0.500000
O O13 0.854821 0.173386 0.791296
O O14 0.000000 0.170190 0.750000
O O15 0.500000 0.947451 0.250000
O O16 0.597825 0.000000 0.250000
O O17 0.586333 0.952884 0.000000
O O18 0.764125 0.202667 0.000000
#
# Coordination Sequence:
#
# PCOD9496417 Si02
#       7
#     4  16  16  16  16  16  16
#     4  12  26  48  68  98 140 158 212 278 320 406
#     4  12  24  36  53  80 117 163 212 262 310 365
#     4  11  22  40  62  91 126 165 210 265 321 382
#     4  10  20  34  53  77 114 157 206 257 302 355
#     4  10  19  35  61  95 131 166 213 269 312 374
#     4  10  21  36  60  91 131 171 220 272 322 380
#     4  12  24  42  70 102 131 174 215 264 335 400
#
# _framework density 19.638189000000001
#
# number of rings (size 3 to 8) (size 9 to 14) (size 15 to 20)
#    0.000    1.120    3.200    4.560    0.000    5.440 
#    0.000    1.600    0.000    0.960    4.160    0.000 
#    0.000    0.000    0.000    0.000    0.000    0.000 
#
# Total GULP energy -278617.260124 kJ/mol
# GULP energy per Si atom -5572.345202 kJ/mol
# Density = 1.959349 g / cm^3
# Si number density = 19.638189 Si / 1000 Ang^3
#
#
#
# Elastic Constant Matrix: (Units=GPa)
#
#
# Indices 1 2 3 4 5 6 
#
# 1 123.2541 44.1573 24.9427 0.0000 0.0000 0.0000
# 2 44.1573 92.4655 53.2851 0.0000 0.0000 0.0000
# 3 24.9427 53.2851 128.5469 0.0000 0.0000 0.0000
# 4 0.0000 0.0000 0.0000 22.6980 0.0000 0.0000
# 5 0.0000 0.0000 0.0000 0.0000 18.3294 0.0000
# 6 0.0000 0.0000 0.0000 0.0000 0.0000 -6.5554
#
#
#
# Elastic Compliance Matrix: (Units=1/GPa)
#
#
# Indices 1 2 3 4 5 6 
#
# 1 0.009788 -0.004703 0.000050 0.000000 0.000000 0.000000
# 2 -0.004703 0.016469 -0.005914 0.000000 0.000000 0.000000
# 3 0.000050 -0.005914 0.010221 0.000000 0.000000 0.000000
# 4 0.000000 0.000000 0.000000 0.044057 0.000000 0.000000
# 5 0.000000 0.000000 0.000000 0.000000 0.054557 0.000000
# 6 0.000000 0.000000 0.000000 0.000000 0.000000 -0.152547
#
#
# Mechanical properties :
#
#
# Convention : Reuss Voigt Hill
#
# Bulk Modulus (GPa) = 65.17209 65.44852 65.31031
# Shear Modulus (GPa) = 568.56615 21.68650 295.12632
#
# Velocity S-wave (km/s) = 17.03377 3.32671 12.27225
# Velocity P-wave (km/s) = 20.49693 6.93942 15.30163
#
# Compressibility (1/GPa) = 0.01534399
#
# Stress axis : x y z
#
# Youngs Moduli (GPa) = 102.16395 60.71966 97.83781
#
# Poissons Ratio (x) = 0.28559 -0.00493
# Poissons Ratio (y) = 0.48052 0.57862
# Poissons Ratio (z) = -0.00515 0.35910
#
# Static dielectric constant tensor:
#      x y z
#    x 1.728430 0.000000 0.000000 
#    y 0.000000 1.695580 0.000000 
#    z 0.000000 0.000000 1.708950 
# 
# From -- ./inp_files/8335.got.cif
#   From: 2010.05.17/outbox.cif.g08.bks.cpg/sg66_5_cif.got.tgz:8335.got - 2010.06.03 17:51:23.
