data_PCOD9496438
_publ_section_title
;
Structure prediction by ZEFSAII (Michael W. Deem and Ramdas Pophale) SiO2 
 PCOD9496438
Probable space group: C C C M
;
_chemical_formula_sum "Si O2"
_cell_formula_units_Z 112
_cell_length_a 21.194009
_cell_length_b 11.308546
_cell_length_c 25.445312
_cell_angle_alpha 90.000000
_cell_angle_beta 90.000000
_cell_angle_gamma 90.000000
_cell_volume 6098.565095
_symmetry_space_group_name_H-M "C C C M"
_symmetry_group_IT_number 66
_symmetry_cell_setting 'orthorhombic'
loop_
_space_group_symop_operation_xyz
x,y,z
-x,-y,z
x,-y,1/2-z
-x,y,1/2-z
-x,-y,-z
x,y,-z
-x,y,1/2+z
x,-y,1/2+z
1/2+x,1/2+y,z
1/2-x,1/2-y,z
1/2+x,1/2-y,1/2-z
1/2-x,1/2+y,1/2-z
1/2-x,1/2-y,-z
1/2+x,1/2+y,-z
1/2-x,1/2+y,1/2+z
1/2+x,1/2-y,1/2+z
loop_
_atom_site_type_symbol
_atom_site_label
_atom_site_fract_x
_atom_site_fract_y
_atom_site_fract_z
Si Si1 0.590155 0.108804 0.560026
Si Si2 0.561349 0.845123 0.440667
Si Si3 0.540023 0.695253 0.343957
Si Si4 0.731396 0.122039 0.783446
Si Si5 0.605815 0.276292 0.345182
Si Si6 0.093343 0.366092 0.263375
Si Si7 0.852547 0.018693 0.812900
O O1 0.611669 0.132011 0.500000
O O2 0.514326 0.130651 0.560376
O O3 0.618352 0.191183 0.605346
O O4 0.595628 0.969106 0.571465
O O5 0.577788 0.809713 0.500000
O O6 0.570051 0.747663 0.396829
O O7 0.465853 0.674155 0.351173
O O8 0.544331 0.795583 0.298834
O O9 0.583968 0.587823 0.327181
O O10 0.750000 0.250000 0.758551
O O11 0.658169 0.134628 0.797421
O O12 0.789061 0.094575 0.822894
O O13 0.729876 0.000000 0.750000
O O14 0.607736 0.202007 0.290995
O O15 0.649510 0.390761 0.339589
O O16 0.075562 0.500000 0.250000
O O17 0.856655 0.000000 0.750000
#
# Coordination Sequence:
#
# PCOD9496438 Si02
#       7
#    16  16  16  16  16  16  16
#     4   8  15  30  50  71 104 143 177 215 270 332
#     4   8  15  29  49  73 102 141 180 217 264 328
#     4  11  20  31  49  75 110 142 174 217 273 334
#     4  10  19  36  54  70 100 142 189 228 258 318
#     4  11  21  32  49  78 110 142 177 215 275 335
#     4  11  21  31  49  77 105 138 176 227 274 317
#     4  11  21  35  50  69 103 149 185 214 264 324
#
# _framework density 18.364975000000001
#
# number of rings (size 3 to 8) (size 9 to 14) (size 15 to 20)
#    0.000    2.000    2.857    3.429    0.000    2.857 
#    0.000    0.714    0.000    3.429    0.000    3.000 
#    0.000   33.714    0.000    0.000    0.000    0.000 
#
# Total GULP energy -311949.110665 kJ/mol
# GULP energy per Si atom -5570.519833 kJ/mol
# Density = 1.832318 g / cm^3
# Si number density = 18.364975 Si / 1000 Ang^3
#
#
#
# Elastic Constant Matrix: (Units=GPa)
#
#
# Indices 1 2 3 4 5 6 
#
# 1 46.1888 14.8525 9.5326 0.0000 0.0000 0.0000
# 2 14.8525 85.1751 32.6344 0.0000 0.0000 0.0000
# 3 9.5326 32.6344 83.4217 0.0000 0.0000 0.0000
# 4 0.0000 0.0000 0.0000 20.6388 0.0000 0.0000
# 5 0.0000 0.0000 0.0000 0.0000 8.5445 0.0000
# 6 0.0000 0.0000 0.0000 0.0000 0.0000 13.2012
#
#
#
# Elastic Compliance Matrix: (Units=1/GPa)
#
#
# Indices 1 2 3 4 5 6 
#
# 1 0.023046 -0.003540 -0.001249 0.000000 0.000000 0.000000
# 2 -0.003540 0.014354 -0.005211 0.000000 0.000000 0.000000
# 3 -0.001249 -0.005211 0.014168 0.000000 0.000000 0.000000
# 4 0.000000 0.000000 0.000000 0.048452 0.000000 0.000000
# 5 0.000000 0.000000 0.000000 0.000000 0.117035 0.000000
# 6 0.000000 0.000000 0.000000 0.000000 0.000000 0.075751
#
#
# Mechanical properties :
#
#
# Convention : Reuss Voigt Hill
#
# Bulk Modulus (GPa) = 31.67596 36.53608 34.10602
# Shear Modulus (GPa) = 15.46409 18.99463 17.22936
#
# Velocity S-wave (km/s) = 2.90494 3.21952 3.06627
# Velocity P-wave (km/s) = 5.34201 5.81017 5.58100
#
# Compressibility (1/GPa) = 0.03156969
#
# Stress axis : x y z
#
# Youngs Moduli (GPa) = 43.39075 69.66505 70.57940
#
# Poissons Ratio (x) = 0.24664 0.08812
# Poissons Ratio (y) = 0.15362 0.36778
# Poissons Ratio (z) = 0.05417 0.36301
#
# Static dielectric constant tensor:
#      x y z
#    x 1.673120 0.000000 0.000000 
#    y 0.000000 1.627800 0.000000 
#    z 0.000000 0.000000 1.632300 
# 
# From -- ./inp_files/59552.got.cif
#   From: 2010.05.17/outbox.cif.g08.bks.cpg/sg66_30_cif.got.tgz:59552.got - 2010.06.03 17:51:23.
