data_PCOD9496633
_publ_section_title
;
Structure prediction by ZEFSAII (Michael W. Deem and Ramdas Pophale) SiO2 
 PCOD9496633
Probable space group: C C C M
;
_chemical_formula_sum "Si O2"
_cell_formula_units_Z 116
_cell_length_a 29.344308
_cell_length_b 26.940556
_cell_length_c 7.582673
_cell_angle_alpha 90.000000
_cell_angle_beta 90.000000
_cell_angle_gamma 90.000000
_cell_volume 5994.497100
_symmetry_space_group_name_H-M "C C C M"
_symmetry_group_IT_number 66
_symmetry_cell_setting 'orthorhombic'
loop_
_space_group_symop_operation_xyz
x,y,z
-x,-y,z
x,-y,1/2-z
-x,y,1/2-z
-x,-y,-z
x,y,-z
-x,y,1/2+z
x,-y,1/2+z
1/2+x,1/2+y,z
1/2-x,1/2-y,z
1/2+x,1/2-y,1/2-z
1/2-x,1/2+y,1/2-z
1/2-x,1/2-y,-z
1/2+x,1/2+y,-z
1/2-x,1/2+y,1/2+z
1/2+x,1/2-y,1/2+z
loop_
_atom_site_type_symbol
_atom_site_label
_atom_site_fract_x
_atom_site_fract_y
_atom_site_fract_z
Si Si1 0.950212 0.302295 0.289402
Si Si2 0.331315 0.058068 0.210074
Si Si3 0.500000 0.000000 0.250000
Si Si4 0.229687 0.942139 0.712795
Si Si5 0.860761 0.750277 0.789033
Si Si6 0.931460 0.585902 0.782354
Si Si7 0.227374 0.695578 0.197336
Si Si8 0.316714 0.351004 0.197997
O O1 0.944150 0.304827 0.500000
O O2 0.908913 0.268896 0.219911
O O3 0.947787 0.359451 0.228677
O O4 0.000000 0.281821 0.250000
O O5 0.280950 0.071161 0.279279
O O6 0.378309 0.082616 0.269845
O O7 0.336799 0.000000 0.250000
O O8 0.329730 0.065976 0.000000
O O9 0.538043 0.957807 0.301931
O O10 0.230032 0.937204 0.500000
O O11 0.190525 0.905044 0.781985
O O12 0.222094 0.000000 0.750000
O O13 0.823497 0.706938 0.758629
O O14 0.842934 0.803807 0.719156
O O15 0.862995 0.756352 0.000000
O O16 0.935143 0.579765 0.000000
O O17 0.250000 0.750000 0.192306
O O18 0.263578 0.665881 0.310947
O O19 0.226957 0.675431 0.000000
O O20 0.335055 0.357277 0.000000
#
# Coordination Sequence:
#
# PCOD9496633 Si02
#       8
#    16  16   4  16  16  16  16  16
#     4  10  21  36  51  68  91 119 151 196 246 291
#     4   9  17  30  44  60  82 113 147 185 225 266
#     4  12  18  32  48  58  80 112 154 196 240 280
#     4   9  18  30  47  67  95 124 153 187 225 271
#     4   9  18  32  51  69  90 121 158 194 237 289
#     4  10  20  31  45  62  83 111 147 192 240 279
#     4   9  17  28  43  67  96 122 152 194 237 274
#     4   9  17  30  48  70  93 125 161 191 226 282
#
# _framework density 19.35108
#
# number of rings (size 3 to 8) (size 9 to 14) (size 15 to 20)
#    0.000    2.621    1.379    0.621    1.931    2.759 
#    0.000    0.690    0.000    0.000    0.000    0.000 
#    0.000    0.552    0.000    6.897    0.000    0.000 
#
# Total GULP energy -322898.440856 kJ/mol
# GULP energy per Si atom -5567.214498 kJ/mol
# Density = 1.930704 g / cm^3
# Si number density = 19.351080 Si / 1000 Ang^3
#
#
#
# Elastic Constant Matrix: (Units=GPa)
#
#
# Indices 1 2 3 4 5 6 
#
# 1 112.8085 61.2828 2.1016 0.0000 0.0000 0.0000
# 2 61.2828 94.0445 12.2026 0.0000 0.0000 0.0000
# 3 2.1016 12.2026 52.8104 0.0000 0.0000 0.0000
# 4 0.0000 0.0000 0.0000 10.4143 0.0000 0.0000
# 5 0.0000 0.0000 0.0000 0.0000 8.2706 0.0000
# 6 0.0000 0.0000 0.0000 0.0000 0.0000 29.7190
#
#
#
# Elastic Compliance Matrix: (Units=1/GPa)
#
#
# Indices 1 2 3 4 5 6 
#
# 1 0.013849 -0.009230 0.001582 0.000000 0.000000 0.000000
# 2 -0.009230 0.017113 -0.003587 0.000000 0.000000 0.000000
# 3 0.001582 -0.003587 0.019702 0.000000 0.000000 0.000000
# 4 0.000000 0.000000 0.000000 0.096022 0.000000 0.000000
# 5 0.000000 0.000000 0.000000 0.000000 0.120910 0.000000
# 6 0.000000 0.000000 0.000000 0.000000 0.000000 0.033648
#
#
# Mechanical properties :
#
#
# Convention : Reuss Voigt Hill
#
# Bulk Modulus (GPa) = 35.46924 45.64861 40.55892
# Shear Modulus (GPa) = 15.00993 21.95254 18.48124
#
# Velocity S-wave (km/s) = 2.78810 3.37179 3.09374
# Velocity P-wave (km/s) = 5.36039 6.22893 5.81091
#
# Compressibility (1/GPa) = 0.02819344
#
# Stress axis : x y z
#
# Youngs Moduli (GPa) = 72.20636 58.43447 50.75745
#
# Poissons Ratio (x) = 0.53934 -0.08028
# Poissons Ratio (y) = 0.66645 0.18206
# Poissons Ratio (z) = -0.11420 0.20960
#
# Static dielectric constant tensor:
#      x y z
#    x 1.684310 0.000000 0.000000 
#    y 0.000000 1.726970 0.000000 
#    z 0.000000 0.000000 1.766180 
# 
# From -- ./inp_files/9614.got.cif
#   From: 2010.05.17/outbox.cif.g08.bks.cpg/sg66_5_cif.got.tgz:9614.got - 2010.06.03 17:51:23.
