data_PCOD9496818
_publ_section_title
;
Structure prediction by ZEFSAII (Michael W. Deem and Ramdas Pophale) SiO2 
 PCOD9496818
Probable space group: C C C M
;
_chemical_formula_sum "Si O2"
_cell_formula_units_Z 96
_cell_length_a 28.037307
_cell_length_b 21.802113
_cell_length_c 8.935949
_cell_angle_alpha 90.000000
_cell_angle_beta 90.000000
_cell_angle_gamma 90.000000
_cell_volume 5462.300202
_symmetry_space_group_name_H-M "C C C M"
_symmetry_group_IT_number 66
_symmetry_cell_setting 'orthorhombic'
loop_
_space_group_symop_operation_xyz
x,y,z
-x,-y,z
x,-y,1/2-z
-x,y,1/2-z
-x,-y,-z
x,y,-z
-x,y,1/2+z
x,-y,1/2+z
1/2+x,1/2+y,z
1/2-x,1/2-y,z
1/2+x,1/2-y,1/2-z
1/2-x,1/2+y,1/2-z
1/2-x,1/2-y,-z
1/2+x,1/2+y,-z
1/2-x,1/2+y,1/2+z
1/2+x,1/2-y,1/2+z
loop_
_atom_site_type_symbol
_atom_site_label
_atom_site_fract_x
_atom_site_fract_y
_atom_site_fract_z
Si Si1 0.109289 0.063342 0.326260
Si Si2 0.947268 0.697357 0.320414
Si Si3 0.284104 0.692978 0.180627
Si Si4 0.446877 0.060852 0.321075
Si Si5 0.388263 0.691807 0.321206
Si Si6 0.725617 0.561276 0.671221
O O1 0.095257 0.065833 0.500000
O O2 0.094875 0.125474 0.241477
O O3 0.167495 0.061863 0.322160
O O4 0.092939 0.000000 0.250000
O O5 0.949953 0.704378 0.500000
O O6 0.926355 0.628807 0.290424
O O7 0.917630 0.752288 0.248807
O O8 0.000000 0.699175 0.250000
O O9 0.250000 0.750000 0.207109
O O10 0.333980 0.699427 0.264706
O O11 0.260655 0.628371 0.229590
O O12 0.293164 0.688629 0.000000
O O13 0.500000 0.063165 0.250000
O O14 0.450293 0.053398 0.500000
O O15 0.423512 0.000000 0.250000
O O16 0.390850 0.692037 0.500000
O O17 0.742614 0.500000 0.750000
O O18 0.740321 0.557397 0.500000
#
# Coordination Sequence:
#
# PCOD9496818 Si02
#       6
#    16  16  16  16  16  16
#     4   9  16  28  46  69  96 125 160 202 244 286
#     4  10  20  34  51  73 100 131 165 202 245 292
#     4   9  18  33  51  70  95 128 164 202 245 291
#     4   9  16  26  44  68  94 122 155 197 241 284
#     4  11  21  32  49  74 102 132 165 203 246 293
#     4   8  14  24  41  65  90 117 150 191 236 280
#
# _framework density 17.575012999999998
#
# number of rings (size 3 to 8) (size 9 to 14) (size 15 to 20)
#    0.000    2.667    0.000    4.500    0.000    6.333 
#    0.000    0.000    0.000    1.500    0.000    5.833 
#    0.000    0.000    0.000    0.000    0.000    0.000 
#
# Total GULP energy -267342.973342 kJ/mol
# GULP energy per Si atom -5569.645278 kJ/mol
# Density = 1.753501 g / cm^3
# Si number density = 17.575013 Si / 1000 Ang^3
#
#
#
# Elastic Constant Matrix: (Units=GPa)
#
#
# Indices 1 2 3 4 5 6 
#
# 1 17.7172 47.2420 26.0789 0.0000 0.0000 0.0000
# 2 47.2420 230.5550 96.6011 0.0000 0.0000 0.0000
# 3 26.0789 96.6011 112.1823 0.0000 0.0000 0.0000
# 4 0.0000 0.0000 0.0000 33.3710 0.0000 0.0000
# 5 0.0000 0.0000 0.0000 0.0000 14.4521 0.0000
# 6 0.0000 0.0000 0.0000 0.0000 0.0000 24.4688
#
#
#
# Elastic Compliance Matrix: (Units=1/GPa)
#
#
# Indices 1 2 3 4 5 6 
#
# 1 0.133579 -0.022466 -0.011708 0.000000 0.000000 0.000000
# 2 -0.022466 0.010564 -0.003874 0.000000 0.000000 0.000000
# 3 -0.011708 -0.003874 0.014972 0.000000 0.000000 0.000000
# 4 0.000000 0.000000 0.000000 0.029966 0.000000 0.000000
# 5 0.000000 0.000000 0.000000 0.000000 0.069194 0.000000
# 6 0.000000 0.000000 0.000000 0.000000 0.000000 0.040868
#
#
# Mechanical properties :
#
#
# Convention : Reuss Voigt Hill
#
# Bulk Modulus (GPa) = 12.04531 77.81096 44.92813
# Shear Modulus (GPa) = 12.40967 27.16053 19.78510
#
# Velocity S-wave (km/s) = 2.66013 3.93543 3.35886
# Velocity P-wave (km/s) = 4.03777 8.06349 6.37666
#
# Compressibility (1/GPa) = 0.08301990
#
# Stress axis : x y z
#
# Youngs Moduli (GPa) = 7.48620 94.66171 66.79234
#
# Poissons Ratio (x) = 2.12664 0.78198
# Poissons Ratio (y) = 0.16818 0.25876
# Poissons Ratio (z) = 0.08765 0.36673
#
# Static dielectric constant tensor:
#      x y z
#    x 1.579910 0.000000 0.000000 
#    y 0.000000 1.652500 0.000000 
#    z 0.000000 0.000000 1.590840 
# 
# From -- ./inp_files/10277.got.cif
#   From: 2010.05.17/outbox.cif.g08.bks.cpg/sg66_6_cif.got.tgz:10277.got - 2010.06.03 17:51:23.
