data_PCOD9496577
_publ_section_title
;
Structure prediction by ZEFSAII (Michael W. Deem and Ramdas Pophale) SiO2 
 PCOD9496577
Probable space group: C C C M
;
_chemical_formula_sum "Si O2"
_cell_formula_units_Z 72
_cell_length_a 14.683367
_cell_length_b 19.306077
_cell_length_c 13.966266
_cell_angle_alpha 90.000000
_cell_angle_beta 90.000000
_cell_angle_gamma 90.000000
_cell_volume 3959.132141
_symmetry_space_group_name_H-M "C C C M"
_symmetry_group_IT_number 66
_symmetry_cell_setting 'orthorhombic'
loop_
_space_group_symop_operation_xyz
x,y,z
-x,-y,z
x,-y,1/2-z
-x,y,1/2-z
-x,-y,-z
x,y,-z
-x,y,1/2+z
x,-y,1/2+z
1/2+x,1/2+y,z
1/2-x,1/2-y,z
1/2+x,1/2-y,1/2-z
1/2-x,1/2+y,1/2-z
1/2-x,1/2-y,-z
1/2+x,1/2+y,-z
1/2-x,1/2+y,1/2+z
1/2+x,1/2-y,1/2+z
loop_
_atom_site_type_symbol
_atom_site_label
_atom_site_fract_x
_atom_site_fract_y
_atom_site_fract_z
Si Si1 0.836076 0.833050 0.500000
Si Si2 0.961194 0.228020 0.500000
Si Si3 0.249494 0.520174 0.000000
Si Si4 0.598040 0.021755 0.641715
Si Si5 0.352504 0.182377 0.150355
Si Si6 0.704843 0.360922 0.500000
Si Si7 0.750000 0.250000 0.174509
O O1 0.818605 0.915885 0.500000
O O2 0.790601 0.805513 0.400985
O O3 0.935656 0.797467 0.500000
O O4 0.925468 0.271345 0.407747
O O5 0.898304 0.160864 0.500000
O O6 0.179658 0.517426 0.911254
O O7 0.291177 0.443370 0.000000
O O8 0.608980 0.104468 0.643452
O O9 0.500000 0.000000 0.602401
O O10 0.601164 0.000000 0.750000
O O11 0.323403 0.213712 0.253254
O O12 0.258779 0.172363 0.089697
#
# Coordination Sequence:
#
# PCOD9496577 Si02
#       7
#     8   8   8  16  16   8   8
#     4  11  27  35  52  90 129 159 178 234 312 364
#     4  11  21  39  61  93 108 143 214 248 283 337
#     4  10  21  40  55  78 123 158 184 234 304 352
#     4  10  21  34  58  87 112 150 197 239 284 349
#     4  10  19  38  66  84 111 154 200 246 286 338
#     4   9  18  38  67  87 100 150 211 257 271 331
#     4  11  22  41  58  82 122 159 190 233 300 356
#
# _framework density 18.185804000000001
#
# number of rings (size 3 to 8) (size 9 to 14) (size 15 to 20)
#    0.000    1.778    2.222    3.000    0.000    8.444 
#    0.000    0.000    0.000    0.000    5.778    0.000 
#    0.000    0.000    0.000    0.000    0.000    0.000 
#
# Total GULP energy -200525.342751 kJ/mol
# GULP energy per Si atom -5570.148410 kJ/mol
# Density = 1.814441 g / cm^3
# Si number density = 18.185804 Si / 1000 Ang^3
#
#
#
# Elastic Constant Matrix: (Units=GPa)
#
#
# Indices 1 2 3 4 5 6 
#
# 1 84.0522 62.6547 41.2452 0.0000 0.0000 0.0000
# 2 62.6547 123.1593 43.3771 0.0000 0.0000 0.0000
# 3 41.2452 43.3771 132.5651 0.0000 0.0000 0.0000
# 4 0.0000 0.0000 0.0000 -4.2942 0.0000 0.0000
# 5 0.0000 0.0000 0.0000 0.0000 29.4870 0.0000
# 6 0.0000 0.0000 0.0000 0.0000 0.0000 37.5812
#
#
#
# Elastic Compliance Matrix: (Units=1/GPa)
#
#
# Indices 1 2 3 4 5 6 
#
# 1 0.020391 -0.009199 -0.003334 0.000000 0.000000 0.000000
# 2 -0.009199 0.013327 -0.001499 0.000000 0.000000 0.000000
# 3 -0.003334 -0.001499 0.009071 0.000000 0.000000 0.000000
# 4 0.000000 0.000000 0.000000 -0.232872 0.000000 0.000000
# 5 0.000000 0.000000 0.000000 0.000000 0.033913 0.000000
# 6 0.000000 0.000000 0.000000 0.000000 0.000000 0.026609
#
#
# Mechanical properties :
#
#
# Convention : Reuss Voigt Hill
#
# Bulk Modulus (GPa) = 67.91027 70.48118 69.19573
# Shear Modulus (GPa) = -51.76620 25.38811 -13.18904
#
# Velocity S-wave (km/s) = -5.34106 3.74042 -2.69595
# Velocity P-wave (km/s) = 0.78258 7.58252 5.33302
#
# Compressibility (1/GPa) = 0.01472531
#
# Stress axis : x y z
#
# Youngs Moduli (GPa) = 49.04215 75.03430 110.23868
#
# Poissons Ratio (x) = 0.69024 0.36755
# Poissons Ratio (y) = 0.45114 0.16522
# Poissons Ratio (z) = 0.16351 0.11246
#
# Static dielectric constant tensor:
#      x y z
#    x 1.641650 0.000000 0.000000 
#    y 0.000000 1.691300 0.000000 
#    z 0.000000 0.000000 1.645560 
# 
# From -- ./inp_files/28021.got.cif
#   From: 2010.05.17/outbox.cif.g08.bks.cpg/sg66_15_cif.got.tgz:28021.got - 2010.06.03 17:51:23.
