data_PCOD9496726
_publ_section_title
;
Structure prediction by ZEFSAII (Michael W. Deem and Ramdas Pophale) SiO2 
 PCOD9496726
Probable space group: C C C M
;
_chemical_formula_sum "Si O2"
_cell_formula_units_Z 80
_cell_length_a 18.013627
_cell_length_b 28.452173
_cell_length_c 8.995362
_cell_angle_alpha 90.000000
_cell_angle_beta 90.000000
_cell_angle_gamma 90.000000
_cell_volume 4610.364386
_symmetry_space_group_name_H-M "C C C M"
_symmetry_group_IT_number 66
_symmetry_cell_setting 'orthorhombic'
loop_
_space_group_symop_operation_xyz
x,y,z
-x,-y,z
x,-y,1/2-z
-x,y,1/2-z
-x,-y,-z
x,y,-z
-x,y,1/2+z
x,-y,1/2+z
1/2+x,1/2+y,z
1/2-x,1/2-y,z
1/2+x,1/2-y,1/2-z
1/2-x,1/2+y,1/2-z
1/2-x,1/2-y,-z
1/2+x,1/2+y,-z
1/2-x,1/2+y,1/2+z
1/2+x,1/2-y,1/2+z
loop_
_atom_site_type_symbol
_atom_site_label
_atom_site_fract_x
_atom_site_fract_y
_atom_site_fract_z
Si Si1 0.071856 0.448152 0.823034
Si Si2 0.815292 0.710907 0.830805
Si Si3 0.792941 0.859280 0.323307
Si Si4 0.740043 0.051351 0.676947
Si Si5 0.079724 0.783035 0.177691
O O1 0.073806 0.500000 0.750000
O O2 0.155234 0.430662 0.794868
O O3 0.000000 0.423647 0.750000
O O4 0.061017 0.451376 0.000000
O O5 0.750000 0.750000 0.838214
O O6 0.777898 0.668947 0.740188
O O7 0.882691 0.736741 0.748914
O O8 0.834082 0.697015 0.000000
O O9 0.786570 0.864487 0.500000
O O10 0.793969 0.909840 0.245854
O O11 0.864465 0.826605 0.291489
O O12 0.749039 0.047416 0.500000
O O13 0.748276 0.000000 0.750000
O O14 0.000000 0.791083 0.250000
O O15 0.074384 0.777845 0.000000
#
# Coordination Sequence:
#
# PCOD9496726 Si02
#       5
#    16  16  16  16  16
#     4   9  16  26  42  63  87 117 154 197 243 290
#     4   9  17  31  52  76 102 132 165 203 250 304
#     4  10  20  34  53  77 105 137 174 215 259 308
#     4  10  20  33  50  73 101 136 179 222 264 310
#     4  10  20  34  54  80 108 137 170 210 258 313
#
# _framework density 17.352208999999998
#
# number of rings (size 3 to 8) (size 9 to 14) (size 15 to 20)
#    0.000    2.400    0.000    3.600    0.000    7.200 
#    0.000    1.000    0.000    3.000    0.000    4.200 
#    0.000    0.000    0.000    0.000    0.000    0.000 
#
# Total GULP energy -222954.585924 kJ/mol
# GULP energy per Si atom -5573.864648 kJ/mol
# Density = 1.731271 g / cm^3
# Si number density = 17.352209 Si / 1000 Ang^3
#
#
#
# Elastic Constant Matrix: (Units=GPa)
#
#
# Indices 1 2 3 4 5 6 
#
# 1 98.0321 47.6457 66.9193 0.0000 0.0000 0.0000
# 2 47.6457 84.2457 48.8925 0.0000 0.0000 0.0000
# 3 66.9193 48.8925 102.1859 0.0000 0.0000 0.0000
# 4 0.0000 0.0000 0.0000 25.1881 0.0000 0.0000
# 5 0.0000 0.0000 0.0000 0.0000 28.0597 0.0000
# 6 0.0000 0.0000 0.0000 0.0000 0.0000 15.2822
#
#
#
# Elastic Compliance Matrix: (Units=1/GPa)
#
#
# Indices 1 2 3 4 5 6 
#
# 1 0.019922 -0.005116 -0.010599 0.000000 0.000000 0.000000
# 2 -0.005116 0.017747 -0.005141 0.000000 0.000000 0.000000
# 3 -0.010599 -0.005141 0.019187 0.000000 0.000000 0.000000
# 4 0.000000 0.000000 0.000000 0.039701 0.000000 0.000000
# 5 0.000000 0.000000 0.000000 0.000000 0.035638 0.000000
# 6 0.000000 0.000000 0.000000 0.000000 0.000000 0.065436
#
#
# Mechanical properties :
#
#
# Convention : Reuss Voigt Hill
#
# Bulk Modulus (GPa) = 66.03082 67.93098 66.98090
# Shear Modulus (GPa) = 20.45900 21.77308 21.11604
#
# Velocity S-wave (km/s) = 3.43744 3.54612 3.49221
# Velocity P-wave (km/s) = 7.34102 7.48331 7.41251
#
# Compressibility (1/GPa) = 0.01514444
#
# Stress axis : x y z
#
# Youngs Moduli (GPa) = 50.19509 56.34734 52.11922
#
# Poissons Ratio (x) = 0.28828 0.55240
# Poissons Ratio (y) = 0.25680 0.26794
# Poissons Ratio (z) = 0.53201 0.28968
#
# Static dielectric constant tensor:
#      x y z
#    x 1.607810 0.000000 0.000000 
#    y 0.000000 1.585260 0.000000 
#    z 0.000000 0.000000 1.580010 
# 
# From -- ./inp_files/6711.got.cif
#   From: 2010.05.17/outbox.cif.g08.bks.cpg/sg66_4_cif.got.tgz:6711.got - 2010.06.03 17:51:23.
