data_PCOD9496416
_publ_section_title
;
Structure prediction by ZEFSAII (Michael W. Deem and Ramdas Pophale) SiO2 
 PCOD9496416
Probable space group: C C C M
;
_chemical_formula_sum "Si O2"
_cell_formula_units_Z 112
_cell_length_a 26.274469
_cell_length_b 12.267476
_cell_length_c 14.673236
_cell_angle_alpha 90.000000
_cell_angle_beta 90.000000
_cell_angle_gamma 90.000000
_cell_volume 4729.498232
_symmetry_space_group_name_H-M "C C C M"
_symmetry_group_IT_number 66
_symmetry_cell_setting 'orthorhombic'
loop_
_space_group_symop_operation_xyz
x,y,z
-x,-y,z
x,-y,1/2-z
-x,y,1/2-z
-x,-y,-z
x,y,-z
-x,y,1/2+z
x,-y,1/2+z
1/2+x,1/2+y,z
1/2-x,1/2-y,z
1/2+x,1/2-y,1/2-z
1/2-x,1/2+y,1/2-z
1/2-x,1/2-y,-z
1/2+x,1/2+y,-z
1/2-x,1/2+y,1/2+z
1/2+x,1/2-y,1/2+z
loop_
_atom_site_type_symbol
_atom_site_label
_atom_site_fract_x
_atom_site_fract_y
_atom_site_fract_z
Si Si1 0.225885 0.629273 0.101321
Si Si2 0.129713 0.655866 0.211661
Si Si3 0.023331 0.606559 0.851163
Si Si4 0.093610 0.130984 0.605846
Si Si5 0.317484 0.474028 0.143407
Si Si6 0.876273 0.767913 0.892002
Si Si7 0.514254 0.657403 0.102198
O O1 0.250000 0.750000 0.115333
O O2 0.183142 0.613257 0.176613
O O3 0.268582 0.535977 0.104292
O O4 0.202453 0.631286 0.000000
O O5 0.082879 0.592238 0.166951
O O6 0.119460 0.776331 0.167901
O O7 0.127733 0.669376 0.320379
O O8 0.000000 0.500000 0.894941
O O9 0.000000 0.618131 0.750000
O O10 0.007150 0.717945 0.898350
O O11 0.089024 0.167316 0.500000
O O12 0.036749 0.100564 0.640994
O O13 0.132202 0.031980 0.605586
O O14 0.315993 0.500000 0.250000
O O15 0.327954 0.347477 0.123260
O O16 0.928841 0.829157 0.860808
O O17 0.880859 0.742006 0.000000
O O18 0.521521 0.615272 0.000000
#
# Coordination Sequence:
#
# PCOD9496416 Si02
#       7
#    16  16  16  16  16  16  16
#     4  11  22  40  67  96 126 166 223 285 334 378
#     4  11  21  39  66  94 127 170 217 266 334 393
#     4  10  20  37  63  94 125 164 211 269 325 382
#     4  10  19  35  61  93 129 169 216 265 318 383
#     4  12  23  40  61  95 132 175 218 270 326 387
#     4  11  22  39  62  93 135 178 216 262 326 402
#     4   9  20  36  58  90 131 174 212 258 324 394
#
# _framework density 23.681159999999998
#
# number of rings (size 3 to 8) (size 9 to 14) (size 15 to 20)
#    0.000    1.429    4.286    1.714    0.000    1.429 
#    2.571    2.857    0.000    7.714    0.000    0.000 
#    0.000    0.000    0.000    0.000    0.000    0.000 
#
# Total GULP energy -312932.345064 kJ/mol
# GULP energy per Si atom -5588.077590 kJ/mol
# Density = 2.362726 g / cm^3
# Si number density = 23.681160 Si / 1000 Ang^3
#
#
#
# Elastic Constant Matrix: (Units=GPa)
#
#
# Indices 1 2 3 4 5 6 
#
# 1 143.4099 29.8269 29.2848 0.0000 0.0000 0.0000
# 2 29.8269 60.1029 10.6247 0.0000 0.0000 0.0000
# 3 29.2848 10.6247 126.6881 0.0000 0.0000 0.0000
# 4 0.0000 0.0000 0.0000 27.4905 0.0000 0.0000
# 5 0.0000 0.0000 0.0000 0.0000 -4.8728 0.0000
# 6 0.0000 0.0000 0.0000 0.0000 0.0000 30.4313
#
#
#
# Elastic Compliance Matrix: (Units=1/GPa)
#
#
# Indices 1 2 3 4 5 6 
#
# 1 0.008065 -0.003728 -0.001552 0.000000 0.000000 0.000000
# 2 -0.003728 0.018612 -0.000699 0.000000 0.000000 0.000000
# 3 -0.001552 -0.000699 0.008311 0.000000 0.000000 0.000000
# 4 0.000000 0.000000 0.000000 0.036376 0.000000 0.000000
# 5 0.000000 0.000000 0.000000 0.000000 -0.205222 0.000000
# 6 0.000000 0.000000 0.000000 0.000000 0.000000 0.032861
#
#
# Mechanical properties :
#
#
# Convention : Reuss Voigt Hill
#
# Bulk Modulus (GPa) = 43.42175 52.18598 47.80387
# Shear Modulus (GPa) = -61.45352 27.97410 -16.73971
#
# Velocity S-wave (km/s) = -5.09968 3.44071 -2.66160
# Velocity P-wave (km/s) = 4.03730 6.15381 3.28402
#
# Compressibility (1/GPa) = 0.02302993
#
# Stress axis : x y z
#
# Youngs Moduli (GPa) = 123.98817 53.72910 120.32664
#
# Poissons Ratio (x) = 0.20031 0.18671
# Poissons Ratio (y) = 0.46225 0.08412
# Poissons Ratio (z) = 0.19239 0.03756
#
# Static dielectric constant tensor:
#      x y z
#    x 1.904430 0.000000 0.000000 
#    y 0.000000 2.017760 0.000000 
#    z 0.000000 0.000000 1.918090 
# 
# From -- ./inp_files/32449.got.cif
#   From: 2010.05.17/outbox.cif.g08.bks.cpg/sg66_17_cif.got.tgz:32449.got - 2010.06.03 17:51:23.
