data_PCOD9496702
_publ_section_title
;
Structure prediction by ZEFSAII (Michael W. Deem and Ramdas Pophale) SiO2 
 PCOD9496702
Probable space group: C C C M
;
_chemical_formula_sum "Si O2"
_cell_formula_units_Z 72
_cell_length_a 14.974504
_cell_length_b 10.983504
_cell_length_c 17.187018
_cell_angle_alpha 90.000000
_cell_angle_beta 90.000000
_cell_angle_gamma 90.000000
_cell_volume 2826.792240
_symmetry_space_group_name_H-M "C C C M"
_symmetry_group_IT_number 66
_symmetry_cell_setting 'orthorhombic'
loop_
_space_group_symop_operation_xyz
x,y,z
-x,-y,z
x,-y,1/2-z
-x,y,1/2-z
-x,-y,-z
x,y,-z
-x,y,1/2+z
x,-y,1/2+z
1/2+x,1/2+y,z
1/2-x,1/2-y,z
1/2+x,1/2-y,1/2-z
1/2-x,1/2+y,1/2-z
1/2-x,1/2-y,-z
1/2+x,1/2+y,-z
1/2-x,1/2+y,1/2+z
1/2+x,1/2-y,1/2+z
loop_
_atom_site_type_symbol
_atom_site_label
_atom_site_fract_x
_atom_site_fract_y
_atom_site_fract_z
Si Si1 0.758958 0.500000 0.250000
Si Si2 0.500000 0.705109 0.250000
Si Si3 0.855379 0.040939 0.500000
Si Si4 0.500000 0.500000 0.128866
Si Si5 0.250000 0.250000 0.653133
Si Si6 0.641441 0.722975 0.500000
Si Si7 0.069051 0.274597 0.000000
Si Si8 0.917265 0.407896 0.340139
O O1 0.725487 0.631047 0.290532
O O2 0.821932 0.461612 0.321342
O O3 0.477402 0.614895 0.180983
O O4 0.425665 0.796193 0.280294
O O5 0.915834 0.030042 0.423021
O O6 0.844710 0.184954 0.500000
O O7 0.808927 0.910659 0.500000
O O8 0.329120 0.226528 0.586272
O O9 0.532482 0.715870 0.500000
O O10 0.074531 0.356367 0.074951
O O11 0.000000 0.500000 0.329681
#
# Coordination Sequence:
#
# PCOD9496702 Si02
#       8
#     8   8   8   8   8   8   8  16
#     4  12  27  50  68 100 141 180 260 286 344 422
#     4  11  19  34  58 104 133 173 204 274 376 406
#     4  11  19  36  61 100 138 168 213 280 345 421
#     4  10  20  32  56 102 142 168 206 256 378 424
#     4  11  30  50  72  97 136 212 240 285 336 414
#     4  11  23  46  72  97 151 185 239 274 350 452
#     4  12  23  40  69 114 137 176 218 292 380 422
#     4  12  23  40  70 102 138 171 222 304 367 410
#
# _framework density 25.470566000000002
#
# number of rings (size 3 to 8) (size 9 to 14) (size 15 to 20)
#    0.000    0.667    6.667    1.667    3.111    3.556 
#    0.000    0.000    0.000    4.667    0.000    0.000 
#    0.000    0.000    0.000    0.000    0.000    0.000 
#
# Total GULP energy -200508.382689 kJ/mol
# GULP energy per Si atom -5569.677297 kJ/mol
# Density = 2.541259 g / cm^3
# Si number density = 25.470566 Si / 1000 Ang^3
#
#
#
# Elastic Constant Matrix: (Units=GPa)
#
#
# Indices 1 2 3 4 5 6 
#
# 1 50.7714 32.3445 9.8787 0.0000 0.0000 0.0000
# 2 32.3445 162.5432 76.1170 0.0000 0.0000 0.0000
# 3 9.8787 76.1170 136.5388 0.0000 0.0000 0.0000
# 4 0.0000 0.0000 0.0000 63.9810 0.0000 0.0000
# 5 0.0000 0.0000 0.0000 0.0000 47.6291 0.0000
# 6 0.0000 0.0000 0.0000 0.0000 0.0000 31.3424
#
#
#
# Elastic Compliance Matrix: (Units=1/GPa)
#
#
# Indices 1 2 3 4 5 6 
#
# 1 0.022696 -0.005071 0.001185 0.000000 0.000000 0.000000
# 2 -0.005071 0.009459 -0.004906 0.000000 0.000000 0.000000
# 3 0.001185 -0.004906 0.009973 0.000000 0.000000 0.000000
# 4 0.000000 0.000000 0.000000 0.015630 0.000000 0.000000
# 5 0.000000 0.000000 0.000000 0.000000 0.020996 0.000000
# 6 0.000000 0.000000 0.000000 0.000000 0.000000 0.031906
#
#
# Mechanical properties :
#
#
# Convention : Reuss Voigt Hill
#
# Bulk Modulus (GPa) = 40.74394 65.17042 52.95718
# Shear Modulus (GPa) = 36.65013 44.02472 40.33742
#
# Velocity S-wave (km/s) = 3.79743 4.16198 3.98387
# Velocity P-wave (km/s) = 5.93788 6.98128 6.48061
#
# Compressibility (1/GPa) = 0.02454353
#
# Stress axis : x y z
#
# Youngs Moduli (GPa) = 44.06015 105.72122 100.26816
#
# Poissons Ratio (x) = 0.53614 -0.11882
# Poissons Ratio (y) = 0.22344 0.49193
# Poissons Ratio (z) = -0.05221 0.51869
#
# Static dielectric constant tensor:
#      x y z
#    x 2.071550 0.000000 0.000000 
#    y 0.000000 2.121960 0.000000 
#    z 0.000000 0.000000 1.968740 
# 
# From -- ./inp_files/42682.got.cif
#   From: 2010.05.17/outbox.cif.g08.bks.cpg/sg66_22_cif.got.tgz:42682.got - 2010.06.03 17:51:23.
