data_PCOD9496013
_publ_section_title
;
Structure prediction by ZEFSAII (Michael W. Deem and Ramdas Pophale) SiO2 
 PCOD9496013
Probable space group: C C C M
;
_chemical_formula_sum "Si O2"
_cell_formula_units_Z 112
_cell_length_a 11.517274
_cell_length_b 21.568632
_cell_length_c 22.664081
_cell_angle_alpha 90.000000
_cell_angle_beta 90.000000
_cell_angle_gamma 90.000000
_cell_volume 5630.026166
_symmetry_space_group_name_H-M "C C C M"
_symmetry_group_IT_number 66
_symmetry_cell_setting 'orthorhombic'
loop_
_space_group_symop_operation_xyz
x,y,z
-x,-y,z
x,-y,1/2-z
-x,y,1/2-z
-x,-y,-z
x,y,-z
-x,y,1/2+z
x,-y,1/2+z
1/2+x,1/2+y,z
1/2-x,1/2-y,z
1/2+x,1/2-y,1/2-z
1/2-x,1/2+y,1/2-z
1/2-x,1/2-y,-z
1/2+x,1/2+y,-z
1/2-x,1/2+y,1/2+z
1/2+x,1/2-y,1/2+z
loop_
_atom_site_type_symbol
_atom_site_label
_atom_site_fract_x
_atom_site_fract_y
_atom_site_fract_z
Si Si1 0.632127 0.024970 0.065072
Si Si2 0.542654 0.852109 0.382565
Si Si3 0.290113 0.090360 0.870283
Si Si4 0.139473 0.926748 0.744504
Si Si5 0.744491 0.317307 0.179473
Si Si6 0.670495 0.305404 0.568546
Si Si7 0.581524 0.282252 0.069489
O O1 0.615699 0.095075 0.084223
O O2 0.500000 0.000000 0.062327
O O3 0.696227 0.980895 0.110931
O O4 0.684256 0.019739 0.000000
O O5 0.418468 0.879501 0.363802
O O6 0.621099 0.834584 0.327415
O O7 0.545659 0.790244 0.422225
O O8 0.203069 0.095095 0.815621
O O9 0.237243 0.130870 0.922977
O O10 0.184110 0.876233 0.791516
O O11 0.000000 0.924494 0.750000
O O12 0.171963 0.000000 0.750000
O O13 0.750000 0.250000 0.210995
O O14 0.679984 0.303093 0.116206
O O15 0.655380 0.289635 0.500000
O O16 0.750000 0.250000 0.595251
O O17 0.539139 0.313606 0.590020
O O18 0.610112 0.293790 0.000000
#
# Coordination Sequence:
#
# PCOD9496013 Si02
#       7
#    16  16  16  16  16  16  16
#     4   9  18  31  52  86 125 158 192 242 304 379
#     4  10  20  35  57  88 125 158 200 246 314 389
#     4  11  21  36  60  87 116 161 209 256 318 378
#     4  11  25  46  67  85 116 168 221 274 327 382
#     4  10  23  42  58  89 124 157 209 266 314 384
#     4  10  19  32  54  85 120 152 193 251 304 369
#     4  10  20  36  60  89 127 168 204 250 317 386
#
# _framework density 19.893335
#
# number of rings (size 3 to 8) (size 9 to 14) (size 15 to 20)
#    0.000    1.857    1.429    2.571    0.000    5.429 
#    5.143    0.714    0.000    0.000    0.000    9.000 
#    0.000    0.000    0.000    0.000    0.000    0.000 
#
# Total GULP energy -311815.011594 kJ/mol
# GULP energy per Si atom -5568.125207 kJ/mol
# Density = 1.984806 g / cm^3
# Si number density = 19.893335 Si / 1000 Ang^3
#
#
#
# Elastic Constant Matrix: (Units=GPa)
#
#
# Indices 1 2 3 4 5 6 
#
# 1 98.0701 27.5793 24.4932 0.0000 0.0000 0.0000
# 2 27.5793 107.9027 26.1916 0.0000 0.0000 0.0000
# 3 24.4932 26.1916 62.6523 0.0000 0.0000 0.0000
# 4 0.0000 0.0000 0.0000 14.7906 0.0000 0.0000
# 5 0.0000 0.0000 0.0000 0.0000 8.2523 0.0000
# 6 0.0000 0.0000 0.0000 0.0000 0.0000 30.9472
#
#
#
# Elastic Compliance Matrix: (Units=1/GPa)
#
#
# Indices 1 2 3 4 5 6 
#
# 1 0.011710 -0.002094 -0.003703 0.000000 0.000000 0.000000
# 2 -0.002094 0.010689 -0.003650 0.000000 0.000000 0.000000
# 3 -0.003703 -0.003650 0.018934 0.000000 0.000000 0.000000
# 4 0.000000 0.000000 0.000000 0.067611 0.000000 0.000000
# 5 0.000000 0.000000 0.000000 0.000000 0.121179 0.000000
# 6 0.000000 0.000000 0.000000 0.000000 0.000000 0.032313
#
#
# Mechanical properties :
#
#
# Convention : Reuss Voigt Hill
#
# Bulk Modulus (GPa) = 44.56239 47.23926 45.90082
# Shear Modulus (GPa) = 17.31246 23.48874 20.40060
#
# Velocity S-wave (km/s) = 2.95322 3.43991 3.20582
# Velocity P-wave (km/s) = 5.83764 6.29088 6.06849
#
# Compressibility (1/GPa) = 0.02244045
#
# Stress axis : x y z
#
# Youngs Moduli (GPa) = 85.39348 93.55578 52.81427
#
# Poissons Ratio (x) = 0.19594 0.19555
# Poissons Ratio (y) = 0.17885 0.19275
# Poissons Ratio (z) = 0.31617 0.34144
#
# Static dielectric constant tensor:
#      x y z
#    x 1.747370 0.000000 0.000000 
#    y 0.000000 1.822840 0.000000 
#    z 0.000000 0.000000 1.718440 
# 
# From -- ./inp_files/57144.got.cif
#   From: 2010.05.17/outbox.cif.g08.bks.cpg/sg66_29_cif.got.tgz:57144.got - 2010.06.03 17:51:23.
