data_PCOD9496861
_publ_section_title
;
Structure prediction by ZEFSAII (Michael W. Deem and Ramdas Pophale) SiO2 
 PCOD9496861
Probable space group: C C C M
;
_chemical_formula_sum "Si O2"
_cell_formula_units_Z 64
_cell_length_a 8.452495
_cell_length_b 16.355234
_cell_length_c 24.664933
_cell_angle_alpha 90.000000
_cell_angle_beta 90.000000
_cell_angle_gamma 90.000000
_cell_volume 3409.742829
_symmetry_space_group_name_H-M "C C C M"
_symmetry_group_IT_number 66
_symmetry_cell_setting 'orthorhombic'
loop_
_space_group_symop_operation_xyz
x,y,z
-x,-y,z
x,-y,1/2-z
-x,y,1/2-z
-x,-y,-z
x,y,-z
-x,y,1/2+z
x,-y,1/2+z
1/2+x,1/2+y,z
1/2-x,1/2-y,z
1/2+x,1/2-y,1/2-z
1/2-x,1/2+y,1/2-z
1/2-x,1/2-y,-z
1/2+x,1/2+y,-z
1/2-x,1/2+y,1/2+z
1/2+x,1/2-y,1/2+z
loop_
_atom_site_type_symbol
_atom_site_label
_atom_site_fract_x
_atom_site_fract_y
_atom_site_fract_z
Si Si1 0.928210 0.592174 0.000000
Si Si2 0.436694 0.235841 0.810913
Si Si3 0.865441 0.827230 0.599918
Si Si4 0.448570 0.093346 0.615357
Si Si5 0.049538 0.904698 0.500000
O O1 0.739445 0.596230 0.000000
O O2 0.000000 0.500000 0.000000
O O3 0.990761 0.627178 0.056827
O O4 0.500000 0.240963 0.750000
O O5 0.250000 0.250000 0.812465
O O6 0.529290 0.299510 0.849395
O O7 0.479451 0.148605 0.837503
O O8 0.750000 0.750000 0.586113
O O9 0.740321 0.897659 0.614970
O O10 0.975054 0.858626 0.551642
O O11 0.500000 0.000000 0.620131
O O12 0.000000 0.000000 0.500000
#
# Coordination Sequence:
#
# PCOD9496861 Si02
#       5
#     8  16  16  16   8
#     4  10  20  34  53  85 121 153 185 234 295 345
#     4  11  23  41  61  84 115 156 199 242 291 348
#     4  10  22  39  60  88 120 156 194 239 293 352
#     4  10  20  38  61  86 119 155 193 242 292 343
#     4  12  21  34  60  91 121 155 196 242 288 347
#
# _framework density 18.769743999999999
#
# number of rings (size 3 to 8) (size 9 to 14) (size 15 to 20)
#    0.000    1.500    0.000    7.875    0.000    3.500 
#    0.000    6.250    0.000    5.250    0.000    0.000 
#    0.000    0.000    0.000    0.000    0.000    0.000 
#
# Total GULP energy -178750.543348 kJ/mol
# GULP energy per Si atom -5585.954480 kJ/mol
# Density = 1.872702 g / cm^3
# Si number density = 18.769744 Si / 1000 Ang^3
#
#
#
# Elastic Constant Matrix: (Units=GPa)
#
#
# Indices 1 2 3 4 5 6 
#
# 1 202.4835 59.8758 95.2396 0.0000 0.0000 0.0000
# 2 59.8758 75.5322 73.1313 0.0000 0.0000 0.0000
# 3 95.2396 73.1313 193.5228 0.0000 0.0000 0.0000
# 4 0.0000 0.0000 0.0000 7.7191 0.0000 0.0000
# 5 0.0000 0.0000 0.0000 0.0000 38.8468 0.0000
# 6 0.0000 0.0000 0.0000 0.0000 0.0000 37.0816
#
#
#
# Elastic Compliance Matrix: (Units=1/GPa)
#
#
# Indices 1 2 3 4 5 6 
#
# 1 0.006959 -0.003470 -0.002113 0.000000 0.000000 0.000000
# 2 -0.003470 0.022609 -0.006836 0.000000 0.000000 0.000000
# 3 -0.002113 -0.006836 0.008791 0.000000 0.000000 0.000000
# 4 0.000000 0.000000 0.000000 0.129549 0.000000 0.000000
# 5 0.000000 0.000000 0.000000 0.000000 0.025742 0.000000
# 6 0.000000 0.000000 0.000000 0.000000 0.000000 0.026968
#
#
# Mechanical properties :
#
#
# Convention : Reuss Voigt Hill
#
# Bulk Modulus (GPa) = 73.96772 103.11463 88.54118
# Shear Modulus (GPa) = 20.00298 32.94896 26.47597
#
# Velocity S-wave (km/s) = 3.26805 4.19433 3.75983
# Velocity P-wave (km/s) = 7.33033 8.86072 8.13161
#
# Compressibility (1/GPa) = 0.01351941
#
# Stress axis : x y z
#
# Youngs Moduli (GPa) = 143.70136 44.23009 113.75700
#
# Poissons Ratio (x) = 0.15349 0.24040
# Poissons Ratio (y) = 0.49869 0.77764
# Poissons Ratio (z) = 0.30369 0.30236
#
# Static dielectric constant tensor:
#      x y z
#    x 1.639720 0.000000 0.000000 
#    y 0.000000 1.668740 0.000000 
#    z 0.000000 0.000000 1.638320 
# 
# From -- ./inp_files/46656.got.cif
#   From: 2010.05.17/outbox.cif.g08.bks.cpg/sg66_24_cif.got.tgz:46656.got - 2010.06.03 17:51:23.
