data_PCOD9496719
_publ_section_title
;
Structure prediction by ZEFSAII (Michael W. Deem and Ramdas Pophale) SiO2 
 PCOD9496719
Probable space group: C C C M
;
_chemical_formula_sum "Si O2"
_cell_formula_units_Z 96
_cell_length_a 30.549472
_cell_length_b 17.145508
_cell_length_c 8.107725
_cell_angle_alpha 90.000000
_cell_angle_beta 90.000000
_cell_angle_gamma 90.000000
_cell_volume 4246.714603
_symmetry_space_group_name_H-M "C C C M"
_symmetry_group_IT_number 66
_symmetry_cell_setting 'orthorhombic'
loop_
_space_group_symop_operation_xyz
x,y,z
-x,-y,z
x,-y,1/2-z
-x,y,1/2-z
-x,-y,-z
x,y,-z
-x,y,1/2+z
x,-y,1/2+z
1/2+x,1/2+y,z
1/2-x,1/2-y,z
1/2+x,1/2-y,1/2-z
1/2-x,1/2+y,1/2-z
1/2-x,1/2-y,-z
1/2+x,1/2+y,-z
1/2-x,1/2+y,1/2+z
1/2+x,1/2-y,1/2+z
loop_
_atom_site_type_symbol
_atom_site_label
_atom_site_fract_x
_atom_site_fract_y
_atom_site_fract_z
Si Si1 0.736020 0.915843 0.695188
Si Si2 0.952136 0.367624 0.698508
Si Si3 0.126476 0.912075 0.698540
Si Si4 0.302548 0.293832 0.198655
Si Si5 0.645681 0.861580 0.197925
Si Si6 0.045913 0.187537 0.802062
O O1 0.737772 0.913226 0.500000
O O2 0.754946 0.831018 0.756421
O O3 0.686040 0.916258 0.757915
O O4 0.755776 0.000000 0.750000
O O5 0.952311 0.372474 0.500000
O O6 0.902622 0.390262 0.756121
O O7 0.952734 0.276950 0.754796
O O8 0.000000 0.401266 0.750000
O O9 0.126388 0.907622 0.500000
O O10 0.169997 0.869673 0.755141
O O11 0.085611 0.862821 0.762099
O O12 0.123755 0.000000 0.750000
O O13 0.334372 0.222652 0.256983
O O14 0.301524 0.286183 0.000000
O O15 0.641572 0.854599 0.000000
O O16 0.000000 0.152217 0.750000
O O17 0.048568 0.190688 0.000000
#
# Coordination Sequence:
#
# PCOD9496719 Si02
#       6
#    16  16  16  16  16  16
#     4  12  26  42  60  86 119 153 192 240 293 349
#     4   9  17  32  56  85 116 150 188 233 284 340
#     4  10  20  33  49  71 103 144 190 235 280 332
#     4  10  20  38  61  84 114 153 194 236 285 341
#     4  10  20  38  64  90 118 156 195 235 288 346
#     4   9  17  31  48  69  99 138 184 231 279 332
#
# _framework density 22.605709999999998
#
# number of rings (size 3 to 8) (size 9 to 14) (size 15 to 20)
#    0.000    2.000    1.667    2.500    0.000    6.333 
#    0.000    1.667    0.000    0.500    0.000    3.500 
#    0.000    0.000    0.000    0.000    0.000    0.000 
#
# Total GULP energy -267320.282136 kJ/mol
# GULP energy per Si atom -5569.172545 kJ/mol
# Density = 2.255426 g / cm^3
# Si number density = 22.605710 Si / 1000 Ang^3
#
#
#
# Elastic Constant Matrix: (Units=GPa)
#
#
# Indices 1 2 3 4 5 6 
#
# 1 35.0257 20.1749 73.1790 0.0000 0.0000 0.0000
# 2 20.1749 63.9140 -23.4525 0.0000 0.0000 0.0000
# 3 73.1790 -23.4525 -30.7957 0.0000 0.0000 0.0000
# 4 0.0000 0.0000 0.0000 20.7703 0.0000 0.0000
# 5 0.0000 0.0000 0.0000 0.0000 40.9837 0.0000
# 6 0.0000 0.0000 0.0000 0.0000 0.0000 22.8606
#
#
#
# Elastic Compliance Matrix: (Units=1/GPa)
#
#
# Indices 1 2 3 4 5 6 
#
# 1 0.005169 0.002247 0.010571 0.000000 0.000000 0.000000
# 2 0.002247 0.013206 -0.004716 0.000000 0.000000 0.000000
# 3 0.010571 -0.004716 -0.003760 0.000000 0.000000 0.000000
# 4 0.000000 0.000000 0.000000 0.048146 0.000000 0.000000
# 5 0.000000 0.000000 0.000000 0.000000 0.024400 0.000000
# 6 0.000000 0.000000 0.000000 0.000000 0.000000 0.043743
#
#
# Mechanical properties :
#
#
# Convention : Reuss Voigt Hill
#
# Bulk Modulus (GPa) = 32.44615 23.10522 27.77569
# Shear Modulus (GPa) = 40.00865 16.80577 28.40721
#
# Velocity S-wave (km/s) = 4.21152 2.72955 3.54876
# Velocity P-wave (km/s) = 6.16712 4.49189 5.39493
#
# Compressibility (1/GPa) = 0.03082029
#
# Stress axis : x y z
#
# Youngs Moduli (GPa) = 193.46029 75.72345 -265.99065
#
# Poissons Ratio (x) = -0.17018 2.81191
# Poissons Ratio (y) = -0.43479 -1.25454
# Poissons Ratio (z) = -2.04516 0.35715
#
# Static dielectric constant tensor:
#      x y z
#    x 0.860110 0.000000 0.000000 
#    y 0.000000 1.852500 0.000000 
#    z 0.000000 0.000000 1.795350 
# 
# From -- ./inp_files/10262.got.cif
#   From: 2010.05.17/outbox.cif.g08.bks.cpg/sg66_6_cif.got.tgz:10262.got - 2010.06.03 17:51:23.
