data_PCOD9496604
_publ_section_title
;
Structure prediction by ZEFSAII (Michael W. Deem and Ramdas Pophale) SiO2 
 PCOD9496604
Probable space group: C C C M
;
_chemical_formula_sum "Si O2"
_cell_formula_units_Z 72
_cell_length_a 13.132766
_cell_length_b 15.918575
_cell_length_c 17.752605
_cell_angle_alpha 90.000000
_cell_angle_beta 90.000000
_cell_angle_gamma 90.000000
_cell_volume 3711.269427
_symmetry_space_group_name_H-M "C C C M"
_symmetry_group_IT_number 66
_symmetry_cell_setting 'orthorhombic'
loop_
_space_group_symop_operation_xyz
x,y,z
-x,-y,z
x,-y,1/2-z
-x,y,1/2-z
-x,-y,-z
x,y,-z
-x,y,1/2+z
x,-y,1/2+z
1/2+x,1/2+y,z
1/2-x,1/2-y,z
1/2+x,1/2-y,1/2-z
1/2-x,1/2+y,1/2-z
1/2-x,1/2-y,-z
1/2+x,1/2+y,-z
1/2-x,1/2+y,1/2+z
1/2+x,1/2-y,1/2+z
loop_
_atom_site_type_symbol
_atom_site_label
_atom_site_fract_x
_atom_site_fract_y
_atom_site_fract_z
Si Si1 0.436777 0.740808 0.413487
Si Si2 0.750000 0.750000 0.190877
Si Si3 0.335522 0.675771 0.087956
Si Si4 0.785029 0.411510 0.206107
Si Si5 0.457810 0.092688 0.582506
O O1 0.414624 0.717109 0.500000
O O2 0.344754 0.718924 0.359397
O O3 0.550318 0.707764 0.394730
O O4 0.451578 0.841266 0.409306
O O5 0.782838 0.669637 0.239999
O O6 0.250000 0.750000 0.096758
O O7 0.305965 0.602981 0.146064
O O8 0.334161 0.651214 0.000000
O O9 0.781902 0.500000 0.250000
O O10 0.883577 0.404602 0.152849
O O11 0.408859 0.113756 0.500000
O O12 0.500000 0.000000 0.578584
#
# Coordination Sequence:
#
# PCOD9496604 Si02
#       5
#    16   8  16  16  16
#     4  10  21  39  64  86 117 166 211 257 305 369
#     4  12  25  40  57  90 134 166 202 250 323 382
#     4  10  19  40  68  89 114 158 217 259 296 358
#     4  12  24  38  60  95 129 164 198 260 322 376
#     4  10  20  37  62  91 120 155 205 265 321 374
#
# _framework density 19.400371
#
# number of rings (size 3 to 8) (size 9 to 14) (size 15 to 20)
#    0.000    1.333    3.333    2.333    0.000    5.778 
#    0.000    5.556    0.000    2.667    0.000    0.000 
#    0.000    0.000    0.000    0.000    0.000    0.000 
#
# Total GULP energy -200910.410972 kJ/mol
# GULP energy per Si atom -5580.844749 kJ/mol
# Density = 1.935621 g / cm^3
# Si number density = 19.400371 Si / 1000 Ang^3
#
#
#
# Elastic Constant Matrix: (Units=GPa)
#
#
# Indices 1 2 3 4 5 6 
#
# 1 96.9062 8.1581 71.7221 0.0000 0.0000 0.0000
# 2 8.1581 62.6638 52.9687 0.0000 0.0000 0.0000
# 3 71.7221 52.9687 141.3014 0.0000 0.0000 0.0000
# 4 0.0000 0.0000 0.0000 40.8810 0.0000 0.0000
# 5 0.0000 0.0000 0.0000 0.0000 297.6790 0.0000
# 6 0.0000 0.0000 0.0000 0.0000 0.0000 18.4996
#
#
#
# Elastic Compliance Matrix: (Units=1/GPa)
#
#
# Indices 1 2 3 4 5 6 
#
# 1 0.019117 0.008364 -0.012839 0.000000 0.000000 0.000000
# 2 0.008364 0.027019 -0.014374 0.000000 0.000000 0.000000
# 3 -0.012839 -0.014374 0.018982 0.000000 0.000000 0.000000
# 4 0.000000 0.000000 0.000000 0.024461 0.000000 0.000000
# 5 0.000000 0.000000 0.000000 0.000000 0.003359 0.000000
# 6 0.000000 0.000000 0.000000 0.000000 0.000000 0.054055
#
#
# Mechanical properties :
#
#
# Convention : Reuss Voigt Hill
#
# Bulk Modulus (GPa) = 36.46872 62.95212 49.71042
# Shear Modulus (GPa) = 25.79542 82.61343 54.20442
#
# Velocity S-wave (km/s) = 3.65037 6.53268 5.29155
# Velocity P-wave (km/s) = 6.05027 9.45624 7.93808
#
# Compressibility (1/GPa) = 0.02742076
#
# Stress axis : x y z
#
# Youngs Moduli (GPa) = 52.30811 37.01063 52.68122
#
# Poissons Ratio (x) = -0.30954 0.67637
# Poissons Ratio (y) = -0.43749 0.75723
# Poissons Ratio (z) = 0.67158 0.53198
#
# Static dielectric constant tensor:
#      x y z
#    x 1.692530 0.000000 0.000000 
#    y 0.000000 1.687530 0.000000 
#    z 0.000000 0.000000 1.720660 
# 
# From -- ./inp_files/27966.got.cif
#   From: 2010.05.17/outbox.cif.g08.bks.cpg/sg66_14_cif.got.tgz:27966.got - 2010.06.03 17:51:23.
