data_PCOD9496180
_publ_section_title
;
Structure prediction by ZEFSAII (Michael W. Deem and Ramdas Pophale) SiO2 
 PCOD9496180
Probable space group: C C C M
;
_chemical_formula_sum "Si O2"
_cell_formula_units_Z 96
_cell_length_a 10.789275
_cell_length_b 23.696606
_cell_length_c 19.077014
_cell_angle_alpha 90.000000
_cell_angle_beta 90.000000
_cell_angle_gamma 90.000000
_cell_volume 4877.404883
_symmetry_space_group_name_H-M "C C C M"
_symmetry_group_IT_number 66
_symmetry_cell_setting 'orthorhombic'
loop_
_space_group_symop_operation_xyz
x,y,z
-x,-y,z
x,-y,1/2-z
-x,y,1/2-z
-x,-y,-z
x,y,-z
-x,y,1/2+z
x,-y,1/2+z
1/2+x,1/2+y,z
1/2-x,1/2-y,z
1/2+x,1/2-y,1/2-z
1/2-x,1/2+y,1/2-z
1/2-x,1/2-y,-z
1/2+x,1/2+y,-z
1/2-x,1/2+y,1/2+z
1/2+x,1/2-y,1/2+z
loop_
_atom_site_type_symbol
_atom_site_label
_atom_site_fract_x
_atom_site_fract_y
_atom_site_fract_z
Si Si1 0.619194 0.188265 0.781381
Si Si2 0.014227 0.336584 0.420538
Si Si3 0.136907 0.014912 0.083899
Si Si4 0.281008 0.645372 0.419298
Si Si5 0.628836 0.314497 0.723440
Si Si6 0.613093 0.963094 0.583365
O O1 0.500000 0.156009 0.750000
O O2 0.584578 0.199050 0.861841
O O3 0.624351 0.248381 0.742604
O O4 0.750862 0.161053 0.763728
O O5 0.031593 0.316379 0.500000
O O6 0.866566 0.344568 0.409315
O O7 0.075606 0.398232 0.412720
O O8 0.179555 0.080060 0.091020
O O9 0.251674 0.978043 0.112445
O O10 0.129483 0.004015 0.000000
O O11 0.000000 0.000000 0.112251
O O12 0.309973 0.660834 0.500000
O O13 0.351179 0.679317 0.359209
O O14 0.500000 0.339907 0.750000
O O15 0.619346 0.977698 0.500000
O O16 0.500000 0.000000 0.613283
#
# Coordination Sequence:
#
# PCOD9496180 Si02
#       6
#    16  16  16  16  16  16
#     4  10  20  39  60  81 113 154 195 235 303 365
#     4  10  19  33  61  93 115 147 203 254 283 336
#     4   9  17  29  50  83 123 156 183 232 299 350
#     4  10  19  35  61  91 115 149 205 251 282 341
#     4  10  22  39  59  82 115 158 195 236 308 370
#     4   9  15  27  49  82 119 150 183 234 292 338
#
# _framework density 19.682599
#
# number of rings (size 3 to 8) (size 9 to 14) (size 15 to 20)
#    0.000    2.333    3.333    0.000    0.000    1.333 
#    0.000    9.167    0.000    6.000    0.000    0.000 
#    0.000    0.000    0.000    0.000    0.000    0.000 
#
# Total GULP energy -267380.446558 kJ/mol
# GULP energy per Si atom -5570.425970 kJ/mol
# Density = 1.963780 g / cm^3
# Si number density = 19.682599 Si / 1000 Ang^3
#
#
#
# Elastic Constant Matrix: (Units=GPa)
#
#
# Indices 1 2 3 4 5 6 
#
# 1 171.1299 28.2094 59.6734 0.0000 0.0000 0.0000
# 2 28.2094 16.2444 28.8946 0.0000 0.0000 0.0000
# 3 59.6734 28.8946 121.7412 0.0000 0.0000 0.0000
# 4 0.0000 0.0000 0.0000 -53.4780 0.0000 0.0000
# 5 0.0000 0.0000 0.0000 0.0000 -114.9691 0.0000
# 6 0.0000 0.0000 0.0000 0.0000 0.0000 14.3805
#
#
#
# Elastic Compliance Matrix: (Units=1/GPa)
#
#
# Indices 1 2 3 4 5 6 
#
# 1 0.008274 -0.012382 -0.001117 0.000000 0.000000 0.000000
# 2 -0.012382 0.125065 -0.023615 0.000000 0.000000 0.000000
# 3 -0.001117 -0.023615 0.014366 0.000000 0.000000 0.000000
# 4 0.000000 0.000000 0.000000 -0.018699 0.000000 0.000000
# 5 0.000000 0.000000 0.000000 0.000000 -0.008698 0.000000
# 6 0.000000 0.000000 0.000000 0.000000 0.000000 0.069538
#
#
# Mechanical properties :
#
#
# Convention : Reuss Voigt Hill
#
# Bulk Modulus (GPa) = 13.60921 60.29670 36.95295
# Shear Modulus (GPa) = 17.32705 -17.99077 -0.33186
#
# Velocity S-wave (km/s) = 2.97024 -3.02660 -0.41106
# Velocity P-wave (km/s) = 4.32348 4.29969 4.31160
#
# Compressibility (1/GPa) = 0.07347966
#
# Stress axis : x y z
#
# Youngs Moduli (GPa) = 120.86059 7.99582 69.60684
#
# Poissons Ratio (x) = 0.09900 0.07775
# Poissons Ratio (y) = 1.49644 1.64373
# Poissons Ratio (z) = 0.13499 0.18882
#
# Static dielectric constant tensor:
#      x y z
#    x 1.789900 0.000000 0.000000 
#    y 0.000000 1.756950 0.000000 
#    z 0.000000 0.000000 1.720060 
# 
# From -- ./inp_files/38890.got.cif
#   From: 2010.05.17/outbox.cif.g08.bks.cpg/sg66_20_cif.got.tgz:38890.got - 2010.06.03 17:51:23.
