data_PCOD9496364
_publ_section_title
;
Structure prediction by ZEFSAII (Michael W. Deem and Ramdas Pophale) SiO2 
 PCOD9496364
Probable space group: C C C M
;
_chemical_formula_sum "Si O2"
_cell_formula_units_Z 112
_cell_length_a 14.463125
_cell_length_b 22.929016
_cell_length_c 19.363973
_cell_angle_alpha 90.000000
_cell_angle_beta 90.000000
_cell_angle_gamma 90.000000
_cell_volume 6421.581894
_symmetry_space_group_name_H-M "C C C M"
_symmetry_group_IT_number 66
_symmetry_cell_setting 'orthorhombic'
loop_
_space_group_symop_operation_xyz
x,y,z
-x,-y,z
x,-y,1/2-z
-x,y,1/2-z
-x,-y,-z
x,y,-z
-x,y,1/2+z
x,-y,1/2+z
1/2+x,1/2+y,z
1/2-x,1/2-y,z
1/2+x,1/2-y,1/2-z
1/2-x,1/2+y,1/2-z
1/2-x,1/2-y,-z
1/2+x,1/2+y,-z
1/2-x,1/2+y,1/2+z
1/2+x,1/2-y,1/2+z
loop_
_atom_site_type_symbol
_atom_site_label
_atom_site_fract_x
_atom_site_fract_y
_atom_site_fract_z
Si Si1 0.092466 0.128755 0.081487
Si Si2 0.602879 0.976158 0.172597
Si Si3 0.605126 0.150642 0.725818
Si Si4 0.733199 0.316696 0.179923
Si Si5 0.721188 0.520703 0.917676
Si Si6 0.406420 0.718921 0.703058
Si Si7 0.879692 0.902053 0.580758
O O1 0.169880 0.081039 0.101940
O O2 0.091538 0.183599 0.132384
O O3 0.989676 0.102321 0.089559
O O4 0.104892 0.142790 0.000000
O O5 0.614123 0.906317 0.179282
O O6 0.683251 0.993284 0.120364
O O7 0.500000 0.000000 0.154134
O O8 0.620211 0.000000 0.250000
O O9 0.500000 0.148022 0.750000
O O10 0.673070 0.153255 0.792213
O O11 0.616894 0.213375 0.690147
O O12 0.750000 0.250000 0.154312
O O13 0.671285 0.308509 0.248125
O O14 0.676692 0.355836 0.126476
O O15 0.653179 0.467060 0.902324
O O16 0.735752 0.523125 0.000000
O O17 0.500000 0.716230 0.750000
O O18 0.859497 0.891011 0.500000
#
# Coordination Sequence:
#
# PCOD9496364 Si02
#       7
#    16  16  16  16  16  16  16
#     4  10  20  37  59  84 116 148 181 224 280 343
#     4  11  21  37  58  82 107 143 193 239 277 324
#     4  10  20  35  56  79 110 145 181 228 284 325
#     4  10  20  34  57  82 112 148 187 233 281 338
#     4  10  22  38  57  79 111 152 185 226 284 338
#     4  10  19  35  57  84 111 145 184 225 276 336
#     4  10  20  35  56  83 113 148 184 225 282 344
#
# _framework density 17.441185999999998
#
# number of rings (size 3 to 8) (size 9 to 14) (size 15 to 20)
#    0.000    1.857    2.857    2.143    0.000    2.286 
#    0.000    0.714    0.000    5.571    0.000    0.000 
#    0.000    0.000    0.000    0.000    0.000    0.000 
#
# Total GULP energy -312185.039631 kJ/mol
# GULP energy per Si atom -5574.732851 kJ/mol
# Density = 1.740149 g / cm^3
# Si number density = 17.441186 Si / 1000 Ang^3
#
#
#
# Elastic Constant Matrix: (Units=GPa)
#
#
# Indices 1 2 3 4 5 6 
#
# 1 86.4436 21.8781 28.4301 0.0000 0.0000 0.0000
# 2 21.8781 86.0792 45.6446 0.0000 0.0000 0.0000
# 3 28.4301 45.6446 45.4553 0.0000 0.0000 0.0000
# 4 0.0000 0.0000 0.0000 8.7611 0.0000 0.0000
# 5 0.0000 0.0000 0.0000 0.0000 31.8974 0.0000
# 6 0.0000 0.0000 0.0000 0.0000 0.0000 18.3939
#
#
#
# Elastic Compliance Matrix: (Units=1/GPa)
#
#
# Indices 1 2 3 4 5 6 
#
# 1 0.014802 0.002453 -0.011722 0.000000 0.000000 0.000000
# 2 0.002453 0.025255 -0.026894 0.000000 0.000000 0.000000
# 3 -0.011722 -0.026894 0.056338 0.000000 0.000000 0.000000
# 4 0.000000 0.000000 0.000000 0.114141 0.000000 0.000000
# 5 0.000000 0.000000 0.000000 0.000000 0.031351 0.000000
# 6 0.000000 0.000000 0.000000 0.000000 0.000000 0.054366
#
#
# Mechanical properties :
#
#
# Convention : Reuss Voigt Hill
#
# Bulk Modulus (GPa) = 41.54720 45.54261 43.54490
# Shear Modulus (GPa) = 13.27666 19.94550 16.61108
#
# Velocity S-wave (km/s) = 2.76202 3.38536 3.08945
# Velocity P-wave (km/s) = 5.83479 6.43815 6.14388
#
# Compressibility (1/GPa) = 0.02406901
#
# Stress axis : x y z
#
# Youngs Moduli (GPa) = 67.55633 39.59649 17.75014
#
# Poissons Ratio (x) = -0.09715 0.20807
# Poissons Ratio (y) = -0.16575 0.47738
# Poissons Ratio (z) = 0.79189 1.06493
#
# Static dielectric constant tensor:
#      x y z
#    x 1.624650 0.000000 0.000000 
#    y 0.000000 1.626520 0.000000 
#    z 0.000000 0.000000 1.564500 
# 
# From -- ./inp_files/28696.got.cif
#   From: 2010.05.17/outbox.cif.g08.bks.cpg/sg66_15_cif.got.tgz:28696.got - 2010.06.03 17:51:23.
