data_PCOD9496825
_publ_section_title
;
Structure prediction by ZEFSAII (Michael W. Deem and Ramdas Pophale) SiO2 
 PCOD9496825
Probable space group: C C C M
;
_chemical_formula_sum "Si O2"
_cell_formula_units_Z 112
_cell_length_a 17.593540
_cell_length_b 24.116260
_cell_length_c 14.118681
_cell_angle_alpha 90.000000
_cell_angle_beta 90.000000
_cell_angle_gamma 90.000000
_cell_volume 5990.420597
_symmetry_space_group_name_H-M "C C C M"
_symmetry_group_IT_number 66
_symmetry_cell_setting 'orthorhombic'
loop_
_space_group_symop_operation_xyz
x,y,z
-x,-y,z
x,-y,1/2-z
-x,y,1/2-z
-x,-y,-z
x,y,-z
-x,y,1/2+z
x,-y,1/2+z
1/2+x,1/2+y,z
1/2-x,1/2-y,z
1/2+x,1/2-y,1/2-z
1/2-x,1/2+y,1/2-z
1/2-x,1/2-y,-z
1/2+x,1/2+y,-z
1/2-x,1/2+y,1/2+z
1/2+x,1/2-y,1/2+z
loop_
_atom_site_type_symbol
_atom_site_label
_atom_site_fract_x
_atom_site_fract_y
_atom_site_fract_z
Si Si1 0.230165 0.026846 0.887595
Si Si2 0.622789 0.160381 0.613780
Si Si3 0.878263 0.441354 0.731310
Si Si4 0.915583 0.228386 0.721024
Si Si5 0.737974 0.906998 0.386851
Si Si6 0.805036 0.854689 0.887241
Si Si7 0.681505 0.292726 0.104870
O O1 0.308637 0.038020 0.834751
O O2 0.180748 0.080508 0.862345
O O3 0.212021 0.962727 0.868154
O O4 0.242590 0.031259 0.000000
O O5 0.613154 0.157320 0.500000
O O6 0.586523 0.107904 0.669121
O O7 0.588660 0.215834 0.659025
O O8 0.715260 0.158958 0.632415
O O9 0.918993 0.500000 0.750000
O O10 0.838146 0.414825 0.824456
O O11 0.864191 0.184025 0.665432
O O12 0.874718 0.234564 0.821580
O O13 0.000000 0.211044 0.750000
O O14 0.721573 0.904639 0.500000
O O15 0.783869 0.851641 0.361911
O O16 0.814109 0.847334 0.000000
O O17 0.750000 0.250000 0.097441
O O18 0.648093 0.301358 0.000000
#
# Coordination Sequence:
#
# PCOD9496825 Si02
#       7
#    16  16  16  16  16  16  16
#     4   8  14  25  45  75 104 129 164 215 272 318
#     4  10  20  36  59  84 107 134 174 221 265 311
#     4   9  15  25  47  79 110 133 157 203 260 313
#     4  12  24  35  50  73 104 141 175 216 267 318
#     4   9  16  26  44  72 105 137 168 210 264 318
#     4   9  17  32  56  81 103 131 172 222 270 315
#     4  10  20  34  52  72  98 135 177 218 259 311
#
# _framework density 18.696515999999999
#
# number of rings (size 3 to 8) (size 9 to 14) (size 15 to 20)
#    0.000    2.429    0.000    5.571    0.000    2.857 
#    0.000    0.000    0.000    2.143    0.000    5.000 
#    0.000    0.000    0.000    0.000    0.000    0.000 
#
# Total GULP energy -311854.837283 kJ/mol
# GULP energy per Si atom -5568.836380 kJ/mol
# Density = 1.865396 g / cm^3
# Si number density = 18.696516 Si / 1000 Ang^3
#
#
#
# Elastic Constant Matrix: (Units=GPa)
#
#
# Indices 1 2 3 4 5 6 
#
# 1 28.3715 -10.2898 5.3711 0.0000 0.0000 0.0000
# 2 -10.2898 88.8505 10.7093 0.0000 0.0000 0.0000
# 3 5.3711 10.7093 58.2092 0.0000 0.0000 0.0000
# 4 0.0000 0.0000 0.0000 35.5945 0.0000 0.0000
# 5 0.0000 0.0000 0.0000 0.0000 -2.0256 0.0000
# 6 0.0000 0.0000 0.0000 0.0000 0.0000 -8.7510
#
#
#
# Elastic Compliance Matrix: (Units=1/GPa)
#
#
# Indices 1 2 3 4 5 6 
#
# 1 0.037862 0.004915 -0.004398 0.000000 0.000000 0.000000
# 2 0.004915 0.012148 -0.002689 0.000000 0.000000 0.000000
# 3 -0.004398 -0.002689 0.018080 0.000000 0.000000 0.000000
# 4 0.000000 0.000000 0.000000 0.028094 0.000000 0.000000
# 5 0.000000 0.000000 0.000000 0.000000 -0.493673 0.000000
# 6 0.000000 0.000000 0.000000 0.000000 0.000000 -0.114272
#
#
# Mechanical properties :
#
#
# Convention : Reuss Voigt Hill
#
# Bulk Modulus (GPa) = 15.68708 20.77917 18.23312
# Shear Modulus (GPa) = -10.28447 16.27294 2.99424
#
# Velocity S-wave (km/s) = -2.34791 2.95341 1.26687
# Velocity P-wave (km/s) = 1.02876 4.77161 3.45156
#
# Compressibility (1/GPa) = 0.06374673
#
# Stress axis : x y z
#
# Youngs Moduli (GPa) = 26.41187 82.31738 55.31022
#
# Poissons Ratio (x) = -0.40458 0.24325
# Poissons Ratio (y) = -0.12981 0.14870
# Poissons Ratio (z) = 0.11616 0.22131
#
# Static dielectric constant tensor:
#      x y z
#    x 1.547820 0.000000 0.000000 
#    y 0.000000 1.721360 0.000000 
#    z 0.000000 0.000000 1.705580 
# 
# From -- ./inp_files/28706.got.cif
#   From: 2010.05.17/outbox.cif.g08.bks.cpg/sg66_15_cif.got.tgz:28706.got - 2010.06.03 17:51:23.
