data_PCOD9496835
_publ_section_title
;
Structure prediction by ZEFSAII (Michael W. Deem and Ramdas Pophale) SiO2 
 PCOD9496835
Probable space group: C C C M
;
_chemical_formula_sum "Si O2"
_cell_formula_units_Z 80
_cell_length_a 9.980342
_cell_length_b 16.516552
_cell_length_c 22.477329
_cell_angle_alpha 90.000000
_cell_angle_beta 90.000000
_cell_angle_gamma 90.000000
_cell_volume 3705.181740
_symmetry_space_group_name_H-M "C C C M"
_symmetry_group_IT_number 66
_symmetry_cell_setting 'orthorhombic'
loop_
_space_group_symop_operation_xyz
x,y,z
-x,-y,z
x,-y,1/2-z
-x,y,1/2-z
-x,-y,-z
x,y,-z
-x,y,1/2+z
x,-y,1/2+z
1/2+x,1/2+y,z
1/2-x,1/2-y,z
1/2+x,1/2-y,1/2-z
1/2-x,1/2+y,1/2-z
1/2-x,1/2-y,-z
1/2+x,1/2+y,-z
1/2-x,1/2+y,1/2+z
1/2+x,1/2-y,1/2+z
loop_
_atom_site_type_symbol
_atom_site_label
_atom_site_fract_x
_atom_site_fract_y
_atom_site_fract_z
Si Si1 0.530364 0.124277 0.565767
Si Si2 0.139689 0.306719 0.279656
Si Si3 0.058165 0.793816 0.102984
Si Si4 0.265758 0.916215 0.123756
Si Si5 0.328250 0.581287 0.427279
O O1 0.528055 0.090381 0.500000
O O2 0.487107 0.217830 0.564909
O O3 0.418171 0.077574 0.602542
O O4 0.682979 0.119854 0.586122
O O5 0.250000 0.250000 0.246424
O O6 0.217444 0.383160 0.308931
O O7 0.000000 0.332002 0.250000
O O8 0.087825 0.248108 0.333293
O O9 0.942604 0.860972 0.098540
O O10 0.193521 0.842513 0.088634
O O11 0.182485 0.995052 0.106004
O O12 0.344427 0.572722 0.500000
#
# Coordination Sequence:
#
# PCOD9496835 Si02
#       5
#    16  16  16  16  16
#     4  10  20  34  52  78 114 154 193 229 270 328
#     4   9  20  39  63  85 107 143 193 247 298 346
#     4  10  21  36  57  83 112 148 193 238 280 340
#     4  10  21  36  56  83 114 147 188 237 288 342
#     4  11  22  35  55  87 126 161 190 229 285 345
#
# _framework density 21.591383
#
# number of rings (size 3 to 8) (size 9 to 14) (size 15 to 20)
#    0.000    2.000    0.000    4.800    0.000   11.200 
#    0.000    0.000    0.000   38.400    0.000    0.000 
#    0.000    0.000    0.000    0.000    0.000    0.000 
#
# Total GULP energy -222893.749063 kJ/mol
# GULP energy per Si atom -5572.343727 kJ/mol
# Density = 2.154224 g / cm^3
# Si number density = 21.591383 Si / 1000 Ang^3
#
#
#
# Elastic Constant Matrix: (Units=GPa)
#
#
# Indices 1 2 3 4 5 6 
#
# 1 93.2018 42.0125 6.1360 0.0000 0.0000 0.0000
# 2 42.0125 133.2528 13.5034 0.0000 0.0000 0.0000
# 3 6.1360 13.5034 9.8484 0.0000 0.0000 0.0000
# 4 0.0000 0.0000 0.0000 20.2264 0.0000 0.0000
# 5 0.0000 0.0000 0.0000 0.0000 42.4441 0.0000
# 6 0.0000 0.0000 0.0000 0.0000 0.0000 50.2471
#
#
#
# Elastic Compliance Matrix: (Units=1/GPa)
#
#
# Indices 1 2 3 4 5 6 
#
# 1 0.012572 -0.003682 -0.002785 0.000000 0.000000 0.000000
# 2 -0.003682 0.009794 -0.011135 0.000000 0.000000 0.000000
# 3 -0.002785 -0.011135 0.118542 0.000000 0.000000 0.000000
# 4 0.000000 0.000000 0.000000 0.049440 0.000000 0.000000
# 5 0.000000 0.000000 0.000000 0.000000 0.023560 0.000000
# 6 0.000000 0.000000 0.000000 0.000000 0.000000 0.019902
#
#
# Mechanical properties :
#
#
# Convention : Reuss Voigt Hill
#
# Bulk Modulus (GPa) = 9.46030 39.95633 24.70831
# Shear Modulus (GPa) = 16.43399 34.22693 25.33046
#
# Velocity S-wave (km/s) = 2.76186 3.98579 3.42888
# Velocity P-wave (km/s) = 3.81596 6.30301 5.21006
#
# Compressibility (1/GPa) = 0.10570491
#
# Stress axis : x y z
#
# Youngs Moduli (GPa) = 79.53976 102.10726 8.43586
#
# Poissons Ratio (x) = 0.37592 0.02350
# Poissons Ratio (y) = 0.29283 0.09393
# Poissons Ratio (z) = 0.22153 1.13692
#
# Static dielectric constant tensor:
#      x y z
#    x 1.813620 0.000000 0.000000 
#    y 0.000000 1.832960 0.000000 
#    z 0.000000 0.000000 1.830390 
# 
# From -- ./inp_files/62351.got.cif
#   From: 2010.05.17/outbox.cif.g08.bks.cpg/sg66_32_cif.got.tgz:62351.got - 2010.06.03 17:51:23.
