data_PCOD9496526
_publ_section_title
;
Structure prediction by ZEFSAII (Michael W. Deem and Ramdas Pophale) SiO2 
 PCOD9496526
Probable space group: C C C M
;
_chemical_formula_sum "Si O2"
_cell_formula_units_Z 116
_cell_length_a 10.851976
_cell_length_b 15.856804
_cell_length_c 30.077290
_cell_angle_alpha 90.000000
_cell_angle_beta 90.000000
_cell_angle_gamma 90.000000
_cell_volume 5175.629575
_symmetry_space_group_name_H-M "C C C M"
_symmetry_group_IT_number 66
_symmetry_cell_setting 'orthorhombic'
loop_
_space_group_symop_operation_xyz
x,y,z
-x,-y,z
x,-y,1/2-z
-x,y,1/2-z
-x,-y,-z
x,y,-z
-x,y,1/2+z
x,-y,1/2+z
1/2+x,1/2+y,z
1/2-x,1/2-y,z
1/2+x,1/2-y,1/2-z
1/2-x,1/2+y,1/2-z
1/2-x,1/2-y,-z
1/2+x,1/2+y,-z
1/2-x,1/2+y,1/2+z
1/2+x,1/2-y,1/2+z
loop_
_atom_site_type_symbol
_atom_site_label
_atom_site_fract_x
_atom_site_fract_y
_atom_site_fract_z
Si Si1 0.080895 0.356827 0.794300
Si Si2 0.212193 0.120930 0.636456
Si Si3 0.629649 0.548724 0.549353
Si Si4 0.726679 0.883405 0.073017
Si Si5 0.983544 0.403018 0.112069
Si Si6 0.750000 0.250000 0.500000
Si Si7 0.195437 0.930847 0.668955
Si Si8 0.488983 0.673154 0.802438
O O1 0.219766 0.391512 0.791948
O O2 0.000000 0.369155 0.750000
O O3 0.028822 0.404490 0.836950
O O4 0.066170 0.259251 0.808495
O O5 0.348986 0.137142 0.617120
O O6 0.142841 0.178445 0.672861
O O7 0.133438 0.110659 0.591364
O O8 0.221182 0.028604 0.659949
O O9 0.500000 0.500000 0.550927
O O10 0.644523 0.585803 0.500000
O O11 0.736479 0.478036 0.557177
O O12 0.581595 0.860849 0.078804
O O13 0.773271 0.881742 0.123473
O O14 0.783595 0.819457 0.038754
O O15 0.000000 0.500000 0.097616
O O16 0.055430 0.907865 0.677442
O O17 0.500000 0.660866 0.750000
#
# Coordination Sequence:
#
# PCOD9496526 Si02
#       8
#    16  16  16  16  16   4  16  16
#     4  10  23  40  63  90 127 178 224 275 334 401
#     4  11  22  41  65  92 133 171 217 275 334 401
#     4  10  19  37  61  93 125 168 214 265 340 391
#     4  10  22  39  65  96 126 164 214 276 332 402
#     4  11  21  43  63  93 130 173 219 269 341 398
#     4  12  24  40  68 104 122 168 224 278 338 412
#     4  10  21  41  65  91 128 174 219 276 331 391
#     4  11  25  41  62  96 134 176 225 280 338 398
#
# _framework density 22.412734
#
# number of rings (size 3 to 8) (size 9 to 14) (size 15 to 20)
#    0.000    1.517    4.828    2.483    5.793    1.931 
#    1.241    1.034    0.000    0.000    0.000    2.897 
#    0.000    0.000    0.000    0.000    0.000    0.000 
#
# Total GULP energy -322879.131037 kJ/mol
# GULP energy per Si atom -5566.881570 kJ/mol
# Density = 2.236172 g / cm^3
# Si number density = 22.412734 Si / 1000 Ang^3
#
#
#
# Elastic Constant Matrix: (Units=GPa)
#
#
# Indices 1 2 3 4 5 6 
#
# 1 97.1624 -2.3596 21.6170 0.0000 0.0000 0.0000
# 2 -2.3596 46.3368 19.3210 0.0000 0.0000 0.0000
# 3 21.6170 19.3210 90.4244 0.0000 0.0000 0.0000
# 4 0.0000 0.0000 0.0000 20.1716 0.0000 0.0000
# 5 0.0000 0.0000 0.0000 0.0000 20.7345 0.0000
# 6 0.0000 0.0000 0.0000 0.0000 0.0000 19.7334
#
#
#
# Elastic Compliance Matrix: (Units=1/GPa)
#
#
# Indices 1 2 3 4 5 6 
#
# 1 0.011008 0.001820 -0.003021 0.000000 0.000000 0.000000
# 2 0.001820 0.023993 -0.005562 0.000000 0.000000 0.000000
# 3 -0.003021 -0.005562 0.012969 0.000000 0.000000 0.000000
# 4 0.000000 0.000000 0.000000 0.049575 0.000000 0.000000
# 5 0.000000 0.000000 0.000000 0.000000 0.048229 0.000000
# 6 0.000000 0.000000 0.000000 0.000000 0.000000 0.050675
#
#
# Mechanical properties :
#
#
# Convention : Reuss Voigt Hill
#
# Bulk Modulus (GPa) = 29.03078 34.56450 31.79764
# Shear Modulus (GPa) = 22.57786 25.15091 23.86438
#
# Velocity S-wave (km/s) = 3.17735 3.35352 3.26662
# Velocity P-wave (km/s) = 5.14214 5.51816 5.33347
#
# Compressibility (1/GPa) = 0.03444620
#
# Stress axis : x y z
#
# Youngs Moduli (GPa) = 90.84081 41.67916 77.10448
#
# Poissons Ratio (x) = -0.07586 0.23290
# Poissons Ratio (y) = -0.16533 0.42883
# Poissons Ratio (z) = 0.27439 0.23180
#
# Static dielectric constant tensor:
#      x y z
#    x 1.972430 0.000000 0.000000 
#    y 0.000000 1.882430 0.000000 
#    z 0.000000 0.000000 1.765280 
# 
# From -- ./inp_files/69188.got.cif
#   From: 2010.05.17/outbox.cif.g08.bks.cpg/sg66_35_cif.got.tgz:69188.got - 2010.06.03 17:51:23.
