data_PCOD9496208
_publ_section_title
;
Structure prediction by ZEFSAII (Michael W. Deem and Ramdas Pophale) SiO2 
 PCOD9496208
Probable space group: C C C M
;
_chemical_formula_sum "Si O2"
_cell_formula_units_Z 96
_cell_length_a 19.322585
_cell_length_b 30.223146
_cell_length_c 9.068321
_cell_angle_alpha 90.000000
_cell_angle_beta 90.000000
_cell_angle_gamma 90.000000
_cell_volume 5295.802501
_symmetry_space_group_name_H-M "C C C M"
_symmetry_group_IT_number 66
_symmetry_cell_setting 'orthorhombic'
loop_
_space_group_symop_operation_xyz
x,y,z
-x,-y,z
x,-y,1/2-z
-x,y,1/2-z
-x,-y,-z
x,y,-z
-x,y,1/2+z
x,-y,1/2+z
1/2+x,1/2+y,z
1/2-x,1/2-y,z
1/2+x,1/2-y,1/2-z
1/2-x,1/2+y,1/2-z
1/2-x,1/2-y,-z
1/2+x,1/2+y,-z
1/2-x,1/2+y,1/2+z
1/2+x,1/2-y,1/2+z
loop_
_atom_site_type_symbol
_atom_site_label
_atom_site_fract_x
_atom_site_fract_y
_atom_site_fract_z
Si Si1 0.725259 0.797987 0.321057
Si Si2 0.572049 0.826854 0.671294
Si Si3 0.709766 0.957451 0.173137
Si Si4 0.929619 0.433893 0.829156
Si Si5 0.698353 0.613411 0.324566
Si Si6 0.574470 0.546782 0.323262
O O1 0.720836 0.796767 0.500000
O O2 0.750000 0.750000 0.268800
O O3 0.646820 0.809958 0.270212
O O4 0.782821 0.835747 0.288759
O O5 0.500000 0.813530 0.750000
O O6 0.566743 0.813514 0.500000
O O7 0.575147 0.880342 0.675479
O O8 0.633410 0.952514 0.237108
O O9 0.749320 0.914496 0.226729
O O10 0.742688 0.000000 0.250000
O O11 0.710303 0.962705 0.000000
O O12 0.000000 0.446812 0.750000
O O13 0.926660 0.447545 0.000000
O O14 0.713577 0.607606 0.500000
O O15 0.625118 0.588830 0.298866
O O16 0.598020 0.500000 0.250000
O O17 0.500000 0.555708 0.250000
O O18 0.568660 0.540363 0.500000
#
# Coordination Sequence:
#
# PCOD9496208 Si02
#       6
#    16  16  16  16  16  16
#     4   9  17  33  58  84 109 143 188 231 278 334
#     4   9  17  31  54  79 106 141 181 227 268 322
#     4  12  24  36  53  78 108 146 184 226 274 327
#     4  10  19  34  53  76 107 142 183 227 269 317
#     4  10  20  37  57  81 110 144 185 233 278 330
#     4  10  20  34  56  81 112 146 183 227 275 337
#
# _framework density 18.127562999999999
#
# number of rings (size 3 to 8) (size 9 to 14) (size 15 to 20)
#    0.000    2.000    1.667    3.500    0.000    3.667 
#    0.000    2.500    0.000    2.000    0.000    0.000 
#    0.000    0.000    0.000    0.000    0.000    0.000 
#
# Total GULP energy -267631.956090 kJ/mol
# GULP energy per Si atom -5575.665752 kJ/mol
# Density = 1.808630 g / cm^3
# Si number density = 18.127563 Si / 1000 Ang^3
#
#
#
# Elastic Constant Matrix: (Units=GPa)
#
#
# Indices 1 2 3 4 5 6 
#
# 1 138.4983 61.4825 55.2917 0.0000 0.0000 0.0000
# 2 61.4825 118.3213 52.7984 0.0000 0.0000 0.0000
# 3 55.2917 52.7984 81.4848 0.0000 0.0000 0.0000
# 4 0.0000 0.0000 0.0000 21.7750 0.0000 0.0000
# 5 0.0000 0.0000 0.0000 0.0000 19.3520 0.0000
# 6 0.0000 0.0000 0.0000 0.0000 0.0000 33.3618
#
#
#
# Elastic Compliance Matrix: (Units=1/GPa)
#
#
# Indices 1 2 3 4 5 6 
#
# 1 0.010735 -0.003274 -0.005163 0.000000 0.000000 0.000000
# 2 -0.003274 0.012888 -0.006129 0.000000 0.000000 0.000000
# 3 -0.005163 -0.006129 0.019747 0.000000 0.000000 0.000000
# 4 0.000000 0.000000 0.000000 0.045924 0.000000 0.000000
# 5 0.000000 0.000000 0.000000 0.000000 0.051674 0.000000
# 6 0.000000 0.000000 0.000000 0.000000 0.000000 0.029974
#
#
# Mechanical properties :
#
#
# Convention : Reuss Voigt Hill
#
# Bulk Modulus (GPa) = 70.23640 75.27218 72.75429
# Shear Modulus (GPa) = 24.41169 26.14654 25.27912
#
# Velocity S-wave (km/s) = 3.67367 3.80197 3.73837
# Velocity P-wave (km/s) = 7.53818 7.80301 7.67174
#
# Compressibility (1/GPa) = 0.01423763
#
# Stress axis : x y z
#
# Youngs Moduli (GPa) = 93.15420 77.59201 50.64188
#
# Poissons Ratio (x) = 0.25407 0.26144
# Poissons Ratio (y) = 0.30503 0.31038
# Poissons Ratio (z) = 0.48091 0.47555
#
# Static dielectric constant tensor:
#      x y z
#    x 1.611360 0.000000 0.000000 
#    y 0.000000 1.720140 0.000000 
#    z 0.000000 0.000000 1.599050 
# 
# From -- ./inp_files/7980.got.cif
#   From: 2010.05.17/outbox.cif.g08.bks.cpg/sg66_4_cif.got.tgz:7980.got - 2010.06.03 17:51:23.
