data_PCOD9496486
_publ_section_title
;
Structure prediction by ZEFSAII (Michael W. Deem and Ramdas Pophale) SiO2 
 PCOD9496486
Probable space group: C C C M
;
_chemical_formula_sum "Si O2"
_cell_formula_units_Z 88
_cell_length_a 23.546438
_cell_length_b 12.008074
_cell_length_c 16.013933
_cell_angle_alpha 90.000000
_cell_angle_beta 90.000000
_cell_angle_gamma 90.000000
_cell_volume 4527.897438
_symmetry_space_group_name_H-M "C C C M"
_symmetry_group_IT_number 66
_symmetry_cell_setting 'orthorhombic'
loop_
_space_group_symop_operation_xyz
x,y,z
-x,-y,z
x,-y,1/2-z
-x,y,1/2-z
-x,-y,-z
x,y,-z
-x,y,1/2+z
x,-y,1/2+z
1/2+x,1/2+y,z
1/2-x,1/2-y,z
1/2+x,1/2-y,1/2-z
1/2-x,1/2+y,1/2-z
1/2-x,1/2-y,-z
1/2+x,1/2+y,-z
1/2-x,1/2+y,1/2+z
1/2+x,1/2-y,1/2+z
loop_
_atom_site_type_symbol
_atom_site_label
_atom_site_fract_x
_atom_site_fract_y
_atom_site_fract_z
Si Si1 0.889840 0.425447 0.167520
Si Si2 0.869202 0.000000 0.750000
Si Si3 0.128260 0.353787 0.094778
Si Si4 0.184116 0.758242 0.749360
Si Si5 0.944174 0.925977 0.406555
Si Si6 0.502751 0.816795 0.400781
O O1 0.886342 0.500000 0.250000
O O2 0.866948 0.512101 0.098965
O O3 0.853847 0.313768 0.185103
O O4 0.954702 0.397986 0.146455
O O5 0.833731 0.886636 0.757331
O O6 0.906488 0.977097 0.667012
O O7 0.170668 0.297935 0.159869
O O8 0.063422 0.323159 0.122929
O O9 0.135478 0.314619 0.000000
O O10 0.250000 0.750000 0.770780
O O11 0.917233 0.923803 0.500000
O O12 0.968797 0.803633 0.387221
O O13 0.000000 0.000000 0.412056
O O14 0.504665 0.841350 0.500000
#
# Coordination Sequence:
#
# PCOD9496486 Si02
#       6
#    16   8  16  16  16  16
#     4  10  21  38  60  90 124 157 204 250 308 372
#     4  12  23  42  68  88 124 173 216 258 320 370
#     4  10  22  39  64  94 127 160 198 256 316 379
#     4  11  26  42  64  87 119 164 220 267 310 365
#     4  10  21  37  60  93 131 164 202 251 307 385
#     4  10  19  36  60  92 127 157 194 244 312 384
#
# _framework density 19.435068999999999
#
# number of rings (size 3 to 8) (size 9 to 14) (size 15 to 20)
#    0.000    1.636    1.818    2.455    3.818    9.091 
#    0.000    0.000    0.000    2.727    0.000    0.000 
#    0.000    0.000    0.000    0.000    0.000    0.000 
#
# Total GULP energy -245589.478418 kJ/mol
# GULP energy per Si atom -5581.579055 kJ/mol
# Density = 1.939083 g / cm^3
# Si number density = 19.435069 Si / 1000 Ang^3
#
#
#
# Elastic Constant Matrix: (Units=GPa)
#
#
# Indices 1 2 3 4 5 6 
#
# 1 66.6459 22.2735 20.9026 0.0000 0.0000 0.0000
# 2 22.2735 115.8208 22.6503 0.0000 0.0000 0.0000
# 3 20.9026 22.6503 52.6309 0.0000 0.0000 0.0000
# 4 0.0000 0.0000 0.0000 57.4427 0.0000 0.0000
# 5 0.0000 0.0000 0.0000 0.0000 -5.9089 0.0000
# 6 0.0000 0.0000 0.0000 0.0000 0.0000 -15.8998
#
#
#
# Elastic Compliance Matrix: (Units=1/GPa)
#
#
# Indices 1 2 3 4 5 6 
#
# 1 0.017642 -0.002208 -0.006056 0.000000 0.000000 0.000000
# 2 -0.002208 0.009704 -0.003299 0.000000 0.000000 0.000000
# 3 -0.006056 -0.003299 0.022825 0.000000 0.000000 0.000000
# 4 0.000000 0.000000 0.000000 0.017409 0.000000 0.000000
# 5 0.000000 0.000000 0.000000 0.000000 -0.169235 0.000000
# 6 0.000000 0.000000 0.000000 0.000000 0.000000 -0.062894
#
#
# Mechanical properties :
#
#
# Convention : Reuss Voigt Hill
#
# Bulk Modulus (GPa) = 36.97694 40.75006 38.86350
# Shear Modulus (GPa) = -37.76238 18.41154 -9.67542
#
# Velocity S-wave (km/s) = -4.41273 3.08122 -2.23364
# Velocity P-wave (km/s) = 2.62597 5.80270 3.65894
#
# Compressibility (1/GPa) = 0.02704388
#
# Stress axis : x y z
#
# Youngs Moduli (GPa) = 56.68230 103.05123 43.81096
#
# Poissons Ratio (x) = 0.22758 0.26533
# Poissons Ratio (y) = 0.12518 0.14454
# Poissons Ratio (z) = 0.34328 0.33998
#
# Static dielectric constant tensor:
#      x y z
#    x 1.633530 0.000000 0.000000 
#    y 0.000000 1.743330 0.000000 
#    z 0.000000 0.000000 1.724560 
# 
# From -- ./inp_files/42772.got.cif
#   From: 2010.05.17/outbox.cif.g08.bks.cpg/sg66_22_cif.got.tgz:42772.got - 2010.06.03 17:51:23.
