data_PCOD9496468
_publ_section_title
;
Structure prediction by ZEFSAII (Michael W. Deem and Ramdas Pophale) SiO2 
 PCOD9496468
Probable space group: C C C M
;
_chemical_formula_sum "Si O2"
_cell_formula_units_Z 96
_cell_length_a 29.118317
_cell_length_b 10.389026
_cell_length_c 15.219116
_cell_angle_alpha 90.000000
_cell_angle_beta 90.000000
_cell_angle_gamma 90.000000
_cell_volume 4603.949276
_symmetry_space_group_name_H-M "C C C M"
_symmetry_group_IT_number 66
_symmetry_cell_setting 'orthorhombic'
loop_
_space_group_symop_operation_xyz
x,y,z
-x,-y,z
x,-y,1/2-z
-x,y,1/2-z
-x,-y,-z
x,y,-z
-x,y,1/2+z
x,-y,1/2+z
1/2+x,1/2+y,z
1/2-x,1/2-y,z
1/2+x,1/2-y,1/2-z
1/2-x,1/2+y,1/2-z
1/2-x,1/2-y,-z
1/2+x,1/2+y,-z
1/2-x,1/2+y,1/2+z
1/2+x,1/2-y,1/2+z
loop_
_atom_site_type_symbol
_atom_site_label
_atom_site_fract_x
_atom_site_fract_y
_atom_site_fract_z
Si Si1 0.405686 0.259717 0.364907
Si Si2 0.899331 0.263456 0.343825
Si Si3 0.654986 0.008748 0.102495
Si Si4 0.148815 0.006002 0.144032
Si Si5 0.748675 0.397003 0.105186
Si Si6 0.002000 0.650079 0.642413
O O1 0.406485 0.264712 0.259025
O O2 0.372015 0.143463 0.390920
O O3 0.384123 0.394534 0.393767
O O4 0.457297 0.224296 0.391895
O O5 0.872410 0.397337 0.349267
O O6 0.949780 0.286338 0.383707
O O7 0.869724 0.146179 0.382527
O O8 0.706342 0.028720 0.137710
O O9 0.656842 0.971560 0.000000
O O10 0.201008 0.968998 0.121584
O O11 0.146584 0.000000 0.250000
O O12 0.750000 0.250000 0.140047
O O13 0.754428 0.387450 0.000000
O O14 0.000000 0.500000 0.616039
O O15 0.000000 0.650550 0.750000
#
# Coordination Sequence:
#
# PCOD9496468 Si02
#       6
#    16  16  16  16  16  16
#     4  10  19  36  59  81 112 150 184 223 272 338
#     4  10  21  36  55  85 117 143 179 232 282 324
#     4  11  22  36  57  83 107 144 191 229 276 329
#     4  10  22  37  56  87 116 143 183 234 286 325
#     4  10  21  39  60  79 106 150 194 226 271 341
#     4   9  16  30  56  84 109 147 186 218 270 335
#
# _framework density 20.851662999999999
#
# number of rings (size 3 to 8) (size 9 to 14) (size 15 to 20)
#    0.000    2.000    3.333    0.500    0.000    3.333 
#    0.000    6.667    0.000    0.000    0.000    3.500 
#    0.000    0.000    0.000    0.000    0.000    0.000 
#
# Total GULP energy -268091.050850 kJ/mol
# GULP energy per Si atom -5585.230226 kJ/mol
# Density = 2.080420 g / cm^3
# Si number density = 20.851663 Si / 1000 Ang^3
#
#
#
# Elastic Constant Matrix: (Units=GPa)
#
#
# Indices 1 2 3 4 5 6 
#
# 1 189.5242 60.3150 -0.7320 0.0000 0.0000 0.0000
# 2 60.3150 102.6804 -8.9788 0.0000 0.0000 0.0000
# 3 -0.7320 -8.9788 29.6740 0.0000 0.0000 0.0000
# 4 0.0000 0.0000 0.0000 -0.7764 0.0000 0.0000
# 5 0.0000 0.0000 0.0000 0.0000 -24.7211 0.0000
# 6 0.0000 0.0000 0.0000 0.0000 0.0000 33.2089
#
#
#
# Elastic Compliance Matrix: (Units=1/GPa)
#
#
# Indices 1 2 3 4 5 6 
#
# 1 0.006520 -0.003919 -0.001025 0.000000 0.000000 0.000000
# 2 -0.003919 0.012360 0.003643 0.000000 0.000000 0.000000
# 3 -0.001025 0.003643 0.034777 0.000000 0.000000 0.000000
# 4 0.000000 0.000000 0.000000 -1.288049 0.000000 0.000000
# 5 0.000000 0.000000 0.000000 0.000000 -0.040451 0.000000
# 6 0.000000 0.000000 0.000000 0.000000 0.000000 0.030112
#
#
# Mechanical properties :
#
#
# Convention : Reuss Voigt Hill
#
# Bulk Modulus (GPa) = 19.58726 47.00964 33.29845
# Shear Modulus (GPa) = -4.08126 19.62724 7.77299
#
# Velocity S-wave (km/s) = -1.40055 3.07136 1.93283
# Velocity P-wave (km/s) = 2.60742 5.93055 4.58094
#
# Compressibility (1/GPa) = 0.05105360
#
# Stress axis : x y z
#
# Youngs Moduli (GPa) = 153.38065 80.90753 28.75493
#
# Poissons Ratio (x) = 0.31711 0.02948
# Poissons Ratio (y) = 0.60115 -0.10476
# Poissons Ratio (z) = 0.15723 -0.29476
#
# Static dielectric constant tensor:
#      x y z
#    x 1.736260 0.000000 0.000000 
#    y 0.000000 1.716130 0.000000 
#    z 0.000000 0.000000 1.807970 
# 
# From -- ./inp_files/38983.got.cif
#   From: 2010.05.17/outbox.cif.g08.bks.cpg/sg66_20_cif.got.tgz:38983.got - 2010.06.03 17:51:23.
