data_PCOD9496340
_publ_section_title
;
Structure prediction by ZEFSAII (Michael W. Deem and Ramdas Pophale) SiO2 
 PCOD9496340
Probable space group: C C C M
;
_chemical_formula_sum "Si O2"
_cell_formula_units_Z 68
_cell_length_a 4.923421
_cell_length_b 19.839025
_cell_length_c 29.060131
_cell_angle_alpha 90.000000
_cell_angle_beta 90.000000
_cell_angle_gamma 90.000000
_cell_volume 2838.473645
_symmetry_space_group_name_H-M "C C C M"
_symmetry_group_IT_number 66
_symmetry_cell_setting 'orthorhombic'
loop_
_space_group_symop_operation_xyz
x,y,z
-x,-y,z
x,-y,1/2-z
-x,y,1/2-z
-x,-y,-z
x,y,-z
-x,y,1/2+z
x,-y,1/2+z
1/2+x,1/2+y,z
1/2-x,1/2-y,z
1/2+x,1/2-y,1/2-z
1/2-x,1/2+y,1/2-z
1/2-x,1/2-y,-z
1/2+x,1/2+y,-z
1/2-x,1/2+y,1/2+z
1/2+x,1/2-y,1/2+z
loop_
_atom_site_type_symbol
_atom_site_label
_atom_site_fract_x
_atom_site_fract_y
_atom_site_fract_z
Si Si1 0.579874 0.102403 0.918310
Si Si2 0.599168 0.341678 0.296349
Si Si3 0.384421 0.928753 0.185805
Si Si4 0.570235 0.687237 0.099052
Si Si5 0.500000 0.000000 0.500000
O O1 0.649892 0.070131 0.869243
O O2 0.267278 0.124802 0.913032
O O3 0.611157 0.051819 0.959842
O O4 0.778964 0.167502 0.921362
O O5 0.500000 0.304107 0.250000
O O6 0.405920 0.407268 0.296055
O O7 0.538063 0.306147 0.345329
O O8 0.904761 0.369289 0.300410
O O9 0.500000 0.000000 0.200462
O O10 0.750000 0.750000 0.082727
#
# Coordination Sequence:
#
# PCOD9496340 Si02
#       5
#    16  16  16  16   4
#     4  10  23  39  66  94 123 164 207 262 325 384
#     4  10  21  34  55  86 118 159 214 254 297 360
#     4  10  19  35  53  82 124 162 197 250 317 377
#     4  10  22  44  64  87 129 173 210 255 317 378
#     4  12  24  46  70 102 126 154 212 272 320 402
#
# _framework density 23.956536
#
# number of rings (size 3 to 8) (size 9 to 14) (size 15 to 20)
#    0.000    1.882    1.176    2.118    0.000    5.647 
#    0.000   10.588    0.000    0.000    0.000    0.000 
#    0.000    0.000    0.000    0.000    0.000    0.000 
#
# Total GULP energy -189488.866841 kJ/mol
# GULP energy per Si atom -5573.201966 kJ/mol
# Density = 2.390201 g / cm^3
# Si number density = 23.956536 Si / 1000 Ang^3
#
#
#
# Elastic Constant Matrix: (Units=GPa)
#
#
# Indices 1 2 3 4 5 6 
#
# 1 107.0663 16.0806 34.8074 0.0000 0.0000 0.0000
# 2 16.0806 70.3560 26.7575 0.0000 0.0000 0.0000
# 3 34.8074 26.7575 169.5293 0.0000 0.0000 0.0000
# 4 0.0000 0.0000 0.0000 162.7644 0.0000 0.0000
# 5 0.0000 0.0000 0.0000 0.0000 -58.0501 0.0000
# 6 0.0000 0.0000 0.0000 0.0000 0.0000 35.2612
#
#
#
# Elastic Compliance Matrix: (Units=1/GPa)
#
#
# Indices 1 2 3 4 5 6 
#
# 1 0.010181 -0.001630 -0.001833 0.000000 0.000000 0.000000
# 2 -0.001630 0.015382 -0.002093 0.000000 0.000000 0.000000
# 3 -0.001833 -0.002093 0.006605 0.000000 0.000000 0.000000
# 4 0.000000 0.000000 0.000000 0.006144 0.000000 0.000000
# 5 0.000000 0.000000 0.000000 0.000000 -0.017227 0.000000
# 6 0.000000 0.000000 0.000000 0.000000 0.000000 0.028360
#
#
# Mechanical properties :
#
#
# Convention : Reuss Voigt Hill
#
# Bulk Modulus (GPa) = 47.49210 55.80472 51.64841
# Shear Modulus (GPa) = 73.99084 45.94886 59.96985
#
# Velocity S-wave (km/s) = 5.56350 4.38426 5.00870
# Velocity P-wave (km/s) = 7.81904 6.99812 7.41994
#
# Compressibility (1/GPa) = 0.02105613
#
# Stress axis : x y z
#
# Youngs Moduli (GPa) = 98.22499 65.01104 151.39083
#
# Poissons Ratio (x) = 0.10595 0.27751
# Poissons Ratio (y) = 0.16008 0.31689
# Poissons Ratio (z) = 0.18005 0.13608
#
# Static dielectric constant tensor:
#      x y z
#    x 1.864750 0.000000 0.000000 
#    y 0.000000 2.005040 0.000000 
#    z 0.000000 0.000000 1.922700 
# 
# From -- ./inp_files/67091.got.cif
#   From: 2010.05.17/outbox.cif.g08.bks.cpg/sg66_34_cif.got.tgz:67091.got - 2010.06.03 17:51:23.
