data_PCOD9496777
_publ_section_title
;
Structure prediction by ZEFSAII (Michael W. Deem and Ramdas Pophale) SiO2 
 PCOD9496777
Probable space group: C C C M
;
_chemical_formula_sum "Si O2"
_cell_formula_units_Z 56
_cell_length_a 31.927212
_cell_length_b 7.567054
_cell_length_c 9.940193
_cell_angle_alpha 90.000000
_cell_angle_beta 90.000000
_cell_angle_gamma 90.000000
_cell_volume 2401.500304
_symmetry_space_group_name_H-M "C C C M"
_symmetry_group_IT_number 66
_symmetry_cell_setting 'orthorhombic'
loop_
_space_group_symop_operation_xyz
x,y,z
-x,-y,z
x,-y,1/2-z
-x,y,1/2-z
-x,-y,-z
x,y,-z
-x,y,1/2+z
x,-y,1/2+z
1/2+x,1/2+y,z
1/2-x,1/2-y,z
1/2+x,1/2-y,1/2-z
1/2-x,1/2+y,1/2-z
1/2-x,1/2-y,-z
1/2+x,1/2+y,-z
1/2-x,1/2+y,1/2+z
1/2+x,1/2-y,1/2+z
loop_
_atom_site_type_symbol
_atom_site_label
_atom_site_fract_x
_atom_site_fract_y
_atom_site_fract_z
Si Si1 0.898350 0.850580 0.000000
Si Si2 0.750000 0.250000 0.246287
Si Si3 0.193182 0.386641 0.500000
Si Si4 0.096620 0.728499 0.000000
Si Si5 0.300559 0.691857 0.500000
Si Si6 0.048522 0.782413 0.252223
O O1 0.920195 0.756267 0.124314
O O2 0.848456 0.858971 0.000000
O O3 0.908049 0.058245 0.000000
O O4 0.723125 0.360619 0.360743
O O5 0.784188 0.323020 0.138783
O O6 0.144877 0.327442 0.500000
O O7 0.196952 0.596470 0.500000
O O8 0.071053 0.681905 0.868508
O O9 0.000000 0.729556 0.250000
O O10 0.047165 0.000000 0.250000
#
# Coordination Sequence:
#
# PCOD9496777 Si02
#       6
#     8   8   8   8   8  16
#     4  10  20  33  54  82 110 143 185 234 281 332
#     4  10  24  40  58  82 110 148 194 230 278 346
#     4  11  23  40  61  84 114 151 188 235 292 343
#     4  10  20  33  54  82 110 143 185 234 281 332
#     4  11  23  40  61  84 114 151 188 235 292 343
#     4   9  17  31  52  79 110 145 186 230 277 328
#
# _framework density 23.318756
#
# number of rings (size 3 to 8) (size 9 to 14) (size 15 to 20)
#    0.000    2.000    0.000    3.429    0.000   10.286 
#    0.000    0.000    0.000    5.143    0.000    0.000 
#    0.000    0.000    0.000    0.000    0.000    0.000 
#
# Total GULP energy -156076.739141 kJ/mol
# GULP energy per Si atom -5574.169255 kJ/mol
# Density = 2.326568 g / cm^3
# Si number density = 23.318756 Si / 1000 Ang^3
#
#
#
# Elastic Constant Matrix: (Units=GPa)
#
#
# Indices 1 2 3 4 5 6 
#
# 1 213.6443 -5.8064 92.3424 0.0000 0.0000 0.0000
# 2 -5.8064 49.9305 1.1084 0.0000 0.0000 0.0000
# 3 92.3424 1.1084 185.2587 0.0000 0.0000 0.0000
# 4 0.0000 0.0000 0.0000 15.5993 0.0000 0.0000
# 5 0.0000 0.0000 0.0000 0.0000 40.5310 0.0000
# 6 0.0000 0.0000 0.0000 0.0000 0.0000 15.3846
#
#
#
# Elastic Compliance Matrix: (Units=1/GPa)
#
#
# Indices 1 2 3 4 5 6 
#
# 1 0.005995 0.000764 -0.002993 0.000000 0.000000 0.000000
# 2 0.000764 0.020128 -0.000501 0.000000 0.000000 0.000000
# 3 -0.002993 -0.000501 0.006893 0.000000 0.000000 0.000000
# 4 0.000000 0.000000 0.000000 0.064106 0.000000 0.000000
# 5 0.000000 0.000000 0.000000 0.000000 0.024673 0.000000
# 6 0.000000 0.000000 0.000000 0.000000 0.000000 0.065000
#
#
# Mechanical properties :
#
#
# Convention : Reuss Voigt Hill
#
# Bulk Modulus (GPa) = 36.29120 69.34692 52.81906
# Shear Modulus (GPa) = 24.82145 38.38225 31.60185
#
# Velocity S-wave (km/s) = 3.26612 4.06147 3.68531
# Velocity P-wave (km/s) = 5.46079 7.19704 6.38818
#
# Compressibility (1/GPa) = 0.02755489
#
# Stress axis : x y z
#
# Youngs Moduli (GPa) = 166.80626 49.68268 145.08300
#
# Poissons Ratio (x) = -0.03794 0.43420
# Poissons Ratio (y) = -0.12737 0.07269
# Poissons Ratio (z) = 0.49921 0.02489
#
# Static dielectric constant tensor:
#      x y z
#    x 1.847080 0.000000 0.000000 
#    y 0.000000 1.974920 0.000000 
#    z 0.000000 0.000000 1.867200 
# 
# From -- ./inp_files/11165.got.cif
#   From: 2010.05.17/outbox.cif.g08.bks.cpg/sg66_6_cif.got.tgz:11165.got - 2010.06.03 17:51:23.
