data_PCOD9496002
_publ_section_title
;
Structure prediction by ZEFSAII (Michael W. Deem and Ramdas Pophale) SiO2 
 PCOD9496002
Probable space group: C C C M
;
_chemical_formula_sum "Si O2"
_cell_formula_units_Z 120
_cell_length_a 17.400347
_cell_length_b 19.084076
_cell_length_c 17.897381
_cell_angle_alpha 90.000000
_cell_angle_beta 90.000000
_cell_angle_gamma 90.000000
_cell_volume 5943.175158
_symmetry_space_group_name_H-M "C C C M"
_symmetry_group_IT_number 66
_symmetry_cell_setting 'orthorhombic'
loop_
_space_group_symop_operation_xyz
x,y,z
-x,-y,z
x,-y,1/2-z
-x,y,1/2-z
-x,-y,-z
x,y,-z
-x,y,1/2+z
x,-y,1/2+z
1/2+x,1/2+y,z
1/2-x,1/2-y,z
1/2+x,1/2-y,1/2-z
1/2-x,1/2+y,1/2-z
1/2-x,1/2-y,-z
1/2+x,1/2+y,-z
1/2-x,1/2+y,1/2+z
1/2+x,1/2-y,1/2+z
loop_
_atom_site_type_symbol
_atom_site_label
_atom_site_fract_x
_atom_site_fract_y
_atom_site_fract_z
Si Si1 0.553107 0.865725 0.581595
Si Si2 0.873272 0.353393 0.382299
Si Si3 0.730200 0.558803 0.915802
Si Si4 0.910901 0.134687 0.767501
Si Si5 0.377250 0.305928 0.115186
Si Si6 0.591812 0.078693 0.765498
Si Si7 0.306495 0.500000 0.750000
Si Si8 0.556160 0.699567 0.420295
O O1 0.572183 0.894070 0.500000
O O2 0.460822 0.869763 0.593929
O O3 0.598289 0.901979 0.648357
O O4 0.568419 0.782774 0.583874
O O5 0.814740 0.407887 0.416512
O O6 0.852304 0.273425 0.403172
O O7 0.871048 0.367456 0.292724
O O8 0.673738 0.627517 0.908221
O O9 0.725935 0.515339 0.836355
O O10 0.715040 0.527655 0.000000
O O11 0.885392 0.189935 0.704872
O O12 0.858544 0.067797 0.760632
O O13 0.906083 0.164672 0.849722
O O14 0.000000 0.117522 0.750000
O O15 0.464226 0.312935 0.085060
O O16 0.500000 0.080215 0.750000
O O17 0.619366 0.000000 0.750000
O O18 0.584083 0.673017 0.500000
#
# Coordination Sequence:
#
# PCOD9496002 Si02
#       8
#    16  16  16  16  16  16   8  16
#     4   9  17  31  51  78 105 128 162 211 262 309
#     4  10  19  32  54  75 103 136 170 210 257 309
#     4  11  23  37  54  74 102 140 179 216 256 302
#     4   9  17  32  52  75 105 138 170 207 257 312
#     4   9  18  32  50  78 105 132 168 214 259 304
#     4   9  18  32  49  71 100 134 167 203 250 306
#     4  10  23  38  52  74 107 142 180 216 250 302
#     4   9  16  27  50  80 105 129 163 210 262 309
#
# _framework density 20.191227000000001
#
# number of rings (size 3 to 8) (size 9 to 14) (size 15 to 20)
#    0.000    2.533    0.000    2.200    0.933    5.867 
#    0.000    6.000    0.000    4.800    0.000    0.000 
#    0.000    9.600    0.000    0.000    0.000    0.000 
#
# Total GULP energy -334311.043423 kJ/mol
# GULP energy per Si atom -5571.850724 kJ/mol
# Density = 2.014527 g / cm^3
# Si number density = 20.191227 Si / 1000 Ang^3
#
#
#
# Elastic Constant Matrix: (Units=GPa)
#
#
# Indices 1 2 3 4 5 6 
#
# 1 13.3931 10.1312 18.6844 0.0000 0.0000 0.0000
# 2 10.1312 47.8282 36.5570 0.0000 0.0000 0.0000
# 3 18.6844 36.5570 213.1339 0.0000 0.0000 0.0000
# 4 0.0000 0.0000 0.0000 16.5584 0.0000 0.0000
# 5 0.0000 0.0000 0.0000 0.0000 26.8914 0.0000
# 6 0.0000 0.0000 0.0000 0.0000 0.0000 11.2289
#
#
#
# Elastic Compliance Matrix: (Units=1/GPa)
#
#
# Indices 1 2 3 4 5 6 
#
# 1 0.094333 -0.015722 -0.005573 0.000000 0.000000 0.000000
# 2 -0.015722 0.026683 -0.003198 0.000000 0.000000 0.000000
# 3 -0.005573 -0.003198 0.005729 0.000000 0.000000 0.000000
# 4 0.000000 0.000000 0.000000 0.060392 0.000000 0.000000
# 5 0.000000 0.000000 0.000000 0.000000 0.037187 0.000000
# 6 0.000000 0.000000 0.000000 0.000000 0.000000 0.089056
#
#
# Mechanical properties :
#
#
# Convention : Reuss Voigt Hill
#
# Bulk Modulus (GPa) = 12.86044 45.01117 28.93580
# Shear Modulus (GPa) = 12.87706 24.86791 18.87249
#
# Velocity S-wave (km/s) = 2.52812 3.51325 3.06058
# Velocity P-wave (km/s) = 3.86070 6.22881 5.18185
#
# Compressibility (1/GPa) = 0.07775782
#
# Stress axis : x y z
#
# Youngs Moduli (GPa) = 10.60072 37.47675 174.54917
#
# Poissons Ratio (x) = 0.58922 0.97277
# Poissons Ratio (y) = 0.16667 0.55828
# Poissons Ratio (z) = 0.05908 0.11987
#
# Static dielectric constant tensor:
#      x y z
#    x 1.720820 0.000000 0.000000 
#    y 0.000000 1.695280 0.000000 
#    z 0.000000 0.000000 1.788160 
# 
# From -- ./inp_files/43110.got.cif
#   From: 2010.05.17/outbox.cif.g08.bks.cpg/sg66_22_cif.got.tgz:43110.got - 2010.06.03 17:51:23.
