data_PCOD9496809
_publ_section_title
;
Structure prediction by ZEFSAII (Michael W. Deem and Ramdas Pophale) SiO2 
 PCOD9496809
Probable space group: C C C M
;
_chemical_formula_sum "Si O2"
_cell_formula_units_Z 96
_cell_length_a 25.175348
_cell_length_b 23.830457
_cell_length_c 7.650433
_cell_angle_alpha 90.000000
_cell_angle_beta 90.000000
_cell_angle_gamma 90.000000
_cell_volume 4589.801141
_symmetry_space_group_name_H-M "C C C M"
_symmetry_group_IT_number 66
_symmetry_cell_setting 'orthorhombic'
loop_
_space_group_symop_operation_xyz
x,y,z
-x,-y,z
x,-y,1/2-z
-x,y,1/2-z
-x,-y,-z
x,y,-z
-x,y,1/2+z
x,-y,1/2+z
1/2+x,1/2+y,z
1/2-x,1/2-y,z
1/2+x,1/2-y,1/2-z
1/2-x,1/2+y,1/2-z
1/2-x,1/2-y,-z
1/2+x,1/2+y,-z
1/2-x,1/2+y,1/2+z
1/2+x,1/2-y,1/2+z
loop_
_atom_site_type_symbol
_atom_site_label
_atom_site_fract_x
_atom_site_fract_y
_atom_site_fract_z
Si Si1 0.721904 0.374376 0.786798
Si Si2 0.439621 0.065903 0.706341
Si Si3 0.116380 0.063975 0.290617
Si Si4 0.837761 0.365759 0.214253
Si Si5 0.337022 0.263232 0.713267
Si Si6 0.440799 0.671883 0.208917
O O1 0.674232 0.414778 0.727405
O O2 0.780936 0.391452 0.732012
O O3 0.705960 0.310505 0.734390
O O4 0.721473 0.374470 0.000000
O O5 0.500000 0.083749 0.750000
O O6 0.435762 0.070459 0.500000
O O7 0.390534 0.102474 0.778756
O O8 0.434132 0.000000 0.750000
O O9 0.117778 0.068443 0.500000
O O10 0.073428 0.109297 0.225873
O O11 0.105177 0.000000 0.250000
O O12 0.833823 0.300815 0.270058
O O13 0.839351 0.366094 0.000000
O O14 0.334762 0.262141 0.500000
O O15 0.393930 0.287717 0.770376
O O16 0.500000 0.689460 0.250000
O O17 0.436366 0.671202 0.000000
#
# Coordination Sequence:
#
# PCOD9496809 Si02
#       6
#    16  16  16  16  16  16
#     4   8  14  26  44  67  95 121 146 183 229 271
#     4  10  20  34  50  68  93 122 153 188 226 268
#     4   9  18  31  46  66  92 121 153 189 228 269
#     4   9  16  26  46  73  93 116 152 187 221 269
#     4   8  14  26  44  67  95 121 146 183 229 271
#     4   9  18  31  46  66  92 121 153 189 228 269
#
# _framework density 20.915939000000002
#
# number of rings (size 3 to 8) (size 9 to 14) (size 15 to 20)
#    0.000    3.167    0.000    3.500    0.000    4.333 
#    0.000    1.667    0.000    2.000    0.000    0.000 
#    0.000   10.667    0.000    0.000    0.000    0.000 
#
# Total GULP energy -267558.656766 kJ/mol
# GULP energy per Si atom -5574.138683 kJ/mol
# Density = 2.086833 g / cm^3
# Si number density = 20.915939 Si / 1000 Ang^3
#
#
#
# Elastic Constant Matrix: (Units=GPa)
#
#
# Indices 1 2 3 4 5 6 
#
# 1 128.6688 1.2216 1.6537 0.0000 0.0000 0.0000
# 2 1.2216 14.5697 -3.6429 0.0000 0.0000 0.0000
# 3 1.6537 -3.6429 35.8521 0.0000 0.0000 0.0000
# 4 0.0000 0.0000 0.0000 5.7049 0.0000 0.0000
# 5 0.0000 0.0000 0.0000 0.0000 11.0128 0.0000
# 6 0.0000 0.0000 0.0000 0.0000 0.0000 15.9952
#
#
#
# Elastic Compliance Matrix: (Units=1/GPa)
#
#
# Indices 1 2 3 4 5 6 
#
# 1 0.007785 -0.000762 -0.000436 0.000000 0.000000 0.000000
# 2 -0.000762 0.070499 0.007198 0.000000 0.000000 0.000000
# 3 -0.000436 0.007198 0.028644 0.000000 0.000000 0.000000
# 4 0.000000 0.000000 0.000000 0.175288 0.000000 0.000000
# 5 0.000000 0.000000 0.000000 0.000000 0.090804 0.000000
# 6 0.000000 0.000000 0.000000 0.000000 0.000000 0.062519
#
#
# Mechanical properties :
#
#
# Convention : Reuss Voigt Hill
#
# Bulk Modulus (GPa) = 8.40844 19.72839 14.06841
# Shear Modulus (GPa) = 10.79492 18.53311 14.66402
#
# Velocity S-wave (km/s) = 2.27427 2.97993 2.65069
# Velocity P-wave (km/s) = 3.30534 4.61440 4.01360
#
# Compressibility (1/GPa) = 0.11892814
#
# Stress axis : x y z
#
# Youngs Moduli (GPa) = 128.45650 14.18456 34.91137
#
# Poissons Ratio (x) = 0.01081 0.01524
# Poissons Ratio (y) = 0.09787 -0.25131
# Poissons Ratio (z) = 0.05607 -0.10211
#
# Static dielectric constant tensor:
#      x y z
#    x 1.777270 0.000000 0.000000 
#    y 0.000000 1.752520 0.000000 
#    z 0.000000 0.000000 1.794910 
# 
# From -- ./inp_files/9116.got.cif
#   From: 2010.05.17/outbox.cif.g08.bks.cpg/sg66_5_cif.got.tgz:9116.got - 2010.06.03 17:51:23.
