data_PCOD9496640
_publ_section_title
;
Structure prediction by ZEFSAII (Michael W. Deem and Ramdas Pophale) SiO2 
 PCOD9496640
Probable space group: C C C M
;
_chemical_formula_sum "Si O2"
_cell_formula_units_Z 112
_cell_length_a 25.106309
_cell_length_b 14.864747
_cell_length_c 17.488657
_cell_angle_alpha 90.000000
_cell_angle_beta 90.000000
_cell_angle_gamma 90.000000
_cell_volume 6526.748104
_symmetry_space_group_name_H-M "C C C M"
_symmetry_group_IT_number 66
_symmetry_cell_setting 'orthorhombic'
loop_
_space_group_symop_operation_xyz
x,y,z
-x,-y,z
x,-y,1/2-z
-x,y,1/2-z
-x,-y,-z
x,y,-z
-x,y,1/2+z
x,-y,1/2+z
1/2+x,1/2+y,z
1/2-x,1/2-y,z
1/2+x,1/2-y,1/2-z
1/2-x,1/2+y,1/2-z
1/2-x,1/2-y,-z
1/2+x,1/2+y,-z
1/2-x,1/2+y,1/2+z
1/2+x,1/2-y,1/2+z
loop_
_atom_site_type_symbol
_atom_site_label
_atom_site_fract_x
_atom_site_fract_y
_atom_site_fract_z
Si Si1 0.388455 0.681085 0.650737
Si Si2 0.691864 0.791145 0.592680
Si Si3 0.498697 0.605437 0.590591
Si Si4 0.175904 0.999467 0.335916
Si Si5 0.300822 0.189424 0.092464
Si Si6 0.783901 0.487086 0.090144
Si Si7 0.397746 0.329846 0.329038
O O1 0.441918 0.650400 0.608320
O O2 0.347824 0.597200 0.645505
O O3 0.355706 0.764427 0.617423
O O4 0.401349 0.694622 0.739982
O O5 0.688675 0.787500 0.500000
O O6 0.750000 0.750000 0.613915
O O7 0.689497 0.895339 0.619050
O O8 0.643761 0.735488 0.628928
O O9 0.500000 0.500000 0.615952
O O10 0.508782 0.605787 0.500000
O O11 0.544927 0.660767 0.632584
O O12 0.199437 0.000000 0.250000
O O13 0.221113 0.025434 0.395289
O O14 0.128748 0.071331 0.334590
O O15 0.250000 0.250000 0.118642
O O16 0.297232 0.086396 0.121167
O O17 0.298279 0.188092 0.000000
O O18 0.794625 0.490024 0.000000
#
# Coordination Sequence:
#
# PCOD9496640 Si02
#       7
#    16  16  16  16  16  16  16
#     4  11  22  36  54  79 113 148 181 222 272 324
#     4  10  20  34  54  80 110 145 185 226 270 323
#     4  11  23  37  57  82 109 144 183 223 270 326
#     4  10  20  31  49  78 112 145 178 219 266 323
#     4  10  20  34  54  80 110 145 185 226 270 323
#     4  10  20  34  53  78 111 148 183 225 271 317
#     4  11  22  36  54  79 113 148 181 222 272 324
#
# _framework density 17.160153000000001
#
# number of rings (size 3 to 8) (size 9 to 14) (size 15 to 20)
#    0.000    1.571    4.286    1.286    0.000    3.429 
#    0.000    0.000    0.000    0.857    0.000    6.000 
#    0.000    0.000    0.000    0.000    0.000    0.000 
#
# Total GULP energy -312430.712147 kJ/mol
# GULP energy per Si atom -5579.119860 kJ/mol
# Density = 1.712110 g / cm^3
# Si number density = 17.160153 Si / 1000 Ang^3
#
#
#
# Elastic Constant Matrix: (Units=GPa)
#
#
# Indices 1 2 3 4 5 6 
#
# 1 64.2479 17.5405 6.2627 0.0000 0.0000 0.0000
# 2 17.5405 87.0390 15.7894 0.0000 0.0000 0.0000
# 3 6.2627 15.7894 8.9648 0.0000 0.0000 0.0000
# 4 0.0000 0.0000 0.0000 15.2917 0.0000 0.0000
# 5 0.0000 0.0000 0.0000 0.0000 11.2400 0.0000
# 6 0.0000 0.0000 0.0000 0.0000 0.0000 20.7129
#
#
#
# Elastic Compliance Matrix: (Units=1/GPa)
#
#
# Indices 1 2 3 4 5 6 
#
# 1 0.016904 -0.001858 -0.008536 0.000000 0.000000 0.000000
# 2 -0.001858 0.017088 -0.028798 0.000000 0.000000 0.000000
# 3 -0.008536 -0.028798 0.168231 0.000000 0.000000 0.000000
# 4 0.000000 0.000000 0.000000 0.065395 0.000000 0.000000
# 5 0.000000 0.000000 0.000000 0.000000 0.088968 0.000000
# 6 0.000000 0.000000 0.000000 0.000000 0.000000 0.048279
#
#
# Mechanical properties :
#
#
# Convention : Reuss Voigt Hill
#
# Bulk Modulus (GPa) = 8.07506 26.60410 17.33958
# Shear Modulus (GPa) = 9.53239 17.49287 13.51263
#
# Velocity S-wave (km/s) = 2.35945 3.19625 2.80918
# Velocity P-wave (km/s) = 3.48405 5.39985 4.54406
#
# Compressibility (1/GPa) = 0.12383802
#
# Stress axis : x y z
#
# Youngs Moduli (GPa) = 59.15729 58.52197 5.94422
#
# Poissons Ratio (x) = 0.10874 0.05074
# Poissons Ratio (y) = 0.10992 0.17118
# Poissons Ratio (z) = 0.50499 1.68530
#
# Static dielectric constant tensor:
#      x y z
#    x 1.547310 0.000000 0.000000 
#    y 0.000000 1.609830 0.000000 
#    z 0.000000 0.000000 1.590550 
# 
# From -- ./inp_files/28686.got.cif
#   From: 2010.05.17/outbox.cif.g08.bks.cpg/sg66_15_cif.got.tgz:28686.got - 2010.06.03 17:51:23.
