data_PCOD9496269
_publ_section_title
;
Structure prediction by ZEFSAII (Michael W. Deem and Ramdas Pophale) SiO2 
 PCOD9496269
Probable space group: C C C M
;
_chemical_formula_sum "Si O2"
_cell_formula_units_Z 112
_cell_length_a 23.579283
_cell_length_b 16.357877
_cell_length_c 14.704937
_cell_angle_alpha 90.000000
_cell_angle_beta 90.000000
_cell_angle_gamma 90.000000
_cell_volume 5671.797298
_symmetry_space_group_name_H-M "C C C M"
_symmetry_group_IT_number 66
_symmetry_cell_setting 'orthorhombic'
loop_
_space_group_symop_operation_xyz
x,y,z
-x,-y,z
x,-y,1/2-z
-x,y,1/2-z
-x,-y,-z
x,y,-z
-x,y,1/2+z
x,-y,1/2+z
1/2+x,1/2+y,z
1/2-x,1/2-y,z
1/2+x,1/2-y,1/2-z
1/2-x,1/2+y,1/2-z
1/2-x,1/2-y,-z
1/2+x,1/2+y,-z
1/2-x,1/2+y,1/2+z
1/2+x,1/2-y,1/2+z
loop_
_atom_site_type_symbol
_atom_site_label
_atom_site_fract_x
_atom_site_fract_y
_atom_site_fract_z
Si Si1 0.240013 0.653311 0.104073
Si Si2 0.951993 0.293357 0.670570
Si Si3 0.621204 0.648792 0.897791
Si Si4 0.841342 0.091146 0.217901
Si Si5 0.864419 0.595985 0.724050
Si Si6 0.030568 0.575778 0.100172
Si Si7 0.062496 0.971828 0.103918
O O1 0.250000 0.750000 0.103445
O O2 0.298802 0.615368 0.138655
O O3 0.192680 0.629543 0.178427
O O4 0.225901 0.627605 0.000000
O O5 0.929538 0.210833 0.625705
O O6 0.896002 0.345484 0.702148
O O7 0.000000 0.280063 0.750000
O O8 0.986483 0.350857 0.602491
O O9 0.660473 0.648398 0.807339
O O10 0.598230 0.555934 0.899503
O O11 0.643640 0.666706 0.000000
O O12 0.904587 0.086340 0.174208
O O13 0.826258 0.000000 0.250000
O O14 0.857326 0.500000 0.750000
O O15 0.912069 0.598826 0.647190
O O16 0.000000 0.500000 0.148777
O O17 0.045457 0.548342 0.000000
O O18 0.059485 0.938840 0.000000
O O19 0.000000 0.000000 0.132244
#
# Coordination Sequence:
#
# PCOD9496269 Si02
#       7
#    16  16  16  16  16  16  16
#     4  11  24  42  62  86 118 154 203 258 303 355
#     4  10  21  33  56  83 119 160 194 241 301 358
#     4  10  21  36  54  84 118 152 195 242 297 359
#     4  10  21  38  63  84 114 160 195 248 305 356
#     4  11  21  38  60  86 117 155 203 245 296 362
#     4  10  19  34  57  85 121 158 194 242 298 355
#     4   9  19  35  58  87 117 149 195 247 295 359
#
# _framework density 19.746827
#
# number of rings (size 3 to 8) (size 9 to 14) (size 15 to 20)
#    0.000    1.857    1.429    2.571    2.000    2.571 
#    0.000    0.000    0.000    4.714    0.000    0.000 
#    0.000    0.000    0.000    0.000    0.000    0.000 
#
# Total GULP energy -312012.426444 kJ/mol
# GULP energy per Si atom -5571.650472 kJ/mol
# Density = 1.970188 g / cm^3
# Si number density = 19.746827 Si / 1000 Ang^3
#
#
#
# Elastic Constant Matrix: (Units=GPa)
#
#
# Indices 1 2 3 4 5 6 
#
# 1 78.9108 7.0868 26.7074 0.0000 0.0000 0.0000
# 2 7.0868 48.4995 20.5557 0.0000 0.0000 0.0000
# 3 26.7074 20.5557 99.6128 0.0000 0.0000 0.0000
# 4 0.0000 0.0000 0.0000 26.7711 0.0000 0.0000
# 5 0.0000 0.0000 0.0000 0.0000 -7.5507 0.0000
# 6 0.0000 0.0000 0.0000 0.0000 0.0000 18.2950
#
#
#
# Elastic Compliance Matrix: (Units=1/GPa)
#
#
# Indices 1 2 3 4 5 6 
#
# 1 0.013948 -0.000497 -0.003637 0.000000 0.000000 0.000000
# 2 -0.000497 0.022613 -0.004533 0.000000 0.000000 0.000000
# 3 -0.003637 -0.004533 0.011949 0.000000 0.000000 0.000000
# 4 0.000000 0.000000 0.000000 0.037354 0.000000 0.000000
# 5 0.000000 0.000000 0.000000 0.000000 -0.132438 0.000000
# 6 0.000000 0.000000 0.000000 0.000000 0.000000 0.054660
#
#
# Mechanical properties :
#
#
# Convention : Reuss Voigt Hill
#
# Bulk Modulus (GPa) = 32.07545 37.30255 34.68900
# Shear Modulus (GPa) = 139.62115 19.01462 79.31789
#
# Velocity S-wave (km/s) = 8.41779 3.10646 6.34465
# Velocity P-wave (km/s) = 10.52414 5.63899 8.44262
#
# Compressibility (1/GPa) = 0.03117649
#
# Stress axis : x y z
#
# Youngs Moduli (GPa) = 71.69415 44.22306 83.68556
#
# Poissons Ratio (x) = 0.02196 0.30438
# Poissons Ratio (y) = 0.03560 0.37936
# Poissons Ratio (z) = 0.26077 0.20047
#
# Static dielectric constant tensor:
#      x y z
#    x 1.701000 0.000000 0.000000 
#    y 0.000000 1.727130 0.000000 
#    z 0.000000 0.000000 1.753060 
# 
# From -- ./inp_files/32431.got.cif
#   From: 2010.05.17/outbox.cif.g08.bks.cpg/sg66_17_cif.got.tgz:32431.got - 2010.06.03 17:51:23.
