data_PCOD9496361
_publ_section_title
;
Structure prediction by ZEFSAII (Michael W. Deem and Ramdas Pophale) SiO2 
 PCOD9496361
Probable space group: C C C M
;
_chemical_formula_sum "Si O2"
_cell_formula_units_Z 64
_cell_length_a 18.411863
_cell_length_b 10.489946
_cell_length_c 14.614640
_cell_angle_alpha 90.000000
_cell_angle_beta 90.000000
_cell_angle_gamma 90.000000
_cell_volume 2822.663512
_symmetry_space_group_name_H-M "C C C M"
_symmetry_group_IT_number 66
_symmetry_cell_setting 'orthorhombic'
loop_
_space_group_symop_operation_xyz
x,y,z
-x,-y,z
x,-y,1/2-z
-x,y,1/2-z
-x,-y,-z
x,y,-z
-x,y,1/2+z
x,-y,1/2+z
1/2+x,1/2+y,z
1/2-x,1/2-y,z
1/2+x,1/2-y,1/2-z
1/2-x,1/2+y,1/2-z
1/2-x,1/2-y,-z
1/2+x,1/2+y,-z
1/2-x,1/2+y,1/2+z
1/2+x,1/2-y,1/2+z
loop_
_atom_site_type_symbol
_atom_site_label
_atom_site_fract_x
_atom_site_fract_y
_atom_site_fract_z
Si Si1 0.041069 0.703839 0.608272
Si Si2 0.400737 0.082789 0.389960
Si Si3 0.740952 0.386320 0.853215
Si Si4 0.312682 0.348069 0.851503
O O1 0.032747 0.726228 0.500000
O O2 0.068962 0.559526 0.620820
O O3 0.105769 0.796730 0.637568
O O4 0.958106 0.689756 0.644524
O O5 0.389702 0.100134 0.500000
O O6 0.324964 0.080890 0.339285
O O7 0.750000 0.250000 0.901966
O O8 0.702131 0.511386 0.892896
O O9 0.702621 0.361032 0.756611
O O10 0.250000 0.250000 0.886238
#
# Coordination Sequence:
#
# PCOD9496361 Si02
#       4
#    16  16  16  16
#     4   9  18  34  61  91 116 148 199 255 304 360
#     4   9  18  35  59  89 120 150 192 251 310 362
#     4  10  21  35  54  82 122 158 197 245 293 357
#     4  10  19  35  57  82 117 157 202 246 291 355
#
# _framework density 22.67362
#
# number of rings (size 3 to 8) (size 9 to 14) (size 15 to 20)
#    0.000    2.500    2.500    1.500    0.000    2.000 
#    0.000    6.250    0.000    9.000    0.000    0.000 
#    0.000    0.000    0.000    0.000    0.000    0.000 
#
# Total GULP energy -178348.102528 kJ/mol
# GULP energy per Si atom -5573.378204 kJ/mol
# Density = 2.262201 g / cm^3
# Si number density = 22.673620 Si / 1000 Ang^3
#
#
#
# Elastic Constant Matrix: (Units=GPa)
#
#
# Indices 1 2 3 4 5 6 
#
# 1 165.6666 45.1194 36.4049 0.0000 0.0000 0.0000
# 2 45.1194 153.1078 21.1038 0.0000 0.0000 0.0000
# 3 36.4049 21.1038 60.7810 0.0000 0.0000 0.0000
# 4 0.0000 0.0000 0.0000 47.8266 0.0000 0.0000
# 5 0.0000 0.0000 0.0000 0.0000 34.8661 0.0000
# 6 0.0000 0.0000 0.0000 0.0000 0.0000 51.9112
#
#
#
# Elastic Compliance Matrix: (Units=1/GPa)
#
#
# Indices 1 2 3 4 5 6 
#
# 1 0.007319 -0.001631 -0.003818 0.000000 0.000000 0.000000
# 2 -0.001631 0.007223 -0.001531 0.000000 0.000000 0.000000
# 3 -0.003818 -0.001531 0.019271 0.000000 0.000000 0.000000
# 4 0.000000 0.000000 0.000000 0.020909 0.000000 0.000000
# 5 0.000000 0.000000 0.000000 0.000000 0.028681 0.000000
# 6 0.000000 0.000000 0.000000 0.000000 0.000000 0.019264
#
#
# Mechanical properties :
#
#
# Convention : Reuss Voigt Hill
#
# Bulk Modulus (GPa) = 50.36806 64.97907 57.67356
# Shear Modulus (GPa) = 40.57000 45.38260 42.97630
#
# Velocity S-wave (km/s) = 4.23461 4.47873 4.35838
# Velocity P-wave (km/s) = 6.79498 7.44755 7.12874
#
# Compressibility (1/GPa) = 0.01985385
#
# Stress axis : x y z
#
# Youngs Moduli (GPa) = 136.62561 138.44760 51.89204
#
# Poissons Ratio (x) = 0.22577 0.19811
# Poissons Ratio (y) = 0.22280 0.07946
# Poissons Ratio (z) = 0.52160 0.21199
#
# Static dielectric constant tensor:
#      x y z
#    x 1.888560 0.000000 0.000000 
#    y 0.000000 1.805110 0.000000 
#    z 0.000000 0.000000 1.880190 
# 
# From -- ./inp_files/29568.got.cif
#   From: 2010.05.17/outbox.cif.g08.bks.cpg/sg66_15_cif.got.tgz:29568.got - 2010.06.03 17:51:23.
