data_PCOD9496047
_publ_section_title
;
Structure prediction by ZEFSAII (Michael W. Deem and Ramdas Pophale) SiO2 
 PCOD9496047
Probable space group: C C C M
;
_chemical_formula_sum "Si O2"
_cell_formula_units_Z 72
_cell_length_a 18.009070
_cell_length_b 7.457773
_cell_length_c 23.417645
_cell_angle_alpha 90.000000
_cell_angle_beta 90.000000
_cell_angle_gamma 90.000000
_cell_volume 3145.166667
_symmetry_space_group_name_H-M "C C C M"
_symmetry_group_IT_number 66
_symmetry_cell_setting 'orthorhombic'
loop_
_space_group_symop_operation_xyz
x,y,z
-x,-y,z
x,-y,1/2-z
-x,y,1/2-z
-x,-y,-z
x,y,-z
-x,y,1/2+z
x,-y,1/2+z
1/2+x,1/2+y,z
1/2-x,1/2-y,z
1/2+x,1/2-y,1/2-z
1/2-x,1/2+y,1/2-z
1/2-x,1/2-y,-z
1/2+x,1/2+y,-z
1/2-x,1/2+y,1/2+z
1/2+x,1/2-y,1/2+z
loop_
_atom_site_type_symbol
_atom_site_label
_atom_site_fract_x
_atom_site_fract_y
_atom_site_fract_z
Si Si1 0.159661 0.740628 0.648141
Si Si2 0.250000 0.250000 0.358643
Si Si3 0.619232 0.203091 0.230262
Si Si4 0.431611 0.887803 0.121631
Si Si5 0.852836 0.947835 0.567190
O O1 0.250000 0.750000 0.653069
O O2 0.125842 0.801847 0.709618
O O3 0.130861 0.541381 0.632263
O O4 0.126736 0.871614 0.600161
O O5 0.317371 0.262281 0.313830
O O6 0.226511 0.098635 0.404131
O O7 0.550391 0.188272 0.186114
O O8 0.635771 0.000000 0.250000
O O9 0.403921 0.723398 0.083444
O O10 0.500000 0.000000 0.098380
O O11 0.849106 0.971200 0.500000
#
# Coordination Sequence:
#
# PCOD9496047 Si02
#       5
#    16   8  16  16  16
#     4  11  22  39  67 101 132 174 221 279 349 417
#     4  10  19  32  60  92 131 164 206 278 340 398
#     4   9  18  33  60  92 124 161 207 267 337 411
#     4  10  24  43  63  94 132 176 224 284 344 408
#     4  11  24  40  62  95 133 180 233 280 332 412
#
# _framework density 22.89227
#
# number of rings (size 3 to 8) (size 9 to 14) (size 15 to 20)
#    0.000    1.778    1.111    4.333    0.000    9.333 
#    0.000    1.111    0.000   13.333    0.000    0.000 
#    0.000    0.000    0.000    0.000    0.000    0.000 
#
# Total GULP energy -200442.682180 kJ/mol
# GULP energy per Si atom -5567.852283 kJ/mol
# Density = 2.284017 g / cm^3
# Si number density = 22.892270 Si / 1000 Ang^3
#
#
#
# Elastic Constant Matrix: (Units=GPa)
#
#
# Indices 1 2 3 4 5 6 
#
# 1 68.1682 13.6653 9.3901 0.0000 0.0000 0.0000
# 2 13.6653 87.9954 74.0230 0.0000 0.0000 0.0000
# 3 9.3901 74.0230 221.6861 0.0000 0.0000 0.0000
# 4 0.0000 0.0000 0.0000 32.2287 0.0000 0.0000
# 5 0.0000 0.0000 0.0000 0.0000 9.6274 0.0000
# 6 0.0000 0.0000 0.0000 0.0000 0.0000 22.9013
#
#
#
# Elastic Compliance Matrix: (Units=1/GPa)
#
#
# Indices 1 2 3 4 5 6 
#
# 1 0.015147 -0.002521 0.000200 0.000000 0.000000 0.000000
# 2 -0.002521 0.016223 -0.005310 0.000000 0.000000 0.000000
# 3 0.000200 -0.005310 0.006276 0.000000 0.000000 0.000000
# 4 0.000000 0.000000 0.000000 0.031028 0.000000 0.000000
# 5 0.000000 0.000000 0.000000 0.000000 0.103870 0.000000
# 6 0.000000 0.000000 0.000000 0.000000 0.000000 0.043666
#
#
# Mechanical properties :
#
#
# Convention : Reuss Voigt Hill
#
# Bulk Modulus (GPa) = 44.67453 63.55629 54.11541
# Shear Modulus (GPa) = 20.92644 31.66955 26.29799
#
# Velocity S-wave (km/s) = 3.02673 3.72347 3.39303
# Velocity P-wave (km/s) = 5.63669 6.80508 6.24825
#
# Compressibility (1/GPa) = 0.02238412
#
# Stress axis : x y z
#
# Youngs Moduli (GPa) = 66.01825 61.64228 159.34964
#
# Poissons Ratio (x) = 0.15538 -0.03188
# Poissons Ratio (y) = 0.16641 0.84617
# Poissons Ratio (z) = -0.01321 0.32733
#
# Static dielectric constant tensor:
#      x y z
#    x 2.089260 0.000000 0.000000 
#    y 0.000000 1.997520 0.000000 
#    z 0.000000 0.000000 1.832290 
# 
# From -- ./inp_files/51629.got.cif
#   From: 2010.05.17/outbox.cif.g08.bks.cpg/sg66_26_cif.got.tgz:51629.got - 2010.06.03 17:51:23.
