data_PCOD9496021
_publ_section_title
;
Structure prediction by ZEFSAII (Michael W. Deem and Ramdas Pophale) SiO2 
 PCOD9496021
Probable space group: C C C M
;
_chemical_formula_sum "Si O2"
_cell_formula_units_Z 116
_cell_length_a 22.508120
_cell_length_b 17.271563
_cell_length_c 14.351915
_cell_angle_alpha 90.000000
_cell_angle_beta 90.000000
_cell_angle_gamma 90.000000
_cell_volume 5579.312878
_symmetry_space_group_name_H-M "C C C M"
_symmetry_group_IT_number 66
_symmetry_cell_setting 'orthorhombic'
loop_
_space_group_symop_operation_xyz
x,y,z
-x,-y,z
x,-y,1/2-z
-x,y,1/2-z
-x,-y,-z
x,y,-z
-x,y,1/2+z
x,-y,1/2+z
1/2+x,1/2+y,z
1/2-x,1/2-y,z
1/2+x,1/2-y,1/2-z
1/2-x,1/2+y,1/2-z
1/2-x,1/2-y,-z
1/2+x,1/2+y,-z
1/2-x,1/2+y,1/2+z
1/2+x,1/2-y,1/2+z
loop_
_atom_site_type_symbol
_atom_site_label
_atom_site_fract_x
_atom_site_fract_y
_atom_site_fract_z
Si Si1 0.309446 0.416630 0.111937
Si Si2 0.855658 0.758339 0.808534
Si Si3 0.000000 0.000000 0.750000
Si Si4 0.112741 0.774127 0.899018
Si Si5 0.516501 0.217954 0.643721
Si Si6 0.905473 0.048827 0.106410
Si Si7 0.553877 0.952858 0.895113
Si Si8 0.678093 0.905642 0.887653
O O1 0.323756 0.337980 0.166557
O O2 0.357783 0.482827 0.131227
O O3 0.242041 0.440604 0.135301
O O4 0.311660 0.401129 0.000000
O O5 0.861379 0.742777 0.697763
O O6 0.922439 0.765845 0.851480
O O7 0.825842 0.683053 0.853666
O O8 0.958009 0.048461 0.818567
O O9 0.041561 0.758557 0.896984
O O10 0.122504 0.866161 0.894198
O O11 0.134931 0.745076 0.000000
O O12 0.500000 0.200186 0.750000
O O13 0.532678 0.135953 0.599478
O O14 0.926428 0.033673 0.000000
O O15 0.619295 0.949361 0.851227
O O16 0.500000 0.000000 0.851150
O O17 0.561177 0.985373 0.000000
O O18 0.672699 0.904046 0.000000
#
# Coordination Sequence:
#
# PCOD9496021 Si02
#       8
#    16  16   4  16  16  16  16  16
#     4  10  20  35  56  84 116 149 188 238 291 342
#     4  10  19  32  55  84 111 149 190 238 288 343
#     4  12  22  36  56  78 116 148 190 252 292 338
#     4  10  21  36  53  77 116 158 195 237 281 343
#     4   9  19  32  51  78 108 143 183 231 286 335
#     4  10  23  36  53  82 115 155 201 240 287 348
#     4   9  17  31  54  85 115 142 174 221 285 349
#     4   9  18  34  58  88 117 145 183 236 292 349
#
# _framework density 20.791090000000001
#
# number of rings (size 3 to 8) (size 9 to 14) (size 15 to 20)
#    0.000    2.345    0.000    2.276    4.828    3.034 
#    0.000    0.000    0.000   19.862    0.000    5.793 
#    0.000    0.000    0.000    0.000    0.000    0.000 
#
# Total GULP energy -323534.449636 kJ/mol
# GULP energy per Si atom -5578.180166 kJ/mol
# Density = 2.074377 g / cm^3
# Si number density = 20.791090 Si / 1000 Ang^3
#
#
#
# Elastic Constant Matrix: (Units=GPa)
#
#
# Indices 1 2 3 4 5 6 
#
# 1 113.6768 36.7044 31.0014 0.0000 0.0000 0.0000
# 2 36.7044 30.8552 16.9289 0.0000 0.0000 0.0000
# 3 31.0014 16.9289 84.7298 0.0000 0.0000 0.0000
# 4 0.0000 0.0000 0.0000 17.1274 0.0000 0.0000
# 5 0.0000 0.0000 0.0000 0.0000 20.9326 0.0000
# 6 0.0000 0.0000 0.0000 0.0000 0.0000 16.9004
#
#
#
# Elastic Compliance Matrix: (Units=1/GPa)
#
#
# Indices 1 2 3 4 5 6 
#
# 1 0.014609 -0.016224 -0.002104 0.000000 0.000000 0.000000
# 2 -0.016224 0.054418 -0.004936 0.000000 0.000000 0.000000
# 3 -0.002104 -0.004936 0.013558 0.000000 0.000000 0.000000
# 4 0.000000 0.000000 0.000000 0.058386 0.000000 0.000000
# 5 0.000000 0.000000 0.000000 0.000000 0.047772 0.000000
# 6 0.000000 0.000000 0.000000 0.000000 0.000000 0.059170
#
#
# Mechanical properties :
#
#
# Convention : Reuss Voigt Hill
#
# Bulk Modulus (GPa) = 27.73436 44.28127 36.00782
# Shear Modulus (GPa) = 16.31525 20.63387 18.47456
#
# Velocity S-wave (km/s) = 2.80433 3.15372 2.98414
# Velocity P-wave (km/s) = 4.88408 5.88266 5.40647
#
# Compressibility (1/GPa) = 0.03605635
#
# Stress axis : x y z
#
# Youngs Moduli (GPa) = 68.45009 18.37631 73.75616
#
# Poissons Ratio (x) = 0.29815 0.15516
# Poissons Ratio (y) = 1.11057 0.36409
# Poissons Ratio (z) = 0.14400 0.09071
#
# Static dielectric constant tensor:
#      x y z
#    x 1.777890 0.000000 0.000000 
#    y 0.000000 1.714480 0.000000 
#    z 0.000000 0.000000 1.791220 
# 
# From -- ./inp_files/32641.got.cif
#   From: 2010.05.17/outbox.cif.g08.bks.cpg/sg66_17_cif.got.tgz:32641.got - 2010.06.03 17:51:23.
