data_PCOD9496375
_publ_section_title
;
Structure prediction by ZEFSAII (Michael W. Deem and Ramdas Pophale) SiO2 
 PCOD9496375
Probable space group: C C C M
;
_chemical_formula_sum "Si O2"
_cell_formula_units_Z 116
_cell_length_a 28.149186
_cell_length_b 22.295294
_cell_length_c 8.709411
_cell_angle_alpha 90.000000
_cell_angle_beta 90.000000
_cell_angle_gamma 90.000000
_cell_volume 5465.977377
_symmetry_space_group_name_H-M "C C C M"
_symmetry_group_IT_number 66
_symmetry_cell_setting 'orthorhombic'
loop_
_space_group_symop_operation_xyz
x,y,z
-x,-y,z
x,-y,1/2-z
-x,y,1/2-z
-x,-y,-z
x,y,-z
-x,y,1/2+z
x,-y,1/2+z
1/2+x,1/2+y,z
1/2-x,1/2-y,z
1/2+x,1/2-y,1/2-z
1/2-x,1/2+y,1/2-z
1/2-x,1/2-y,-z
1/2+x,1/2+y,-z
1/2-x,1/2+y,1/2+z
1/2+x,1/2-y,1/2+z
loop_
_atom_site_type_symbol
_atom_site_label
_atom_site_fract_x
_atom_site_fract_y
_atom_site_fract_z
Si Si1 0.409594 0.582405 0.172795
Si Si2 0.500000 0.500000 0.250000
Si Si3 0.718012 0.061738 0.819777
Si Si4 0.551575 0.303874 0.680607
Si Si5 0.652097 0.838197 0.815219
Si Si6 0.685289 0.408354 0.322010
Si Si7 0.302799 0.277812 0.681876
Si Si8 0.949543 0.660396 0.821685
O O1 0.459960 0.546479 0.182386
O O2 0.417275 0.651953 0.217618
O O3 0.366959 0.565482 0.287105
O O4 0.392081 0.576804 0.000000
O O5 0.693263 0.116841 0.734237
O O6 0.774006 0.064487 0.784962
O O7 0.699157 0.000000 0.750000
O O8 0.709442 0.066162 0.000000
O O9 0.500000 0.315301 0.750000
O O10 0.555347 0.320525 0.500000
O O11 0.557619 0.232579 0.691926
O O12 0.662275 0.774782 0.735600
O O13 0.600801 0.863991 0.763330
O O14 0.651408 0.830414 0.000000
O O15 0.697230 0.417388 0.500000
O O16 0.687975 0.337444 0.280072
O O17 0.307473 0.290987 0.500000
O O18 0.250000 0.250000 0.706363
O O19 0.000000 0.644357 0.750000
O O20 0.953252 0.645577 0.000000
#
# Coordination Sequence:
#
# PCOD9496375 Si02
#       8
#    16   4  16  16  16  16  16  16
#     4  12  26  44  65  87 118 160 214 275 334 395
#     4  12  30  48  68  90 122 164 230 288 350 396
#     4  12  26  46  68  94 127 168 217 266 319 385
#     4  10  19  35  58  86 120 160 205 254 313 379
#     4  11  22  39  65  98 134 175 216 263 323 387
#     4  12  26  44  68  96 129 170 215 272 337 399
#     4  11  22  38  64 100 137 173 218 268 326 396
#     4   9  20  36  59  93 130 165 204 249 304 376
#
# _framework density 21.222187999999999
#
# number of rings (size 3 to 8) (size 9 to 14) (size 15 to 20)
#    0.000    0.966    2.069    5.172    0.966    4.966 
#    0.000    0.000    0.000    0.414    0.000    2.897 
#    0.000    0.000    0.000    0.000    0.000    0.000 
#
# Total GULP energy -323917.046526 kJ/mol
# GULP energy per Si atom -5584.776664 kJ/mol
# Density = 2.117389 g / cm^3
# Si number density = 21.222188 Si / 1000 Ang^3
#
#
#
# Elastic Constant Matrix: (Units=GPa)
#
#
# Indices 1 2 3 4 5 6 
#
# 1 111.4817 -12.5148 5.0850 0.0000 0.0000 0.0000
# 2 -12.5148 50.0558 -9.9807 0.0000 0.0000 0.0000
# 3 5.0850 -9.9807 67.6786 0.0000 0.0000 0.0000
# 4 0.0000 0.0000 0.0000 -26.4386 0.0000 0.0000
# 5 0.0000 0.0000 0.0000 0.0000 42.2922 0.0000
# 6 0.0000 0.0000 0.0000 0.0000 0.0000 6.1328
#
#
#
# Elastic Compliance Matrix: (Units=1/GPa)
#
#
# Indices 1 2 3 4 5 6 
#
# 1 0.009238 0.002237 -0.000364 0.000000 0.000000 0.000000
# 2 0.002237 0.021125 0.002947 0.000000 0.000000 0.000000
# 3 -0.000364 0.002947 0.015238 0.000000 0.000000 0.000000
# 4 0.000000 0.000000 0.000000 -0.037824 0.000000 0.000000
# 5 0.000000 0.000000 0.000000 0.000000 0.023645 0.000000
# 6 0.000000 0.000000 0.000000 0.000000 0.000000 0.163057
#
#
# Mechanical properties :
#
#
# Convention : Reuss Voigt Hill
#
# Bulk Modulus (GPa) = 18.10273 21.59944 19.85109
# Shear Modulus (GPa) = 24.60003 20.83908 22.71956
#
# Velocity S-wave (km/s) = 3.40835 3.13700 3.27549
# Velocity P-wave (km/s) = 4.90283 4.82917 4.86614
#
# Compressibility (1/GPa) = 0.05524027
#
# Stress axis : x y z
#
# Youngs Moduli (GPa) = 108.25066 47.33808 65.62667
#
# Poissons Ratio (x) = -0.10590 0.02390
# Poissons Ratio (y) = -0.24216 -0.19342
# Poissons Ratio (z) = 0.03942 -0.13952
#
# Static dielectric constant tensor:
#      x y z
#    x 1.796270 0.000000 0.000000 
#    y 0.000000 1.860050 0.000000 
#    z 0.000000 0.000000 1.711400 
# 
# From -- ./inp_files/10616.got.cif
#   From: 2010.05.17/outbox.cif.g08.bks.cpg/sg66_6_cif.got.tgz:10616.got - 2010.06.03 17:51:23.
