data_PCOD9496987
_publ_section_title
;
Structure prediction by ZEFSAII (Michael W. Deem and Ramdas Pophale) SiO2 
 PCOD9496987
Probable space group: C C C M
;
_chemical_formula_sum "Si O2"
_cell_formula_units_Z 84
_cell_length_a 14.463766
_cell_length_b 12.614464
_cell_length_c 22.635910
_cell_angle_alpha 90.000000
_cell_angle_beta 90.000000
_cell_angle_gamma 90.000000
_cell_volume 4129.981889
_symmetry_space_group_name_H-M "C C C M"
_symmetry_group_IT_number 66
_symmetry_cell_setting 'orthorhombic'
loop_
_space_group_symop_operation_xyz
x,y,z
-x,-y,z
x,-y,1/2-z
-x,y,1/2-z
-x,-y,-z
x,y,-z
-x,y,1/2+z
x,-y,1/2+z
1/2+x,1/2+y,z
1/2-x,1/2-y,z
1/2+x,1/2-y,1/2-z
1/2-x,1/2+y,1/2-z
1/2-x,1/2-y,-z
1/2+x,1/2+y,-z
1/2-x,1/2+y,1/2+z
1/2+x,1/2-y,1/2+z
loop_
_atom_site_type_symbol
_atom_site_label
_atom_site_fract_x
_atom_site_fract_y
_atom_site_fract_z
Si Si1 0.604391 0.964110 0.627023
Si Si2 0.660262 0.179691 0.773339
Si Si3 0.500000 0.500000 0.250000
Si Si4 0.639527 0.742909 0.432019
Si Si5 0.339631 0.816133 0.367047
Si Si6 0.010197 0.819847 0.161623
O O1 0.655990 0.923374 0.685905
O O2 0.604627 0.861447 0.585099
O O3 0.500000 0.000000 0.641841
O O4 0.651722 0.069982 0.602504
O O5 0.750000 0.250000 0.787150
O O6 0.662308 0.161197 0.703756
O O7 0.570229 0.245193 0.794424
O O8 0.465365 0.414027 0.200718
O O9 0.620620 0.718945 0.500000
O O10 0.750000 0.750000 0.423468
O O11 0.588398 0.659949 0.388453
O O12 0.250000 0.750000 0.383760
O O13 0.430108 0.743634 0.371642
#
# Coordination Sequence:
#
# PCOD9496987 Si02
#       6
#    16  16   4  16  16  16
#     4  11  20  35  64  89 120 168 208 271 322 376
#     4  10  20  35  54  83 125 168 216 250 310 380
#     4  12  24  36  66  86 136 182 204 246 328 410
#     4  10  23  45  71  94 121 162 226 278 315 378
#     4  11  22  35  53  90 134 165 210 258 320 386
#     4  11  21  40  58  90 127 169 212 261 316 381
#
# _framework density 20.339072000000002
#
# number of rings (size 3 to 8) (size 9 to 14) (size 15 to 20)
#    0.000    1.333    5.714    2.857    0.000    4.190 
#    0.000    0.476    0.000    2.286    0.000    0.000 
#    0.000    0.000    0.000    0.000    0.000    0.000 
#
# Total GULP energy -233875.525105 kJ/mol
# GULP energy per Si atom -5568.464883 kJ/mol
# Density = 2.029278 g / cm^3
# Si number density = 20.339072 Si / 1000 Ang^3
#
#
#
# Elastic Constant Matrix: (Units=GPa)
#
#
# Indices 1 2 3 4 5 6 
#
# 1 109.2399 22.4262 -0.6676 0.0000 0.0000 0.0000
# 2 22.4262 68.1138 -8.2900 0.0000 0.0000 0.0000
# 3 -0.6676 -8.2900 68.7320 0.0000 0.0000 0.0000
# 4 0.0000 0.0000 0.0000 9.4726 0.0000 0.0000
# 5 0.0000 0.0000 0.0000 0.0000 17.4898 0.0000
# 6 0.0000 0.0000 0.0000 0.0000 0.0000 28.4449
#
#
#
# Elastic Compliance Matrix: (Units=1/GPa)
#
#
# Indices 1 2 3 4 5 6 
#
# 1 0.009824 -0.003271 -0.000299 0.000000 0.000000 0.000000
# 2 -0.003271 0.015989 0.001897 0.000000 0.000000 0.000000
# 3 -0.000299 0.001897 0.014775 0.000000 0.000000 0.000000
# 4 0.000000 0.000000 0.000000 0.105568 0.000000 0.000000
# 5 0.000000 0.000000 0.000000 0.000000 0.057176 0.000000
# 6 0.000000 0.000000 0.000000 0.000000 0.000000 0.035156
#
#
# Mechanical properties :
#
#
# Convention : Reuss Voigt Hill
#
# Bulk Modulus (GPa) = 26.85172 30.33589 28.59381
# Shear Modulus (GPa) = 19.66584 26.58926 23.12755
#
# Velocity S-wave (km/s) = 3.11287 3.61958 3.37575
# Velocity P-wave (km/s) = 5.11377 5.69350 5.41141
#
# Compressibility (1/GPa) = 0.03724156
#
# Stress axis : x y z
#
# Youngs Moduli (GPa) = 101.79335 62.54269 67.68136
#
# Poissons Ratio (x) = 0.20457 0.02024
# Poissons Ratio (y) = 0.33295 -0.12837
# Poissons Ratio (z) = 0.03044 -0.11863
#
# Static dielectric constant tensor:
#      x y z
#    x 1.754280 0.000000 0.000000 
#    y 0.000000 1.762180 0.000000 
#    z 0.000000 0.000000 1.749390 
# 
# From -- ./inp_files/69452.got.cif
#   From: 2010.05.17/outbox.cif.g08.bks.cpg/sg66_35_cif.got.tgz:69452.got - 2010.06.03 17:51:23.
