data_PCOD9496270
_publ_section_title
;
Structure prediction by ZEFSAII (Michael W. Deem and Ramdas Pophale) SiO2 
 PCOD9496270
Probable space group: C C C M
;
_chemical_formula_sum "Si O2"
_cell_formula_units_Z 80
_cell_length_a 21.409819
_cell_length_b 8.503127
_cell_length_c 20.169193
_cell_angle_alpha 90.000000
_cell_angle_beta 90.000000
_cell_angle_gamma 90.000000
_cell_volume 3671.809855
_symmetry_space_group_name_H-M "C C C M"
_symmetry_group_IT_number 66
_symmetry_cell_setting 'orthorhombic'
loop_
_space_group_symop_operation_xyz
x,y,z
-x,-y,z
x,-y,1/2-z
-x,y,1/2-z
-x,-y,-z
x,y,-z
-x,y,1/2+z
x,-y,1/2+z
1/2+x,1/2+y,z
1/2-x,1/2-y,z
1/2+x,1/2-y,1/2-z
1/2-x,1/2+y,1/2-z
1/2-x,1/2-y,-z
1/2+x,1/2+y,-z
1/2-x,1/2+y,1/2+z
1/2+x,1/2-y,1/2+z
loop_
_atom_site_type_symbol
_atom_site_label
_atom_site_fract_x
_atom_site_fract_y
_atom_site_fract_z
Si Si1 0.969296 0.752726 0.426008
Si Si2 0.614495 0.798386 0.924685
Si Si3 0.810562 0.838149 0.289247
Si Si4 0.094397 0.558274 0.181174
Si Si5 0.155467 0.955518 0.074611
O O1 0.957991 0.688498 0.500000
O O2 0.954320 0.633345 0.368500
O O3 0.916691 0.889572 0.418389
O O4 0.043618 0.772758 0.421744
O O5 0.624674 0.922466 0.865489
O O6 0.656028 0.643196 0.918550
O O7 0.622444 0.863349 0.000000
O O8 0.750000 0.750000 0.261632
O O9 0.861410 0.700501 0.294425
O O10 0.803621 0.886838 0.366341
O O11 0.825904 0.000000 0.250000
O O12 0.067973 0.500000 0.250000
O O13 0.174948 0.912411 0.000000
#
# Coordination Sequence:
#
# PCOD9496270 Si02
#       5
#    16  16  16  16  16
#     4   9  18  33  54  82 118 161 197 223 264 327
#     4  10  19  34  57  85 121 159 189 221 272 338
#     4  11  24  43  64  81 105 144 190 240 297 359
#     4  11  22  35  54  82 114 147 191 242 284 330
#     4   9  19  36  59  88 119 150 189 235 278 328
#
# _framework density 21.78762
#
# number of rings (size 3 to 8) (size 9 to 14) (size 15 to 20)
#    0.000    2.000    0.000    3.600    0.000    6.800 
#    0.000    0.000    0.000    6.600    0.000    0.000 
#    0.000    0.000    0.000    0.000    0.000    0.000 
#
# Total GULP energy -222901.671130 kJ/mol
# GULP energy per Si atom -5572.541778 kJ/mol
# Density = 2.173803 g / cm^3
# Si number density = 21.787620 Si / 1000 Ang^3
#
#
#
# Elastic Constant Matrix: (Units=GPa)
#
#
# Indices 1 2 3 4 5 6 
#
# 1 21.6376 15.2068 9.4053 0.0000 0.0000 0.0000
# 2 15.2068 111.2042 70.2282 0.0000 0.0000 0.0000
# 3 9.4053 70.2282 165.5300 0.0000 0.0000 0.0000
# 4 0.0000 0.0000 0.0000 28.9158 0.0000 0.0000
# 5 0.0000 0.0000 0.0000 0.0000 15.3151 0.0000
# 6 0.0000 0.0000 0.0000 0.0000 0.0000 6.8854
#
#
#
# Elastic Compliance Matrix: (Units=1/GPa)
#
#
# Indices 1 2 3 4 5 6 
#
# 1 0.051131 -0.007045 0.000084 0.000000 0.000000 0.000000
# 2 -0.007045 0.013254 -0.005223 0.000000 0.000000 0.000000
# 3 0.000084 -0.005223 0.008252 0.000000 0.000000 0.000000
# 4 0.000000 0.000000 0.000000 0.034583 0.000000 0.000000
# 5 0.000000 0.000000 0.000000 0.000000 0.065295 0.000000
# 6 0.000000 0.000000 0.000000 0.000000 0.000000 0.145234
#
#
# Mechanical properties :
#
#
# Convention : Reuss Voigt Hill
#
# Bulk Modulus (GPa) = 20.71726 54.22805 37.47265
# Shear Modulus (GPa) = 13.95837 23.79201 18.87519
#
# Velocity S-wave (km/s) = 2.53386 3.30812 2.94654
# Velocity P-wave (km/s) = 4.25323 6.28769 5.36773
#
# Compressibility (1/GPa) = 0.04826893
#
# Stress axis : x y z
#
# Youngs Moduli (GPa) = 19.55777 75.44734 121.17713
#
# Poissons Ratio (x) = 0.53151 -0.01013
# Poissons Ratio (y) = 0.13778 0.63291
# Poissons Ratio (z) = -0.00164 0.39406
#
# Static dielectric constant tensor:
#      x y z
#    x 1.850350 0.000000 0.000000 
#    y 0.000000 1.831870 0.000000 
#    z 0.000000 0.000000 1.778500 
# 
# From -- ./inp_files/36998.got.cif
#   From: 2010.05.17/outbox.cif.g08.bks.cpg/sg66_19_cif.got.tgz:36998.got - 2010.06.03 17:51:23.
