data_PCOD9496449
_publ_section_title
;
Structure prediction by ZEFSAII (Michael W. Deem and Ramdas Pophale) SiO2 
 PCOD9496449
Probable space group: C C C M
;
_chemical_formula_sum "Si O2"
_cell_formula_units_Z 88
_cell_length_a 12.330664
_cell_length_b 11.764166
_cell_length_c 29.179547
_cell_angle_alpha 90.000000
_cell_angle_beta 90.000000
_cell_angle_gamma 90.000000
_cell_volume 4232.784451
_symmetry_space_group_name_H-M "C C C M"
_symmetry_group_IT_number 66
_symmetry_cell_setting 'orthorhombic'
loop_
_space_group_symop_operation_xyz
x,y,z
-x,-y,z
x,-y,1/2-z
-x,y,1/2-z
-x,-y,-z
x,y,-z
-x,y,1/2+z
x,-y,1/2+z
1/2+x,1/2+y,z
1/2-x,1/2-y,z
1/2+x,1/2-y,1/2-z
1/2-x,1/2+y,1/2-z
1/2-x,1/2-y,-z
1/2+x,1/2+y,-z
1/2-x,1/2+y,1/2+z
1/2+x,1/2-y,1/2+z
loop_
_atom_site_type_symbol
_atom_site_label
_atom_site_fract_x
_atom_site_fract_y
_atom_site_fract_z
Si Si1 0.053152 0.376132 0.947410
Si Si2 0.301070 0.375125 0.341023
Si Si3 0.025283 0.196808 0.130689
Si Si4 0.924898 0.387448 0.311706
Si Si5 0.771486 0.500000 0.750000
Si Si6 0.254715 0.078145 0.890968
O O1 0.007626 0.284513 0.911405
O O2 0.182330 0.387760 0.936789
O O3 0.000000 0.500000 0.938874
O O4 0.034020 0.344695 0.000000
O O5 0.250000 0.250000 0.335314
O O6 0.421571 0.379681 0.361089
O O7 0.290226 0.448464 0.293803
O O8 0.238501 0.444396 0.380646
O O9 0.018368 0.269457 0.178486
O O10 0.137020 0.131431 0.118854
O O11 0.855111 0.402077 0.266302
O O12 0.835205 0.377955 0.351479
O O13 0.000000 0.500000 0.316848
#
# Coordination Sequence:
#
# PCOD9496449 Si02
#       6
#    16  16  16  16   8  16
#     4  10  20  37  65  96 122 156 205 251 294 365
#     4  11  23  41  60  81 116 162 204 251 310 372
#     4  11  21  37  61  86 123 163 195 250 317 368
#     4  10  19  36  57  79 110 153 203 248 294 355
#     4  10  23  38  55  82 110 146 204 254 292 352
#     4  10  21  37  57  85 119 154 194 241 305 366
#
# _framework density 20.790096999999999
#
# number of rings (size 3 to 8) (size 9 to 14) (size 15 to 20)
#    0.000    1.636    0.000    8.455    0.000    4.364 
#    0.000   13.636    0.000    5.455    0.000    0.000 
#    0.000    0.000    0.000    0.000    0.000    0.000 
#
# Total GULP energy -245015.793232 kJ/mol
# GULP energy per Si atom -5568.540755 kJ/mol
# Density = 2.074278 g / cm^3
# Si number density = 20.790097 Si / 1000 Ang^3
#
#
#
# Elastic Constant Matrix: (Units=GPa)
#
#
# Indices 1 2 3 4 5 6 
#
# 1 91.0480 21.2106 33.3264 0.0000 0.0000 0.0000
# 2 21.2106 87.4850 26.2361 0.0000 0.0000 0.0000
# 3 33.3264 26.2361 98.0105 0.0000 0.0000 0.0000
# 4 0.0000 0.0000 0.0000 21.3762 0.0000 0.0000
# 5 0.0000 0.0000 0.0000 0.0000 23.0528 0.0000
# 6 0.0000 0.0000 0.0000 0.0000 0.0000 33.7213
#
#
#
# Elastic Compliance Matrix: (Units=1/GPa)
#
#
# Indices 1 2 3 4 5 6 
#
# 1 0.012847 -0.001962 -0.003843 0.000000 0.000000 0.000000
# 2 -0.001962 0.012728 -0.002740 0.000000 0.000000 0.000000
# 3 -0.003843 -0.002740 0.012243 0.000000 0.000000 0.000000
# 4 0.000000 0.000000 0.000000 0.046781 0.000000 0.000000
# 5 0.000000 0.000000 0.000000 0.000000 0.043379 0.000000
# 6 0.000000 0.000000 0.000000 0.000000 0.000000 0.029655
#
#
# Mechanical properties :
#
#
# Convention : Reuss Voigt Hill
#
# Bulk Modulus (GPa) = 48.24451 48.67661 48.46056
# Shear Modulus (GPa) = 27.52814 28.68142 28.10478
#
# Velocity S-wave (km/s) = 3.64276 3.71829 3.68072
# Velocity P-wave (km/s) = 6.39913 6.47290 6.43612
#
# Compressibility (1/GPa) = 0.02072775
#
# Stress axis : x y z
#
# Youngs Moduli (GPa) = 77.83901 78.56728 81.67811
#
# Poissons Ratio (x) = 0.15417 0.31390
# Poissons Ratio (y) = 0.15274 0.22379
# Poissons Ratio (z) = 0.29914 0.21527
#
# Static dielectric constant tensor:
#      x y z
#    x 1.828230 0.000000 0.000000 
#    y 0.000000 1.841350 0.000000 
#    z 0.000000 0.000000 1.741420 
# 
# From -- ./inp_files/68896.got.cif
#   From: 2010.05.17/outbox.cif.g08.bks.cpg/sg66_35_cif.got.tgz:68896.got - 2010.06.03 17:51:23.
