data_PCOD9496246
_publ_section_title
;
Structure prediction by ZEFSAII (Michael W. Deem and Ramdas Pophale) SiO2 
 PCOD9496246
Probable space group: C C C M
;
_chemical_formula_sum "Si O2"
_cell_formula_units_Z 68
_cell_length_a 12.852435
_cell_length_b 10.093940
_cell_length_c 24.859860
_cell_angle_alpha 90.000000
_cell_angle_beta 90.000000
_cell_angle_gamma 90.000000
_cell_volume 3225.112092
_symmetry_space_group_name_H-M "C C C M"
_symmetry_group_IT_number 66
_symmetry_cell_setting 'orthorhombic'
loop_
_space_group_symop_operation_xyz
x,y,z
-x,-y,z
x,-y,1/2-z
-x,y,1/2-z
-x,-y,-z
x,y,-z
-x,y,1/2+z
x,-y,1/2+z
1/2+x,1/2+y,z
1/2-x,1/2-y,z
1/2+x,1/2-y,1/2-z
1/2-x,1/2+y,1/2-z
1/2-x,1/2-y,-z
1/2+x,1/2+y,-z
1/2-x,1/2+y,1/2+z
1/2+x,1/2-y,1/2+z
loop_
_atom_site_type_symbol
_atom_site_label
_atom_site_fract_x
_atom_site_fract_y
_atom_site_fract_z
Si Si1 0.548683 0.350476 0.559443
Si Si2 0.882837 0.517388 0.686522
Si Si3 0.340694 0.567847 0.661396
Si Si4 0.140969 0.770435 0.881694
Si Si5 0.000000 0.000000 0.250000
O O1 0.500000 0.500000 0.557199
O O2 0.589528 0.320309 0.500000
O O3 0.627142 0.348995 0.609334
O O4 0.453877 0.257636 0.577568
O O5 0.888604 0.500000 0.750000
O O6 0.782902 0.427037 0.671361
O O7 0.857464 0.664248 0.665962
O O8 0.000000 0.500000 0.664616
O O9 0.363690 0.415293 0.644464
O O10 0.420224 0.585103 0.711951
O O11 0.250000 0.750000 0.911552
#
# Coordination Sequence:
#
# PCOD9496246 Si02
#       5
#    16  16  16  16   4
#     4   9  17  33  56  83 108 136 182 232 269 314
#     4  10  21  36  50  75 112 147 179 217 269 325
#     4  10  19  34  56  81 109 141 175 223 274 329
#     4   9  18  33  53  78 109 139 181 219 271 320
#     4  12  16  28  56  80 110 136 168 212 280 324
#
# _framework density 21.084537000000001
#
# number of rings (size 3 to 8) (size 9 to 14) (size 15 to 20)
#    0.000    2.353    4.706    0.000    0.000    2.353 
#    0.000    4.706    0.000    4.235    0.000    0.000 
#    0.000    0.000    0.000    0.000    0.000    0.000 
#
# Total GULP energy -189351.363952 kJ/mol
# GULP energy per Si atom -5569.157763 kJ/mol
# Density = 2.103655 g / cm^3
# Si number density = 21.084537 Si / 1000 Ang^3
#
#
#
# Elastic Constant Matrix: (Units=GPa)
#
#
# Indices 1 2 3 4 5 6 
#
# 1 188.0115 15.1772 76.6862 0.0000 0.0000 0.0000
# 2 15.1772 24.1523 17.3499 0.0000 0.0000 0.0000
# 3 76.6862 17.3499 142.3453 0.0000 0.0000 0.0000
# 4 0.0000 0.0000 0.0000 6.8408 0.0000 0.0000
# 5 0.0000 0.0000 0.0000 0.0000 6.7430 0.0000
# 6 0.0000 0.0000 0.0000 0.0000 0.0000 22.6905
#
#
#
# Elastic Compliance Matrix: (Units=1/GPa)
#
#
# Indices 1 2 3 4 5 6 
#
# 1 0.006889 -0.001823 -0.003489 0.000000 0.000000 0.000000
# 2 -0.001823 0.045859 -0.004608 0.000000 0.000000 0.000000
# 3 -0.003489 -0.004608 0.009467 0.000000 0.000000 0.000000
# 4 0.000000 0.000000 0.000000 0.146181 0.000000 0.000000
# 5 0.000000 0.000000 0.000000 0.000000 0.148303 0.000000
# 6 0.000000 0.000000 0.000000 0.000000 0.000000 0.044071
#
#
# Mechanical properties :
#
#
# Convention : Reuss Voigt Hill
#
# Bulk Modulus (GPa) = 23.59836 63.65952 43.62894
# Shear Modulus (GPa) = 11.50128 23.60792 17.55460
#
# Velocity S-wave (km/s) = 2.33809 3.34979 2.88858
# Velocity P-wave (km/s) = 4.30180 6.72455 5.64469
#
# Compressibility (1/GPa) = 0.04237583
#
# Stress axis : x y z
#
# Youngs Moduli (GPa) = 145.15571 21.80585 105.63478
#
# Poissons Ratio (x) = 0.03974 0.36859
# Poissons Ratio (y) = 0.26456 0.48674
# Poissons Ratio (z) = 0.50649 0.10048
#
# Static dielectric constant tensor:
#      x y z
#    x 1.877120 0.000000 0.000000 
#    y 0.000000 1.764140 0.000000 
#    z 0.000000 0.000000 1.751460 
# 
# From -- ./inp_files/63458.got.cif
#   From: 2010.05.17/outbox.cif.g08.bks.cpg/sg66_32_cif.got.tgz:63458.got - 2010.06.03 17:51:23.
