data_PCOD9496065
_publ_section_title
;
Structure prediction by ZEFSAII (Michael W. Deem and Ramdas Pophale) SiO2 
 PCOD9496065
Probable space group: C C C M
;
_chemical_formula_sum "Si O2"
_cell_formula_units_Z 96
_cell_length_a 19.339360
_cell_length_b 29.445572
_cell_length_c 9.213983
_cell_angle_alpha 90.000000
_cell_angle_beta 90.000000
_cell_angle_gamma 90.000000
_cell_volume 5246.981098
_symmetry_space_group_name_H-M "C C C M"
_symmetry_group_IT_number 66
_symmetry_cell_setting 'orthorhombic'
loop_
_space_group_symop_operation_xyz
x,y,z
-x,-y,z
x,-y,1/2-z
-x,y,1/2-z
-x,-y,-z
x,y,-z
-x,y,1/2+z
x,-y,1/2+z
1/2+x,1/2+y,z
1/2-x,1/2-y,z
1/2+x,1/2-y,1/2-z
1/2-x,1/2+y,1/2-z
1/2-x,1/2-y,-z
1/2+x,1/2+y,-z
1/2-x,1/2+y,1/2+z
1/2+x,1/2-y,1/2+z
loop_
_atom_site_type_symbol
_atom_site_label
_atom_site_fract_x
_atom_site_fract_y
_atom_site_fract_z
Si Si1 0.725855 0.801281 0.326386
Si Si2 0.570320 0.822757 0.667716
Si Si3 0.704577 0.959671 0.165125
Si Si4 0.931670 0.432624 0.833642
Si Si5 0.689384 0.622222 0.165819
Si Si6 0.574795 0.548074 0.177616
O O1 0.724207 0.809246 0.500000
O O2 0.750000 0.750000 0.298938
O O3 0.646131 0.808170 0.274081
O O4 0.781087 0.836162 0.258413
O O5 0.500000 0.808264 0.750000
O O6 0.565340 0.807676 0.500000
O O7 0.570922 0.877659 0.668986
O O8 0.634603 0.950201 0.250093
O O9 0.748930 0.914371 0.165187
O O10 0.741913 0.000000 0.250000
O O11 0.691901 0.973209 0.000000
O O12 0.000000 0.446832 0.750000
O O13 0.932792 0.447363 0.000000
O O14 0.624140 0.591101 0.211906
O O15 0.676734 0.637409 0.000000
O O16 0.597662 0.500000 0.250000
O O17 0.500000 0.556348 0.250000
O O18 0.572179 0.543513 0.000000
#
# Coordination Sequence:
#
# PCOD9496065 Si02
#       6
#    16  16  16  16  16  16
#     4  10  21  38  60  86 114 146 188 235 288 344
#     4   9  18  33  55  81 107 142 183 225 272 326
#     4  11  22  35  52  77 108 144 183 225 271 323
#     4  10  19  33  52  75 104 141 182 224 268 316
#     4  10  22  38  57  82 113 146 185 230 281 337
#     4  10  20  36  58  87 118 153 193 233 282 344
#
# _framework density 18.296236
#
# number of rings (size 3 to 8) (size 9 to 14) (size 15 to 20)
#    0.000    2.000    1.667    2.500    0.000    4.000 
#    0.000    2.500    0.000    4.000    0.000    0.000 
#    0.000    0.000    0.000    0.000    0.000    0.000 
#
# Total GULP energy -267673.552263 kJ/mol
# GULP energy per Si atom -5576.532339 kJ/mol
# Density = 1.825459 g / cm^3
# Si number density = 18.296236 Si / 1000 Ang^3
#
#
#
# Elastic Constant Matrix: (Units=GPa)
#
#
# Indices 1 2 3 4 5 6 
#
# 1 146.1222 52.5789 55.4716 0.0000 0.0000 0.0000
# 2 52.5789 90.5913 48.8767 0.0000 0.0000 0.0000
# 3 55.4716 48.8767 103.4346 0.0000 0.0000 0.0000
# 4 0.0000 0.0000 0.0000 22.2971 0.0000 0.0000
# 5 0.0000 0.0000 0.0000 0.0000 22.6971 0.0000
# 6 0.0000 0.0000 0.0000 0.0000 0.0000 31.2113
#
#
#
# Elastic Compliance Matrix: (Units=1/GPa)
#
#
# Indices 1 2 3 4 5 6 
#
# 1 0.009427 -0.003683 -0.003316 0.000000 0.000000 0.000000
# 2 -0.003683 0.016255 -0.005706 0.000000 0.000000 0.000000
# 3 -0.003316 -0.005706 0.014142 0.000000 0.000000 0.000000
# 4 0.000000 0.000000 0.000000 0.044849 0.000000 0.000000
# 5 0.000000 0.000000 0.000000 0.000000 0.044058 0.000000
# 6 0.000000 0.000000 0.000000 0.000000 0.000000 0.032040
#
#
# Mechanical properties :
#
#
# Convention : Reuss Voigt Hill
#
# Bulk Modulus (GPa) = 69.36825 72.66694 71.01760
# Shear Modulus (GPa) = 26.18006 27.45583 26.81795
#
# Velocity S-wave (km/s) = 3.78683 3.87800 3.83268
# Velocity P-wave (km/s) = 7.55753 7.73660 7.64759
#
# Compressibility (1/GPa) = 0.01441582
#
# Stress axis : x y z
#
# Youngs Moduli (GPa) = 106.07316 61.52139 70.70975
#
# Poissons Ratio (x) = 0.22657 0.23445
# Poissons Ratio (y) = 0.39064 0.40346
# Poissons Ratio (z) = 0.35170 0.35103
#
# Static dielectric constant tensor:
#      x y z
#    x 1.647370 0.000000 0.000000 
#    y 0.000000 1.628270 0.000000 
#    z 0.000000 0.000000 1.634290 
# 
# From -- ./inp_files/7979.got.cif
#   From: 2010.05.17/outbox.cif.g08.bks.cpg/sg66_4_cif.got.tgz:7979.got - 2010.06.03 17:51:23.
