data_PCOD9496710
_publ_section_title
;
Structure prediction by ZEFSAII (Michael W. Deem and Ramdas Pophale) SiO2 
 PCOD9496710
Probable space group: C C C M
;
_chemical_formula_sum "Si O2"
_cell_formula_units_Z 64
_cell_length_a 9.803481
_cell_length_b 15.934163
_cell_length_c 18.406267
_cell_angle_alpha 90.000000
_cell_angle_beta 90.000000
_cell_angle_gamma 90.000000
_cell_volume 2875.247831
_symmetry_space_group_name_H-M "C C C M"
_symmetry_group_IT_number 66
_symmetry_cell_setting 'orthorhombic'
loop_
_space_group_symop_operation_xyz
x,y,z
-x,-y,z
x,-y,1/2-z
-x,y,1/2-z
-x,-y,-z
x,y,-z
-x,y,1/2+z
x,-y,1/2+z
1/2+x,1/2+y,z
1/2-x,1/2-y,z
1/2+x,1/2-y,1/2-z
1/2-x,1/2+y,1/2-z
1/2-x,1/2-y,-z
1/2+x,1/2+y,-z
1/2-x,1/2+y,1/2+z
1/2+x,1/2-y,1/2+z
loop_
_atom_site_type_symbol
_atom_site_label
_atom_site_fract_x
_atom_site_fract_y
_atom_site_fract_z
Si Si1 0.356765 0.676057 0.415346
Si Si2 0.583993 0.372596 0.819212
Si Si3 0.364404 0.088771 0.710786
Si Si4 0.249098 0.491481 0.585643
O O1 0.400722 0.670784 0.500000
O O2 0.250000 0.750000 0.407877
O O3 0.485681 0.689342 0.362733
O O4 0.277864 0.588929 0.398047
O O5 0.500000 0.402797 0.750000
O O6 0.734610 0.350285 0.789380
O O7 0.623271 0.442297 0.878957
O O8 0.500000 0.119170 0.750000
O O9 0.374073 0.055793 0.627739
O O10 0.174058 0.500000 0.750000
O O11 0.239296 0.480851 0.500000
#
# Coordination Sequence:
#
# PCOD9496710 Si02
#       4
#    16  16  16  16
#     4  10  20  33  52  89 135 175 223 278 332 402
#     4  10  20  32  62  94 125 167 222 283 335 392
#     4   9  19  33  53  85 126 162 206 277 344 385
#     4   9  19  33  57  87 124 171 220 271 335 403
#
# _framework density 22.258952000000001
#
# number of rings (size 3 to 8) (size 9 to 14) (size 15 to 20)
#    1.500    1.000    0.000    3.000    3.500    2.000 
#    0.000    3.750    0.000    4.500    0.000    0.000 
#    0.000   46.000    0.000    0.000    0.000    0.000 
#
# Total GULP energy -178248.991464 kJ/mol
# GULP energy per Si atom -5570.280983 kJ/mol
# Density = 2.220829 g / cm^3
# Si number density = 22.258952 Si / 1000 Ang^3
#
#
#
# Elastic Constant Matrix: (Units=GPa)
#
#
# Indices 1 2 3 4 5 6 
#
# 1 168.3303 24.9905 69.2842 0.0000 0.0000 0.0000
# 2 24.9905 41.6705 28.1693 0.0000 0.0000 0.0000
# 3 69.2842 28.1693 140.9763 0.0000 0.0000 0.0000
# 4 0.0000 0.0000 0.0000 -3.5024 0.0000 0.0000
# 5 0.0000 0.0000 0.0000 0.0000 27.1968 0.0000
# 6 0.0000 0.0000 0.0000 0.0000 0.0000 12.4670
#
#
#
# Elastic Compliance Matrix: (Units=1/GPa)
#
#
# Indices 1 2 3 4 5 6 
#
# 1 0.007643 -0.002364 -0.003284 0.000000 0.000000 0.000000
# 2 -0.002364 0.028477 -0.004528 0.000000 0.000000 0.000000
# 3 -0.003284 -0.004528 0.009612 0.000000 0.000000 0.000000
# 4 0.000000 0.000000 0.000000 -0.285520 0.000000 0.000000
# 5 0.000000 0.000000 0.000000 0.000000 0.036769 0.000000
# 6 0.000000 0.000000 0.000000 0.000000 0.000000 0.080211
#
#
# Mechanical properties :
#
#
# Convention : Reuss Voigt Hill
#
# Bulk Modulus (GPa) = 39.40157 66.20722 52.80440
# Shear Modulus (GPa) = -53.19456 22.46782 -15.36337
#
# Velocity S-wave (km/s) = -4.89387 3.18053 -2.63004
# Velocity P-wave (km/s) = 3.76741 6.57999 3.81464
#
# Compressibility (1/GPa) = 0.02537970
#
# Stress axis : x y z
#
# Youngs Moduli (GPa) = 130.83273 35.11654 104.03428
#
# Poissons Ratio (x) = 0.08301 0.34166
# Poissons Ratio (y) = 0.30926 0.47110
# Poissons Ratio (z) = 0.42966 0.15902
#
# Static dielectric constant tensor:
#      x y z
#    x 1.885860 0.000000 0.000000 
#    y 0.000000 1.833080 0.000000 
#    z 0.000000 0.000000 1.852050 
# 
# From -- ./inp_files/14760.got.cif
#   From: 2010.05.17/outbox.cif.g08.bks.cpg/sg66_8_cif.got.tgz:14760.got - 2010.06.03 17:51:23.
