data_PCOD9496168
_publ_section_title
;
Structure prediction by ZEFSAII (Michael W. Deem and Ramdas Pophale) SiO2 
 PCOD9496168
Probable space group: C C C M
;
_chemical_formula_sum "Si O2"
_cell_formula_units_Z 112
_cell_length_a 14.829547
_cell_length_b 23.230324
_cell_length_c 13.866715
_cell_angle_alpha 90.000000
_cell_angle_beta 90.000000
_cell_angle_gamma 90.000000
_cell_volume 4777.016502
_symmetry_space_group_name_H-M "C C C M"
_symmetry_group_IT_number 66
_symmetry_cell_setting 'orthorhombic'
loop_
_space_group_symop_operation_xyz
x,y,z
-x,-y,z
x,-y,1/2-z
-x,y,1/2-z
-x,-y,-z
x,y,-z
-x,y,1/2+z
x,-y,1/2+z
1/2+x,1/2+y,z
1/2-x,1/2-y,z
1/2+x,1/2-y,1/2-z
1/2-x,1/2+y,1/2-z
1/2-x,1/2-y,-z
1/2+x,1/2+y,-z
1/2-x,1/2+y,1/2+z
1/2+x,1/2-y,1/2+z
loop_
_atom_site_type_symbol
_atom_site_label
_atom_site_fract_x
_atom_site_fract_y
_atom_site_fract_z
Si Si1 0.395028 0.241887 0.728397
Si Si2 0.310150 0.454231 0.616680
Si Si3 0.645085 0.319373 0.613548
Si Si4 0.939913 0.856035 0.384905
Si Si5 0.146183 0.367572 0.615963
Si Si6 0.734773 0.076079 0.617882
Si Si7 0.031073 0.436472 0.116659
O O1 0.500000 0.227208 0.750000
O O2 0.353624 0.259876 0.830060
O O3 0.395854 0.300895 0.666306
O O4 0.345196 0.191780 0.672278
O O5 0.317481 0.458549 0.500000
O O6 0.396147 0.416318 0.648315
O O7 0.222677 0.414738 0.636875
O O8 0.289841 0.519315 0.649071
O O9 0.654134 0.309752 0.500000
O O10 0.546715 0.348689 0.630841
O O11 0.717612 0.365445 0.647323
O O12 0.924418 0.851502 0.500000
O O13 0.148440 0.357769 0.500000
O O14 0.048032 0.392915 0.641939
O O15 0.734339 0.075195 0.500000
O O16 0.631741 0.074772 0.651682
O O17 0.000000 0.500000 0.144058
O O18 0.035757 0.435682 0.000000
#
# Coordination Sequence:
#
# PCOD9496168 Si02
#       7
#    16  16  16  16  16  16  16
#     4  10  21  38  57  80 116 159 206 251 297 354
#     4   9  17  30  54  90 123 151 189 238 303 373
#     4   9  19  36  58  82 115 161 207 252 297 347
#     4   9  18  34  56  84 118 155 194 241 298 358
#     4  10  19  33  58  91 123 156 193 241 306 370
#     4   9  16  30  55  88 124 159 198 243 297 366
#     4   9  15  28  54  89 126 160 191 235 298 365
#
# _framework density 23.445596999999999
#
# number of rings (size 3 to 8) (size 9 to 14) (size 15 to 20)
#    0.000    2.714    1.429    0.429    0.000    1.714 
#    0.000   10.000    0.000    5.571    0.000   19.000 
#    0.000    2.857    0.000    0.000    0.000    0.000 
#
# Total GULP energy -313480.357801 kJ/mol
# GULP energy per Si atom -5597.863532 kJ/mol
# Density = 2.339223 g / cm^3
# Si number density = 23.445597 Si / 1000 Ang^3
#
#
#
# Elastic Constant Matrix: (Units=GPa)
#
#
# Indices 1 2 3 4 5 6 
#
# 1 63.6086 31.1098 24.1297 0.0000 0.0000 0.0000
# 2 31.1098 119.4851 36.4777 0.0000 0.0000 0.0000
# 3 24.1297 36.4777 84.6666 0.0000 0.0000 0.0000
# 4 0.0000 0.0000 0.0000 5.2456 0.0000 0.0000
# 5 0.0000 0.0000 0.0000 0.0000 18.6487 0.0000
# 6 0.0000 0.0000 0.0000 0.0000 0.0000 30.2186
#
#
#
# Elastic Compliance Matrix: (Units=1/GPa)
#
#
# Indices 1 2 3 4 5 6 
#
# 1 0.019013 -0.003795 -0.003783 0.000000 0.000000 0.000000
# 2 -0.003795 0.010394 -0.003397 0.000000 0.000000 0.000000
# 3 -0.003783 -0.003397 0.014353 0.000000 0.000000 0.000000
# 4 0.000000 0.000000 0.000000 0.190636 0.000000 0.000000
# 5 0.000000 0.000000 0.000000 0.000000 0.053623 0.000000
# 6 0.000000 0.000000 0.000000 0.000000 0.000000 0.033092
#
#
# Mechanical properties :
#
#
# Convention : Reuss Voigt Hill
#
# Bulk Modulus (GPa) = 45.85247 50.13276 47.99261
# Shear Modulus (GPa) = 14.27221 22.55879 18.41550
#
# Velocity S-wave (km/s) = 2.46994 3.10526 2.80564
# Velocity P-wave (km/s) = 5.26626 5.85541 5.56864
#
# Compressibility (1/GPa) = 0.02180908
#
# Stress axis : x y z
#
# Youngs Moduli (GPa) = 52.59691 96.20606 69.67323
#
# Poissons Ratio (x) = 0.36512 0.26360
# Poissons Ratio (y) = 0.19961 0.23666
# Poissons Ratio (z) = 0.19900 0.32678
#
# Static dielectric constant tensor:
#      x y z
#    x 1.872640 0.000000 0.000000 
#    y 0.000000 1.812790 0.000000 
#    z 0.000000 0.000000 1.931520 
# 
# From -- ./inp_files/28678.got.cif
#   From: 2010.05.17/outbox.cif.g08.bks.cpg/sg66_15_cif.got.tgz:28678.got - 2010.06.03 17:51:23.
