data_PCOD9496739
_publ_section_title
;
Structure prediction by ZEFSAII (Michael W. Deem and Ramdas Pophale) SiO2 
 PCOD9496739
Probable space group: C C C M
;
_chemical_formula_sum "Si O2"
_cell_formula_units_Z 116
_cell_length_a 29.767610
_cell_length_b 22.384880
_cell_length_c 9.586434
_cell_angle_alpha 90.000000
_cell_angle_beta 90.000000
_cell_angle_gamma 90.000000
_cell_volume 6387.866398
_symmetry_space_group_name_H-M "C C C M"
_symmetry_group_IT_number 66
_symmetry_cell_setting 'orthorhombic'
loop_
_space_group_symop_operation_xyz
x,y,z
-x,-y,z
x,-y,1/2-z
-x,y,1/2-z
-x,-y,-z
x,y,-z
-x,y,1/2+z
x,-y,1/2+z
1/2+x,1/2+y,z
1/2-x,1/2-y,z
1/2+x,1/2-y,1/2-z
1/2-x,1/2+y,1/2-z
1/2-x,1/2-y,-z
1/2+x,1/2+y,-z
1/2-x,1/2+y,1/2+z
1/2+x,1/2-y,1/2+z
loop_
_atom_site_type_symbol
_atom_site_label
_atom_site_fract_x
_atom_site_fract_y
_atom_site_fract_z
Si Si1 0.042997 0.201399 0.336006
Si Si2 0.298746 0.561791 0.333074
Si Si3 0.095927 0.684280 0.168295
Si Si4 0.813783 0.256536 0.235883
Si Si5 0.361526 0.638893 0.157787
Si Si6 0.372820 0.940499 0.161801
Si Si7 0.224967 0.378090 0.654420
Si Si8 0.750000 0.750000 0.000000
O O1 0.033584 0.196648 0.500000
O O2 0.055201 0.270865 0.305457
O O3 0.088884 0.164374 0.310593
O O4 0.000000 0.181745 0.250000
O O5 0.293062 0.500000 0.250000
O O6 0.298671 0.555732 0.500000
O O7 0.343287 0.593165 0.272100
O O8 0.257456 0.602643 0.278938
O O9 0.138110 0.710735 0.251902
O O10 0.093891 0.614177 0.199705
O O11 0.106514 0.689209 0.000000
O O12 0.827376 0.195358 0.160758
O O13 0.784866 0.307514 0.158939
O O14 0.788712 0.243739 0.378432
O O15 0.361424 0.614017 0.000000
O O16 0.322489 0.912533 0.173010
O O17 0.377058 0.000000 0.250000
O O18 0.379757 0.955065 0.000000
O O19 0.242873 0.394274 0.500000
#
# Coordination Sequence:
#
# PCOD9496739 Si02
#       8
#    16  16  16  16  16  16  16   4
#     4   9  18  35  60  89 112 134 167 214 274 342
#     4  12  26  40  55  75 107 145 189 231 273 319
#     4   8  16  35  54  70 101 146 182 216 265 329
#     4  10  20  33  51  74 111 143 184 218 275 318
#     4  10  21  39  62  81 109 148 185 220 272 334
#     4   9  17  30  48  72 100 139 190 233 266 305
#     4  10  20  35  55  74 103 146 193 234 274 318
#     4  12  24  28  38  72 116 140 174 228 272 306
#
# _framework density 18.159428999999999
#
# number of rings (size 3 to 8) (size 9 to 14) (size 15 to 20)
#    0.000    2.207    0.000    5.379    3.862    2.207 
#    7.448    3.793    0.000    0.828    0.000    5.793 
#    0.000    0.000    0.000    0.000    0.000    0.000 
#
# Total GULP energy -322910.966433 kJ/mol
# GULP energy per Si atom -5567.430456 kJ/mol
# Density = 1.811810 g / cm^3
# Si number density = 18.159429 Si / 1000 Ang^3
#
#
#
# Elastic Constant Matrix: (Units=GPa)
#
#
# Indices 1 2 3 4 5 6 
#
# 1 74.4401 9.1599 36.9264 0.0000 0.0000 0.0000
# 2 9.1599 54.9295 23.5488 0.0000 0.0000 0.0000
# 3 36.9264 23.5488 101.5097 0.0000 0.0000 0.0000
# 4 0.0000 0.0000 0.0000 5.5735 0.0000 0.0000
# 5 0.0000 0.0000 0.0000 0.0000 31.6936 0.0000
# 6 0.0000 0.0000 0.0000 0.0000 0.0000 12.3300
#
#
#
# Elastic Compliance Matrix: (Units=1/GPa)
#
#
# Indices 1 2 3 4 5 6 
#
# 1 0.016393 -0.000197 -0.005918 0.000000 0.000000 0.000000
# 2 -0.000197 0.020218 -0.004619 0.000000 0.000000 0.000000
# 3 -0.005918 -0.004619 0.013076 0.000000 0.000000 0.000000
# 4 0.000000 0.000000 0.000000 0.179420 0.000000 0.000000
# 5 0.000000 0.000000 0.000000 0.000000 0.031552 0.000000
# 6 0.000000 0.000000 0.000000 0.000000 0.000000 0.081103
#
#
# Mechanical properties :
#
#
# Convention : Reuss Voigt Hill
#
# Bulk Modulus (GPa) = 35.43536 41.12773 38.28155
# Shear Modulus (GPa) = 13.41796 20.66904 17.04350
#
# Velocity S-wave (km/s) = 2.72122 3.37738 3.06690
# Velocity P-wave (km/s) = 5.42487 6.15680 5.80239
#
# Compressibility (1/GPa) = 0.02822040
#
# Stress axis : x y z
#
# Youngs Moduli (GPa) = 61.00012 49.46078 76.47886
#
# Poissons Ratio (x) = 0.00973 0.45259
# Poissons Ratio (y) = 0.01200 0.35324
# Poissons Ratio (z) = 0.36099 0.22845
#
# Static dielectric constant tensor:
#      x y z
#    x 1.631120 0.000000 0.000000 
#    y 0.000000 1.668760 0.000000 
#    z 0.000000 0.000000 1.609530 
# 
# From -- ./inp_files/11705.got.cif
#   From: 2010.05.17/outbox.cif.g08.bks.cpg/sg66_6_cif.got.tgz:11705.got - 2010.06.03 17:51:23.
