data_PCOD9496345
_publ_section_title
;
Structure prediction by ZEFSAII (Michael W. Deem and Ramdas Pophale) SiO2 
 PCOD9496345
Probable space group: C C C M
;
_chemical_formula_sum "Si O2"
_cell_formula_units_Z 116
_cell_length_a 9.084993
_cell_length_b 24.776574
_cell_length_c 26.176959
_cell_angle_alpha 90.000000
_cell_angle_beta 90.000000
_cell_angle_gamma 90.000000
_cell_volume 5892.302622
_symmetry_space_group_name_H-M "C C C M"
_symmetry_group_IT_number 66
_symmetry_cell_setting 'orthorhombic'
loop_
_space_group_symop_operation_xyz
x,y,z
-x,-y,z
x,-y,1/2-z
-x,y,1/2-z
-x,-y,-z
x,y,-z
-x,y,1/2+z
x,-y,1/2+z
1/2+x,1/2+y,z
1/2-x,1/2-y,z
1/2+x,1/2-y,1/2-z
1/2-x,1/2+y,1/2-z
1/2-x,1/2-y,-z
1/2+x,1/2+y,-z
1/2-x,1/2+y,1/2+z
1/2+x,1/2-y,1/2+z
loop_
_atom_site_type_symbol
_atom_site_label
_atom_site_fract_x
_atom_site_fract_y
_atom_site_fract_z
Si Si1 0.379775 0.580451 0.330751
Si Si2 0.509740 0.565349 0.944082
Si Si3 0.013721 0.267631 0.444708
Si Si4 0.000000 0.000000 0.250000
Si Si5 0.289283 0.661851 0.075631
Si Si6 0.869252 0.631776 0.224121
Si Si7 0.080506 0.736476 0.669999
Si Si8 0.365154 0.334040 0.690626
O O1 0.404386 0.574218 0.391118
O O2 0.399486 0.532100 0.290484
O O3 0.220182 0.603417 0.320341
O O4 0.509113 0.620712 0.313075
O O5 0.500000 0.500000 0.945470
O O6 0.362878 0.604002 0.938935
O O7 0.573449 0.580926 0.000000
O O8 0.936891 0.269595 0.500000
O O9 0.132063 0.316805 0.443579
O O10 0.100329 0.210126 0.441381
O O11 0.927665 0.268825 0.391368
O O12 0.280881 0.664392 0.136918
O O13 0.952015 0.681112 0.197726
O O14 0.744733 0.652627 0.263646
O O15 0.000000 0.598188 0.250000
O O16 0.250000 0.750000 0.683161
O O17 0.959612 0.779022 0.689924
#
# Coordination Sequence:
#
# PCOD9496345 Si02
#       8
#    16  16  16   4  16  16  16  16
#     4  11  22  39  63  89 119 163 206 256 309 366
#     4  10  20  35  60  95 124 155 207 264 313 371
#     4  10  19  35  55  79 118 162 198 241 301 367
#     4  12  20  40  68  88 120 160 218 246 312 358
#     4   9  18  34  57  86 116 152 202 248 299 369
#     4  12  25  38  59  88 125 162 202 250 308 374
#     4  11  24  36  55  88 121 160 201 249 304 375
#     4  10  21  39  59  85 121 159 197 246 306 372
#
# _framework density 19.686699999999998
#
# number of rings (size 3 to 8) (size 9 to 14) (size 15 to 20)
#    0.000    1.517    3.448    2.483    1.931    1.379 
#    0.000    1.034    0.000    0.000    0.000    0.000 
#    0.000    9.931    0.000    0.000    0.000    0.000 
#
# Total GULP energy -323178.778611 kJ/mol
# GULP energy per Si atom -5572.047907 kJ/mol
# Density = 1.964189 g / cm^3
# Si number density = 19.686700 Si / 1000 Ang^3
#
#
#
# Elastic Constant Matrix: (Units=GPa)
#
#
# Indices 1 2 3 4 5 6 
#
# 1 71.4523 20.5883 27.9124 0.0000 0.0000 0.0000
# 2 20.5883 78.6526 20.8876 0.0000 0.0000 0.0000
# 3 27.9124 20.8876 154.1519 0.0000 0.0000 0.0000
# 4 0.0000 0.0000 0.0000 23.6376 0.0000 0.0000
# 5 0.0000 0.0000 0.0000 0.0000 11.7134 0.0000
# 6 0.0000 0.0000 0.0000 0.0000 0.0000 -13.7670
#
#
#
# Elastic Compliance Matrix: (Units=1/GPa)
#
#
# Indices 1 2 3 4 5 6 
#
# 1 0.015956 -0.003537 -0.002410 0.000000 0.000000 0.000000
# 2 -0.003537 0.013973 -0.001253 0.000000 0.000000 0.000000
# 3 -0.002410 -0.001253 0.007093 0.000000 0.000000 0.000000
# 4 0.000000 0.000000 0.000000 0.042306 0.000000 0.000000
# 5 0.000000 0.000000 0.000000 0.000000 0.085372 0.000000
# 6 0.000000 0.000000 0.000000 0.000000 0.000000 -0.072637
#
#
# Mechanical properties :
#
#
# Convention : Reuss Voigt Hill
#
# Bulk Modulus (GPa) = 44.20328 49.22594 46.71461
# Shear Modulus (GPa) = 43.85896 19.97470 31.91683
#
# Velocity S-wave (km/s) = 4.72513 3.18878 4.03083
# Velocity P-wave (km/s) = 7.22988 6.21423 6.74121
#
# Compressibility (1/GPa) = 0.02262276
#
# Stress axis : x y z
#
# Youngs Moduli (GPa) = 62.67302 71.56847 140.97925
#
# Poissons Ratio (x) = 0.25311 0.33975
# Poissons Ratio (y) = 0.22165 0.17663
# Poissons Ratio (z) = 0.15104 0.08967
#
# Static dielectric constant tensor:
#      x y z
#    x 1.446890 0.000000 0.000000 
#    y 0.000000 1.796940 0.000000 
#    z 0.000000 0.000000 1.661780 
# 
# From -- ./inp_files/62894.got.cif
#   From: 2010.05.17/outbox.cif.g08.bks.cpg/sg66_32_cif.got.tgz:62894.got - 2010.06.03 17:51:23.
