data_PCOD9496330
_publ_section_title
;
Structure prediction by ZEFSAII (Michael W. Deem and Ramdas Pophale) SiO2 
 PCOD9496330
Probable space group: C C C M
;
_chemical_formula_sum "Si O2"
_cell_formula_units_Z 96
_cell_length_a 23.699141
_cell_length_b 12.249286
_cell_length_c 14.236992
_cell_angle_alpha 90.000000
_cell_angle_beta 90.000000
_cell_angle_gamma 90.000000
_cell_volume 4132.963983
_symmetry_space_group_name_H-M "C C C M"
_symmetry_group_IT_number 66
_symmetry_cell_setting 'orthorhombic'
loop_
_space_group_symop_operation_xyz
x,y,z
-x,-y,z
x,-y,1/2-z
-x,y,1/2-z
-x,-y,-z
x,y,-z
-x,y,1/2+z
x,-y,1/2+z
1/2+x,1/2+y,z
1/2-x,1/2-y,z
1/2+x,1/2-y,1/2-z
1/2-x,1/2+y,1/2-z
1/2-x,1/2-y,-z
1/2+x,1/2+y,-z
1/2-x,1/2+y,1/2+z
1/2+x,1/2-y,1/2+z
loop_
_atom_site_type_symbol
_atom_site_label
_atom_site_fract_x
_atom_site_fract_y
_atom_site_fract_z
Si Si1 0.750000 0.750000 0.724137
Si Si2 0.139869 0.313349 0.610029
Si Si3 0.870939 0.029026 0.612415
Si Si4 0.776108 0.000000 0.750000
Si Si5 0.565877 0.015723 0.614546
Si Si6 0.039693 0.138882 0.389758
Si Si7 0.576192 0.258322 0.614172
O O1 0.806742 0.733508 0.663590
O O2 0.750956 0.876192 0.768780
O O3 0.154927 0.326489 0.500000
O O4 0.111639 0.426503 0.644152
O O5 0.088085 0.229319 0.615712
O O6 0.868011 0.018404 0.500000
O O7 0.875993 0.155859 0.639433
O O8 0.816758 0.980663 0.661025
O O9 0.928726 0.969430 0.644038
O O10 0.565427 0.010829 0.500000
O O11 0.583391 0.135930 0.646410
O O12 0.500000 0.000000 0.641678
O O13 0.027192 0.118390 0.500000
O O14 0.982563 0.190381 0.351500
O O15 0.573921 0.254058 0.500000
#
# Coordination Sequence:
#
# PCOD9496330 Si02
#       7
#     8  16  16   8  16  16  16
#     4  12  27  46  65  86 122 168 224 280 334 372
#     4  10  19  34  63  95 123 162 215 268 321 386
#     4  10  21  39  64  94 129 168 212 261 322 391
#     4  12  28  48  69  94 123 170 218 282 326 382
#     4   9  15  26  50  90 133 168 207 257 317 388
#     4   9  15  29  56  91 126 161 200 248 308 379
#     4   9  16  28  54  93 136 171 199 250 323 392
#
# _framework density 23.227882000000001
#
# number of rings (size 3 to 8) (size 9 to 14) (size 15 to 20)
#    0.000    2.167    3.333    0.750    0.000    4.000 
#    0.000    2.083    0.000    0.000    0.000    0.000 
#    0.000    0.000    0.000    0.000    0.000    0.000 
#
# Total GULP energy -267807.376295 kJ/mol
# GULP energy per Si atom -5579.320339 kJ/mol
# Density = 2.317501 g / cm^3
# Si number density = 23.227882 Si / 1000 Ang^3
#
#
#
# Elastic Constant Matrix: (Units=GPa)
#
#
# Indices 1 2 3 4 5 6 
#
# 1 55.2512 35.4763 10.1369 0.0000 0.0000 0.0000
# 2 35.4763 203.7803 19.4280 0.0000 0.0000 0.0000
# 3 10.1369 19.4280 71.9136 0.0000 0.0000 0.0000
# 4 0.0000 0.0000 0.0000 8.5765 0.0000 0.0000
# 5 0.0000 0.0000 0.0000 0.0000 22.3288 0.0000
# 6 0.0000 0.0000 0.0000 0.0000 0.0000 33.1103
#
#
#
# Elastic Compliance Matrix: (Units=1/GPa)
#
#
# Indices 1 2 3 4 5 6 
#
# 1 0.020651 -0.003405 -0.001991 0.000000 0.000000 0.000000
# 2 -0.003405 0.005599 -0.001032 0.000000 0.000000 0.000000
# 3 -0.001991 -0.001032 0.014465 0.000000 0.000000 0.000000
# 4 0.000000 0.000000 0.000000 0.116598 0.000000 0.000000
# 5 0.000000 0.000000 0.000000 0.000000 0.044785 0.000000
# 6 0.000000 0.000000 0.000000 0.000000 0.000000 0.030202
#
#
# Mechanical properties :
#
#
# Convention : Reuss Voigt Hill
#
# Bulk Modulus (GPa) = 35.89750 51.22527 43.56138
# Shear Modulus (GPa) = 19.65076 30.53005 25.09040
#
# Velocity S-wave (km/s) = 2.91176 3.62936 3.29018
# Velocity P-wave (km/s) = 5.17615 6.29795 5.76440
#
# Compressibility (1/GPa) = 0.02785710
#
# Stress axis : x y z
#
# Youngs Moduli (GPa) = 48.42391 178.61882 69.13162
#
# Poissons Ratio (x) = 0.60826 0.13764
# Poissons Ratio (y) = 0.16490 0.07138
# Poissons Ratio (z) = 0.09641 0.18442
#
# Static dielectric constant tensor:
#      x y z
#    x 1.839160 0.000000 0.000000 
#    y 0.000000 2.014880 0.000000 
#    z 0.000000 0.000000 1.850060 
# 
# From -- ./inp_files/43641.got.cif
#   From: 2010.05.17/outbox.cif.g08.bks.cpg/sg66_22_cif.got.tgz:43641.got - 2010.06.03 17:51:23.
