data_PCOD9496584
_publ_section_title
;
Structure prediction by ZEFSAII (Michael W. Deem and Ramdas Pophale) SiO2 
 PCOD9496584
Probable space group: C C C M
;
_chemical_formula_sum "Si O2"
_cell_formula_units_Z 116
_cell_length_a 11.094957
_cell_length_b 17.592810
_cell_length_c 30.542596
_cell_angle_alpha 90.000000
_cell_angle_beta 90.000000
_cell_angle_gamma 90.000000
_cell_volume 5961.654225
_symmetry_space_group_name_H-M "C C C M"
_symmetry_group_IT_number 66
_symmetry_cell_setting 'orthorhombic'
loop_
_space_group_symop_operation_xyz
x,y,z
-x,-y,z
x,-y,1/2-z
-x,y,1/2-z
-x,-y,-z
x,y,-z
-x,y,1/2+z
x,-y,1/2+z
1/2+x,1/2+y,z
1/2-x,1/2-y,z
1/2+x,1/2-y,1/2-z
1/2-x,1/2+y,1/2-z
1/2-x,1/2-y,-z
1/2+x,1/2+y,-z
1/2-x,1/2+y,1/2+z
1/2+x,1/2-y,1/2+z
loop_
_atom_site_type_symbol
_atom_site_label
_atom_site_fract_x
_atom_site_fract_y
_atom_site_fract_z
Si Si1 0.169484 0.326282 0.222813
Si Si2 0.048052 0.191125 0.369778
Si Si3 0.626678 0.527326 0.599374
Si Si4 0.107635 0.438754 0.404639
Si Si5 0.902873 0.335510 0.817993
Si Si6 0.610736 0.778030 0.550819
Si Si7 0.636927 0.408699 0.322824
Si Si8 0.000000 0.000000 0.250000
O O1 0.250000 0.250000 0.219788
O O2 0.035444 0.323017 0.203409
O O3 0.231396 0.387320 0.191733
O O4 0.174016 0.349351 0.274163
O O5 0.113441 0.112893 0.382363
O O6 0.025985 0.230836 0.416393
O O7 0.118236 0.254712 0.342099
O O8 0.933810 0.163681 0.342049
O O9 0.500000 0.500000 0.576106
O O10 0.762714 0.525528 0.581257
O O11 0.631859 0.471092 0.640069
O O12 0.094283 0.365570 0.436020
O O13 0.000000 0.500000 0.407326
O O14 0.107642 0.400873 0.355210
O O15 0.585883 0.764784 0.500000
O O16 0.750000 0.750000 0.558913
O O17 0.574092 0.444214 0.280853
#
# Coordination Sequence:
#
# PCOD9496584 Si02
#       8
#    16  16  16  16  16  16  16   4
#     4  11  23  35  53  81 122 166 218 271 313 371
#     4  10  19  39  59  89 119 159 215 261 319 386
#     4  10  21  38  59  88 119 168 215 252 317 385
#     4  11  23  41  65  93 132 169 207 267 334 399
#     4  10  24  37  55  86 119 168 218 265 321 374
#     4  10  21  39  70 102 125 159 213 272 330 402
#     4  11  23  36  55  81 121 163 209 264 313 370
#     4  12  24  32  52  86 106 160 222 256 298 360
#
# _framework density 19.457685999999999
#
# number of rings (size 3 to 8) (size 9 to 14) (size 15 to 20)
#    0.000    1.517    4.828    0.828    5.793    0.276 
#    0.000    0.690    0.000    7.448    0.000   19.310 
#    0.000    0.000    0.000    0.000    0.000    0.000 
#
# Total GULP energy -323149.277939 kJ/mol
# GULP energy per Si atom -5571.539275 kJ/mol
# Density = 1.941340 g / cm^3
# Si number density = 19.457686 Si / 1000 Ang^3
#
#
#
# Elastic Constant Matrix: (Units=GPa)
#
#
# Indices 1 2 3 4 5 6 
#
# 1 96.5364 37.8450 21.2260 0.0000 0.0000 0.0000
# 2 37.8450 96.8745 23.7631 0.0000 0.0000 0.0000
# 3 21.2260 23.7631 82.1696 0.0000 0.0000 0.0000
# 4 0.0000 0.0000 0.0000 26.8039 0.0000 0.0000
# 5 0.0000 0.0000 0.0000 0.0000 -6.9755 0.0000
# 6 0.0000 0.0000 0.0000 0.0000 0.0000 12.8314
#
#
#
# Elastic Compliance Matrix: (Units=1/GPa)
#
#
# Indices 1 2 3 4 5 6 
#
# 1 0.012518 -0.004410 -0.001958 0.000000 0.000000 0.000000
# 2 -0.004410 0.012664 -0.002523 0.000000 0.000000 0.000000
# 3 -0.001958 -0.002523 0.013406 0.000000 0.000000 0.000000
# 4 0.000000 0.000000 0.000000 0.037308 0.000000 0.000000
# 5 0.000000 0.000000 0.000000 0.000000 -0.143358 0.000000
# 6 0.000000 0.000000 0.000000 0.000000 0.000000 0.077934
#
#
# Mechanical properties :
#
#
# Convention : Reuss Voigt Hill
#
# Bulk Modulus (GPa) = 48.06563 49.02764 48.54663
# Shear Modulus (GPa) = 142.08441 19.38170 80.73306
#
# Velocity S-wave (km/s) = 8.55458 3.15952 6.44839
# Velocity P-wave (km/s) = 11.06032 6.20982 8.96918
#
# Compressibility (1/GPa) = 0.02080489
#
# Stress axis : x y z
#
# Youngs Moduli (GPa) = 79.88358 78.96143 74.59594
#
# Poissons Ratio (x) = 0.34822 0.14608
# Poissons Ratio (y) = 0.35229 0.18823
# Poissons Ratio (z) = 0.15644 0.19924
#
# Static dielectric constant tensor:
#      x y z
#    x 2.371450 0.000000 0.000000 
#    y 0.000000 1.730350 0.000000 
#    z 0.000000 0.000000 1.651160 
# 
# From -- ./inp_files/69205.got.cif
#   From: 2010.05.17/outbox.cif.g08.bks.cpg/sg66_35_cif.got.tgz:69205.got - 2010.06.03 17:51:23.
