data_PCOD9496071
_publ_section_title
;
Structure prediction by ZEFSAII (Michael W. Deem and Ramdas Pophale) SiO2 
 PCOD9496071
Probable space group: C C C M
;
_chemical_formula_sum "Si O2"
_cell_formula_units_Z 96
_cell_length_a 25.787192
_cell_length_b 12.285824
_cell_length_c 17.601874
_cell_angle_alpha 90.000000
_cell_angle_beta 90.000000
_cell_angle_gamma 90.000000
_cell_volume 5576.571197
_symmetry_space_group_name_H-M "C C C M"
_symmetry_group_IT_number 66
_symmetry_cell_setting 'orthorhombic'
loop_
_space_group_symop_operation_xyz
x,y,z
-x,-y,z
x,-y,1/2-z
-x,y,1/2-z
-x,-y,-z
x,y,-z
-x,y,1/2+z
x,-y,1/2+z
1/2+x,1/2+y,z
1/2-x,1/2-y,z
1/2+x,1/2-y,1/2-z
1/2-x,1/2+y,1/2-z
1/2-x,1/2-y,-z
1/2+x,1/2+y,-z
1/2-x,1/2+y,1/2+z
1/2+x,1/2-y,1/2+z
loop_
_atom_site_type_symbol
_atom_site_label
_atom_site_fract_x
_atom_site_fract_y
_atom_site_fract_z
Si Si1 0.147961 0.223320 0.301841
Si Si2 0.695378 0.902469 0.410869
Si Si3 0.183031 0.953707 0.911857
Si Si4 0.939815 0.625879 0.767784
Si Si5 0.879593 0.392609 0.584852
Si Si6 0.807569 0.202820 0.366323
O O1 0.177998 0.307561 0.355582
O O2 0.147924 0.113235 0.352041
O O3 0.095184 0.286066 0.277133
O O4 0.178081 0.204180 0.223027
O O5 0.687606 0.875053 0.500000
O O6 0.756400 0.922661 0.400162
O O7 0.659435 0.007967 0.394154
O O8 0.183087 0.082299 0.896959
O O9 0.169570 0.930165 0.000000
O O10 0.925947 0.500000 0.750000
O O11 0.925430 0.629264 0.856389
O O12 0.000000 0.642170 0.750000
O O13 0.898398 0.413396 0.500000
O O14 0.844618 0.285791 0.590202
O O15 0.750000 0.250000 0.376347
#
# Coordination Sequence:
#
# PCOD9496071 Si02
#       6
#    16  16  16  16  16  16
#     4  11  22  35  54  81 112 148 189 238 292 344
#     4  10  19  33  52  79 117 152 181 220 283 351
#     4  11  22  35  52  79 119 158 192 226 276 343
#     4  10  21  40  61  83 111 145 192 250 300 343
#     4  10  20  35  57  83 115 150 186 232 286 341
#     4  11  21  33  54  80 114 155 197 232 270 333
#
# _framework density 17.214880000000001
#
# number of rings (size 3 to 8) (size 9 to 14) (size 15 to 20)
#    0.000    1.500    3.333    3.000    0.000    2.000 
#    0.000    3.333    0.000    8.000    0.000    5.833 
#    0.000    0.000    0.000    0.000    0.000    0.000 
#
# Total GULP energy -267767.179159 kJ/mol
# GULP energy per Si atom -5578.482899 kJ/mol
# Density = 1.717570 g / cm^3
# Si number density = 17.214880 Si / 1000 Ang^3
#
#
#
# Elastic Constant Matrix: (Units=GPa)
#
#
# Indices 1 2 3 4 5 6 
#
# 1 69.6634 14.0423 38.7211 0.0000 0.0000 0.0000
# 2 14.0423 85.7756 19.7585 0.0000 0.0000 0.0000
# 3 38.7211 19.7585 65.1083 0.0000 0.0000 0.0000
# 4 0.0000 0.0000 0.0000 30.7379 0.0000 0.0000
# 5 0.0000 0.0000 0.0000 0.0000 -25.5167 0.0000
# 6 0.0000 0.0000 0.0000 0.0000 0.0000 12.8866
#
#
#
# Elastic Compliance Matrix: (Units=1/GPa)
#
#
# Indices 1 2 3 4 5 6 
#
# 1 0.021473 -0.000617 -0.012583 0.000000 0.000000 0.000000
# 2 -0.000617 0.012552 -0.003442 0.000000 0.000000 0.000000
# 3 -0.012583 -0.003442 0.023887 0.000000 0.000000 0.000000
# 4 0.000000 0.000000 0.000000 0.032533 0.000000 0.000000
# 5 0.000000 0.000000 0.000000 0.000000 -0.039190 0.000000
# 6 0.000000 0.000000 0.000000 0.000000 0.000000 0.077600
#
#
# Mechanical properties :
#
#
# Convention : Reuss Voigt Hill
#
# Bulk Modulus (GPa) = 40.60482 40.62124 40.61303
# Shear Modulus (GPa) = 29.35125 13.48990 21.42058
#
# Velocity S-wave (km/s) = 4.13364 2.80236 3.53130
# Velocity P-wave (km/s) = 6.81328 5.84113 6.34585
#
# Compressibility (1/GPa) = 0.02462762
#
# Stress axis : x y z
#
# Youngs Moduli (GPa) = 46.56953 79.66679 41.86333
#
# Poissons Ratio (x) = 0.04914 0.52678
# Poissons Ratio (y) = 0.02872 0.14411
# Poissons Ratio (z) = 0.58600 0.27425
#
# Static dielectric constant tensor:
#      x y z
#    x 1.556960 0.000000 0.000000 
#    y 0.000000 1.606510 0.000000 
#    z 0.000000 0.000000 1.624920 
# 
# From -- ./inp_files/38801.got.cif
#   From: 2010.05.17/outbox.cif.g08.bks.cpg/sg66_20_cif.got.tgz:38801.got - 2010.06.03 17:51:23.
