data_PCOD9496171
_publ_section_title
;
Structure prediction by ZEFSAII (Michael W. Deem and Ramdas Pophale) SiO2 
 PCOD9496171
Probable space group: C C C M
;
_chemical_formula_sum "Si O2"
_cell_formula_units_Z 96
_cell_length_a 26.771208
_cell_length_b 10.148237
_cell_length_c 17.225025
_cell_angle_alpha 90.000000
_cell_angle_beta 90.000000
_cell_angle_gamma 90.000000
_cell_volume 4679.704499
_symmetry_space_group_name_H-M "C C C M"
_symmetry_group_IT_number 66
_symmetry_cell_setting 'orthorhombic'
loop_
_space_group_symop_operation_xyz
x,y,z
-x,-y,z
x,-y,1/2-z
-x,y,1/2-z
-x,-y,-z
x,y,-z
-x,y,1/2+z
x,-y,1/2+z
1/2+x,1/2+y,z
1/2-x,1/2-y,z
1/2+x,1/2-y,1/2-z
1/2-x,1/2+y,1/2-z
1/2-x,1/2-y,-z
1/2+x,1/2+y,-z
1/2-x,1/2+y,1/2+z
1/2+x,1/2-y,1/2+z
loop_
_atom_site_type_symbol
_atom_site_label
_atom_site_fract_x
_atom_site_fract_y
_atom_site_fract_z
Si Si1 0.905443 0.107814 0.683909
Si Si2 0.487789 0.702332 0.586786
Si Si3 0.798744 0.100737 0.321369
Si Si4 0.947590 0.323971 0.792962
Si Si5 0.911336 0.453082 0.410595
Si Si6 0.689951 0.902088 0.823563
O O1 0.950945 0.099236 0.625579
O O2 0.853022 0.088318 0.639599
O O3 0.912594 0.247127 0.731748
O O4 0.909150 0.000000 0.750000
O O5 0.501628 0.672932 0.500000
O O6 0.535151 0.723814 0.640425
O O7 0.452930 0.836560 0.587027
O O8 0.745313 0.074133 0.360792
O O9 0.803016 0.252457 0.293771
O O10 0.799367 0.000000 0.250000
O O11 0.926637 0.446285 0.841709
O O12 0.000000 0.354164 0.750000
O O13 0.910735 0.505832 0.500000
O O14 0.855407 0.410562 0.384646
O O15 0.682597 0.000000 0.750000
#
# Coordination Sequence:
#
# PCOD9496171 Si02
#       6
#    16  16  16  16  16  16
#     4  10  20  37  58  81 109 148 201 241 279 338
#     4  10  21  36  53  79 114 151 185 232 291 347
#     4   9  18  34  55  84 112 142 190 243 291 338
#     4  10  22  35  57  84 113 155 192 235 287 342
#     4  11  22  36  54  84 120 149 181 234 293 354
#     4  10  19  33  59  86 110 145 192 241 292 345
#
# _framework density 20.514115
#
# number of rings (size 3 to 8) (size 9 to 14) (size 15 to 20)
#    0.000    2.000    1.667    2.000    2.333    6.333 
#    0.000    5.000    0.000    0.000    0.000   40.833 
#    0.000    0.000    0.000    0.000    0.000    0.000 
#
# Total GULP energy -267352.823567 kJ/mol
# GULP energy per Si atom -5569.850491 kJ/mol
# Density = 2.046742 g / cm^3
# Si number density = 20.514115 Si / 1000 Ang^3
#
#
#
# Elastic Constant Matrix: (Units=GPa)
#
#
# Indices 1 2 3 4 5 6 
#
# 1 106.7520 -8.2075 20.0132 0.0000 0.0000 0.0000
# 2 -8.2075 64.0670 6.8157 0.0000 0.0000 0.0000
# 3 20.0132 6.8157 96.3259 0.0000 0.0000 0.0000
# 4 0.0000 0.0000 0.0000 13.2857 0.0000 0.0000
# 5 0.0000 0.0000 0.0000 0.0000 -1.6152 0.0000
# 6 0.0000 0.0000 0.0000 0.0000 0.0000 20.1478
#
#
#
# Elastic Compliance Matrix: (Units=1/GPa)
#
#
# Indices 1 2 3 4 5 6 
#
# 1 0.009888 0.001496 -0.002160 0.000000 0.000000 0.000000
# 2 0.001496 0.015954 -0.001440 0.000000 0.000000 0.000000
# 3 -0.002160 -0.001440 0.010932 0.000000 0.000000 0.000000
# 4 0.000000 0.000000 0.000000 0.075269 0.000000 0.000000
# 5 0.000000 0.000000 0.000000 0.000000 -0.619107 0.000000
# 6 0.000000 0.000000 0.000000 0.000000 0.000000 0.049633
#
#
# Mechanical properties :
#
#
# Convention : Reuss Voigt Hill
#
# Bulk Modulus (GPa) = 30.70655 33.82085 32.26370
# Shear Modulus (GPa) = -11.30277 22.93188 5.81455
#
# Velocity S-wave (km/s) = -2.34983 3.34707 1.68540
# Velocity P-wave (km/s) = 2.76382 5.60888 4.42144
#
# Compressibility (1/GPa) = 0.03256634
#
# Stress axis : x y z
#
# Youngs Moduli (GPa) = 101.13739 62.68197 91.47371
#
# Poissons Ratio (x) = -0.09380 0.19760
# Poissons Ratio (y) = -0.15135 0.13170
# Poissons Ratio (z) = 0.21847 0.09025
#
# Static dielectric constant tensor:
#      x y z
#    x 1.808790 0.000000 0.000000 
#    y 0.000000 1.828860 0.000000 
#    z 0.000000 0.000000 1.694370 
# 
# From -- ./inp_files/44249.got.cif
#   From: 2010.05.17/outbox.cif.g08.bks.cpg/sg66_23_cif.got.tgz:44249.got - 2010.06.03 17:51:23.
