data_PCOD9496681
_publ_section_title
;
Structure prediction by ZEFSAII (Michael W. Deem and Ramdas Pophale) SiO2 
 PCOD9496681
Probable space group: C C C M
;
_chemical_formula_sum "Si O2"
_cell_formula_units_Z 52
_cell_length_a 20.084070
_cell_length_b 8.595447
_cell_length_c 16.299952
_cell_angle_alpha 90.000000
_cell_angle_beta 90.000000
_cell_angle_gamma 90.000000
_cell_volume 2813.886129
_symmetry_space_group_name_H-M "C C C M"
_symmetry_group_IT_number 66
_symmetry_cell_setting 'orthorhombic'
loop_
_space_group_symop_operation_xyz
x,y,z
-x,-y,z
x,-y,1/2-z
-x,y,1/2-z
-x,-y,-z
x,y,-z
-x,y,1/2+z
x,-y,1/2+z
1/2+x,1/2+y,z
1/2-x,1/2-y,z
1/2+x,1/2-y,1/2-z
1/2-x,1/2+y,1/2-z
1/2-x,1/2-y,-z
1/2+x,1/2+y,-z
1/2-x,1/2+y,1/2+z
1/2+x,1/2-y,1/2+z
loop_
_atom_site_type_symbol
_atom_site_label
_atom_site_fract_x
_atom_site_fract_y
_atom_site_fract_z
Si Si1 0.500000 0.000000 0.750000
Si Si2 0.378292 0.846740 0.335834
Si Si3 0.325215 0.322784 0.500000
Si Si4 0.674425 0.193595 0.166689
Si Si5 0.826752 0.192785 0.500000
O O1 0.452197 0.901505 0.689797
O O2 0.354969 0.757214 0.254104
O O3 0.364246 0.755788 0.418984
O O4 0.335337 0.007454 0.340329
O O5 0.250000 0.250000 0.500000
O O6 0.357538 0.263580 0.415634
O O7 0.323244 0.507216 0.500000
O O8 0.750000 0.250000 0.167961
O O9 0.750000 0.250000 0.500000
#
# Coordination Sequence:
#
# PCOD9496681 Si02
#       5
#     4  16   8  16   8
#     4   8  20  42  60  82 108 162 208 230 288 328
#     4  10  21  36  60  81 113 151 197 242 276 356
#     4  10  20  32  50  79 123 152 175 226 296 357
#     4   9  17  32  52  79 110 147 181 234 296 333
#     4  12  22  33  56  94 119 147 189 237 300 351
#
# _framework density 18.479780999999999
#
# number of rings (size 3 to 8) (size 9 to 14) (size 15 to 20)
#    0.000    2.462    0.000    5.538    0.000    6.769 
#    0.000    1.538    0.000   22.154    0.000    0.000 
#    0.000    0.000    0.000    0.000    0.000    0.000 
#
# Total GULP energy -144806.687236 kJ/mol
# GULP energy per Si atom -5569.487971 kJ/mol
# Density = 1.843772 g / cm^3
# Si number density = 18.479781 Si / 1000 Ang^3
#
#
#
# Elastic Constant Matrix: (Units=GPa)
#
#
# Indices 1 2 3 4 5 6 
#
# 1 89.6593 27.3043 49.4346 0.0000 0.0000 0.0000
# 2 27.3043 100.5960 68.7090 0.0000 0.0000 0.0000
# 3 49.4346 68.7090 233.9052 0.0000 0.0000 0.0000
# 4 0.0000 0.0000 0.0000 24.5834 0.0000 0.0000
# 5 0.0000 0.0000 0.0000 0.0000 39.8847 0.0000
# 6 0.0000 0.0000 0.0000 0.0000 0.0000 24.0797
#
#
#
# Elastic Compliance Matrix: (Units=1/GPa)
#
#
# Indices 1 2 3 4 5 6 
#
# 1 0.012957 -0.002060 -0.002133 0.000000 0.000000 0.000000
# 2 -0.002060 0.012763 -0.003314 0.000000 0.000000 0.000000
# 3 -0.002133 -0.003314 0.005700 0.000000 0.000000 0.000000
# 4 0.000000 0.000000 0.000000 0.040678 0.000000 0.000000
# 5 0.000000 0.000000 0.000000 0.000000 0.025072 0.000000
# 6 0.000000 0.000000 0.000000 0.000000 0.000000 0.041529
#
#
# Mechanical properties :
#
#
# Convention : Reuss Voigt Hill
#
# Bulk Modulus (GPa) = 60.95396 79.45069 70.20233
# Shear Modulus (GPa) = 31.41083 36.29041 33.85062
#
# Velocity S-wave (km/s) = 4.12726 4.43627 4.28456
# Velocity P-wave (km/s) = 7.46781 8.32630 7.90871
#
# Compressibility (1/GPa) = 0.01640582
#
# Stress axis : x y z
#
# Youngs Moduli (GPa) = 77.17952 78.34996 175.45278
#
# Poissons Ratio (x) = 0.16138 0.37430
# Poissons Ratio (y) = 0.15897 0.58143
# Poissons Ratio (z) = 0.16465 0.25964
#
# Static dielectric constant tensor:
#      x y z
#    x 1.496320 0.000000 0.000000 
#    y 0.000000 1.653880 0.000000 
#    z 0.000000 0.000000 1.701160 
# 
# From -- ./inp_files/23785.got.cif
#   From: 2010.05.17/outbox.cif.g08.bks.cpg/sg66_12_cif.got.tgz:23785.got - 2010.06.03 17:51:23.
