data_PCOD9496891
_publ_section_title
;
Structure prediction by ZEFSAII (Michael W. Deem and Ramdas Pophale) SiO2 
 PCOD9496891
Probable space group: C C C M
;
_chemical_formula_sum "Si O2"
_cell_formula_units_Z 116
_cell_length_a 26.752811
_cell_length_b 23.819732
_cell_length_c 9.997715
_cell_angle_alpha 90.000000
_cell_angle_beta 90.000000
_cell_angle_gamma 90.000000
_cell_volume 6370.991778
_symmetry_space_group_name_H-M "C C C M"
_symmetry_group_IT_number 66
_symmetry_cell_setting 'orthorhombic'
loop_
_space_group_symop_operation_xyz
x,y,z
-x,-y,z
x,-y,1/2-z
-x,y,1/2-z
-x,-y,-z
x,y,-z
-x,y,1/2+z
x,-y,1/2+z
1/2+x,1/2+y,z
1/2-x,1/2-y,z
1/2+x,1/2-y,1/2-z
1/2-x,1/2+y,1/2-z
1/2-x,1/2-y,-z
1/2+x,1/2+y,-z
1/2-x,1/2+y,1/2+z
1/2+x,1/2-y,1/2+z
loop_
_atom_site_type_symbol
_atom_site_label
_atom_site_fract_x
_atom_site_fract_y
_atom_site_fract_z
Si Si1 0.651521 0.869180 0.150102
Si Si2 0.673927 0.449469 0.148812
Si Si3 0.434213 0.601930 0.148228
Si Si4 0.500000 0.500000 0.750000
Si Si5 0.090072 0.197591 0.160154
Si Si6 0.955134 0.320882 0.345422
Si Si7 0.784273 0.556215 0.340723
Si Si8 0.805099 0.756732 0.845913
O O1 0.592440 0.861487 0.168615
O O2 0.677002 0.903070 0.268537
O O3 0.673122 0.806101 0.149613
O O4 0.661427 0.892793 0.000000
O O5 0.667686 0.500000 0.250000
O O6 0.624639 0.412591 0.152517
O O7 0.727363 0.420477 0.173136
O O8 0.677651 0.474357 0.000000
O O9 0.464427 0.543979 0.171711
O O10 0.438920 0.648584 0.262610
O O11 0.447101 0.623517 0.000000
O O12 0.063774 0.257498 0.184010
O O13 0.148457 0.205553 0.205520
O O14 0.090475 0.187617 0.000000
O O15 0.970822 0.321676 0.500000
O O16 0.000000 0.336190 0.250000
O O17 0.784859 0.500000 0.250000
O O18 0.793712 0.547604 0.500000
O O19 0.750000 0.750000 0.782164
O O20 0.797042 0.776346 0.000000
#
# Coordination Sequence:
#
# PCOD9496891 Si02
#       8
#    16  16  16   4  16  16  16  16
#     4   9  18  33  54  81 113 144 182 226 270 321
#     4   9  19  36  53  73 102 136 176 223 270 326
#     4  11  24  40  57  77 103 138 184 239 293 338
#     4  12  26  44  60  74 102 148 200 250 302 344
#     4   9  20  36  55  81 109 141 182 226 275 334
#     4   9  19  36  56  81 111 144 182 225 270 326
#     4  10  20  34  55  82 113 147 184 221 269 327
#     4   8  15  30  52  80 111 144 181 218 265 332
#
# _framework density 18.207526000000001
#
# number of rings (size 3 to 8) (size 9 to 14) (size 15 to 20)
#    0.000    2.621    0.690    2.276    2.897    3.310 
#    0.000    2.069    0.000    1.241    0.000    2.897 
#    0.000    0.000    0.000    0.000    0.000    0.000 
#
# Total GULP energy -322963.889275 kJ/mol
# GULP energy per Si atom -5568.342919 kJ/mol
# Density = 1.816608 g / cm^3
# Si number density = 18.207526 Si / 1000 Ang^3
#
#
#
# Elastic Constant Matrix: (Units=GPa)
#
#
# Indices 1 2 3 4 5 6 
#
# 1 97.2843 18.1173 47.0599 0.0000 0.0000 0.0000
# 2 18.1173 41.5909 28.1933 0.0000 0.0000 0.0000
# 3 47.0599 28.1933 80.9181 0.0000 0.0000 0.0000
# 4 0.0000 0.0000 0.0000 20.7579 0.0000 0.0000
# 5 0.0000 0.0000 0.0000 0.0000 16.6456 0.0000
# 6 0.0000 0.0000 0.0000 0.0000 0.0000 13.4017
#
#
#
# Elastic Compliance Matrix: (Units=1/GPa)
#
#
# Indices 1 2 3 4 5 6 
#
# 1 0.014322 -0.000776 -0.008059 0.000000 0.000000 0.000000
# 2 -0.000776 0.031520 -0.010531 0.000000 0.000000 0.000000
# 3 -0.008059 -0.010531 0.020714 0.000000 0.000000 0.000000
# 4 0.000000 0.000000 0.000000 0.048174 0.000000 0.000000
# 5 0.000000 0.000000 0.000000 0.000000 0.060076 0.000000
# 6 0.000000 0.000000 0.000000 0.000000 0.000000 0.074618
#
#
# Mechanical properties :
#
#
# Convention : Reuss Voigt Hill
#
# Bulk Modulus (GPa) = 35.93902 45.17050 40.55476
# Shear Modulus (GPa) = 16.81058 18.58922 17.69990
#
# Velocity S-wave (km/s) = 3.04184 3.19872 3.12127
# Velocity P-wave (km/s) = 5.66732 6.20524 5.94237
#
# Compressibility (1/GPa) = 0.02782491
#
# Stress axis : x y z
#
# Youngs Moduli (GPa) = 69.82227 31.72551 48.27573
#
# Poissons Ratio (x) = 0.02461 0.38906
# Poissons Ratio (y) = 0.05417 0.50840
# Poissons Ratio (z) = 0.56270 0.33410
#
# Static dielectric constant tensor:
#      x y z
#    x 1.669430 0.000000 0.000000 
#    y 0.000000 1.603670 0.000000 
#    z 0.000000 0.000000 1.459830 
# 
# From -- ./inp_files/10623.got.cif
#   From: 2010.05.17/outbox.cif.g08.bks.cpg/sg66_6_cif.got.tgz:10623.got - 2010.06.03 17:51:23.
