data_PCOD9496831
_publ_section_title
;
Structure prediction by ZEFSAII (Michael W. Deem and Ramdas Pophale) SiO2 
 PCOD9496831
Probable space group: C C C M
;
_chemical_formula_sum "Si O2"
_cell_formula_units_Z 116
_cell_length_a 26.491890
_cell_length_b 27.692479
_cell_length_c 9.072867
_cell_angle_alpha 90.000000
_cell_angle_beta 90.000000
_cell_angle_gamma 90.000000
_cell_volume 6656.092101
_symmetry_space_group_name_H-M "C C C M"
_symmetry_group_IT_number 66
_symmetry_cell_setting 'orthorhombic'
loop_
_space_group_symop_operation_xyz
x,y,z
-x,-y,z
x,-y,1/2-z
-x,y,1/2-z
-x,-y,-z
x,y,-z
-x,y,1/2+z
x,-y,1/2+z
1/2+x,1/2+y,z
1/2-x,1/2-y,z
1/2+x,1/2-y,1/2-z
1/2-x,1/2+y,1/2-z
1/2-x,1/2-y,-z
1/2+x,1/2+y,-z
1/2-x,1/2+y,1/2+z
1/2+x,1/2-y,1/2+z
loop_
_atom_site_type_symbol
_atom_site_label
_atom_site_fract_x
_atom_site_fract_y
_atom_site_fract_z
Si Si1 0.803172 0.951381 0.675437
Si Si2 0.350772 0.180862 0.673085
Si Si3 0.053278 0.826674 0.674859
Si Si4 0.749844 0.861034 0.825422
Si Si5 0.198988 0.218774 0.659877
Si Si6 0.000000 0.000000 0.750000
Si Si7 0.445436 0.785219 0.676839
Si Si8 0.093307 0.930148 0.671160
O O1 0.799266 0.952235 0.500000
O O2 0.772002 0.907525 0.745027
O O3 0.861922 0.947662 0.723891
O O4 0.783293 0.000000 0.750000
O O5 0.352175 0.167321 0.500000
O O6 0.303854 0.154926 0.754214
O O7 0.339913 0.238388 0.679638
O O8 0.404229 0.178441 0.754986
O O9 0.047133 0.828834 0.500000
O O10 0.067854 0.771494 0.709284
O O11 0.085732 0.873743 0.713109
O O12 0.000000 0.834795 0.750000
O O13 0.790743 0.819052 0.787584
O O14 0.745078 0.866954 0.000000
O O15 0.191234 0.194219 0.500000
O O16 0.250000 0.250000 0.650295
O O17 0.041395 0.038140 0.818591
O O18 0.500000 0.793235 0.750000
O O19 0.447581 0.790077 0.500000
O O20 0.109983 0.932775 0.500000
#
# Coordination Sequence:
#
# PCOD9496831 Si02
#       8
#    16  16  16  16  16   4  16  16
#     4  12  26  43  60  80 107 141 181 231 288 341
#     4  10  20  35  55  80 111 146 184 227 273 330
#     4   9  19  34  50  71 100 135 178 224 273 328
#     4  11  22  37  58  82 109 141 180 226 277 338
#     4   8  16  31  49  74 106 139 177 221 268 319
#     4  12  22  36  64  78 106 136 186 248 296 344
#     4  10  20  34  52  77 110 149 187 228 274 327
#     4  11  23  38  55  79 105 137 181 234 290 343
#
# _framework density 17.427643
#
# number of rings (size 3 to 8) (size 9 to 14) (size 15 to 20)
#    0.000    1.793    1.379    4.345    1.931    4.690 
#    0.000    0.000    0.000    0.000    0.000    0.000 
#    0.000    0.552    0.000    5.517    0.000    3.310 
#
# Total GULP energy -323145.604849 kJ/mol
# GULP energy per Si atom -5571.475946 kJ/mol
# Density = 1.738798 g / cm^3
# Si number density = 17.427643 Si / 1000 Ang^3
#
#
#
# Elastic Constant Matrix: (Units=GPa)
#
#
# Indices 1 2 3 4 5 6 
#
# 1 73.6812 32.3475 60.5282 0.0000 0.0000 0.0000
# 2 32.3475 66.0016 55.5596 0.0000 0.0000 0.0000
# 3 60.5282 55.5596 126.7458 0.0000 0.0000 0.0000
# 4 0.0000 0.0000 0.0000 19.7932 0.0000 0.0000
# 5 0.0000 0.0000 0.0000 0.0000 22.5978 0.0000
# 6 0.0000 0.0000 0.0000 0.0000 0.0000 22.1492
#
#
#
# Elastic Compliance Matrix: (Units=1/GPa)
#
#
# Indices 1 2 3 4 5 6 
#
# 1 0.022746 -0.003176 -0.009470 0.000000 0.000000 0.000000
# 2 -0.003176 0.024455 -0.009203 0.000000 0.000000 0.000000
# 3 -0.009470 -0.009203 0.016447 0.000000 0.000000 0.000000
# 4 0.000000 0.000000 0.000000 0.050522 0.000000 0.000000
# 5 0.000000 0.000000 0.000000 0.000000 0.044252 0.000000
# 6 0.000000 0.000000 0.000000 0.000000 0.000000 0.045148
#
#
# Mechanical properties :
#
#
# Convention : Reuss Voigt Hill
#
# Bulk Modulus (GPa) = 50.12847 62.58878 56.35863
# Shear Modulus (GPa) = 19.69133 20.77427 20.23280
#
# Velocity S-wave (km/s) = 3.36503 3.45632 3.41098
# Velocity P-wave (km/s) = 6.62753 7.20553 6.92257
#
# Compressibility (1/GPa) = 0.01994874
#
# Stress axis : x y z
#
# Youngs Moduli (GPa) = 43.96377 40.89170 60.80227
#
# Poissons Ratio (x) = 0.12986 0.57582
# Poissons Ratio (y) = 0.13962 0.55958
# Poissons Ratio (z) = 0.41635 0.37634
#
# Static dielectric constant tensor:
#      x y z
#    x 1.622310 0.000000 0.000000 
#    y 0.000000 1.615880 0.000000 
#    z 0.000000 0.000000 1.599570 
# 
# From -- ./inp_files/9469.got.cif
#   From: 2010.05.17/outbox.cif.g08.bks.cpg/sg66_5_cif.got.tgz:9469.got - 2010.06.03 17:51:23.
