data_PCOD9496395
_publ_section_title
;
Structure prediction by ZEFSAII (Michael W. Deem and Ramdas Pophale) SiO2 
 PCOD9496395
Probable space group: C C C M
;
_chemical_formula_sum "Si O2"
_cell_formula_units_Z 96
_cell_length_a 10.416912
_cell_length_b 27.942694
_cell_length_c 14.320292
_cell_angle_alpha 90.000000
_cell_angle_beta 90.000000
_cell_angle_gamma 90.000000
_cell_volume 4168.301684
_symmetry_space_group_name_H-M "C C C M"
_symmetry_group_IT_number 66
_symmetry_cell_setting 'orthorhombic'
loop_
_space_group_symop_operation_xyz
x,y,z
-x,-y,z
x,-y,1/2-z
-x,y,1/2-z
-x,-y,-z
x,y,-z
-x,y,1/2+z
x,-y,1/2+z
1/2+x,1/2+y,z
1/2-x,1/2-y,z
1/2+x,1/2-y,1/2-z
1/2-x,1/2+y,1/2-z
1/2-x,1/2-y,-z
1/2+x,1/2+y,-z
1/2-x,1/2+y,1/2+z
1/2+x,1/2-y,1/2+z
loop_
_atom_site_type_symbol
_atom_site_label
_atom_site_fract_x
_atom_site_fract_y
_atom_site_fract_z
Si Si1 0.996888 0.147251 0.387857
Si Si2 0.214900 0.378250 0.885641
Si Si3 0.890870 0.247772 0.177316
Si Si4 0.645331 0.986014 0.886537
Si Si5 0.941688 0.346666 0.106853
Si Si6 0.221932 0.918335 0.114415
O O1 0.991291 0.145941 0.500000
O O2 0.850637 0.143143 0.352330
O O3 0.068940 0.196306 0.362065
O O4 0.085493 0.103074 0.356485
O O5 0.192325 0.433519 0.858469
O O6 0.085672 0.351230 0.854276
O O7 0.221215 0.376153 0.000000
O O8 0.750000 0.250000 0.220342
O O9 0.894314 0.292298 0.106908
O O10 0.000000 0.259582 0.250000
O O11 0.500000 0.000000 0.858080
O O12 0.739909 0.028457 0.856797
O O13 0.643409 0.985403 0.000000
O O14 0.834199 0.382034 0.147200
O O15 0.954485 0.363415 0.000000
O O16 0.221127 0.917818 0.000000
#
# Coordination Sequence:
#
# PCOD9496395 Si02
#       6
#    16  16  16  16  16  16
#     4  10  21  37  57  83 114 147 186 233 279 327
#     4   9  18  30  50  84 119 147 179 225 278 324
#     4  12  27  42  58  81 109 144 187 234 287 340
#     4   9  14  24  45  78 118 150 177 219 272 325
#     4  10  19  35  60  84 109 147 189 226 270 329
#     4   9  16  28  51  81 111 145 184 221 268 326
#
# _framework density 23.030963
#
# number of rings (size 3 to 8) (size 9 to 14) (size 15 to 20)
#    0.000    2.167    3.333    0.500    2.333    1.333 
#    0.000    5.833    0.000    0.000    0.000    7.000 
#    0.000    0.000    0.000    0.000    0.000    0.000 
#
# Total GULP energy -268236.493971 kJ/mol
# GULP energy per Si atom -5588.260291 kJ/mol
# Density = 2.297854 g / cm^3
# Si number density = 23.030963 Si / 1000 Ang^3
#
#
#
# Elastic Constant Matrix: (Units=GPa)
#
#
# Indices 1 2 3 4 5 6 
#
# 1 174.3671 45.4123 1.4010 0.0000 0.0000 0.0000
# 2 45.4123 125.7148 -16.3722 0.0000 0.0000 0.0000
# 3 1.4010 -16.3722 54.6027 0.0000 0.0000 0.0000
# 4 0.0000 0.0000 0.0000 5.2909 0.0000 0.0000
# 5 0.0000 0.0000 0.0000 0.0000 7.7118 0.0000
# 6 0.0000 0.0000 0.0000 0.0000 0.0000 40.9730
#
#
#
# Elastic Compliance Matrix: (Units=1/GPa)
#
#
# Indices 1 2 3 4 5 6 
#
# 1 0.006372 -0.002417 -0.000888 0.000000 0.000000 0.000000
# 2 -0.002417 0.009195 0.002819 0.000000 0.000000 0.000000
# 3 -0.000888 0.002819 0.019182 0.000000 0.000000 0.000000
# 4 0.000000 0.000000 0.000000 0.189005 0.000000 0.000000
# 5 0.000000 0.000000 0.000000 0.000000 0.129672 0.000000
# 6 0.000000 0.000000 0.000000 0.000000 0.000000 0.024406
#
#
# Mechanical properties :
#
#
# Convention : Reuss Voigt Hill
#
# Bulk Modulus (GPa) = 29.60723 46.17407 37.89065
# Shear Modulus (GPa) = 12.81843 32.41137 22.61490
#
# Velocity S-wave (km/s) = 2.36174 3.75546 3.13698
# Velocity P-wave (km/s) = 4.50782 6.23674 5.44138
#
# Compressibility (1/GPa) = 0.03377553
#
# Stress axis : x y z
#
# Youngs Moduli (GPa) = 156.94291 108.75619 52.13171
#
# Poissons Ratio (x) = 0.26290 0.04631
# Poissons Ratio (y) = 0.37939 -0.14696
# Poissons Ratio (z) = 0.13941 -0.30659
#
# Static dielectric constant tensor:
#      x y z
#    x 1.843650 0.000000 0.000000 
#    y 0.000000 1.849500 0.000000 
#    z 0.000000 0.000000 1.914710 
# 
# From -- ./inp_files/52965.got.cif
#   From: 2010.05.17/outbox.cif.g08.bks.cpg/sg66_27_cif.got.tgz:52965.got - 2010.06.03 17:51:23.
