data_PCOD9496348
_publ_section_title
;
Structure prediction by ZEFSAII (Michael W. Deem and Ramdas Pophale) SiO2 
 PCOD9496348
Probable space group: C C C M
;
_chemical_formula_sum "Si O2"
_cell_formula_units_Z 104
_cell_length_a 27.266523
_cell_length_b 21.617778
_cell_length_c 9.847617
_cell_angle_alpha 90.000000
_cell_angle_beta 90.000000
_cell_angle_gamma 90.000000
_cell_volume 5804.595525
_symmetry_space_group_name_H-M "C C C M"
_symmetry_group_IT_number 66
_symmetry_cell_setting 'orthorhombic'
loop_
_space_group_symop_operation_xyz
x,y,z
-x,-y,z
x,-y,1/2-z
-x,y,1/2-z
-x,-y,-z
x,y,-z
-x,y,1/2+z
x,-y,1/2+z
1/2+x,1/2+y,z
1/2-x,1/2-y,z
1/2+x,1/2-y,1/2-z
1/2-x,1/2+y,1/2-z
1/2-x,1/2-y,-z
1/2+x,1/2+y,-z
1/2-x,1/2+y,1/2+z
1/2+x,1/2-y,1/2+z
loop_
_atom_site_type_symbol
_atom_site_label
_atom_site_fract_x
_atom_site_fract_y
_atom_site_fract_z
Si Si1 0.308023 0.687773 0.156755
Si Si2 0.734689 0.500000 0.750000
Si Si3 0.545490 0.260826 0.341647
Si Si4 0.651797 0.796609 0.161508
Si Si5 0.044127 0.907871 0.655421
Si Si6 0.293949 0.117465 0.347780
Si Si7 0.152429 0.914792 0.650325
O O1 0.318322 0.744079 0.257278
O O2 0.251950 0.665116 0.155441
O O3 0.336962 0.630959 0.225466
O O4 0.322332 0.700466 0.000000
O O5 0.769042 0.551355 0.681595
O O6 0.696214 0.464221 0.653331
O O7 0.500000 0.241071 0.250000
O O8 0.532769 0.254856 0.500000
O O9 0.595136 0.222701 0.317711
O O10 0.553893 0.334404 0.316619
O O11 0.668152 0.860097 0.233707
O O12 0.661854 0.796870 0.000000
O O13 0.027860 0.913397 0.500000
O O14 0.097259 0.939206 0.667251
O O15 0.000000 0.928418 0.750000
O O16 0.314918 0.119067 0.500000
O O17 0.153120 0.883536 0.500000
#
# Coordination Sequence:
#
# PCOD9496348 Si02
#       7
#    16   8  16  16  16  16  16
#     4  10  20  33  51  77 109 140 174 218 265 316
#     4  10  22  38  59  76  99 138 184 226 270 314
#     4   9  18  32  50  77 110 140 173 209 253 316
#     4  11  21  34  53  80 110 141 176 213 261 320
#     4   9  17  31  50  74 103 135 175 219 263 313
#     4  10  22  37  52  76 106 137 179 225 266 316
#     4  10  19  35  56  75 102 140 181 225 267 315
#
# _framework density 17.916839
#
# number of rings (size 3 to 8) (size 9 to 14) (size 15 to 20)
#    0.000    2.154    1.538    1.846    0.000    8.000 
#    0.000    0.385    0.000    1.846    0.000    0.538 
#    0.000    3.692    0.000    0.000    0.000    0.000 
#
# Total GULP energy -289951.023287 kJ/mol
# GULP energy per Si atom -5575.981217 kJ/mol
# Density = 1.787606 g / cm^3
# Si number density = 17.916839 Si / 1000 Ang^3
#
#
#
# Elastic Constant Matrix: (Units=GPa)
#
#
# Indices 1 2 3 4 5 6 
#
# 1 67.9929 40.7160 64.6193 0.0000 0.0000 0.0000
# 2 40.7160 66.6390 47.9375 0.0000 0.0000 0.0000
# 3 64.6193 47.9375 130.3409 0.0000 0.0000 0.0000
# 4 0.0000 0.0000 0.0000 -2.2108 0.0000 0.0000
# 5 0.0000 0.0000 0.0000 0.0000 26.6518 0.0000
# 6 0.0000 0.0000 0.0000 0.0000 0.0000 13.4641
#
#
#
# Elastic Compliance Matrix: (Units=1/GPa)
#
#
# Indices 1 2 3 4 5 6 
#
# 1 0.033229 -0.011493 -0.012247 0.000000 0.000000 0.000000
# 2 -0.011493 0.024380 -0.003269 0.000000 0.000000 0.000000
# 3 -0.012247 -0.003269 0.014946 0.000000 0.000000 0.000000
# 4 0.000000 0.000000 0.000000 -0.452319 0.000000 0.000000
# 5 0.000000 0.000000 0.000000 0.000000 0.037521 0.000000
# 6 0.000000 0.000000 0.000000 0.000000 0.000000 0.074272
#
#
# Mechanical properties :
#
#
# Convention : Reuss Voigt Hill
#
# Bulk Modulus (GPa) = 53.94411 63.50204 58.72307
# Shear Modulus (GPa) = -24.06435 15.02770 -4.51832
#
# Velocity S-wave (km/s) = -3.66883 2.89926 -1.58975
# Velocity P-wave (km/s) = 3.49662 6.83573 5.42925
#
# Compressibility (1/GPa) = 0.01853771
#
# Stress axis : x y z
#
# Youngs Moduli (GPa) = 30.09426 41.01805 66.90678
#
# Poissons Ratio (x) = 0.47140 0.81942
# Poissons Ratio (y) = 0.34586 0.21870
# Poissons Ratio (z) = 0.36857 0.13408
#
# Static dielectric constant tensor:
#      x y z
#    x 1.606980 0.000000 0.000000 
#    y 0.000000 1.659400 0.000000 
#    z 0.000000 0.000000 1.627950 
# 
# From -- ./inp_files/10561.got.cif
#   From: 2010.05.17/outbox.cif.g08.bks.cpg/sg66_6_cif.got.tgz:10561.got - 2010.06.03 17:51:23.
