data_PCOD9496851
_publ_section_title
;
Structure prediction by ZEFSAII (Michael W. Deem and Ramdas Pophale) SiO2 
 PCOD9496851
Probable space group: C C C M
;
_chemical_formula_sum "Si O2"
_cell_formula_units_Z 104
_cell_length_a 27.103035
_cell_length_b 22.414546
_cell_length_c 9.136945
_cell_angle_alpha 90.000000
_cell_angle_beta 90.000000
_cell_angle_gamma 90.000000
_cell_volume 5550.714415
_symmetry_space_group_name_H-M "C C C M"
_symmetry_group_IT_number 66
_symmetry_cell_setting 'orthorhombic'
loop_
_space_group_symop_operation_xyz
x,y,z
-x,-y,z
x,-y,1/2-z
-x,y,1/2-z
-x,-y,-z
x,y,-z
-x,y,1/2+z
x,-y,1/2+z
1/2+x,1/2+y,z
1/2-x,1/2-y,z
1/2+x,1/2-y,1/2-z
1/2-x,1/2+y,1/2-z
1/2-x,1/2-y,-z
1/2+x,1/2+y,-z
1/2-x,1/2+y,1/2+z
1/2+x,1/2-y,1/2+z
loop_
_atom_site_type_symbol
_atom_site_label
_atom_site_fract_x
_atom_site_fract_y
_atom_site_fract_z
Si Si1 0.949922 0.898014 0.325449
Si Si2 0.141488 0.920870 0.338372
Si Si3 0.450734 0.267700 0.825591
Si Si4 0.652712 0.203777 0.670746
Si Si5 0.708288 0.885852 0.661340
Si Si6 0.729916 0.500000 0.750000
Si Si7 0.690198 0.315434 0.832455
O O1 0.954426 0.895680 0.500000
O O2 0.901691 0.934657 0.276683
O O3 0.942955 0.831153 0.257148
O O4 0.000000 0.920917 0.250000
O O5 0.119758 0.916173 0.500000
O O6 0.189408 0.963209 0.343125
O O7 0.162244 0.858149 0.280546
O O8 0.500000 0.242480 0.750000
O O9 0.403974 0.224140 0.808704
O O10 0.457696 0.278405 0.000000
O O11 0.664991 0.212015 0.500000
O O12 0.668990 0.137987 0.721767
O O13 0.682793 0.249732 0.772126
O O14 0.685776 0.883482 0.500000
O O15 0.754639 0.840551 0.665846
O O16 0.734346 0.949910 0.683341
O O17 0.671252 0.320845 0.000000
#
# Coordination Sequence:
#
# PCOD9496851 Si02
#       7
#    16  16  16  16  16   8  16
#     4  11  21  34  55  81 111 147 187 231 281 332
#     4  11  21  36  58  81 109 145 188 236 283 335
#     4  10  20  34  53  81 116 150 185 223 272 333
#     4  11  22  34  53  83 116 147 182 225 277 334
#     4  10  22  38  56  79 108 144 188 233 278 334
#     4  10  24  42  61  80 105 144 192 240 284 330
#     4  10  20  34  53  79 111 147 185 226 276 333
#
# _framework density 18.736326999999999
#
# number of rings (size 3 to 8) (size 9 to 14) (size 15 to 20)
#    0.000    1.538    1.538    5.077    0.000    9.231 
#    0.000    0.385    0.000    1.846    0.000    0.538 
#    0.000    3.692    0.000    0.000    0.000    0.000 
#
# Total GULP energy -290025.793960 kJ/mol
# GULP energy per Si atom -5577.419115 kJ/mol
# Density = 1.869368 g / cm^3
# Si number density = 18.736327 Si / 1000 Ang^3
#
#
#
# Elastic Constant Matrix: (Units=GPa)
#
#
# Indices 1 2 3 4 5 6 
#
# 1 53.9767 40.6204 28.5743 0.0000 0.0000 0.0000
# 2 40.6204 67.7406 26.5495 0.0000 0.0000 0.0000
# 3 28.5743 26.5495 128.0185 0.0000 0.0000 0.0000
# 4 0.0000 0.0000 0.0000 -1.6842 0.0000 0.0000
# 5 0.0000 0.0000 0.0000 0.0000 20.2803 0.0000
# 6 0.0000 0.0000 0.0000 0.0000 0.0000 23.0835
#
#
#
# Elastic Compliance Matrix: (Units=1/GPa)
#
#
# Indices 1 2 3 4 5 6 
#
# 1 0.035389 -0.019729 -0.003807 0.000000 0.000000 0.000000
# 2 -0.019729 0.027066 -0.001210 0.000000 0.000000 0.000000
# 3 -0.003807 -0.001210 0.008912 0.000000 0.000000 0.000000
# 4 0.000000 0.000000 0.000000 -0.593748 0.000000 0.000000
# 5 0.000000 0.000000 0.000000 0.000000 0.049309 0.000000
# 6 0.000000 0.000000 0.000000 0.000000 0.000000 0.043321
#
#
# Mechanical properties :
#
#
# Convention : Reuss Voigt Hill
#
# Bulk Modulus (GPa) = 45.71243 49.02490 47.36866
# Shear Modulus (GPa) = -13.40603 18.60203 2.59800
#
# Velocity S-wave (km/s) = -2.67780 3.15434 1.17882
# Velocity P-wave (km/s) = 3.85874 6.28403 5.21435
#
# Compressibility (1/GPa) = 0.02187589
#
# Stress axis : x y z
#
# Youngs Moduli (GPa) = 28.25744 36.94605 112.20690
#
# Poissons Ratio (x) = 0.72889 0.42723
# Poissons Ratio (y) = 0.55748 0.13574
# Poissons Ratio (z) = 0.10759 0.04470
#
# Static dielectric constant tensor:
#      x y z
#    x 1.677680 0.000000 0.000000 
#    y 0.000000 1.678360 0.000000 
#    z 0.000000 0.000000 1.654960 
# 
# From -- ./inp_files/11580.got.cif
#   From: 2010.05.17/outbox.cif.g08.bks.cpg/sg66_6_cif.got.tgz:11580.got - 2010.06.03 17:51:23.
