data_PCOD9496365
_publ_section_title
;
Structure prediction by ZEFSAII (Michael W. Deem and Ramdas Pophale) SiO2 
 PCOD9496365
Probable space group: C C C M
;
_chemical_formula_sum "Si O2"
_cell_formula_units_Z 108
_cell_length_a 14.897685
_cell_length_b 23.095075
_cell_length_c 14.572628
_cell_angle_alpha 90.000000
_cell_angle_beta 90.000000
_cell_angle_gamma 90.000000
_cell_volume 5013.904328
_symmetry_space_group_name_H-M "C C C M"
_symmetry_group_IT_number 66
_symmetry_cell_setting 'orthorhombic'
loop_
_space_group_symop_operation_xyz
x,y,z
-x,-y,z
x,-y,1/2-z
-x,y,1/2-z
-x,-y,-z
x,y,-z
-x,y,1/2+z
x,-y,1/2+z
1/2+x,1/2+y,z
1/2-x,1/2-y,z
1/2+x,1/2-y,1/2-z
1/2-x,1/2+y,1/2-z
1/2-x,1/2-y,-z
1/2+x,1/2+y,-z
1/2-x,1/2+y,1/2+z
1/2+x,1/2-y,1/2+z
loop_
_atom_site_type_symbol
_atom_site_label
_atom_site_fract_x
_atom_site_fract_y
_atom_site_fract_z
Si Si1 0.299497 0.097803 0.104756
Si Si2 0.859875 0.531469 0.394058
Si Si3 0.972831 0.189016 0.597474
Si Si4 0.171461 0.217049 0.647133
Si Si5 0.693214 0.413308 0.785596
Si Si6 0.000000 0.903848 0.250000
Si Si7 0.000000 0.500000 0.250000
Si Si8 0.092883 0.298291 0.802474
O O1 0.223062 0.084287 0.179654
O O2 0.358430 0.148289 0.150528
O O3 0.353825 0.037937 0.099602
O O4 0.272157 0.112348 0.000000
O O5 0.873286 0.553043 0.500000
O O6 0.766812 0.554434 0.349085
O O7 0.937869 0.539159 0.317820
O O8 0.943571 0.166351 0.500000
O O9 0.925826 0.248722 0.622767
O O10 0.077792 0.205398 0.597899
O O11 0.961615 0.140518 0.674069
O O12 0.250000 0.250000 0.595158
O O13 0.197067 0.153615 0.683240
O O14 0.150323 0.262856 0.728017
O O15 0.588952 0.433886 0.791207
O O16 0.000000 0.313581 0.750000
#
# Coordination Sequence:
#
# PCOD9496365 Si02
#       8
#    16  16  16  16  16   8   4  16
#     4  11  23  39  63  97 133 174 225 276 336 405
#     4  11  26  46  72 103 133 180 237 281 346 419
#     4  10  19  35  57  89 133 175 220 272 331 409
#     4  10  19  36  60  89 132 178 224 269 342 405
#     4  11  21  43  67  94 136 182 221 296 340 400
#     4  10  22  40  66  96 132 183 231 280 350 400
#     4  12  22  48  78 100 136 174 214 308 352 410
#     4  10  19  36  60  94 136 178 219 273 331 408
#
# _framework density 21.540099999999999
#
# number of rings (size 3 to 8) (size 9 to 14) (size 15 to 20)
#    0.000    1.481    6.667    0.667    1.037    3.259 
#    0.000    2.222    0.000    1.778    0.000    0.000 
#    0.000    0.000    0.000    0.000    0.000    0.000 
#
# Total GULP energy -301220.475094 kJ/mol
# GULP energy per Si atom -5578.156946 kJ/mol
# Density = 2.149107 g / cm^3
# Si number density = 21.540100 Si / 1000 Ang^3
#
#
#
# Elastic Constant Matrix: (Units=GPa)
#
#
# Indices 1 2 3 4 5 6 
#
# 1 106.2684 28.0693 32.3887 0.0000 0.0000 0.0000
# 2 28.0693 81.3315 35.0750 0.0000 0.0000 0.0000
# 3 32.3887 35.0750 158.7158 0.0000 0.0000 0.0000
# 4 0.0000 0.0000 0.0000 -508.9290 0.0000 0.0000
# 5 0.0000 0.0000 0.0000 0.0000 -46.1553 0.0000
# 6 0.0000 0.0000 0.0000 0.0000 0.0000 31.6346
#
#
#
# Elastic Compliance Matrix: (Units=1/GPa)
#
#
# Indices 1 2 3 4 5 6 
#
# 1 0.010671 -0.003033 -0.001507 0.000000 0.000000 0.000000
# 2 -0.003033 0.014452 -0.002575 0.000000 0.000000 0.000000
# 3 -0.001507 -0.002575 0.007177 0.000000 0.000000 0.000000
# 4 0.000000 0.000000 0.000000 -0.001965 0.000000 0.000000
# 5 0.000000 0.000000 0.000000 0.000000 -0.021666 0.000000
# 6 0.000000 0.000000 0.000000 0.000000 0.000000 0.031611
#
#
# Mechanical properties :
#
#
# Convention : Reuss Voigt Hill
#
# Bulk Modulus (GPa) = 55.33926 59.70907 57.52416
# Shear Modulus (GPa) = 82.59851 -87.97110 -2.68630
#
# Velocity S-wave (km/s) = 6.19916 -6.39760 -1.11795
# Velocity P-wave (km/s) = 8.77420 5.17612 5.00971
#
# Compressibility (1/GPa) = 0.01807035
#
# Stress axis : x y z
#
# Youngs Moduli (GPa) = 93.71575 69.19223 139.32949
#
# Poissons Ratio (x) = 0.20983 0.21002
# Poissons Ratio (y) = 0.28420 0.35878
# Poissons Ratio (z) = 0.14126 0.17817
#
# Static dielectric constant tensor:
#      x y z
#    x 1.901990 0.000000 0.000000 
#    y 0.000000 1.750840 0.000000 
#    z 0.000000 0.000000 1.822210 
# 
# From -- ./inp_files/28757.got.cif
#   From: 2010.05.17/outbox.cif.g08.bks.cpg/sg66_15_cif.got.tgz:28757.got - 2010.06.03 17:51:23.
