data_PCOD9496000
_publ_section_title
;
Structure prediction by ZEFSAII (Michael W. Deem and Ramdas Pophale) SiO2 
 PCOD9496000
Probable space group: C C C M
;
_chemical_formula_sum "Si O2"
_cell_formula_units_Z 84
_cell_length_a 11.659723
_cell_length_b 19.199193
_cell_length_c 15.116211
_cell_angle_alpha 90.000000
_cell_angle_beta 90.000000
_cell_angle_gamma 90.000000
_cell_volume 3383.873761
_symmetry_space_group_name_H-M "C C C M"
_symmetry_group_IT_number 66
_symmetry_cell_setting 'orthorhombic'
loop_
_space_group_symop_operation_xyz
x,y,z
-x,-y,z
x,-y,1/2-z
-x,y,1/2-z
-x,-y,-z
x,y,-z
-x,y,1/2+z
x,-y,1/2+z
1/2+x,1/2+y,z
1/2-x,1/2-y,z
1/2+x,1/2-y,1/2-z
1/2-x,1/2+y,1/2-z
1/2-x,1/2-y,-z
1/2+x,1/2+y,-z
1/2-x,1/2+y,1/2+z
1/2+x,1/2-y,1/2+z
loop_
_atom_site_type_symbol
_atom_site_label
_atom_site_fract_x
_atom_site_fract_y
_atom_site_fract_z
Si Si1 0.952465 0.866141 0.095760
Si Si2 0.730975 0.144851 0.708925
Si Si3 0.694875 0.134183 0.097564
Si Si4 0.500000 0.500000 0.500000
Si Si5 0.039629 0.714599 0.599615
Si Si6 0.131739 0.521832 0.600271
O O1 0.855008 0.866496 0.167792
O O2 0.013391 0.792038 0.108258
O O3 0.888958 0.859838 0.000000
O O4 0.016586 0.938260 0.077136
O O5 0.747462 0.159197 0.811653
O O6 0.643624 0.201139 0.666496
O O7 0.666856 0.073576 0.678005
O O8 0.562038 0.158812 0.106336
O O9 0.700423 0.050444 0.100604
O O10 0.735235 0.157296 0.000000
O O11 0.085963 0.708884 0.500000
O O12 0.148107 0.551645 0.500000
O O13 0.000000 0.500000 0.608419
#
# Coordination Sequence:
#
# PCOD9496000 Si02
#       6
#    16  16  16   4  16  16
#     4   9  20  38  67 102 131 166 226 295 356 405
#     4  12  20  32  62 102 135 176 233 286 338 419
#     4  10  22  36  54  92 142 185 219 267 341 414
#     4   8  20  44  66 104 136 166 224 314 356 408
#     4  10  19  34  59  99 136 171 217 280 352 417
#     4  10  19  32  53  91 140 182 212 262 341 422
#
# _framework density 24.823623000000001
#
# number of rings (size 3 to 8) (size 9 to 14) (size 15 to 20)
#    0.571    1.333    1.905    3.429    0.000    2.286 
#    0.000    0.000    0.000   16.000    0.000    0.667 
#    0.000    0.000    0.000    0.000    0.000    0.000 
#
# Total GULP energy -233979.173215 kJ/mol
# GULP energy per Si atom -5570.932696 kJ/mol
# Density = 2.476712 g / cm^3
# Si number density = 24.823623 Si / 1000 Ang^3
#
#
#
# Elastic Constant Matrix: (Units=GPa)
#
#
# Indices 1 2 3 4 5 6 
#
# 1 58.2572 14.0949 40.7577 0.0000 0.0000 0.0000
# 2 14.0949 165.0054 5.7106 0.0000 0.0000 0.0000
# 3 40.7577 5.7106 170.9285 0.0000 0.0000 0.0000
# 4 0.0000 0.0000 0.0000 -1.4630 0.0000 0.0000
# 5 0.0000 0.0000 0.0000 0.0000 49.6066 0.0000
# 6 0.0000 0.0000 0.0000 0.0000 0.0000 12.0662
#
#
#
# Elastic Compliance Matrix: (Units=1/GPa)
#
#
# Indices 1 2 3 4 5 6 
#
# 1 0.021028 -0.001625 -0.004960 0.000000 0.000000 0.000000
# 2 -0.001625 0.006193 0.000180 0.000000 0.000000 0.000000
# 3 -0.004960 0.000180 0.007027 0.000000 0.000000 0.000000
# 4 0.000000 0.000000 0.000000 -0.683536 0.000000 0.000000
# 5 0.000000 0.000000 0.000000 0.000000 0.020159 0.000000
# 6 0.000000 0.000000 0.000000 0.000000 0.000000 0.082876
#
#
# Mechanical properties :
#
#
# Convention : Reuss Voigt Hill
#
# Bulk Modulus (GPa) = 46.64119 57.25751 51.94935
# Shear Modulus (GPa) = -9.50033 34.28382 12.39175
#
# Velocity S-wave (km/s) = -1.95843 3.72034 2.23668
# Velocity P-wave (km/s) = 3.70350 6.44751 5.25768
#
# Compressibility (1/GPa) = 0.02144028
#
# Stress axis : x y z
#
# Youngs Moduli (GPa) = 47.55485 161.47425 142.30718
#
# Poissons Ratio (x) = 0.26233 0.70583
# Poissons Ratio (y) = 0.07726 -0.02568
# Poissons Ratio (z) = 0.23587 -0.02914
#
# Static dielectric constant tensor:
#      x y z
#    x 1.953690 0.000000 0.000000 
#    y 0.000000 2.045560 0.000000 
#    z 0.000000 0.000000 1.959080 
# 
# From -- ./inp_files/28204.got.cif
#   From: 2010.05.17/outbox.cif.g08.bks.cpg/sg66_15_cif.got.tgz:28204.got - 2010.06.03 17:51:23.
