data_PCOD9496815
_publ_section_title
;
Structure prediction by ZEFSAII (Michael W. Deem and Ramdas Pophale) SiO2 
 PCOD9496815
Probable space group: C C C M
;
_chemical_formula_sum "Si O2"
_cell_formula_units_Z 72
_cell_length_a 28.659686
_cell_length_b 5.234081
_cell_length_c 25.861467
_cell_angle_alpha 90.000000
_cell_angle_beta 90.000000
_cell_angle_gamma 90.000000
_cell_volume 3879.404131
_symmetry_space_group_name_H-M "C C C M"
_symmetry_group_IT_number 66
_symmetry_cell_setting 'orthorhombic'
loop_
_space_group_symop_operation_xyz
x,y,z
-x,-y,z
x,-y,1/2-z
-x,y,1/2-z
-x,-y,-z
x,y,-z
-x,y,1/2+z
x,-y,1/2+z
1/2+x,1/2+y,z
1/2-x,1/2-y,z
1/2+x,1/2-y,1/2-z
1/2-x,1/2+y,1/2-z
1/2-x,1/2-y,-z
1/2+x,1/2+y,-z
1/2-x,1/2+y,1/2+z
1/2+x,1/2-y,1/2+z
loop_
_atom_site_type_symbol
_atom_site_label
_atom_site_fract_x
_atom_site_fract_y
_atom_site_fract_z
Si Si1 0.000000 0.500000 0.386823
Si Si2 0.552980 0.389768 0.559254
Si Si3 0.383296 0.425856 0.155286
Si Si4 0.218809 0.001633 0.811242
Si Si5 0.569474 0.098679 0.194234
O O1 0.040539 0.601313 0.423822
O O2 0.027014 0.330390 0.344352
O O3 0.500000 0.500000 0.565165
O O4 0.566838 0.419452 0.500000
O O5 0.591431 0.478983 0.600179
O O6 0.327965 0.462595 0.155651
O O7 0.400956 0.643864 0.194698
O O8 0.400586 0.142667 0.172105
O O9 0.250000 0.250000 0.819489
O O10 0.205770 0.000000 0.750000
O O11 0.250000 0.750000 0.821529
O O12 0.554089 0.000000 0.250000
#
# Coordination Sequence:
#
# PCOD9496815 Si02
#       5
#     8  16  16  16  16
#     4  10  20  34  50  80 112 150 192 224 272 328
#     4  10  20  37  58  80 112 150 196 237 277 326
#     4  11  22  37  56  84 113 147 192 230 280 332
#     4  10  20  35  57  81 108 144 183 227 280 338
#     4  11  21  33  52  78 116 152 181 223 272 334
#
# _framework density 18.559552
#
# number of rings (size 3 to 8) (size 9 to 14) (size 15 to 20)
#    0.000    1.556    2.222    4.000    0.000    1.778 
#    0.000    2.222    0.000    1.333    0.000    0.000 
#    0.000    0.000    0.000    0.000    0.000    0.000 
#
# Total GULP energy -200415.458452 kJ/mol
# GULP energy per Si atom -5567.096068 kJ/mol
# Density = 1.851731 g / cm^3
# Si number density = 18.559552 Si / 1000 Ang^3
#
#
#
# Elastic Constant Matrix: (Units=GPa)
#
#
# Indices 1 2 3 4 5 6 
#
# 1 116.9617 28.4142 63.3517 0.0000 0.0000 0.0000
# 2 28.4142 87.9291 28.4531 0.0000 0.0000 0.0000
# 3 63.3517 28.4531 128.7580 0.0000 0.0000 0.0000
# 4 0.0000 0.0000 0.0000 14.4360 0.0000 0.0000
# 5 0.0000 0.0000 0.0000 0.0000 -11.2447 0.0000
# 6 0.0000 0.0000 0.0000 0.0000 0.0000 14.7296
#
#
#
# Elastic Compliance Matrix: (Units=1/GPa)
#
#
# Indices 1 2 3 4 5 6 
#
# 1 0.012013 -0.002121 -0.005442 0.000000 0.000000 0.000000
# 2 -0.002121 0.012623 -0.001746 0.000000 0.000000 0.000000
# 3 -0.005442 -0.001746 0.010830 0.000000 0.000000 0.000000
# 4 0.000000 0.000000 0.000000 0.069271 0.000000 0.000000
# 5 0.000000 0.000000 0.000000 0.000000 -0.088931 0.000000
# 6 0.000000 0.000000 0.000000 0.000000 0.000000 0.067891
#
#
# Mechanical properties :
#
#
# Convention : Reuss Voigt Hill
#
# Bulk Modulus (GPa) = 59.35336 63.78743 61.57040
# Shear Modulus (GPa) = 46.32644 17.81284 32.06964
#
# Velocity S-wave (km/s) = 5.00152 3.10137 4.16135
# Velocity P-wave (km/s) = 8.08721 6.87520 7.50571
#
# Compressibility (1/GPa) = 0.01684824
#
# Stress axis : x y z
#
# Youngs Moduli (GPa) = 83.24631 79.21951 92.33805
#
# Poissons Ratio (x) = 0.16802 0.50248
# Poissons Ratio (y) = 0.17656 0.16122
# Poissons Ratio (z) = 0.45300 0.13831
#
# Static dielectric constant tensor:
#      x y z
#    x 1.694740 0.000000 0.000000 
#    y 0.000000 1.819840 0.000000 
#    z 0.000000 0.000000 1.630890 
# 
# From -- ./inp_files/54228.got.cif
#   From: 2010.05.17/outbox.cif.g08.bks.cpg/sg66_28_cif.got.tgz:54228.got - 2010.06.03 17:51:23.
