data_PCOD9496535
_publ_section_title
;
Structure prediction by ZEFSAII (Michael W. Deem and Ramdas Pophale) SiO2 
 PCOD9496535
Probable space group: C C C M
;
_chemical_formula_sum "Si O2"
_cell_formula_units_Z 80
_cell_length_a 11.338434
_cell_length_b 15.834112
_cell_length_c 22.367076
_cell_angle_alpha 90.000000
_cell_angle_beta 90.000000
_cell_angle_gamma 90.000000
_cell_volume 4015.651380
_symmetry_space_group_name_H-M "C C C M"
_symmetry_group_IT_number 66
_symmetry_cell_setting 'orthorhombic'
loop_
_space_group_symop_operation_xyz
x,y,z
-x,-y,z
x,-y,1/2-z
-x,y,1/2-z
-x,-y,-z
x,y,-z
-x,y,1/2+z
x,-y,1/2+z
1/2+x,1/2+y,z
1/2-x,1/2-y,z
1/2+x,1/2-y,1/2-z
1/2-x,1/2+y,1/2-z
1/2-x,1/2-y,-z
1/2+x,1/2+y,-z
1/2-x,1/2+y,1/2+z
1/2+x,1/2-y,1/2+z
loop_
_atom_site_type_symbol
_atom_site_label
_atom_site_fract_x
_atom_site_fract_y
_atom_site_fract_z
Si Si1 0.881055 0.946124 0.391724
Si Si2 0.259421 0.650026 0.000000
Si Si3 0.513829 0.100521 0.500000
Si Si4 0.246763 0.440115 0.192663
Si Si5 0.979908 0.827634 0.187667
Si Si6 0.867223 0.692617 0.112132
O O1 0.829655 0.889074 0.443920
O O2 0.919614 0.889501 0.335494
O O3 0.778379 0.005213 0.366162
O O4 0.000000 0.000000 0.408467
O O5 0.250000 0.750000 0.000000
O O6 0.122541 0.626107 0.000000
O O7 0.583088 0.139255 0.442961
O O8 0.500000 0.000000 0.500000
O O9 0.219922 0.500000 0.250000
O O10 0.367450 0.387144 0.201454
O O11 0.156520 0.369809 0.168357
O O12 0.000000 0.781635 0.250000
O O13 0.957788 0.762986 0.134606
O O14 0.750000 0.750000 0.098608
#
# Coordination Sequence:
#
# PCOD9496535 Si02
#       6
#    16   8   8  16  16  16
#     4  10  21  38  68  89 124 165 211 253 308 380
#     4  12  25  42  59  98 130 162 208 268 323 360
#     4  12  25  46  65  84 134 170 216 264 317 368
#     4  10  19  37  63  94 122 158 212 257 308 370
#     4  10  19  37  62  95 125 156 201 260 320 367
#     4  10  23  42  64  91 119 172 218 256 307 388
#
# _framework density 19.922046999999999
#
# number of rings (size 3 to 8) (size 9 to 14) (size 15 to 20)
#    0.000    1.600    2.000    3.000    0.000    0.000 
#   10.800    8.000    0.000    0.000    0.000    0.000 
#    0.000    0.000    0.000    0.000    0.000    0.000 
#
# Total GULP energy -222924.213447 kJ/mol
# GULP energy per Si atom -5573.105336 kJ/mol
# Density = 1.987670 g / cm^3
# Si number density = 19.922047 Si / 1000 Ang^3
#
#
#
# Elastic Constant Matrix: (Units=GPa)
#
#
# Indices 1 2 3 4 5 6 
#
# 1 45.3218 29.4152 25.0022 0.0000 0.0000 0.0000
# 2 29.4152 128.3484 49.1385 0.0000 0.0000 0.0000
# 3 25.0022 49.1385 116.0219 0.0000 0.0000 0.0000
# 4 0.0000 0.0000 0.0000 73.8950 0.0000 0.0000
# 5 0.0000 0.0000 0.0000 0.0000 -14.4006 0.0000
# 6 0.0000 0.0000 0.0000 0.0000 0.0000 19.7552
#
#
#
# Elastic Compliance Matrix: (Units=1/GPa)
#
#
# Indices 1 2 3 4 5 6 
#
# 1 0.027294 -0.004778 -0.003858 0.000000 0.000000 0.000000
# 2 -0.004778 0.010136 -0.003263 0.000000 0.000000 0.000000
# 3 -0.003858 -0.003263 0.010832 0.000000 0.000000 0.000000
# 4 0.000000 0.000000 0.000000 0.013533 0.000000 0.000000
# 5 0.000000 0.000000 0.000000 0.000000 -0.069441 0.000000
# 6 0.000000 0.000000 0.000000 0.000000 0.000000 0.050620
#
#
# Mechanical properties :
#
#
# Convention : Reuss Voigt Hill
#
# Bulk Modulus (GPa) = 40.87729 55.20043 48.03886
# Shear Modulus (GPa) = 66.73237 28.25898 47.49567
#
# Velocity S-wave (km/s) = 5.79392 3.77035 4.88800
# Velocity P-wave (km/s) = 8.08223 6.83538 7.48481
#
# Compressibility (1/GPa) = 0.02446346
#
# Stress axis : x y z
#
# Youngs Moduli (GPa) = 36.63810 98.66173 92.31538
#
# Poissons Ratio (x) = 0.47143 0.35615
# Poissons Ratio (y) = 0.17507 0.30123
# Poissons Ratio (z) = 0.14135 0.32194
#
# Static dielectric constant tensor:
#      x y z
#    x 1.674710 0.000000 0.000000 
#    y 0.000000 1.651830 0.000000 
#    z 0.000000 0.000000 1.715220 
# 
# From -- ./inp_files/56685.got.cif
#   From: 2010.05.17/outbox.cif.g08.bks.cpg/sg66_29_cif.got.tgz:56685.got - 2010.06.03 17:51:23.
