data_PCOD9496440
_publ_section_title
;
Structure prediction by ZEFSAII (Michael W. Deem and Ramdas Pophale) SiO2 
 PCOD9496440
Probable space group: C C C M
;
_chemical_formula_sum "Si O2"
_cell_formula_units_Z 68
_cell_length_a 19.966678
_cell_length_b 4.879697
_cell_length_c 29.455746
_cell_angle_alpha 90.000000
_cell_angle_beta 90.000000
_cell_angle_gamma 90.000000
_cell_volume 2869.912766
_symmetry_space_group_name_H-M "C C C M"
_symmetry_group_IT_number 66
_symmetry_cell_setting 'orthorhombic'
loop_
_space_group_symop_operation_xyz
x,y,z
-x,-y,z
x,-y,1/2-z
-x,y,1/2-z
-x,-y,-z
x,y,-z
-x,y,1/2+z
x,-y,1/2+z
1/2+x,1/2+y,z
1/2-x,1/2-y,z
1/2+x,1/2-y,1/2-z
1/2-x,1/2+y,1/2-z
1/2-x,1/2-y,-z
1/2+x,1/2+y,-z
1/2-x,1/2+y,1/2+z
1/2+x,1/2-y,1/2+z
loop_
_atom_site_type_symbol
_atom_site_label
_atom_site_fract_x
_atom_site_fract_y
_atom_site_fract_z
Si Si1 0.250000 0.250000 0.500000
Si Si2 0.310238 0.444680 0.317529
Si Si3 0.569397 0.871743 0.898078
Si Si4 0.842252 0.109208 0.916675
Si Si5 0.603425 0.942666 0.200772
O O1 0.203933 0.106351 0.539870
O O2 0.250000 0.250000 0.301057
O O3 0.302574 0.489427 0.371505
O O4 0.333146 0.730159 0.295060
O O5 0.373081 0.243736 0.313265
O O6 0.593537 0.589439 0.919630
O O7 0.564675 0.830826 0.843160
O O8 0.500000 0.000000 0.914043
O O9 0.628829 0.086586 0.908587
O O10 0.573182 0.000000 0.250000
#
# Coordination Sequence:
#
# PCOD9496440 Si02
#       5
#     4  16  16  16  16
#     4  12  24  46  70 102 128 158 220 272 324 406
#     4  10  19  36  54  82 124 165 202 261 323 379
#     4  10  22  43  64  89 130 172 211 260 326 386
#     4  10  23  39  66  95 123 166 210 266 329 390
#     4  10  21  34  56  87 119 163 219 257 309 371
#
# _framework density 23.694099999999999
#
# number of rings (size 3 to 8) (size 9 to 14) (size 15 to 20)
#    0.000    1.882    1.176    2.118    0.000    5.176 
#    0.000    3.529    0.000    8.471    0.000    0.000 
#    0.000    0.000    0.000    0.000    0.000    0.000 
#
# Total GULP energy -189318.129847 kJ/mol
# GULP energy per Si atom -5568.180290 kJ/mol
# Density = 2.364017 g / cm^3
# Si number density = 23.694100 Si / 1000 Ang^3
#
#
#
# Elastic Constant Matrix: (Units=GPa)
#
#
# Indices 1 2 3 4 5 6 
#
# 1 75.0543 22.0513 36.5819 0.0000 0.0000 0.0000
# 2 22.0513 125.1968 19.9237 0.0000 0.0000 0.0000
# 3 36.5819 19.9237 151.4778 0.0000 0.0000 0.0000
# 4 0.0000 0.0000 0.0000 3190.1740 0.0000 0.0000
# 5 0.0000 0.0000 0.0000 0.0000 3.5892 0.0000
# 6 0.0000 0.0000 0.0000 0.0000 0.0000 36.8513
#
#
#
# Elastic Compliance Matrix: (Units=1/GPa)
#
#
# Indices 1 2 3 4 5 6 
#
# 1 0.015675 -0.002205 -0.003496 0.000000 0.000000 0.000000
# 2 -0.002205 0.008468 -0.000581 0.000000 0.000000 0.000000
# 3 -0.003496 -0.000581 0.007522 0.000000 0.000000 0.000000
# 4 0.000000 0.000000 0.000000 0.000313 0.000000 0.000000
# 5 0.000000 0.000000 0.000000 0.000000 0.278616 0.000000
# 6 0.000000 0.000000 0.000000 0.000000 0.000000 0.027136
#
#
# Mechanical properties :
#
#
# Convention : Reuss Voigt Hill
#
# Bulk Modulus (GPa) = 52.34924 56.53810 54.44367
# Shear Modulus (GPa) = 14.01888 664.33438 339.17663
#
# Velocity S-wave (km/s) = 2.43505 16.76271 11.97743
# Velocity P-wave (km/s) = 5.48158 19.96408 14.63920
#
# Compressibility (1/GPa) = 0.01910248
#
# Stress axis : x y z
#
# Youngs Moduli (GPa) = 63.79514 118.08807 132.93842
#
# Poissons Ratio (x) = 0.26034 0.46470
# Poissons Ratio (y) = 0.14065 0.07729
# Poissons Ratio (z) = 0.22300 0.06866
#
# Static dielectric constant tensor:
#      x y z
#    x 1.996190 0.000000 0.000000 
#    y 0.000000 1.879020 0.000000 
#    z 0.000000 0.000000 1.938020 
# 
# From -- ./inp_files/65520.got.cif
#   From: 2010.05.17/outbox.cif.g08.bks.cpg/sg66_33_cif.got.tgz:65520.got - 2010.06.03 17:51:23.
