data_PCOD9496603
_publ_section_title
;
Structure prediction by ZEFSAII (Michael W. Deem and Ramdas Pophale) SiO2 
 PCOD9496603
Probable space group: C C C M
;
_chemical_formula_sum "Si O2"
_cell_formula_units_Z 112
_cell_length_a 10.839678
_cell_length_b 23.400625
_cell_length_c 19.481336
_cell_angle_alpha 90.000000
_cell_angle_beta 90.000000
_cell_angle_gamma 90.000000
_cell_volume 4941.542959
_symmetry_space_group_name_H-M "C C C M"
_symmetry_group_IT_number 66
_symmetry_cell_setting 'orthorhombic'
loop_
_space_group_symop_operation_xyz
x,y,z
-x,-y,z
x,-y,1/2-z
-x,y,1/2-z
-x,-y,-z
x,y,-z
-x,y,1/2+z
x,-y,1/2+z
1/2+x,1/2+y,z
1/2-x,1/2-y,z
1/2+x,1/2-y,1/2-z
1/2-x,1/2+y,1/2-z
1/2-x,1/2-y,-z
1/2+x,1/2+y,-z
1/2-x,1/2+y,1/2+z
1/2+x,1/2-y,1/2+z
loop_
_atom_site_type_symbol
_atom_site_label
_atom_site_fract_x
_atom_site_fract_y
_atom_site_fract_z
Si Si1 0.224479 0.571678 0.350205
Si Si2 0.516894 0.567459 0.080561
Si Si3 0.478058 0.137728 0.387680
Si Si4 0.058287 0.842238 0.821398
Si Si5 0.115300 0.739872 0.628911
Si Si6 0.862534 0.473033 0.926656
Si Si7 0.189744 0.661666 0.759889
O O1 0.348484 0.584883 0.391128
O O2 0.201408 0.504325 0.362656
O O3 0.226573 0.601221 0.276099
O O4 0.105442 0.602301 0.383214
O O5 0.500000 0.500000 0.092745
O O6 0.426187 0.606713 0.124828
O O7 0.505411 0.578373 0.000000
O O8 0.523986 0.198838 0.413761
O O9 0.382323 0.094552 0.422084
O O10 0.417927 0.150056 0.313632
O O11 0.190370 0.816682 0.800736
O O12 0.000000 0.863968 0.750000
O O13 0.962185 0.795510 0.850466
O O14 0.250000 0.750000 0.596431
O O15 0.151259 0.704617 0.698876
O O16 0.000000 0.500000 0.928694
O O17 0.800185 0.487783 0.000000
#
# Coordination Sequence:
#
# PCOD9496603 Si02
#       7
#    16  16  16  16  16  16  16
#     4  10  19  40  65  90 128 170 221 273 331 404
#     4  11  26  46  68  95 135 184 231 284 345 410
#     4  10  22  37  59  99 132 169 216 276 335 398
#     4  12  22  42  67 100 135 178 228 280 341 404
#     4  11  21  37  65  94 131 171 220 274 335 406
#     4   9  19  36  59  85 122 171 214 259 324 396
#     4  11  23  37  64 102 134 171 216 280 341 404
#
# _framework density 22.664985000000001
#
# number of rings (size 3 to 8) (size 9 to 14) (size 15 to 20)
#    0.000    1.429    2.857    3.857    2.000    1.429 
#    0.000    4.286    0.000    7.714    0.000    4.000 
#    0.000    0.000    0.000    0.000    0.000    0.000 
#
# Total GULP energy -312544.979320 kJ/mol
# GULP energy per Si atom -5581.160345 kJ/mol
# Density = 2.261340 g / cm^3
# Si number density = 22.664985 Si / 1000 Ang^3
#
#
#
# Elastic Constant Matrix: (Units=GPa)
#
#
# Indices 1 2 3 4 5 6 
#
# 1 83.6920 24.4658 19.0332 0.0000 0.0000 0.0000
# 2 24.4658 120.4982 44.3139 0.0000 0.0000 0.0000
# 3 19.0332 44.3139 43.9407 0.0000 0.0000 0.0000
# 4 0.0000 0.0000 0.0000 17.0531 0.0000 0.0000
# 5 0.0000 0.0000 0.0000 0.0000 7.5565 0.0000
# 6 0.0000 0.0000 0.0000 0.0000 0.0000 37.9451
#
#
#
# Elastic Compliance Matrix: (Units=1/GPa)
#
#
# Indices 1 2 3 4 5 6 
#
# 1 0.013319 -0.000926 -0.004835 0.000000 0.000000 0.000000
# 2 -0.000926 0.013256 -0.012967 0.000000 0.000000 0.000000
# 3 -0.004835 -0.012967 0.037929 0.000000 0.000000 0.000000
# 4 0.000000 0.000000 0.000000 0.058640 0.000000 0.000000
# 5 0.000000 0.000000 0.000000 0.000000 0.132337 0.000000
# 6 0.000000 0.000000 0.000000 0.000000 0.000000 0.026354
#
#
# Mechanical properties :
#
#
# Convention : Reuss Voigt Hill
#
# Bulk Modulus (GPa) = 36.97222 47.08408 42.02815
# Shear Modulus (GPa) = 15.22963 23.19881 19.21422
#
# Velocity S-wave (km/s) = 2.59500 3.20277 2.91477
# Velocity P-wave (km/s) = 5.03256 5.87333 5.46912
#
# Compressibility (1/GPa) = 0.02704734
#
# Stress axis : x y z
#
# Youngs Moduli (GPa) = 75.08117 75.43979 26.36474
#
# Poissons Ratio (x) = 0.06986 0.12748
# Poissons Ratio (y) = 0.06953 0.34187
# Poissons Ratio (z) = 0.36303 0.97823
#
# Static dielectric constant tensor:
#      x y z
#    x 1.894170 0.000000 0.000000 
#    y 0.000000 1.912160 0.000000 
#    z 0.000000 0.000000 1.837050 
# 
# From -- ./inp_files/49004.got.cif
#   From: 2010.05.17/outbox.cif.g08.bks.cpg/sg66_25_cif.got.tgz:49004.got - 2010.06.03 17:51:23.
