data_PCOD9496034
_publ_section_title
;
Structure prediction by ZEFSAII (Michael W. Deem and Ramdas Pophale) SiO2 
 PCOD9496034
Probable space group: C C C M
;
_chemical_formula_sum "Si O2"
_cell_formula_units_Z 104
_cell_length_a 18.672764
_cell_length_b 21.383494
_cell_length_c 14.184477
_cell_angle_alpha 90.000000
_cell_angle_beta 90.000000
_cell_angle_gamma 90.000000
_cell_volume 5663.704743
_symmetry_space_group_name_H-M "C C C M"
_symmetry_group_IT_number 66
_symmetry_cell_setting 'orthorhombic'
loop_
_space_group_symop_operation_xyz
x,y,z
-x,-y,z
x,-y,1/2-z
-x,y,1/2-z
-x,-y,-z
x,y,-z
-x,y,1/2+z
x,-y,1/2+z
1/2+x,1/2+y,z
1/2-x,1/2-y,z
1/2+x,1/2-y,1/2-z
1/2-x,1/2+y,1/2-z
1/2-x,1/2-y,-z
1/2+x,1/2+y,-z
1/2-x,1/2+y,1/2+z
1/2+x,1/2-y,1/2+z
loop_
_atom_site_type_symbol
_atom_site_label
_atom_site_fract_x
_atom_site_fract_y
_atom_site_fract_z
Si Si1 0.684497 0.076346 0.152961
Si Si2 0.170496 0.217405 0.500000
Si Si3 0.177828 0.890961 0.392199
Si Si4 0.894103 0.654537 0.500000
Si Si5 0.161474 0.435236 0.133867
Si Si6 0.082865 0.016537 0.390528
Si Si7 0.532921 0.929176 0.000000
Si Si8 0.340166 0.370089 0.314616
O O1 0.649066 0.128471 0.089474
O O2 0.650654 0.073167 0.255565
O O3 0.766940 0.091538 0.169143
O O4 0.675366 0.007908 0.109969
O O5 0.250000 0.250000 0.500000
O O6 0.111034 0.271542 0.500000
O O7 0.160721 0.178807 0.401879
O O8 0.158181 0.870270 0.500000
O O9 0.264004 0.901201 0.391788
O O10 0.160277 0.851055 0.296737
O O11 0.136098 0.957296 0.375876
O O12 0.969833 0.620600 0.500000
O O13 0.087460 0.418401 0.085536
O O14 0.093493 0.034422 0.500000
O O15 0.099829 0.077581 0.330176
O O16 0.000000 0.000000 0.376994
O O17 0.500000 0.000000 0.000000
#
# Coordination Sequence:
#
# PCOD9496034 Si02
#       8
#    16   8  16   8  16  16   8  16
#     4  10  19  32  56  87 125 152 201 244 299 368
#     4  12  24  40  65  87 115 157 212 266 297 359
#     4  10  20  33  58  89 124 161 201 244 312 379
#     4  12  24  38  56  90 117 155 208 258 301 371
#     4  10  19  33  53  87 125 164 184 242 315 372
#     4  10  20  33  56  95 135 163 190 246 318 380
#     4  12  22  34  56  85 126 165 197 251 318 372
#     4  11  20  36  60  91 124 164 203 254 307 361
#
# _framework density 18.362538000000001
#
# number of rings (size 3 to 8) (size 9 to 14) (size 15 to 20)
#    0.000    1.385    6.154    0.462    0.000    1.846 
#    0.000    0.000    0.000    4.154    2.000    0.000 
#    0.000    0.000    0.000    0.000    0.000    0.000 
#
# Total GULP energy -289742.122070 kJ/mol
# GULP energy per Si atom -5571.963886 kJ/mol
# Density = 1.832074 g / cm^3
# Si number density = 18.362538 Si / 1000 Ang^3
#
#
#
# Elastic Constant Matrix: (Units=GPa)
#
#
# Indices 1 2 3 4 5 6 
#
# 1 61.2231 2.3997 14.2281 0.0000 0.0000 0.0000
# 2 2.3997 34.5745 38.8912 0.0000 0.0000 0.0000
# 3 14.2281 38.8912 156.8482 0.0000 0.0000 0.0000
# 4 0.0000 0.0000 0.0000 28.6760 0.0000 0.0000
# 5 0.0000 0.0000 0.0000 0.0000 36.5499 0.0000
# 6 0.0000 0.0000 0.0000 0.0000 0.0000 16.2772
#
#
#
# Elastic Compliance Matrix: (Units=1/GPa)
#
#
# Indices 1 2 3 4 5 6 
#
# 1 0.016700 0.000756 -0.001702 0.000000 0.000000 0.000000
# 2 0.000756 0.040144 -0.010023 0.000000 0.000000 0.000000
# 3 -0.001702 -0.010023 0.009015 0.000000 0.000000 0.000000
# 4 0.000000 0.000000 0.000000 0.034872 0.000000 0.000000
# 5 0.000000 0.000000 0.000000 0.000000 0.027360 0.000000
# 6 0.000000 0.000000 0.000000 0.000000 0.000000 0.061436
#
#
# Mechanical properties :
#
#
# Convention : Reuss Voigt Hill
#
# Bulk Modulus (GPa) = 22.76807 40.40930 31.58868
# Shear Modulus (GPa) = 22.11355 29.44242 25.77798
#
# Velocity S-wave (km/s) = 3.47403 4.00859 3.75084
# Velocity P-wave (km/s) = 5.34022 6.59387 5.99988
#
# Compressibility (1/GPa) = 0.04392116
#
# Stress axis : x y z
#
# Youngs Moduli (GPa) = 59.88140 24.91003 110.92458
#
# Poissons Ratio (x) = -0.01883 0.18882
# Poissons Ratio (y) = -0.04525 1.11175
# Poissons Ratio (z) = 0.10193 0.24966
#
# Static dielectric constant tensor:
#      x y z
#    x 1.620560 0.000000 0.000000 
#    y 0.000000 1.617730 0.000000 
#    z 0.000000 0.000000 1.710430 
# 
# From -- ./inp_files/30226.got.cif
#   From: 2010.05.17/outbox.cif.g08.bks.cpg/sg66_16_cif.got.tgz:30226.got - 2010.06.03 17:51:23.
