data_PCOD9496993
_publ_section_title
;
Structure prediction by ZEFSAII (Michael W. Deem and Ramdas Pophale) SiO2 
 PCOD9496993
Probable space group: C C C M
;
_chemical_formula_sum "Si O2"
_cell_formula_units_Z 64
_cell_length_a 28.905611
_cell_length_b 14.479615
_cell_length_c 8.891184
_cell_angle_alpha 90.000000
_cell_angle_beta 90.000000
_cell_angle_gamma 90.000000
_cell_volume 3721.334988
_symmetry_space_group_name_H-M "C C C M"
_symmetry_group_IT_number 66
_symmetry_cell_setting 'orthorhombic'
loop_
_space_group_symop_operation_xyz
x,y,z
-x,-y,z
x,-y,1/2-z
-x,y,1/2-z
-x,-y,-z
x,y,-z
-x,y,1/2+z
x,-y,1/2+z
1/2+x,1/2+y,z
1/2-x,1/2-y,z
1/2+x,1/2-y,1/2-z
1/2-x,1/2+y,1/2-z
1/2-x,1/2-y,-z
1/2+x,1/2+y,-z
1/2-x,1/2+y,1/2+z
1/2+x,1/2-y,1/2+z
loop_
_atom_site_type_symbol
_atom_site_label
_atom_site_fract_x
_atom_site_fract_y
_atom_site_fract_z
Si Si1 0.236077 0.141889 0.170478
Si Si2 0.951381 0.101424 0.319210
Si Si3 0.140334 0.786427 0.681145
Si Si4 0.671209 0.905769 0.677412
O O1 0.250000 0.250000 0.161124
O O2 0.183027 0.145468 0.223197
O O3 0.274428 0.099704 0.278091
O O4 0.239658 0.103849 0.000000
O O5 0.955118 0.094239 0.500000
O O6 0.908560 0.167842 0.282373
O O7 0.000000 0.134396 0.250000
O O8 0.942982 0.000000 0.250000
O O9 0.143893 0.775326 0.500000
O O10 0.148427 0.686925 0.755416
O O11 0.665816 0.907607 0.500000
O O12 0.652530 0.000000 0.750000
#
# Coordination Sequence:
#
# PCOD9496993 Si02
#       4
#    16  16  16  16
#     4   8  15  30  48  67  96 130 164 203 245 287
#     4  10  20  35  55  78 104 131 163 205 253 304
#     4   9  19  35  53  74 102 135 169 209 254 298
#     4  11  21  32  49  73 103 138 174 210 248 295
#
# _framework density 17.198129000000002
#
# number of rings (size 3 to 8) (size 9 to 14) (size 15 to 20)
#    0.000    2.500    0.000    5.250    0.000    7.500 
#    0.000    2.500    0.000    0.750    0.000    5.250 
#    0.000    0.000    0.000    0.000    0.000    0.000 
#
# Total GULP energy -178440.904128 kJ/mol
# GULP energy per Si atom -5576.278254 kJ/mol
# Density = 1.715898 g / cm^3
# Si number density = 17.198129 Si / 1000 Ang^3
#
#
#
# Elastic Constant Matrix: (Units=GPa)
#
#
# Indices 1 2 3 4 5 6 
#
# 1 144.0400 61.6761 50.5161 0.0000 0.0000 0.0000
# 2 61.6761 76.1764 42.1551 0.0000 0.0000 0.0000
# 3 50.5161 42.1551 72.4204 0.0000 0.0000 0.0000
# 4 0.0000 0.0000 0.0000 17.4098 0.0000 0.0000
# 5 0.0000 0.0000 0.0000 0.0000 22.9636 0.0000
# 6 0.0000 0.0000 0.0000 0.0000 0.0000 21.2108
#
#
#
# Elastic Compliance Matrix: (Units=1/GPa)
#
#
# Indices 1 2 3 4 5 6 
#
# 1 0.011282 -0.007051 -0.003766 0.000000 0.000000 0.000000
# 2 -0.007051 0.023772 -0.008919 0.000000 0.000000 0.000000
# 3 -0.003766 -0.008919 0.021627 0.000000 0.000000 0.000000
# 4 0.000000 0.000000 0.000000 0.057439 0.000000 0.000000
# 5 0.000000 0.000000 0.000000 0.000000 0.043547 0.000000
# 6 0.000000 0.000000 0.000000 0.000000 0.000000 0.047146
#
#
# Mechanical properties :
#
#
# Convention : Reuss Voigt Hill
#
# Bulk Modulus (GPa) = 58.10690 66.81461 62.46076
# Shear Modulus (GPa) = 19.99839 21.53613 20.76726
#
# Velocity S-wave (km/s) = 3.41372 3.54254 3.47872
# Velocity P-wave (km/s) = 7.02838 7.46103 7.24793
#
# Compressibility (1/GPa) = 0.01720966
#
# Stress axis : x y z
#
# Youngs Moduli (GPa) = 88.63519 42.06665 46.23927
#
# Poissons Ratio (x) = 0.29660 0.17412
# Poissons Ratio (y) = 0.62495 0.41241
# Poissons Ratio (z) = 0.33376 0.37520
#
# Static dielectric constant tensor:
#      x y z
#    x 1.599340 0.000000 0.000000 
#    y 0.000000 1.587010 0.000000 
#    z 0.000000 0.000000 1.577880 
# 
# From -- ./inp_files/5090.got.cif
#   From: 2010.05.17/outbox.cif.g08.bks.cpg/sg66_3_cif.got.tgz:5090.got - 2010.06.03 17:51:23.
