data_PCOD9496897
_publ_section_title
;
Structure prediction by ZEFSAII (Michael W. Deem and Ramdas Pophale) SiO2 
 PCOD9496897
Probable space group: C C C M
;
_chemical_formula_sum "Si O2"
_cell_formula_units_Z 96
_cell_length_a 22.001196
_cell_length_b 11.284897
_cell_length_c 23.775964
_cell_angle_alpha 90.000000
_cell_angle_beta 90.000000
_cell_angle_gamma 90.000000
_cell_volume 5903.125604
_symmetry_space_group_name_H-M "C C C M"
_symmetry_group_IT_number 66
_symmetry_cell_setting 'orthorhombic'
loop_
_space_group_symop_operation_xyz
x,y,z
-x,-y,z
x,-y,1/2-z
-x,y,1/2-z
-x,-y,-z
x,y,-z
-x,y,1/2+z
x,-y,1/2+z
1/2+x,1/2+y,z
1/2-x,1/2-y,z
1/2+x,1/2-y,1/2-z
1/2-x,1/2+y,1/2-z
1/2-x,1/2-y,-z
1/2+x,1/2+y,-z
1/2-x,1/2+y,1/2+z
1/2+x,1/2-y,1/2+z
loop_
_atom_site_type_symbol
_atom_site_label
_atom_site_fract_x
_atom_site_fract_y
_atom_site_fract_z
Si Si1 0.619543 0.874876 0.622614
Si Si2 0.403330 0.911519 0.298284
Si Si3 0.461171 0.170121 0.000000
Si Si4 0.986965 0.739886 0.121292
Si Si5 0.391213 0.500000 0.250000
Si Si6 0.000000 0.000000 0.338056
Si Si7 0.398867 0.918735 0.000000
Si Si8 0.677855 0.257152 0.776592
O O1 0.548992 0.835480 0.622636
O O2 0.635454 0.884682 0.557081
O O3 0.656256 0.783348 0.661197
O O4 0.621844 0.001977 0.653310
O O5 0.448053 0.818112 0.328139
O O6 0.352241 0.837274 0.265943
O O7 0.429798 0.000000 0.250000
O O8 0.453600 0.229378 0.938968
O O9 0.533512 0.139370 0.000000
O O10 0.417709 0.056279 0.000000
O O11 0.003695 0.876530 0.129588
O O12 0.438712 0.512615 0.301291
O O13 0.350033 0.615186 0.239101
O O14 0.750000 0.250000 0.772799
#
# Coordination Sequence:
#
# PCOD9496897 Si02
#       8
#    16  16   8  16   8   8   8  16
#     4  10  20  34  55  83 108 141 178 227 271 327
#     4  10  21  32  52  80 107 138 174 226 273 325
#     4   9  18  29  52  80 114 147 170 216 270 323
#     4  11  19  35  51  82 115 143 180 215 273 334
#     4  11  22  38  54  76 114 149 178 222 276 339
#     4  11  22  35  54  78 114 151 178 217 280 338
#     4   9  16  32  53  80 112 142 173 221 275 319
#     4  11  24  38  54  80 107 143 187 232 279 328
#
# _framework density 16.262571999999999
#
# number of rings (size 3 to 8) (size 9 to 14) (size 15 to 20)
#    0.000    1.667    5.000    0.500    3.500    5.000 
#    0.000    0.417    0.000    0.000    0.000    2.333 
#    0.000    0.000    0.000    0.000    0.000    0.000 
#
# Total GULP energy -267429.686145 kJ/mol
# GULP energy per Si atom -5571.451795 kJ/mol
# Density = 1.622556 g / cm^3
# Si number density = 16.262572 Si / 1000 Ang^3
#
#
#
# Elastic Constant Matrix: (Units=GPa)
#
#
# Indices 1 2 3 4 5 6 
#
# 1 79.1082 19.2640 41.7561 0.0000 0.0000 0.0000
# 2 19.2640 87.1153 53.5578 0.0000 0.0000 0.0000
# 3 41.7561 53.5578 141.1105 0.0000 0.0000 0.0000
# 4 0.0000 0.0000 0.0000 11.8185 0.0000 0.0000
# 5 0.0000 0.0000 0.0000 0.0000 4.4521 0.0000
# 6 0.0000 0.0000 0.0000 0.0000 0.0000 9.6525
#
#
#
# Elastic Compliance Matrix: (Units=1/GPa)
#
#
# Indices 1 2 3 4 5 6 
#
# 1 0.015020 -0.000768 -0.004153 0.000000 0.000000 0.000000
# 2 -0.000768 0.015012 -0.005470 0.000000 0.000000 0.000000
# 3 -0.004153 -0.005470 0.010392 0.000000 0.000000 0.000000
# 4 0.000000 0.000000 0.000000 0.084613 0.000000 0.000000
# 5 0.000000 0.000000 0.000000 0.000000 0.224613 0.000000
# 6 0.000000 0.000000 0.000000 0.000000 0.000000 0.103600
#
#
# Mechanical properties :
#
#
# Convention : Reuss Voigt Hill
#
# Bulk Modulus (GPa) = 50.91467 59.60997 55.26232
# Shear Modulus (GPa) = 10.40408 18.03502 14.21955
#
# Velocity S-wave (km/s) = 2.53208 3.33376 2.96019
# Velocity P-wave (km/s) = 6.31858 7.18004 6.76304
#
# Compressibility (1/GPa) = 0.01964070
#
# Stress axis : x y z
#
# Youngs Moduli (GPa) = 66.57743 66.61297 96.22920
#
# Poissons Ratio (x) = 0.05117 0.39964
# Poissons Ratio (y) = 0.05114 0.52642
# Poissons Ratio (z) = 0.27650 0.36440
#
# Static dielectric constant tensor:
#      x y z
#    x 1.511020 0.000000 0.000000 
#    y 0.000000 1.541810 0.000000 
#    z 0.000000 0.000000 1.582760 
# 
# From -- ./inp_files/59531.got.cif
#   From: 2010.05.17/outbox.cif.g08.bks.cpg/sg66_30_cif.got.tgz:59531.got - 2010.06.03 17:51:23.
