data_PCOD9496039
_publ_section_title
;
Structure prediction by ZEFSAII (Michael W. Deem and Ramdas Pophale) SiO2 
 PCOD9496039
Probable space group: C C C M
;
_chemical_formula_sum "Si O2"
_cell_formula_units_Z 64
_cell_length_a 10.059856
_cell_length_b 18.259097
_cell_length_c 19.389552
_cell_angle_alpha 90.000000
_cell_angle_beta 90.000000
_cell_angle_gamma 90.000000
_cell_volume 3561.548269
_symmetry_space_group_name_H-M "C C C M"
_symmetry_group_IT_number 66
_symmetry_cell_setting 'orthorhombic'
loop_
_space_group_symop_operation_xyz
x,y,z
-x,-y,z
x,-y,1/2-z
-x,y,1/2-z
-x,-y,-z
x,y,-z
-x,y,1/2+z
x,-y,1/2+z
1/2+x,1/2+y,z
1/2-x,1/2-y,z
1/2+x,1/2-y,1/2-z
1/2-x,1/2+y,1/2-z
1/2-x,1/2-y,-z
1/2+x,1/2+y,-z
1/2-x,1/2+y,1/2+z
1/2+x,1/2-y,1/2+z
loop_
_atom_site_type_symbol
_atom_site_label
_atom_site_fract_x
_atom_site_fract_y
_atom_site_fract_z
Si Si1 0.050969 0.583184 0.677279
Si Si2 0.861824 0.664420 0.581533
Si Si3 0.188238 0.829914 0.312202
Si Si4 0.106049 0.177000 0.348573
O O1 0.204766 0.606047 0.675335
O O2 0.000000 0.500000 0.680069
O O3 0.000000 0.618288 0.750000
O O4 0.978502 0.615077 0.610802
O O5 0.861896 0.673603 0.500000
O O6 0.886755 0.741585 0.619816
O O7 0.718602 0.635073 0.607758
O O8 0.250000 0.750000 0.331674
O O9 0.153943 0.824701 0.230720
O O10 0.048046 0.844991 0.349506
#
# Coordination Sequence:
#
# PCOD9496039 Si02
#       4
#    16  16  16  16
#     4  11  22  39  60  84 117 157 202 245 293 360
#     4  11  21  36  57  87 123 157 190 240 309 363
#     4  11  18  33  61  89 113 144 198 255 292 335
#     4  10  19  32  58  87 117 145 192 245 302 342
#
# _framework density 17.969712000000001
#
# number of rings (size 3 to 8) (size 9 to 14) (size 15 to 20)
#    0.000    1.250    7.500    1.500    0.000    0.500 
#    0.000    5.000    0.000    1.500    0.000    0.000 
#    0.000    0.000    0.000    0.000    0.000    0.000 
#
# Total GULP energy -178247.689610 kJ/mol
# GULP energy per Si atom -5570.240300 kJ/mol
# Density = 1.792881 g / cm^3
# Si number density = 17.969712 Si / 1000 Ang^3
#
#
#
# Elastic Constant Matrix: (Units=GPa)
#
#
# Indices 1 2 3 4 5 6 
#
# 1 193.5427 43.9626 55.2943 0.0000 0.0000 0.0000
# 2 43.9626 44.6631 24.3197 0.0000 0.0000 0.0000
# 3 55.2943 24.3197 93.8493 0.0000 0.0000 0.0000
# 4 0.0000 0.0000 0.0000 10.7339 0.0000 0.0000
# 5 0.0000 0.0000 0.0000 0.0000 20.1374 0.0000
# 6 0.0000 0.0000 0.0000 0.0000 0.0000 22.5543
#
#
#
# Elastic Compliance Matrix: (Units=1/GPa)
#
#
# Indices 1 2 3 4 5 6 
#
# 1 0.007243 -0.005595 -0.002817 0.000000 0.000000 0.000000
# 2 -0.005595 0.030390 -0.004579 0.000000 0.000000 0.000000
# 3 -0.002817 -0.004579 0.013502 0.000000 0.000000 0.000000
# 4 0.000000 0.000000 0.000000 0.093163 0.000000 0.000000
# 5 0.000000 0.000000 0.000000 0.000000 0.049659 0.000000
# 6 0.000000 0.000000 0.000000 0.000000 0.000000 0.044337
#
#
# Mechanical properties :
#
#
# Convention : Reuss Voigt Hill
#
# Bulk Modulus (GPa) = 39.75740 64.35649 52.05694
# Shear Modulus (GPa) = 18.33785 24.58368 21.46076
#
# Velocity S-wave (km/s) = 3.19797 3.70274 3.45958
# Velocity P-wave (km/s) = 5.98404 7.36017 6.70749
#
# Compressibility (1/GPa) = 0.02515255
#
# Stress axis : x y z
#
# Youngs Moduli (GPa) = 138.07210 32.90533 74.06389
#
# Poissons Ratio (x) = 0.18410 0.20867
# Poissons Ratio (y) = 0.77250 0.33912
# Poissons Ratio (z) = 0.38900 0.15067
#
# Static dielectric constant tensor:
#      x y z
#    x 1.670920 0.000000 0.000000 
#    y 0.000000 1.690780 0.000000 
#    z 0.000000 0.000000 1.594400 
# 
# From -- ./inp_files/36331.got.cif
#   From: 2010.05.17/outbox.cif.g08.bks.cpg/sg66_19_cif.got.tgz:36331.got - 2010.06.03 17:51:23.
