data_PCOD9496929
_publ_section_title
;
Structure prediction by ZEFSAII (Michael W. Deem and Ramdas Pophale) SiO2 
 PCOD9496929
Probable space group: C C C M
;
_chemical_formula_sum "Si O2"
_cell_formula_units_Z 64
_cell_length_a 6.632079
_cell_length_b 14.986280
_cell_length_c 23.186710
_cell_angle_alpha 90.000000
_cell_angle_beta 90.000000
_cell_angle_gamma 90.000000
_cell_volume 2304.531579
_symmetry_space_group_name_H-M "C C C M"
_symmetry_group_IT_number 66
_symmetry_cell_setting 'orthorhombic'
loop_
_space_group_symop_operation_xyz
x,y,z
-x,-y,z
x,-y,1/2-z
-x,y,1/2-z
-x,-y,-z
x,y,-z
-x,y,1/2+z
x,-y,1/2+z
1/2+x,1/2+y,z
1/2-x,1/2-y,z
1/2+x,1/2-y,1/2-z
1/2-x,1/2+y,1/2-z
1/2-x,1/2-y,-z
1/2+x,1/2+y,-z
1/2-x,1/2+y,1/2+z
1/2+x,1/2-y,1/2+z
loop_
_atom_site_type_symbol
_atom_site_label
_atom_site_fract_x
_atom_site_fract_y
_atom_site_fract_z
Si Si1 0.210193 0.531380 0.894431
Si Si2 0.448166 0.687037 0.061464
Si Si3 0.458396 0.204062 0.670927
Si Si4 0.793772 0.915137 0.213908
O O1 0.536217 0.728242 0.879556
O O2 0.125367 0.611641 0.855068
O O3 0.301629 0.456853 0.851149
O O4 0.000000 0.500000 0.924089
O O5 0.250000 0.750000 0.056925
O O6 0.369742 0.585820 0.067861
O O7 0.558987 0.694143 0.000000
O O8 0.250000 0.250000 0.690307
O O9 0.358397 0.166459 0.791433
O O10 0.000000 0.893159 0.250000
O O11 0.716121 0.000000 0.250000
#
# Coordination Sequence:
#
# PCOD9496929 Si02
#       4
#    16  16  16  16
#     4   8  15  28  50  85 132 181 242 314 354 437
#     4   8  14  27  52  85 134 191 241 300 370 436
#     4   8  16  32  57  88 138 187 243 319 366 447
#     4  10  20  34  57  89 131 191 259 314 380 435
#
# _framework density 27.771370999999998
#
# number of rings (size 3 to 8) (size 9 to 14) (size 15 to 20)
#    0.000    4.000    0.000    0.000    0.000    5.000 
#    0.000    3.750   44.000   18.000    0.000   21.000 
#    0.000    1.000    0.000    0.000    0.000   37.750 
#
# Total GULP energy -178518.032240 kJ/mol
# GULP energy per Si atom -5578.688508 kJ/mol
# Density = 2.770816 g / cm^3
# Si number density = 27.771371 Si / 1000 Ang^3
#
#
#
# Elastic Constant Matrix: (Units=GPa)
#
#
# Indices 1 2 3 4 5 6 
#
# 1 189.3872 101.8684 98.2144 0.0000 0.0000 0.0000
# 2 101.8684 184.8396 67.7179 0.0000 0.0000 0.0000
# 3 98.2144 67.7179 161.9270 0.0000 0.0000 0.0000
# 4 0.0000 0.0000 0.0000 -10.7640 0.0000 0.0000
# 5 0.0000 0.0000 0.0000 0.0000 -15.6244 0.0000
# 6 0.0000 0.0000 0.0000 0.0000 0.0000 70.2751
#
#
#
# Elastic Compliance Matrix: (Units=1/GPa)
#
#
# Indices 1 2 3 4 5 6 
#
# 1 0.009416 -0.003657 -0.004182 0.000000 0.000000 0.000000
# 2 -0.003657 0.007810 -0.001048 0.000000 0.000000 0.000000
# 3 -0.004182 -0.001048 0.009150 0.000000 0.000000 0.000000
# 4 0.000000 0.000000 0.000000 -0.092903 0.000000 0.000000
# 5 0.000000 0.000000 0.000000 0.000000 -0.064003 0.000000
# 6 0.000000 0.000000 0.000000 0.000000 0.000000 0.014230
#
#
# Mechanical properties :
#
#
# Convention : Reuss Voigt Hill
#
# Bulk Modulus (GPa) = 116.24725 119.08390 117.66558
# Shear Modulus (GPa) = -52.26889 26.66756 -12.80067
#
# Velocity S-wave (km/s) = -4.34304 3.10216 -2.14926
# Velocity P-wave (km/s) = 4.09880 7.47023 6.02514
#
# Compressibility (1/GPa) = 0.00860235
#
# Stress axis : x y z
#
# Youngs Moduli (GPa) = 106.20281 128.04871 109.28911
#
# Poissons Ratio (x) = 0.46832 0.45700
# Poissons Ratio (y) = 0.38842 0.11450
# Poissons Ratio (z) = 0.44410 0.13415
#
# Static dielectric constant tensor:
#      x y z
#    x 2.261220 0.000000 0.000000 
#    y 0.000000 2.136930 0.000000 
#    z 0.000000 0.000000 2.319470 
# 
# From -- ./inp_files/62297.got.cif
#   From: 2010.05.17/outbox.cif.g08.bks.cpg/sg66_32_cif.got.tgz:62297.got - 2010.06.03 17:51:23.
