data_PCOD9496995
_publ_section_title
;
Structure prediction by ZEFSAII (Michael W. Deem and Ramdas Pophale) SiO2 
 PCOD9496995
Probable space group: C C C M
;
_chemical_formula_sum "Si O2"
_cell_formula_units_Z 96
_cell_length_a 24.686824
_cell_length_b 23.797783
_cell_length_c 8.870031
_cell_angle_alpha 90.000000
_cell_angle_beta 90.000000
_cell_angle_gamma 90.000000
_cell_volume 5211.069418
_symmetry_space_group_name_H-M "C C C M"
_symmetry_group_IT_number 66
_symmetry_cell_setting 'orthorhombic'
loop_
_space_group_symop_operation_xyz
x,y,z
-x,-y,z
x,-y,1/2-z
-x,y,1/2-z
-x,-y,-z
x,y,-z
-x,y,1/2+z
x,-y,1/2+z
1/2+x,1/2+y,z
1/2-x,1/2-y,z
1/2+x,1/2-y,1/2-z
1/2-x,1/2+y,1/2-z
1/2-x,1/2-y,-z
1/2+x,1/2+y,-z
1/2-x,1/2+y,1/2+z
1/2+x,1/2-y,1/2+z
loop_
_atom_site_type_symbol
_atom_site_label
_atom_site_fract_x
_atom_site_fract_y
_atom_site_fract_z
Si Si1 0.617985 0.438785 0.180607
Si Si2 0.057794 0.437797 0.317391
Si Si3 0.278109 0.633557 0.181107
Si Si4 0.341773 0.859089 0.818697
Si Si5 0.337935 0.263958 0.822547
Si Si6 0.555220 0.661524 0.177519
O O1 0.612261 0.500000 0.250000
O O2 0.675765 0.410943 0.226062
O O3 0.572952 0.396122 0.242359
O O4 0.615558 0.441261 0.000000
O O5 0.067198 0.500000 0.250000
O O6 0.054594 0.440701 0.500000
O O7 0.107112 0.396863 0.272826
O O8 0.000000 0.418489 0.250000
O O9 0.217268 0.616271 0.223525
O O10 0.294040 0.693714 0.251116
O O11 0.280668 0.639151 0.000000
O O12 0.341952 0.796614 0.752508
O O13 0.343666 0.855307 0.000000
O O14 0.395394 0.295401 0.801077
O O15 0.327272 0.258353 0.000000
O O16 0.500000 0.682923 0.250000
O O17 0.548271 0.652066 0.000000
#
# Coordination Sequence:
#
# PCOD9496995 Si02
#       6
#    16  16  16  16  16  16
#     4  10  20  35  55  78 106 140 177 218 265 313
#     4  10  21  38  58  79 106 139 175 217 265 313
#     4   9  19  36  55  76 107 144 177 213 261 314
#     4  10  21  36  56  81 107 140 179 214 256 316
#     4  10  21  35  53  80 111 140 173 218 266 309
#     4  10  21  37  55  77 106 139 178 221 265 312
#
# _framework density 18.422322999999999
#
# number of rings (size 3 to 8) (size 9 to 14) (size 15 to 20)
#    0.000    2.167    0.000    3.000    0.000    8.333 
#    0.000    5.000    0.000    0.000    0.000    0.000 
#    0.000    0.000    0.000    0.000    0.000    0.000 
#
# Total GULP energy -267979.904971 kJ/mol
# GULP energy per Si atom -5582.914687 kJ/mol
# Density = 1.838039 g / cm^3
# Si number density = 18.422323 Si / 1000 Ang^3
#
#
#
# Elastic Constant Matrix: (Units=GPa)
#
#
# Indices 1 2 3 4 5 6 
#
# 1 102.2429 3.4396 27.2431 0.0000 0.0000 0.0000
# 2 3.4396 17.0267 4.3525 0.0000 0.0000 0.0000
# 3 27.2431 4.3525 32.0040 0.0000 0.0000 0.0000
# 4 0.0000 0.0000 0.0000 28.9326 0.0000 0.0000
# 5 0.0000 0.0000 0.0000 0.0000 21.0282 0.0000
# 6 0.0000 0.0000 0.0000 0.0000 0.0000 17.8668
#
#
#
# Elastic Compliance Matrix: (Units=1/GPa)
#
#
# Indices 1 2 3 4 5 6 
#
# 1 0.012650 0.000204 -0.010796 0.000000 0.000000 0.000000
# 2 0.000204 0.060850 -0.008450 0.000000 0.000000 0.000000
# 3 -0.010796 -0.008450 0.041586 0.000000 0.000000 0.000000
# 4 0.000000 0.000000 0.000000 0.034563 0.000000 0.000000
# 5 0.000000 0.000000 0.000000 0.000000 0.047555 0.000000
# 6 0.000000 0.000000 0.000000 0.000000 0.000000 0.055970
#
#
# Mechanical properties :
#
#
# Convention : Reuss Voigt Hill
#
# Bulk Modulus (GPa) = 12.98652 24.59378 18.79015
# Shear Modulus (GPa) = 15.77659 21.31474 18.54566
#
# Velocity S-wave (km/s) = 2.92958 3.40517 3.17629
# Velocity P-wave (km/s) = 4.30208 5.37021 4.86555
#
# Compressibility (1/GPa) = 0.07700295
#
# Stress axis : x y z
#
# Youngs Moduli (GPa) = 79.04829 16.43382 24.04681
#
# Poissons Ratio (x) = -0.00336 0.25962
# Poissons Ratio (y) = -0.01615 0.20318
# Poissons Ratio (z) = 0.85344 0.13886
#
# Static dielectric constant tensor:
#      x y z
#    x 1.660880 0.000000 0.000000 
#    y 0.000000 1.592840 0.000000 
#    z 0.000000 0.000000 1.616070 
# 
# From -- ./inp_files/9102.got.cif
#   From: 2010.05.17/outbox.cif.g08.bks.cpg/sg66_5_cif.got.tgz:9102.got - 2010.06.03 17:51:23.
