data_PCOD9496324
_publ_section_title
;
Structure prediction by ZEFSAII (Michael W. Deem and Ramdas Pophale) SiO2 
 PCOD9496324
Probable space group: C C C M
;
_chemical_formula_sum "Si O2"
_cell_formula_units_Z 96
_cell_length_a 17.376957
_cell_length_b 11.547953
_cell_length_c 25.934879
_cell_angle_alpha 90.000000
_cell_angle_beta 90.000000
_cell_angle_gamma 90.000000
_cell_volume 5204.307631
_symmetry_space_group_name_H-M "C C C M"
_symmetry_group_IT_number 66
_symmetry_cell_setting 'orthorhombic'
loop_
_space_group_symop_operation_xyz
x,y,z
-x,-y,z
x,-y,1/2-z
-x,y,1/2-z
-x,-y,-z
x,y,-z
-x,y,1/2+z
x,-y,1/2+z
1/2+x,1/2+y,z
1/2-x,1/2-y,z
1/2+x,1/2-y,1/2-z
1/2-x,1/2+y,1/2-z
1/2-x,1/2-y,-z
1/2+x,1/2+y,-z
1/2-x,1/2+y,1/2+z
1/2+x,1/2-y,1/2+z
loop_
_atom_site_type_symbol
_atom_site_label
_atom_site_fract_x
_atom_site_fract_y
_atom_site_fract_z
Si Si1 0.724631 0.881175 0.893771
Si Si2 0.370341 0.508857 0.060020
Si Si3 0.265749 0.374652 0.221828
Si Si4 0.056511 0.391251 0.939721
Si Si5 0.941948 0.116715 0.714608
Si Si6 0.000330 0.156374 0.898753
O O1 0.750000 0.750000 0.908709
O O2 0.793276 0.966322 0.911753
O O3 0.719254 0.882850 0.831687
O O4 0.643036 0.910615 0.919279
O O5 0.435757 0.409953 0.066811
O O6 0.414932 0.617767 0.085021
O O7 0.354892 0.528493 0.000000
O O8 0.257683 0.500000 0.250000
O O9 0.250000 0.250000 0.249701
O O10 0.354286 0.353935 0.205398
O O11 0.000000 0.500000 0.936159
O O12 0.017869 0.289499 0.906868
O O13 0.060970 0.356892 0.000000
O O14 0.000000 0.191147 0.750000
O O15 0.981673 0.116833 0.659253
O O16 0.932173 0.000000 0.750000
#
# Coordination Sequence:
#
# PCOD9496324 Si02
#       6
#    16  16  16  16  16  16
#     4  11  21  39  64  88 119 159 213 261 302 371
#     4  11  20  30  56  93 120 144 193 263 309 344
#     4  10  21  39  61  86 119 158 206 259 311 374
#     4  11  24  43  64  87 127 175 210 249 318 388
#     4  10  19  34  62  88 114 156 200 247 312 370
#     4  11  20  36  58  90 125 154 202 258 307 370
#
# _framework density 18.446259000000001
#
# number of rings (size 3 to 8) (size 9 to 14) (size 15 to 20)
#    0.000    1.333    3.333    5.500    2.333    0.667 
#    3.000    0.833    0.000    3.000    0.000    0.000 
#    0.000    0.000    0.000    0.000    0.000    0.000 
#
# Total GULP energy -267209.665759 kJ/mol
# GULP energy per Si atom -5566.868037 kJ/mol
# Density = 1.840427 g / cm^3
# Si number density = 18.446259 Si / 1000 Ang^3
#
#
#
# Elastic Constant Matrix: (Units=GPa)
#
#
# Indices 1 2 3 4 5 6 
#
# 1 101.8982 47.4207 36.5548 0.0000 0.0000 0.0000
# 2 47.4207 85.7512 45.2433 0.0000 0.0000 0.0000
# 3 36.5548 45.2433 100.8043 0.0000 0.0000 0.0000
# 4 0.0000 0.0000 0.0000 82.9512 0.0000 0.0000
# 5 0.0000 0.0000 0.0000 0.0000 40.4779 0.0000
# 6 0.0000 0.0000 0.0000 0.0000 0.0000 21.1695
#
#
#
# Elastic Compliance Matrix: (Units=1/GPa)
#
#
# Indices 1 2 3 4 5 6 
#
# 1 0.013524 -0.006409 -0.002028 0.000000 0.000000 0.000000
# 2 -0.006409 0.018317 -0.005897 0.000000 0.000000 0.000000
# 3 -0.002028 -0.005897 0.013302 0.000000 0.000000 0.000000
# 4 0.000000 0.000000 0.000000 0.012055 0.000000 0.000000
# 5 0.000000 0.000000 0.000000 0.000000 0.024705 0.000000
# 6 0.000000 0.000000 0.000000 0.000000 0.000000 0.047238
#
#
# Mechanical properties :
#
#
# Convention : Reuss Voigt Hill
#
# Bulk Modulus (GPa) = 60.69493 60.76570 60.73032
# Shear Modulus (GPa) = 30.61850 39.53537 35.07693
#
# Velocity S-wave (km/s) = 4.07858 4.63457 4.36544
# Velocity P-wave (km/s) = 7.42663 7.85191 7.64223
#
# Compressibility (1/GPa) = 0.01647584
#
# Stress axis : x y z
#
# Youngs Moduli (GPa) = 73.94485 54.59379 75.17509
#
# Poissons Ratio (x) = 0.34988 0.15243
# Poissons Ratio (y) = 0.47390 0.44332
# Poissons Ratio (z) = 0.14994 0.32195
#
# Static dielectric constant tensor:
#      x y z
#    x 1.540770 0.000000 0.000000 
#    y 0.000000 1.696300 0.000000 
#    z 0.000000 0.000000 1.651040 
# 
# From -- ./inp_files/58792.got.cif
#   From: 2010.05.17/outbox.cif.g08.bks.cpg/sg66_30_cif.got.tgz:58792.got - 2010.06.03 17:51:23.
