data_PCOD9496651
_publ_section_title
;
Structure prediction by ZEFSAII (Michael W. Deem and Ramdas Pophale) SiO2 
 PCOD9496651
Probable space group: C C C M
;
_chemical_formula_sum "Si O2"
_cell_formula_units_Z 96
_cell_length_a 23.212672
_cell_length_b 13.427867
_cell_length_c 15.694919
_cell_angle_alpha 90.000000
_cell_angle_beta 90.000000
_cell_angle_gamma 90.000000
_cell_volume 4892.054025
_symmetry_space_group_name_H-M "C C C M"
_symmetry_group_IT_number 66
_symmetry_cell_setting 'orthorhombic'
loop_
_space_group_symop_operation_xyz
x,y,z
-x,-y,z
x,-y,1/2-z
-x,y,1/2-z
-x,-y,-z
x,y,-z
-x,y,1/2+z
x,-y,1/2+z
1/2+x,1/2+y,z
1/2-x,1/2-y,z
1/2+x,1/2-y,1/2-z
1/2-x,1/2+y,1/2-z
1/2-x,1/2-y,-z
1/2+x,1/2+y,-z
1/2-x,1/2+y,1/2+z
1/2+x,1/2-y,1/2+z
loop_
_atom_site_type_symbol
_atom_site_label
_atom_site_fract_x
_atom_site_fract_y
_atom_site_fract_z
Si Si1 0.384245 0.701950 0.171731
Si Si2 0.799193 0.954652 0.596651
Si Si3 0.198447 0.669751 0.407682
Si Si4 0.005748 0.889698 0.902155
Si Si5 0.709728 0.849358 0.716212
Si Si6 0.624501 0.650601 0.131830
O O1 0.347892 0.628854 0.111535
O O2 0.450595 0.685768 0.144461
O O3 0.350806 0.808323 0.176819
O O4 0.377501 0.657193 0.266244
O O5 0.779186 0.948068 0.500000
O O6 0.747475 0.924555 0.659984
O O7 0.831125 0.061132 0.609802
O O8 0.198766 0.616884 0.500000
O O9 0.250000 0.750000 0.409101
O O10 0.200899 0.618799 0.314819
O O11 0.144924 0.743554 0.402213
O O12 0.939405 0.860738 0.902032
O O13 0.026529 0.900289 0.000000
O O14 0.000000 0.000000 0.861665
O O15 0.750000 0.750000 0.719891
#
# Coordination Sequence:
#
# PCOD9496651 Si02
#       6
#    16  16  16  16  16  16
#     4  10  20  32  47  65  96 135 172 210 254 302
#     4  11  20  31  48  69  96 130 169 213 258 303
#     4   9  17  32  51  68  92 124 163 213 261 306
#     4  11  21  31  45  69  99 134 177 210 248 303
#     4   8  18  32  45  67  90 124 170 207 253 303
#     4  11  21  33  50  73  99 132 174 220 260 305
#
# _framework density 19.623659
#
# number of rings (size 3 to 8) (size 9 to 14) (size 15 to 20)
#    0.000    2.000    1.667    4.000    0.000    4.333 
#    0.000    0.000    0.000    0.000    0.000    0.000 
#    0.000    1.333    0.000   35.500    0.000   38.000 
#
# Total GULP energy -267546.501929 kJ/mol
# GULP energy per Si atom -5573.885457 kJ/mol
# Density = 1.957899 g / cm^3
# Si number density = 19.623659 Si / 1000 Ang^3
#
#
#
# Elastic Constant Matrix: (Units=GPa)
#
#
# Indices 1 2 3 4 5 6 
#
# 1 112.2520 42.1385 43.1967 0.0000 0.0000 0.0000
# 2 42.1385 55.3706 34.1876 0.0000 0.0000 0.0000
# 3 43.1967 34.1876 157.1349 0.0000 0.0000 0.0000
# 4 0.0000 0.0000 0.0000 21.8186 0.0000 0.0000
# 5 0.0000 0.0000 0.0000 0.0000 16.2690 0.0000
# 6 0.0000 0.0000 0.0000 0.0000 0.0000 41.7058
#
#
#
# Elastic Compliance Matrix: (Units=1/GPa)
#
#
# Indices 1 2 3 4 5 6 
#
# 1 0.012818 -0.008755 -0.001619 0.000000 0.000000 0.000000
# 2 -0.008755 0.026843 -0.003433 0.000000 0.000000 0.000000
# 3 -0.001619 -0.003433 0.007556 0.000000 0.000000 0.000000
# 4 0.000000 0.000000 0.000000 0.045832 0.000000 0.000000
# 5 0.000000 0.000000 0.000000 0.000000 0.061467 0.000000
# 6 0.000000 0.000000 0.000000 0.000000 0.000000 0.023977
#
#
# Mechanical properties :
#
#
# Convention : Reuss Voigt Hill
#
# Bulk Modulus (GPa) = 51.01515 62.64478 56.82997
# Shear Modulus (GPa) = 23.51357 29.64099 26.57728
#
# Velocity S-wave (km/s) = 3.46529 3.89070 3.68414
# Velocity P-wave (km/s) = 6.48569 7.22328 6.86440
#
# Compressibility (1/GPa) = 0.01960202
#
# Stress axis : x y z
#
# Youngs Moduli (GPa) = 78.01392 37.25351 132.34581
#
# Poissons Ratio (x) = 0.32617 0.21425
# Poissons Ratio (y) = 0.68305 0.45439
# Poissons Ratio (z) = 0.12629 0.12790
#
# Static dielectric constant tensor:
#      x y z
#    x 1.755130 0.000000 0.000000 
#    y 0.000000 1.701990 0.000000 
#    z 0.000000 0.000000 1.755480 
# 
# From -- ./inp_files/31190.got.cif
#   From: 2010.05.17/outbox.cif.g08.bks.cpg/sg66_16_cif.got.tgz:31190.got - 2010.06.03 17:51:23.
