data_PCOD9496229
_publ_section_title
;
Structure prediction by ZEFSAII (Michael W. Deem and Ramdas Pophale) SiO2 
 PCOD9496229
Probable space group: C C C M
;
_chemical_formula_sum "Si O2"
_cell_formula_units_Z 84
_cell_length_a 24.282182
_cell_length_b 10.030083
_cell_length_c 20.787104
_cell_angle_alpha 90.000000
_cell_angle_beta 90.000000
_cell_angle_gamma 90.000000
_cell_volume 5062.747008
_symmetry_space_group_name_H-M "C C C M"
_symmetry_group_IT_number 66
_symmetry_cell_setting 'orthorhombic'
loop_
_space_group_symop_operation_xyz
x,y,z
-x,-y,z
x,-y,1/2-z
-x,y,1/2-z
-x,-y,-z
x,y,-z
-x,y,1/2+z
x,-y,1/2+z
1/2+x,1/2+y,z
1/2-x,1/2-y,z
1/2+x,1/2-y,1/2-z
1/2-x,1/2+y,1/2-z
1/2-x,1/2-y,-z
1/2+x,1/2+y,-z
1/2-x,1/2+y,1/2+z
1/2+x,1/2-y,1/2+z
loop_
_atom_site_type_symbol
_atom_site_label
_atom_site_fract_x
_atom_site_fract_y
_atom_site_fract_z
Si Si1 0.425070 0.129008 0.858958
Si Si2 0.797348 0.651117 0.667273
Si Si3 0.402027 0.145012 0.575427
Si Si4 0.000000 0.500000 0.250000
Si Si5 0.998504 0.846936 0.923605
Si Si6 0.299401 0.154632 0.818686
O O1 0.459294 0.087013 0.795115
O O2 0.452962 0.257524 0.889444
O O3 0.360670 0.160189 0.847713
O O4 0.428137 0.997541 0.904295
O O5 0.750000 0.750000 0.644606
O O6 0.850460 0.663808 0.622528
O O7 0.808366 0.681024 0.742513
O O8 0.779988 0.496538 0.668610
O O9 0.387090 0.141452 0.500000
O O10 0.444955 0.264905 0.585822
O O11 0.987499 0.849086 0.000000
O O12 0.000000 0.000000 0.901032
O O13 0.250000 0.250000 0.841268
#
# Coordination Sequence:
#
# PCOD9496229 Si02
#       6
#    16  16  16   4  16  16
#     4  11  20  34  58  78 109 140 182 228 266 329
#     4   9  18  33  53  74 103 136 178 223 265 319
#     4  10  19  34  55  79 105 142 186 223 270 327
#     4  12  20  32  60  88 108 140 186 232 280 316
#     4  10  21  36  53  77 109 143 177 221 276 325
#     4   9  19  34  53  76 103 142 176 215 271 324
#
# _framework density 16.591783
#
# number of rings (size 3 to 8) (size 9 to 14) (size 15 to 20)
#    0.000    2.095    1.905    2.857    0.000    3.429 
#    0.000    0.476    0.000   14.286    0.000    0.000 
#    0.000    0.000    0.000    0.000    0.000    0.000 
#
# Total GULP energy -234068.245536 kJ/mol
# GULP energy per Si atom -5573.053465 kJ/mol
# Density = 1.655402 g / cm^3
# Si number density = 16.591783 Si / 1000 Ang^3
#
#
#
# Elastic Constant Matrix: (Units=GPa)
#
#
# Indices 1 2 3 4 5 6 
#
# 1 101.4448 74.5845 42.9057 0.0000 0.0000 0.0000
# 2 74.5845 136.8828 50.5895 0.0000 0.0000 0.0000
# 3 42.9057 50.5895 51.4852 0.0000 0.0000 0.0000
# 4 0.0000 0.0000 0.0000 24.8714 0.0000 0.0000
# 5 0.0000 0.0000 0.0000 0.0000 5.5809 0.0000
# 6 0.0000 0.0000 0.0000 0.0000 0.0000 33.1250
#
#
#
# Elastic Compliance Matrix: (Units=1/GPa)
#
#
# Indices 1 2 3 4 5 6 
#
# 1 0.018647 -0.006936 -0.008724 0.000000 0.000000 0.000000
# 2 -0.006936 0.014051 -0.008027 0.000000 0.000000 0.000000
# 3 -0.008724 -0.008027 0.034581 0.000000 0.000000 0.000000
# 4 0.000000 0.000000 0.000000 0.040207 0.000000 0.000000
# 5 0.000000 0.000000 0.000000 0.000000 0.179182 0.000000
# 6 0.000000 0.000000 0.000000 0.000000 0.000000 0.030189
#
#
# Mechanical properties :
#
#
# Convention : Reuss Voigt Hill
#
# Bulk Modulus (GPa) = 50.23890 69.55246 59.89568
# Shear Modulus (GPa) = 13.48197 20.83099 17.15648
#
# Velocity S-wave (km/s) = 2.85365 3.54715 3.21913
# Velocity P-wave (km/s) = 6.41895 7.66728 7.07072
#
# Compressibility (1/GPa) = 0.01990490
#
# Stress axis : x y z
#
# Youngs Moduli (GPa) = 53.62794 71.16769 28.91799
#
# Poissons Ratio (x) = 0.49362 0.25229
# Poissons Ratio (y) = 0.37196 0.23212
# Poissons Ratio (z) = 0.46787 0.57124
#
# Static dielectric constant tensor:
#      x y z
#    x 1.568480 0.000000 0.000000 
#    y 0.000000 1.552010 0.000000 
#    z 0.000000 0.000000 1.561330 
# 
# From -- ./inp_files/52323.got.cif
#   From: 2010.05.17/outbox.cif.g08.bks.cpg/sg66_27_cif.got.tgz:52323.got - 2010.06.03 17:51:23.
