data_PCOD9496027
_publ_section_title
;
Structure prediction by ZEFSAII (Michael W. Deem and Ramdas Pophale) SiO2 
 PCOD9496027
Probable space group: C C C M
;
_chemical_formula_sum "Si O2"
_cell_formula_units_Z 52
_cell_length_a 6.807700
_cell_length_b 18.449651
_cell_length_c 14.519974
_cell_angle_alpha 90.000000
_cell_angle_beta 90.000000
_cell_angle_gamma 90.000000
_cell_volume 1823.704220
_symmetry_space_group_name_H-M "C C C M"
_symmetry_group_IT_number 66
_symmetry_cell_setting 'orthorhombic'
loop_
_space_group_symop_operation_xyz
x,y,z
-x,-y,z
x,-y,1/2-z
-x,y,1/2-z
-x,-y,-z
x,y,-z
-x,y,1/2+z
x,-y,1/2+z
1/2+x,1/2+y,z
1/2-x,1/2-y,z
1/2+x,1/2-y,1/2-z
1/2-x,1/2+y,1/2-z
1/2-x,1/2-y,-z
1/2+x,1/2+y,-z
1/2-x,1/2+y,1/2+z
1/2+x,1/2-y,1/2+z
loop_
_atom_site_type_symbol
_atom_site_label
_atom_site_fract_x
_atom_site_fract_y
_atom_site_fract_z
Si Si1 0.000000 0.500000 0.250000
Si Si2 0.067291 0.077658 0.643978
Si Si3 0.032614 0.238126 0.608319
Si Si4 0.965125 0.391566 0.607561
O O1 0.118588 0.551856 0.318902
O O2 0.975840 0.154564 0.612312
O O3 0.298589 0.092483 0.619923
O O4 0.000000 0.076117 0.750000
O O5 0.000000 0.000000 0.603896
O O6 0.046349 0.254967 0.500000
O O7 0.250000 0.250000 0.649819
O O8 0.919716 0.309730 0.640361
O O9 0.916768 0.404443 0.500000
#
# Coordination Sequence:
#
# PCOD9496027 Si02
#       4
#     4  16  16  16
#     4  12  22  36  62  82 106 152 202 246 280 342
#     4  10  19  32  55  87 118 144 189 238 287 341
#     4   8  16  32  52  74 105 148 187 225 281 342
#     4  10  22  39  57  83 118 155 194 238 293 352
#
# _framework density 28.513397000000001
#
# number of rings (size 3 to 8) (size 9 to 14) (size 15 to 20)
#    0.000    2.462    0.000    5.077    2.154    2.462 
#    0.000    0.000    0.000    0.000    0.000   10.769 
#    0.000    0.000    0.000    0.000    0.000    0.000 
#
# Total GULP energy -145237.940335 kJ/mol
# GULP energy per Si atom -5586.074628 kJ/mol
# Density = 2.844850 g / cm^3
# Si number density = 28.513397 Si / 1000 Ang^3
#
#
#
# Elastic Constant Matrix: (Units=GPa)
#
#
# Indices 1 2 3 4 5 6 
#
# 1 147.3017 27.2241 -2.9917 0.0000 0.0000 0.0000
# 2 27.2241 324.3399 43.4044 0.0000 0.0000 0.0000
# 3 -2.9917 43.4044 175.9852 0.0000 0.0000 0.0000
# 4 0.0000 0.0000 0.0000 57.2038 0.0000 0.0000
# 5 0.0000 0.0000 0.0000 0.0000 15.5732 0.0000
# 6 0.0000 0.0000 0.0000 0.0000 0.0000 35.0075
#
#
#
# Elastic Compliance Matrix: (Units=1/GPa)
#
#
# Indices 1 2 3 4 5 6 
#
# 1 0.006908 -0.000616 0.000269 0.000000 0.000000 0.000000
# 2 -0.000616 0.003243 -0.000810 0.000000 0.000000 0.000000
# 3 0.000269 -0.000810 0.005887 0.000000 0.000000 0.000000
# 4 0.000000 0.000000 0.000000 0.017481 0.000000 0.000000
# 5 0.000000 0.000000 0.000000 0.000000 0.064213 0.000000
# 6 0.000000 0.000000 0.000000 0.000000 0.000000 0.028565
#
#
# Mechanical properties :
#
#
# Convention : Reuss Voigt Hill
#
# Bulk Modulus (GPa) = 72.86360 86.98893 79.92627
# Shear Modulus (GPa) = 37.54134 60.22289 48.88212
#
# Velocity S-wave (km/s) = 3.63246 4.60073 4.14497
# Velocity P-wave (km/s) = 6.57288 7.66790 7.14141
#
# Compressibility (1/GPa) = 0.01372427
#
# Stress axis : x y z
#
# Youngs Moduli (GPa) = 144.75789 308.32496 169.87307
#
# Poissons Ratio (x) = 0.18989 -0.04575
# Poissons Ratio (y) = 0.08915 0.13766
# Poissons Ratio (z) = -0.03899 0.24986
#
# Static dielectric constant tensor:
#      x y z
#    x 2.415640 0.000000 0.000000 
#    y 0.000000 2.251060 0.000000 
#    z 0.000000 0.000000 2.114240 
# 
# From -- ./inp_files/25524.got.cif
#   From: 2010.05.17/outbox.cif.g08.bks.cpg/sg66_13_cif.got.tgz:25524.got - 2010.06.03 17:51:23.
