data_PCOD9496828
_publ_section_title
;
Structure prediction by ZEFSAII (Michael W. Deem and Ramdas Pophale) SiO2 
 PCOD9496828
Probable space group: C C C M
;
_chemical_formula_sum "Si O2"
_cell_formula_units_Z 64
_cell_length_a 7.968787
_cell_length_b 18.657439
_cell_length_c 19.999431
_cell_angle_alpha 90.000000
_cell_angle_beta 90.000000
_cell_angle_gamma 90.000000
_cell_volume 2973.458550
_symmetry_space_group_name_H-M "C C C M"
_symmetry_group_IT_number 66
_symmetry_cell_setting 'orthorhombic'
loop_
_space_group_symop_operation_xyz
x,y,z
-x,-y,z
x,-y,1/2-z
-x,y,1/2-z
-x,-y,-z
x,y,-z
-x,y,1/2+z
x,-y,1/2+z
1/2+x,1/2+y,z
1/2-x,1/2-y,z
1/2+x,1/2-y,1/2-z
1/2-x,1/2+y,1/2-z
1/2-x,1/2-y,-z
1/2+x,1/2+y,-z
1/2-x,1/2+y,1/2+z
1/2+x,1/2-y,1/2+z
loop_
_atom_site_type_symbol
_atom_site_label
_atom_site_fract_x
_atom_site_fract_y
_atom_site_fract_z
Si Si1 0.073406 0.118418 0.424551
Si Si2 0.233173 0.522720 0.424636
Si Si3 0.671061 0.926494 0.214418
Si Si4 0.093655 0.202967 0.812790
O O1 0.096423 0.146398 0.500000
O O2 0.035897 0.178877 0.370029
O O3 0.218608 0.060147 0.410758
O O4 0.905492 0.069051 0.424609
O O5 0.166591 0.529340 0.500000
O O6 0.133653 0.556021 0.363222
O O7 0.500000 0.904416 0.250000
O O8 0.816413 0.868194 0.216248
O O9 0.727787 0.000000 0.250000
O O10 0.250000 0.250000 0.838812
O O11 0.000000 0.238121 0.750000
#
# Coordination Sequence:
#
# PCOD9496828 Si02
#       4
#    16  16  16  16
#     4   8  15  29  52  80 103 130 175 224 264 307
#     4   8  14  28  51  78 106 134 171 219 265 308
#     4  10  20  34  52  77 108 139 175 218 261 313
#     4  11  22  35  53  76 106 143 178 217 266 318
#
# _framework density 21.523757
#
# number of rings (size 3 to 8) (size 9 to 14) (size 15 to 20)
#    0.000    2.750    0.000    3.750    0.000    3.000 
#    0.000    2.500    0.000    2.250    0.000    0.000 
#    0.000    0.000    0.000    0.000    0.000    0.000 
#
# Total GULP energy -178546.839805 kJ/mol
# GULP energy per Si atom -5579.588744 kJ/mol
# Density = 2.147477 g / cm^3
# Si number density = 21.523757 Si / 1000 Ang^3
#
#
#
# Elastic Constant Matrix: (Units=GPa)
#
#
# Indices 1 2 3 4 5 6 
#
# 1 49.6357 -4.9705 35.2474 0.0000 0.0000 0.0000
# 2 -4.9705 57.7338 22.8773 0.0000 0.0000 0.0000
# 3 35.2474 22.8773 169.1875 0.0000 0.0000 0.0000
# 4 0.0000 0.0000 0.0000 14.8001 0.0000 0.0000
# 5 0.0000 0.0000 0.0000 0.0000 3.2601 0.0000
# 6 0.0000 0.0000 0.0000 0.0000 0.0000 15.3078
#
#
#
# Elastic Compliance Matrix: (Units=1/GPa)
#
#
# Indices 1 2 3 4 5 6 
#
# 1 0.024656 0.004394 -0.005731 0.000000 0.000000 0.000000
# 2 0.004394 0.019084 -0.003496 0.000000 0.000000 0.000000
# 3 -0.005731 -0.003496 0.007577 0.000000 0.000000 0.000000
# 4 0.000000 0.000000 0.000000 0.067567 0.000000 0.000000
# 5 0.000000 0.000000 0.000000 0.000000 0.306735 0.000000
# 6 0.000000 0.000000 0.000000 0.000000 0.000000 0.065326
#
#
# Mechanical properties :
#
#
# Convention : Reuss Voigt Hill
#
# Bulk Modulus (GPa) = 24.00858 42.54059 33.27458
# Shear Modulus (GPa) = 9.71824 21.56713 15.64268
#
# Velocity S-wave (km/s) = 2.12719 3.16890 2.69878
# Velocity P-wave (km/s) = 4.14872 5.76165 5.02038
#
# Compressibility (1/GPa) = 0.04165178
#
# Stress axis : x y z
#
# Youngs Moduli (GPa) = 40.55751 52.39879 131.97425
#
# Poissons Ratio (x) = -0.23022 0.75632
# Poissons Ratio (y) = -0.17820 0.46137
# Poissons Ratio (z) = 0.23243 0.18318
#
# Static dielectric constant tensor:
#      x y z
#    x 1.859990 0.000000 0.000000 
#    y 0.000000 1.782960 0.000000 
#    z 0.000000 0.000000 1.802790 
# 
# From -- ./inp_files/43364.got.cif
#   From: 2010.05.17/outbox.cif.g08.bks.cpg/sg66_22_cif.got.tgz:43364.got - 2010.06.03 17:51:23.
