data_PCOD9496747
_publ_section_title
;
Structure prediction by ZEFSAII (Michael W. Deem and Ramdas Pophale) SiO2 
 PCOD9496747
Probable space group: C C C M
;
_chemical_formula_sum "Si O2"
_cell_formula_units_Z 112
_cell_length_a 15.378871
_cell_length_b 25.434645
_cell_length_c 13.012446
_cell_angle_alpha 90.000000
_cell_angle_beta 90.000000
_cell_angle_gamma 90.000000
_cell_volume 5089.897946
_symmetry_space_group_name_H-M "C C C M"
_symmetry_group_IT_number 66
_symmetry_cell_setting 'orthorhombic'
loop_
_space_group_symop_operation_xyz
x,y,z
-x,-y,z
x,-y,1/2-z
-x,y,1/2-z
-x,-y,-z
x,y,-z
-x,y,1/2+z
x,-y,1/2+z
1/2+x,1/2+y,z
1/2-x,1/2-y,z
1/2+x,1/2-y,1/2-z
1/2-x,1/2+y,1/2-z
1/2-x,1/2-y,-z
1/2+x,1/2+y,-z
1/2-x,1/2+y,1/2+z
1/2+x,1/2-y,1/2+z
loop_
_atom_site_type_symbol
_atom_site_label
_atom_site_fract_x
_atom_site_fract_y
_atom_site_fract_z
Si Si1 0.398781 0.001461 0.115928
Si Si2 0.378180 0.388808 0.313881
Si Si3 0.193432 0.597836 0.178484
Si Si4 0.847730 0.227407 0.874947
Si Si5 0.541705 0.825300 0.619511
Si Si6 0.454973 0.557386 0.615227
Si Si7 0.141324 0.375291 0.115675
O O1 0.346496 0.959962 0.183132
O O2 0.500000 0.000000 0.141452
O O3 0.374423 0.062276 0.109552
O O4 0.389006 0.979867 0.000000
O O5 0.288829 0.406895 0.367031
O O6 0.368043 0.325965 0.314311
O O7 0.463547 0.403213 0.377888
O O8 0.392766 0.421526 0.206773
O O9 0.119476 0.632442 0.125403
O O10 0.206668 0.626892 0.288977
O O11 0.750000 0.250000 0.857111
O O12 0.917423 0.271288 0.840985
O O13 0.853406 0.218723 0.000000
O O14 0.524566 0.815546 0.500000
O O15 0.448884 0.848576 0.654466
O O16 0.500000 0.500000 0.632613
O O17 0.416244 0.557163 0.500000
O O18 0.164504 0.357210 0.000000
#
# Coordination Sequence:
#
# PCOD9496747 Si02
#       7
#    16  16  16  16  16  16  16
#     4  10  20  33  51  79 119 165 209 253 299 354
#     4  11  23  41  67 100 126 156 215 269 328 399
#     4  12  22  34  59  89 124 166 211 260 310 373
#     4  10  20  37  62  94 131 167 214 276 324 362
#     4  10  20  36  57  83 120 168 215 259 304 355
#     4  10  24  48  74  97 128 161 201 275 359 423
#     4  10  22  37  51  78 123 170 215 252 297 365
#
# _framework density 22.004370999999999
#
# number of rings (size 3 to 8) (size 9 to 14) (size 15 to 20)
#    0.000    1.571    2.857    2.571    0.000    5.143 
#    5.143    2.857    0.000    0.429    0.000    0.000 
#    0.000    0.000    0.000    0.000    0.000    0.000 
#
# Total GULP energy -312223.808133 kJ/mol
# GULP energy per Si atom -5575.425145 kJ/mol
# Density = 2.195429 g / cm^3
# Si number density = 22.004371 Si / 1000 Ang^3
#
#
#
# Elastic Constant Matrix: (Units=GPa)
#
#
# Indices 1 2 3 4 5 6 
#
# 1 78.1283 30.9124 -8.0955 0.0000 0.0000 0.0000
# 2 30.9124 152.3808 17.5330 0.0000 0.0000 0.0000
# 3 -8.0955 17.5330 101.3595 0.0000 0.0000 0.0000
# 4 0.0000 0.0000 0.0000 25.7314 0.0000 0.0000
# 5 0.0000 0.0000 0.0000 0.0000 8.3315 0.0000
# 6 0.0000 0.0000 0.0000 0.0000 0.0000 45.6798
#
#
#
# Elastic Compliance Matrix: (Units=1/GPa)
#
#
# Indices 1 2 3 4 5 6 
#
# 1 0.014186 -0.003069 0.001664 0.000000 0.000000 0.000000
# 2 -0.003069 0.007360 -0.001518 0.000000 0.000000 0.000000
# 3 0.001664 -0.001518 0.010261 0.000000 0.000000 0.000000
# 4 0.000000 0.000000 0.000000 0.038863 0.000000 0.000000
# 5 0.000000 0.000000 0.000000 0.000000 0.120026 0.000000
# 6 0.000000 0.000000 0.000000 0.000000 0.000000 0.021892
#
#
# Mechanical properties :
#
#
# Convention : Reuss Voigt Hill
#
# Bulk Modulus (GPa) = 38.52028 45.84094 42.18061
# Shear Modulus (GPa) = 22.01785 35.38313 28.70049
#
# Velocity S-wave (km/s) = 3.16668 4.01434 3.61544
# Velocity P-wave (km/s) = 5.56005 6.50880 6.05304
#
# Compressibility (1/GPa) = 0.02596035
#
# Stress axis : x y z
#
# Youngs Moduli (GPa) = 70.49055 135.87236 97.45264
#
# Poissons Ratio (x) = 0.41704 -0.16216
# Poissons Ratio (y) = 0.21636 0.14796
# Poissons Ratio (z) = -0.11729 0.20629
#
# Static dielectric constant tensor:
#      x y z
#    x 1.780920 0.000000 0.000000 
#    y 0.000000 1.814900 0.000000 
#    z 0.000000 0.000000 1.967460 
# 
# From -- ./inp_files/28665.got.cif
#   From: 2010.05.17/outbox.cif.g08.bks.cpg/sg66_15_cif.got.tgz:28665.got - 2010.06.03 17:51:23.
