data_PCOD9496442
_publ_section_title
;
Structure prediction by ZEFSAII (Michael W. Deem and Ramdas Pophale) SiO2 
 PCOD9496442
Probable space group: C C C M
;
_chemical_formula_sum "Si O2"
_cell_formula_units_Z 116
_cell_length_a 17.836197
_cell_length_b 28.185030
_cell_length_c 14.727058
_cell_angle_alpha 90.000000
_cell_angle_beta 90.000000
_cell_angle_gamma 90.000000
_cell_volume 7403.494517
_symmetry_space_group_name_H-M "C C C M"
_symmetry_group_IT_number 66
_symmetry_cell_setting 'orthorhombic'
loop_
_space_group_symop_operation_xyz
x,y,z
-x,-y,z
x,-y,1/2-z
-x,y,1/2-z
-x,-y,-z
x,y,-z
-x,y,1/2+z
x,-y,1/2+z
1/2+x,1/2+y,z
1/2-x,1/2-y,z
1/2+x,1/2-y,1/2-z
1/2-x,1/2+y,1/2-z
1/2-x,1/2-y,-z
1/2+x,1/2+y,-z
1/2-x,1/2+y,1/2+z
1/2+x,1/2-y,1/2+z
loop_
_atom_site_type_symbol
_atom_site_label
_atom_site_fract_x
_atom_site_fract_y
_atom_site_fract_z
Si Si1 1.000000 0.256718 0.394066
Si Si2 0.636915 0.000001 0.355309
Si Si3 0.735244 0.829083 0.250001
Si Si4 0.500000 0.000000 0.500000
Si Si5 0.874023 0.238077 0.750001
Si Si6 0.834324 0.603169 0.107335
Si Si7 0.334318 0.896834 0.107335
Si Si8 0.000003 0.628717 0.105341
O O1 0.999998 0.243397 0.500000
O O2 0.927671 0.239449 0.338054
O O3 0.072327 0.239446 0.338055
O O4 0.000004 0.314346 0.390187
O O5 0.682045 0.048154 0.375681
O O6 0.615023 0.000000 0.250000
O O7 0.565680 0.000000 0.421329
O O8 0.682048 0.951849 0.375682
O O9 0.816860 0.805623 0.249998
O O10 0.675856 0.785796 0.250006
O O11 0.717943 0.861663 0.163095
O O12 0.717950 0.861666 0.336904
O O13 0.920553 0.610918 0.141472
O O14 0.832801 0.613821 0.000000
O O15 0.420547 0.889083 0.141472
O O16 0.332794 0.886181 0.000000
O O17 0.000003 0.611676 0.000000
#
# Coordination Sequence:
#
# PCOD9496442 Si02
#       8
#    16  16  16   4  16  16  16  16
#     4  10  19  36  56  75 100 135 175 224 265 311
#     4  12  23  35  49  72 103 141 184 226 255 293
#     4  11  22  35  52  74 106 138 177 221 265 315
#     4  12  22  36  44  78 108 144 186 234 248 286
#     4  10  22  36  52  79 101 132 178 224 267 312
#     4  11  21  35  51  72 104 143 182 220 257 302
#     4  11  21  35  51  72 104 143 182 220 257 302
#     4   9  18  29  47  70  97 139 184 210 247 295
#
# _framework density 15.668277
#
# number of rings (size 3 to 8) (size 9 to 14) (size 15 to 20)
#    0.000    1.379    5.517    1.034    1.931    1.655 
#    0.000    2.759    0.000    0.000    0.000    0.000 
#    0.000    8.828    0.000   15.448    0.000    0.000 
#
# Total GULP energy -323275.543208 kJ/mol
# GULP energy per Si atom -5573.716262 kJ/mol
# Density = 1.563262 g / cm^3
# Si number density = 15.668277 Si / 1000 Ang^3
#
#
#
# Elastic Constant Matrix: (Units=GPa)
#
#
# Indices 1 2 3 4 5 6 
#
# 1 75.2680 46.6196 37.9689 0.0000 0.0000 0.0000
# 2 46.6196 97.2729 37.7168 0.0000 0.0000 0.0000
# 3 37.9689 37.7168 138.7728 0.0000 0.0000 0.0000
# 4 0.0000 0.0000 0.0000 18.3451 0.0000 0.0000
# 5 0.0000 0.0000 0.0000 0.0000 20.8952 0.0000
# 6 0.0000 0.0000 0.0000 0.0000 0.0000 8.1753
#
#
#
# Elastic Compliance Matrix: (Units=1/GPa)
#
#
# Indices 1 2 3 4 5 6 
#
# 1 0.020106 -0.008387 -0.003222 0.000000 0.000000 0.000000
# 2 -0.008387 0.014990 -0.001779 0.000000 0.000000 0.000000
# 3 -0.003222 -0.001779 0.008571 0.000000 0.000000 0.000000
# 4 0.000000 0.000000 0.000000 0.054511 0.000000 0.000000
# 5 0.000000 0.000000 0.000000 0.000000 0.047858 0.000000
# 6 0.000000 0.000000 0.000000 0.000000 0.000000 0.122319
#
#
# Mechanical properties :
#
#
# Convention : Reuss Voigt Hill
#
# Bulk Modulus (GPa) = 59.20312 61.76937 60.48624
# Shear Modulus (GPa) = 16.62454 22.08368 19.35411
#
# Velocity S-wave (km/s) = 3.26088 3.75834 3.51841
# Velocity P-wave (km/s) = 7.21423 7.63821 7.42925
#
# Compressibility (1/GPa) = 0.01689100
#
# Stress axis : x y z
#
# Youngs Moduli (GPa) = 49.73748 66.71210 116.67156
#
# Poissons Ratio (x) = 0.55950 0.37586
# Poissons Ratio (y) = 0.41714 0.20760
# Poissons Ratio (z) = 0.16023 0.11871
#
# Static dielectric constant tensor:
#      x y z
#    x 1.486560 0.000000 0.000000 
#    y 0.000000 1.554460 0.000000 
#    z 0.000000 0.000000 1.552080 
# 
# From -- ./inp_files/30458.got.cif
#   From: 2010.05.17/outbox.cif.g08.bks.cpg/sg66_16_cif.got.tgz:30458.got - 2010.06.03 17:51:23.
