data_PCOD9496492
_publ_section_title
;
Structure prediction by ZEFSAII (Michael W. Deem and Ramdas Pophale) SiO2 
 PCOD9496492
Probable space group: C C C M
;
_chemical_formula_sum "Si O2"
_cell_formula_units_Z 116
_cell_length_a 23.569778
_cell_length_b 29.814770
_cell_length_c 8.741358
_cell_angle_alpha 90.000000
_cell_angle_beta 90.000000
_cell_angle_gamma 90.000000
_cell_volume 6142.792742
_symmetry_space_group_name_H-M "C C C M"
_symmetry_group_IT_number 66
_symmetry_cell_setting 'orthorhombic'
loop_
_space_group_symop_operation_xyz
x,y,z
-x,-y,z
x,-y,1/2-z
-x,y,1/2-z
-x,-y,-z
x,y,-z
-x,y,1/2+z
x,-y,1/2+z
1/2+x,1/2+y,z
1/2-x,1/2-y,z
1/2+x,1/2-y,1/2-z
1/2-x,1/2+y,1/2-z
1/2-x,1/2-y,-z
1/2+x,1/2+y,-z
1/2-x,1/2+y,1/2+z
1/2+x,1/2-y,1/2+z
loop_
_atom_site_type_symbol
_atom_site_label
_atom_site_fract_x
_atom_site_fract_y
_atom_site_fract_z
Si Si1 0.558651 0.852373 0.183956
Si Si2 0.584546 0.755447 0.676620
Si Si3 0.226846 0.046411 0.815397
Si Si4 0.560119 0.658348 0.817678
Si Si5 0.317986 0.880976 0.681351
Si Si6 0.693686 0.221775 0.672563
Si Si7 0.604948 0.430709 0.820531
Si Si8 0.000000 0.000000 0.750000
O O1 0.500000 0.871262 0.250000
O O2 0.562733 0.800673 0.241528
O O3 0.616539 0.877433 0.237678
O O4 0.557397 0.852518 0.000000
O O5 0.566767 0.755068 0.500000
O O6 0.569818 0.708428 0.754999
O O7 0.651743 0.760337 0.699526
O O8 0.270656 0.084840 0.760227
O O9 0.162560 0.050540 0.753928
O O10 0.249926 0.000000 0.750000
O O11 0.224463 0.046613 0.000000
O O12 0.500000 0.644436 0.750000
O O13 0.598899 0.618191 0.756968
O O14 0.560781 0.659244 0.000000
O O15 0.322984 0.890335 0.500000
O O16 0.295134 0.830449 0.697784
O O17 0.667302 0.225690 0.500000
O O18 0.750000 0.250000 0.671587
O O19 0.548670 0.463071 0.805489
O O20 0.613824 0.425036 0.000000
#
# Coordination Sequence:
#
# PCOD9496492 Si02
#       8
#    16  16  16  16  16  16  16   4
#     4  10  19  36  61  90 121 158 200 243 295 361
#     4  11  22  36  54  82 119 157 199 245 292 350
#     4  11  23  41  64  90 120 158 201 249 306 363
#     4  12  25  41  59  82 114 153 196 246 300 355
#     4   8  18  36  58  86 119 157 198 242 298 367
#     4   9  18  34  56  81 111 155 201 242 296 361
#     4  12  26  43  64  90 117 153 200 253 309 369
#     4  12  26  44  72  86 122 152 200 252 314 368
#
# _framework density 18.883918000000001
#
# number of rings (size 3 to 8) (size 9 to 14) (size 15 to 20)
#    0.000    1.517    1.379    5.172    1.931    1.379 
#    0.000    6.897    0.000    0.414    0.000    2.897 
#    0.000    0.000    0.000    0.000    0.000    0.000 
#
# Total GULP energy -323106.798809 kJ/mol
# GULP energy per Si atom -5570.806876 kJ/mol
# Density = 1.884094 g / cm^3
# Si number density = 18.883918 Si / 1000 Ang^3
#
#
#
# Elastic Constant Matrix: (Units=GPa)
#
#
# Indices 1 2 3 4 5 6 
#
# 1 122.1165 52.4187 32.8880 0.0000 0.0000 0.0000
# 2 52.4187 71.8216 32.1514 0.0000 0.0000 0.0000
# 3 32.8880 32.1514 102.7477 0.0000 0.0000 0.0000
# 4 0.0000 0.0000 0.0000 20.5240 0.0000 0.0000
# 5 0.0000 0.0000 0.0000 0.0000 21.8213 0.0000
# 6 0.0000 0.0000 0.0000 0.0000 0.0000 288.4272
#
#
#
# Elastic Compliance Matrix: (Units=1/GPa)
#
#
# Indices 1 2 3 4 5 6 
#
# 1 0.012069 -0.008233 -0.001287 0.000000 0.000000 0.000000
# 2 -0.008233 0.021807 -0.004189 0.000000 0.000000 0.000000
# 3 -0.001287 -0.004189 0.011455 0.000000 0.000000 0.000000
# 4 0.000000 0.000000 0.000000 0.048723 0.000000 0.000000
# 5 0.000000 0.000000 0.000000 0.000000 0.045827 0.000000
# 6 0.000000 0.000000 0.000000 0.000000 0.000000 0.003467
#
#
# Mechanical properties :
#
#
# Convention : Reuss Voigt Hill
#
# Bulk Modulus (GPa) = 55.81934 59.06689 57.44311
# Shear Modulus (GPa) = 28.29058 78.10301 53.19679
#
# Velocity S-wave (km/s) = 3.87477 6.43811 5.31334
# Velocity P-wave (km/s) = 7.04569 9.30659 8.25392
#
# Compressibility (1/GPa) = 0.01791494
#
# Stress axis : x y z
#
# Youngs Moduli (GPa) = 82.85412 45.85687 87.29624
#
# Poissons Ratio (x) = 0.37752 0.11236
# Poissons Ratio (y) = 0.68211 0.36565
# Poissons Ratio (z) = 0.10664 0.19208
#
# Static dielectric constant tensor:
#      x y z
#    x 1.695120 0.000000 0.000000 
#    y 0.000000 1.309800 0.000000 
#    z 0.000000 0.000000 1.657600 
# 
# From -- ./inp_files/9426.got.cif
#   From: 2010.05.17/outbox.cif.g08.bks.cpg/sg66_5_cif.got.tgz:9426.got - 2010.06.03 17:51:23.
