data_PCOD9496423
_publ_section_title
;
Structure prediction by ZEFSAII (Michael W. Deem and Ramdas Pophale) SiO2 
 PCOD9496423
Probable space group: C C C M
;
_chemical_formula_sum "Si O2"
_cell_formula_units_Z 116
_cell_length_a 28.134287
_cell_length_b 19.900562
_cell_length_c 10.619283
_cell_angle_alpha 90.000000
_cell_angle_beta 90.000000
_cell_angle_gamma 90.000000
_cell_volume 5945.610424
_symmetry_space_group_name_H-M "C C C M"
_symmetry_group_IT_number 66
_symmetry_cell_setting 'orthorhombic'
loop_
_space_group_symop_operation_xyz
x,y,z
-x,-y,z
x,-y,1/2-z
-x,y,1/2-z
-x,-y,-z
x,y,-z
-x,y,1/2+z
x,-y,1/2+z
1/2+x,1/2+y,z
1/2-x,1/2-y,z
1/2+x,1/2-y,1/2-z
1/2-x,1/2+y,1/2-z
1/2-x,1/2-y,-z
1/2+x,1/2+y,-z
1/2-x,1/2+y,1/2+z
1/2+x,1/2-y,1/2+z
loop_
_atom_site_type_symbol
_atom_site_label
_atom_site_fract_x
_atom_site_fract_y
_atom_site_fract_z
Si Si1 0.071272 0.098658 0.636757
Si Si2 0.041416 0.663404 0.645063
Si Si3 0.806036 0.818872 0.784235
Si Si4 0.500000 0.500000 0.750000
Si Si5 0.126340 0.440850 0.851838
Si Si6 0.587342 0.308843 0.362737
Si Si7 0.701631 0.824263 0.142088
Si Si8 0.821273 0.948077 0.640699
O O1 0.069068 0.131440 0.500000
O O2 0.065505 0.152009 0.746867
O O3 0.121699 0.060361 0.645467
O O4 0.031732 0.044377 0.659371
O O5 0.022839 0.660756 0.500000
O O6 0.077352 0.601048 0.662888
O O7 0.074176 0.730567 0.651585
O O8 0.000000 0.664980 0.750000
O O9 0.856630 0.826457 0.852943
O O10 0.758030 0.836227 0.858486
O O11 0.805147 0.738421 0.763471
O O12 0.804913 0.871894 0.670635
O O13 0.128406 0.500000 0.750000
O O14 0.169716 0.388507 0.829338
O O15 0.129350 0.462141 0.000000
O O16 0.569798 0.330792 0.500000
O O17 0.687697 0.801606 0.000000
O O18 0.807121 0.969483 0.500000
O O19 0.806351 0.000000 0.750000
#
# Coordination Sequence:
#
# PCOD9496423 Si02
#       8
#    16  16  16   4  16  16  16  16
#     4  10  23  38  54  78 109 149 198 249 299 352
#     4  10  22  40  62  90 123 158 203 254 308 369
#     4  10  19  35  62  93 120 157 201 250 296 355
#     4  12  22  40  56  78 110 160 206 254 298 356
#     4  10  22  42  64  91 127 163 204 255 309 374
#     4  10  20  37  61  89 119 155 197 250 303 355
#     4  10  19  35  62  95 125 158 203 246 296 367
#     4  10  22  40  57  81 116 156 199 247 299 356
#
# _framework density 19.510190000000001
#
# number of rings (size 3 to 8) (size 9 to 14) (size 15 to 20)
#    0.000    1.931    2.069    1.862    0.966    6.345 
#    0.000    5.517    0.000    0.000    0.000    0.000 
#    0.000    0.000    0.000    0.000    0.000    0.000 
#
# Total GULP energy -323303.923586 kJ/mol
# GULP energy per Si atom -5574.205579 kJ/mol
# Density = 1.946578 g / cm^3
# Si number density = 19.510190 Si / 1000 Ang^3
#
#
#
# Elastic Constant Matrix: (Units=GPa)
#
#
# Indices 1 2 3 4 5 6 
#
# 1 72.5470 31.9408 40.5563 0.0000 0.0000 0.0000
# 2 31.9408 100.8392 86.9638 0.0000 0.0000 0.0000
# 3 40.5563 86.9638 156.1683 0.0000 0.0000 0.0000
# 4 0.0000 0.0000 0.0000 0.9406 0.0000 0.0000
# 5 0.0000 0.0000 0.0000 0.0000 6.2405 0.0000
# 6 0.0000 0.0000 0.0000 0.0000 0.0000 24.1138
#
#
#
# Elastic Compliance Matrix: (Units=1/GPa)
#
#
# Indices 1 2 3 4 5 6 
#
# 1 0.016572 -0.002958 -0.002656 0.000000 0.000000 0.000000
# 2 -0.002958 0.019607 -0.010150 0.000000 0.000000 0.000000
# 3 -0.002656 -0.010150 0.012745 0.000000 0.000000 0.000000
# 4 0.000000 0.000000 0.000000 1.063168 0.000000 0.000000
# 5 0.000000 0.000000 0.000000 0.000000 0.160243 0.000000
# 6 0.000000 0.000000 0.000000 0.000000 0.000000 0.041470
#
#
# Mechanical properties :
#
#
# Convention : Reuss Voigt Hill
#
# Bulk Modulus (GPa) = 57.48855 72.05293 64.77074
# Shear Modulus (GPa) = 3.70060 17.59856 10.64958
#
# Velocity S-wave (km/s) = 1.37872 3.00662 2.33887
# Velocity P-wave (km/s) = 5.66254 7.00458 6.36901
#
# Compressibility (1/GPa) = 0.01739477
#
# Stress axis : x y z
#
# Youngs Moduli (GPa) = 60.34440 51.00090 78.45916
#
# Poissons Ratio (x) = 0.15088 0.20840
# Poissons Ratio (y) = 0.17852 0.79639
# Poissons Ratio (z) = 0.16029 0.51768
#
# Static dielectric constant tensor:
#      x y z
#    x 1.701030 0.000000 0.000000 
#    y 0.000000 1.697150 0.000000 
#    z 0.000000 0.000000 1.699880 
# 
# From -- ./inp_files/20790.got.cif
#   From: 2010.05.17/outbox.cif.g08.bks.cpg/sg66_11_cif.got.tgz:20790.got - 2010.06.03 17:51:23.
