data_PCOD9496335
_publ_section_title
;
Structure prediction by ZEFSAII (Michael W. Deem and Ramdas Pophale) SiO2 
 PCOD9496335
Probable space group: C C C M
;
_chemical_formula_sum "Si O2"
_cell_formula_units_Z 68
_cell_length_a 5.134951
_cell_length_b 25.746296
_cell_length_c 22.406104
_cell_angle_alpha 90.000000
_cell_angle_beta 90.000000
_cell_angle_gamma 90.000000
_cell_volume 2962.220677
_symmetry_space_group_name_H-M "C C C M"
_symmetry_group_IT_number 66
_symmetry_cell_setting 'orthorhombic'
loop_
_space_group_symop_operation_xyz
x,y,z
-x,-y,z
x,-y,1/2-z
-x,y,1/2-z
-x,-y,-z
x,y,-z
-x,y,1/2+z
x,-y,1/2+z
1/2+x,1/2+y,z
1/2-x,1/2-y,z
1/2+x,1/2-y,1/2-z
1/2-x,1/2+y,1/2-z
1/2-x,1/2-y,-z
1/2+x,1/2+y,-z
1/2-x,1/2+y,1/2+z
1/2+x,1/2-y,1/2+z
loop_
_atom_site_type_symbol
_atom_site_label
_atom_site_fract_x
_atom_site_fract_y
_atom_site_fract_z
Si Si1 0.455787 0.425282 0.067625
Si Si2 0.521426 0.307525 0.895758
Si Si3 0.544827 0.944554 0.356941
Si Si4 0.250000 0.250000 0.000000
Si Si5 0.976918 0.327883 0.318109
O O1 0.490005 0.363211 0.071247
O O2 0.168764 0.439799 0.090110
O O3 0.670439 0.445544 0.113777
O O4 0.501734 0.441886 0.000000
O O5 0.793818 0.307360 0.860939
O O6 0.296098 0.310359 0.845682
O O7 0.456658 0.266800 0.946966
O O8 0.504167 0.891063 0.321107
O O9 0.500000 0.000000 0.325852
O O10 0.000000 0.310904 0.250000
#
# Coordination Sequence:
#
# PCOD9496335 Si02
#       5
#    16  16  16   4  16
#     4  10  19  35  52  81 126 163 199 256 320 379
#     4  10  23  39  66  96 122 164 205 262 328 385
#     4  10  21  33  54  86 118 164 219 256 302 362
#     4  12  24  46  72 102 130 154 212 276 324 410
#     4  10  22  43  64  88 129 172 211 256 317 382
#
# _framework density 22.955749999999998
#
# number of rings (size 3 to 8) (size 9 to 14) (size 15 to 20)
#    0.000    1.882    1.176    2.118    0.000    6.118 
#    0.000    2.353    0.000    8.471    0.000    0.000 
#    0.000    0.000    0.000    0.000    0.000    0.000 
#
# Total GULP energy -189635.261057 kJ/mol
# GULP energy per Si atom -5577.507678 kJ/mol
# Density = 2.290350 g / cm^3
# Si number density = 22.955750 Si / 1000 Ang^3
#
#
#
# Elastic Constant Matrix: (Units=GPa)
#
#
# Indices 1 2 3 4 5 6 
#
# 1 113.4492 0.5959 16.9671 0.0000 0.0000 0.0000
# 2 0.5959 78.0854 13.5209 0.0000 0.0000 0.0000
# 3 16.9671 13.5209 131.7034 0.0000 0.0000 0.0000
# 4 0.0000 0.0000 0.0000 -54.9721 0.0000 0.0000
# 5 0.0000 0.0000 0.0000 0.0000 -7.8729 0.0000
# 6 0.0000 0.0000 0.0000 0.0000 0.0000 21.8820
#
#
#
# Elastic Compliance Matrix: (Units=1/GPa)
#
#
# Indices 1 2 3 4 5 6 
#
# 1 0.008989 0.000134 -0.001172 0.000000 0.000000 0.000000
# 2 0.000134 0.013040 -0.001356 0.000000 0.000000 0.000000
# 3 -0.001172 -0.001356 0.007883 0.000000 0.000000 0.000000
# 4 0.000000 0.000000 0.000000 -0.018191 0.000000 0.000000
# 5 0.000000 0.000000 0.000000 0.000000 -0.127019 0.000000
# 6 0.000000 0.000000 0.000000 0.000000 0.000000 0.045700
#
#
# Mechanical properties :
#
#
# Convention : Reuss Voigt Hill
#
# Bulk Modulus (GPa) = 39.80067 42.82288 41.31177
# Shear Modulus (GPa) = -88.59674 11.28433 -38.65621
#
# Velocity S-wave (km/s) = -6.21919 2.21954 -4.10804
# Velocity P-wave (km/s) = 5.84769 5.02628 2.11329
#
# Compressibility (1/GPa) = 0.02512521
#
# Stress axis : x y z
#
# Youngs Moduli (GPa) = 111.24619 76.68550 126.85532
#
# Poissons Ratio (x) = -0.01030 0.14865
# Poissons Ratio (y) = -0.01494 0.17202
# Poissons Ratio (z) = 0.13036 0.10399
#
# Static dielectric constant tensor:
#      x y z
#    x 1.807620 0.000000 0.000000 
#    y 0.000000 1.986560 0.000000 
#    z 0.000000 0.000000 1.515560 
# 
# From -- ./inp_files/45759.got.cif
#   From: 2010.05.17/outbox.cif.g08.bks.cpg/sg66_23_cif.got.tgz:45759.got - 2010.06.03 17:51:23.
