data_PCOD9496538
_publ_section_title
;
Structure prediction by ZEFSAII (Michael W. Deem and Ramdas Pophale) SiO2 
 PCOD9496538
Probable space group: C C C M
;
_chemical_formula_sum "Si O2"
_cell_formula_units_Z 80
_cell_length_a 25.795856
_cell_length_b 8.445801
_cell_length_c 18.800919
_cell_angle_alpha 90.000000
_cell_angle_beta 90.000000
_cell_angle_gamma 90.000000
_cell_volume 4096.093548
_symmetry_space_group_name_H-M "C C C M"
_symmetry_group_IT_number 66
_symmetry_cell_setting 'orthorhombic'
loop_
_space_group_symop_operation_xyz
x,y,z
-x,-y,z
x,-y,1/2-z
-x,y,1/2-z
-x,-y,-z
x,y,-z
-x,y,1/2+z
x,-y,1/2+z
1/2+x,1/2+y,z
1/2-x,1/2-y,z
1/2+x,1/2-y,1/2-z
1/2-x,1/2+y,1/2-z
1/2-x,1/2-y,-z
1/2+x,1/2+y,-z
1/2-x,1/2+y,1/2+z
1/2+x,1/2-y,1/2+z
loop_
_atom_site_type_symbol
_atom_site_label
_atom_site_fract_x
_atom_site_fract_y
_atom_site_fract_z
Si Si1 0.497941 0.307005 0.081440
Si Si2 0.705257 0.878940 0.183358
Si Si3 0.102286 0.821553 0.842928
Si Si4 0.401108 0.308393 0.823838
Si Si5 0.197278 0.348659 0.581517
O O1 0.500000 0.500000 0.084410
O O2 0.553982 0.260437 0.111097
O O3 0.450412 0.253081 0.130665
O O4 0.490348 0.259223 0.000000
O O5 0.750000 0.750000 0.195180
O O6 0.650544 0.793694 0.171592
O O7 0.704267 0.000000 0.250000
O O8 0.712889 0.982439 0.113059
O O9 0.087181 0.804573 0.760263
O O10 0.153629 0.730655 0.868172
O O11 0.110217 0.011438 0.849616
O O12 0.178513 0.354650 0.500000
O O13 0.250000 0.250000 0.583642
#
# Coordination Sequence:
#
# PCOD9496538 Si02
#       5
#    16  16  16  16  16
#     4   9  18  34  58  91 128 167 208 253 304 365
#     4  12  25  41  65  91 123 163 209 265 316 379
#     4  10  19  37  63  93 125 167 211 255 307 370
#     4  10  21  35  63  94 124 160 212 264 304 361
#     4  11  24  42  63  91 128 168 207 257 320 380
#
# _framework density 19.530805000000001
#
# number of rings (size 3 to 8) (size 9 to 14) (size 15 to 20)
#    0.000    1.600    2.000    3.000    2.800    4.400 
#    0.000    1.000    0.000    2.400    0.000    0.000 
#    0.000    0.000    0.000    0.000    0.000    0.000 
#
# Total GULP energy -223326.928440 kJ/mol
# GULP energy per Si atom -5583.173211 kJ/mol
# Density = 1.948635 g / cm^3
# Si number density = 19.530805 Si / 1000 Ang^3
#
#
#
# Elastic Constant Matrix: (Units=GPa)
#
#
# Indices 1 2 3 4 5 6 
#
# 1 132.9796 52.5985 61.5729 0.0000 0.0000 0.0000
# 2 52.5985 66.0360 43.5666 0.0000 0.0000 0.0000
# 3 61.5729 43.5666 113.0894 0.0000 0.0000 0.0000
# 4 0.0000 0.0000 0.0000 18.6918 0.0000 0.0000
# 5 0.0000 0.0000 0.0000 0.0000 39.5613 0.0000
# 6 0.0000 0.0000 0.0000 0.0000 0.0000 23.9743
#
#
#
# Elastic Compliance Matrix: (Units=1/GPa)
#
#
# Indices 1 2 3 4 5 6 
#
# 1 0.012118 -0.007105 -0.003861 0.000000 0.000000 0.000000
# 2 -0.007105 0.024469 -0.005558 0.000000 0.000000 0.000000
# 3 -0.003861 -0.005558 0.013086 0.000000 0.000000 0.000000
# 4 0.000000 0.000000 0.000000 0.053499 0.000000 0.000000
# 5 0.000000 0.000000 0.000000 0.000000 0.025277 0.000000
# 6 0.000000 0.000000 0.000000 0.000000 0.000000 0.041711
#
#
# Mechanical properties :
#
#
# Convention : Reuss Voigt Hill
#
# Bulk Modulus (GPa) = 60.14876 69.73122 64.93999
# Shear Modulus (GPa) = 23.95207 26.73662 25.34434
#
# Velocity S-wave (km/s) = 3.50576 3.70394 3.60621
# Velocity P-wave (km/s) = 6.87393 7.35343 7.11772
#
# Compressibility (1/GPa) = 0.01662545
#
# Stress axis : x y z
#
# Youngs Moduli (GPa) = 82.52339 40.86725 76.41906
#
# Poissons Ratio (x) = 0.29036 0.29502
# Poissons Ratio (y) = 0.58633 0.42475
# Poissons Ratio (z) = 0.31858 0.22715
#
# Static dielectric constant tensor:
#      x y z
#    x 1.656530 0.000000 0.000000 
#    y 0.000000 1.636840 0.000000 
#    z 0.000000 0.000000 1.694290 
# 
# From -- ./inp_files/44112.got.cif
#   From: 2010.05.17/outbox.cif.g08.bks.cpg/sg66_23_cif.got.tgz:44112.got - 2010.06.03 17:51:23.
