data_PCOD9496131
_publ_section_title
;
Structure prediction by ZEFSAII (Michael W. Deem and Ramdas Pophale) SiO2 
 PCOD9496131
Probable space group: C C C M
;
_chemical_formula_sum "Si O2"
_cell_formula_units_Z 116
_cell_length_a 21.047460
_cell_length_b 30.260969
_cell_length_c 9.882136
_cell_angle_alpha 90.000000
_cell_angle_beta 90.000000
_cell_angle_gamma 90.000000
_cell_volume 6294.095815
_symmetry_space_group_name_H-M "C C C M"
_symmetry_group_IT_number 66
_symmetry_cell_setting 'orthorhombic'
loop_
_space_group_symop_operation_xyz
x,y,z
-x,-y,z
x,-y,1/2-z
-x,y,1/2-z
-x,-y,-z
x,y,-z
-x,y,1/2+z
x,-y,1/2+z
1/2+x,1/2+y,z
1/2-x,1/2-y,z
1/2+x,1/2-y,1/2-z
1/2-x,1/2+y,1/2-z
1/2-x,1/2-y,-z
1/2+x,1/2+y,-z
1/2-x,1/2+y,1/2+z
1/2+x,1/2-y,1/2+z
loop_
_atom_site_type_symbol
_atom_site_label
_atom_site_fract_x
_atom_site_fract_y
_atom_site_fract_z
Si Si1 0.391989 0.232679 0.651734
Si Si2 0.215991 0.703006 0.648490
Si Si3 0.620087 0.942715 0.653948
Si Si4 0.064323 0.832959 0.834964
Si Si5 0.000000 0.500000 0.750000
Si Si6 0.241549 0.459614 0.838276
Si Si7 0.951045 0.359325 0.143972
Si Si8 0.820983 0.130127 0.338698
O O1 0.365027 0.236302 0.500000
O O2 0.340251 0.213097 0.751146
O O3 0.418500 0.280845 0.686580
O O4 0.442398 0.193008 0.649778
O O5 0.191751 0.689185 0.500000
O O6 0.250000 0.750000 0.636542
O O7 0.267914 0.667350 0.691482
O O8 0.641547 0.953371 0.500000
O O9 0.672070 0.952773 0.769001
O O10 0.610591 0.889562 0.659159
O O11 0.552260 0.968000 0.675426
O O12 0.120357 0.860792 0.761973
O O13 0.000000 0.841789 0.750000
O O14 0.059307 0.839734 0.000000
O O15 0.269166 0.500000 0.750000
O O16 0.286051 0.416692 0.821195
O O17 0.236652 0.467637 0.000000
O O18 0.000000 0.375097 0.250000
O O19 0.978895 0.370845 0.000000
O O20 0.838536 0.134966 0.500000
#
# Coordination Sequence:
#
# PCOD9496131 Si02
#       8
#    16  16  16  16   4  16  16  16
#     4  10  21  35  53  80 116 154 197 242 290 344
#     4  10  19  33  56  83 113 151 194 237 284 337
#     4  11  23  38  58  83 115 154 201 254 303 351
#     4  11  23  38  60  89 120 159 199 244 297 359
#     4  12  22  36  60  86 114 156 212 256 306 344
#     4  11  24  41  64  90 119 152 194 245 301 357
#     4  10  21  36  51  74 107 148 194 241 290 342
#     4  10  22  41  62  89 122 158 199 248 301 360
#
# _framework density 18.429970000000001
#
# number of rings (size 3 to 8) (size 9 to 14) (size 15 to 20)
#    0.000    1.517    2.759    2.276    0.000    4.138 
#    0.000    0.000    0.000    0.414    0.000    2.897 
#    0.000    0.000    0.000    0.000    0.000    0.000 
#
# Total GULP energy -322977.514946 kJ/mol
# GULP energy per Si atom -5568.577844 kJ/mol
# Density = 1.838802 g / cm^3
# Si number density = 18.429970 Si / 1000 Ang^3
#
#
#
# Elastic Constant Matrix: (Units=GPa)
#
#
# Indices 1 2 3 4 5 6 
#
# 1 92.7817 36.6474 81.1658 0.0000 0.0000 0.0000
# 2 36.6474 107.3556 43.7962 0.0000 0.0000 0.0000
# 3 81.1658 43.7962 135.8723 0.0000 0.0000 0.0000
# 4 0.0000 0.0000 0.0000 -7.3681 0.0000 0.0000
# 5 0.0000 0.0000 0.0000 0.0000 31.1578 0.0000
# 6 0.0000 0.0000 0.0000 0.0000 0.0000 15.1860
#
#
#
# Elastic Compliance Matrix: (Units=1/GPa)
#
#
# Indices 1 2 3 4 5 6 
#
# 1 0.023193 -0.002608 -0.013014 0.000000 0.000000 0.000000
# 2 -0.002608 0.011018 -0.001994 0.000000 0.000000 0.000000
# 3 -0.013014 -0.001994 0.015777 0.000000 0.000000 0.000000
# 4 0.000000 0.000000 0.000000 -0.135719 0.000000 0.000000
# 5 0.000000 0.000000 0.000000 0.000000 0.032095 0.000000
# 6 0.000000 0.000000 0.000000 0.000000 0.000000 0.065850
#
#
# Mechanical properties :
#
#
# Convention : Reuss Voigt Hill
#
# Bulk Modulus (GPa) = 67.76682 73.24760 70.50721
# Shear Modulus (GPa) = 95.48669 19.42183 57.45426
#
# Velocity S-wave (km/s) = 7.20576 3.24978 5.58946
# Velocity P-wave (km/s) = 10.29954 7.34244 8.94404
#
# Compressibility (1/GPa) = 0.01475648
#
# Stress axis : x y z
#
# Youngs Moduli (GPa) = 43.11683 90.75682 63.38505
#
# Poissons Ratio (x) = 0.23670 0.82489
# Poissons Ratio (y) = 0.11245 0.12637
# Poissons Ratio (z) = 0.56112 0.18094
#
# Static dielectric constant tensor:
#      x y z
#    x 1.690350 0.000000 0.000000 
#    y 0.000000 1.991750 0.000000 
#    z 0.000000 0.000000 1.678300 
# 
# From -- ./inp_files/9598.got.cif
#   From: 2010.05.17/outbox.cif.g08.bks.cpg/sg66_5_cif.got.tgz:9598.got - 2010.06.03 17:51:23.
