data_PCOD9496947
_publ_section_title
;
Structure prediction by ZEFSAII (Michael W. Deem and Ramdas Pophale) SiO2 
 PCOD9496947
Probable space group: C C C M
;
_chemical_formula_sum "Si O2"
_cell_formula_units_Z 88
_cell_length_a 21.502134
_cell_length_b 8.588051
_cell_length_c 20.684226
_cell_angle_alpha 90.000000
_cell_angle_beta 90.000000
_cell_angle_gamma 90.000000
_cell_volume 3819.578615
_symmetry_space_group_name_H-M "C C C M"
_symmetry_group_IT_number 66
_symmetry_cell_setting 'orthorhombic'
loop_
_space_group_symop_operation_xyz
x,y,z
-x,-y,z
x,-y,1/2-z
-x,y,1/2-z
-x,-y,-z
x,y,-z
-x,y,1/2+z
x,-y,1/2+z
1/2+x,1/2+y,z
1/2-x,1/2-y,z
1/2+x,1/2-y,1/2-z
1/2-x,1/2+y,1/2-z
1/2-x,1/2-y,-z
1/2+x,1/2+y,-z
1/2-x,1/2+y,1/2+z
1/2+x,1/2-y,1/2+z
loop_
_atom_site_type_symbol
_atom_site_label
_atom_site_fract_x
_atom_site_fract_y
_atom_site_fract_z
Si Si1 0.785465 0.415632 0.359401
Si Si2 0.441267 0.384218 0.000000
Si Si3 0.331857 0.639753 0.142418
Si Si4 0.559260 0.612097 0.859134
Si Si5 0.891457 0.338815 0.741975
Si Si6 0.669699 0.634065 0.500000
Si Si7 0.286959 0.085957 0.000000
O O1 0.750000 0.250000 0.359771
O O2 0.736062 0.557578 0.348349
O O3 0.835706 0.394810 0.304702
O O4 0.817530 0.425948 0.430079
O O5 0.500000 0.500000 0.000000
O O6 0.442987 0.304369 0.070258
O O7 0.380989 0.495370 0.000000
O O8 0.379216 0.494475 0.141676
O O9 0.358862 0.753673 0.197056
O O10 0.335538 0.712764 0.070132
O O11 0.500000 0.500000 0.854497
O O12 0.566127 0.721026 0.797930
O O13 0.927136 0.500000 0.750000
O O14 0.735752 0.549481 0.500000
O O15 0.250000 0.250000 0.000000
#
# Coordination Sequence:
#
# PCOD9496947 Si02
#       7
#    16   8  16  16  16   8   8
#     4  10  20  34  60  90 124 165 212 262 312 378
#     4   8  16  32  61  93 112 143 207 265 321 380
#     4  10  21  39  61  87 123 168 215 258 319 373
#     4  10  21  40  65  90 119 161 208 267 325 383
#     4  12  27  38  57  95 132 172 213 258 322 390
#     4   8  16  34  58  81 114 160 214 264 298 372
#     4   8  16  30  51  86 119 159 208 257 309 366
#
# _framework density 23.039190000000001
#
# number of rings (size 3 to 8) (size 9 to 14) (size 15 to 20)
#    0.000    2.182    1.818    0.545    5.091    1.455 
#    0.000    3.636    0.000    3.273    0.000    7.636 
#    0.000    0.000    0.000    0.000    0.000    0.000 
#
# Total GULP energy -245680.475716 kJ/mol
# GULP energy per Si atom -5583.647175 kJ/mol
# Density = 2.298675 g / cm^3
# Si number density = 23.039190 Si / 1000 Ang^3
#
#
#
# Elastic Constant Matrix: (Units=GPa)
#
#
# Indices 1 2 3 4 5 6 
#
# 1 69.6905 5.8297 36.3576 0.0000 0.0000 0.0000
# 2 5.8297 103.3182 66.4185 0.0000 0.0000 0.0000
# 3 36.3576 66.4185 224.3768 0.0000 0.0000 0.0000
# 4 0.0000 0.0000 0.0000 -26.9282 0.0000 0.0000
# 5 0.0000 0.0000 0.0000 0.0000 28.4952 0.0000
# 6 0.0000 0.0000 0.0000 0.0000 0.0000 16.3953
#
#
#
# Elastic Compliance Matrix: (Units=1/GPa)
#
#
# Indices 1 2 3 4 5 6 
#
# 1 0.015746 0.000928 -0.002826 0.000000 0.000000 0.000000
# 2 0.000928 0.012008 -0.003705 0.000000 0.000000 0.000000
# 3 -0.002826 -0.003705 0.006011 0.000000 0.000000 0.000000
# 4 0.000000 0.000000 0.000000 -0.037136 0.000000 0.000000
# 5 0.000000 0.000000 0.000000 0.000000 0.035094 0.000000
# 6 0.000000 0.000000 0.000000 0.000000 0.000000 0.060993
#
#
# Mechanical properties :
#
#
# Convention : Reuss Voigt Hill
#
# Bulk Modulus (GPa) = 44.32641 68.28858 56.30749
# Shear Modulus (GPa) = 44.86619 22.84443 33.85531
#
# Velocity S-wave (km/s) = 4.41771 3.15230 3.83752
# Velocity P-wave (km/s) = 6.73074 6.55392 6.64292
#
# Compressibility (1/GPa) = 0.02255992
#
# Stress axis : x y z
#
# Youngs Moduli (GPa) = 63.50831 83.27608 166.34801
#
# Poissons Ratio (x) = -0.07731 0.47014
# Poissons Ratio (y) = -0.05896 0.61633
# Poissons Ratio (z) = 0.17949 0.30854
#
# Static dielectric constant tensor:
#      x y z
#    x 1.851730 0.000000 0.000000 
#    y 0.000000 1.964600 0.000000 
#    z 0.000000 0.000000 1.941420 
# 
# From -- ./inp_files/52459.got.cif
#   From: 2010.05.17/outbox.cif.g08.bks.cpg/sg66_27_cif.got.tgz:52459.got - 2010.06.03 17:51:23.
