data_PCOD9496096
_publ_section_title
;
Structure prediction by ZEFSAII (Michael W. Deem and Ramdas Pophale) SiO2 
 PCOD9496096
Probable space group: C C C M
;
_chemical_formula_sum "Si O2"
_cell_formula_units_Z 112
_cell_length_a 14.506347
_cell_length_b 26.129664
_cell_length_c 14.873250
_cell_angle_alpha 90.000000
_cell_angle_beta 90.000000
_cell_angle_gamma 90.000000
_cell_volume 5637.645518
_symmetry_space_group_name_H-M "C C C M"
_symmetry_group_IT_number 66
_symmetry_cell_setting 'orthorhombic'
loop_
_space_group_symop_operation_xyz
x,y,z
-x,-y,z
x,-y,1/2-z
-x,y,1/2-z
-x,-y,-z
x,y,-z
-x,y,1/2+z
x,-y,1/2+z
1/2+x,1/2+y,z
1/2-x,1/2-y,z
1/2+x,1/2-y,1/2-z
1/2-x,1/2+y,1/2-z
1/2-x,1/2-y,-z
1/2+x,1/2+y,-z
1/2-x,1/2+y,1/2+z
1/2+x,1/2-y,1/2+z
loop_
_atom_site_type_symbol
_atom_site_label
_atom_site_fract_x
_atom_site_fract_y
_atom_site_fract_z
Si Si1 0.050780 0.250266 0.398810
Si Si2 0.897648 0.657264 0.728895
Si Si3 0.260328 0.524211 0.396027
Si Si4 0.158117 0.283023 0.102745
Si Si5 0.074094 0.852374 0.816472
Si Si6 0.029248 0.947435 0.601055
Si Si7 0.752306 0.420016 0.213615
O O1 0.070841 0.267340 0.500000
O O2 0.090079 0.291258 0.329007
O O3 0.093698 0.194311 0.382944
O O4 0.938288 0.251416 0.390817
O O5 0.849893 0.673514 0.822433
O O6 0.836427 0.614849 0.681516
O O7 0.000000 0.638058 0.750000
O O8 0.223700 0.524724 0.500000
O O9 0.361556 0.549337 0.402161
O O10 0.219709 0.555750 0.310832
O O11 0.268042 0.466354 0.355994
O O12 0.250000 0.250000 0.119022
O O13 0.163722 0.302539 0.000000
O O14 0.164140 0.881763 0.780466
O O15 0.000000 0.826520 0.750000
O O16 0.011908 0.897546 0.856293
O O17 0.990311 0.948633 0.500000
O O18 0.000000 0.000000 0.647955
#
# Coordination Sequence:
#
# PCOD9496096 Si02
#       7
#    16  16  16  16  16  16  16
#     4  10  23  41  58  87 127 166 209 254 305 370
#     4  10  23  43  64  86 122 162 209 262 313 366
#     4  10  22  41  59  89 127 156 202 256 305 367
#     4   9  19  36  62  87 115 155 203 258 312 363
#     4  12  22  33  55  91 125 162 204 249 301 369
#     4  10  19  33  54  81 122 166 198 241 302 368
#     4  11  24  38  64  90 116 164 206 250 309 373
#
# _framework density 19.86645
#
# number of rings (size 3 to 8) (size 9 to 14) (size 15 to 20)
#    0.000    1.714    2.857    1.714    4.000    2.000 
#    0.000    2.143    0.000    0.857    0.000    0.000 
#    0.000    0.000    0.000    0.000    0.000    0.000 
#
# Total GULP energy -312061.182051 kJ/mol
# GULP energy per Si atom -5572.521108 kJ/mol
# Density = 1.982123 g / cm^3
# Si number density = 19.866450 Si / 1000 Ang^3
#
#
#
# Elastic Constant Matrix: (Units=GPa)
#
#
# Indices 1 2 3 4 5 6 
#
# 1 59.4045 44.1032 24.5731 0.0000 0.0000 0.0000
# 2 44.1032 79.9425 20.2767 0.0000 0.0000 0.0000
# 3 24.5731 20.2767 91.5349 0.0000 0.0000 0.0000
# 4 0.0000 0.0000 0.0000 6.7134 0.0000 0.0000
# 5 0.0000 0.0000 0.0000 0.0000 11.8855 0.0000
# 6 0.0000 0.0000 0.0000 0.0000 0.0000 26.9135
#
#
#
# Elastic Compliance Matrix: (Units=1/GPa)
#
#
# Indices 1 2 3 4 5 6 
#
# 1 0.030304 -0.015527 -0.004696 0.000000 0.000000 0.000000
# 2 -0.015527 0.021210 -0.000530 0.000000 0.000000 0.000000
# 3 -0.004696 -0.000530 0.012303 0.000000 0.000000 0.000000
# 4 0.000000 0.000000 0.000000 0.148957 0.000000 0.000000
# 5 0.000000 0.000000 0.000000 0.000000 0.084136 0.000000
# 6 0.000000 0.000000 0.000000 0.000000 0.000000 0.037156
#
#
# Mechanical properties :
#
#
# Convention : Reuss Voigt Hill
#
# Bulk Modulus (GPa) = 44.82191 45.42087 45.12139
# Shear Modulus (GPa) = 13.05456 18.56439 15.80947
#
# Velocity S-wave (km/s) = 2.56621 3.06021 2.82403
# Velocity P-wave (km/s) = 5.60278 5.94973 5.77886
#
# Compressibility (1/GPa) = 0.02231052
#
# Stress axis : x y z
#
# Youngs Moduli (GPa) = 32.99903 47.14850 81.28250
#
# Poissons Ratio (x) = 0.73209 0.38168
# Poissons Ratio (y) = 0.51238 0.04307
# Poissons Ratio (z) = 0.15495 0.02499
#
# Static dielectric constant tensor:
#      x y z
#    x 1.699780 0.000000 0.000000 
#    y 0.000000 1.728140 0.000000 
#    z 0.000000 0.000000 1.769840 
# 
# From -- ./inp_files/28893.got.cif
#   From: 2010.05.17/outbox.cif.g08.bks.cpg/sg66_15_cif.got.tgz:28893.got - 2010.06.03 17:51:23.
