data_PCOD9496899
_publ_section_title
;
Structure prediction by ZEFSAII (Michael W. Deem and Ramdas Pophale) SiO2 
 PCOD9496899
Probable space group: C C C M
;
_chemical_formula_sum "Si O2"
_cell_formula_units_Z 80
_cell_length_a 18.679550
_cell_length_b 8.894090
_cell_length_c 24.252930
_cell_angle_alpha 90.000000
_cell_angle_beta 90.000000
_cell_angle_gamma 90.000000
_cell_volume 4029.323556
_symmetry_space_group_name_H-M "C C C M"
_symmetry_group_IT_number 66
_symmetry_cell_setting 'orthorhombic'
loop_
_space_group_symop_operation_xyz
x,y,z
-x,-y,z
x,-y,1/2-z
-x,y,1/2-z
-x,-y,-z
x,y,-z
-x,y,1/2+z
x,-y,1/2+z
1/2+x,1/2+y,z
1/2-x,1/2-y,z
1/2+x,1/2-y,1/2-z
1/2-x,1/2+y,1/2-z
1/2-x,1/2-y,-z
1/2+x,1/2+y,-z
1/2-x,1/2+y,1/2+z
1/2+x,1/2-y,1/2+z
loop_
_atom_site_type_symbol
_atom_site_label
_atom_site_fract_x
_atom_site_fract_y
_atom_site_fract_z
Si Si1 0.157974 0.153053 0.802530
Si Si2 0.297493 0.935307 0.354205
Si Si3 0.297834 0.599587 0.063515
Si Si4 0.597410 0.861500 0.290393
Si Si5 0.066096 0.092144 0.356714
O O1 0.235940 0.078687 0.807180
O O2 0.161264 0.277205 0.851745
O O3 0.142010 0.249542 0.748740
O O4 0.099746 0.026906 0.813509
O O5 0.253392 0.975199 0.408430
O O6 0.351900 0.062901 0.335750
O O7 0.250000 0.750000 0.066329
O O8 0.369757 0.617527 0.099750
O O9 0.314496 0.567324 0.000000
O O10 0.546202 0.746929 0.324282
O O11 0.574392 0.000000 0.250000
O O12 0.000000 0.000000 0.381602
#
# Coordination Sequence:
#
# PCOD9496899 Si02
#       5
#    16  16  16  16  16
#     4   9  20  32  53  83 120 158 192 244 298 358
#     4   9  18  34  53  85 117 147 201 250 304 355
#     4  10  20  37  65  90 113 152 207 269 324 370
#     4  10  20  34  55  83 119 162 198 242 293 366
#     4  11  23  39  56  84 124 161 204 249 303 370
#
# _framework density 19.85445
#
# number of rings (size 3 to 8) (size 9 to 14) (size 15 to 20)
#    0.000    2.200    2.000    0.600    0.000   19.600 
#    0.000   15.000    0.000    0.000    0.000    2.800 
#    0.000    0.000    0.000    0.000    0.000    0.200 
#
# Total GULP energy -222927.318729 kJ/mol
# GULP energy per Si atom -5573.182968 kJ/mol
# Density = 1.980926 g / cm^3
# Si number density = 19.854450 Si / 1000 Ang^3
#
#
#
# Elastic Constant Matrix: (Units=GPa)
#
#
# Indices 1 2 3 4 5 6 
#
# 1 65.1244 26.4107 18.3733 0.0000 0.0000 0.0000
# 2 26.4107 116.1956 43.6137 0.0000 0.0000 0.0000
# 3 18.3733 43.6137 95.6506 0.0000 0.0000 0.0000
# 4 0.0000 0.0000 0.0000 25.6828 0.0000 0.0000
# 5 0.0000 0.0000 0.0000 0.0000 -6.7905 0.0000
# 6 0.0000 0.0000 0.0000 0.0000 0.0000 29.6880
#
#
#
# Elastic Compliance Matrix: (Units=1/GPa)
#
#
# Indices 1 2 3 4 5 6 
#
# 1 0.017177 -0.003216 -0.001833 0.000000 0.000000 0.000000
# 2 -0.003216 0.010985 -0.004391 0.000000 0.000000 0.000000
# 3 -0.001833 -0.004391 0.012809 0.000000 0.000000 0.000000
# 4 0.000000 0.000000 0.000000 0.038937 0.000000 0.000000
# 5 0.000000 0.000000 0.000000 0.000000 -0.147265 0.000000
# 6 0.000000 0.000000 0.000000 0.000000 0.000000 0.033684
#
#
# Mechanical properties :
#
#
# Convention : Reuss Voigt Hill
#
# Bulk Modulus (GPa) = 45.26845 50.41846 47.84345
# Shear Modulus (GPa) = -673.01830 22.28760 -325.36535
#
# Velocity S-wave (km/s) = -18.43128 3.35408 -12.81527
# Velocity P-wave (km/s) = 20.73884 6.35995 13.95798
#
# Compressibility (1/GPa) = 0.02209044
#
# Stress axis : x y z
#
# Youngs Moduli (GPa) = 58.21863 91.02957 78.06968
#
# Poissons Ratio (x) = 0.29277 0.14310
# Poissons Ratio (y) = 0.18724 0.34282
# Poissons Ratio (z) = 0.10671 0.39973
#
# Static dielectric constant tensor:
#      x y z
#    x 1.748530 0.000000 0.000000 
#    y 0.000000 1.690250 0.000000 
#    z 0.000000 0.000000 1.701250 
# 
# From -- ./inp_files/65042.got.cif
#   From: 2010.05.17/outbox.cif.g08.bks.cpg/sg66_33_cif.got.tgz:65042.got - 2010.06.03 17:51:23.
