data_PCOD9496175
_publ_section_title
;
Structure prediction by ZEFSAII (Michael W. Deem and Ramdas Pophale) SiO2 
 PCOD9496175
Probable space group: C C C M
;
_chemical_formula_sum "Si O2"
_cell_formula_units_Z 52
_cell_length_a 16.167219
_cell_length_b 10.767810
_cell_length_c 13.893352
_cell_angle_alpha 90.000000
_cell_angle_beta 90.000000
_cell_angle_gamma 90.000000
_cell_volume 2418.631719
_symmetry_space_group_name_H-M "C C C M"
_symmetry_group_IT_number 66
_symmetry_cell_setting 'orthorhombic'
loop_
_space_group_symop_operation_xyz
x,y,z
-x,-y,z
x,-y,1/2-z
-x,y,1/2-z
-x,-y,-z
x,y,-z
-x,y,1/2+z
x,-y,1/2+z
1/2+x,1/2+y,z
1/2-x,1/2-y,z
1/2+x,1/2-y,1/2-z
1/2-x,1/2+y,1/2-z
1/2-x,1/2-y,-z
1/2+x,1/2+y,-z
1/2-x,1/2+y,1/2+z
1/2+x,1/2-y,1/2+z
loop_
_atom_site_type_symbol
_atom_site_label
_atom_site_fract_x
_atom_site_fract_y
_atom_site_fract_z
Si Si1 0.369407 0.319537 0.304805
Si Si2 0.300481 0.917499 0.887626
Si Si3 0.843637 0.300880 0.393228
Si Si4 0.500000 0.500000 0.250000
O O1 0.364127 0.193974 0.366830
O O2 0.281026 0.385706 0.325199
O O3 0.380836 0.274248 0.194915
O O4 0.441349 0.417350 0.317831
O O5 0.337386 0.053027 0.868615
O O6 0.275863 0.915288 0.000000
O O7 0.880868 0.286273 0.500000
O O8 0.750000 0.250000 0.398718
#
# Coordination Sequence:
#
# PCOD9496175 Si02
#       4
#    16  16  16   4
#     4  11  21  38  60  87 129 167 207 263 319 387
#     4  10  21  39  67  94 119 166 225 267 307 375
#     4  10  19  33  59  93 121 155 206 261 309 364
#     4  12  28  40  60  96 136 168 204 266 358 376
#
# _framework density 21.499759000000001
#
# number of rings (size 3 to 8) (size 9 to 14) (size 15 to 20)
#    0.000    1.538    3.077    4.615    0.000    0.000 
#    0.000   11.538    0.000    3.692    0.000    0.000 
#    0.000    0.000    0.000    0.000    0.000    0.000 
#
# Total GULP energy -145211.166819 kJ/mol
# GULP energy per Si atom -5585.044878 kJ/mol
# Density = 2.145083 g / cm^3
# Si number density = 21.499759 Si / 1000 Ang^3
#
#
#
# Elastic Constant Matrix: (Units=GPa)
#
#
# Indices 1 2 3 4 5 6 
#
# 1 55.8887 51.2647 14.9156 0.0000 0.0000 0.0000
# 2 51.2647 136.2458 47.4511 0.0000 0.0000 0.0000
# 3 14.9156 47.4511 115.2020 0.0000 0.0000 0.0000
# 4 0.0000 0.0000 0.0000 30.8493 0.0000 0.0000
# 5 0.0000 0.0000 0.0000 0.0000 -82.2753 0.0000
# 6 0.0000 0.0000 0.0000 0.0000 0.0000 40.7321
#
#
#
# Elastic Compliance Matrix: (Units=1/GPa)
#
#
# Indices 1 2 3 4 5 6 
#
# 1 0.027388 -0.010589 0.000816 0.000000 0.000000 0.000000
# 2 -0.010589 0.012663 -0.003845 0.000000 0.000000 0.000000
# 3 0.000816 -0.003845 0.010158 0.000000 0.000000 0.000000
# 4 0.000000 0.000000 0.000000 0.032416 0.000000 0.000000
# 5 0.000000 0.000000 0.000000 0.000000 -0.012154 0.000000
# 6 0.000000 0.000000 0.000000 0.000000 0.000000 0.024551
#
#
# Mechanical properties :
#
#
# Convention : Reuss Voigt Hill
#
# Bulk Modulus (GPa) = 43.52973 59.39993 51.46483
# Shear Modulus (GPa) = 38.48620 10.77489 24.63055
#
# Velocity S-wave (km/s) = 4.23552 2.24110 3.38837
# Velocity P-wave (km/s) = 6.64906 5.86386 6.26877
#
# Compressibility (1/GPa) = 0.02297281
#
# Stress axis : x y z
#
# Youngs Moduli (GPa) = 36.51193 78.96917 98.43996
#
# Poissons Ratio (x) = 0.83623 -0.08029
# Poissons Ratio (y) = 0.38664 0.37849
# Poissons Ratio (z) = -0.02978 0.30362
#
# Static dielectric constant tensor:
#      x y z
#    x 1.763690 0.000000 0.000000 
#    y 0.000000 1.810770 0.000000 
#    z 0.000000 0.000000 1.830780 
# 
# From -- ./inp_files/29433.got.cif
#   From: 2010.05.17/outbox.cif.g08.bks.cpg/sg66_15_cif.got.tgz:29433.got - 2010.06.03 17:51:23.
