data_PCOD9496619
_publ_section_title
;
Structure prediction by ZEFSAII (Michael W. Deem and Ramdas Pophale) SiO2 
 PCOD9496619
Probable space group: C C C M
;
_chemical_formula_sum "Si O2"
_cell_formula_units_Z 68
_cell_length_a 25.995893
_cell_length_b 5.407730
_cell_length_c 28.798398
_cell_angle_alpha 90.000000
_cell_angle_beta 90.000000
_cell_angle_gamma 90.000000
_cell_volume 4048.443382
_symmetry_space_group_name_H-M "C C C M"
_symmetry_group_IT_number 66
_symmetry_cell_setting 'orthorhombic'
loop_
_space_group_symop_operation_xyz
x,y,z
-x,-y,z
x,-y,1/2-z
-x,y,1/2-z
-x,-y,-z
x,y,-z
-x,y,1/2+z
x,-y,1/2+z
1/2+x,1/2+y,z
1/2-x,1/2-y,z
1/2+x,1/2-y,1/2-z
1/2-x,1/2+y,1/2-z
1/2-x,1/2-y,-z
1/2+x,1/2+y,-z
1/2-x,1/2+y,1/2+z
1/2+x,1/2-y,1/2+z
loop_
_atom_site_type_symbol
_atom_site_label
_atom_site_fract_x
_atom_site_fract_y
_atom_site_fract_z
Si Si1 0.305571 0.752219 0.719094
Si Si2 0.417589 0.655108 0.297273
Si Si3 0.437217 0.991713 0.554197
Si Si4 0.000000 0.500000 0.750000
Si Si5 0.561002 0.509968 0.397164
O O1 0.305672 0.500000 0.750000
O O2 0.250000 0.750000 0.693669
O O3 0.360344 0.758937 0.693465
O O4 0.305840 0.000000 0.750000
O O5 0.414630 0.500000 0.250000
O O6 0.462164 0.848931 0.284295
O O7 0.431646 0.495884 0.342006
O O8 0.423421 0.987742 0.500000
O O9 0.418939 0.744072 0.580116
O O10 0.500000 0.000000 0.556401
O O11 0.418662 0.240909 0.579374
O O12 0.500000 0.500000 0.406108
#
# Coordination Sequence:
#
# PCOD9496619 Si02
#       5
#    16  16  16   4  16
#     4   9  18  34  52  68  91 130 176 217 248 277
#     4  11  23  33  47  73 106 141 175 200 244 299
#     4   9  18  32  48  66  90 125 166 208 247 291
#     4  12  22  32  48  66 114 144 174 190 242 304
#     4  10  20  30  47  67  97 129 166 198 246 296
#
# _framework density 16.796578
#
# number of rings (size 3 to 8) (size 9 to 14) (size 15 to 20)
#    0.000    2.118    1.176    2.471    8.235    2.824 
#    0.000    0.000    0.000    0.000    0.000    0.000 
#    0.000    5.647    0.000    0.000    0.000    0.000 
#
# Total GULP energy -189291.164692 kJ/mol
# GULP energy per Si atom -5567.387197 kJ/mol
# Density = 1.675835 g / cm^3
# Si number density = 16.796578 Si / 1000 Ang^3
#
#
#
# Elastic Constant Matrix: (Units=GPa)
#
#
# Indices 1 2 3 4 5 6 
#
# 1 85.1165 19.0062 -6.5015 0.0000 0.0000 0.0000
# 2 19.0062 122.9667 60.6576 0.0000 0.0000 0.0000
# 3 -6.5015 60.6576 101.5863 0.0000 0.0000 0.0000
# 4 0.0000 0.0000 0.0000 25.9412 0.0000 0.0000
# 5 0.0000 0.0000 0.0000 0.0000 -2.0917 0.0000
# 6 0.0000 0.0000 0.0000 0.0000 0.0000 11.1563
#
#
#
# Elastic Compliance Matrix: (Units=1/GPa)
#
#
# Indices 1 2 3 4 5 6 
#
# 1 0.012713 -0.003354 0.002816 0.000000 0.000000 0.000000
# 2 -0.003354 0.012413 -0.007626 0.000000 0.000000 0.000000
# 3 0.002816 -0.007626 0.014578 0.000000 0.000000 0.000000
# 4 0.000000 0.000000 0.000000 0.038549 0.000000 0.000000
# 5 0.000000 0.000000 0.000000 0.000000 -0.478071 0.000000
# 6 0.000000 0.000000 0.000000 0.000000 0.000000 0.089635
#
#
# Mechanical properties :
#
#
# Convention : Reuss Voigt Hill
#
# Bulk Modulus (GPa) = 42.78086 50.66604 46.72345
# Shear Modulus (GPa) = -17.47861 22.76829 2.64484
#
# Velocity S-wave (km/s) = -3.22934 3.68575 1.25620
# Velocity P-wave (km/s) = 3.40887 6.95291 5.47555
#
# Compressibility (1/GPa) = 0.02337494
#
# Stress axis : x y z
#
# Youngs Moduli (GPa) = 78.66136 80.56273 68.59741
#
# Poissons Ratio (x) = 0.27023 -0.19320
# Poissons Ratio (y) = 0.26385 0.52315
# Poissons Ratio (z) = -0.22154 0.61440
#
# Static dielectric constant tensor:
#      x y z
#    x 1.604050 0.000000 0.000000 
#    y 0.000000 1.642270 0.000000 
#    z 0.000000 0.000000 1.553910 
# 
# From -- ./inp_files/61616.got.cif
#   From: 2010.05.17/outbox.cif.g08.bks.cpg/sg66_31_cif.got.tgz:61616.got - 2010.06.03 17:51:23.
