data_PCOD9496460
_publ_section_title
;
Structure prediction by ZEFSAII (Michael W. Deem and Ramdas Pophale) SiO2 
 PCOD9496460
Probable space group: C C C M
;
_chemical_formula_sum "Si O2"
_cell_formula_units_Z 84
_cell_length_a 6.236897
_cell_length_b 24.676136
_cell_length_c 28.413108
_cell_angle_alpha 90.000000
_cell_angle_beta 90.000000
_cell_angle_gamma 90.000000
_cell_volume 4372.848882
_symmetry_space_group_name_H-M "C C C M"
_symmetry_group_IT_number 66
_symmetry_cell_setting 'orthorhombic'
loop_
_space_group_symop_operation_xyz
x,y,z
-x,-y,z
x,-y,1/2-z
-x,y,1/2-z
-x,-y,-z
x,y,-z
-x,y,1/2+z
x,-y,1/2+z
1/2+x,1/2+y,z
1/2-x,1/2-y,z
1/2+x,1/2-y,1/2-z
1/2-x,1/2+y,1/2-z
1/2-x,1/2-y,-z
1/2+x,1/2+y,-z
1/2-x,1/2+y,1/2+z
1/2+x,1/2-y,1/2+z
loop_
_atom_site_type_symbol
_atom_site_label
_atom_site_fract_x
_atom_site_fract_y
_atom_site_fract_z
Si Si1 0.990900 0.649519 0.637741
Si Si2 0.187525 0.543328 0.674209
Si Si3 0.689278 0.391692 0.052047
Si Si4 0.750000 0.250000 0.859325
Si Si5 0.500000 0.500000 0.750000
Si Si6 0.627088 0.699959 0.922058
Si Si7 0.500000 0.500000 0.593322
O O1 0.074008 0.600938 0.669548
O O2 0.200086 0.674761 0.613358
O O3 0.845267 0.625953 0.594810
O O4 0.855534 0.696797 0.663843
O O5 0.352173 0.536829 0.716855
O O6 0.322577 0.527935 0.627282
O O7 0.000000 0.500000 0.680107
O O8 0.490453 0.349324 0.052005
O O9 0.605599 0.451938 0.063291
O O10 0.791382 0.389333 0.000000
O O11 0.562645 0.272480 0.892507
O O12 0.750000 0.750000 0.947180
#
# Coordination Sequence:
#
# PCOD9496460 Si02
#       7
#    16  16  16   8   4  16   8
#     4  10  19  36  58  82 120 161 196 247 291 345
#     4  11  21  40  62  86 127 145 188 235 306 362
#     4  11  22  34  51  82 117 161 213 247 285 337
#     4   8  18  32  57  86 112 144 218 234 292 350
#     4  10  26  36  62  98 118 140 184 236 292 386
#     4   9  18  35  53  77 111 152 211 251 300 334
#     4  11  21  37  55  82 116 166 195 239 289 353
#
# _framework density 19.209444999999999
#
# number of rings (size 3 to 8) (size 9 to 14) (size 15 to 20)
#    0.000    1.905    3.810    0.571    0.000    1.143 
#    0.000   17.143    0.000    0.000    0.000    0.000 
#  128.571    0.000    0.000    0.000    0.000    0.000 
#
# Total GULP energy -234099.259502 kJ/mol
# GULP energy per Si atom -5573.791893 kJ/mol
# Density = 1.916572 g / cm^3
# Si number density = 19.209445 Si / 1000 Ang^3
#
#
#
# Elastic Constant Matrix: (Units=GPa)
#
#
# Indices 1 2 3 4 5 6 
#
# 1 102.8969 53.7399 23.6899 0.0000 0.0000 0.0000
# 2 53.7399 158.1118 38.0682 0.0000 0.0000 0.0000
# 3 23.6899 38.0682 54.5645 0.0000 0.0000 0.0000
# 4 0.0000 0.0000 0.0000 -3.4334 0.0000 0.0000
# 5 0.0000 0.0000 0.0000 0.0000 -13.9241 0.0000
# 6 0.0000 0.0000 0.0000 0.0000 0.0000 43.6217
#
#
#
# Elastic Compliance Matrix: (Units=1/GPa)
#
#
# Indices 1 2 3 4 5 6 
#
# 1 0.012182 -0.003446 -0.002885 0.000000 0.000000 0.000000
# 2 -0.003446 0.008576 -0.004487 0.000000 0.000000 0.000000
# 3 -0.002885 -0.004487 0.022710 0.000000 0.000000 0.000000
# 4 0.000000 0.000000 0.000000 -0.291256 0.000000 0.000000
# 5 0.000000 0.000000 0.000000 0.000000 -0.071818 0.000000
# 6 0.000000 0.000000 0.000000 0.000000 0.000000 0.022924
#
#
# Mechanical properties :
#
#
# Convention : Reuss Voigt Hill
#
# Bulk Modulus (GPa) = 45.80376 60.72992 53.26684
# Shear Modulus (GPa) = -18.67298 18.59119 -0.04089
#
# Velocity S-wave (km/s) = -3.12119 3.11435 -0.14606
# Velocity P-wave (km/s) = 3.30258 6.67948 5.26890
#
# Compressibility (1/GPa) = 0.02183227
#
# Stress axis : x y z
#
# Youngs Moduli (GPa) = 82.08545 116.60050 44.03313
#
# Poissons Ratio (x) = 0.40181 0.12703
# Poissons Ratio (y) = 0.28287 0.19759
# Poissons Ratio (z) = 0.23681 0.52322
#
# Static dielectric constant tensor:
#      x y z
#    x 1.999190 0.000000 0.000000 
#    y 0.000000 1.718300 0.000000 
#    z 0.000000 0.000000 1.636750 
# 
# From -- ./inp_files/67313.got.cif
#   From: 2010.05.17/outbox.cif.g08.bks.cpg/sg66_34_cif.got.tgz:67313.got - 2010.06.03 17:51:23.
