data_PCOD9496214
_publ_section_title
;
Structure prediction by ZEFSAII (Michael W. Deem and Ramdas Pophale) SiO2 
 PCOD9496214
Probable space group: C C C M
;
_chemical_formula_sum "Si O2"
_cell_formula_units_Z 96
_cell_length_a 33.387824
_cell_length_b 19.419529
_cell_length_c 8.596263
_cell_angle_alpha 90.000000
_cell_angle_beta 90.000000
_cell_angle_gamma 90.000000
_cell_volume 5573.609041
_symmetry_space_group_name_H-M "C C C M"
_symmetry_group_IT_number 66
_symmetry_cell_setting 'orthorhombic'
loop_
_space_group_symop_operation_xyz
x,y,z
-x,-y,z
x,-y,1/2-z
-x,y,1/2-z
-x,-y,-z
x,y,-z
-x,y,1/2+z
x,-y,1/2+z
1/2+x,1/2+y,z
1/2-x,1/2-y,z
1/2+x,1/2-y,1/2-z
1/2-x,1/2+y,1/2-z
1/2-x,1/2-y,-z
1/2+x,1/2+y,-z
1/2-x,1/2+y,1/2+z
1/2+x,1/2-y,1/2+z
loop_
_atom_site_type_symbol
_atom_site_label
_atom_site_fract_x
_atom_site_fract_y
_atom_site_fract_z
Si Si1 0.377192 0.710766 0.189221
Si Si2 0.332779 0.424687 0.686925
Si Si3 0.911115 0.575287 0.687008
Si Si4 0.755880 0.424712 0.685054
Si Si5 0.169583 0.346954 0.312189
Si Si6 0.043782 0.712046 0.187913
O O1 0.362052 0.636356 0.240508
O O2 0.346036 0.771166 0.233076
O O3 0.421253 0.735390 0.239376
O O4 0.377748 0.710425 0.000000
O O5 0.343765 0.500000 0.750000
O O6 0.332461 0.426852 0.500000
O O7 0.287752 0.409222 0.744588
O O8 0.920089 0.500000 0.750000
O O9 0.912040 0.573380 0.500000
O O10 0.866492 0.600895 0.731671
O O11 0.941452 0.635685 0.737505
O O12 0.767826 0.500000 0.750000
O O13 0.752859 0.428507 0.500000
O O14 0.789306 0.370543 0.736409
O O15 0.173580 0.348734 0.500000
O O16 0.000000 0.727789 0.250000
O O17 0.043102 0.712602 0.000000
#
# Coordination Sequence:
#
# PCOD9496214 Si02
#       6
#    16  16  16  16  16  16
#     4   8  17  34  55  73  95 127 161 193 238 295
#     4  10  19  34  54  74  95 125 160 197 239 289
#     4   9  18  30  46  67  96 129 165 202 235 271
#     4  11  21  32  46  69 100 133 166 204 241 279
#     4   9  17  32  50  69  94 130 170 205 237 278
#     4   9  18  34  52  73  96 123 157 195 236 284
#
# _framework density 17.224028000000001
#
# number of rings (size 3 to 8) (size 9 to 14) (size 15 to 20)
#    0.000    2.667    0.000    5.500    0.000    3.667 
#    0.000   10.833    0.000    0.500    0.000    3.500 
#    0.000    0.000    0.000    0.000    0.000    0.000 
#
# Total GULP energy -267697.262602 kJ/mol
# GULP energy per Si atom -5577.026304 kJ/mol
# Density = 1.718483 g / cm^3
# Si number density = 17.224028 Si / 1000 Ang^3
#
#
#
# Elastic Constant Matrix: (Units=GPa)
#
#
# Indices 1 2 3 4 5 6 
#
# 1 114.2199 107.9965 29.1945 0.0000 0.0000 0.0000
# 2 107.9965 132.6547 29.6791 0.0000 0.0000 0.0000
# 3 29.1945 29.6791 41.0392 0.0000 0.0000 0.0000
# 4 0.0000 0.0000 0.0000 17.2308 0.0000 0.0000
# 5 0.0000 0.0000 0.0000 0.0000 29.1838 0.0000
# 6 0.0000 0.0000 0.0000 0.0000 0.0000 10.8267
#
#
#
# Elastic Compliance Matrix: (Units=1/GPa)
#
#
# Indices 1 2 3 4 5 6 
#
# 1 0.039121 -0.030568 -0.005723 0.000000 0.000000 0.000000
# 2 -0.030568 0.032879 -0.002032 0.000000 0.000000 0.000000
# 3 -0.005723 -0.002032 0.029908 0.000000 0.000000 0.000000
# 4 0.000000 0.000000 0.000000 0.058035 0.000000 0.000000
# 5 0.000000 0.000000 0.000000 0.000000 0.034266 0.000000
# 6 0.000000 0.000000 0.000000 0.000000 0.000000 0.092364
#
#
# Mechanical properties :
#
#
# Convention : Reuss Voigt Hill
#
# Bulk Modulus (GPa) = 39.58720 69.07267 54.32993
# Shear Modulus (GPa) = 13.45388 19.51787 16.48587
#
# Velocity S-wave (km/s) = 2.79787 3.36992 3.09713
# Velocity P-wave (km/s) = 5.78542 7.43851 6.66342
#
# Compressibility (1/GPa) = 0.02526069
#
# Stress axis : x y z
#
# Youngs Moduli (GPa) = 25.56195 30.41426 33.43612
#
# Poissons Ratio (x) = 0.92972 0.19135
# Poissons Ratio (y) = 0.78139 0.06795
# Poissons Ratio (z) = 0.14629 0.06181
#
# Static dielectric constant tensor:
#      x y z
#    x 1.569250 0.000000 0.000000 
#    y 0.000000 1.584890 0.000000 
#    z 0.000000 0.000000 1.587970 
# 
# From -- ./inp_files/10268.got.cif
#   From: 2010.05.17/outbox.cif.g08.bks.cpg/sg66_6_cif.got.tgz:10268.got - 2010.06.03 17:51:23.
