data_PCOD9497846
_publ_section_title
;
Structure prediction by ZEFSAII (Michael W. Deem and Ramdas Pophale) SiO2 
 PCOD9497846
Probable space group: C C C M
;
_chemical_formula_sum "Si O2"
_cell_formula_units_Z 104
_cell_length_a 13.256488
_cell_length_b 23.964196
_cell_length_c 16.120244
_cell_angle_alpha 90.000000
_cell_angle_beta 90.000000
_cell_angle_gamma 90.000000
_cell_volume 5121.096471
_symmetry_space_group_name_H-M "C C C M"
_symmetry_group_IT_number 66
_symmetry_cell_setting 'orthorhombic'
loop_
_space_group_symop_operation_xyz
x,y,z
-x,-y,z
x,-y,1/2-z
-x,y,1/2-z
-x,-y,-z
x,y,-z
-x,y,1/2+z
x,-y,1/2+z
1/2+x,1/2+y,z
1/2-x,1/2-y,z
1/2+x,1/2-y,1/2-z
1/2-x,1/2+y,1/2-z
1/2-x,1/2-y,-z
1/2+x,1/2+y,-z
1/2-x,1/2+y,1/2+z
1/2+x,1/2-y,1/2+z
loop_
_atom_site_type_symbol
_atom_site_label
_atom_site_fract_x
_atom_site_fract_y
_atom_site_fract_z
Si Si1 0.460406 0.911462 0.402360
Si Si2 0.239445 0.539595 0.671386
Si Si3 0.315293 0.934834 0.093678
Si Si4 0.149302 0.787841 0.907005
Si Si5 0.970244 0.716368 0.151964
Si Si6 0.750000 0.250000 0.326939
Si Si7 0.207139 0.862250 0.770914
O O1 0.434712 0.913948 0.500000
O O2 0.366170 0.932373 0.350217
O O3 0.565429 0.944494 0.391892
O O4 0.474611 0.847913 0.374076
O O5 0.229151 0.500000 0.750000
O O6 0.250774 0.491591 0.601586
O O7 0.313095 0.589698 0.701880
O O8 0.283306 0.891132 0.163982
O O9 0.307124 0.912847 0.000000
O O10 0.250000 0.750000 0.891557
O O11 0.130432 0.834986 0.836842
O O12 0.055625 0.747162 0.899486
O O13 0.157986 0.810709 0.000000
O O14 0.860476 0.743394 0.132342
O O15 0.000000 0.721862 0.250000
O O16 0.752940 0.192286 0.275607
#
# Coordination Sequence:
#
# PCOD9497846 Si02
#       7
#    16  16  16  16  16   8  16
#     4  11  22  35  52  82 125 168 208 253 313 385
#     4  10  22  34  55  80 116 160 212 252 315 382
#     4  10  21  36  55  84 121 163 209 263 318 377
#     4  11  22  38  60  90 124 163 213 265 318 374
#     4  12  23  37  63  90 129 175 219 261 316 385
#     4  12  22  40  60  90 128 166 220 268 318 382
#     4  11  20  37  56  85 117 163 205 258 307 368
#
# _framework density 20.308152
#
# number of rings (size 3 to 8) (size 9 to 14) (size 15 to 20)
#    0.000    1.077    3.846    3.692    2.154    5.538 
#    0.000    1.538    0.000    0.000    0.000   19.385 
#    0.000   16.000    0.000    0.000    0.000    0.000 
#
# Total GULP energy -289653.396792 kJ/mol
# GULP energy per Si atom -5570.257631 kJ/mol
# Density = 2.026193 g / cm^3
# Si number density = 20.308152 Si / 1000 Ang^3
#
#
#
# Elastic Constant Matrix: (Units=GPa)
#
#
# Indices 1 2 3 4 5 6 
#
# 1 59.5852 23.3562 -1.4255 0.0000 0.0000 0.0000
# 2 23.3562 120.1013 17.6830 0.0000 0.0000 0.0000
# 3 -1.4255 17.6830 36.1204 0.0000 0.0000 0.0000
# 4 0.0000 0.0000 0.0000 3.3241 0.0000 0.0000
# 5 0.0000 0.0000 0.0000 0.0000 14.0945 0.0000
# 6 0.0000 0.0000 0.0000 0.0000 0.0000 31.2277
#
#
#
# Elastic Compliance Matrix: (Units=1/GPa)
#
#
# Indices 1 2 3 4 5 6 
#
# 1 0.018404 -0.003972 0.002671 0.000000 0.000000 0.000000
# 2 -0.003972 0.009830 -0.004969 0.000000 0.000000 0.000000
# 3 0.002671 -0.004969 0.030223 0.000000 0.000000 0.000000
# 4 0.000000 0.000000 0.000000 0.300834 0.000000 0.000000
# 5 0.000000 0.000000 0.000000 0.000000 0.070950 0.000000
# 6 0.000000 0.000000 0.000000 0.000000 0.000000 0.032023
#
#
# Mechanical properties :
#
#
# Convention : Reuss Voigt Hill
#
# Bulk Modulus (GPa) = 21.77879 32.78158 27.28018
# Shear Modulus (GPa) = 10.20178 21.47548 15.83863
#
# Velocity S-wave (km/s) = 2.24375 3.25542 2.79573
# Velocity P-wave (km/s) = 4.17851 5.50522 4.88710
#
# Compressibility (1/GPa) = 0.04591624
#
# Stress axis : x y z
#
# Youngs Moduli (GPa) = 54.33710 101.72480 33.08697
#
# Poissons Ratio (x) = 0.40407 -0.08837
# Poissons Ratio (y) = 0.21584 0.16442
# Poissons Ratio (z) = -0.14513 0.50550
#
# Static dielectric constant tensor:
#      x y z
#    x 1.702230 0.000000 0.000000 
#    y 0.000000 1.791010 0.000000 
#    z 0.000000 0.000000 1.765680 
# 
# From -- ./inp_files/40576.got.cif
#   From: 2010.05.17/outbox.cif.g08.bks.cpg/sg66_21_cif.got.tgz:40576.got - 2010.06.03 17:51:23.
