data_PCOD9497235
_publ_section_title
;
Structure prediction by ZEFSAII (Michael W. Deem and Ramdas Pophale) SiO2 
 PCOD9497235
Probable space group: C C C M
;
_chemical_formula_sum "Si O2"
_cell_formula_units_Z 112
_cell_length_a 25.773426
_cell_length_b 11.499844
_cell_length_c 18.231215
_cell_angle_alpha 90.000000
_cell_angle_beta 90.000000
_cell_angle_gamma 90.000000
_cell_volume 5403.556712
_symmetry_space_group_name_H-M "C C C M"
_symmetry_group_IT_number 66
_symmetry_cell_setting 'orthorhombic'
loop_
_space_group_symop_operation_xyz
x,y,z
-x,-y,z
x,-y,1/2-z
-x,y,1/2-z
-x,-y,-z
x,y,-z
-x,y,1/2+z
x,-y,1/2+z
1/2+x,1/2+y,z
1/2-x,1/2-y,z
1/2+x,1/2-y,1/2-z
1/2-x,1/2+y,1/2-z
1/2-x,1/2-y,-z
1/2+x,1/2+y,-z
1/2-x,1/2+y,1/2+z
1/2+x,1/2-y,1/2+z
loop_
_atom_site_type_symbol
_atom_site_label
_atom_site_fract_x
_atom_site_fract_y
_atom_site_fract_z
Si Si1 0.361391 0.899075 0.416270
Si Si2 0.076645 0.159348 0.915003
Si Si3 0.037266 0.779862 0.086654
Si Si4 0.555613 0.047065 0.165924
Si Si5 0.805880 0.374095 0.723377
Si Si6 0.862544 0.056782 0.916403
Si Si7 0.187232 0.126685 0.276772
O O1 0.347652 0.921711 0.500000
O O2 0.398040 0.785735 0.411895
O O3 0.312478 0.877369 0.364014
O O4 0.397097 0.998503 0.381629
O O5 0.017620 0.165017 0.888326
O O6 0.118497 0.068142 0.886172
O O7 0.071183 0.123592 0.000000
O O8 0.051716 0.682343 0.146284
O O9 0.084448 0.869292 0.084589
O O10 0.030636 0.738431 0.000000
O O11 0.500000 0.000000 0.138194
O O12 0.559388 0.000000 0.250000
O O13 0.826642 0.500000 0.750000
O O14 0.833062 0.254243 0.750721
O O15 0.746937 0.371470 0.750969
O O16 0.821313 0.117278 0.863650
O O17 0.843588 0.046993 0.000000
O O18 0.166686 0.000000 0.250000
#
# Coordination Sequence:
#
# PCOD9497235 Si02
#       7
#    16  16  16  16  16  16  16
#     4  11  22  37  63  91 121 163 213 260 307 379
#     4   9  18  35  59  90 127 162 204 257 306 360
#     4  10  20  36  59  89 128 169 209 255 306 364
#     4  11  23  37  55  86 129 171 206 248 302 372
#     4  10  23  43  65  90 123 161 208 266 338 386
#     4  10  21  37  63  94 121 163 216 260 309 383
#     4  10  22  44  66  87 121 169 207 264 337 392
#
# _framework density 20.72709
#
# number of rings (size 3 to 8) (size 9 to 14) (size 15 to 20)
#    0.000    1.857    1.429    2.143    4.000    2.286 
#    0.000    5.714    0.000    0.857    0.000    0.000 
#    0.000    0.000    0.000    0.000    0.000    0.000 
#
# Total GULP energy -311935.693878 kJ/mol
# GULP energy per Si atom -5570.280248 kJ/mol
# Density = 2.067991 g / cm^3
# Si number density = 20.727090 Si / 1000 Ang^3
#
#
#
# Elastic Constant Matrix: (Units=GPa)
#
#
# Indices 1 2 3 4 5 6 
#
# 1 67.0780 -13.0143 44.1661 0.0000 0.0000 0.0000
# 2 -13.0143 78.5749 16.8157 0.0000 0.0000 0.0000
# 3 44.1661 16.8157 120.5268 0.0000 0.0000 0.0000
# 4 0.0000 0.0000 0.0000 28.3943 0.0000 0.0000
# 5 0.0000 0.0000 0.0000 0.0000 -127.1676 0.0000
# 6 0.0000 0.0000 0.0000 0.0000 0.0000 -6.9065
#
#
#
# Elastic Compliance Matrix: (Units=1/GPa)
#
#
# Indices 1 2 3 4 5 6 
#
# 1 0.021706 0.005460 -0.008716 0.000000 0.000000 0.000000
# 2 0.005460 0.014492 -0.004023 0.000000 0.000000 0.000000
# 3 -0.008716 -0.004023 0.012052 0.000000 0.000000 0.000000
# 4 0.000000 0.000000 0.000000 0.035218 0.000000 0.000000
# 5 0.000000 0.000000 0.000000 0.000000 -0.007864 0.000000
# 6 0.000000 0.000000 0.000000 0.000000 0.000000 -0.144790
#
#
# Mechanical properties :
#
#
# Convention : Reuss Voigt Hill
#
# Bulk Modulus (GPa) = 29.67909 40.23498 34.95704
# Shear Modulus (GPa) = -115.21428 -6.58849 -60.90138
#
# Velocity S-wave (km/s) = -7.46371 -1.78482 -5.42644
# Velocity P-wave (km/s) = 7.74118 3.89955 4.72861
#
# Compressibility (1/GPa) = 0.03369376
#
# Stress axis : x y z
#
# Youngs Moduli (GPa) = 46.06959 69.00331 82.97326
#
# Poissons Ratio (x) = -0.37679 0.72319
# Poissons Ratio (y) = -0.25156 0.33379
# Poissons Ratio (z) = 0.40154 0.27759
#
# Static dielectric constant tensor:
#      x y z
#    x 1.728660 0.000000 0.000000 
#    y 0.000000 1.889860 0.000000 
#    z 0.000000 0.000000 1.768350 
# 
# From -- ./inp_files/33848.got.cif
#   From: 2010.05.17/outbox.cif.g08.bks.cpg/sg66_17_cif.got.tgz:33848.got - 2010.06.03 17:51:23.
