data_PCOD9497177
_publ_section_title
;
Structure prediction by ZEFSAII (Michael W. Deem and Ramdas Pophale) SiO2 
 PCOD9497177
Probable space group: C C C M
;
_chemical_formula_sum "Si O2"
_cell_formula_units_Z 80
_cell_length_a 27.492874
_cell_length_b 8.966049
_cell_length_c 15.740706
_cell_angle_alpha 90.000000
_cell_angle_beta 90.000000
_cell_angle_gamma 90.000000
_cell_volume 3880.122679
_symmetry_space_group_name_H-M "C C C M"
_symmetry_group_IT_number 66
_symmetry_cell_setting 'orthorhombic'
loop_
_space_group_symop_operation_xyz
x,y,z
-x,-y,z
x,-y,1/2-z
-x,y,1/2-z
-x,-y,-z
x,y,-z
-x,y,1/2+z
x,-y,1/2+z
1/2+x,1/2+y,z
1/2-x,1/2-y,z
1/2+x,1/2-y,1/2-z
1/2-x,1/2+y,1/2-z
1/2-x,1/2-y,-z
1/2+x,1/2+y,-z
1/2-x,1/2+y,1/2+z
1/2+x,1/2-y,1/2+z
loop_
_atom_site_type_symbol
_atom_site_label
_atom_site_fract_x
_atom_site_fract_y
_atom_site_fract_z
Si Si1 0.845940 0.562661 0.654920
Si Si2 0.752045 0.071644 0.655672
Si Si3 0.452470 0.082236 0.398576
Si Si4 0.548803 0.423011 0.896505
Si Si5 0.345634 0.400139 0.400202
O O1 0.846804 0.500000 0.750000
O O2 0.797835 0.489875 0.614348
O O3 0.898703 0.520171 0.618361
O O4 0.839879 0.742164 0.648292
O O5 0.750000 0.250000 0.659537
O O6 0.754222 0.000000 0.750000
O O7 0.800153 0.007810 0.611643
O O8 0.457797 0.087768 0.500000
O O9 0.452548 0.251947 0.368176
O O10 0.500000 0.000000 0.363665
O O11 0.500000 0.500000 0.864263
O O12 0.603153 0.476523 0.873644
O O13 0.546572 0.429541 0.000000
O O14 0.350099 0.359189 0.500000
#
# Coordination Sequence:
#
# PCOD9497177 Si02
#       5
#    16  16  16  16  16
#     4  10  20  36  57  81 111 153 195 233 287 349
#     4  11  23  39  58  82 114 153 195 240 298 358
#     4   9  18  32  52  79 111 147 185 230 284 337
#     4   8  15  30  52  78 108 141 178 222 276 334
#     4  10  21  38  61  87 116 153 196 243 294 349
#
# _framework density 20.617905
#
# number of rings (size 3 to 8) (size 9 to 14) (size 15 to 20)
#    0.000    2.400    0.000    4.800    0.000    4.800 
#    0.000    2.000    0.000    3.000    0.000    0.000 
#    0.000    0.000    0.000    0.000    0.000    0.800 
#
# Total GULP energy -222973.285410 kJ/mol
# GULP energy per Si atom -5574.332135 kJ/mol
# Density = 2.057098 g / cm^3
# Si number density = 20.617905 Si / 1000 Ang^3
#
#
#
# Elastic Constant Matrix: (Units=GPa)
#
#
# Indices 1 2 3 4 5 6 
#
# 1 244.2972 88.3473 5.4874 0.0000 0.0000 0.0000
# 2 88.3473 96.8686 17.8509 0.0000 0.0000 0.0000
# 3 5.4874 17.8509 27.1407 0.0000 0.0000 0.0000
# 4 0.0000 0.0000 0.0000 19.8796 0.0000 0.0000
# 5 0.0000 0.0000 0.0000 0.0000 35.0328 0.0000
# 6 0.0000 0.0000 0.0000 0.0000 0.0000 35.9317
#
#
#
# Elastic Compliance Matrix: (Units=1/GPa)
#
#
# Indices 1 2 3 4 5 6 
#
# 1 0.006296 -0.006267 0.002849 0.000000 0.000000 0.000000
# 2 -0.006267 0.017985 -0.010562 0.000000 0.000000 0.000000
# 3 0.002849 -0.010562 0.043216 0.000000 0.000000 0.000000
# 4 0.000000 0.000000 0.000000 0.050303 0.000000 0.000000
# 5 0.000000 0.000000 0.000000 0.000000 0.028545 0.000000
# 6 0.000000 0.000000 0.000000 0.000000 0.000000 0.027831
#
#
# Mechanical properties :
#
#
# Convention : Reuss Voigt Hill
#
# Bulk Modulus (GPa) = 25.29292 65.74196 45.51744
# Shear Modulus (GPa) = 23.22189 35.27690 29.24940
#
# Velocity S-wave (km/s) = 3.35968 4.14089 3.77057
# Velocity P-wave (km/s) = 5.22915 7.40390 6.40943
#
# Compressibility (1/GPa) = 0.03953676
#
# Stress axis : x y z
#
# Youngs Moduli (GPa) = 158.83759 55.60102 23.13959
#
# Poissons Ratio (x) = 0.34845 -0.06592
# Poissons Ratio (y) = 0.99542 0.24440
# Poissons Ratio (z) = -0.45252 0.58727
#
# Static dielectric constant tensor:
#      x y z
#    x 1.816300 0.000000 0.000000 
#    y 0.000000 1.710680 0.000000 
#    z 0.000000 0.000000 1.770500 
# 
# From -- ./inp_files/44111.got.cif
#   From: 2010.05.17/outbox.cif.g08.bks.cpg/sg66_23_cif.got.tgz:44111.got - 2010.06.03 17:51:23.
