data_PCOD9497373
_publ_section_title
;
Structure prediction by ZEFSAII (Michael W. Deem and Ramdas Pophale) SiO2 
 PCOD9497373
Probable space group: C C C M
;
_chemical_formula_sum "Si O2"
_cell_formula_units_Z 104
_cell_length_a 9.268228
_cell_length_b 19.991772
_cell_length_c 28.480437
_cell_angle_alpha 90.000000
_cell_angle_beta 90.000000
_cell_angle_gamma 90.000000
_cell_volume 5277.091784
_symmetry_space_group_name_H-M "C C C M"
_symmetry_group_IT_number 66
_symmetry_cell_setting 'orthorhombic'
loop_
_space_group_symop_operation_xyz
x,y,z
-x,-y,z
x,-y,1/2-z
-x,y,1/2-z
-x,-y,-z
x,y,-z
-x,y,1/2+z
x,-y,1/2+z
1/2+x,1/2+y,z
1/2-x,1/2-y,z
1/2+x,1/2-y,1/2-z
1/2-x,1/2+y,1/2-z
1/2-x,1/2-y,-z
1/2+x,1/2+y,-z
1/2-x,1/2+y,1/2+z
1/2+x,1/2-y,1/2+z
loop_
_atom_site_type_symbol
_atom_site_label
_atom_site_fract_x
_atom_site_fract_y
_atom_site_fract_z
Si Si1 0.672308 0.318937 0.253597
Si Si2 0.161015 0.513995 0.118760
Si Si3 0.250000 0.750000 0.404292
Si Si4 0.721061 0.873729 0.157037
Si Si5 0.581293 0.111146 0.799632
Si Si6 0.549155 0.753776 0.554938
Si Si7 0.770743 0.867787 0.556912
O O1 0.500000 0.308174 0.250000
O O2 0.750000 0.250000 0.269000
O O3 0.696695 0.374405 0.293616
O O4 0.777753 0.343416 0.211138
O O5 0.230187 0.442463 0.129004
O O6 0.135042 0.548997 0.169482
O O7 0.247924 0.564164 0.085303
O O8 0.000000 0.500000 0.098790
O O9 0.216132 0.813007 0.372125
O O10 0.385581 0.767947 0.435240
O O11 0.551698 0.859103 0.169638
O O12 0.500000 0.095668 0.750000
O O13 0.580598 0.752098 0.500000
O O14 0.643207 0.816334 0.572032
O O15 0.593861 0.679156 0.570802
O O16 0.768423 0.879173 0.500000
#
# Coordination Sequence:
#
# PCOD9497373 Si02
#       7
#    16  16   8  16  16  16  16
#     4  11  22  39  59  84 117 156 199 246 297 351
#     4  10  20  37  59  90 117 155 204 245 301 362
#     4  12  21  36  58  84 118 156 194 252 303 364
#     4  10  22  37  58  83 120 154 196 247 296 354
#     4   9  20  38  59  84 115 155 196 244 297 356
#     4   9  19  36  60  86 115 154 197 247 306 364
#     4   9  19  39  62  88 119 153 201 254 301 359
#
# _framework density 19.707823999999999
#
# number of rings (size 3 to 8) (size 9 to 14) (size 15 to 20)
#    0.000    2.154    0.769    4.385    0.000    8.615 
#    2.769    5.385    0.000    1.846    0.000    0.000 
#    0.000    0.000    0.000    0.000    0.000    0.000 
#
# Total GULP energy -289626.930316 kJ/mol
# GULP energy per Si atom -5569.748660 kJ/mol
# Density = 1.966297 g / cm^3
# Si number density = 19.707824 Si / 1000 Ang^3
#
#
#
# Elastic Constant Matrix: (Units=GPa)
#
#
# Indices 1 2 3 4 5 6 
#
# 1 78.2908 -5.9023 12.7063 0.0000 0.0000 0.0000
# 2 -5.9023 75.9409 23.6360 0.0000 0.0000 0.0000
# 3 12.7063 23.6360 44.6695 0.0000 0.0000 0.0000
# 4 0.0000 0.0000 0.0000 35.3376 0.0000 0.0000
# 5 0.0000 0.0000 0.0000 0.0000 15.2270 0.0000
# 6 0.0000 0.0000 0.0000 0.0000 0.0000 26.2636
#
#
#
# Elastic Compliance Matrix: (Units=1/GPa)
#
#
# Indices 1 2 3 4 5 6 
#
# 1 0.013857 0.002758 -0.005401 0.000000 0.000000 0.000000
# 2 0.002758 0.016313 -0.009416 0.000000 0.000000 0.000000
# 3 -0.005401 -0.009416 0.028906 0.000000 0.000000 0.000000
# 4 0.000000 0.000000 0.000000 0.028298 0.000000 0.000000
# 5 0.000000 0.000000 0.000000 0.000000 0.065673 0.000000
# 6 0.000000 0.000000 0.000000 0.000000 0.000000 0.038076
#
#
# Mechanical properties :
#
#
# Convention : Reuss Voigt Hill
#
# Bulk Modulus (GPa) = 28.60634 28.86458 28.73546
# Shear Modulus (GPa) = 22.03667 26.59638 24.31652
#
# Velocity S-wave (km/s) = 3.34753 3.67759 3.51643
# Velocity P-wave (km/s) = 5.43029 5.71934 5.57669
#
# Compressibility (1/GPa) = 0.03495728
#
# Stress axis : x y z
#
# Youngs Moduli (GPa) = 72.16346 61.29963 34.59542
#
# Poissons Ratio (x) = -0.16907 0.18686
# Poissons Ratio (y) = -0.19904 0.32577
# Poissons Ratio (z) = 0.38977 0.57722
#
# Static dielectric constant tensor:
#      x y z
#    x 1.736310 0.000000 0.000000 
#    y 0.000000 1.710360 0.000000 
#    z 0.000000 0.000000 1.724680 
# 
# From -- ./inp_files/68263.got.cif
#   From: 2010.05.17/outbox.cif.g08.bks.cpg/sg66_35_cif.got.tgz:68263.got - 2010.06.03 17:51:23.
