data_PCOD9497249
_publ_section_title
;
Structure prediction by ZEFSAII (Michael W. Deem and Ramdas Pophale) SiO2 
 PCOD9497249
Probable space group: C C C M
;
_chemical_formula_sum "Si O2"
_cell_formula_units_Z 104
_cell_length_a 17.957073
_cell_length_b 10.035670
_cell_length_c 27.743281
_cell_angle_alpha 90.000000
_cell_angle_beta 90.000000
_cell_angle_gamma 90.000000
_cell_volume 4999.651592
_symmetry_space_group_name_H-M "C C C M"
_symmetry_group_IT_number 66
_symmetry_cell_setting 'orthorhombic'
loop_
_space_group_symop_operation_xyz
x,y,z
-x,-y,z
x,-y,1/2-z
-x,y,1/2-z
-x,-y,-z
x,y,-z
-x,y,1/2+z
x,-y,1/2+z
1/2+x,1/2+y,z
1/2-x,1/2-y,z
1/2+x,1/2-y,1/2-z
1/2-x,1/2+y,1/2-z
1/2-x,1/2-y,-z
1/2+x,1/2+y,-z
1/2-x,1/2+y,1/2+z
1/2+x,1/2-y,1/2+z
loop_
_atom_site_type_symbol
_atom_site_label
_atom_site_fract_x
_atom_site_fract_y
_atom_site_fract_z
Si Si1 0.981758 0.850457 0.055391
Si Si2 0.201789 0.025876 0.195312
Si Si3 0.612426 0.877728 0.898746
Si Si4 0.624245 0.844132 0.446470
Si Si5 0.668308 0.268438 0.152221
Si Si6 0.882572 0.520356 0.696199
Si Si7 0.750000 0.750000 0.862282
O O1 0.055286 0.758216 0.054183
O O2 0.924618 0.758800 0.084511
O O3 0.954890 0.865807 0.000000
O O4 0.000000 0.000000 0.073215
O O5 0.193919 0.171725 0.173018
O O6 0.177254 0.000000 0.250000
O O7 0.159319 0.924326 0.159806
O O8 0.292558 0.008421 0.195525
O O9 0.700940 0.849275 0.894207
O O10 0.600409 0.004105 0.933937
O O11 0.585704 0.928486 0.846225
O O12 0.657871 0.840817 0.500000
O O13 0.671691 0.792043 0.401216
O O14 0.750000 0.250000 0.175552
O O15 0.611220 0.173975 0.179976
O O16 0.909637 0.500000 0.750000
#
# Coordination Sequence:
#
# PCOD9497249 Si02
#       7
#    16  16  16  16  16  16   8
#     4  10  22  40  62  84 108 147 199 245 285 338
#     4   9  18  28  50  78 116 153 187 222 277 337
#     4  10  20  36  60  86 116 147 191 237 287 343
#     4  10  21  39  60  82 107 148 198 238 285 342
#     4   9  18  31  51  81 112 145 181 232 281 332
#     4   8  16  30  51  80 113 143 185 228 275 339
#     4  10  22  34  53  92 122 150 187 234 296 342
#
# _framework density 20.801449000000002
#
# number of rings (size 3 to 8) (size 9 to 14) (size 15 to 20)
#    0.000    2.615    0.000    1.846    9.692    1.538 
#    0.000    1.538    0.000    7.385    0.000    5.385 
#    0.000    0.000    0.000    0.000    0.000    0.000 
#
# Total GULP energy -289579.247300 kJ/mol
# GULP energy per Si atom -5568.831679 kJ/mol
# Density = 2.075410 g / cm^3
# Si number density = 20.801449 Si / 1000 Ang^3
#
#
#
# Elastic Constant Matrix: (Units=GPa)
#
#
# Indices 1 2 3 4 5 6 
#
# 1 27.7610 16.9860 5.5688 0.0000 0.0000 0.0000
# 2 16.9860 161.2272 72.1741 0.0000 0.0000 0.0000
# 3 5.5688 72.1741 97.0101 0.0000 0.0000 0.0000
# 4 0.0000 0.0000 0.0000 17.8046 0.0000 0.0000
# 5 0.0000 0.0000 0.0000 0.0000 27.1243 0.0000
# 6 0.0000 0.0000 0.0000 0.0000 0.0000 17.6781
#
#
#
# Elastic Compliance Matrix: (Units=1/GPa)
#
#
# Indices 1 2 3 4 5 6 
#
# 1 0.038599 -0.004610 0.001214 0.000000 0.000000 0.000000
# 2 -0.004610 0.009850 -0.007064 0.000000 0.000000 0.000000
# 3 0.001214 -0.007064 0.015494 0.000000 0.000000 0.000000
# 4 0.000000 0.000000 0.000000 0.056165 0.000000 0.000000
# 5 0.000000 0.000000 0.000000 0.000000 0.036867 0.000000
# 6 0.000000 0.000000 0.000000 0.000000 0.000000 0.056567
#
#
# Mechanical properties :
#
#
# Convention : Reuss Voigt Hill
#
# Bulk Modulus (GPa) = 23.24311 52.82845 38.03578
# Shear Modulus (GPa) = 20.09615 25.27268 22.68442
#
# Velocity S-wave (km/s) = 3.11158 3.48939 3.30589
# Velocity P-wave (km/s) = 4.90992 6.45648 5.73556
#
# Compressibility (1/GPa) = 0.04302350
#
# Stress axis : x y z
#
# Youngs Moduli (GPa) = 25.90743 101.52014 64.54157
#
# Poissons Ratio (x) = 0.46801 -0.07836
# Poissons Ratio (y) = 0.11943 0.45591
# Poissons Ratio (z) = -0.03145 0.71712
#
# Static dielectric constant tensor:
#      x y z
#    x 1.788370 0.000000 0.000000 
#    y 0.000000 1.847290 0.000000 
#    z 0.000000 0.000000 1.785320 
# 
# From -- ./inp_files/70206.got.cif
#   From: 2010.05.17/outbox.cif.g08.bks.cpg/sg66_36_cif.got.tgz:70206.got - 2010.06.03 17:51:23.
