data_PCOD9497622
_publ_section_title
;
Structure prediction by ZEFSAII (Michael W. Deem and Ramdas Pophale) SiO2 
 PCOD9497622
Probable space group: C C C M
;
_chemical_formula_sum "Si O2"
_cell_formula_units_Z 100
_cell_length_a 8.485361
_cell_length_b 20.564948
_cell_length_c 28.923087
_cell_angle_alpha 90.000000
_cell_angle_beta 90.000000
_cell_angle_gamma 90.000000
_cell_volume 5047.107828
_symmetry_space_group_name_H-M "C C C M"
_symmetry_group_IT_number 66
_symmetry_cell_setting 'orthorhombic'
loop_
_space_group_symop_operation_xyz
x,y,z
-x,-y,z
x,-y,1/2-z
-x,y,1/2-z
-x,-y,-z
x,y,-z
-x,y,1/2+z
x,-y,1/2+z
1/2+x,1/2+y,z
1/2-x,1/2-y,z
1/2+x,1/2-y,1/2-z
1/2-x,1/2+y,1/2-z
1/2-x,1/2-y,-z
1/2+x,1/2+y,-z
1/2-x,1/2+y,1/2+z
1/2+x,1/2-y,1/2+z
loop_
_atom_site_type_symbol
_atom_site_label
_atom_site_fract_x
_atom_site_fract_y
_atom_site_fract_z
Si Si1 0.912285 0.313328 0.177486
Si Si2 0.110366 0.204715 0.137247
Si Si3 0.702364 0.338925 0.911405
Si Si4 0.170625 0.116866 0.269684
Si Si5 0.250000 0.750000 0.000000
Si Si6 0.668119 0.533809 0.363997
Si Si7 0.687340 0.086722 0.322194
O O1 0.818868 0.314184 0.129124
O O2 0.785690 0.323251 0.217922
O O3 0.023372 0.250305 0.175345
O O4 0.019893 0.377899 0.178500
O O5 0.250000 0.250000 0.117065
O O6 0.193606 0.141639 0.158062
O O7 0.975672 0.182478 0.102018
O O8 0.708554 0.416842 0.905132
O O9 0.747689 0.306490 0.959168
O O10 0.152077 0.077542 0.317441
O O11 0.255867 0.075078 0.230070
O O12 0.000000 0.133971 0.250000
O O13 0.500000 0.500000 0.371895
O O14 0.793164 0.477636 0.352337
#
# Coordination Sequence:
#
# PCOD9497622 Si02
#       7
#    16  16  16  16   4  16  16
#     4  10  22  39  60  91 131 170 225 270 323 392
#     4  10  20  39  65  90 125 171 215 268 335 385
#     4  11  22  41  68  95 120 170 209 269 346 407
#     4  11  21  34  57  89 125 179 227 261 309 359
#     4  12  24  44  76  98 128 156 216 274 350 434
#     4  11  21  38  65  90 130 175 219 269 322 392
#     4  11  21  37  63  90 132 180 218 275 311 382
#
# _framework density 19.813326
#
# number of rings (size 3 to 8) (size 9 to 14) (size 15 to 20)
#    0.000    1.280    4.800    1.920    0.000    2.560 
#    0.000   26.400    0.000    1.920    0.000    0.000 
#    0.000    0.000    0.000    0.000    0.000    0.000 
#
# Total GULP energy -278854.864546 kJ/mol
# GULP energy per Si atom -5577.097291 kJ/mol
# Density = 1.976823 g / cm^3
# Si number density = 19.813326 Si / 1000 Ang^3
#
#
#
# Elastic Constant Matrix: (Units=GPa)
#
#
# Indices 1 2 3 4 5 6 
#
# 1 107.5757 37.9585 26.5618 0.0000 0.0000 0.0000
# 2 37.9585 143.7126 42.3078 0.0000 0.0000 0.0000
# 3 26.5618 42.3078 101.5153 0.0000 0.0000 0.0000
# 4 0.0000 0.0000 0.0000 175.6059 0.0000 0.0000
# 5 0.0000 0.0000 0.0000 0.0000 -0.4032 0.0000
# 6 0.0000 0.0000 0.0000 0.0000 0.0000 36.3803
#
#
#
# Elastic Compliance Matrix: (Units=1/GPa)
#
#
# Indices 1 2 3 4 5 6 
#
# 1 0.010538 -0.002247 -0.001821 0.000000 0.000000 0.000000
# 2 -0.002247 0.008411 -0.002917 0.000000 0.000000 0.000000
# 3 -0.001821 -0.002917 0.011543 0.000000 0.000000 0.000000
# 4 0.000000 0.000000 0.000000 0.005695 0.000000 0.000000
# 5 0.000000 0.000000 0.000000 0.000000 -2.480389 0.000000
# 6 0.000000 0.000000 0.000000 0.000000 0.000000 0.027487
#
#
# Mechanical properties :
#
#
# Convention : Reuss Voigt Hill
#
# Bulk Modulus (GPa) = 60.52836 62.93999 61.73418
# Shear Modulus (GPa) = -2.08573 58.71499 28.31463
#
# Velocity S-wave (km/s) = -1.02712 5.44963 3.78441
# Velocity P-wave (km/s) = 5.40454 8.45183 7.09374
#
# Compressibility (1/GPa) = 0.01652118
#
# Stress axis : x y z
#
# Youngs Moduli (GPa) = 94.89139 118.89533 86.63316
#
# Poissons Ratio (x) = 0.26721 0.15774
# Poissons Ratio (y) = 0.21327 0.25273
# Poissons Ratio (z) = 0.17277 0.34685
#
# Static dielectric constant tensor:
#      x y z
#    x 1.755560 0.000000 0.000000 
#    y 0.000000 1.788150 0.000000 
#    z 0.000000 0.000000 1.644730 
# 
# From -- ./inp_files/62668.got.cif
#   From: 2010.05.17/outbox.cif.g08.bks.cpg/sg66_32_cif.got.tgz:62668.got - 2010.06.03 17:51:23.
