data_PCOD9497183
_publ_section_title
;
Structure prediction by ZEFSAII (Michael W. Deem and Ramdas Pophale) SiO2 
 PCOD9497183
Probable space group: C C C M
;
_chemical_formula_sum "Si O2"
_cell_formula_units_Z 56
_cell_length_a 8.069571
_cell_length_b 21.824053
_cell_length_c 14.789329
_cell_angle_alpha 90.000000
_cell_angle_beta 90.000000
_cell_angle_gamma 90.000000
_cell_volume 2604.559751
_symmetry_space_group_name_H-M "C C C M"
_symmetry_group_IT_number 66
_symmetry_cell_setting 'orthorhombic'
loop_
_space_group_symop_operation_xyz
x,y,z
-x,-y,z
x,-y,1/2-z
-x,y,1/2-z
-x,-y,-z
x,y,-z
-x,y,1/2+z
x,-y,1/2+z
1/2+x,1/2+y,z
1/2-x,1/2-y,z
1/2+x,1/2-y,1/2-z
1/2-x,1/2+y,1/2-z
1/2-x,1/2-y,-z
1/2+x,1/2+y,-z
1/2-x,1/2+y,1/2+z
1/2+x,1/2-y,1/2+z
loop_
_atom_site_type_symbol
_atom_site_label
_atom_site_fract_x
_atom_site_fract_y
_atom_site_fract_z
Si Si1 0.295850 0.393901 0.500000
Si Si2 0.956846 0.664111 0.000000
Si Si3 0.162924 0.689141 0.307278
Si Si4 0.236318 0.532403 0.500000
Si Si5 0.939679 0.912589 0.154525
O O1 0.199392 0.460071 0.500000
O O2 0.413172 0.389482 0.411584
O O3 0.153213 0.344049 0.500000
O O4 0.899096 0.698014 0.909970
O O5 0.876121 0.594504 0.000000
O O6 0.250000 0.750000 0.270059
O O7 0.306543 0.638966 0.316996
O O8 0.000000 0.671029 0.250000
O O9 0.343111 0.540316 0.409268
O O10 0.000000 0.936287 0.250000
#
# Coordination Sequence:
#
# PCOD9497183 Si02
#       5
#     8   8  16   8  16
#     4  11  21  37  59  86 118 156 192 237 289 339
#     4  10  22  39  60  87 120 152 193 239 286 342
#     4  11  23  41  61  85 115 150 192 243 296 353
#     4   9  21  36  56  85 119 156 195 234 279 339
#     4  10  20  36  57  85 116 151 195 239 286 347
#
# _framework density 21.500754000000001
#
# number of rings (size 3 to 8) (size 9 to 14) (size 15 to 20)
#    0.000    1.714    0.000    6.000    0.000    2.286 
#    0.000    2.143    0.000    5.143    0.000    0.000 
#    0.000    0.000    0.000    0.000    0.000    0.000 
#
# Total GULP energy -156226.980935 kJ/mol
# GULP energy per Si atom -5579.535033 kJ/mol
# Density = 2.145182 g / cm^3
# Si number density = 21.500754 Si / 1000 Ang^3
#
#
#
# Elastic Constant Matrix: (Units=GPa)
#
#
# Indices 1 2 3 4 5 6 
#
# 1 73.8105 16.1734 19.8019 0.0000 0.0000 0.0000
# 2 16.1734 54.5530 -6.6307 0.0000 0.0000 0.0000
# 3 19.8019 -6.6307 151.2533 0.0000 0.0000 0.0000
# 4 0.0000 0.0000 0.0000 -86.1818 0.0000 0.0000
# 5 0.0000 0.0000 0.0000 0.0000 25.5700 0.0000
# 6 0.0000 0.0000 0.0000 0.0000 0.0000 21.5794
#
#
#
# Elastic Compliance Matrix: (Units=1/GPa)
#
#
# Indices 1 2 3 4 5 6 
#
# 1 0.015182 -0.004768 -0.002197 0.000000 0.000000 0.000000
# 2 -0.004768 0.019926 0.001498 0.000000 0.000000 0.000000
# 3 -0.002197 0.001498 0.006965 0.000000 0.000000 0.000000
# 4 0.000000 0.000000 0.000000 -0.011603 0.000000 0.000000
# 5 0.000000 0.000000 0.000000 0.000000 0.039108 0.000000
# 6 0.000000 0.000000 0.000000 0.000000 0.000000 0.046340
#
#
# Mechanical properties :
#
#
# Convention : Reuss Voigt Hill
#
# Bulk Modulus (GPa) = 32.11363 37.58956 34.85159
# Shear Modulus (GPa) = 36.43445 8.87833 22.65639
#
# Velocity S-wave (km/s) = 4.12098 2.03427 3.24967
# Velocity P-wave (km/s) = 6.13284 4.79985 5.50683
#
# Compressibility (1/GPa) = 0.03113942
#
# Stress axis : x y z
#
# Youngs Moduli (GPa) = 65.86609 50.18451 143.58172
#
# Poissons Ratio (x) = 0.23929 0.31540
# Poissons Ratio (y) = 0.31406 -0.21505
# Poissons Ratio (z) = 0.14469 -0.07517
#
# Static dielectric constant tensor:
#      x y z
#    x 1.787140 0.000000 0.000000 
#    y 0.000000 1.803140 0.000000 
#    z 0.000000 0.000000 1.741770 
# 
# From -- ./inp_files/23908.got.cif
#   From: 2010.05.17/outbox.cif.g08.bks.cpg/sg66_12_cif.got.tgz:23908.got - 2010.06.03 17:51:23.
