data_PCOD9497061
_publ_section_title
;
Structure prediction by ZEFSAII (Michael W. Deem and Ramdas Pophale) SiO2 
 PCOD9497061
Probable space group: C C C M
;
_chemical_formula_sum "Si O2"
_cell_formula_units_Z 68
_cell_length_a 21.171901
_cell_length_b 16.175194
_cell_length_c 9.220173
_cell_angle_alpha 90.000000
_cell_angle_beta 90.000000
_cell_angle_gamma 90.000000
_cell_volume 3157.536813
_symmetry_space_group_name_H-M "C C C M"
_symmetry_group_IT_number 66
_symmetry_cell_setting 'orthorhombic'
loop_
_space_group_symop_operation_xyz
x,y,z
-x,-y,z
x,-y,1/2-z
-x,y,1/2-z
-x,-y,-z
x,y,-z
-x,y,1/2+z
x,-y,1/2+z
1/2+x,1/2+y,z
1/2-x,1/2-y,z
1/2+x,1/2-y,1/2-z
1/2-x,1/2+y,1/2-z
1/2-x,1/2-y,-z
1/2+x,1/2+y,-z
1/2-x,1/2+y,1/2+z
1/2+x,1/2-y,1/2+z
loop_
_atom_site_type_symbol
_atom_site_label
_atom_site_fract_x
_atom_site_fract_y
_atom_site_fract_z
Si Si1 0.620968 0.891166 0.834230
Si Si2 0.557174 0.586439 0.168838
Si Si3 0.000000 0.500000 0.250000
Si Si4 0.672032 0.293254 0.333954
Si Si5 0.744246 0.917959 0.670596
O O1 0.552016 0.934796 0.818723
O O2 0.632328 0.792021 0.817518
O O3 0.669855 0.919608 0.710244
O O4 0.642946 0.910167 0.000000
O O5 0.564572 0.500000 0.250000
O O6 0.500000 0.631403 0.250000
O O7 0.619637 0.637315 0.184137
O O8 0.542936 0.575398 0.000000
O O9 0.694596 0.295454 0.500000
O O10 0.727812 0.332423 0.235714
O O11 0.755523 0.921988 0.500000
O O12 0.770865 0.000000 0.750000
#
# Coordination Sequence:
#
# PCOD9497061 Si02
#       5
#    16  16   4  16  16
#     4  11  25  46  70 100 140 183 233 292 350 412
#     4  10  20  35  57  86 125 170 218 271 335 407
#     4  12  26  44  80 106 140 192 240 284 346 424
#     4  10  23  42  66  97 137 181 226 285 352 410
#     4  12  25  43  70 103 139 181 233 289 351 422
#
# _framework density 21.535772999999999
#
# number of rings (size 3 to 8) (size 9 to 14) (size 15 to 20)
#    0.000    1.176    1.176    5.294    1.647    8.471 
#    0.000    0.000    0.000    0.000    0.000    0.000 
#    0.000    0.000    0.000    0.000    0.000    0.000 
#
# Total GULP energy -189328.586341 kJ/mol
# GULP energy per Si atom -5568.487834 kJ/mol
# Density = 2.148676 g / cm^3
# Si number density = 21.535773 Si / 1000 Ang^3
#
#
#
# Elastic Constant Matrix: (Units=GPa)
#
#
# Indices 1 2 3 4 5 6 
#
# 1 125.1931 40.0656 31.7553 0.0000 0.0000 0.0000
# 2 40.0656 134.9006 61.6879 0.0000 0.0000 0.0000
# 3 31.7553 61.6879 123.4984 0.0000 0.0000 0.0000
# 4 0.0000 0.0000 0.0000 -24.3021 0.0000 0.0000
# 5 0.0000 0.0000 0.0000 0.0000 16.8569 0.0000
# 6 0.0000 0.0000 0.0000 0.0000 0.0000 41.9689
#
#
#
# Elastic Compliance Matrix: (Units=1/GPa)
#
#
# Indices 1 2 3 4 5 6 
#
# 1 0.008977 -0.002087 -0.001266 0.000000 0.000000 0.000000
# 2 -0.002087 0.010093 -0.004505 0.000000 0.000000 0.000000
# 3 -0.001266 -0.004505 0.010673 0.000000 0.000000 0.000000
# 4 0.000000 0.000000 0.000000 -0.041149 0.000000 0.000000
# 5 0.000000 0.000000 0.000000 0.000000 0.059323 0.000000
# 6 0.000000 0.000000 0.000000 0.000000 0.000000 0.023827
#
#
# Mechanical properties :
#
#
# Convention : Reuss Voigt Hill
#
# Bulk Modulus (GPa) = 71.29062 72.28998 71.79030
# Shear Modulus (GPa) = 54.26869 23.57697 38.92283
#
# Velocity S-wave (km/s) = 5.02534 3.31234 4.25591
# Velocity P-wave (km/s) = 8.17602 6.94759 7.58671
#
# Compressibility (1/GPa) = 0.01402709
#
# Stress axis : x y z
#
# Youngs Moduli (GPa) = 111.39966 99.08150 93.69664
#
# Poissons Ratio (x) = 0.20682 0.11858
# Poissons Ratio (y) = 0.23253 0.42207
# Poissons Ratio (z) = 0.14098 0.44632
#
# Static dielectric constant tensor:
#      x y z
#    x 1.833230 0.000000 0.000000 
#    y 0.000000 1.858680 0.000000 
#    z 0.000000 0.000000 1.753600 
# 
# From -- ./inp_files/7455.got.cif
#   From: 2010.05.17/outbox.cif.g08.bks.cpg/sg66_4_cif.got.tgz:7455.got - 2010.06.03 17:51:23.
