data_PCOD9497400
_publ_section_title
;
Structure prediction by ZEFSAII (Michael W. Deem and Ramdas Pophale) SiO2 
 PCOD9497400
Probable space group: C C C M
;
_chemical_formula_sum "Si O2"
_cell_formula_units_Z 96
_cell_length_a 22.351823
_cell_length_b 9.610994
_cell_length_c 23.973016
_cell_angle_alpha 90.000000
_cell_angle_beta 90.000000
_cell_angle_gamma 90.000000
_cell_volume 5149.960892
_symmetry_space_group_name_H-M "C C C M"
_symmetry_group_IT_number 66
_symmetry_cell_setting 'orthorhombic'
loop_
_space_group_symop_operation_xyz
x,y,z
-x,-y,z
x,-y,1/2-z
-x,y,1/2-z
-x,-y,-z
x,y,-z
-x,y,1/2+z
x,-y,1/2+z
1/2+x,1/2+y,z
1/2-x,1/2-y,z
1/2+x,1/2-y,1/2-z
1/2-x,1/2+y,1/2-z
1/2-x,1/2-y,-z
1/2+x,1/2+y,-z
1/2-x,1/2+y,1/2+z
1/2+x,1/2-y,1/2+z
loop_
_atom_site_type_symbol
_atom_site_label
_atom_site_fract_x
_atom_site_fract_y
_atom_site_fract_z
Si Si1 0.062601 0.678858 0.565114
Si Si2 0.130504 0.555679 0.130162
Si Si3 0.880119 0.032813 0.434510
Si Si4 0.402399 0.000000 0.250000
Si Si5 0.953828 0.183696 0.130786
Si Si6 0.250350 0.082361 0.435848
Si Si7 0.000000 0.739897 0.250000
O O1 0.054347 0.644563 0.500000
O O2 0.083443 0.546348 0.600034
O O3 0.003363 0.746348 0.591202
O O4 0.111834 0.801806 0.569484
O O5 0.135180 0.519696 0.194797
O O6 0.102302 0.709749 0.128701
O O7 0.193526 0.538448 0.100519
O O8 0.890957 0.994132 0.500000
O O9 0.928800 0.958222 0.395256
O O10 0.813819 0.980333 0.419576
O O11 0.444982 0.866363 0.260364
O O12 0.981279 0.179224 0.193524
O O13 0.260993 0.040438 0.500000
O O14 0.250000 0.250000 0.433802
#
# Coordination Sequence:
#
# PCOD9497400 Si02
#       7
#    16  16  16   8  16  16   8
#     4  11  23  36  55  90 124 149 186 240 296 345
#     4  11  21  36  64  85 111 154 196 244 279 345
#     4  10  22  39  58  83 124 161 184 232 299 347
#     4   9  18  36  58  84 116 148 189 238 300 330
#     4  11  20  36  61  85 116 156 195 233 290 344
#     4  10  20  37  61  87 113 148 195 239 285 344
#     4   9  18  34  59  84 114 153 191 236 290 341
#
# _framework density 18.640917999999999
#
# number of rings (size 3 to 8) (size 9 to 14) (size 15 to 20)
#    0.000    1.667    3.333    2.000    0.000    4.667 
#    0.000    4.167    7.333    0.000    0.000    0.000 
#    0.000    0.000    0.000    0.000    0.000    0.000 
#
# Total GULP energy -268002.511444 kJ/mol
# GULP energy per Si atom -5583.385655 kJ/mol
# Density = 1.859849 g / cm^3
# Si number density = 18.640918 Si / 1000 Ang^3
#
#
#
# Elastic Constant Matrix: (Units=GPa)
#
#
# Indices 1 2 3 4 5 6 
#
# 1 82.0657 -2.9353 35.2988 0.0000 0.0000 0.0000
# 2 -2.9353 45.2819 16.9699 0.0000 0.0000 0.0000
# 3 35.2988 16.9699 92.9299 0.0000 0.0000 0.0000
# 4 0.0000 0.0000 0.0000 21.7736 0.0000 0.0000
# 5 0.0000 0.0000 0.0000 0.0000 7.9327 0.0000
# 6 0.0000 0.0000 0.0000 0.0000 0.0000 18.3076
#
#
#
# Elastic Compliance Matrix: (Units=1/GPa)
#
#
# Indices 1 2 3 4 5 6 
#
# 1 0.015021 0.003341 -0.006316 0.000000 0.000000 0.000000
# 2 0.003341 0.024449 -0.005734 0.000000 0.000000 0.000000
# 3 -0.006316 -0.005734 0.014207 0.000000 0.000000 0.000000
# 4 0.000000 0.000000 0.000000 0.045927 0.000000 0.000000
# 5 0.000000 0.000000 0.000000 0.000000 0.126060 0.000000
# 6 0.000000 0.000000 0.000000 0.000000 0.000000 0.054622
#
#
# Mechanical properties :
#
#
# Convention : Reuss Voigt Hill
#
# Bulk Modulus (GPa) = 27.57865 35.43826 31.50845
# Shear Modulus (GPa) = 16.13990 20.99904 18.56947
#
# Velocity S-wave (km/s) = 2.94569 3.35998 3.15964
# Velocity P-wave (km/s) = 5.13773 5.83994 5.50005
#
# Compressibility (1/GPa) = 0.03625994
#
# Stress axis : x y z
#
# Youngs Moduli (GPa) = 66.57137 40.90119 70.38866
#
# Poissons Ratio (x) = -0.13664 0.44456
# Poissons Ratio (y) = -0.22239 0.40358
# Poissons Ratio (z) = 0.42045 0.23451
#
# Static dielectric constant tensor:
#      x y z
#    x 1.624050 0.000000 0.000000 
#    y 0.000000 1.653100 0.000000 
#    z 0.000000 0.000000 1.633940 
# 
# From -- ./inp_files/51830.got.cif
#   From: 2010.05.17/outbox.cif.g08.bks.cpg/sg66_26_cif.got.tgz:51830.got - 2010.06.03 17:51:23.
