data_PCOD9497145
_publ_section_title
;
Structure prediction by ZEFSAII (Michael W. Deem and Ramdas Pophale) SiO2 
 PCOD9497145
Probable space group: C C C M
;
_chemical_formula_sum "Si O2"
_cell_formula_units_Z 116
_cell_length_a 25.774051
_cell_length_b 28.997557
_cell_length_c 8.792257
_cell_angle_alpha 90.000000
_cell_angle_beta 90.000000
_cell_angle_gamma 90.000000
_cell_volume 6571.196716
_symmetry_space_group_name_H-M "C C C M"
_symmetry_group_IT_number 66
_symmetry_cell_setting 'orthorhombic'
loop_
_space_group_symop_operation_xyz
x,y,z
-x,-y,z
x,-y,1/2-z
-x,y,1/2-z
-x,-y,-z
x,y,-z
-x,y,1/2+z
x,-y,1/2+z
1/2+x,1/2+y,z
1/2-x,1/2-y,z
1/2+x,1/2-y,1/2-z
1/2-x,1/2+y,1/2-z
1/2-x,1/2-y,-z
1/2+x,1/2+y,-z
1/2-x,1/2+y,1/2+z
1/2+x,1/2-y,1/2+z
loop_
_atom_site_type_symbol
_atom_site_label
_atom_site_fract_x
_atom_site_fract_y
_atom_site_fract_z
Si Si1 0.675938 0.878862 0.818294
Si Si2 0.283128 0.607291 0.183469
Si Si3 0.500000 0.000000 0.750000
Si Si4 0.152677 0.190294 0.181468
Si Si5 0.116869 0.950751 0.180774
Si Si6 0.604922 0.953254 0.326236
Si Si7 0.196437 0.722867 0.817439
Si Si8 0.555655 0.361399 0.182677
O O1 0.727900 0.903787 0.756123
O O2 0.626341 0.908232 0.760015
O O3 0.683521 0.827021 0.752688
O O4 0.675587 0.877170 0.000000
O O5 0.303784 0.656626 0.244726
O O6 0.328082 0.571450 0.228879
O O7 0.279599 0.609641 0.000000
O O8 0.457327 0.034941 0.675953
O O9 0.155388 0.240592 0.254478
O O10 0.098673 0.168422 0.232433
O O11 0.159236 0.191423 0.000000
O O12 0.072249 0.914029 0.216617
O O13 0.107761 0.000000 0.250000
O O14 0.119427 0.954783 0.000000
O O15 0.621434 0.949472 0.500000
O O16 0.627308 0.000000 0.250000
O O17 0.250000 0.750000 0.774221
O O18 0.196381 0.718579 0.000000
O O19 0.500000 0.351176 0.250000
O O20 0.558601 0.354778 0.000000
#
# Coordination Sequence:
#
# PCOD9497145 Si02
#       8
#    16  16   4  16  16  16  16  16
#     4  12  24  36  57  91 124 155 199 246 291 350
#     4  10  20  36  53  76 113 155 193 235 288 347
#     4   8  22  40  74  92 118 156 210 244 308 364
#     4  11  21  35  58  85 113 149 193 237 289 353
#     4   9  20  35  53  76 107 145 186 233 288 344
#     4  10  21  39  64  91 120 155 197 245 299 357
#     4  11  22  37  60  86 120 161 196 238 293 348
#     4  10  21  38  58  81 108 144 191 240 291 347
#
# _framework density 17.652795999999999
#
# number of rings (size 3 to 8) (size 9 to 14) (size 15 to 20)
#    0.414    1.241    1.379    5.172    0.000    4.690 
#    0.000    2.759    1.517    0.000    0.000    0.000 
#    0.000    0.000    0.000    0.000    0.000    0.000 
#
# Total GULP energy -323201.515692 kJ/mol
# GULP energy per Si atom -5572.439926 kJ/mol
# Density = 1.761262 g / cm^3
# Si number density = 17.652796 Si / 1000 Ang^3
#
#
#
# Elastic Constant Matrix: (Units=GPa)
#
#
# Indices 1 2 3 4 5 6 
#
# 1 74.8779 28.0093 21.7802 0.0000 0.0000 0.0000
# 2 28.0093 88.6588 34.2061 0.0000 0.0000 0.0000
# 3 21.7802 34.2061 88.6653 0.0000 0.0000 0.0000
# 4 0.0000 0.0000 0.0000 25.1321 0.0000 0.0000
# 5 0.0000 0.0000 0.0000 0.0000 38.7151 0.0000
# 6 0.0000 0.0000 0.0000 0.0000 0.0000 20.3202
#
#
#
# Elastic Compliance Matrix: (Units=1/GPa)
#
#
# Indices 1 2 3 4 5 6 
#
# 1 0.015520 -0.004032 -0.002257 0.000000 0.000000 0.000000
# 2 -0.004032 0.014299 -0.004526 0.000000 0.000000 0.000000
# 3 -0.002257 -0.004526 0.013579 0.000000 0.000000 0.000000
# 4 0.000000 0.000000 0.000000 0.039790 0.000000 0.000000
# 5 0.000000 0.000000 0.000000 0.000000 0.025830 0.000000
# 6 0.000000 0.000000 0.000000 0.000000 0.000000 0.049212
#
#
# Mechanical properties :
#
#
# Convention : Reuss Voigt Hill
#
# Bulk Modulus (GPa) = 45.93944 46.68814 46.31379
# Shear Modulus (GPa) = 26.72141 28.04722 27.38432
#
# Velocity S-wave (km/s) = 3.89488 3.99033 3.94289
# Velocity P-wave (km/s) = 6.80494 6.90911 6.85722
#
# Compressibility (1/GPa) = 0.02176779
#
# Stress axis : x y z
#
# Youngs Moduli (GPa) = 64.43347 69.93334 73.64422
#
# Poissons Ratio (x) = 0.28200 0.16620
# Poissons Ratio (y) = 0.25982 0.33331
# Poissons Ratio (z) = 0.14541 0.31652
#
# Static dielectric constant tensor:
#      x y z
#    x 1.749440 0.000000 0.000000 
#    y 0.000000 1.668560 0.000000 
#    z 0.000000 0.000000 1.594550 
# 
# From -- ./inp_files/10622.got.cif
#   From: 2010.05.17/outbox.cif.g08.bks.cpg/sg66_6_cif.got.tgz:10622.got - 2010.06.03 17:51:23.
