data_PCOD9497470
_publ_section_title
;
Structure prediction by ZEFSAII (Michael W. Deem and Ramdas Pophale) SiO2 
 PCOD9497470
Probable space group: C C C M
;
_chemical_formula_sum "Si O2"
_cell_formula_units_Z 104
_cell_length_a 27.379359
_cell_length_b 9.281224
_cell_length_c 20.881104
_cell_angle_alpha 90.000000
_cell_angle_beta 90.000000
_cell_angle_gamma 90.000000
_cell_volume 5306.180107
_symmetry_space_group_name_H-M "C C C M"
_symmetry_group_IT_number 66
_symmetry_cell_setting 'orthorhombic'
loop_
_space_group_symop_operation_xyz
x,y,z
-x,-y,z
x,-y,1/2-z
-x,y,1/2-z
-x,-y,-z
x,y,-z
-x,y,1/2+z
x,-y,1/2+z
1/2+x,1/2+y,z
1/2-x,1/2-y,z
1/2+x,1/2-y,1/2-z
1/2-x,1/2+y,1/2-z
1/2-x,1/2-y,-z
1/2+x,1/2+y,-z
1/2-x,1/2+y,1/2+z
1/2+x,1/2-y,1/2+z
loop_
_atom_site_type_symbol
_atom_site_label
_atom_site_fract_x
_atom_site_fract_y
_atom_site_fract_z
Si Si1 0.442976 0.466169 0.324817
Si Si2 0.798866 0.326629 0.926386
Si Si3 0.609275 0.178078 0.842214
Si Si4 0.443855 0.041845 0.070832
Si Si5 0.796661 0.645936 0.878700
Si Si6 0.390816 0.670567 0.425271
Si Si7 0.167968 0.500000 0.750000
O O1 0.500000 0.500000 0.336729
O O2 0.432473 0.500000 0.250000
O O3 0.430923 0.299014 0.334758
O O4 0.408308 0.551695 0.374503
O O5 0.750000 0.250000 0.901304
O O6 0.845515 0.275705 0.886565
O O7 0.794008 0.500146 0.921022
O O8 0.804948 0.285469 0.000000
O O9 0.586466 0.038849 0.875678
O O10 0.633594 0.125816 0.777052
O O11 0.500000 0.000000 0.076365
O O12 0.434037 0.210654 0.074623
O O13 0.426229 0.994259 0.000000
O O14 0.750000 0.750000 0.882421
O O15 0.843059 0.742078 0.900782
O O16 0.802729 0.574268 0.807982
O O17 0.383891 0.623665 0.500000
#
# Coordination Sequence:
#
# PCOD9497470 Si02
#       7
#    16  16  16  16  16  16   8
#     4  11  26  45  64  93 137 179 222 273 333 401
#     4  10  22  40  64  94 125 159 206 258 322 391
#     4  11  22  41  65  89 123 168 209 270 313 390
#     4  10  20  37  65  95 123 159 208 266 324 385
#     4  11  24  42  64  94 128 171 212 274 329 399
#     4  11  23  42  66  97 135 171 219 275 333 398
#     4  10  22  42  65  90 126 164 229 262 330 386
#
# _framework density 19.599788
#
# number of rings (size 3 to 8) (size 9 to 14) (size 15 to 20)
#    0.000    1.385    3.077    2.769    2.154    5.231 
#    1.385    0.000    0.000    0.000    0.000    0.000 
#    0.000    0.000    0.000    0.000    0.000    0.000 
#
# Total GULP energy -290251.080301 kJ/mol
# GULP energy per Si atom -5581.751544 kJ/mol
# Density = 1.955518 g / cm^3
# Si number density = 19.599788 Si / 1000 Ang^3
#
#
#
# Elastic Constant Matrix: (Units=GPa)
#
#
# Indices 1 2 3 4 5 6 
#
# 1 70.4465 19.5762 16.0072 0.0000 0.0000 0.0000
# 2 19.5762 57.4667 13.4621 0.0000 0.0000 0.0000
# 3 16.0072 13.4621 86.6154 0.0000 0.0000 0.0000
# 4 0.0000 0.0000 0.0000 24.9672 0.0000 0.0000
# 5 0.0000 0.0000 0.0000 0.0000 -22.2312 0.0000
# 6 0.0000 0.0000 0.0000 0.0000 0.0000 41.7271
#
#
#
# Elastic Compliance Matrix: (Units=1/GPa)
#
#
# Indices 1 2 3 4 5 6 
#
# 1 0.016073 -0.004960 -0.002200 0.000000 0.000000 0.000000
# 2 -0.004960 0.019590 -0.002128 0.000000 0.000000 0.000000
# 3 -0.002200 -0.002128 0.012283 0.000000 0.000000 0.000000
# 4 0.000000 0.000000 0.000000 0.040053 0.000000 0.000000
# 5 0.000000 0.000000 0.000000 0.000000 -0.044982 0.000000
# 6 0.000000 0.000000 0.000000 0.000000 0.000000 0.023965
#
#
# Mechanical properties :
#
#
# Convention : Reuss Voigt Hill
#
# Bulk Modulus (GPa) = 34.04836 34.73552 34.39194
# Shear Modulus (GPa) = 52.44006 19.92481 36.18244
#
# Velocity S-wave (km/s) = 5.17818 3.19185 4.30124
# Velocity P-wave (km/s) = 7.29115 5.59864 6.50022
#
# Compressibility (1/GPa) = 0.02936999
#
# Stress axis : x y z
#
# Youngs Moduli (GPa) = 62.21486 51.04753 81.41646
#
# Poissons Ratio (x) = 0.25320 0.17908
# Poissons Ratio (y) = 0.30860 0.17325
# Poissons Ratio (z) = 0.13684 0.10863
#
# Static dielectric constant tensor:
#      x y z
#    x 1.691770 0.000000 0.000000 
#    y 0.000000 1.670030 0.000000 
#    z 0.000000 0.000000 1.717570 
# 
# From -- ./inp_files/53042.got.cif
#   From: 2010.05.17/outbox.cif.g08.bks.cpg/sg66_27_cif.got.tgz:53042.got - 2010.06.03 17:51:23.
