data_PCOD9497078
_publ_section_title
;
Structure prediction by ZEFSAII (Michael W. Deem and Ramdas Pophale) SiO2 
 PCOD9497078
Probable space group: C C C M
;
_chemical_formula_sum "Si O2"
_cell_formula_units_Z 64
_cell_length_a 14.202377
_cell_length_b 8.165703
_cell_length_c 22.186475
_cell_angle_alpha 90.000000
_cell_angle_beta 90.000000
_cell_angle_gamma 90.000000
_cell_volume 2573.018586
_symmetry_space_group_name_H-M "C C C M"
_symmetry_group_IT_number 66
_symmetry_cell_setting 'orthorhombic'
loop_
_space_group_symop_operation_xyz
x,y,z
-x,-y,z
x,-y,1/2-z
-x,y,1/2-z
-x,-y,-z
x,y,-z
-x,y,1/2+z
x,-y,1/2+z
1/2+x,1/2+y,z
1/2-x,1/2-y,z
1/2+x,1/2-y,1/2-z
1/2-x,1/2+y,1/2-z
1/2-x,1/2-y,-z
1/2+x,1/2+y,-z
1/2-x,1/2+y,1/2+z
1/2+x,1/2-y,1/2+z
loop_
_atom_site_type_symbol
_atom_site_label
_atom_site_fract_x
_atom_site_fract_y
_atom_site_fract_z
Si Si1 0.356307 0.229290 0.624432
Si Si2 0.142221 0.624267 0.382411
Si Si3 0.387196 0.309214 0.755924
Si Si4 0.353653 0.551638 0.430280
O O1 0.250000 0.250000 0.599152
O O2 0.350581 0.221223 0.696417
O O3 0.401138 0.401862 0.605157
O O4 0.400520 0.055881 0.608252
O O5 0.136804 0.704696 0.315539
O O6 0.250953 0.585645 0.400584
O O7 0.101573 0.768943 0.423515
O O8 0.354973 0.500000 0.750000
O O9 0.500000 0.311988 0.750000
O O10 0.345311 0.508376 0.500000
#
# Coordination Sequence:
#
# PCOD9497078 Si02
#       4
#    16  16  16  16
#     4  10  22  35  60  92 119 155 193 251 297 362
#     4  10  20  35  58  86 115 158 195 242 299 356
#     4  11  23  39  60  86 124 162 199 249 314 371
#     4  10  21  38  59  91 126 157 199 248 296 350
#
# _framework density 24.873507
#
# number of rings (size 3 to 8) (size 9 to 14) (size 15 to 20)
#    0.000    1.750    2.500    2.250    3.500    7.500 
#    0.000    0.000    0.000    4.500    0.000   17.500 
#    0.000    0.000    0.000    0.000    0.000    0.000 
#
# Total GULP energy -178618.124563 kJ/mol
# GULP energy per Si atom -5581.816393 kJ/mol
# Density = 2.481689 g / cm^3
# Si number density = 24.873507 Si / 1000 Ang^3
#
#
#
# Elastic Constant Matrix: (Units=GPa)
#
#
# Indices 1 2 3 4 5 6 
#
# 1 71.5972 12.7060 -4.2138 0.0000 0.0000 0.0000
# 2 12.7060 189.0979 26.9554 0.0000 0.0000 0.0000
# 3 -4.2138 26.9554 135.5281 0.0000 0.0000 0.0000
# 4 0.0000 0.0000 0.0000 38.5784 0.0000 0.0000
# 5 0.0000 0.0000 0.0000 0.0000 30.9866 0.0000
# 6 0.0000 0.0000 0.0000 0.0000 0.0000 18.6028
#
#
#
# Elastic Compliance Matrix: (Units=1/GPa)
#
#
# Indices 1 2 3 4 5 6 
#
# 1 0.014191 -0.001046 0.000649 0.000000 0.000000 0.000000
# 2 -0.001046 0.005520 -0.001130 0.000000 0.000000 0.000000
# 3 0.000649 -0.001130 0.007624 0.000000 0.000000 0.000000
# 4 0.000000 0.000000 0.000000 0.025921 0.000000 0.000000
# 5 0.000000 0.000000 0.000000 0.000000 0.032272 0.000000
# 6 0.000000 0.000000 0.000000 0.000000 0.000000 0.053755
#
#
# Mechanical properties :
#
#
# Convention : Reuss Voigt Hill
#
# Bulk Modulus (GPa) = 41.18645 51.90204 46.54425
# Shear Modulus (GPa) = 33.23801 41.68527 37.46164
#
# Velocity S-wave (km/s) = 3.65948 4.09821 3.88504
# Velocity P-wave (km/s) = 5.86942 6.58068 6.23520
#
# Compressibility (1/GPa) = 0.02427983
#
# Stress axis : x y z
#
# Youngs Moduli (GPa) = 70.46779 181.16987 131.17254
#
# Poissons Ratio (x) = 0.18952 -0.08517
# Poissons Ratio (y) = 0.07371 0.14827
# Poissons Ratio (z) = -0.04575 0.20478
#
# Static dielectric constant tensor:
#      x y z
#    x 2.196280 0.000000 0.000000 
#    y 0.000000 2.090840 0.000000 
#    z 0.000000 0.000000 1.894450 
# 
# From -- ./inp_files/42377.got.cif
#   From: 2010.05.17/outbox.cif.g08.bks.cpg/sg66_22_cif.got.tgz:42377.got - 2010.06.03 17:51:23.
