data_PCOD9497746
_publ_section_title
;
Structure prediction by ZEFSAII (Michael W. Deem and Ramdas Pophale) SiO2 
 PCOD9497746
Probable space group: C C C M
;
_chemical_formula_sum "Si O2"
_cell_formula_units_Z 96
_cell_length_a 23.947030
_cell_length_b 11.114366
_cell_length_c 14.098492
_cell_angle_alpha 90.000000
_cell_angle_beta 90.000000
_cell_angle_gamma 90.000000
_cell_volume 3752.399027
_symmetry_space_group_name_H-M "C C C M"
_symmetry_group_IT_number 66
_symmetry_cell_setting 'orthorhombic'
loop_
_space_group_symop_operation_xyz
x,y,z
-x,-y,z
x,-y,1/2-z
-x,y,1/2-z
-x,-y,-z
x,y,-z
-x,y,1/2+z
x,-y,1/2+z
1/2+x,1/2+y,z
1/2-x,1/2-y,z
1/2+x,1/2-y,1/2-z
1/2-x,1/2+y,1/2-z
1/2-x,1/2-y,-z
1/2+x,1/2+y,-z
1/2-x,1/2+y,1/2+z
1/2+x,1/2-y,1/2+z
loop_
_atom_site_type_symbol
_atom_site_label
_atom_site_fract_x
_atom_site_fract_y
_atom_site_fract_z
Si Si1 0.165632 0.835267 0.610809
Si Si2 0.563723 0.489441 0.362774
Si Si3 0.368358 0.270595 0.392682
Si Si4 0.558138 0.945740 0.614151
Si Si5 0.229535 0.925054 0.116322
Si Si6 0.169629 0.571496 0.614394
O O1 0.180613 0.830881 0.500000
O O2 0.099938 0.870155 0.615662
O O3 0.181462 0.705339 0.650588
O O4 0.198271 0.951568 0.647343
O O5 0.500000 0.500000 0.395964
O O6 0.562826 0.500000 0.250000
O O7 0.598648 0.603284 0.398898
O O8 0.356628 0.225410 0.500000
O O9 0.412443 0.176770 0.348736
O O10 0.308583 0.313408 0.351453
O O11 0.551238 0.927471 0.500000
O O12 0.500000 0.000000 0.648165
O O13 0.605569 0.043741 0.632239
O O14 0.292429 0.958601 0.145218
O O15 0.227939 0.916191 0.000000
O O16 0.176704 0.575834 0.500000
#
# Coordination Sequence:
#
# PCOD9497746 Si02
#       6
#    16  16  16  16  16  16
#     4   9  17  29  49  78 102 126 165 212 260 309
#     4  10  21  34  49  72  98 133 172 209 259 311
#     4   9  18  32  51  75 103 132 170 217 258 304
#     4   9  18  29  42  70 108 140 168 203 250 304
#     4   8  14  26  44  73 104 126 160 207 256 302
#     4   9  16  26  45  74 106 134 161 203 257 309
#
# _framework density 25.583632000000001
#
# number of rings (size 3 to 8) (size 9 to 14) (size 15 to 20)
#    0.000    3.000    0.000    2.000    2.333    4.000 
#    0.000    3.333    0.000    1.000   34.667    0.000 
#    0.000    0.000    0.000    0.000    0.000    0.000 
#
# Total GULP energy -268090.234795 kJ/mol
# GULP energy per Si atom -5585.213225 kJ/mol
# Density = 2.552540 g / cm^3
# Si number density = 25.583632 Si / 1000 Ang^3
#
#
#
# Elastic Constant Matrix: (Units=GPa)
#
#
# Indices 1 2 3 4 5 6 
#
# 1 211.1909 67.3948 2.9472 0.0000 0.0000 0.0000
# 2 67.3948 166.1140 19.7751 0.0000 0.0000 0.0000
# 3 2.9472 19.7751 98.9164 0.0000 0.0000 0.0000
# 4 0.0000 0.0000 0.0000 8.1465 0.0000 0.0000
# 5 0.0000 0.0000 0.0000 0.0000 93.2579 0.0000
# 6 0.0000 0.0000 0.0000 0.0000 0.0000 35.8374
#
#
#
# Elastic Compliance Matrix: (Units=1/GPa)
#
#
# Indices 1 2 3 4 5 6 
#
# 1 0.005447 -0.002244 0.000286 0.000000 0.000000 0.000000
# 2 -0.002244 0.007091 -0.001351 0.000000 0.000000 0.000000
# 3 0.000286 -0.001351 0.010371 0.000000 0.000000 0.000000
# 4 0.000000 0.000000 0.000000 0.122753 0.000000 0.000000
# 5 0.000000 0.000000 0.000000 0.000000 0.010723 0.000000
# 6 0.000000 0.000000 0.000000 0.000000 0.000000 0.027904
#
#
# Mechanical properties :
#
#
# Convention : Reuss Voigt Hill
#
# Bulk Modulus (GPa) = 61.37841 72.93951 67.15896
# Shear Modulus (GPa) = 25.46646 53.18863 39.32754
#
# Velocity S-wave (km/s) = 3.15845 4.56456 3.92499
# Velocity P-wave (km/s) = 6.11101 7.50683 6.84459
#
# Compressibility (1/GPa) = 0.01629237
#
# Stress axis : x y z
#
# Youngs Moduli (GPa) = 183.58108 141.01936 96.42215
#
# Poissons Ratio (x) = 0.31646 -0.02761
# Poissons Ratio (y) = 0.41197 0.13025
# Poissons Ratio (z) = -0.05257 0.19049
#
# Static dielectric constant tensor:
#      x y z
#    x 2.033130 0.000000 0.000000 
#    y 0.000000 1.990080 0.000000 
#    z 0.000000 0.000000 1.978400 
# 
# From -- ./inp_files/48803.got.cif
#   From: 2010.05.17/outbox.cif.g08.bks.cpg/sg66_25_cif.got.tgz:48803.got - 2010.06.03 17:51:23.
