data_PCOD9497923
_publ_section_title
;
Structure prediction by ZEFSAII (Michael W. Deem and Ramdas Pophale) SiO2 
 PCOD9497923
Probable space group: C C C M
;
_chemical_formula_sum "Si O2"
_cell_formula_units_Z 64
_cell_length_a 29.195151
_cell_length_b 11.606354
_cell_length_c 8.267662
_cell_angle_alpha 90.000000
_cell_angle_beta 90.000000
_cell_angle_gamma 90.000000
_cell_volume 2801.491131
_symmetry_space_group_name_H-M "C C C M"
_symmetry_group_IT_number 66
_symmetry_cell_setting 'orthorhombic'
loop_
_space_group_symop_operation_xyz
x,y,z
-x,-y,z
x,-y,1/2-z
-x,y,1/2-z
-x,-y,-z
x,y,-z
-x,y,1/2+z
x,-y,1/2+z
1/2+x,1/2+y,z
1/2-x,1/2-y,z
1/2+x,1/2-y,1/2-z
1/2-x,1/2+y,1/2-z
1/2-x,1/2-y,-z
1/2+x,1/2+y,-z
1/2-x,1/2+y,1/2+z
1/2+x,1/2-y,1/2+z
loop_
_atom_site_type_symbol
_atom_site_label
_atom_site_fract_x
_atom_site_fract_y
_atom_site_fract_z
Si Si1 0.709224 0.618223 0.814788
Si Si2 0.447283 0.626031 0.692578
Si Si3 0.410287 0.122915 0.305874
Si Si4 0.807419 0.354046 0.814426
O O1 0.689967 0.500000 0.750000
O O2 0.764576 0.613466 0.797475
O O3 0.693928 0.716395 0.693474
O O4 0.697030 0.642294 0.000000
O O5 0.428094 0.500000 0.750000
O O6 0.500000 0.626573 0.750000
O O7 0.444598 0.625477 0.500000
O O8 0.427870 0.750877 0.750195
O O9 0.411066 0.123595 0.500000
O O10 0.357280 0.116208 0.250285
O O11 0.432257 0.000000 0.250000
O O12 0.800741 0.392208 0.000000
#
# Coordination Sequence:
#
# PCOD9497923 Si02
#       4
#    16  16  16  16
#     4  11  21  34  54  78 109 150 199 250 302 359
#     4  11  23  43  70  97 128 163 202 248 301 363
#     4  11  24  41  63  93 127 164 206 253 307 366
#     4  10  21  37  56  80 113 151 196 248 302 359
#
# _framework density 22.844975999999999
#
# number of rings (size 3 to 8) (size 9 to 14) (size 15 to 20)
#    0.000    1.250    0.000    9.000    0.000    7.500 
#    0.000    2.500    0.000    0.000    0.000    0.000 
#    0.000    0.000    0.000    0.000    0.000    0.000 
#
# Total GULP energy -178570.951182 kJ/mol
# GULP energy per Si atom -5580.342224 kJ/mol
# Density = 2.279298 g / cm^3
# Si number density = 22.844976 Si / 1000 Ang^3
#
#
#
# Elastic Constant Matrix: (Units=GPa)
#
#
# Indices 1 2 3 4 5 6 
#
# 1 58.8366 38.3267 7.0194 0.0000 0.0000 0.0000
# 2 38.3267 220.1427 31.6887 0.0000 0.0000 0.0000
# 3 7.0194 31.6887 86.8994 0.0000 0.0000 0.0000
# 4 0.0000 0.0000 0.0000 43.9913 0.0000 0.0000
# 5 0.0000 0.0000 0.0000 0.0000 70.5164 0.0000
# 6 0.0000 0.0000 0.0000 0.0000 0.0000 -149.5638
#
#
#
# Elastic Compliance Matrix: (Units=1/GPa)
#
#
# Indices 1 2 3 4 5 6 
#
# 1 0.019180 -0.003289 -0.000350 0.000000 0.000000 0.000000
# 2 -0.003289 0.005358 -0.001688 0.000000 0.000000 0.000000
# 3 -0.000350 -0.001688 0.012151 0.000000 0.000000 0.000000
# 4 0.000000 0.000000 0.000000 0.022732 0.000000 0.000000
# 5 0.000000 0.000000 0.000000 0.000000 0.014181 0.000000
# 6 0.000000 0.000000 0.000000 0.000000 0.000000 -0.006686
#
#
# Mechanical properties :
#
#
# Convention : Reuss Voigt Hill
#
# Bulk Modulus (GPa) = 38.40877 57.77205 48.09041
# Shear Modulus (GPa) = 57.97130 12.24504 35.10817
#
# Velocity S-wave (km/s) = 5.04292 2.31769 3.92446
# Velocity P-wave (km/s) = 7.12442 5.70139 6.45226
#
# Compressibility (1/GPa) = 0.02603572
#
# Stress axis : x y z
#
# Youngs Moduli (GPa) = 52.13654 186.63263 82.29464
#
# Poissons Ratio (x) = 0.61382 0.02880
# Poissons Ratio (y) = 0.17147 0.13893
# Poissons Ratio (z) = 0.01825 0.31508
#
# Static dielectric constant tensor:
#      x y z
#    x 2.167840 0.000000 0.000000 
#    y 0.000000 2.035440 0.000000 
#    z 0.000000 0.000000 1.777680 
# 
# From -- ./inp_files/11198.got.cif
#   From: 2010.05.17/outbox.cif.g08.bks.cpg/sg66_6_cif.got.tgz:11198.got - 2010.06.03 17:51:23.
