data_PCOD9497916
_publ_section_title
;
Structure prediction by ZEFSAII (Michael W. Deem and Ramdas Pophale) SiO2 
 PCOD9497916
Probable space group: C C C M
;
_chemical_formula_sum "Si O2"
_cell_formula_units_Z 120
_cell_length_a 8.840658
_cell_length_b 26.892474
_cell_length_c 29.166587
_cell_angle_alpha 90.000000
_cell_angle_beta 90.000000
_cell_angle_gamma 90.000000
_cell_volume 6934.273384
_symmetry_space_group_name_H-M "C C C M"
_symmetry_group_IT_number 66
_symmetry_cell_setting 'orthorhombic'
loop_
_space_group_symop_operation_xyz
x,y,z
-x,-y,z
x,-y,1/2-z
-x,y,1/2-z
-x,-y,-z
x,y,-z
-x,y,1/2+z
x,-y,1/2+z
1/2+x,1/2+y,z
1/2-x,1/2-y,z
1/2+x,1/2-y,1/2-z
1/2-x,1/2+y,1/2-z
1/2-x,1/2-y,-z
1/2+x,1/2+y,-z
1/2-x,1/2+y,1/2+z
1/2+x,1/2-y,1/2+z
loop_
_atom_site_type_symbol
_atom_site_label
_atom_site_fract_x
_atom_site_fract_y
_atom_site_fract_z
Si Si1 0.250000 0.750000 0.252083
Si Si2 0.257179 0.696633 0.660043
Si Si3 0.376738 0.905389 0.636166
Si Si4 0.067459 0.165869 0.703495
Si Si5 0.235255 0.409433 0.353833
Si Si6 0.870878 0.929533 0.448274
Si Si7 0.277914 0.455346 0.948527
Si Si8 0.683205 0.007556 0.302620
O O1 0.184324 0.710403 0.289634
O O2 0.142256 0.782715 0.220768
O O3 0.250000 0.750000 0.635335
O O4 0.179067 0.650867 0.636126
O O5 0.427815 0.680068 0.671103
O O6 0.555176 0.904246 0.644256
O O7 0.332134 0.934237 0.589917
O O8 0.295901 0.937571 0.676479
O O9 0.186109 0.129966 0.679520
O O10 0.000000 0.142046 0.750000
O O11 0.301943 0.402444 0.404605
O O12 0.260007 0.465356 0.334100
O O13 0.840514 0.910553 0.500000
O O14 0.052271 0.933761 0.442751
O O15 0.801748 0.985324 0.445964
O O16 0.225074 0.443351 0.000000
O O17 0.500000 0.000000 0.304514
O O18 0.729425 0.000000 0.250000
#
# Coordination Sequence:
#
# PCOD9497916 Si02
#       8
#     8  16  16  16  16  16  16  16
#     4   8  20  36  58  74 102 140 192 242 276 318
#     4   9  21  36  54  76 106 141 182 235 280 321
#     4  11  21  35  56  80 113 151 189 232 280 332
#     4  10  21  37  55  79 113 142 194 234 279 331
#     4  11  22  34  56  83 113 151 188 227 281 334
#     4   9  18  35  56  82 113 149 187 233 280 334
#     4   9  18  34  58  81 111 149 187 231 285 338
#     4   9  20  34  45  71 112 152 185 216 263 329
#
# _framework density 17.305346
#
# number of rings (size 3 to 8) (size 9 to 14) (size 15 to 20)
#    0.400    2.000    1.333    1.600    5.600    0.533 
#    0.000    1.333    0.000    0.400    0.000    0.467 
#    0.000    0.000    0.000    0.000    0.000    0.000 
#
# Total GULP energy -334200.328877 kJ/mol
# GULP energy per Si atom -5570.005481 kJ/mol
# Density = 1.726596 g / cm^3
# Si number density = 17.305346 Si / 1000 Ang^3
#
#
#
# Elastic Constant Matrix: (Units=GPa)
#
#
# Indices 1 2 3 4 5 6 
#
# 1 54.7800 29.9393 38.0800 0.0000 0.0000 0.0000
# 2 29.9393 66.3554 21.1786 0.0000 0.0000 0.0000
# 3 38.0800 21.1786 90.7122 0.0000 0.0000 0.0000
# 4 0.0000 0.0000 0.0000 12.8780 0.0000 0.0000
# 5 0.0000 0.0000 0.0000 0.0000 23.9519 0.0000
# 6 0.0000 0.0000 0.0000 0.0000 0.0000 20.0089
#
#
#
# Elastic Compliance Matrix: (Units=1/GPa)
#
#
# Indices 1 2 3 4 5 6 
#
# 1 0.031666 -0.010854 -0.010759 0.000000 0.000000 0.000000
# 2 -0.010854 0.020004 -0.000114 0.000000 0.000000 0.000000
# 3 -0.010759 -0.000114 0.015567 0.000000 0.000000 0.000000
# 4 0.000000 0.000000 0.000000 0.077652 0.000000 0.000000
# 5 0.000000 0.000000 0.000000 0.000000 0.041750 0.000000
# 6 0.000000 0.000000 0.000000 0.000000 0.000000 0.049978
#
#
# Mechanical properties :
#
#
# Convention : Reuss Voigt Hill
#
# Bulk Modulus (GPa) = 42.04611 43.36036 42.70324
# Shear Modulus (GPa) = 17.36129 19.54443 18.45286
#
# Velocity S-wave (km/s) = 3.17082 3.36428 3.26898
# Velocity P-wave (km/s) = 6.14450 6.34048 6.24325
#
# Compressibility (1/GPa) = 0.02378341
#
# Stress axis : x y z
#
# Youngs Moduli (GPa) = 31.57994 49.99039 64.23850
#
# Poissons Ratio (x) = 0.54257 0.69114
# Poissons Ratio (y) = 0.34275 0.00733
# Poissons Ratio (z) = 0.33977 0.00571
#
# Static dielectric constant tensor:
#      x y z
#    x 1.603420 0.000000 0.000000 
#    y 0.000000 1.587130 0.000000 
#    z 0.000000 0.000000 1.599580 
# 
# From -- ./inp_files/62961.got.cif
#   From: 2010.05.17/outbox.cif.g08.bks.cpg/sg66_32_cif.got.tgz:62961.got - 2010.06.03 17:51:23.
