data_PCOD9497572
_publ_section_title
;
Structure prediction by ZEFSAII (Michael W. Deem and Ramdas Pophale) SiO2 
 PCOD9497572
Probable space group: C C C M
;
_chemical_formula_sum "Si O2"
_cell_formula_units_Z 92
_cell_length_a 13.689483
_cell_length_b 17.597708
_cell_length_c 19.548029
_cell_angle_alpha 90.000000
_cell_angle_beta 90.000000
_cell_angle_gamma 90.000000
_cell_volume 4709.189083
_symmetry_space_group_name_H-M "C C C M"
_symmetry_group_IT_number 66
_symmetry_cell_setting 'orthorhombic'
loop_
_space_group_symop_operation_xyz
x,y,z
-x,-y,z
x,-y,1/2-z
-x,y,1/2-z
-x,-y,-z
x,y,-z
-x,y,1/2+z
x,-y,1/2+z
1/2+x,1/2+y,z
1/2-x,1/2-y,z
1/2+x,1/2-y,1/2-z
1/2-x,1/2+y,1/2-z
1/2-x,1/2-y,-z
1/2+x,1/2+y,-z
1/2-x,1/2+y,1/2+z
1/2+x,1/2-y,1/2+z
loop_
_atom_site_type_symbol
_atom_site_label
_atom_site_fract_x
_atom_site_fract_y
_atom_site_fract_z
Si Si1 0.955319 0.743295 0.136001
Si Si2 0.303903 0.832021 0.725070
Si Si3 0.860521 0.090341 0.644106
Si Si4 0.500000 0.500000 0.250000
Si Si5 0.773515 0.049701 0.500000
Si Si6 0.885477 0.585978 0.500000
Si Si7 0.409793 0.849184 0.500000
Si Si8 0.165549 0.691994 0.126712
O O1 0.907707 0.688952 0.193103
O O2 0.911669 0.827456 0.135032
O O3 0.071055 0.742770 0.144046
O O4 0.928047 0.702538 0.065562
O O5 0.250000 0.750000 0.722728
O O6 0.243354 0.891050 0.679989
O O7 0.307275 0.852892 0.804383
O O8 0.837806 0.052597 0.569909
O O9 0.928973 0.046039 0.698032
O O10 0.701232 0.122376 0.500000
O O11 0.691910 0.982937 0.500000
O O12 0.860021 0.635184 0.433292
O O13 0.005258 0.585292 0.500000
O O14 0.250000 0.750000 0.106628
#
# Coordination Sequence:
#
# PCOD9497572 Si02
#       8
#    16  16  16   4   8   8   8  16
#     4  10  20  38  66 100 125 158 226 285 327 368
#     4   9  19  35  63  94 117 161 212 277 328 364
#     4  11  26  42  68  93 132 175 215 269 321 400
#     4  12  32  46  60  96 146 182 206 256 340 406
#     4  12  24  44  66  91 131 177 220 260 331 415
#     4  10  24  38  59  91 135 180 215 262 324 400
#     4  10  20  41  67  99 129 161 219 287 332 366
#     4  10  21  36  62  92 131 171 216 273 327 384
#
# _framework density 19.536270999999999
#
# number of rings (size 3 to 8) (size 9 to 14) (size 15 to 20)
#    0.000    1.739    1.739    1.565    9.739    1.043 
#    0.000    0.000    0.000    0.000    0.000    0.000 
#    0.000    0.000    0.000    0.000    0.000    0.000 
#
# Total GULP energy -256567.368928 kJ/mol
# GULP energy per Si atom -5577.551498 kJ/mol
# Density = 1.949181 g / cm^3
# Si number density = 19.536271 Si / 1000 Ang^3
#
#
#
# Elastic Constant Matrix: (Units=GPa)
#
#
# Indices 1 2 3 4 5 6 
#
# 1 108.8341 29.0486 20.7420 0.0000 0.0000 0.0000
# 2 29.0486 62.1635 33.5097 0.0000 0.0000 0.0000
# 3 20.7420 33.5097 132.6409 0.0000 0.0000 0.0000
# 4 0.0000 0.0000 0.0000 16.0295 0.0000 0.0000
# 5 0.0000 0.0000 0.0000 0.0000 35.9667 0.0000
# 6 0.0000 0.0000 0.0000 0.0000 0.0000 18.8308
#
#
#
# Elastic Compliance Matrix: (Units=1/GPa)
#
#
# Indices 1 2 3 4 5 6 
#
# 1 0.010523 -0.004665 -0.000467 0.000000 0.000000 0.000000
# 2 -0.004665 0.020691 -0.004498 0.000000 0.000000 0.000000
# 3 -0.000467 -0.004498 0.008748 0.000000 0.000000 0.000000
# 4 0.000000 0.000000 0.000000 0.062385 0.000000 0.000000
# 5 0.000000 0.000000 0.000000 0.000000 0.027804 0.000000
# 6 0.000000 0.000000 0.000000 0.000000 0.000000 0.053105
#
#
# Mechanical properties :
#
#
# Convention : Reuss Voigt Hill
#
# Bulk Modulus (GPa) = 48.30416 52.24880 50.27648
# Shear Modulus (GPa) = 23.87592 28.85461 26.36526
#
# Velocity S-wave (km/s) = 3.49969 3.84731 3.67761
# Velocity P-wave (km/s) = 6.41167 6.82190 6.61996
#
# Compressibility (1/GPa) = 0.02070215
#
# Stress axis : x y z
#
# Youngs Moduli (GPa) = 95.03442 48.32951 114.30600
#
# Poissons Ratio (x) = 0.22548 0.05336
# Poissons Ratio (y) = 0.44338 0.51412
# Poissons Ratio (z) = 0.04436 0.21738
#
# Static dielectric constant tensor:
#      x y z
#    x 1.702280 0.000000 0.000000 
#    y 0.000000 1.661400 0.000000 
#    z 0.000000 0.000000 1.721500 
# 
# From -- ./inp_files/48621.got.cif
#   From: 2010.05.17/outbox.cif.g08.bks.cpg/sg66_25_cif.got.tgz:48621.got - 2010.06.03 17:51:23.
