data_PCOD9497079
_publ_section_title
;
Structure prediction by ZEFSAII (Michael W. Deem and Ramdas Pophale) SiO2 
 PCOD9497079
Probable space group: C C C M
;
_chemical_formula_sum "Si O2"
_cell_formula_units_Z 64
_cell_length_a 17.526254
_cell_length_b 11.917822
_cell_length_c 13.852282
_cell_angle_alpha 90.000000
_cell_angle_beta 90.000000
_cell_angle_gamma 90.000000
_cell_volume 2893.392293
_symmetry_space_group_name_H-M "C C C M"
_symmetry_group_IT_number 66
_symmetry_cell_setting 'orthorhombic'
loop_
_space_group_symop_operation_xyz
x,y,z
-x,-y,z
x,-y,1/2-z
-x,y,1/2-z
-x,-y,-z
x,y,-z
-x,y,1/2+z
x,-y,1/2+z
1/2+x,1/2+y,z
1/2-x,1/2-y,z
1/2+x,1/2-y,1/2-z
1/2-x,1/2+y,1/2-z
1/2-x,1/2-y,-z
1/2+x,1/2+y,-z
1/2-x,1/2+y,1/2+z
1/2+x,1/2-y,1/2+z
loop_
_atom_site_type_symbol
_atom_site_label
_atom_site_fract_x
_atom_site_fract_y
_atom_site_fract_z
Si Si1 0.413396 0.988463 0.364685
Si Si2 0.516713 0.624714 0.863719
Si Si3 0.161989 0.747052 0.666918
Si Si4 0.630220 0.232760 0.896133
O O1 0.373722 0.868682 0.374150
O O2 0.500000 0.000000 0.399954
O O3 0.418113 0.000000 0.250000
O O4 0.368943 0.097973 0.398751
O O5 0.500000 0.500000 0.899769
O O6 0.500000 0.622224 0.750000
O O7 0.604545 0.659533 0.874524
O O8 0.456242 0.718149 0.897508
O O9 0.250000 0.750000 0.639461
O O10 0.158755 0.758565 0.786026
O O11 0.663916 0.273826 0.000000
#
# Coordination Sequence:
#
# PCOD9497079 Si02
#       4
#    16  16  16  16
#     4   9  16  33  58  83 110 148 198 236 273 338
#     4   9  18  36  58  83 111 154 205 231 271 345
#     4  10  20  37  61  86 115 147 195 246 286 334
#     4  10  20  35  58  86 118 153 191 237 292 348
#
# _framework density 22.119367
#
# number of rings (size 3 to 8) (size 9 to 14) (size 15 to 20)
#    0.000    2.500    2.500    0.000    0.000    1.500 
#   27.000    0.000    0.000    3.000    0.000    0.000 
#    0.000    0.000    0.000    0.000    0.000    0.000 
#
# Total GULP energy -178142.068231 kJ/mol
# GULP energy per Si atom -5566.939632 kJ/mol
# Density = 2.206902 g / cm^3
# Si number density = 22.119367 Si / 1000 Ang^3
#
#
#
# Elastic Constant Matrix: (Units=GPa)
#
#
# Indices 1 2 3 4 5 6 
#
# 1 182.7880 70.6433 4.0772 0.0000 0.0000 0.0000
# 2 70.6433 131.8680 16.6028 0.0000 0.0000 0.0000
# 3 4.0772 16.6028 121.7967 0.0000 0.0000 0.0000
# 4 0.0000 0.0000 0.0000 -34.0414 0.0000 0.0000
# 5 0.0000 0.0000 0.0000 0.0000 19.3133 0.0000
# 6 0.0000 0.0000 0.0000 0.0000 0.0000 16.2020
#
#
#
# Elastic Compliance Matrix: (Units=1/GPa)
#
#
# Indices 1 2 3 4 5 6 
#
# 1 0.006908 -0.003736 0.000278 0.000000 0.000000 0.000000
# 2 -0.003736 0.009736 -0.001202 0.000000 0.000000 0.000000
# 3 0.000278 -0.001202 0.008365 0.000000 0.000000 0.000000
# 4 0.000000 0.000000 0.000000 -0.029376 0.000000 0.000000
# 5 0.000000 0.000000 0.000000 0.000000 0.051778 0.000000
# 6 0.000000 0.000000 0.000000 0.000000 0.000000 0.061721
#
#
# Mechanical properties :
#
#
# Convention : Reuss Voigt Hill
#
# Bulk Modulus (GPa) = 63.73738 68.78885 66.26311
# Shear Modulus (GPa) = 40.42621 23.30339 31.86480
#
# Velocity S-wave (km/s) = 4.27973 3.24933 3.79962
# Velocity P-wave (km/s) = 7.30063 6.72636 7.01937
#
# Compressibility (1/GPa) = 0.01568938
#
# Stress axis : x y z
#
# Youngs Moduli (GPa) = 144.74966 102.71059 119.54627
#
# Poissons Ratio (x) = 0.38372 -0.03323
# Poissons Ratio (y) = 0.54078 0.14371
# Poissons Ratio (z) = -0.04024 0.12347
#
# Static dielectric constant tensor:
#      x y z
#    x 1.775330 0.000000 0.000000 
#    y 0.000000 1.802120 0.000000 
#    z 0.000000 0.000000 1.795670 
# 
# From -- ./inp_files/25764.got.cif
#   From: 2010.05.17/outbox.cif.g08.bks.cpg/sg66_13_cif.got.tgz:25764.got - 2010.06.03 17:51:23.
