data_PCOD9497501
_publ_section_title
;
Structure prediction by ZEFSAII (Michael W. Deem and Ramdas Pophale) SiO2 
 PCOD9497501
Probable space group: C C C M
;
_chemical_formula_sum "Si O2"
_cell_formula_units_Z 64
_cell_length_a 11.130312
_cell_length_b 13.749301
_cell_length_c 19.495572
_cell_angle_alpha 90.000000
_cell_angle_beta 90.000000
_cell_angle_gamma 90.000000
_cell_volume 2983.485559
_symmetry_space_group_name_H-M "C C C M"
_symmetry_group_IT_number 66
_symmetry_cell_setting 'orthorhombic'
loop_
_space_group_symop_operation_xyz
x,y,z
-x,-y,z
x,-y,1/2-z
-x,y,1/2-z
-x,-y,-z
x,y,-z
-x,y,1/2+z
x,-y,1/2+z
1/2+x,1/2+y,z
1/2-x,1/2-y,z
1/2+x,1/2-y,1/2-z
1/2-x,1/2+y,1/2-z
1/2-x,1/2-y,-z
1/2+x,1/2+y,-z
1/2-x,1/2+y,1/2+z
1/2+x,1/2-y,1/2+z
loop_
_atom_site_type_symbol
_atom_site_label
_atom_site_fract_x
_atom_site_fract_y
_atom_site_fract_z
Si Si1 0.863535 0.461688 0.076569
Si Si2 0.879771 0.143232 0.276749
Si Si3 0.816598 0.854216 0.925749
Si Si4 0.629113 0.862220 0.278790
O O1 0.776083 0.555716 0.081202
O O2 0.851885 0.391251 0.142042
O O3 0.000000 0.500000 0.078516
O O4 0.843818 0.418179 0.000000
O O5 0.895539 0.150502 0.358184
O O6 0.746854 0.102323 0.262464
O O7 0.875348 0.247235 0.237794
O O8 0.000000 0.095597 0.250000
O O9 0.750000 0.750000 0.925970
O O10 0.877812 0.864708 0.000000
O O11 0.500000 0.897599 0.250000
#
# Coordination Sequence:
#
# PCOD9497501 Si02
#       4
#    16  16  16  16
#     4  10  22  37  60  92 119 152 206 262 306 356
#     4  10  21  38  57  90 123 159 205 243 304 375
#     4  10  20  38  59  83 120 164 203 245 307 378
#     4  10  20  38  59  88 122 157 197 256 311 356
#
# _framework density 21.451419000000001
#
# number of rings (size 3 to 8) (size 9 to 14) (size 15 to 20)
#    0.000    2.000    2.500    1.500    3.500    3.500 
#    0.000    6.250    0.000    3.000    0.000    0.000 
#    0.000    0.000    0.000    0.000    0.000    0.000 
#
# Total GULP energy -178343.319576 kJ/mol
# GULP energy per Si atom -5573.228737 kJ/mol
# Density = 2.140259 g / cm^3
# Si number density = 21.451419 Si / 1000 Ang^3
#
#
#
# Elastic Constant Matrix: (Units=GPa)
#
#
# Indices 1 2 3 4 5 6 
#
# 1 115.8165 6.5106 44.0481 0.0000 0.0000 0.0000
# 2 6.5106 115.5419 51.1330 0.0000 0.0000 0.0000
# 3 44.0481 51.1330 255.3907 0.0000 0.0000 0.0000
# 4 0.0000 0.0000 0.0000 81.8580 0.0000 0.0000
# 5 0.0000 0.0000 0.0000 0.0000 146.4325 0.0000
# 6 0.0000 0.0000 0.0000 0.0000 0.0000 -30.1189
#
#
#
# Elastic Compliance Matrix: (Units=1/GPa)
#
#
# Indices 1 2 3 4 5 6 
#
# 1 0.009245 0.000203 -0.001635 0.000000 0.000000 0.000000
# 2 0.000203 0.009501 -0.001937 0.000000 0.000000 0.000000
# 3 -0.001635 -0.001937 0.004585 0.000000 0.000000 0.000000
# 4 0.000000 0.000000 0.000000 0.012216 0.000000 0.000000
# 5 0.000000 0.000000 0.000000 0.000000 0.006829 0.000000
# 6 0.000000 0.000000 0.000000 0.000000 0.000000 -0.033202
#
#
# Mechanical properties :
#
#
# Convention : Reuss Voigt Hill
#
# Bulk Modulus (GPa) = 60.27043 76.68141 68.47592
# Shear Modulus (GPa) = 233.16289 65.30483 149.23386
#
# Velocity S-wave (km/s) = 10.43693 5.52351 8.34981
# Velocity P-wave (km/s) = 13.16801 8.74661 11.17809
#
# Compressibility (1/GPa) = 0.01659188
#
# Stress axis : x y z
#
# Youngs Moduli (GPa) = 108.16880 105.25509 218.08256
#
# Poissons Ratio (x) = -0.02133 0.35658
# Poissons Ratio (y) = -0.02192 0.42246
# Poissons Ratio (z) = 0.17686 0.20389
#
# Static dielectric constant tensor:
#      x y z
#    x 1.822170 0.000000 0.000000 
#    y 0.000000 1.835410 0.000000 
#    z 0.000000 0.000000 1.814950 
# 
# From -- ./inp_files/37959.got.cif
#   From: 2010.05.17/outbox.cif.g08.bks.cpg/sg66_19_cif.got.tgz:37959.got - 2010.06.03 17:51:23.
