data_PCOD9497044
_publ_section_title
;
Structure prediction by ZEFSAII (Michael W. Deem and Ramdas Pophale) SiO2 
 PCOD9497044
Probable space group: C C C M
;
_chemical_formula_sum "Si O2"
_cell_formula_units_Z 116
_cell_length_a 22.728753
_cell_length_b 28.196397
_cell_length_c 9.031735
_cell_angle_alpha 90.000000
_cell_angle_beta 90.000000
_cell_angle_gamma 90.000000
_cell_volume 5788.158462
_symmetry_space_group_name_H-M "C C C M"
_symmetry_group_IT_number 66
_symmetry_cell_setting 'orthorhombic'
loop_
_space_group_symop_operation_xyz
x,y,z
-x,-y,z
x,-y,1/2-z
-x,y,1/2-z
-x,-y,-z
x,y,-z
-x,y,1/2+z
x,-y,1/2+z
1/2+x,1/2+y,z
1/2-x,1/2-y,z
1/2+x,1/2-y,1/2-z
1/2-x,1/2+y,1/2-z
1/2-x,1/2-y,-z
1/2+x,1/2+y,-z
1/2-x,1/2+y,1/2+z
1/2+x,1/2-y,1/2+z
loop_
_atom_site_type_symbol
_atom_site_label
_atom_site_fract_x
_atom_site_fract_y
_atom_site_fract_z
Si Si1 0.939894 0.784850 0.176592
Si Si2 0.804623 0.548629 0.173846
Si Si3 0.728865 0.801633 0.321364
Si Si4 0.408352 0.189308 0.325676
Si Si5 0.654509 0.646469 0.678756
Si Si6 0.088786 0.583933 0.165523
Si Si7 0.832028 0.949758 0.178387
Si Si8 0.500000 0.000000 0.750000
O O1 0.934479 0.729726 0.222216
O O2 0.886736 0.812923 0.253879
O O3 0.000000 0.803065 0.250000
O O4 0.939429 0.790502 0.000000
O O5 0.822446 0.500000 0.250000
O O6 0.857086 0.582118 0.222221
O O7 0.737317 0.557149 0.218286
O O8 0.804561 0.543247 0.000000
O O9 0.730966 0.799988 0.500000
O O10 0.750000 0.750000 0.266181
O O11 0.661394 0.812635 0.285998
O O12 0.778568 0.839247 0.277144
O O13 0.412740 0.203900 0.500000
O O14 0.436317 0.136937 0.314830
O O15 0.650521 0.645314 0.500000
O O16 0.637895 0.595976 0.749420
O O17 0.044474 0.539069 0.177110
O O18 0.114508 0.582737 0.000000
O O19 0.849956 0.000000 0.250000
O O20 0.837957 0.950797 0.000000
#
# Coordination Sequence:
#
# PCOD9497044 Si02
#       8
#    16  16  16  16  16  16  16   4
#     4  12  26  44  64  90 123 164 210 258 308 370
#     4  10  20  35  57  82 116 155 199 250 306 367
#     4   9  16  31  59  92 125 158 199 247 309 386
#     4  10  21  40  63  89 119 160 208 258 320 389
#     4  11  21  38  66  96 129 170 208 253 310 373
#     4  11  24  40  59  80 111 154 206 265 327 385
#     4  10  21  37  59  93 130 164 203 249 302 367
#     4  12  26  40  56  86 114 156 218 284 334 380
#
# _framework density 20.040915999999999
#
# number of rings (size 3 to 8) (size 9 to 14) (size 15 to 20)
#    0.000    1.517    2.069    3.517    0.966    3.862 
#    0.000    2.069    0.000    0.414    0.000    2.897 
#    0.000    0.000    0.000    0.000    0.000    0.000 
#
# Total GULP energy -323496.708585 kJ/mol
# GULP energy per Si atom -5577.529458 kJ/mol
# Density = 1.999530 g / cm^3
# Si number density = 20.040916 Si / 1000 Ang^3
#
#
#
# Elastic Constant Matrix: (Units=GPa)
#
#
# Indices 1 2 3 4 5 6 
#
# 1 56.9534 4.5328 12.9952 0.0000 0.0000 0.0000
# 2 4.5328 125.3455 32.9355 0.0000 0.0000 0.0000
# 3 12.9952 32.9355 51.2904 0.0000 0.0000 0.0000
# 4 0.0000 0.0000 0.0000 30.5829 0.0000 0.0000
# 5 0.0000 0.0000 0.0000 0.0000 42.6502 0.0000
# 6 0.0000 0.0000 0.0000 0.0000 0.0000 11.5116
#
#
#
# Elastic Compliance Matrix: (Units=1/GPa)
#
#
# Indices 1 2 3 4 5 6 
#
# 1 0.018684 0.000684 -0.005173 0.000000 0.000000 0.000000
# 2 0.000684 0.009622 -0.006352 0.000000 0.000000 0.000000
# 3 -0.005173 -0.006352 0.024886 0.000000 0.000000 0.000000
# 4 0.000000 0.000000 0.000000 0.032698 0.000000 0.000000
# 5 0.000000 0.000000 0.000000 0.000000 0.023447 0.000000
# 6 0.000000 0.000000 0.000000 0.000000 0.000000 0.086869
#
#
# Mechanical properties :
#
#
# Convention : Reuss Voigt Hill
#
# Bulk Modulus (GPa) = 31.73587 37.16848 34.45218
# Shear Modulus (GPa) = 21.89215 29.15732 25.52474
#
# Velocity S-wave (km/s) = 3.30869 3.81844 3.57267
# Velocity P-wave (km/s) = 5.51965 6.16662 5.85208
#
# Compressibility (1/GPa) = 0.03151009
#
# Stress axis : x y z
#
# Youngs Moduli (GPa) = 53.52139 103.92566 40.18277
#
# Poissons Ratio (x) = -0.07104 0.20786
# Poissons Ratio (y) = -0.03658 0.25524
# Poissons Ratio (z) = 0.27686 0.66014
#
# Static dielectric constant tensor:
#      x y z
#    x 1.738530 0.000000 0.000000 
#    y 0.000000 1.749360 0.000000 
#    z 0.000000 0.000000 1.678820 
# 
# From -- ./inp_files/9439.got.cif
#   From: 2010.05.17/outbox.cif.g08.bks.cpg/sg66_5_cif.got.tgz:9439.got - 2010.06.03 17:51:23.
