data_PCOD9497480
_publ_section_title
;
Structure prediction by ZEFSAII (Michael W. Deem and Ramdas Pophale) SiO2 
 PCOD9497480
Probable space group: C C C M
;
_chemical_formula_sum "Si O2"
_cell_formula_units_Z 52
_cell_length_a 7.110149
_cell_length_b 15.866525
_cell_length_c 18.145232
_cell_angle_alpha 90.000000
_cell_angle_beta 90.000000
_cell_angle_gamma 90.000000
_cell_volume 2047.024533
_symmetry_space_group_name_H-M "C C C M"
_symmetry_group_IT_number 66
_symmetry_cell_setting 'orthorhombic'
loop_
_space_group_symop_operation_xyz
x,y,z
-x,-y,z
x,-y,1/2-z
-x,y,1/2-z
-x,-y,-z
x,y,-z
-x,y,1/2+z
x,-y,1/2+z
1/2+x,1/2+y,z
1/2-x,1/2-y,z
1/2+x,1/2-y,1/2-z
1/2-x,1/2+y,1/2-z
1/2-x,1/2-y,-z
1/2+x,1/2+y,-z
1/2-x,1/2+y,1/2+z
1/2+x,1/2-y,1/2+z
loop_
_atom_site_type_symbol
_atom_site_label
_atom_site_fract_x
_atom_site_fract_y
_atom_site_fract_z
Si Si1 0.556569 0.095673 0.414725
Si Si2 0.090885 0.822258 0.416468
Si Si3 0.000000 0.000000 0.250000
Si Si4 0.243096 0.159665 0.306704
O O1 0.528404 0.129431 0.500000
O O2 0.778875 0.098095 0.398376
O O3 0.435704 0.138197 0.349917
O O4 0.500000 0.000000 0.417377
O O5 0.026608 0.828492 0.500000
O O6 0.250000 0.750000 0.410857
O O7 0.912370 0.815934 0.367048
O O8 0.155160 0.927117 0.224502
O O9 0.250000 0.250000 0.261858
#
# Coordination Sequence:
#
# PCOD9497480 Si02
#       4
#    16  16   4  16
#     4  10  21  39  68 109 145 176 217 280 364 440
#     4  10  20  37  70 112 143 167 216 282 357 449
#     4  12  32  52  64 102 140 186 276 306 322 410
#     4  12  25  48  74  97 138 193 235 296 359 408
#
# _framework density 25.402726000000001
#
# number of rings (size 3 to 8) (size 9 to 14) (size 15 to 20)
#    0.000    1.231    3.077    2.769    0.000    2.462 
#    5.538    7.692    0.000    0.000    0.000    0.000 
#    0.000    0.000    0.000    0.000    0.000    0.000 
#
# Total GULP energy -144992.967300 kJ/mol
# GULP energy per Si atom -5576.652588 kJ/mol
# Density = 2.534491 g / cm^3
# Si number density = 25.402726 Si / 1000 Ang^3
#
#
#
# Elastic Constant Matrix: (Units=GPa)
#
#
# Indices 1 2 3 4 5 6 
#
# 1 65.0616 13.7352 4.7970 0.0000 0.0000 0.0000
# 2 13.7352 169.6162 33.4089 0.0000 0.0000 0.0000
# 3 4.7970 33.4089 77.3712 0.0000 0.0000 0.0000
# 4 0.0000 0.0000 0.0000 31.7123 0.0000 0.0000
# 5 0.0000 0.0000 0.0000 0.0000 49.3193 0.0000
# 6 0.0000 0.0000 0.0000 0.0000 0.0000 41.9756
#
#
#
# Elastic Compliance Matrix: (Units=1/GPa)
#
#
# Indices 1 2 3 4 5 6 
#
# 1 0.015653 -0.001176 -0.000462 0.000000 0.000000 0.000000
# 2 -0.001176 0.006532 -0.002748 0.000000 0.000000 0.000000
# 3 -0.000462 -0.002748 0.014140 0.000000 0.000000 0.000000
# 4 0.000000 0.000000 0.000000 0.031533 0.000000 0.000000
# 5 0.000000 0.000000 0.000000 0.000000 0.020276 0.000000
# 6 0.000000 0.000000 0.000000 0.000000 0.000000 0.023823
#
#
# Mechanical properties :
#
#
# Convention : Reuss Voigt Hill
#
# Bulk Modulus (GPa) = 36.29581 46.21457 41.25519
# Shear Modulus (GPa) = 38.48695 41.94197 40.21446
#
# Velocity S-wave (km/s) = 3.89661 4.06776 3.98311
# Velocity P-wave (km/s) = 5.87911 6.34779 6.11794
#
# Compressibility (1/GPa) = 0.02755139
#
# Stress axis : x y z
#
# Youngs Moduli (GPa) = 63.88752 153.08965 70.72230
#
# Poissons Ratio (x) = 0.18010 0.03271
# Poissons Ratio (y) = 0.07516 0.19432
# Poissons Ratio (z) = 0.02955 0.42063
#
# Static dielectric constant tensor:
#      x y z
#    x 1.986250 0.000000 0.000000 
#    y 0.000000 2.227170 0.000000 
#    z 0.000000 0.000000 2.084890 
# 
# From -- ./inp_files/35958.got.cif
#   From: 2010.05.17/outbox.cif.g08.bks.cpg/sg66_18_cif.got.tgz:35958.got - 2010.06.03 17:51:23.
