data_PCOD9497546
_publ_section_title
;
Structure prediction by ZEFSAII (Michael W. Deem and Ramdas Pophale) SiO2 
 PCOD9497546
Probable space group: C C C M
;
_chemical_formula_sum "Si O2"
_cell_formula_units_Z 112
_cell_length_a 22.355166
_cell_length_b 15.707742
_cell_length_c 14.574056
_cell_angle_alpha 90.000000
_cell_angle_beta 90.000000
_cell_angle_gamma 90.000000
_cell_volume 5117.667812
_symmetry_space_group_name_H-M "C C C M"
_symmetry_group_IT_number 66
_symmetry_cell_setting 'orthorhombic'
loop_
_space_group_symop_operation_xyz
x,y,z
-x,-y,z
x,-y,1/2-z
-x,y,1/2-z
-x,-y,-z
x,y,-z
-x,y,1/2+z
x,-y,1/2+z
1/2+x,1/2+y,z
1/2-x,1/2-y,z
1/2+x,1/2-y,1/2-z
1/2-x,1/2+y,1/2-z
1/2-x,1/2-y,-z
1/2+x,1/2+y,-z
1/2-x,1/2+y,1/2+z
1/2+x,1/2-y,1/2+z
loop_
_atom_site_type_symbol
_atom_site_label
_atom_site_fract_x
_atom_site_fract_y
_atom_site_fract_z
Si Si1 0.999289 0.361833 0.111155
Si Si2 0.339301 0.375703 0.104591
Si Si3 0.719660 0.054797 0.669395
Si Si4 0.432933 0.478994 0.611477
Si Si5 0.418164 0.284154 0.388957
Si Si6 0.682590 0.769335 0.255333
Si Si7 0.593829 0.007028 0.609649
O O1 0.978638 0.267435 0.137401
O O2 0.947011 0.427900 0.139682
O O3 0.060654 0.406152 0.142229
O O4 0.001249 0.361408 0.000000
O O5 0.273020 0.417233 0.103791
O O6 0.386180 0.447522 0.136863
O O7 0.335395 0.298127 0.175846
O O8 0.354672 0.348663 0.000000
O O9 0.689392 0.139239 0.709438
O O10 0.663127 0.002000 0.633518
O O11 0.748975 0.000000 0.750000
O O12 0.500000 0.500000 0.641323
O O13 0.432545 0.478601 0.500000
O O14 0.417894 0.382762 0.639111
O O15 0.412162 0.279305 0.500000
O O16 0.363931 0.238528 0.337399
O O17 0.750000 0.750000 0.288614
O O18 0.590121 0.007784 0.500000
#
# Coordination Sequence:
#
# PCOD9497546 Si02
#       7
#    16  16  16  16  16  16  16
#     4   8  16  32  55  85 119 155 199 252 305 374
#     4  10  23  43  65  87 120 165 210 258 315 377
#     4  11  23  37  58  86 122 158 203 260 310 364
#     4   9  20  39  64  93 120 156 206 257 311 371
#     4  10  20  38  63  89 123 161 200 255 322 377
#     4  10  24  40  59  88 122 159 201 259 306 371
#     4   9  17  33  57  82 114 160 206 248 307 371
#
# _framework density 21.884969000000002
#
# number of rings (size 3 to 8) (size 9 to 14) (size 15 to 20)
#    0.000    2.429    0.000    2.143    4.000    4.571 
#    0.000   11.429    0.000    0.000    0.000    0.000 
#    0.000    0.000    0.000    0.000    0.000    0.000 
#
# Total GULP energy -312695.867357 kJ/mol
# GULP energy per Si atom -5583.854774 kJ/mol
# Density = 2.183516 g / cm^3
# Si number density = 21.884969 Si / 1000 Ang^3
#
#
#
# Elastic Constant Matrix: (Units=GPa)
#
#
# Indices 1 2 3 4 5 6 
#
# 1 79.8246 21.1425 14.5359 0.0000 0.0000 0.0000
# 2 21.1425 96.0550 22.8489 0.0000 0.0000 0.0000
# 3 14.5359 22.8489 73.5129 0.0000 0.0000 0.0000
# 4 0.0000 0.0000 0.0000 5.9470 0.0000 0.0000
# 5 0.0000 0.0000 0.0000 0.0000 555.5922 0.0000
# 6 0.0000 0.0000 0.0000 0.0000 0.0000 34.6603
#
#
#
# Elastic Compliance Matrix: (Units=1/GPa)
#
#
# Indices 1 2 3 4 5 6 
#
# 1 0.013542 -0.002531 -0.001891 0.000000 0.000000 0.000000
# 2 -0.002531 0.011715 -0.003141 0.000000 0.000000 0.000000
# 3 -0.001891 -0.003141 0.014953 0.000000 0.000000 0.000000
# 4 0.000000 0.000000 0.000000 0.168152 0.000000 0.000000
# 5 0.000000 0.000000 0.000000 0.000000 0.001800 0.000000
# 6 0.000000 0.000000 0.000000 0.000000 0.000000 0.028851
#
#
# Mechanical properties :
#
#
# Convention : Reuss Voigt Hill
#
# Bulk Modulus (GPa) = 39.86480 40.71636 40.29058
# Shear Modulus (GPa) = 19.04758 131.96423 75.50590
#
# Velocity S-wave (km/s) = 2.95337 7.77367 5.88015
# Velocity P-wave (km/s) = 5.46672 9.96084 8.03441
#
# Compressibility (1/GPa) = 0.02508478
#
# Stress axis : x y z
#
# Youngs Moduli (GPa) = 73.84338 85.36157 66.87543
#
# Poissons Ratio (x) = 0.21604 0.12647
# Poissons Ratio (y) = 0.18689 0.21004
# Poissons Ratio (z) = 0.13964 0.26810
#
# Static dielectric constant tensor:
#      x y z
#    x 1.796970 0.000000 0.000000 
#    y 0.000000 1.802390 0.000000 
#    z 0.000000 0.000000 1.795900 
# 
# From -- ./inp_files/32507.got.cif
#   From: 2010.05.17/outbox.cif.g08.bks.cpg/sg66_17_cif.got.tgz:32507.got - 2010.06.03 17:51:23.
