data_PCOD9497644
_publ_section_title
;
Structure prediction by ZEFSAII (Michael W. Deem and Ramdas Pophale) SiO2 
 PCOD9497644
Probable space group: C C C M
;
_chemical_formula_sum "Si O2"
_cell_formula_units_Z 60
_cell_length_a 26.274208
_cell_length_b 5.010611
_cell_length_c 20.493894
_cell_angle_alpha 90.000000
_cell_angle_beta 90.000000
_cell_angle_gamma 90.000000
_cell_volume 2698.017776
_symmetry_space_group_name_H-M "C C C M"
_symmetry_group_IT_number 66
_symmetry_cell_setting 'orthorhombic'
loop_
_space_group_symop_operation_xyz
x,y,z
-x,-y,z
x,-y,1/2-z
-x,y,1/2-z
-x,-y,-z
x,y,-z
-x,y,1/2+z
x,-y,1/2+z
1/2+x,1/2+y,z
1/2-x,1/2-y,z
1/2+x,1/2-y,1/2-z
1/2-x,1/2+y,1/2-z
1/2-x,1/2-y,-z
1/2+x,1/2+y,-z
1/2-x,1/2+y,1/2+z
1/2+x,1/2-y,1/2+z
loop_
_atom_site_type_symbol
_atom_site_label
_atom_site_fract_x
_atom_site_fract_y
_atom_site_fract_z
Si Si1 0.000000 0.500000 0.750000
Si Si2 0.429486 0.159293 0.139755
Si Si3 0.356482 0.656323 0.139053
Si Si4 0.718657 0.500000 0.250000
Si Si5 0.860192 0.276924 0.000000
Si Si6 0.930455 0.776714 0.000000
O O1 0.966441 0.676203 0.799083
O O2 0.384996 0.375255 0.141535
O O3 0.455978 0.209966 0.069297
O O4 0.401015 0.876108 0.145107
O O5 0.315794 0.646077 0.195945
O O6 0.333006 0.710866 0.067635
O O7 0.750000 0.250000 0.279423
O O8 0.881328 0.577735 0.000000
O O9 0.909827 0.079091 0.000000
#
# Coordination Sequence:
#
# PCOD9497644 Si02
#       6
#     4  16  16   8   8   8
#     4  12  24  34  52  86 112 144 188 220 260 312
#     4  10  21  35  57  79 109 144 181 223 264 315
#     4  10  20  40  58  78 108 144 178 219 273 317
#     4  12  24  37  56  83 112 141 176 217 268 328
#     4   8  16  32  60  78  96 137 184 215 258 324
#     4   8  16  33  52  77 102 139 180 219 266 307
#
# _framework density 22.238548999999999
#
# number of rings (size 3 to 8) (size 9 to 14) (size 15 to 20)
#    0.000    2.133    0.000    3.200    0.000    2.667 
#    0.000    1.333    0.000    9.600    0.000    0.000 
#    0.000    0.000    0.000    0.000    0.000    0.000 
#
# Total GULP energy -167535.655356 kJ/mol
# GULP energy per Si atom -5584.521845 kJ/mol
# Density = 2.218793 g / cm^3
# Si number density = 22.238549 Si / 1000 Ang^3
#
#
#
# Elastic Constant Matrix: (Units=GPa)
#
#
# Indices 1 2 3 4 5 6 
#
# 1 21.1666 -6.5819 37.8616 0.0000 0.0000 0.0000
# 2 -6.5819 69.9964 3.8017 0.0000 0.0000 0.0000
# 3 37.8616 3.8017 182.9187 0.0000 0.0000 0.0000
# 4 0.0000 0.0000 0.0000 0.8298 0.0000 0.0000
# 5 0.0000 0.0000 0.0000 0.0000 -120.4874 0.0000
# 6 0.0000 0.0000 0.0000 0.0000 0.0000 -20.1229
#
#
#
# Elastic Compliance Matrix: (Units=1/GPa)
#
#
# Indices 1 2 3 4 5 6 
#
# 1 0.079661 0.008396 -0.016663 0.000000 0.000000 0.000000
# 2 0.008396 0.015187 -0.002053 0.000000 0.000000 0.000000
# 3 -0.016663 -0.002053 0.008959 0.000000 0.000000 0.000000
# 4 0.000000 0.000000 0.000000 1.205111 0.000000 0.000000
# 5 0.000000 0.000000 0.000000 0.000000 -0.008300 0.000000
# 6 0.000000 0.000000 0.000000 0.000000 0.000000 -0.049695
#
#
# Mechanical properties :
#
#
# Convention : Reuss Voigt Hill
#
# Bulk Modulus (GPa) = 12.02429 38.24939 25.13684
# Shear Modulus (GPa) = 3.84827 -12.02276 -4.08725
#
# Velocity S-wave (km/s) = 1.31689 -2.32766 -1.35717
# Velocity P-wave (km/s) = 2.78046 3.16432 2.97858
#
# Compressibility (1/GPa) = 0.08316502
#
# Stress axis : x y z
#
# Youngs Moduli (GPa) = 12.55323 65.84389 111.62436
#
# Poissons Ratio (x) = -0.55280 1.86001
# Poissons Ratio (y) = -0.10539 0.22921
# Poissons Ratio (z) = 0.20918 0.13521
#
# Static dielectric constant tensor:
#      x y z
#    x 1.797960 0.000000 0.000000 
#    y 0.000000 1.777210 0.000000 
#    z 0.000000 0.000000 1.905040 
# 
# From -- ./inp_files/45583.got.cif
#   From: 2010.05.17/outbox.cif.g08.bks.cpg/sg66_23_cif.got.tgz:45583.got - 2010.06.03 17:51:23.
