data_PCOD9497140
_publ_section_title
;
Structure prediction by ZEFSAII (Michael W. Deem and Ramdas Pophale) SiO2 
 PCOD9497140
Probable space group: C C C M
;
_chemical_formula_sum "Si O2"
_cell_formula_units_Z 44
_cell_length_a 13.876365
_cell_length_b 8.008415
_cell_length_c 17.694898
_cell_angle_alpha 90.000000
_cell_angle_beta 90.000000
_cell_angle_gamma 90.000000
_cell_volume 1966.393133
_symmetry_space_group_name_H-M "C C C M"
_symmetry_group_IT_number 66
_symmetry_cell_setting 'orthorhombic'
loop_
_space_group_symop_operation_xyz
x,y,z
-x,-y,z
x,-y,1/2-z
-x,y,1/2-z
-x,-y,-z
x,y,-z
-x,y,1/2+z
x,-y,1/2+z
1/2+x,1/2+y,z
1/2-x,1/2-y,z
1/2+x,1/2-y,1/2-z
1/2-x,1/2+y,1/2-z
1/2-x,1/2-y,-z
1/2+x,1/2+y,-z
1/2-x,1/2+y,1/2+z
1/2+x,1/2-y,1/2+z
loop_
_atom_site_type_symbol
_atom_site_label
_atom_site_fract_x
_atom_site_fract_y
_atom_site_fract_z
Si Si1 0.110846 0.172299 0.000000
Si Si2 0.500000 0.500000 0.626033
Si Si3 0.144096 0.270119 0.657541
Si Si4 0.000000 0.500000 0.250000
Si Si5 0.305161 0.042380 0.500000
O O1 0.193739 0.026504 0.000000
O O2 0.144570 0.361734 0.000000
O O3 0.046101 0.140695 0.927227
O O4 0.589605 0.592536 0.663142
O O5 0.250000 0.250000 0.692849
O O6 0.071274 0.391502 0.699317
O O7 0.165541 0.350685 0.574066
#
# Coordination Sequence:
#
# PCOD9497140 Si02
#       5
#     8   8  16   4   8
#     4  10  20  35  69 112 140 173 222 292 358 410
#     4  11  22  39  70 104 136 180 232 288 356 412
#     4  12  26  49  72 103 142 186 237 295 351 424
#     4  12  32  48  68  98 144 196 228 288 360 426
#     4  11  21  43  73 107 140 180 232 299 352 406
#
# _framework density 22.375993000000001
#
# number of rings (size 3 to 8) (size 9 to 14) (size 15 to 20)
#    0.000    0.727    3.636    4.909    0.000    5.818 
#    6.545    0.000    0.000    0.000    0.000    0.000 
#    0.000    0.000    0.000    0.000    0.000    0.000 
#
# Total GULP energy -122891.206752 kJ/mol
# GULP energy per Si atom -5585.963943 kJ/mol
# Density = 2.232506 g / cm^3
# Si number density = 22.375993 Si / 1000 Ang^3
#
#
#
# Elastic Constant Matrix: (Units=GPa)
#
#
# Indices 1 2 3 4 5 6 
#
# 1 199.6978 60.9086 40.4386 0.0000 0.0000 0.0000
# 2 60.9086 115.3847 23.3004 0.0000 0.0000 0.0000
# 3 40.4386 23.3004 64.4598 0.0000 0.0000 0.0000
# 4 0.0000 0.0000 0.0000 -11.4369 0.0000 0.0000
# 5 0.0000 0.0000 0.0000 0.0000 -27.1672 0.0000
# 6 0.0000 0.0000 0.0000 0.0000 0.0000 59.2923
#
#
#
# Elastic Compliance Matrix: (Units=1/GPa)
#
#
# Indices 1 2 3 4 5 6 
#
# 1 0.006481 -0.002805 -0.003052 0.000000 0.000000 0.000000
# 2 -0.002805 0.010563 -0.002059 0.000000 0.000000 0.000000
# 3 -0.003052 -0.002059 0.018172 0.000000 0.000000 0.000000
# 4 0.000000 0.000000 0.000000 -0.087437 0.000000 0.000000
# 5 0.000000 0.000000 0.000000 0.000000 -0.036809 0.000000
# 6 0.000000 0.000000 0.000000 0.000000 0.000000 0.016866
#
#
# Mechanical properties :
#
#
# Convention : Reuss Voigt Hill
#
# Bulk Modulus (GPa) = 51.58508 69.87084 60.72796
# Shear Modulus (GPa) = -100.25886 21.13062 -39.56412
#
# Velocity S-wave (km/s) = -6.70102 3.07635 -4.20950
# Velocity P-wave (km/s) = 6.06365 6.62663 1.89002
#
# Compressibility (1/GPa) = 0.01938545
#
# Stress axis : x y z
#
# Youngs Moduli (GPa) = 154.29484 94.67010 55.02875
#
# Poissons Ratio (x) = 0.26554 0.16795
# Poissons Ratio (y) = 0.43278 0.11328
# Poissons Ratio (z) = 0.47091 0.19489
#
# Static dielectric constant tensor:
#      x y z
#    x 1.728410 0.000000 0.000000 
#    y 0.000000 1.842100 0.000000 
#    z 0.000000 0.000000 1.862200 
# 
# From -- ./inp_files/35685.got.cif
#   From: 2010.05.17/outbox.cif.g08.bks.cpg/sg66_18_cif.got.tgz:35685.got - 2010.06.03 17:51:23.
