data_PCOD9497060
_publ_section_title
;
Structure prediction by ZEFSAII (Michael W. Deem and Ramdas Pophale) SiO2 
 PCOD9497060
Probable space group: C C C M
;
_chemical_formula_sum "Si O2"
_cell_formula_units_Z 88
_cell_length_a 11.727916
_cell_length_b 12.283720
_cell_length_c 32.077808
_cell_angle_alpha 90.000000
_cell_angle_beta 90.000000
_cell_angle_gamma 90.000000
_cell_volume 4621.207173
_symmetry_space_group_name_H-M "C C C M"
_symmetry_group_IT_number 66
_symmetry_cell_setting 'orthorhombic'
loop_
_space_group_symop_operation_xyz
x,y,z
-x,-y,z
x,-y,1/2-z
-x,y,1/2-z
-x,-y,-z
x,y,-z
-x,y,1/2+z
x,-y,1/2+z
1/2+x,1/2+y,z
1/2-x,1/2-y,z
1/2+x,1/2-y,1/2-z
1/2-x,1/2+y,1/2-z
1/2-x,1/2-y,-z
1/2+x,1/2+y,-z
1/2-x,1/2+y,1/2+z
1/2+x,1/2-y,1/2+z
loop_
_atom_site_type_symbol
_atom_site_label
_atom_site_fract_x
_atom_site_fract_y
_atom_site_fract_z
Si Si1 0.028856 0.128054 0.204216
Si Si2 0.625721 0.710167 0.372281
Si Si3 0.444358 0.107980 0.876005
Si Si4 0.879144 0.059146 0.953747
Si Si5 0.750000 0.250000 0.328206
Si Si6 0.303260 0.132912 0.046672
O O1 0.158239 0.168636 0.194199
O O2 0.000000 0.174902 0.250000
O O3 0.944942 0.163345 0.166788
O O4 0.000000 0.000000 0.206418
O O5 0.750000 0.750000 0.359256
O O6 0.548352 0.811741 0.384027
O O7 0.636347 0.633483 0.412992
O O8 0.339752 0.169086 0.852100
O O9 0.393654 0.087386 0.921295
O O10 0.500000 0.000000 0.856076
O O11 0.792300 0.959053 0.953785
O O12 0.871961 0.113606 0.000000
O O13 0.000000 0.000000 0.950387
O O14 0.250000 0.250000 0.059891
O O15 0.348479 0.149922 0.000000
#
# Coordination Sequence:
#
# PCOD9497060 Si02
#       6
#    16  16  16  16   8  16
#     4  10  24  44  70  98 125 174 215 266 331 389
#     4  11  24  39  63  93 127 168 210 272 323 388
#     4  11  23  39  62  93 123 169 213 258 327 377
#     4  10  21  36  58  89 125 169 214 262 319 384
#     4  10  24  44  65  96 134 162 209 272 316 396
#     4  10  20  35  57  86 125 168 214 265 314 376
#
# _framework density 19.042643999999999
#
# number of rings (size 3 to 8) (size 9 to 14) (size 15 to 20)
#    0.000    1.636    0.909    2.727    8.909    2.909 
#    0.000    0.000    0.000    4.909    0.000    0.000 
#    0.000    0.000    0.000    0.000    0.000    0.000 
#
# Total GULP energy -244965.976860 kJ/mol
# GULP energy per Si atom -5567.408565 kJ/mol
# Density = 1.899930 g / cm^3
# Si number density = 19.042644 Si / 1000 Ang^3
#
#
#
# Elastic Constant Matrix: (Units=GPa)
#
#
# Indices 1 2 3 4 5 6 
#
# 1 142.9302 38.2380 46.4661 0.0000 0.0000 0.0000
# 2 38.2380 84.0854 36.6605 0.0000 0.0000 0.0000
# 3 46.4661 36.6605 93.3865 0.0000 0.0000 0.0000
# 4 0.0000 0.0000 0.0000 27.3202 0.0000 0.0000
# 5 0.0000 0.0000 0.0000 0.0000 17.4390 0.0000
# 6 0.0000 0.0000 0.0000 0.0000 0.0000 29.4441
#
#
#
# Elastic Compliance Matrix: (Units=1/GPa)
#
#
# Indices 1 2 3 4 5 6 
#
# 1 0.008766 -0.002515 -0.003374 0.000000 0.000000 0.000000
# 2 -0.002515 0.015070 -0.004665 0.000000 0.000000 0.000000
# 3 -0.003374 -0.004665 0.014218 0.000000 0.000000 0.000000
# 4 0.000000 0.000000 0.000000 0.036603 0.000000 0.000000
# 5 0.000000 0.000000 0.000000 0.000000 0.057343 0.000000
# 6 0.000000 0.000000 0.000000 0.000000 0.000000 0.033963
#
#
# Mechanical properties :
#
#
# Convention : Reuss Voigt Hill
#
# Bulk Modulus (GPa) = 59.00970 62.57015 60.78993
# Shear Modulus (GPa) = 25.94431 28.10984 27.02707
#
# Velocity S-wave (km/s) = 3.69512 3.84624 3.77144
# Velocity P-wave (km/s) = 7.01859 7.25631 7.13844
#
# Compressibility (1/GPa) = 0.01694637
#
# Stress axis : x y z
#
# Youngs Moduli (GPa) = 114.07253 66.35609 70.33164
#
# Poissons Ratio (x) = 0.16690 0.23733
# Poissons Ratio (y) = 0.28693 0.32806
# Poissons Ratio (z) = 0.38493 0.30952
#
# Static dielectric constant tensor:
#      x y z
#    x 1.601950 0.000000 0.000000 
#    y 0.000000 1.720020 0.000000 
#    z 0.000000 0.000000 1.710470 
# 
# From -- ./inp_files/68885.got.cif
#   From: 2010.05.17/outbox.cif.g08.bks.cpg/sg66_35_cif.got.tgz:68885.got - 2010.06.03 17:51:23.
