data_PCOD9497292
_publ_section_title
;
Structure prediction by ZEFSAII (Michael W. Deem and Ramdas Pophale) SiO2 
 PCOD9497292
Probable space group: C C C M
;
_chemical_formula_sum "Si O2"
_cell_formula_units_Z 64
_cell_length_a 8.218996
_cell_length_b 12.917263
_cell_length_c 26.794962
_cell_angle_alpha 90.000000
_cell_angle_beta 90.000000
_cell_angle_gamma 90.000000
_cell_volume 2844.738933
_symmetry_space_group_name_H-M "C C C M"
_symmetry_group_IT_number 66
_symmetry_cell_setting 'orthorhombic'
loop_
_space_group_symop_operation_xyz
x,y,z
-x,-y,z
x,-y,1/2-z
-x,y,1/2-z
-x,-y,-z
x,y,-z
-x,y,1/2+z
x,-y,1/2+z
1/2+x,1/2+y,z
1/2-x,1/2-y,z
1/2+x,1/2-y,1/2-z
1/2-x,1/2+y,1/2-z
1/2-x,1/2-y,-z
1/2+x,1/2+y,-z
1/2-x,1/2+y,1/2+z
1/2+x,1/2-y,1/2+z
loop_
_atom_site_type_symbol
_atom_site_label
_atom_site_fract_x
_atom_site_fract_y
_atom_site_fract_z
Si Si1 0.848220 0.884080 0.096454
Si Si2 0.815063 0.883287 0.442600
Si Si3 0.488083 0.875246 0.872848
Si Si4 0.926895 0.796794 0.801034
O O1 0.661427 0.845723 0.101059
O O2 0.907783 0.879245 0.154191
O O3 0.004582 0.838932 0.067515
O O4 0.829407 0.995382 0.071010
O O5 0.771033 0.869159 0.500000
O O6 0.667139 0.852710 0.406939
O O7 0.477023 0.801569 0.824558
O O8 0.500000 0.000000 0.862654
O O9 0.750000 0.750000 0.790212
O O10 0.000000 0.837369 0.750000
#
# Coordination Sequence:
#
# PCOD9497292 Si02
#       4
#    16  16  16  16
#     4   9  19  36  55  84 118 146 192 242 281 351
#     4  10  20  36  62  85 115 158 190 234 290 343
#     4   9  20  37  57  83 117 149 194 239 284 350
#     4  10  22  38  59  84 113 155 192 245 303 341
#
# _framework density 22.497672000000001
#
# number of rings (size 3 to 8) (size 9 to 14) (size 15 to 20)
#    0.000    2.500    0.000    1.500    3.500    6.000 
#    0.000    6.250    0.000   18.750    0.000    0.000 
#    0.000    0.000    0.000    0.000    0.000    0.000 
#
# Total GULP energy -178401.494903 kJ/mol
# GULP energy per Si atom -5575.046716 kJ/mol
# Density = 2.244647 g / cm^3
# Si number density = 22.497672 Si / 1000 Ang^3
#
#
#
# Elastic Constant Matrix: (Units=GPa)
#
#
# Indices 1 2 3 4 5 6 
#
# 1 101.9297 18.2760 39.7736 0.0000 0.0000 0.0000
# 2 18.2760 89.2322 11.4021 0.0000 0.0000 0.0000
# 3 39.7736 11.4021 125.8054 0.0000 0.0000 0.0000
# 4 0.0000 0.0000 0.0000 110.6827 0.0000 0.0000
# 5 0.0000 0.0000 0.0000 0.0000 31.2721 0.0000
# 6 0.0000 0.0000 0.0000 0.0000 0.0000 41.3875
#
#
#
# Elastic Compliance Matrix: (Units=1/GPa)
#
#
# Indices 1 2 3 4 5 6 
#
# 1 0.011506 -0.001914 -0.003464 0.000000 0.000000 0.000000
# 2 -0.001914 0.011656 -0.000451 0.000000 0.000000 0.000000
# 3 -0.003464 -0.000451 0.009085 0.000000 0.000000 0.000000
# 4 0.000000 0.000000 0.000000 0.009035 0.000000 0.000000
# 5 0.000000 0.000000 0.000000 0.000000 0.031977 0.000000
# 6 0.000000 0.000000 0.000000 0.000000 0.000000 0.024162
#
#
# Mechanical properties :
#
#
# Convention : Reuss Voigt Hill
#
# Bulk Modulus (GPa) = 48.57150 50.65232 49.61191
# Shear Modulus (GPa) = 43.12496 53.16951 48.14723
#
# Velocity S-wave (km/s) = 4.38295 4.86669 4.63114
# Velocity P-wave (km/s) = 6.87387 7.35818 7.12015
#
# Compressibility (1/GPa) = 0.02058821
#
# Stress axis : x y z
#
# Youngs Moduli (GPa) = 86.91475 85.78990 110.07326
#
# Poissons Ratio (x) = 0.16419 0.38130
# Poissons Ratio (y) = 0.16634 0.04968
# Poissons Ratio (z) = 0.30108 0.03872
#
# Static dielectric constant tensor:
#      x y z
#    x 1.869910 0.000000 0.000000 
#    y 0.000000 1.979720 0.000000 
#    z 0.000000 0.000000 1.763380 
# 
# From -- ./inp_files/54968.got.cif
#   From: 2010.05.17/outbox.cif.g08.bks.cpg/sg66_28_cif.got.tgz:54968.got - 2010.06.03 17:51:23.
