data_PCOD9497745
_publ_section_title
;
Structure prediction by ZEFSAII (Michael W. Deem and Ramdas Pophale) SiO2 
 PCOD9497745
Probable space group: C C C M
;
_chemical_formula_sum "Si O2"
_cell_formula_units_Z 112
_cell_length_a 22.264903
_cell_length_b 17.361132
_cell_length_c 17.638424
_cell_angle_alpha 90.000000
_cell_angle_beta 90.000000
_cell_angle_gamma 90.000000
_cell_volume 6818.025555
_symmetry_space_group_name_H-M "C C C M"
_symmetry_group_IT_number 66
_symmetry_cell_setting 'orthorhombic'
loop_
_space_group_symop_operation_xyz
x,y,z
-x,-y,z
x,-y,1/2-z
-x,y,1/2-z
-x,-y,-z
x,y,-z
-x,y,1/2+z
x,-y,1/2+z
1/2+x,1/2+y,z
1/2-x,1/2-y,z
1/2+x,1/2-y,1/2-z
1/2-x,1/2+y,1/2-z
1/2-x,1/2-y,-z
1/2+x,1/2+y,-z
1/2-x,1/2+y,1/2+z
1/2+x,1/2-y,1/2+z
loop_
_atom_site_type_symbol
_atom_site_label
_atom_site_fract_x
_atom_site_fract_y
_atom_site_fract_z
Si Si1 0.034825 0.655833 0.670064
Si Si2 0.776058 0.510198 0.659626
Si Si3 0.667921 0.778117 0.162799
Si Si4 0.578438 0.831615 0.413273
Si Si5 0.795943 0.313885 0.165871
Si Si6 0.906452 0.486007 0.588846
Si Si7 0.726186 0.364929 0.410760
O O1 0.097862 0.701418 0.669052
O O2 0.053770 0.572608 0.636965
O O3 0.000000 0.647820 0.750000
O O4 0.985151 0.696370 0.617602
O O5 0.777347 0.500000 0.750000
O O6 0.770676 0.601467 0.646603
O O7 0.840131 0.486597 0.624224
O O8 0.729245 0.451458 0.621883
O O9 0.695912 0.801689 0.243966
O O10 0.682246 0.690790 0.137409
O O11 0.707324 0.827856 0.103137
O O12 0.587181 0.810979 0.500000
O O13 0.637200 0.807249 0.367498
O O14 0.574408 0.924860 0.407304
O O15 0.750000 0.250000 0.137122
O O16 0.906661 0.463348 0.500000
O O17 0.712602 0.363463 0.500000
#
# Coordination Sequence:
#
# PCOD9497745 Si02
#       7
#    16  16  16  16  16  16  16
#     4  12  22  33  53  78 108 151 189 228 280 340
#     4  11  19  33  55  83 114 151 189 230 281 345
#     4  11  20  36  54  81 112 145 191 232 285 340
#     4  10  23  36  47  72 109 147 192 230 268 332
#     4  11  20  37  59  79 111 150 191 237 284 342
#     4  10  21  34  49  72 109 150 188 231 271 323
#     4  11  22  36  58  86 115 146 188 242 296 340
#
# _framework density 16.427043000000001
#
# number of rings (size 3 to 8) (size 9 to 14) (size 15 to 20)
#    0.000    1.143    5.714    2.143    2.000    4.286 
#    0.000    0.000    0.000    0.000    0.000    1.000 
#    0.000    2.286    0.000    0.000    0.000    0.000 
#
# Total GULP energy -312343.828850 kJ/mol
# GULP energy per Si atom -5577.568372 kJ/mol
# Density = 1.638965 g / cm^3
# Si number density = 16.427043 Si / 1000 Ang^3
#
#
#
# Elastic Constant Matrix: (Units=GPa)
#
#
# Indices 1 2 3 4 5 6 
#
# 1 90.8043 49.0941 33.2195 0.0000 0.0000 0.0000
# 2 49.0941 75.2063 26.5473 0.0000 0.0000 0.0000
# 3 33.2195 26.5473 91.0510 0.0000 0.0000 0.0000
# 4 0.0000 0.0000 0.0000 -62.0968 0.0000 0.0000
# 5 0.0000 0.0000 0.0000 0.0000 12.7224 0.0000
# 6 0.0000 0.0000 0.0000 0.0000 0.0000 20.7723
#
#
#
# Elastic Compliance Matrix: (Units=1/GPa)
#
#
# Indices 1 2 3 4 5 6 
#
# 1 0.017965 -0.010494 -0.003495 0.000000 0.000000 0.000000
# 2 -0.010494 0.020952 -0.002280 0.000000 0.000000 0.000000
# 3 -0.003495 -0.002280 0.012923 0.000000 0.000000 0.000000
# 4 0.000000 0.000000 0.000000 -0.016104 0.000000 0.000000
# 5 0.000000 0.000000 0.000000 0.000000 0.078602 0.000000
# 6 0.000000 0.000000 0.000000 0.000000 0.000000 0.048141
#
#
# Mechanical properties :
#
#
# Convention : Reuss Voigt Hill
#
# Bulk Modulus (GPa) = 51.80813 52.75370 52.28092
# Shear Modulus (GPa) = 24.82015 4.15962 14.48988
#
# Velocity S-wave (km/s) = 3.89129 1.59301 2.97320
# Velocity P-wave (km/s) = 7.19696 5.96383 6.60922
#
# Compressibility (1/GPa) = 0.01930199
#
# Stress axis : x y z
#
# Youngs Moduli (GPa) = 55.66498 47.72864 77.38294
#
# Poissons Ratio (x) = 0.50084 0.27043
# Poissons Ratio (y) = 0.58412 0.17646
# Poissons Ratio (z) = 0.19454 0.10884
#
# Static dielectric constant tensor:
#      x y z
#    x 1.571120 0.000000 0.000000 
#    y 0.000000 1.572330 0.000000 
#    z 0.000000 0.000000 1.580850 
# 
# From -- ./inp_files/41983.got.cif
#   From: 2010.05.17/outbox.cif.g08.bks.cpg/sg66_21_cif.got.tgz:41983.got - 2010.06.03 17:51:23.
