data_PCOD9497832
_publ_section_title
;
Structure prediction by ZEFSAII (Michael W. Deem and Ramdas Pophale) SiO2 
 PCOD9497832
Probable space group: C C C M
;
_chemical_formula_sum "Si O2"
_cell_formula_units_Z 88
_cell_length_a 14.380158
_cell_length_b 13.421785
_cell_length_c 22.005281
_cell_angle_alpha 90.000000
_cell_angle_beta 90.000000
_cell_angle_gamma 90.000000
_cell_volume 4247.181829
_symmetry_space_group_name_H-M "C C C M"
_symmetry_group_IT_number 66
_symmetry_cell_setting 'orthorhombic'
loop_
_space_group_symop_operation_xyz
x,y,z
-x,-y,z
x,-y,1/2-z
-x,y,1/2-z
-x,-y,-z
x,y,-z
-x,y,1/2+z
x,-y,1/2+z
1/2+x,1/2+y,z
1/2-x,1/2-y,z
1/2+x,1/2-y,1/2-z
1/2-x,1/2+y,1/2-z
1/2-x,1/2-y,-z
1/2+x,1/2+y,-z
1/2-x,1/2+y,1/2+z
1/2+x,1/2-y,1/2+z
loop_
_atom_site_type_symbol
_atom_site_label
_atom_site_fract_x
_atom_site_fract_y
_atom_site_fract_z
Si Si1 0.602842 0.030848 0.141163
Si Si2 0.617300 0.156395 0.434612
Si Si3 0.393399 0.461874 0.430298
Si Si4 0.794401 0.041695 0.689618
Si Si5 0.906774 0.274093 0.068009
Si Si6 0.750000 0.250000 0.336345
O O1 0.618861 0.143867 0.118559
O O2 0.500000 0.000000 0.166505
O O3 0.606576 0.959785 0.081469
O O4 0.689115 0.999913 0.182870
O O5 0.662679 0.168661 0.500000
O O6 0.517715 0.209197 0.435814
O O7 0.673901 0.203407 0.380468
O O8 0.500000 0.500000 0.428512
O O9 0.359895 0.481613 0.500000
O O10 0.340347 0.516302 0.375398
O O11 0.387489 0.342220 0.419820
O O12 0.791281 0.159335 0.700021
O O13 0.841397 0.000000 0.750000
O O14 0.868663 0.297300 0.000000
#
# Coordination Sequence:
#
# PCOD9497832 Si02
#       6
#    16  16  16  16  16   8
#     4   9  19  35  55  83 117 153 195 240 286 339
#     4   9  16  29  53  84 116 149 190 239 285 335
#     4  10  22  40  61  87 119 154 194 238 286 344
#     4  11  25  41  60  86 116 151 194 240 288 344
#     4   9  17  31  54  83 116 153 189 232 290 344
#     4  10  21  36  54  78 109 150 196 236 284 340
#
# _framework density 20.719622000000001
#
# number of rings (size 3 to 8) (size 9 to 14) (size 15 to 20)
#    0.000    2.364    0.000    1.909    0.000   10.909 
#    0.000    1.818    0.000    6.545    0.000    0.000 
#    0.000    0.000    0.000    0.000    0.000    0.000 
#
# Total GULP energy -245292.186032 kJ/mol
# GULP energy per Si atom -5574.822410 kJ/mol
# Density = 2.067246 g / cm^3
# Si number density = 20.719622 Si / 1000 Ang^3
#
#
#
# Elastic Constant Matrix: (Units=GPa)
#
#
# Indices 1 2 3 4 5 6 
#
# 1 40.2442 -0.4724 17.1167 0.0000 0.0000 0.0000
# 2 -0.4724 129.6850 37.3954 0.0000 0.0000 0.0000
# 3 17.1167 37.3954 90.1044 0.0000 0.0000 0.0000
# 4 0.0000 0.0000 0.0000 14.0868 0.0000 0.0000
# 5 0.0000 0.0000 0.0000 0.0000 49.1728 0.0000
# 6 0.0000 0.0000 0.0000 0.0000 0.0000 24.1713
#
#
#
# Elastic Compliance Matrix: (Units=1/GPa)
#
#
# Indices 1 2 3 4 5 6 
#
# 1 0.027405 0.001819 -0.005961 0.000000 0.000000 0.000000
# 2 0.001819 0.008880 -0.004031 0.000000 0.000000 0.000000
# 3 -0.005961 -0.004031 0.013903 0.000000 0.000000 0.000000
# 4 0.000000 0.000000 0.000000 0.070989 0.000000 0.000000
# 5 0.000000 0.000000 0.000000 0.000000 0.020336 0.000000
# 6 0.000000 0.000000 0.000000 0.000000 0.000000 0.041371
#
#
# Mechanical properties :
#
#
# Convention : Reuss Voigt Hill
#
# Bulk Modulus (GPa) = 29.54876 40.90143 35.22510
# Shear Modulus (GPa) = 23.75168 31.21911 27.48539
#
# Velocity S-wave (km/s) = 3.38943 3.88589 3.64612
# Velocity P-wave (km/s) = 5.44150 6.31797 5.89604
#
# Compressibility (1/GPa) = 0.03384237
#
# Stress axis : x y z
#
# Youngs Moduli (GPa) = 36.48986 112.61336 71.92444
#
# Poissons Ratio (x) = -0.20480 0.42872
# Poissons Ratio (y) = -0.06636 0.28992
# Poissons Ratio (z) = 0.21751 0.45393
#
# Static dielectric constant tensor:
#      x y z
#    x 1.775220 0.000000 0.000000 
#    y 0.000000 1.779920 0.000000 
#    z 0.000000 0.000000 1.729090 
# 
# From -- ./inp_files/56753.got.cif
#   From: 2010.05.17/outbox.cif.g08.bks.cpg/sg66_29_cif.got.tgz:56753.got - 2010.06.03 17:51:23.
