data_PCOD9497988
_publ_section_title
;
Structure prediction by ZEFSAII (Michael W. Deem and Ramdas Pophale) SiO2 
 PCOD9497988
Probable space group: C C C M
;
_chemical_formula_sum "Si O2"
_cell_formula_units_Z 116
_cell_length_a 13.597993
_cell_length_b 16.968009
_cell_length_c 23.537039
_cell_angle_alpha 90.000000
_cell_angle_beta 90.000000
_cell_angle_gamma 90.000000
_cell_volume 5430.721429
_symmetry_space_group_name_H-M "C C C M"
_symmetry_group_IT_number 66
_symmetry_cell_setting 'orthorhombic'
loop_
_space_group_symop_operation_xyz
x,y,z
-x,-y,z
x,-y,1/2-z
-x,y,1/2-z
-x,-y,-z
x,y,-z
-x,y,1/2+z
x,-y,1/2+z
1/2+x,1/2+y,z
1/2-x,1/2-y,z
1/2+x,1/2-y,1/2-z
1/2-x,1/2+y,1/2-z
1/2-x,1/2-y,-z
1/2+x,1/2+y,-z
1/2-x,1/2+y,1/2+z
1/2+x,1/2-y,1/2+z
loop_
_atom_site_type_symbol
_atom_site_label
_atom_site_fract_x
_atom_site_fract_y
_atom_site_fract_z
Si Si1 0.772784 0.165682 0.064692
Si Si2 0.311167 0.348820 0.892588
Si Si3 0.384882 0.515256 0.067549
Si Si4 0.608527 0.688949 0.773728
Si Si5 0.182900 0.636352 0.240942
Si Si6 0.892004 0.411560 0.880322
Si Si7 0.391547 0.091906 0.145654
Si Si8 0.250000 0.250000 0.000000
O O1 0.750000 0.250000 0.093190
O O2 0.848336 0.100833 0.089117
O O3 0.667808 0.122713 0.067410
O O4 0.805636 0.181599 0.000000
O O5 0.334078 0.440598 0.903867
O O6 0.380741 0.317908 0.842060
O O7 0.197500 0.352021 0.872197
O O8 0.310460 0.299133 0.949948
O O9 0.500000 0.500000 0.074349
O O10 0.361636 0.513886 0.000000
O O11 0.500000 0.670174 0.750000
O O12 0.700120 0.635526 0.752483
O O13 0.639046 0.776496 0.753210
O O14 0.163615 0.612641 0.177003
O O15 0.124278 0.583572 0.286769
O O16 0.888443 0.505845 0.882359
O O17 0.001470 0.378520 0.872226
#
# Coordination Sequence:
#
# PCOD9497988 Si02
#       8
#    16  16  16  16  16  16  16   4
#     4  10  23  44  63  94 132 170 226 289 339 409
#     4  11  22  43  64  97 142 173 232 284 351 421
#     4  10  21  43  69  93 130 183 229 281 349 423
#     4  10  22  40  62  93 136 179 222 287 348 406
#     4  10  21  37  60  91 128 169 220 278 329 409
#     4  11  21  37  67  90 121 173 220 264 348 410
#     4  10  21  39  60  95 127 164 213 283 336 409
#     4  12  24  40  70 106 134 198 224 288 352 426
#
# _framework density 21.359960999999998
#
# number of rings (size 3 to 8) (size 9 to 14) (size 15 to 20)
#    0.000    1.655    2.069    3.310    1.931    2.207 
#    6.207    0.690    0.000    0.000    0.000    0.000 
#    0.000    0.000    0.000    0.000    0.000    0.000 
#
# Total GULP energy -323087.180892 kJ/mol
# GULP energy per Si atom -5570.468636 kJ/mol
# Density = 2.131134 g / cm^3
# Si number density = 21.359961 Si / 1000 Ang^3
#
#
#
# Elastic Constant Matrix: (Units=GPa)
#
#
# Indices 1 2 3 4 5 6 
#
# 1 121.6286 15.6353 28.2657 0.0000 0.0000 0.0000
# 2 15.6353 86.7461 9.5970 0.0000 0.0000 0.0000
# 3 28.2657 9.5970 83.4180 0.0000 0.0000 0.0000
# 4 0.0000 0.0000 0.0000 13.7304 0.0000 0.0000
# 5 0.0000 0.0000 0.0000 0.0000 23.2170 0.0000
# 6 0.0000 0.0000 0.0000 0.0000 0.0000 14.5779
#
#
#
# Elastic Compliance Matrix: (Units=1/GPa)
#
#
# Indices 1 2 3 4 5 6 
#
# 1 0.009069 -0.001311 -0.002922 0.000000 0.000000 0.000000
# 2 -0.001311 0.011866 -0.000921 0.000000 0.000000 0.000000
# 3 -0.002922 -0.000921 0.013084 0.000000 0.000000 0.000000
# 4 0.000000 0.000000 0.000000 0.072831 0.000000 0.000000
# 5 0.000000 0.000000 0.000000 0.000000 0.043072 0.000000
# 6 0.000000 0.000000 0.000000 0.000000 0.000000 0.068597
#
#
# Mechanical properties :
#
#
# Convention : Reuss Voigt Hill
#
# Bulk Modulus (GPa) = 42.17521 44.30987 43.24254
# Shear Modulus (GPa) = 21.12097 26.19139 23.65618
#
# Velocity S-wave (km/s) = 3.14795 3.50550 3.33152
# Velocity P-wave (km/s) = 5.74462 6.09706 5.92346
#
# Compressibility (1/GPa) = 0.02371061
#
# Stress axis : x y z
#
# Youngs Moduli (GPa) = 110.26039 84.27343 76.42958
#
# Poissons Ratio (x) = 0.11052 0.22335
# Poissons Ratio (y) = 0.14460 0.07038
# Poissons Ratio (z) = 0.32221 0.07760
#
# Static dielectric constant tensor:
#      x y z
#    x 1.790990 0.000000 0.000000 
#    y 0.000000 1.821100 0.000000 
#    z 0.000000 0.000000 1.774860 
# 
# From -- ./inp_files/63835.got.cif
#   From: 2010.05.17/outbox.cif.g08.bks.cpg/sg66_32_cif.got.tgz:63835.got - 2010.06.03 17:51:23.
