data_PCOD9497104
_publ_section_title
;
Structure prediction by ZEFSAII (Michael W. Deem and Ramdas Pophale) SiO2 
 PCOD9497104
Probable space group: C C C M
;
_chemical_formula_sum "Si O2"
_cell_formula_units_Z 56
_cell_length_a 5.082418
_cell_length_b 14.645179
_cell_length_c 33.511360
_cell_angle_alpha 90.000000
_cell_angle_beta 90.000000
_cell_angle_gamma 90.000000
_cell_volume 2494.348424
_symmetry_space_group_name_H-M "C C C M"
_symmetry_group_IT_number 66
_symmetry_cell_setting 'orthorhombic'
loop_
_space_group_symop_operation_xyz
x,y,z
-x,-y,z
x,-y,1/2-z
-x,y,1/2-z
-x,-y,-z
x,y,-z
-x,y,1/2+z
x,-y,1/2+z
1/2+x,1/2+y,z
1/2-x,1/2-y,z
1/2+x,1/2-y,1/2-z
1/2-x,1/2+y,1/2-z
1/2-x,1/2-y,-z
1/2+x,1/2+y,-z
1/2-x,1/2+y,1/2+z
1/2+x,1/2-y,1/2+z
loop_
_atom_site_type_symbol
_atom_site_label
_atom_site_fract_x
_atom_site_fract_y
_atom_site_fract_z
Si Si1 0.738930 0.567934 0.500000
Si Si2 0.502752 0.609372 0.845271
Si Si3 0.504068 0.111945 0.295738
Si Si4 0.990602 0.808528 0.571073
O O1 0.500000 0.500000 0.500000
O O2 0.669204 0.632890 0.537738
O O3 0.000000 0.500000 0.500000
O O4 0.500000 0.500000 0.844206
O O5 0.729435 0.642164 0.816228
O O6 0.574910 0.633992 0.890658
O O7 0.230657 0.639713 0.825246
O O8 0.500000 0.143094 0.250000
O O9 0.500000 0.000000 0.294489
O O10 0.750000 0.750000 0.587831
O O11 0.250000 0.750000 0.556912
#
# Coordination Sequence:
#
# PCOD9497104 Si02
#       4
#     8  16  16  16
#     4  12  26  46  72  98 124 160 212 264 312 374
#     4  10  20  35  59  88 119 160 210 258 307 369
#     4   9  17  31  55  87 119 154 205 266 314 354
#     4  12  25  43  65  93 131 167 203 252 320 386
#
# _framework density 22.450752000000001
#
# number of rings (size 3 to 8) (size 9 to 14) (size 15 to 20)
#    0.000    1.429    0.000    6.000    0.000    6.857 
#    0.000    0.000    0.000   17.143    0.000    0.000 
#    0.000    0.000    0.000    0.000    0.000    0.000 
#
# Total GULP energy -156130.054907 kJ/mol
# GULP energy per Si atom -5576.073390 kJ/mol
# Density = 2.239965 g / cm^3
# Si number density = 22.450752 Si / 1000 Ang^3
#
#
#
# Elastic Constant Matrix: (Units=GPa)
#
#
# Indices 1 2 3 4 5 6 
#
# 1 145.4273 28.7662 25.1997 0.0000 0.0000 0.0000
# 2 28.7662 71.9864 28.3025 0.0000 0.0000 0.0000
# 3 25.1997 28.3025 168.7751 0.0000 0.0000 0.0000
# 4 0.0000 0.0000 0.0000 42.9649 0.0000 0.0000
# 5 0.0000 0.0000 0.0000 0.0000 32.7990 0.0000
# 6 0.0000 0.0000 0.0000 0.0000 0.0000 16.7269
#
#
#
# Elastic Compliance Matrix: (Units=1/GPa)
#
#
# Indices 1 2 3 4 5 6 
#
# 1 0.007535 -0.002750 -0.000664 0.000000 0.000000 0.000000
# 2 -0.002750 0.015876 -0.002252 0.000000 0.000000 0.000000
# 3 -0.000664 -0.002252 0.006402 0.000000 0.000000 0.000000
# 4 0.000000 0.000000 0.000000 0.023275 0.000000 0.000000
# 5 0.000000 0.000000 0.000000 0.000000 0.030489 0.000000
# 6 0.000000 0.000000 0.000000 0.000000 0.000000 0.059784
#
#
# Mechanical properties :
#
#
# Convention : Reuss Voigt Hill
#
# Bulk Modulus (GPa) = 54.10832 61.19174 57.65003
# Shear Modulus (GPa) = 31.08448 38.75954 34.92201
#
# Velocity S-wave (km/s) = 3.72501 4.15953 3.94825
# Velocity P-wave (km/s) = 6.53101 7.09818 6.82049
#
# Compressibility (1/GPa) = 0.01848145
#
# Stress axis : x y z
#
# Youngs Moduli (GPa) = 132.70841 62.98920 156.20707
#
# Poissons Ratio (x) = 0.17323 0.10371
# Poissons Ratio (y) = 0.36497 0.35172
# Poissons Ratio (z) = 0.08811 0.14183
#
# Static dielectric constant tensor:
#      x y z
#    x 1.694550 0.000000 0.000000 
#    y 0.000000 1.643680 0.000000 
#    z 0.000000 0.000000 1.729260 
# 
# From -- ./inp_files/66768.got.cif
#   From: 2010.05.17/outbox.cif.g08.bks.cpg/sg66_34_cif.got.tgz:66768.got - 2010.06.03 17:51:23.
