data_PCOD9497889
_publ_section_title
;
Structure prediction by ZEFSAII (Michael W. Deem and Ramdas Pophale) SiO2 
 PCOD9497889
Probable space group: C C C M
;
_chemical_formula_sum "Si O2"
_cell_formula_units_Z 88
_cell_length_a 22.065053
_cell_length_b 8.544268
_cell_length_c 22.119202
_cell_angle_alpha 90.000000
_cell_angle_beta 90.000000
_cell_angle_gamma 90.000000
_cell_volume 4170.127098
_symmetry_space_group_name_H-M "C C C M"
_symmetry_group_IT_number 66
_symmetry_cell_setting 'orthorhombic'
loop_
_space_group_symop_operation_xyz
x,y,z
-x,-y,z
x,-y,1/2-z
-x,y,1/2-z
-x,-y,-z
x,y,-z
-x,y,1/2+z
x,-y,1/2+z
1/2+x,1/2+y,z
1/2-x,1/2-y,z
1/2+x,1/2-y,1/2-z
1/2-x,1/2+y,1/2-z
1/2-x,1/2-y,-z
1/2+x,1/2+y,-z
1/2-x,1/2+y,1/2+z
1/2+x,1/2-y,1/2+z
loop_
_atom_site_type_symbol
_atom_site_label
_atom_site_fract_x
_atom_site_fract_y
_atom_site_fract_z
Si Si1 0.872300 0.603223 0.433719
Si Si2 0.750000 0.250000 0.897109
Si Si3 0.209614 0.969202 0.683248
Si Si4 0.531815 0.169741 0.693660
Si Si5 0.008942 0.812441 0.930573
Si Si6 0.842774 0.652925 0.165865
O O1 0.886498 0.538668 0.500000
O O2 0.804568 0.672971 0.433441
O O3 0.923359 0.736540 0.421780
O O4 0.867171 0.464297 0.385411
O O5 0.715995 0.375113 0.854985
O O6 0.172948 0.832335 0.649414
O O7 0.279136 0.910507 0.690093
O O8 0.184399 0.000000 0.750000
O O9 0.500000 0.254142 0.750000
O O10 0.526441 0.248215 0.627976
O O11 0.601916 0.157082 0.711770
O O12 0.500000 0.000000 0.687747
O O13 0.991233 0.765709 0.000000
O O14 0.000000 0.000000 0.928840
#
# Coordination Sequence:
#
# PCOD9497889 Si02
#       6
#    16   8  16  16  16  16
#     4  10  21  40  63  88 124 166 211 272 321 385
#     4  10  21  36  60  90 122 156 209 266 328 384
#     4  10  22  39  63  90 121 167 206 266 323 400
#     4  11  24  40  64  96 128 169 208 273 331 388
#     4  10  23  42  64  92 129 174 220 264 326 398
#     4  10  22  41  61  91 124 162 218 256 326 402
#
# _framework density 21.102474000000001
#
# number of rings (size 3 to 8) (size 9 to 14) (size 15 to 20)
#    0.000    1.818    1.818    1.364    5.091    2.909 
#    0.000    8.182    0.000    0.000    0.000    0.000 
#    0.000    0.000    0.000    0.000    0.000    0.000 
#
# Total GULP energy -245226.246431 kJ/mol
# GULP energy per Si atom -5573.323783 kJ/mol
# Density = 2.105444 g / cm^3
# Si number density = 21.102474 Si / 1000 Ang^3
#
#
#
# Elastic Constant Matrix: (Units=GPa)
#
#
# Indices 1 2 3 4 5 6 
#
# 1 99.8103 24.9855 19.5357 0.0000 0.0000 0.0000
# 2 24.9855 118.5176 49.9796 0.0000 0.0000 0.0000
# 3 19.5357 49.9796 105.0841 0.0000 0.0000 0.0000
# 4 0.0000 0.0000 0.0000 35.3793 0.0000 0.0000
# 5 0.0000 0.0000 0.0000 0.0000 52.9490 0.0000
# 6 0.0000 0.0000 0.0000 0.0000 0.0000 29.5377
#
#
#
# Elastic Compliance Matrix: (Units=1/GPa)
#
#
# Indices 1 2 3 4 5 6 
#
# 1 0.010686 -0.001770 -0.001145 0.000000 0.000000 0.000000
# 2 -0.001770 0.010848 -0.004830 0.000000 0.000000 0.000000
# 3 -0.001145 -0.004830 0.012026 0.000000 0.000000 0.000000
# 4 0.000000 0.000000 0.000000 0.028265 0.000000 0.000000
# 5 0.000000 0.000000 0.000000 0.000000 0.018886 0.000000
# 6 0.000000 0.000000 0.000000 0.000000 0.000000 0.033855
#
#
# Mechanical properties :
#
#
# Convention : Reuss Voigt Hill
#
# Bulk Modulus (GPa) = 55.34020 56.93483 56.13752
# Shear Modulus (GPa) = 36.74310 38.83395 37.78852
#
# Velocity S-wave (km/s) = 4.17727 4.29447 4.23628
# Velocity P-wave (km/s) = 7.03900 7.18531 7.11253
#
# Compressibility (1/GPa) = 0.01807005
#
# Stress axis : x y z
#
# Youngs Moduli (GPa) = 93.57894 92.18568 83.15078
#
# Poissons Ratio (x) = 0.16318 0.09519
# Poissons Ratio (y) = 0.16564 0.40164
# Poissons Ratio (z) = 0.10712 0.44528
#
# Static dielectric constant tensor:
#      x y z
#    x 1.772940 0.000000 0.000000 
#    y 0.000000 1.781970 0.000000 
#    z 0.000000 0.000000 1.762540 
# 
# From -- ./inp_files/59377.got.cif
#   From: 2010.05.17/outbox.cif.g08.bks.cpg/sg66_30_cif.got.tgz:59377.got - 2010.06.03 17:51:23.
