data_PCOD9497531
_publ_section_title
;
Structure prediction by ZEFSAII (Michael W. Deem and Ramdas Pophale) SiO2 
 PCOD9497531
Probable space group: C C C M
;
_chemical_formula_sum "Si O2"
_cell_formula_units_Z 64
_cell_length_a 7.438903
_cell_length_b 37.584281
_cell_length_c 10.632163
_cell_angle_alpha 90.000000
_cell_angle_beta 90.000000
_cell_angle_gamma 90.000000
_cell_volume 2972.602018
_symmetry_space_group_name_H-M "C C C M"
_symmetry_group_IT_number 66
_symmetry_cell_setting 'orthorhombic'
loop_
_space_group_symop_operation_xyz
x,y,z
-x,-y,z
x,-y,1/2-z
-x,y,1/2-z
-x,-y,-z
x,y,-z
-x,y,1/2+z
x,-y,1/2+z
1/2+x,1/2+y,z
1/2-x,1/2-y,z
1/2+x,1/2-y,1/2-z
1/2-x,1/2+y,1/2-z
1/2-x,1/2-y,-z
1/2+x,1/2+y,-z
1/2-x,1/2+y,1/2+z
1/2+x,1/2-y,1/2+z
loop_
_atom_site_type_symbol
_atom_site_label
_atom_site_fract_x
_atom_site_fract_y
_atom_site_fract_z
Si Si1 0.697425 0.981983 0.866742
Si Si2 0.717542 0.831759 0.245263
Si Si3 0.710200 0.791054 0.000000
Si Si4 0.780810 0.707138 0.500000
Si Si5 0.652978 0.591834 0.849889
O O1 0.698604 0.939552 0.850142
O O2 0.500000 0.000000 0.872446
O O3 0.790912 0.000000 0.750000
O O4 0.786750 0.989363 0.000000
O O5 0.500000 0.831645 0.250000
O O6 0.780191 0.808309 0.127465
O O7 0.782883 0.813669 0.374836
O O8 0.778077 0.871447 0.210486
O O9 0.750000 0.750000 0.000000
O O10 0.496312 0.796542 0.000000
O O11 0.750000 0.750000 0.500000
O O12 0.500000 0.580105 0.750000
O O13 0.602118 0.596562 0.000000
#
# Coordination Sequence:
#
# PCOD9497531 Si02
#       5
#    16  16   8   8  16
#     4   9  20  40  64  95 124 165 221 261 322 383
#     4  10  22  40  62  93 128 171 221 267 324 389
#     4  10  20  38  62  88 124 173 214 267 321 386
#     4  10  22  38  60  96 128 165 222 273 325 390
#     4  11  25  43  65  97 136 172 216 273 332 390
#
# _framework density 21.529959999999999
#
# number of rings (size 3 to 8) (size 9 to 14) (size 15 to 20)
#    0.000    2.000    1.250    0.750    5.250    3.500 
#    0.000    2.500    0.000    0.000    0.000    0.000 
#    0.000    0.000    0.000    0.000    0.000    0.000 
#
# Total GULP energy -178380.089854 kJ/mol
# GULP energy per Si atom -5574.377808 kJ/mol
# Density = 2.148096 g / cm^3
# Si number density = 21.529960 Si / 1000 Ang^3
#
#
#
# Elastic Constant Matrix: (Units=GPa)
#
#
# Indices 1 2 3 4 5 6 
#
# 1 74.7950 30.4167 29.8487 0.0000 0.0000 0.0000
# 2 30.4167 184.8503 106.9841 0.0000 0.0000 0.0000
# 3 29.8487 106.9841 242.8033 0.0000 0.0000 0.0000
# 4 0.0000 0.0000 0.0000 33.3792 0.0000 0.0000
# 5 0.0000 0.0000 0.0000 0.0000 -9.6654 0.0000
# 6 0.0000 0.0000 0.0000 0.0000 0.0000 30.8573
#
#
#
# Elastic Compliance Matrix: (Units=1/GPa)
#
#
# Indices 1 2 3 4 5 6 
#
# 1 0.014501 -0.001818 -0.000982 0.000000 0.000000 0.000000
# 2 -0.001818 0.007490 -0.003077 0.000000 0.000000 0.000000
# 3 -0.000982 -0.003077 0.005595 0.000000 0.000000 0.000000
# 4 0.000000 0.000000 0.000000 0.029959 0.000000 0.000000
# 5 0.000000 0.000000 0.000000 0.000000 -0.103461 0.000000
# 6 0.000000 0.000000 0.000000 0.000000 0.000000 0.032407
#
#
# Mechanical properties :
#
#
# Convention : Reuss Voigt Hill
#
# Bulk Modulus (GPa) = 63.15928 92.99421 78.07674
# Shear Modulus (GPa) = 1420.55966 33.26083 726.91024
#
# Velocity S-wave (km/s) = 25.71456 3.93474 18.39457
# Velocity P-wave (km/s) = 30.18361 7.99560 22.07918
#
# Compressibility (1/GPa) = 0.01583299
#
# Stress axis : x y z
#
# Youngs Moduli (GPa) = 68.96116 133.52012 178.73676
#
# Poissons Ratio (x) = 0.24274 0.17545
# Poissons Ratio (y) = 0.12537 0.54989
# Poissons Ratio (z) = 0.06769 0.41078
#
# Static dielectric constant tensor:
#      x y z
#    x 1.793010 0.000000 0.000000 
#    y 0.000000 1.761540 0.000000 
#    z 0.000000 0.000000 1.833630 
# 
# From -- ./inp_files/13617.got.cif
#   From: 2010.05.17/outbox.cif.g08.bks.cpg/sg66_7_cif.got.tgz:13617.got - 2010.06.03 17:51:23.
