data_PCOD9497847
_publ_section_title
;
Structure prediction by ZEFSAII (Michael W. Deem and Ramdas Pophale) SiO2 
 PCOD9497847
Probable space group: C C C M
;
_chemical_formula_sum "Si O2"
_cell_formula_units_Z 116
_cell_length_a 8.077411
_cell_length_b 25.990625
_cell_length_c 27.488993
_cell_angle_alpha 90.000000
_cell_angle_beta 90.000000
_cell_angle_gamma 90.000000
_cell_volume 5770.955631
_symmetry_space_group_name_H-M "C C C M"
_symmetry_group_IT_number 66
_symmetry_cell_setting 'orthorhombic'
loop_
_space_group_symop_operation_xyz
x,y,z
-x,-y,z
x,-y,1/2-z
-x,y,1/2-z
-x,-y,-z
x,y,-z
-x,y,1/2+z
x,-y,1/2+z
1/2+x,1/2+y,z
1/2-x,1/2-y,z
1/2+x,1/2-y,1/2-z
1/2-x,1/2+y,1/2-z
1/2-x,1/2-y,-z
1/2+x,1/2+y,-z
1/2-x,1/2+y,1/2+z
1/2+x,1/2-y,1/2+z
loop_
_atom_site_type_symbol
_atom_site_label
_atom_site_fract_x
_atom_site_fract_y
_atom_site_fract_z
Si Si1 0.299129 0.652495 0.161997
Si Si2 0.786250 0.130873 0.443312
Si Si3 0.490142 0.274849 0.412443
Si Si4 0.077473 0.670663 0.362012
Si Si5 0.814999 0.337131 0.740611
Si Si6 0.250000 0.750000 0.000000
Si Si7 0.464398 0.439931 0.129567
Si Si8 0.310109 0.445176 0.230428
O O1 0.372697 0.691460 0.122575
O O2 0.313294 0.677178 0.216589
O O3 0.391215 0.597991 0.151304
O O4 0.101269 0.650178 0.155101
O O5 0.752298 0.123108 0.500000
O O6 0.631634 0.135773 0.407287
O O7 0.878420 0.185155 0.434391
O O8 0.901173 0.087121 0.419355
O O9 0.559896 0.228461 0.380850
O O10 0.391489 0.251611 0.457350
O O11 0.208374 0.671227 0.317043
O O12 0.804092 0.398822 0.746919
O O13 0.000000 0.316344 0.750000
O O14 0.500000 0.500000 0.121267
O O15 0.328025 0.441979 0.172455
O O16 0.253564 0.500000 0.250000
O O17 0.500000 0.438821 0.250000
#
# Coordination Sequence:
#
# PCOD9497847 Si02
#       8
#    16  16  16  16  16   4  16  16
#     4  10  21  39  62  87 124 159 201 244 310 370
#     4  11  25  40  62  89 121 159 203 257 310 357
#     4  11  23  40  63  91 116 162 210 261 298 364
#     4  11  22  39  58  88 128 157 202 248 309 370
#     4  10  21  36  55  84 126 159 186 242 301 368
#     4  12  20  40  70  84 118 154 230 260 300 352
#     4  11  21  39  64  90 118 153 207 258 297 367
#     4  11  18  33  60  89 111 152 199 240 294 348
#
# _framework density 20.100657000000002
#
# number of rings (size 3 to 8) (size 9 to 14) (size 15 to 20)
#    0.000    1.241    6.207    0.414    0.966    1.103 
#    0.000    8.966    0.000    0.828    0.000    0.000 
#    0.000    0.000    0.000    0.000    0.000    0.000 
#
# Total GULP energy -322885.423999 kJ/mol
# GULP energy per Si atom -5566.990069 kJ/mol
# Density = 2.005491 g / cm^3
# Si number density = 20.100657 Si / 1000 Ang^3
#
#
#
# Elastic Constant Matrix: (Units=GPa)
#
#
# Indices 1 2 3 4 5 6 
#
# 1 38.4509 7.2046 29.3935 0.0000 0.0000 0.0000
# 2 7.2046 78.1473 36.6570 0.0000 0.0000 0.0000
# 3 29.3935 36.6570 179.6071 0.0000 0.0000 0.0000
# 4 0.0000 0.0000 0.0000 14.7296 0.0000 0.0000
# 5 0.0000 0.0000 0.0000 0.0000 29.2934 0.0000
# 6 0.0000 0.0000 0.0000 0.0000 0.0000 13.5231
#
#
#
# Elastic Compliance Matrix: (Units=1/GPa)
#
#
# Indices 1 2 3 4 5 6 
#
# 1 0.029744 -0.000507 -0.004764 0.000000 0.000000 0.000000
# 2 -0.000507 0.014160 -0.002807 0.000000 0.000000 0.000000
# 3 -0.004764 -0.002807 0.006920 0.000000 0.000000 0.000000
# 4 0.000000 0.000000 0.000000 0.067891 0.000000 0.000000
# 5 0.000000 0.000000 0.000000 0.000000 0.034137 0.000000
# 6 0.000000 0.000000 0.000000 0.000000 0.000000 0.073948
#
#
# Mechanical properties :
#
#
# Convention : Reuss Voigt Hill
#
# Bulk Modulus (GPa) = 28.84572 49.19062 39.01817
# Shear Modulus (GPa) = 19.64539 26.37256 23.00898
#
# Velocity S-wave (km/s) = 3.12965 3.62612 3.38699
# Velocity P-wave (km/s) = 5.23846 6.48513 5.89484
#
# Compressibility (1/GPa) = 0.03466719
#
# Stress axis : x y z
#
# Youngs Moduli (GPa) = 33.61998 70.62256 144.50299
#
# Poissons Ratio (x) = 0.03583 0.68844
# Poissons Ratio (y) = 0.01706 0.40561
# Poissons Ratio (z) = 0.16017 0.19823
#
# Static dielectric constant tensor:
#      x y z
#    x 1.785260 0.000000 0.000000 
#    y 0.000000 1.708490 0.000000 
#    z 0.000000 0.000000 1.762000 
# 
# From -- ./inp_files/55930.got.cif
#   From: 2010.05.17/outbox.cif.g08.bks.cpg/sg66_28_cif.got.tgz:55930.got - 2010.06.03 17:51:23.
