data_PCOD9497564
_publ_section_title
;
Structure prediction by ZEFSAII (Michael W. Deem and Ramdas Pophale) SiO2 
 PCOD9497564
Probable space group: C C C M
;
_chemical_formula_sum "Si O2"
_cell_formula_units_Z 116
_cell_length_a 19.536800
_cell_length_b 14.051649
_cell_length_c 25.872008
_cell_angle_alpha 90.000000
_cell_angle_beta 90.000000
_cell_angle_gamma 90.000000
_cell_volume 7102.493752
_symmetry_space_group_name_H-M "C C C M"
_symmetry_group_IT_number 66
_symmetry_cell_setting 'orthorhombic'
loop_
_space_group_symop_operation_xyz
x,y,z
-x,-y,z
x,-y,1/2-z
-x,y,1/2-z
-x,-y,-z
x,y,-z
-x,y,1/2+z
x,-y,1/2+z
1/2+x,1/2+y,z
1/2-x,1/2-y,z
1/2+x,1/2-y,1/2-z
1/2-x,1/2+y,1/2-z
1/2-x,1/2-y,-z
1/2+x,1/2+y,-z
1/2-x,1/2+y,1/2+z
1/2+x,1/2-y,1/2+z
loop_
_atom_site_type_symbol
_atom_site_label
_atom_site_fract_x
_atom_site_fract_y
_atom_site_fract_z
Si Si1 0.500000 0.500000 0.250000
Si Si2 0.709482 0.150461 0.060560
Si Si3 0.886954 0.115291 0.687542
Si Si4 0.153085 0.527644 0.694697
Si Si5 0.221337 0.005230 0.634180
Si Si6 0.960469 0.309573 0.305574
Si Si7 0.899390 0.330915 0.148535
Si Si8 0.312185 0.321694 0.710618
O O1 0.550049 0.442689 0.287937
O O2 0.750000 0.250000 0.068132
O O3 0.754068 0.061440 0.082824
O O4 0.640598 0.163694 0.094336
O O5 0.696271 0.137890 0.000000
O O6 0.918107 0.218150 0.676286
O O7 0.836830 0.133709 0.736031
O O8 0.845872 0.059974 0.642504
O O9 0.183950 0.500000 0.750000
O O10 0.213564 0.553690 0.655489
O O11 0.093686 0.605165 0.700349
O O12 0.120784 0.429563 0.675282
O O13 0.209847 0.093887 0.673010
O O14 0.000000 0.296167 0.250000
O O15 0.019214 0.326907 0.347873
O O16 0.869704 0.242087 0.181765
O O17 0.250000 0.250000 0.719604
#
# Coordination Sequence:
#
# PCOD9497564 Si02
#       8
#     4  16  16  16  16  16  16  16
#     4  12  20  36  44  72 112 156 198 196 264 348
#     4  10  20  38  65  88 105 137 193 260 307 326
#     4  12  24  32  50  74 118 161 182 213 259 348
#     4  11  20  32  50  78 111 154 189 224 270 329
#     4  11  22  35  53  80 110 147 188 236 287 330
#     4  12  23  33  48  76 118 159 191 218 260 346
#     4  11  20  34  55  79 117 145 180 235 288 335
#     4  12  18  33  51  79 115 146 181 222 275 333
#
# _framework density 16.332291999999999
#
# number of rings (size 3 to 8) (size 9 to 14) (size 15 to 20)
#    0.000    0.690    8.966    1.241    1.931    0.000 
#    0.000    0.000    0.000    7.448    0.000    6.276 
#    0.000    0.000    0.000    0.000    0.000    0.000 
#
# Total GULP energy -323478.149029 kJ/mol
# GULP energy per Si atom -5577.209466 kJ/mol
# Density = 1.629512 g / cm^3
# Si number density = 16.332292 Si / 1000 Ang^3
#
#
#
# Elastic Constant Matrix: (Units=GPa)
#
#
# Indices 1 2 3 4 5 6 
#
# 1 76.6205 32.7257 26.5804 0.0000 0.0000 0.0000
# 2 32.7257 66.9270 30.0080 0.0000 0.0000 0.0000
# 3 26.5804 30.0080 67.4657 0.0000 0.0000 0.0000
# 4 0.0000 0.0000 0.0000 18.9293 0.0000 0.0000
# 5 0.0000 0.0000 0.0000 0.0000 16.4664 0.0000
# 6 0.0000 0.0000 0.0000 0.0000 0.0000 48.1674
#
#
#
# Elastic Compliance Matrix: (Units=1/GPa)
#
#
# Indices 1 2 3 4 5 6 
#
# 1 0.017243 -0.006727 -0.003801 0.000000 0.000000 0.000000
# 2 -0.006727 0.021288 -0.006818 0.000000 0.000000 0.000000
# 3 -0.003801 -0.006818 0.019353 0.000000 0.000000 0.000000
# 4 0.000000 0.000000 0.000000 0.052828 0.000000 0.000000
# 5 0.000000 0.000000 0.000000 0.000000 0.060730 0.000000
# 6 0.000000 0.000000 0.000000 0.000000 0.000000 0.020761
#
#
# Mechanical properties :
#
#
# Convention : Reuss Voigt Hill
#
# Bulk Modulus (GPa) = 43.12123 43.29350 43.20737
# Shear Modulus (GPa) = 21.31041 24.82590 23.06815
#
# Velocity S-wave (km/s) = 3.61612 3.90301 3.76230
# Velocity P-wave (km/s) = 6.62532 6.84666 6.73690
#
# Compressibility (1/GPa) = 0.02319043
#
# Stress axis : x y z
#
# Youngs Moduli (GPa) = 57.99337 46.97432 51.67215
#
# Poissons Ratio (x) = 0.31600 0.19643
# Poissons Ratio (y) = 0.39013 0.35232
# Poissons Ratio (z) = 0.22046 0.32029
#
# Static dielectric constant tensor:
#      x y z
#    x 1.629160 0.000000 0.000000 
#    y 0.000000 1.580410 0.000000 
#    z 0.000000 0.000000 1.525320 
# 
# From -- ./inp_files/65379.got.cif
#   From: 2010.05.17/outbox.cif.g08.bks.cpg/sg66_33_cif.got.tgz:65379.got - 2010.06.03 17:51:23.
