data_PCOD9497912
_publ_section_title
;
Structure prediction by ZEFSAII (Michael W. Deem and Ramdas Pophale) SiO2 
 PCOD9497912
Probable space group: C C C M
;
_chemical_formula_sum "Si O2"
_cell_formula_units_Z 80
_cell_length_a 15.649977
_cell_length_b 8.279061
_cell_length_c 29.328465
_cell_angle_alpha 90.000000
_cell_angle_beta 90.000000
_cell_angle_gamma 90.000000
_cell_volume 3800.004575
_symmetry_space_group_name_H-M "C C C M"
_symmetry_group_IT_number 66
_symmetry_cell_setting 'orthorhombic'
loop_
_space_group_symop_operation_xyz
x,y,z
-x,-y,z
x,-y,1/2-z
-x,y,1/2-z
-x,-y,-z
x,y,-z
-x,y,1/2+z
x,-y,1/2+z
1/2+x,1/2+y,z
1/2-x,1/2-y,z
1/2+x,1/2-y,1/2-z
1/2-x,1/2+y,1/2-z
1/2-x,1/2-y,-z
1/2+x,1/2+y,-z
1/2-x,1/2+y,1/2+z
1/2+x,1/2-y,1/2+z
loop_
_atom_site_type_symbol
_atom_site_label
_atom_site_fract_x
_atom_site_fract_y
_atom_site_fract_z
Si Si1 0.847380 0.434775 0.895629
Si Si2 0.352278 0.427957 0.397995
Si Si3 0.645325 0.749397 0.053256
Si Si4 0.171268 0.618986 0.792015
Si Si5 0.093143 0.072091 0.703953
O O1 0.747967 0.421618 0.910339
O O2 0.886261 0.255717 0.904414
O O3 0.885558 0.589712 0.920667
O O4 0.840333 0.462375 0.841201
O O5 0.387854 0.581707 0.425004
O O6 0.360951 0.462189 0.343897
O O7 0.750000 0.750000 0.057598
O O8 0.624967 0.757208 0.000000
O O9 0.177951 0.500000 0.750000
O O10 0.250000 0.750000 0.793644
O O11 0.090602 0.737326 0.787944
O O12 0.133220 0.000000 0.750000
O O13 0.000000 0.000000 0.699602
#
# Coordination Sequence:
#
# PCOD9497912 Si02
#       5
#    16  16  16  16  16
#     4   9  17  31  48  80 110 136 181 234 286 337
#     4   9  17  32  51  72 107 143 182 227 283 338
#     4   9  18  29  49  80 109 142 179 230 297 345
#     4  11  21  33  57  88 113 148 195 243 300 344
#     4  10  21  37  53  76 112 153 189 232 288 351
#
# _framework density 21.052606000000001
#
# number of rings (size 3 to 8) (size 9 to 14) (size 15 to 20)
#    0.000    2.400    4.000    0.600    2.800    1.600 
#    0.000    6.000    0.000    0.600    0.000    5.600 
#    0.000    0.000    0.000    0.000    0.000    0.000 
#
# Total GULP energy -222818.541736 kJ/mol
# GULP energy per Si atom -5570.463543 kJ/mol
# Density = 2.100469 g / cm^3
# Si number density = 21.052606 Si / 1000 Ang^3
#
#
#
# Elastic Constant Matrix: (Units=GPa)
#
#
# Indices 1 2 3 4 5 6 
#
# 1 32.3421 21.2611 -3.9713 0.0000 0.0000 0.0000
# 2 21.2611 185.9392 132.5217 0.0000 0.0000 0.0000
# 3 -3.9713 132.5217 151.4488 0.0000 0.0000 0.0000
# 4 0.0000 0.0000 0.0000 42.2209 0.0000 0.0000
# 5 0.0000 0.0000 0.0000 0.0000 -9.4694 0.0000
# 6 0.0000 0.0000 0.0000 0.0000 0.0000 16.1128
#
#
#
# Elastic Compliance Matrix: (Units=1/GPa)
#
#
# Indices 1 2 3 4 5 6 
#
# 1 0.042564 -0.015045 0.014281 0.000000 0.000000 0.000000
# 2 -0.015045 0.019608 -0.017552 0.000000 0.000000 0.000000
# 3 0.014281 -0.017552 0.022336 0.000000 0.000000 0.000000
# 4 0.000000 0.000000 0.000000 0.023685 0.000000 0.000000
# 5 0.000000 0.000000 0.000000 0.000000 -0.105604 0.000000
# 6 0.000000 0.000000 0.000000 0.000000 0.000000 0.062063
#
#
# Mechanical properties :
#
#
# Convention : Reuss Voigt Hill
#
# Bulk Modulus (GPa) = 20.88766 74.37257 47.63012
# Shear Modulus (GPa) = 42.64657 24.43410 33.54033
#
# Velocity S-wave (km/s) = 4.50568 3.41048 3.99578
# Velocity P-wave (km/s) = 6.08370 7.13528 6.63037
#
# Compressibility (1/GPa) = 0.04787515
#
# Stress axis : x y z
#
# Youngs Moduli (GPa) = 23.49422 50.99911 44.77073
#
# Poissons Ratio (x) = 0.76730 -0.63938
# Poissons Ratio (y) = 0.35348 0.78583
# Poissons Ratio (z) = -0.33553 0.89515
#
# Static dielectric constant tensor:
#      x y z
#    x 1.843640 0.000000 0.000000 
#    y 0.000000 1.815800 0.000000 
#    z 0.000000 0.000000 1.737860 
# 
# From -- ./inp_files/65057.got.cif
#   From: 2010.05.17/outbox.cif.g08.bks.cpg/sg66_33_cif.got.tgz:65057.got - 2010.06.03 17:51:23.
