data_PCOD9497118
_publ_section_title
;
Structure prediction by ZEFSAII (Michael W. Deem and Ramdas Pophale) SiO2 
 PCOD9497118
Probable space group: C C C M
;
_chemical_formula_sum "Si O2"
_cell_formula_units_Z 64
_cell_length_a 11.406092
_cell_length_b 11.280347
_cell_length_c 22.042203
_cell_angle_alpha 90.000000
_cell_angle_beta 90.000000
_cell_angle_gamma 90.000000
_cell_volume 2836.052900
_symmetry_space_group_name_H-M "C C C M"
_symmetry_group_IT_number 66
_symmetry_cell_setting 'orthorhombic'
loop_
_space_group_symop_operation_xyz
x,y,z
-x,-y,z
x,-y,1/2-z
-x,y,1/2-z
-x,-y,-z
x,y,-z
-x,y,1/2+z
x,-y,1/2+z
1/2+x,1/2+y,z
1/2-x,1/2-y,z
1/2+x,1/2-y,1/2-z
1/2-x,1/2+y,1/2-z
1/2-x,1/2-y,-z
1/2+x,1/2+y,-z
1/2-x,1/2+y,1/2+z
1/2+x,1/2-y,1/2+z
loop_
_atom_site_type_symbol
_atom_site_label
_atom_site_fract_x
_atom_site_fract_y
_atom_site_fract_z
Si Si1 0.933289 0.781538 0.627538
Si Si2 0.430867 0.892292 0.313581
Si Si3 0.048075 0.228150 0.000000
Si Si4 0.273350 0.943131 0.500000
Si Si5 0.763091 0.554299 0.366186
O O1 0.844396 0.671921 0.640937
O O2 0.867848 0.899949 0.646513
O O3 0.052810 0.735890 0.658154
O O4 0.965369 0.786914 0.557547
O O5 0.500000 0.885260 0.250000
O O6 0.696767 0.051765 0.321413
O O7 0.500000 0.000000 0.348357
O O8 0.153716 0.133617 0.000000
O O9 0.114668 0.354791 0.000000
O O10 0.274240 0.014258 0.436555
#
# Coordination Sequence:
#
# PCOD9497118 Si02
#       5
#    16  16   8   8  16
#     4  10  20  35  60  89 116 155 202 251 305 377
#     4   9  18  35  61  80 114 156 198 253 308 353
#     4  11  22  35  56  89 129 164 201 250 317 375
#     4  11  22  35  56  89 129 164 203 250 313 387
#     4  10  20  35  60  89 116 153 204 247 306 381
#
# _framework density 22.566575
#
# number of rings (size 3 to 8) (size 9 to 14) (size 15 to 20)
#    0.000    2.000    2.500    1.500    0.000    5.000 
#    0.000    0.000   44.000    0.000    0.000    0.000 
#    0.000    0.000    0.000    0.000    0.000    0.000 
#
# Total GULP energy -178200.649184 kJ/mol
# GULP energy per Si atom -5568.770287 kJ/mol
# Density = 2.251521 g / cm^3
# Si number density = 22.566575 Si / 1000 Ang^3
#
#
#
# Elastic Constant Matrix: (Units=GPa)
#
#
# Indices 1 2 3 4 5 6 
#
# 1 85.1357 55.1979 23.4696 0.0000 0.0000 0.0000
# 2 55.1979 73.7510 37.8429 0.0000 0.0000 0.0000
# 3 23.4696 37.8429 98.1110 0.0000 0.0000 0.0000
# 4 0.0000 0.0000 0.0000 -13.9433 0.0000 0.0000
# 5 0.0000 0.0000 0.0000 0.0000 60.5025 0.0000
# 6 0.0000 0.0000 0.0000 0.0000 0.0000 41.4916
#
#
#
# Elastic Compliance Matrix: (Units=1/GPa)
#
#
# Indices 1 2 3 4 5 6 
#
# 1 0.022976 -0.017923 0.001417 0.000000 0.000000 0.000000
# 2 -0.017923 0.030886 -0.007626 0.000000 0.000000 0.000000
# 3 0.001417 -0.007626 0.012795 0.000000 0.000000 0.000000
# 4 0.000000 0.000000 0.000000 -0.071719 0.000000 0.000000
# 5 0.000000 0.000000 0.000000 0.000000 0.016528 0.000000
# 6 0.000000 0.000000 0.000000 0.000000 0.000000 0.024101
#
#
# Mechanical properties :
#
#
# Convention : Reuss Voigt Hill
#
# Bulk Modulus (GPa) = 54.36742 54.44652 54.40697
# Shear Modulus (GPa) = 55.57897 26.97597 41.27747
#
# Velocity S-wave (km/s) = 4.96813 3.46120 4.28149
# Velocity P-wave (km/s) = 7.55342 6.33661 6.97161
#
# Compressibility (1/GPa) = 0.01839337
#
# Stress axis : x y z
#
# Youngs Moduli (GPa) = 43.52427 32.37690 78.15574
#
# Poissons Ratio (x) = 0.58029 -0.11075
# Poissons Ratio (y) = 0.78008 0.59600
# Poissons Ratio (z) = -0.06167 0.24690
#
# Static dielectric constant tensor:
#      x y z
#    x 1.989930 0.000000 0.000000 
#    y 0.000000 1.890220 0.000000 
#    z 0.000000 0.000000 1.851230 
# 
# From -- ./inp_files/56371.got.cif
#   From: 2010.05.17/outbox.cif.g08.bks.cpg/sg66_29_cif.got.tgz:56371.got - 2010.06.03 17:51:23.
