data_PCOD9497230
_publ_section_title
;
Structure prediction by ZEFSAII (Michael W. Deem and Ramdas Pophale) SiO2 
 PCOD9497230
Probable space group: C C C M
;
_chemical_formula_sum "Si O2"
_cell_formula_units_Z 116
_cell_length_a 23.546819
_cell_length_b 18.069241
_cell_length_c 14.281887
_cell_angle_alpha 90.000000
_cell_angle_beta 90.000000
_cell_angle_gamma 90.000000
_cell_volume 6076.559411
_symmetry_space_group_name_H-M "C C C M"
_symmetry_group_IT_number 66
_symmetry_cell_setting 'orthorhombic'
loop_
_space_group_symop_operation_xyz
x,y,z
-x,-y,z
x,-y,1/2-z
-x,y,1/2-z
-x,-y,-z
x,y,-z
-x,y,1/2+z
x,-y,1/2+z
1/2+x,1/2+y,z
1/2-x,1/2-y,z
1/2+x,1/2-y,1/2-z
1/2-x,1/2+y,1/2-z
1/2-x,1/2-y,-z
1/2+x,1/2+y,-z
1/2-x,1/2+y,1/2+z
1/2+x,1/2-y,1/2+z
loop_
_atom_site_type_symbol
_atom_site_label
_atom_site_fract_x
_atom_site_fract_y
_atom_site_fract_z
Si Si1 0.383758 0.822868 0.760619
Si Si2 0.089191 0.463713 0.346059
Si Si3 0.275847 0.831110 0.894145
Si Si4 0.412455 0.344114 0.228759
Si Si5 0.011358 0.087751 0.610348
Si Si6 0.000000 0.500000 0.500000
Si Si7 0.791443 0.914981 0.762428
Si Si8 0.679279 0.075913 0.611727
O O1 0.419688 0.877379 0.827051
O O2 0.328542 0.816341 0.825809
O O3 0.411349 0.744492 0.739543
O O4 0.362967 0.867639 0.667674
O O5 0.073473 0.500000 0.250000
O O6 0.153330 0.493620 0.367206
O O7 0.049165 0.495664 0.421928
O O8 0.250000 0.750000 0.904203
O O9 0.233661 0.883217 0.834987
O O10 0.288950 0.858383 0.000000
O O11 0.437960 0.382659 0.322918
O O12 0.455150 0.370133 0.147264
O O13 0.347854 0.369741 0.211660
O O14 0.021870 0.100156 0.500000
O O15 0.000000 0.000000 0.624662
O O16 0.740463 0.913460 0.838998
O O17 0.808089 0.000000 0.750000
O O18 0.680803 0.087659 0.500000
#
# Coordination Sequence:
#
# PCOD9497230 Si02
#       8
#    16  16  16  16  16   4  16  16
#     4  10  22  39  62  88 128 164 202 260 317 377
#     4  10  22  42  60  90 126 166 217 263 318 368
#     4  10  20  36  59  88 125 164 205 254 313 377
#     4  11  22  42  62  92 125 157 202 257 317 374
#     4  10  23  45  67  86 117 161 202 252 312 373
#     4  12  22  40  68  90 118 174 224 272 306 386
#     4  11  22  36  62  94 122 160 208 259 314 380
#     4  10  21  41  62  87 126 172 209 254 312 373
#
# _framework density 19.089749999999999
#
# number of rings (size 3 to 8) (size 9 to 14) (size 15 to 20)
#    0.000    1.655    2.069    3.931    0.966    3.862 
#    9.931    0.690    0.000    0.000    0.000    0.000 
#    0.000    0.000    0.000    0.000    0.000    0.000 
#
# Total GULP energy -322873.727638 kJ/mol
# GULP energy per Si atom -5566.788408 kJ/mol
# Density = 1.904630 g / cm^3
# Si number density = 19.089750 Si / 1000 Ang^3
#
#
#
# Elastic Constant Matrix: (Units=GPa)
#
#
# Indices 1 2 3 4 5 6 
#
# 1 80.9772 21.7905 29.1112 0.0000 0.0000 0.0000
# 2 21.7905 100.7171 27.5443 0.0000 0.0000 0.0000
# 3 29.1112 27.5443 143.3903 0.0000 0.0000 0.0000
# 4 0.0000 0.0000 0.0000 26.2939 0.0000 0.0000
# 5 0.0000 0.0000 0.0000 0.0000 27.6391 0.0000
# 6 0.0000 0.0000 0.0000 0.0000 0.0000 20.3387
#
#
#
# Elastic Compliance Matrix: (Units=1/GPa)
#
#
# Indices 1 2 3 4 5 6 
#
# 1 0.013828 -0.002347 -0.002356 0.000000 0.000000 0.000000
# 2 -0.002347 0.010878 -0.001613 0.000000 0.000000 0.000000
# 3 -0.002356 -0.001613 0.007762 0.000000 0.000000 0.000000
# 4 0.000000 0.000000 0.000000 0.038032 0.000000 0.000000
# 5 0.000000 0.000000 0.000000 0.000000 0.036181 0.000000
# 6 0.000000 0.000000 0.000000 0.000000 0.000000 0.049167
#
#
# Mechanical properties :
#
#
# Convention : Reuss Voigt Hill
#
# Bulk Modulus (GPa) = 50.41730 53.55295 51.98513
# Shear Modulus (GPa) = 28.55635 31.29692 29.92663
#
# Velocity S-wave (km/s) = 3.87188 4.05342 3.96369
# Velocity P-wave (km/s) = 6.81591 7.07256 6.94542
#
# Compressibility (1/GPa) = 0.01983446
#
# Stress axis : x y z
#
# Youngs Moduli (GPa) = 72.31734 91.93062 128.82899
#
# Poissons Ratio (x) = 0.21579 0.30358
# Poissons Ratio (y) = 0.16975 0.20780
# Poissons Ratio (z) = 0.17041 0.14828
#
# Static dielectric constant tensor:
#      x y z
#    x 1.712480 0.000000 0.000000 
#    y 0.000000 1.943960 0.000000 
#    z 0.000000 0.000000 1.638920 
# 
# From -- ./inp_files/30352.got.cif
#   From: 2010.05.17/outbox.cif.g08.bks.cpg/sg66_16_cif.got.tgz:30352.got - 2010.06.03 17:51:23.
