data_PCOD9497561
_publ_section_title
;
Structure prediction by ZEFSAII (Michael W. Deem and Ramdas Pophale) SiO2 
 PCOD9497561
Probable space group: C C C M
;
_chemical_formula_sum "Si O2"
_cell_formula_units_Z 68
_cell_length_a 9.540068
_cell_length_b 18.132009
_cell_length_c 14.504813
_cell_angle_alpha 90.000000
_cell_angle_beta 90.000000
_cell_angle_gamma 90.000000
_cell_volume 2509.051239
_symmetry_space_group_name_H-M "C C C M"
_symmetry_group_IT_number 66
_symmetry_cell_setting 'orthorhombic'
loop_
_space_group_symop_operation_xyz
x,y,z
-x,-y,z
x,-y,1/2-z
-x,y,1/2-z
-x,-y,-z
x,y,-z
-x,y,1/2+z
x,-y,1/2+z
1/2+x,1/2+y,z
1/2-x,1/2-y,z
1/2+x,1/2-y,1/2-z
1/2-x,1/2+y,1/2-z
1/2-x,1/2-y,-z
1/2+x,1/2+y,-z
1/2-x,1/2+y,1/2+z
1/2+x,1/2-y,1/2+z
loop_
_atom_site_type_symbol
_atom_site_label
_atom_site_fract_x
_atom_site_fract_y
_atom_site_fract_z
Si Si1 0.520072 0.742292 0.142772
Si Si2 0.690805 0.051197 0.886910
Si Si3 0.750000 0.750000 0.500000
Si Si4 0.016170 0.083885 0.389087
Si Si5 0.113503 0.395076 0.890778
O O1 0.500000 0.753592 0.250000
O O2 0.378722 0.751502 0.079788
O O3 0.568105 0.656950 0.133798
O O4 0.625738 0.808211 0.118322
O O5 0.823459 0.098608 0.858342
O O6 0.543889 0.084317 0.856848
O O7 0.703550 0.965372 0.857029
O O8 0.692928 0.055658 0.000000
O O9 0.007039 0.079902 0.500000
O O10 0.000000 0.000000 0.356779
O O11 0.114641 0.408218 0.000000
#
# Coordination Sequence:
#
# PCOD9497561 Si02
#       5
#    16  16   4  16  16
#     4  12  25  42  74 113 142 198 268 306 386 481
#     4   8  16  31  62  98 131 186 242 293 378 452
#     4  12  24  52  82 102 160 212 232 338 400 450
#     4  10  20  38  64  95 140 200 250 303 386 458
#     4   9  16  34  64 101 138 176 239 320 369 437
#
# _framework density 27.101877999999999
#
# number of rings (size 3 to 8) (size 9 to 14) (size 15 to 20)
#    0.000    2.118    2.353    2.824    3.294    0.471 
#    4.235    2.353    5.176    6.353    0.000    0.000 
#    0.000    0.000    0.000    0.000    0.000    0.000 
#
# Total GULP energy -189333.068878 kJ/mol
# GULP energy per Si atom -5568.619673 kJ/mol
# Density = 2.704019 g / cm^3
# Si number density = 27.101878 Si / 1000 Ang^3
#
#
#
# Elastic Constant Matrix: (Units=GPa)
#
#
# Indices 1 2 3 4 5 6 
#
# 1 105.3378 68.1424 20.6389 0.0000 0.0000 0.0000
# 2 68.1424 234.0199 0.3010 0.0000 0.0000 0.0000
# 3 20.6389 0.3010 123.9852 0.0000 0.0000 0.0000
# 4 0.0000 0.0000 0.0000 73.0661 0.0000 0.0000
# 5 0.0000 0.0000 0.0000 0.0000 166.1931 0.0000
# 6 0.0000 0.0000 0.0000 0.0000 0.0000 42.8914
#
#
#
# Elastic Compliance Matrix: (Units=1/GPa)
#
#
# Indices 1 2 3 4 5 6 
#
# 1 0.012182 -0.003545 -0.002019 0.000000 0.000000 0.000000
# 2 -0.003545 0.005305 0.000577 0.000000 0.000000 0.000000
# 3 -0.002019 0.000577 0.008400 0.000000 0.000000 0.000000
# 4 0.000000 0.000000 0.000000 0.013686 0.000000 0.000000
# 5 0.000000 0.000000 0.000000 0.000000 0.006017 0.000000
# 6 0.000000 0.000000 0.000000 0.000000 0.000000 0.023315
#
#
# Mechanical properties :
#
#
# Convention : Reuss Voigt Hill
#
# Bulk Modulus (GPa) = 62.84031 71.27859 67.05945
# Shear Modulus (GPa) = 59.39499 81.38083 70.38791
#
# Velocity S-wave (km/s) = 4.68647 5.48570 5.10176
# Velocity P-wave (km/s) = 7.24714 8.15360 7.71370
#
# Compressibility (1/GPa) = 0.01591335
#
# Stress axis : x y z
#
# Youngs Moduli (GPa) = 82.08948 188.51912 119.04476
#
# Poissons Ratio (x) = 0.66821 0.24038
# Poissons Ratio (y) = 0.29097 -0.06871
# Poissons Ratio (z) = 0.16576 -0.10880
#
# Static dielectric constant tensor:
#      x y z
#    x 2.133000 0.000000 0.000000 
#    y 0.000000 2.244490 0.000000 
#    z 0.000000 0.000000 1.997170 
# 
# From -- ./inp_files/26081.got.cif
#   From: 2010.05.17/outbox.cif.g08.bks.cpg/sg66_14_cif.got.tgz:26081.got - 2010.06.03 17:51:23.
