data_PCOD9497267
_publ_section_title
;
Structure prediction by ZEFSAII (Michael W. Deem and Ramdas Pophale) SiO2 
 PCOD9497267
Probable space group: C C C M
;
_chemical_formula_sum "Si O2"
_cell_formula_units_Z 88
_cell_length_a 22.031381
_cell_length_b 13.208490
_cell_length_c 15.503169
_cell_angle_alpha 90.000000
_cell_angle_beta 90.000000
_cell_angle_gamma 90.000000
_cell_volume 4511.441955
_symmetry_space_group_name_H-M "C C C M"
_symmetry_group_IT_number 66
_symmetry_cell_setting 'orthorhombic'
loop_
_space_group_symop_operation_xyz
x,y,z
-x,-y,z
x,-y,1/2-z
-x,y,1/2-z
-x,-y,-z
x,y,-z
-x,y,1/2+z
x,-y,1/2+z
1/2+x,1/2+y,z
1/2-x,1/2-y,z
1/2+x,1/2-y,1/2-z
1/2-x,1/2+y,1/2-z
1/2-x,1/2-y,-z
1/2+x,1/2+y,-z
1/2-x,1/2+y,1/2+z
1/2+x,1/2-y,1/2+z
loop_
_atom_site_type_symbol
_atom_site_label
_atom_site_fract_x
_atom_site_fract_y
_atom_site_fract_z
Si Si1 0.064465 0.449799 0.894322
Si Si2 0.853898 0.887712 0.760483
Si Si3 0.075972 0.815958 0.904779
Si Si4 0.566896 0.283966 0.600265
Si Si5 0.656405 0.116954 0.099199
Si Si6 0.250000 0.250000 0.704728
O O1 0.071320 0.332798 0.867705
O O2 0.121896 0.517687 0.866165
O O3 0.000000 0.500000 0.867239
O O4 0.063628 0.451149 0.000000
O O5 0.894063 0.872036 0.674636
O O6 0.895293 0.860817 0.841825
O O7 0.799572 0.808429 0.759441
O O8 0.829349 0.000000 0.750000
O O9 0.103872 0.702968 0.902074
O O10 0.004030 0.811316 0.896096
O O11 0.091340 0.857992 0.000000
O O12 0.585811 0.286798 0.500000
O O13 0.712846 0.167664 0.148011
O O14 0.674573 0.097826 0.000000
#
# Coordination Sequence:
#
# PCOD9497267 Si02
#       6
#    16  16  16  16  16   8
#     4   9  15  28  56  92 125 152 181 237 311 373
#     4  11  25  42  59  81 116 157 199 252 301 348
#     4   9  18  35  61  89 118 150 190 240 293 361
#     4  10  20  36  60  91 125 155 190 239 304 368
#     4   9  16  31  58  89 117 151 196 247 302 355
#     4  10  23  40  57  76 110 160 214 258 286 346
#
# _framework density 19.505958
#
# number of rings (size 3 to 8) (size 9 to 14) (size 15 to 20)
#    0.000    2.364    1.818    0.818    0.000    4.364 
#    0.000    5.000    0.000    0.000    0.000    0.000 
#    0.000    0.000    0.000    0.000    0.000    0.000 
#
# Total GULP energy -245499.236471 kJ/mol
# GULP energy per Si atom -5579.528102 kJ/mol
# Density = 1.946156 g / cm^3
# Si number density = 19.505958 Si / 1000 Ang^3
#
#
#
# Elastic Constant Matrix: (Units=GPa)
#
#
# Indices 1 2 3 4 5 6 
#
# 1 70.3406 1.2802 24.6850 0.0000 0.0000 0.0000
# 2 1.2802 45.5030 12.6436 0.0000 0.0000 0.0000
# 3 24.6850 12.6436 52.3304 0.0000 0.0000 0.0000
# 4 0.0000 0.0000 0.0000 19.4018 0.0000 0.0000
# 5 0.0000 0.0000 0.0000 0.0000 -22.4570 0.0000
# 6 0.0000 0.0000 0.0000 0.0000 0.0000 10.4286
#
#
#
# Elastic Compliance Matrix: (Units=1/GPa)
#
#
# Indices 1 2 3 4 5 6 
#
# 1 0.017188 0.001897 -0.008566 0.000000 0.000000 0.000000
# 2 0.001897 0.023767 -0.006637 0.000000 0.000000 0.000000
# 3 -0.008566 -0.006637 0.024754 0.000000 0.000000 0.000000
# 4 0.000000 0.000000 0.000000 0.051542 0.000000 0.000000
# 5 0.000000 0.000000 0.000000 0.000000 -0.044530 0.000000
# 6 0.000000 0.000000 0.000000 0.000000 0.000000 0.095890
#
#
# Mechanical properties :
#
#
# Convention : Reuss Voigt Hill
#
# Bulk Modulus (GPa) = 25.57807 27.26576 26.42191
# Shear Modulus (GPa) = 24.00880 10.11236 17.06058
#
# Velocity S-wave (km/s) = 3.51215 2.27936 2.96063
# Velocity P-wave (km/s) = 5.43951 4.57557 5.02614
#
# Compressibility (1/GPa) = 0.03909599
#
# Stress axis : x y z
#
# Youngs Moduli (GPa) = 58.17948 42.07440 40.39790
#
# Poissons Ratio (x) = -0.07980 0.34606
# Poissons Ratio (y) = -0.11034 0.26813
# Poissons Ratio (z) = 0.49838 0.27925
#
# Static dielectric constant tensor:
#      x y z
#    x 1.649230 0.000000 0.000000 
#    y 0.000000 1.701020 0.000000 
#    z 0.000000 0.000000 1.687760 
# 
# From -- ./inp_files/32215.got.cif
#   From: 2010.05.17/outbox.cif.g08.bks.cpg/sg66_17_cif.got.tgz:32215.got - 2010.06.03 17:51:23.
