data_PCOD9497468
_publ_section_title
;
Structure prediction by ZEFSAII (Michael W. Deem and Ramdas Pophale) SiO2 
 PCOD9497468
Probable space group: C C C M
;
_chemical_formula_sum "Si O2"
_cell_formula_units_Z 56
_cell_length_a 5.140225
_cell_length_b 20.163923
_cell_length_c 26.635632
_cell_angle_alpha 90.000000
_cell_angle_beta 90.000000
_cell_angle_gamma 90.000000
_cell_volume 2760.706043
_symmetry_space_group_name_H-M "C C C M"
_symmetry_group_IT_number 66
_symmetry_cell_setting 'orthorhombic'
loop_
_space_group_symop_operation_xyz
x,y,z
-x,-y,z
x,-y,1/2-z
-x,y,1/2-z
-x,-y,-z
x,y,-z
-x,y,1/2+z
x,-y,1/2+z
1/2+x,1/2+y,z
1/2-x,1/2-y,z
1/2+x,1/2-y,1/2-z
1/2-x,1/2+y,1/2-z
1/2-x,1/2-y,-z
1/2+x,1/2+y,-z
1/2-x,1/2+y,1/2+z
1/2+x,1/2-y,1/2+z
loop_
_atom_site_type_symbol
_atom_site_label
_atom_site_fract_x
_atom_site_fract_y
_atom_site_fract_z
Si Si1 0.419053 0.354366 0.608489
Si Si2 0.250000 0.750000 0.179826
Si Si3 0.497870 0.703161 0.000000
Si Si4 0.405878 0.075033 0.148475
Si Si5 0.500000 0.141136 0.750000
O O1 0.449742 0.286812 0.641850
O O2 0.474360 0.338671 0.550840
O O3 0.627507 0.408576 0.625353
O O4 0.127868 0.379981 0.621192
O O5 0.325818 0.808901 0.217442
O O6 0.750000 0.750000 0.000000
O O7 0.250000 0.750000 0.000000
O O8 0.379129 0.095621 0.206922
O O9 0.500000 0.000000 0.144149
#
# Coordination Sequence:
#
# PCOD9497468 Si02
#       5
#    16   8   8  16   8
#     4  11  24  41  66  96 129 162 213 269 323 378
#     4  10  20  37  64  98 132 159 212 268 340 366
#     4  12  24  42  69 100 127 160 204 263 333 392
#     4  11  24  43  63  91 131 177 217 256 304 377
#     4  10  21  36  64  92 129 170 214 260 314 380
#
# _framework density 20.284666999999999
#
# number of rings (size 3 to 8) (size 9 to 14) (size 15 to 20)
#    0.000    1.143    1.429    4.714    4.000    3.429 
#    0.000   10.000    0.000    0.000    0.000    0.000 
#    0.000    0.000    0.000    0.000    0.000    0.000 
#
# Total GULP energy -156292.281672 kJ/mol
# GULP energy per Si atom -5581.867203 kJ/mol
# Density = 2.023850 g / cm^3
# Si number density = 20.284667 Si / 1000 Ang^3
#
#
#
# Elastic Constant Matrix: (Units=GPa)
#
#
# Indices 1 2 3 4 5 6 
#
# 1 58.9860 2.3139 9.4790 0.0000 0.0000 0.0000
# 2 2.3139 87.8490 30.4889 0.0000 0.0000 0.0000
# 3 9.4790 30.4889 174.6323 0.0000 0.0000 0.0000
# 4 0.0000 0.0000 0.0000 6.8452 0.0000 0.0000
# 5 0.0000 0.0000 0.0000 0.0000 10.4481 0.0000
# 6 0.0000 0.0000 0.0000 0.0000 0.0000 41.4091
#
#
#
# Elastic Compliance Matrix: (Units=1/GPa)
#
#
# Indices 1 2 3 4 5 6 
#
# 1 0.017104 -0.000137 -0.000905 0.000000 0.000000 0.000000
# 2 -0.000137 0.012118 -0.002108 0.000000 0.000000 0.000000
# 3 -0.000905 -0.002108 0.006144 0.000000 0.000000 0.000000
# 4 0.000000 0.000000 0.000000 0.146088 0.000000 0.000000
# 5 0.000000 0.000000 0.000000 0.000000 0.095711 0.000000
# 6 0.000000 0.000000 0.000000 0.000000 0.000000 0.024149
#
#
# Mechanical properties :
#
#
# Convention : Reuss Voigt Hill
#
# Bulk Modulus (GPa) = 34.40333 45.11454 39.75894
# Shear Modulus (GPa) = 15.75788 30.35285 23.05536
#
# Velocity S-wave (km/s) = 2.79020 3.87246 3.37499
# Velocity P-wave (km/s) = 5.23234 6.50258 5.90174
#
# Compressibility (1/GPa) = 0.02906695
#
# Stress axis : x y z
#
# Youngs Moduli (GPa) = 58.46625 82.51854 162.77339
#
# Poissons Ratio (x) = 0.01127 0.14724
# Poissons Ratio (y) = 0.00798 0.34318
# Poissons Ratio (z) = 0.05289 0.17398
#
# Static dielectric constant tensor:
#      x y z
#    x 1.751790 0.000000 0.000000 
#    y 0.000000 1.756300 0.000000 
#    z 0.000000 0.000000 1.341620 
# 
# From -- ./inp_files/53918.got.cif
#   From: 2010.05.17/outbox.cif.g08.bks.cpg/sg66_27_cif.got.tgz:53918.got - 2010.06.03 17:51:23.
