data_PCOD9497165
_publ_section_title
;
Structure prediction by ZEFSAII (Michael W. Deem and Ramdas Pophale) SiO2 
 PCOD9497165
Probable space group: C C C M
;
_chemical_formula_sum "Si O2"
_cell_formula_units_Z 116
_cell_length_a 23.227475
_cell_length_b 28.945034
_cell_length_c 8.881585
_cell_angle_alpha 90.000000
_cell_angle_beta 90.000000
_cell_angle_gamma 90.000000
_cell_volume 5971.267703
_symmetry_space_group_name_H-M "C C C M"
_symmetry_group_IT_number 66
_symmetry_cell_setting 'orthorhombic'
loop_
_space_group_symop_operation_xyz
x,y,z
-x,-y,z
x,-y,1/2-z
-x,y,1/2-z
-x,-y,-z
x,y,-z
-x,y,1/2+z
x,-y,1/2+z
1/2+x,1/2+y,z
1/2-x,1/2-y,z
1/2+x,1/2-y,1/2-z
1/2-x,1/2+y,1/2-z
1/2-x,1/2-y,-z
1/2+x,1/2+y,-z
1/2-x,1/2+y,1/2+z
1/2+x,1/2-y,1/2+z
loop_
_atom_site_type_symbol
_atom_site_label
_atom_site_fract_x
_atom_site_fract_y
_atom_site_fract_z
Si Si1 0.560529 0.863748 0.680926
Si Si2 0.560582 0.762403 0.820604
Si Si3 0.218945 0.049194 0.821332
Si Si4 0.619733 0.676449 0.678766
Si Si5 0.316417 0.886541 0.818331
Si Si6 0.751772 0.198193 0.181000
Si Si7 0.598480 0.425549 0.826298
Si Si8 0.000000 0.000000 0.750000
O O1 0.500000 0.879813 0.750000
O O2 0.555987 0.860636 0.500000
O O3 0.571177 0.812231 0.745795
O O4 0.616719 0.893996 0.719196
O O5 0.500000 0.747036 0.750000
O O6 0.602363 0.721428 0.771394
O O7 0.557618 0.767180 0.000000
O O8 0.268096 0.082483 0.757221
O O9 0.153385 0.060543 0.772406
O O10 0.231820 0.000000 0.750000
O O11 0.221461 0.048327 0.000000
O O12 0.612025 0.685865 0.500000
O O13 0.688073 0.671940 0.708247
O O14 0.586745 0.628447 0.714078
O O15 0.299961 0.834331 0.770581
O O16 0.310554 0.890044 0.000000
O O17 0.750000 0.250000 0.243659
O O18 0.747153 0.202251 0.000000
O O19 0.546093 0.462420 0.817560
O O20 0.618037 0.424631 0.000000
#
# Coordination Sequence:
#
# PCOD9497165 Si02
#       8
#    16  16  16  16  16  16  16   4
#     4  10  20  36  62  91 125 165 204 248 296 360
#     4  11  22  36  54  79 116 160 208 256 301 360
#     4  12  25  42  67  93 124 159 201 255 313 374
#     4  10  20  36  56  79 114 156 198 251 311 371
#     4  10  20  38  63  91 122 161 207 249 305 371
#     4   9  16  29  54  85 116 153 197 241 291 362
#     4  11  24  43  64  88 119 155 203 262 322 380
#     4  12  26  40  68  98 118 156 212 272 330 380
#
# _framework density 19.426361
#
# number of rings (size 3 to 8) (size 9 to 14) (size 15 to 20)
#    0.000    1.517    2.069    4.759    0.966    4.414 
#    0.000    0.000    0.000    2.069    0.000    2.897 
#    0.000    0.000    0.000    0.000    0.000    0.000 
#
# Total GULP energy -323364.198660 kJ/mol
# GULP energy per Si atom -5575.244804 kJ/mol
# Density = 1.938215 g / cm^3
# Si number density = 19.426361 Si / 1000 Ang^3
#
#
#
# Elastic Constant Matrix: (Units=GPa)
#
#
# Indices 1 2 3 4 5 6 
#
# 1 119.9967 30.8557 49.1415 0.0000 0.0000 0.0000
# 2 30.8557 58.5095 21.3409 0.0000 0.0000 0.0000
# 3 49.1415 21.3409 79.1582 0.0000 0.0000 0.0000
# 4 0.0000 0.0000 0.0000 54.5409 0.0000 0.0000
# 5 0.0000 0.0000 0.0000 0.0000 23.1345 0.0000
# 6 0.0000 0.0000 0.0000 0.0000 0.0000 15.5463
#
#
#
# Elastic Compliance Matrix: (Units=1/GPa)
#
#
# Indices 1 2 3 4 5 6 
#
# 1 0.011960 -0.003992 -0.006349 0.000000 0.000000 0.000000
# 2 -0.003992 0.020287 -0.002991 0.000000 0.000000 0.000000
# 3 -0.006349 -0.002991 0.017381 0.000000 0.000000 0.000000
# 4 0.000000 0.000000 0.000000 0.018335 0.000000 0.000000
# 5 0.000000 0.000000 0.000000 0.000000 0.043226 0.000000
# 6 0.000000 0.000000 0.000000 0.000000 0.000000 0.064324
#
#
# Mechanical properties :
#
#
# Convention : Reuss Voigt Hill
#
# Bulk Modulus (GPa) = 43.54520 51.14892 47.34706
# Shear Modulus (GPa) = 23.82879 29.06609 26.44744
#
# Velocity S-wave (km/s) = 3.50611 3.87230 3.69375
# Velocity P-wave (km/s) = 6.23335 6.81026 6.52818
#
# Compressibility (1/GPa) = 0.02296464
#
# Stress axis : x y z
#
# Youngs Moduli (GPa) = 83.61326 49.29176 57.53546
#
# Poissons Ratio (x) = 0.19675 0.36527
# Poissons Ratio (y) = 0.33375 0.17211
# Poissons Ratio (z) = 0.53082 0.14745
#
# Static dielectric constant tensor:
#      x y z
#    x 1.691990 0.000000 0.000000 
#    y 0.000000 1.692420 0.000000 
#    z 0.000000 0.000000 1.656900 
# 
# From -- ./inp_files/9424.got.cif
#   From: 2010.05.17/outbox.cif.g08.bks.cpg/sg66_5_cif.got.tgz:9424.got - 2010.06.03 17:51:23.
