data_PCOD9497469
_publ_section_title
;
Structure prediction by ZEFSAII (Michael W. Deem and Ramdas Pophale) SiO2 
 PCOD9497469
Probable space group: C C C M
;
_chemical_formula_sum "Si O2"
_cell_formula_units_Z 88
_cell_length_a 34.753267
_cell_length_b 5.185210
_cell_length_c 25.445742
_cell_angle_alpha 90.000000
_cell_angle_beta 90.000000
_cell_angle_gamma 90.000000
_cell_volume 4585.398730
_symmetry_space_group_name_H-M "C C C M"
_symmetry_group_IT_number 66
_symmetry_cell_setting 'orthorhombic'
loop_
_space_group_symop_operation_xyz
x,y,z
-x,-y,z
x,-y,1/2-z
-x,y,1/2-z
-x,-y,-z
x,y,-z
-x,y,1/2+z
x,-y,1/2+z
1/2+x,1/2+y,z
1/2-x,1/2-y,z
1/2+x,1/2-y,1/2-z
1/2-x,1/2+y,1/2-z
1/2-x,1/2-y,-z
1/2+x,1/2+y,-z
1/2-x,1/2+y,1/2+z
1/2+x,1/2-y,1/2+z
loop_
_atom_site_type_symbol
_atom_site_label
_atom_site_fract_x
_atom_site_fract_y
_atom_site_fract_z
Si Si1 0.190621 0.110790 0.500000
Si Si2 0.026556 0.751818 0.000000
Si Si3 0.088638 0.645526 0.913679
Si Si4 0.102433 0.548612 0.693849
Si Si5 0.639299 0.885647 0.000000
Si Si6 0.274728 0.507829 0.886395
Si Si7 0.858460 0.061909 0.158121
O O1 0.156835 0.896995 0.500000
O O2 0.214603 0.060635 0.552691
O O3 0.173209 0.399034 0.500000
O O4 0.054133 0.744211 0.050860
O O5 0.000000 0.500000 0.000000
O O6 0.000000 0.000000 0.000000
O O7 0.077508 0.513827 0.858234
O O8 0.113324 0.449371 0.949285
O O9 0.117787 0.870261 0.895094
O O10 0.083311 0.500000 0.750000
O O11 0.120214 0.830008 0.687215
O O12 0.136164 0.331178 0.689183
O O13 0.250000 0.250000 0.882049
O O14 0.315129 0.493118 0.855956
O O15 0.250000 0.750000 0.867115
#
# Coordination Sequence:
#
# PCOD9497469 Si02
#       7
#     8   8  16  16   8  16  16
#     4  12  20  34  46  77 108 151 197 244 296 354
#     4  11  26  41  62  99 135 169 190 230 291 367
#     4   9  23  37  65  88 122 159 201 241 294 356
#     4  10  20  37  65  94 112 146 211 266 294 339
#     4  11  20  33  58  80 115 143 199 239 293 352
#     4  12  23  35  51  77 118 158 199 254 310 365
#     4  10  21  37  60  85 112 157 203 251 306 354
#
# _framework density 19.191351999999998
#
# number of rings (size 3 to 8) (size 9 to 14) (size 15 to 20)
#    1.091    0.364    1.818    4.364    2.545    1.455 
#    0.000    0.000    0.000   11.455    0.000    0.000 
#    0.000    0.000    0.000    0.000    0.000    0.000 
#
# Total GULP energy -245520.620790 kJ/mol
# GULP energy per Si atom -5580.014109 kJ/mol
# Density = 1.914767 g / cm^3
# Si number density = 19.191352 Si / 1000 Ang^3
#
#
#
# Elastic Constant Matrix: (Units=GPa)
#
#
# Indices 1 2 3 4 5 6 
#
# 1 68.9745 6.8851 20.5343 0.0000 0.0000 0.0000
# 2 6.8851 70.0925 9.9424 0.0000 0.0000 0.0000
# 3 20.5343 9.9424 105.0874 0.0000 0.0000 0.0000
# 4 0.0000 0.0000 0.0000 0.9679 0.0000 0.0000
# 5 0.0000 0.0000 0.0000 0.0000 -2.1281 0.0000
# 6 0.0000 0.0000 0.0000 0.0000 0.0000 20.9955
#
#
#
# Elastic Compliance Matrix: (Units=1/GPa)
#
#
# Indices 1 2 3 4 5 6 
#
# 1 0.015478 -0.001106 -0.002920 0.000000 0.000000 0.000000
# 2 -0.001106 0.014540 -0.001159 0.000000 0.000000 0.000000
# 3 -0.002920 -0.001159 0.010196 0.000000 0.000000 0.000000
# 4 0.000000 0.000000 0.000000 1.033142 0.000000 0.000000
# 5 0.000000 0.000000 0.000000 0.000000 -0.469897 0.000000
# 6 0.000000 0.000000 0.000000 0.000000 0.000000 0.047629
#
#
# Mechanical properties :
#
#
# Convention : Reuss Voigt Hill
#
# Bulk Modulus (GPa) = 33.50867 35.43089 34.46978
# Shear Modulus (GPa) = 7.44706 17.75323 12.60014
#
# Velocity S-wave (km/s) = 1.97202 3.04479 2.56511
# Velocity P-wave (km/s) = 4.76270 5.55544 5.17428
#
# Compressibility (1/GPa) = 0.02984302
#
# Stress axis : x y z
#
# Youngs Moduli (GPa) = 64.60886 68.77580 98.07661
#
# Poissons Ratio (x) = 0.07608 0.28636
# Poissons Ratio (y) = 0.07147 0.11372
# Poissons Ratio (z) = 0.18864 0.07974
#
# Static dielectric constant tensor:
#      x y z
#    x 1.639550 0.000000 0.000000 
#    y 0.000000 1.663290 0.000000 
#    z 0.000000 0.000000 1.719740 
# 
# From -- ./inp_files/66419.got.cif
#   From: 2010.05.17/outbox.cif.g08.bks.cpg/sg66_34_cif.got.tgz:66419.got - 2010.06.03 17:51:23.
