data_PCOD9497253
_publ_section_title
;
Structure prediction by ZEFSAII (Michael W. Deem and Ramdas Pophale) SiO2 
 PCOD9497253
Probable space group: C C C M
;
_chemical_formula_sum "Si O2"
_cell_formula_units_Z 64
_cell_length_a 9.978783
_cell_length_b 17.735129
_cell_length_c 15.007338
_cell_angle_alpha 90.000000
_cell_angle_beta 90.000000
_cell_angle_gamma 90.000000
_cell_volume 2655.923699
_symmetry_space_group_name_H-M "C C C M"
_symmetry_group_IT_number 66
_symmetry_cell_setting 'orthorhombic'
loop_
_space_group_symop_operation_xyz
x,y,z
-x,-y,z
x,-y,1/2-z
-x,y,1/2-z
-x,-y,-z
x,y,-z
-x,y,1/2+z
x,-y,1/2+z
1/2+x,1/2+y,z
1/2-x,1/2-y,z
1/2+x,1/2-y,1/2-z
1/2-x,1/2+y,1/2-z
1/2-x,1/2-y,-z
1/2+x,1/2+y,-z
1/2-x,1/2+y,1/2+z
1/2+x,1/2-y,1/2+z
loop_
_atom_site_type_symbol
_atom_site_label
_atom_site_fract_x
_atom_site_fract_y
_atom_site_fract_z
Si Si1 0.848558 0.988938 0.144786
Si Si2 0.917744 0.569181 0.603599
Si Si3 0.842894 0.818338 0.892755
Si Si4 0.400620 0.235659 0.609244
O O1 0.803004 0.902942 0.129793
O O2 0.852880 0.000000 0.250000
O O3 0.738583 0.046364 0.106969
O O4 0.000000 0.000000 0.109082
O O5 0.959578 0.574237 0.500000
O O6 0.941911 0.652261 0.640611
O O7 0.000000 0.500000 0.644637
O O8 0.750000 0.750000 0.860199
O O9 0.993633 0.798671 0.862628
O O10 0.840710 0.814731 0.000000
O O11 0.399794 0.234888 0.500000
O O12 0.250000 0.250000 0.638603
#
# Coordination Sequence:
#
# PCOD9497253 Si02
#       4
#    16  16  16  16
#     4  11  24  40  56  84 124 164 204 241 290 358
#     4  10  20  36  60  88 115 147 193 247 298 349
#     4  10  20  37  62  88 114 149 197 251 301 349
#     4   9  17  30  52  83 111 137 178 232 288 340
#
# _framework density 24.097078
#
# number of rings (size 3 to 8) (size 9 to 14) (size 15 to 20)
#    0.000    2.000    0.000    3.750    0.000    8.500 
#    0.000    6.250    0.000    0.000    0.000    0.000 
#    0.000    0.000    0.000    0.000    0.000    0.000 
#
# Total GULP energy -179038.829432 kJ/mol
# GULP energy per Si atom -5594.963420 kJ/mol
# Density = 2.404223 g / cm^3
# Si number density = 24.097078 Si / 1000 Ang^3
#
#
#
# Elastic Constant Matrix: (Units=GPa)
#
#
# Indices 1 2 3 4 5 6 
#
# 1 51.0997 -21.5959 -0.9547 0.0000 0.0000 0.0000
# 2 -21.5959 85.4045 5.1946 0.0000 0.0000 0.0000
# 3 -0.9547 5.1946 59.6508 0.0000 0.0000 0.0000
# 4 0.0000 0.0000 0.0000 17.7798 0.0000 0.0000
# 5 0.0000 0.0000 0.0000 0.0000 12.6328 0.0000
# 6 0.0000 0.0000 0.0000 0.0000 0.0000 41.8578
#
#
#
# Elastic Compliance Matrix: (Units=1/GPa)
#
#
# Indices 1 2 3 4 5 6 
#
# 1 0.021912 0.005549 -0.000133 0.000000 0.000000 0.000000
# 2 0.005549 0.013176 -0.001059 0.000000 0.000000 0.000000
# 3 -0.000133 -0.001059 0.016854 0.000000 0.000000 0.000000
# 4 0.000000 0.000000 0.000000 0.056244 0.000000 0.000000
# 5 0.000000 0.000000 0.000000 0.000000 0.079159 0.000000
# 6 0.000000 0.000000 0.000000 0.000000 0.000000 0.023890
#
#
# Mechanical properties :
#
#
# Convention : Reuss Voigt Hill
#
# Bulk Modulus (GPa) = 16.48574 17.93811 17.21192
# Shear Modulus (GPa) = 22.44772 28.68816 25.56794
#
# Velocity S-wave (km/s) = 3.05545 3.45414 3.26089
# Velocity P-wave (km/s) = 4.39362 4.83409 4.61911
#
# Compressibility (1/GPa) = 0.06065850
#
# Stress axis : x y z
#
# Youngs Moduli (GPa) = 45.63668 75.89271 59.33198
#
# Poissons Ratio (x) = -0.42112 0.00786
# Poissons Ratio (y) = -0.25323 0.06281
# Poissons Ratio (z) = 0.00605 0.08034
#
# Static dielectric constant tensor:
#      x y z
#    x 1.937610 0.000000 0.000000 
#    y 0.000000 1.878880 0.000000 
#    z 0.000000 0.000000 1.865450 
# 
# From -- ./inp_files/38005.got.cif
#   From: 2010.05.17/outbox.cif.g08.bks.cpg/sg66_20_cif.got.tgz:38005.got - 2010.06.03 17:51:23.
