data_PCOD9497775
_publ_section_title
;
Structure prediction by ZEFSAII (Michael W. Deem and Ramdas Pophale) SiO2 
 PCOD9497775
Probable space group: C C C M
;
_chemical_formula_sum "Si O2"
_cell_formula_units_Z 88
_cell_length_a 21.108756
_cell_length_b 18.688714
_cell_length_c 9.602591
_cell_angle_alpha 90.000000
_cell_angle_beta 90.000000
_cell_angle_gamma 90.000000
_cell_volume 3788.178974
_symmetry_space_group_name_H-M "C C C M"
_symmetry_group_IT_number 66
_symmetry_cell_setting 'orthorhombic'
loop_
_space_group_symop_operation_xyz
x,y,z
-x,-y,z
x,-y,1/2-z
-x,y,1/2-z
-x,-y,-z
x,y,-z
-x,y,1/2+z
x,-y,1/2+z
1/2+x,1/2+y,z
1/2-x,1/2-y,z
1/2+x,1/2-y,1/2-z
1/2-x,1/2+y,1/2-z
1/2-x,1/2-y,-z
1/2+x,1/2+y,-z
1/2-x,1/2+y,1/2+z
1/2+x,1/2-y,1/2+z
loop_
_atom_site_type_symbol
_atom_site_label
_atom_site_fract_x
_atom_site_fract_y
_atom_site_fract_z
Si Si1 0.906896 0.432005 0.840197
Si Si2 0.018945 0.239014 0.500000
Si Si3 0.185144 0.826757 0.657113
Si Si4 0.413215 0.225725 0.232668
Si Si5 0.938671 0.926889 0.834552
Si Si6 0.754266 0.432411 0.157080
O O1 0.927672 0.500000 0.750000
O O2 0.922137 0.358236 0.763427
O O3 0.830432 0.434791 0.848488
O O4 0.931403 0.430930 0.000000
O O5 0.072847 0.236188 0.378130
O O6 0.963687 0.250747 0.381437
O O7 0.210327 0.832987 0.500000
O O8 0.156883 0.748328 0.683891
O O9 0.121952 0.876404 0.667512
O O10 0.231527 0.860251 0.769599
O O11 0.000000 0.898365 0.750000
O O12 0.924860 0.000000 0.750000
O O13 0.954729 0.936049 0.000000
O O14 0.733363 0.500000 0.250000
O O15 0.729345 0.438889 0.000000
#
# Coordination Sequence:
#
# PCOD9497775 Si02
#       6
#    16   8  16  16  16  16
#     4  10  23  44  69  95 127 163 207 261 324 386
#     4  10  24  42  67  88 135 166 206 258 320 380
#     4  11  24  38  60  90 125 167 210 260 308 370
#     4  11  23  44  64  97 126 169 210 260 315 386
#     4  10  21  35  51  77 111 151 202 251 301 357
#     4  10  22  41  65  93 127 169 212 263 319 374
#
# _framework density 23.230160000000001
#
# number of rings (size 3 to 8) (size 9 to 14) (size 15 to 20)
#    0.000    1.636    1.818    2.182    5.091    4.364 
#    0.000    5.455    0.000    0.000    0.000    0.000 
#    0.000    0.000    0.000    0.000    0.000    0.000 
#
# Total GULP energy -245136.299956 kJ/mol
# GULP energy per Si atom -5571.279544 kJ/mol
# Density = 2.317729 g / cm^3
# Si number density = 23.230160 Si / 1000 Ang^3
#
#
#
# Elastic Constant Matrix: (Units=GPa)
#
#
# Indices 1 2 3 4 5 6 
#
# 1 42.6017 13.9548 24.4015 0.0000 0.0000 0.0000
# 2 13.9548 95.8642 34.5925 0.0000 0.0000 0.0000
# 3 24.4015 34.5925 218.1163 0.0000 0.0000 0.0000
# 4 0.0000 0.0000 0.0000 -28.7795 0.0000 0.0000
# 5 0.0000 0.0000 0.0000 0.0000 47.5566 0.0000
# 6 0.0000 0.0000 0.0000 0.0000 0.0000 74.0926
#
#
#
# Elastic Compliance Matrix: (Units=1/GPa)
#
#
# Indices 1 2 3 4 5 6 
#
# 1 0.025809 -0.002880 -0.002431 0.000000 0.000000 0.000000
# 2 -0.002880 0.011386 -0.001484 0.000000 0.000000 0.000000
# 3 -0.002431 -0.001484 0.005092 0.000000 0.000000 0.000000
# 4 0.000000 0.000000 0.000000 -0.034747 0.000000 0.000000
# 5 0.000000 0.000000 0.000000 0.000000 0.021028 0.000000
# 6 0.000000 0.000000 0.000000 0.000000 0.000000 0.013497
#
#
# Mechanical properties :
#
#
# Convention : Reuss Voigt Hill
#
# Bulk Modulus (GPa) = 34.84490 55.83110 45.33800
# Shear Modulus (GPa) = 76.66556 37.48282 57.07419
#
# Velocity S-wave (km/s) = 5.75102 4.02125 4.96209
# Velocity P-wave (km/s) = 7.68969 6.75623 7.23803
#
# Compressibility (1/GPa) = 0.02869861
#
# Stress axis : x y z
#
# Youngs Moduli (GPa) = 38.74645 87.82722 196.38947
#
# Poissons Ratio (x) = 0.25293 0.47734
# Poissons Ratio (y) = 0.11158 0.29136
# Poissons Ratio (z) = 0.09418 0.13030
#
# Static dielectric constant tensor:
#      x y z
#    x 1.902440 0.000000 0.000000 
#    y 0.000000 1.950530 0.000000 
#    z 0.000000 0.000000 1.474090 
# 
# From -- ./inp_files/8970.got.cif
#   From: 2010.05.17/outbox.cif.g08.bks.cpg/sg66_5_cif.got.tgz:8970.got - 2010.06.03 17:51:23.
