data_PCOD9497489
_publ_section_title
;
Structure prediction by ZEFSAII (Michael W. Deem and Ramdas Pophale) SiO2 
 PCOD9497489
Probable space group: C C C M
;
_chemical_formula_sum "Si O2"
_cell_formula_units_Z 88
_cell_length_a 25.649277
_cell_length_b 13.839250
_cell_length_c 13.538516
_cell_angle_alpha 90.000000
_cell_angle_beta 90.000000
_cell_angle_gamma 90.000000
_cell_volume 4805.723115
_symmetry_space_group_name_H-M "C C C M"
_symmetry_group_IT_number 66
_symmetry_cell_setting 'orthorhombic'
loop_
_space_group_symop_operation_xyz
x,y,z
-x,-y,z
x,-y,1/2-z
-x,y,1/2-z
-x,-y,-z
x,y,-z
-x,y,1/2+z
x,-y,1/2+z
1/2+x,1/2+y,z
1/2-x,1/2-y,z
1/2+x,1/2-y,1/2-z
1/2-x,1/2+y,1/2-z
1/2-x,1/2-y,-z
1/2+x,1/2+y,-z
1/2-x,1/2+y,1/2+z
1/2+x,1/2-y,1/2+z
loop_
_atom_site_type_symbol
_atom_site_label
_atom_site_fract_x
_atom_site_fract_y
_atom_site_fract_z
Si Si1 0.386121 0.098364 0.688289
Si Si2 0.841917 0.107905 0.289519
Si Si3 0.944040 0.775951 0.202853
Si Si4 0.439314 0.017495 0.500000
Si Si5 0.811539 0.749597 0.388951
Si Si6 0.415947 0.799350 0.500000
Si Si7 0.805283 0.809502 0.000000
O O1 0.415098 0.184726 0.745713
O O2 0.422410 0.072714 0.596937
O O3 0.333657 0.145945 0.645499
O O4 0.378031 0.000000 0.750000
O O5 0.903248 0.135345 0.300090
O O6 0.824427 0.177130 0.199546
O O7 0.813250 0.131981 0.395178
O O8 0.834203 0.000000 0.250000
O O9 0.000000 0.796382 0.250000
O O10 0.948175 0.738498 0.092292
O O11 0.500000 0.000000 0.500000
O O12 0.411691 0.913858 0.500000
O O13 0.832894 0.772267 0.500000
O O14 0.750000 0.750000 0.396657
O O15 0.356790 0.758890 0.500000
O O16 0.750000 0.750000 0.000000
#
# Coordination Sequence:
#
# PCOD9497489 Si02
#       7
#    16  16  16   8  16   8   8
#     4  11  22  36  58  89 122 157 203 251 303 381
#     4  10  23  41  64  91 121 159 211 261 301 374
#     4  10  21  38  59  85 122 161 198 252 312 363
#     4  12  22  34  56  84 123 159 197 244 304 373
#     4  10  22  42  61  86 124 160 201 259 314 364
#     4  10  20  38  57  87 121 155 206 249 295 379
#     4  10  22  44  68  91 125 164 211 264 319 367
#
# _framework density 18.311499999999999
#
# number of rings (size 3 to 8) (size 9 to 14) (size 15 to 20)
#    0.000    1.636    2.727    1.636    1.273    1.091 
#    4.909    0.000    0.000    3.273    0.000    0.000 
#    0.000    0.000    0.000    0.000    0.000    0.000 
#
# Total GULP energy -245182.588501 kJ/mol
# GULP energy per Si atom -5572.331557 kJ/mol
# Density = 1.826982 g / cm^3
# Si number density = 18.311500 Si / 1000 Ang^3
#
#
#
# Elastic Constant Matrix: (Units=GPa)
#
#
# Indices 1 2 3 4 5 6 
#
# 1 105.7360 31.9827 46.9791 0.0000 0.0000 0.0000
# 2 31.9827 101.3728 56.7463 0.0000 0.0000 0.0000
# 3 46.9791 56.7463 169.0964 0.0000 0.0000 0.0000
# 4 0.0000 0.0000 0.0000 22.6449 0.0000 0.0000
# 5 0.0000 0.0000 0.0000 0.0000 30.7243 0.0000
# 6 0.0000 0.0000 0.0000 0.0000 0.0000 10.1781
#
#
#
# Elastic Compliance Matrix: (Units=1/GPa)
#
#
# Indices 1 2 3 4 5 6 
#
# 1 0.011174 -0.002201 -0.002366 0.000000 0.000000 0.000000
# 2 -0.002201 0.012580 -0.003610 0.000000 0.000000 0.000000
# 3 -0.002366 -0.003610 0.007783 0.000000 0.000000 0.000000
# 4 0.000000 0.000000 0.000000 0.044160 0.000000 0.000000
# 5 0.000000 0.000000 0.000000 0.000000 0.032547 0.000000
# 6 0.000000 0.000000 0.000000 0.000000 0.000000 0.098250
#
#
# Mechanical properties :
#
#
# Convention : Reuss Voigt Hill
#
# Bulk Modulus (GPa) = 65.86433 71.95793 68.91113
# Shear Modulus (GPa) = 21.93851 28.74261 25.34056
#
# Velocity S-wave (km/s) = 3.46507 3.96618 3.72406
# Velocity P-wave (km/s) = 7.21498 7.76891 7.49706
#
# Compressibility (1/GPa) = 0.01518272
#
# Stress axis : x y z
#
# Youngs Moduli (GPa) = 89.48961 79.49201 128.49212
#
# Poissons Ratio (x) = 0.17497 0.30400
# Poissons Ratio (y) = 0.19698 0.46387
# Poissons Ratio (z) = 0.21172 0.28697
#
# Static dielectric constant tensor:
#      x y z
#    x 1.606550 0.000000 0.000000 
#    y 0.000000 1.619120 0.000000 
#    z 0.000000 0.000000 1.696130 
# 
# From -- ./inp_files/32241.got.cif
#   From: 2010.05.17/outbox.cif.g08.bks.cpg/sg66_17_cif.got.tgz:32241.got - 2010.06.03 17:51:23.
