data_PCOD9497490
_publ_section_title
;
Structure prediction by ZEFSAII (Michael W. Deem and Ramdas Pophale) SiO2 
 PCOD9497490
Probable space group: C C C M
;
_chemical_formula_sum "Si O2"
_cell_formula_units_Z 112
_cell_length_a 25.099072
_cell_length_b 18.376733
_cell_length_c 11.417559
_cell_angle_alpha 90.000000
_cell_angle_beta 90.000000
_cell_angle_gamma 90.000000
_cell_volume 5266.222864
_symmetry_space_group_name_H-M "C C C M"
_symmetry_group_IT_number 66
_symmetry_cell_setting 'orthorhombic'
loop_
_space_group_symop_operation_xyz
x,y,z
-x,-y,z
x,-y,1/2-z
-x,y,1/2-z
-x,-y,-z
x,y,-z
-x,y,1/2+z
x,-y,1/2+z
1/2+x,1/2+y,z
1/2-x,1/2-y,z
1/2+x,1/2-y,1/2-z
1/2-x,1/2+y,1/2-z
1/2-x,1/2-y,-z
1/2+x,1/2+y,-z
1/2-x,1/2+y,1/2+z
1/2+x,1/2-y,1/2+z
loop_
_atom_site_type_symbol
_atom_site_label
_atom_site_fract_x
_atom_site_fract_y
_atom_site_fract_z
Si Si1 0.521557 0.279577 0.868217
Si Si2 0.520106 0.885092 0.123378
Si Si3 0.134454 0.423779 0.810102
Si Si4 0.135550 0.291500 0.368686
Si Si5 0.247876 0.098168 0.873085
Si Si6 0.213806 0.839434 0.869971
Si Si7 0.350973 0.515136 0.126762
O O1 0.500000 0.317834 0.750000
O O2 0.490687 0.201766 0.873779
O O3 0.583049 0.257416 0.847847
O O4 0.516713 0.312399 0.000000
O O5 0.500000 0.912668 0.250000
O O6 0.582246 0.902290 0.119204
O O7 0.494735 0.911336 0.000000
O O8 0.123382 0.500000 0.750000
O O9 0.138643 0.358298 0.717568
O O10 0.191875 0.430798 0.870688
O O11 0.129777 0.320081 0.500000
O O12 0.186113 0.238640 0.362768
O O13 0.241714 0.143564 0.753458
O O14 0.203246 0.034417 0.868846
O O15 0.239694 0.136003 0.000000
O O16 0.168035 0.901585 0.873464
O O17 0.240509 0.846666 0.000000
O O18 0.379778 0.500000 0.250000
O O19 0.376659 0.499290 0.000000
#
# Coordination Sequence:
#
# PCOD9497490 Si02
#       7
#    16  16  16  16  16  16  16
#     4   9  16  33  56  77 102 136 175 225 280 328
#     4  10  20  38  58  77 101 135 182 236 290 337
#     4  12  24  37  54  79 109 149 194 237 284 335
#     4  10  21  37  56  80 109 140 185 238 281 330
#     4  10  21  38  56  80 114 146 181 225 275 327
#     4   9  18  35  58  81 107 144 185 223 272 330
#     4   8  14  28  52  77 102 135 171 210 255 312
#
# _framework density 21.267616
#
# number of rings (size 3 to 8) (size 9 to 14) (size 15 to 20)
#    0.000    2.286    2.857    1.714    0.000    2.571 
#    0.000    5.000    0.000    0.000    0.000    0.000 
#    0.000    5.143    0.000   58.571    0.000    3.429 
#
# Total GULP energy -311990.889129 kJ/mol
# GULP energy per Si atom -5571.265877 kJ/mol
# Density = 2.121921 g / cm^3
# Si number density = 21.267616 Si / 1000 Ang^3
#
#
#
# Elastic Constant Matrix: (Units=GPa)
#
#
# Indices 1 2 3 4 5 6 
#
# 1 37.1757 1.8596 14.2846 0.0000 0.0000 0.0000
# 2 1.8596 50.0460 29.1088 0.0000 0.0000 0.0000
# 3 14.2846 29.1088 215.9084 0.0000 0.0000 0.0000
# 4 0.0000 0.0000 0.0000 19.4468 0.0000 0.0000
# 5 0.0000 0.0000 0.0000 0.0000 19.9034 0.0000
# 6 0.0000 0.0000 0.0000 0.0000 0.0000 5.7420
#
#
#
# Elastic Compliance Matrix: (Units=1/GPa)
#
#
# Indices 1 2 3 4 5 6 
#
# 1 0.027601 0.000040 -0.001831 0.000000 0.000000 0.000000
# 2 0.000040 0.021682 -0.002926 0.000000 0.000000 0.000000
# 3 -0.001831 -0.002926 0.005147 0.000000 0.000000 0.000000
# 4 0.000000 0.000000 0.000000 0.051422 0.000000 0.000000
# 5 0.000000 0.000000 0.000000 0.000000 0.050243 0.000000
# 6 0.000000 0.000000 0.000000 0.000000 0.000000 0.174154
#
#
# Mechanical properties :
#
#
# Convention : Reuss Voigt Hill
#
# Bulk Modulus (GPa) = 22.22468 43.73733 32.98101
# Shear Modulus (GPa) = 14.09710 26.21025 20.15367
#
# Velocity S-wave (km/s) = 2.57737 3.51437 3.08169
# Velocity P-wave (km/s) = 4.39657 6.08914 5.31071
#
# Compressibility (1/GPa) = 0.04499502
#
# Stress axis : x y z
#
# Youngs Moduli (GPa) = 36.23052 46.12138 194.27971
#
# Poissons Ratio (x) = -0.00183 0.35581
# Poissons Ratio (y) = -0.00144 0.56842
# Poissons Ratio (z) = 0.06635 0.13494
#
# Static dielectric constant tensor:
#      x y z
#    x 1.782720 0.000000 0.000000 
#    y 0.000000 1.723390 0.000000 
#    z 0.000000 0.000000 1.881330 
# 
# From -- ./inp_files/19942.got.cif
#   From: 2010.05.17/outbox.cif.g08.bks.cpg/sg66_10_cif.got.tgz:19942.got - 2010.06.03 17:51:23.
