data_PCOD9497654
_publ_section_title
;
Structure prediction by ZEFSAII (Michael W. Deem and Ramdas Pophale) SiO2 
 PCOD9497654
Probable space group: C C C M
;
_chemical_formula_sum "Si O2"
_cell_formula_units_Z 48
_cell_length_a 27.307145
_cell_length_b 7.215633
_cell_length_c 10.626139
_cell_angle_alpha 90.000000
_cell_angle_beta 90.000000
_cell_angle_gamma 90.000000
_cell_volume 2093.756753
_symmetry_space_group_name_H-M "C C C M"
_symmetry_group_IT_number 66
_symmetry_cell_setting 'orthorhombic'
loop_
_space_group_symop_operation_xyz
x,y,z
-x,-y,z
x,-y,1/2-z
-x,y,1/2-z
-x,-y,-z
x,y,-z
-x,y,1/2+z
x,-y,1/2+z
1/2+x,1/2+y,z
1/2-x,1/2-y,z
1/2+x,1/2-y,1/2-z
1/2-x,1/2+y,1/2-z
1/2-x,1/2-y,-z
1/2+x,1/2+y,-z
1/2-x,1/2+y,1/2+z
1/2+x,1/2-y,1/2+z
loop_
_atom_site_type_symbol
_atom_site_label
_atom_site_fract_x
_atom_site_fract_y
_atom_site_fract_z
Si Si1 0.693548 0.788487 0.500000
Si Si2 0.690355 0.226590 0.500000
Si Si3 0.135983 0.726470 0.244171
Si Si4 0.530036 0.695640 0.642004
O O1 0.750000 0.750000 0.500000
O O2 0.670984 0.719426 0.370725
O O3 0.684358 0.006399 0.500000
O O4 0.750000 0.250000 0.500000
O O5 0.661270 0.289110 0.374560
O O6 0.130824 0.500000 0.250000
O O7 0.083980 0.808885 0.201706
O O8 0.500000 0.500000 0.629182
O O9 0.500000 0.799829 0.750000
O O10 0.532817 0.772969 0.500000
#
# Coordination Sequence:
#
# PCOD9497654 Si02
#       4
#     8   8  16  16
#     4  10  20  40  64  89 125 167 221 270 324 393
#     4  10  22  40  60  97 131 165 213 272 324 393
#     4  10  21  40  64  89 129 173 216 264 331 391
#     4  10  22  42  63  91 128 162 218 271 323 390
#
# _framework density 22.9253
#
# number of rings (size 3 to 8) (size 9 to 14) (size 15 to 20)
#    0.000    2.000    1.667    1.000    2.333    0.667 
#   12.000    1.667    0.000    0.000    0.000    0.000 
#    0.000    0.000    0.000    0.000    0.000    0.000 
#
# Total GULP energy -133819.193541 kJ/mol
# GULP energy per Si atom -5575.799731 kJ/mol
# Density = 2.287312 g / cm^3
# Si number density = 22.925300 Si / 1000 Ang^3
#
#
#
# Elastic Constant Matrix: (Units=GPa)
#
#
# Indices 1 2 3 4 5 6 
#
# 1 244.8519 12.9101 147.0888 0.0000 0.0000 0.0000
# 2 12.9101 104.8445 28.4206 0.0000 0.0000 0.0000
# 3 147.0888 28.4206 308.1387 0.0000 0.0000 0.0000
# 4 0.0000 0.0000 0.0000 -37.2122 0.0000 0.0000
# 5 0.0000 0.0000 0.0000 0.0000 56.9403 0.0000
# 6 0.0000 0.0000 0.0000 0.0000 0.0000 28.4678
#
#
#
# Elastic Compliance Matrix: (Units=1/GPa)
#
#
# Indices 1 2 3 4 5 6 
#
# 1 0.005726 0.000037 -0.002737 0.000000 0.000000 0.000000
# 2 0.000037 0.009783 -0.000920 0.000000 0.000000 0.000000
# 3 -0.002737 -0.000920 0.004637 0.000000 0.000000 0.000000
# 4 0.000000 0.000000 0.000000 -0.026873 0.000000 0.000000
# 5 0.000000 0.000000 0.000000 0.000000 0.017562 0.000000
# 6 0.000000 0.000000 0.000000 0.000000 0.000000 0.035127
#
#
# Mechanical properties :
#
#
# Convention : Reuss Voigt Hill
#
# Bulk Modulus (GPa) = 77.48467 114.96378 96.22423
# Shear Modulus (GPa) = 86.95071 40.93355 63.94213
#
# Velocity S-wave (km/s) = 6.16524 4.23012 5.28697
# Velocity P-wave (km/s) = 9.19524 8.60898 8.90693
#
# Compressibility (1/GPa) = 0.01290578
#
# Stress axis : x y z
#
# Youngs Moduli (GPa) = 174.63540 102.22073 215.67888
#
# Poissons Ratio (x) = -0.00376 0.59027
# Poissons Ratio (y) = -0.00642 0.19839
# Poissons Ratio (z) = 0.47794 0.09403
#
# Static dielectric constant tensor:
#      x y z
#    x 1.869690 0.000000 0.000000 
#    y 0.000000 1.983450 0.000000 
#    z 0.000000 0.000000 1.874140 
# 
# From -- ./inp_files/13169.got.cif
#   From: 2010.05.17/outbox.cif.g08.bks.cpg/sg66_7_cif.got.tgz:13169.got - 2010.06.03 17:51:23.
