data_PCOD9497072
_publ_section_title
;
Structure prediction by ZEFSAII (Michael W. Deem and Ramdas Pophale) SiO2 
 PCOD9497072
Probable space group: C C C M
;
_chemical_formula_sum "Si O2"
_cell_formula_units_Z 80
_cell_length_a 10.881780
_cell_length_b 10.881778
_cell_length_c 33.575583
_cell_angle_alpha 90.000000
_cell_angle_beta 90.000000
_cell_angle_gamma 90.000000
_cell_volume 3975.789344
_symmetry_space_group_name_H-M "C C C M"
_symmetry_group_IT_number 66
_symmetry_cell_setting 'orthorhombic'
loop_
_space_group_symop_operation_xyz
x,y,z
-x,-y,z
x,-y,1/2-z
-x,y,1/2-z
-x,-y,-z
x,y,-z
-x,y,1/2+z
x,-y,1/2+z
1/2+x,1/2+y,z
1/2-x,1/2-y,z
1/2+x,1/2-y,1/2-z
1/2-x,1/2+y,1/2-z
1/2-x,1/2-y,-z
1/2+x,1/2+y,-z
1/2-x,1/2+y,1/2+z
1/2+x,1/2-y,1/2+z
loop_
_atom_site_type_symbol
_atom_site_label
_atom_site_fract_x
_atom_site_fract_y
_atom_site_fract_z
Si Si1 0.855265 0.644734 0.640487
Si Si2 0.489221 0.303349 0.912027
Si Si3 0.202678 0.505162 0.000000
Si Si4 0.005162 0.702678 0.000000
Si Si5 0.141189 0.641189 0.765129
Si Si6 0.303349 0.510779 0.412027
O O1 0.750000 0.750000 0.636557
O O2 0.871675 0.628325 0.687150
O O3 0.806795 0.528321 0.616143
O O4 0.971678 0.693204 0.616143
O O5 0.491495 0.273491 0.958801
O O6 0.591107 0.408893 0.906139
O O7 0.359098 0.359098 0.901163
O O8 0.273491 0.491494 0.041199
O O9 0.136867 0.636867 0.000000
O O10 0.098174 0.401826 0.000000
O O11 0.172127 0.500000 0.750000
O O12 0.250000 0.750000 0.757665
O O13 0.000000 0.672127 0.750000
#
# Coordination Sequence:
#
# PCOD9497072 Si02
#       6
#    16  16   8   8  16  16
#     4   9  19  38  62  86 118 152 194 257 314 372
#     4  10  20  35  58  84 110 152 206 250 296 358
#     4  11  22  35  50  75 117 162 199 244 301 355
#     4  11  22  35  50  75 117 162 199 244 301 355
#     4  10  23  45  71 102 137 173 217 273 340 415
#     4  10  20  35  58  84 110 152 206 250 296 358
#
# _framework density 20.121790000000001
#
# number of rings (size 3 to 8) (size 9 to 14) (size 15 to 20)
#    0.000    2.000    2.000    1.200    0.000    6.000 
#    7.200    4.000    0.000    0.000    0.000    0.000 
#    0.000    0.000    0.000    0.000    0.000    0.000 
#
# Total GULP energy -222935.601456 kJ/mol
# GULP energy per Si atom -5573.390036 kJ/mol
# Density = 2.007599 g / cm^3
# Si number density = 20.121790 Si / 1000 Ang^3
#
#
#
# Elastic Constant Matrix: (Units=GPa)
#
#
# Indices 1 2 3 4 5 6 
#
# 1 97.5385 80.6795 58.6630 0.0000 0.0000 0.0000
# 2 80.6795 97.5374 58.6627 0.0000 0.0000 0.0000
# 3 58.6630 58.6627 147.6408 0.0000 0.0000 0.0000
# 4 0.0000 0.0000 0.0000 -39.6995 0.0000 0.0000
# 5 0.0000 0.0000 0.0000 0.0000 -39.6982 0.0000
# 6 0.0000 0.0000 0.0000 0.0000 0.0000 41.6508
#
#
#
# Elastic Compliance Matrix: (Units=1/GPa)
#
#
# Indices 1 2 3 4 5 6 
#
# 1 0.033458 -0.025859 -0.003019 0.000000 0.000000 0.000000
# 2 -0.025859 0.033458 -0.003019 0.000000 0.000000 0.000000
# 3 -0.003019 -0.003019 0.009173 0.000000 0.000000 0.000000
# 4 0.000000 0.000000 0.000000 -0.025189 0.000000 0.000000
# 5 0.000000 0.000000 0.000000 0.000000 -0.025190 0.000000
# 6 0.000000 0.000000 0.000000 0.000000 0.000000 0.024009
#
#
# Mechanical properties :
#
#
# Convention : Reuss Voigt Hill
#
# Bulk Modulus (GPa) = 81.34686 82.08079 81.71383
# Shear Modulus (GPa) = 42.51249 2.09805 22.30527
#
# Velocity S-wave (km/s) = 4.60146 1.02222 3.33305
# Velocity P-wave (km/s) = 8.29134 6.50183 7.45051
#
# Compressibility (1/GPa) = 0.01229304
#
# Stress axis : x y z
#
# Youngs Moduli (GPa) = 29.88817 29.88783 109.02136
#
# Poissons Ratio (x) = 0.77288 0.32916
# Poissons Ratio (y) = 0.77289 0.32917
# Poissons Ratio (z) = 0.09024 0.09024
#
# Static dielectric constant tensor:
#      x y z
#    x 1.752240 0.000000 0.000000 
#    y 0.000000 1.752240 0.000000 
#    z 0.000000 0.000000 1.673340 
# 
# From -- ./inp_files/68810.got.cif
#   From: 2010.05.17/outbox.cif.g08.bks.cpg/sg66_35_cif.got.tgz:68810.got - 2010.06.03 17:51:23.
