data_PCOD9497585
_publ_section_title
;
Structure prediction by ZEFSAII (Michael W. Deem and Ramdas Pophale) SiO2 
 PCOD9497585
Probable space group: C C C M
;
_chemical_formula_sum "Si O2"
_cell_formula_units_Z 52
_cell_length_a 5.216348
_cell_length_b 20.169050
_cell_length_c 19.596934
_cell_angle_alpha 90.000000
_cell_angle_beta 90.000000
_cell_angle_gamma 90.000000
_cell_volume 2061.769589
_symmetry_space_group_name_H-M "C C C M"
_symmetry_group_IT_number 66
_symmetry_cell_setting 'orthorhombic'
loop_
_space_group_symop_operation_xyz
x,y,z
-x,-y,z
x,-y,1/2-z
-x,y,1/2-z
-x,-y,-z
x,y,-z
-x,y,1/2+z
x,-y,1/2+z
1/2+x,1/2+y,z
1/2-x,1/2-y,z
1/2+x,1/2-y,1/2-z
1/2-x,1/2+y,1/2-z
1/2-x,1/2-y,-z
1/2+x,1/2+y,-z
1/2-x,1/2+y,1/2+z
1/2+x,1/2-y,1/2+z
loop_
_atom_site_type_symbol
_atom_site_label
_atom_site_fract_x
_atom_site_fract_y
_atom_site_fract_z
Si Si1 0.423115 0.186473 0.000000
Si Si2 0.475569 0.578194 0.000000
Si Si3 0.655868 0.932755 0.361921
Si Si4 0.500000 0.500000 0.250000
Si Si5 0.989432 0.291591 0.150529
O O1 0.250000 0.250000 0.000000
O O2 0.564715 0.198458 0.070150
O O3 0.238779 0.121193 0.000000
O O4 0.500000 0.500000 0.000000
O O5 0.323085 0.587879 0.928620
O O6 0.494246 0.870011 0.333131
O O7 0.500000 0.000000 0.380538
O O8 0.834581 0.954979 0.300200
O O9 0.750000 0.250000 0.180295
O O10 0.250000 0.250000 0.159687
#
# Coordination Sequence:
#
# PCOD9497585 Si02
#       5
#     8   8  16   4  16
#     4  10  20  38  68 112 156 193 232 303 393 460
#     4  12  22  42  78 116 156 190 260 327 385 453
#     4  12  26  48  79 113 152 206 259 322 393 466
#     4  12  30  50  80 102 160 210 272 316 398 470
#     4  11  24  43  76 113 156 196 251 316 389 462
#
# _framework density 25.221055
#
# number of rings (size 3 to 8) (size 9 to 14) (size 15 to 20)
#    0.000    0.615    1.538    7.846    4.308    0.000 
#    0.000    0.000    6.769    0.000    0.000    0.000 
#    0.000    0.000    0.000    0.000    0.000    0.000 
#
# Total GULP energy -145149.762388 kJ/mol
# GULP energy per Si atom -5582.683169 kJ/mol
# Density = 2.516365 g / cm^3
# Si number density = 25.221055 Si / 1000 Ang^3
#
#
#
# Elastic Constant Matrix: (Units=GPa)
#
#
# Indices 1 2 3 4 5 6 
#
# 1 130.5088 94.2124 29.7453 0.0000 0.0000 0.0000
# 2 94.2124 231.7278 7.2638 0.0000 0.0000 0.0000
# 3 29.7453 7.2638 163.9952 0.0000 0.0000 0.0000
# 4 0.0000 0.0000 0.0000 -49.7968 0.0000 0.0000
# 5 0.0000 0.0000 0.0000 0.0000 -33.2900 0.0000
# 6 0.0000 0.0000 0.0000 0.0000 0.0000 65.2135
#
#
#
# Elastic Compliance Matrix: (Units=1/GPa)
#
#
# Indices 1 2 3 4 5 6 
#
# 1 0.011387 -0.004571 -0.001863 0.000000 0.000000 0.000000
# 2 -0.004571 0.006156 0.000556 0.000000 0.000000 0.000000
# 3 -0.001863 0.000556 0.006411 0.000000 0.000000 0.000000
# 4 0.000000 0.000000 0.000000 -0.020082 0.000000 0.000000
# 5 0.000000 0.000000 0.000000 0.000000 -0.030039 0.000000
# 6 0.000000 0.000000 0.000000 0.000000 0.000000 0.015334
#
#
# Mechanical properties :
#
#
# Convention : Reuss Voigt Hill
#
# Bulk Modulus (GPa) = 81.97327 87.63055 84.80191
# Shear Modulus (GPa) = 1002.22996 22.75935 512.49465
#
# Velocity S-wave (km/s) = 19.95598 3.00725 14.27033
# Velocity P-wave (km/s) = 23.73943 6.84679 17.47053
#
# Compressibility (1/GPa) = 0.01219910
#
# Stress axis : x y z
#
# Youngs Moduli (GPa) = 87.82216 162.43302 155.98246
#
# Poissons Ratio (x) = 0.74248 0.29057
# Poissons Ratio (y) = 0.40144 -0.08679
# Poissons Ratio (z) = 0.16360 -0.09038
#
# Static dielectric constant tensor:
#      x y z
#    x 1.948090 0.000000 0.000000 
#    y 0.000000 2.023470 0.000000 
#    z 0.000000 0.000000 2.033960 
# 
# From -- ./inp_files/45399.got.cif
#   From: 2010.05.17/outbox.cif.g08.bks.cpg/sg66_23_cif.got.tgz:45399.got - 2010.06.03 17:51:23.
