data_PCOD9497180
_publ_section_title
;
Structure prediction by ZEFSAII (Michael W. Deem and Ramdas Pophale) SiO2 
 PCOD9497180
Probable space group: C C C M
;
_chemical_formula_sum "Si O2"
_cell_formula_units_Z 80
_cell_length_a 15.729247
_cell_length_b 9.320032
_cell_length_c 25.662871
_cell_angle_alpha 90.000000
_cell_angle_beta 90.000000
_cell_angle_gamma 90.000000
_cell_volume 3762.102091
_symmetry_space_group_name_H-M "C C C M"
_symmetry_group_IT_number 66
_symmetry_cell_setting 'orthorhombic'
loop_
_space_group_symop_operation_xyz
x,y,z
-x,-y,z
x,-y,1/2-z
-x,y,1/2-z
-x,-y,-z
x,y,-z
-x,y,1/2+z
x,-y,1/2+z
1/2+x,1/2+y,z
1/2-x,1/2-y,z
1/2+x,1/2-y,1/2-z
1/2-x,1/2+y,1/2-z
1/2-x,1/2-y,-z
1/2+x,1/2+y,-z
1/2-x,1/2+y,1/2+z
1/2+x,1/2-y,1/2+z
loop_
_atom_site_type_symbol
_atom_site_label
_atom_site_fract_x
_atom_site_fract_y
_atom_site_fract_z
Si Si1 0.746083 0.407445 0.942783
Si Si2 0.820846 0.371821 0.631009
Si Si3 0.277189 0.585696 0.199009
Si Si4 0.085135 0.909207 0.105741
Si Si5 0.024119 0.333154 0.061637
O O1 0.750000 0.250000 0.916468
O O2 0.800433 0.529466 0.917998
O O3 0.650159 0.464653 0.938299
O O4 0.778471 0.385342 0.000000
O O5 0.750000 0.250000 0.639180
O O6 0.802114 0.488852 0.676725
O O7 0.908377 0.306069 0.609456
O O8 0.306325 0.500000 0.250000
O O9 0.250000 0.750000 0.209673
O O10 0.354094 0.588263 0.156699
O O11 0.056038 0.757554 0.082193
O O12 0.000000 0.000000 0.112672
O O13 0.000000 0.500000 0.062089
O O14 0.044684 0.296140 0.000000
#
# Coordination Sequence:
#
# PCOD9497180 Si02
#       5
#    16  16  16  16  16
#     4  10  20  36  57  82 119 169 215 249 292 354
#     4  11  22  37  59  89 122 157 203 254 302 361
#     4  11  24  45  69  88 113 155 208 262 319 377
#     4  11  23  38  59  88 124 159 198 253 310 370
#     4  11  22  36  58  91 131 170 204 244 301 367
#
# _framework density 21.264707000000001
#
# number of rings (size 3 to 8) (size 9 to 14) (size 15 to 20)
#    0.000    1.200    0.000    9.000    0.000    8.400 
#    0.000    0.000    0.000    4.200    0.000    0.000 
#    0.000    0.000    0.000    0.000    0.000    0.000 
#
# Total GULP energy -222727.226659 kJ/mol
# GULP energy per Si atom -5568.180666 kJ/mol
# Density = 2.121631 g / cm^3
# Si number density = 21.264707 Si / 1000 Ang^3
#
#
#
# Elastic Constant Matrix: (Units=GPa)
#
#
# Indices 1 2 3 4 5 6 
#
# 1 74.3815 2.7880 6.6691 0.0000 0.0000 0.0000
# 2 2.7880 103.9515 35.1858 0.0000 0.0000 0.0000
# 3 6.6691 35.1858 94.1387 0.0000 0.0000 0.0000
# 4 0.0000 0.0000 0.0000 28.7354 0.0000 0.0000
# 5 0.0000 0.0000 0.0000 0.0000 -29.1289 0.0000
# 6 0.0000 0.0000 0.0000 0.0000 0.0000 31.7760
#
#
#
# Elastic Compliance Matrix: (Units=1/GPa)
#
#
# Indices 1 2 3 4 5 6 
#
# 1 0.013530 -0.000044 -0.000942 0.000000 0.000000 0.000000
# 2 -0.000044 0.011013 -0.004113 0.000000 0.000000 0.000000
# 3 -0.000942 -0.004113 0.012227 0.000000 0.000000 0.000000
# 4 0.000000 0.000000 0.000000 0.034800 0.000000 0.000000
# 5 0.000000 0.000000 0.000000 0.000000 -0.034330 0.000000
# 6 0.000000 0.000000 0.000000 0.000000 0.000000 0.031470
#
#
# Mechanical properties :
#
#
# Convention : Reuss Voigt Hill
#
# Bulk Modulus (GPa) = 37.63408 40.19529 38.91468
# Shear Modulus (GPa) = 56.96912 21.46508 39.21710
#
# Velocity S-wave (km/s) = 5.18156 3.18059 4.29911
# Velocity P-wave (km/s) = 7.31673 5.69487 6.55614
#
# Compressibility (1/GPa) = 0.02657166
#
# Stress axis : x y z
#
# Youngs Moduli (GPa) = 73.90808 90.79905 81.78774
#
# Poissons Ratio (x) = 0.00400 0.07705
# Poissons Ratio (y) = 0.00325 0.33642
# Poissons Ratio (z) = 0.06963 0.37348
#
# Static dielectric constant tensor:
#      x y z
#    x 1.831610 0.000000 0.000000 
#    y 0.000000 1.800940 0.000000 
#    z 0.000000 0.000000 1.822620 
# 
# From -- ./inp_files/65028.got.cif
#   From: 2010.05.17/outbox.cif.g08.bks.cpg/sg66_33_cif.got.tgz:65028.got - 2010.06.03 17:51:23.
