data_PCOD9497964
_publ_section_title
;
Structure prediction by ZEFSAII (Michael W. Deem and Ramdas Pophale) SiO2 
 PCOD9497964
Probable space group: C C C M
;
_chemical_formula_sum "Si O2"
_cell_formula_units_Z 104
_cell_length_a 10.671888
_cell_length_b 16.297982
_cell_length_c 31.120583
_cell_angle_alpha 90.000000
_cell_angle_beta 90.000000
_cell_angle_gamma 90.000000
_cell_volume 5412.810424
_symmetry_space_group_name_H-M "C C C M"
_symmetry_group_IT_number 66
_symmetry_cell_setting 'orthorhombic'
loop_
_space_group_symop_operation_xyz
x,y,z
-x,-y,z
x,-y,1/2-z
-x,y,1/2-z
-x,-y,-z
x,y,-z
-x,y,1/2+z
x,-y,1/2+z
1/2+x,1/2+y,z
1/2-x,1/2-y,z
1/2+x,1/2-y,1/2-z
1/2-x,1/2+y,1/2-z
1/2-x,1/2-y,-z
1/2+x,1/2+y,-z
1/2-x,1/2+y,1/2+z
1/2+x,1/2-y,1/2+z
loop_
_atom_site_type_symbol
_atom_site_label
_atom_site_fract_x
_atom_site_fract_y
_atom_site_fract_z
Si Si1 0.567010 0.207618 0.627656
Si Si2 0.206253 0.923018 0.774231
Si Si3 0.890243 0.217196 0.718945
Si Si4 0.779611 0.926193 0.112778
Si Si5 0.631091 0.310515 0.452591
Si Si6 0.392313 0.064407 0.346655
Si Si7 0.500000 0.500000 0.834296
O O1 0.568615 0.260795 0.671045
O O2 0.695529 0.152296 0.627878
O O3 0.556689 0.266045 0.586171
O O4 0.459589 0.138777 0.629066
O O5 0.140413 0.873135 0.736196
O O6 0.313878 0.895928 0.807362
O O7 0.264753 0.000000 0.750000
O O8 0.093050 0.947769 0.805162
O O9 0.750000 0.250000 0.725562
O O10 0.000000 0.250315 0.750000
O O11 0.818785 0.897928 0.065013
O O12 0.908588 0.943174 0.137526
O O13 0.696575 0.007000 0.123288
O O14 0.572685 0.316345 0.500000
O O15 0.750000 0.250000 0.456394
O O16 0.500000 0.000000 0.331392
#
# Coordination Sequence:
#
# PCOD9497964 Si02
#       7
#    16  16  16  16  16  16   8
#     4  10  21  37  59  83 117 153 193 242 305 354
#     4  11  24  36  53  80 114 152 206 245 294 343
#     4  12  26  37  56  83 120 160 206 249 298 358
#     4   9  19  37  62  81 109 147 191 239 300 353
#     4   9  18  34  61  90 114 143 187 240 299 364
#     4   9  20  38  57  80 115 156 197 245 299 361
#     4  10  21  38  57  76 108 152 185 244 287 344
#
# _framework density 19.213678999999999
#
# number of rings (size 3 to 8) (size 9 to 14) (size 15 to 20)
#    0.000    2.000    0.000    3.462   15.077    0.308 
#    0.000    1.154    0.000    4.615    0.000    4.308 
#    0.000    0.000    0.000    0.000    0.000    0.000 
#
# Total GULP energy -289532.373376 kJ/mol
# GULP energy per Si atom -5567.930257 kJ/mol
# Density = 1.916995 g / cm^3
# Si number density = 19.213679 Si / 1000 Ang^3
#
#
#
# Elastic Constant Matrix: (Units=GPa)
#
#
# Indices 1 2 3 4 5 6 
#
# 1 77.9523 24.3674 40.7435 0.0000 0.0000 0.0000
# 2 24.3674 75.9577 58.3893 0.0000 0.0000 0.0000
# 3 40.7435 58.3893 148.8745 0.0000 0.0000 0.0000
# 4 0.0000 0.0000 0.0000 8.6447 0.0000 0.0000
# 5 0.0000 0.0000 0.0000 0.0000 17.0729 0.0000
# 6 0.0000 0.0000 0.0000 0.0000 0.0000 16.3495
#
#
#
# Elastic Compliance Matrix: (Units=1/GPa)
#
#
# Indices 1 2 3 4 5 6 
#
# 1 0.015273 -0.002414 -0.003233 0.000000 0.000000 0.000000
# 2 -0.002414 0.019229 -0.006881 0.000000 0.000000 0.000000
# 3 -0.003233 -0.006881 0.010301 0.000000 0.000000 0.000000
# 4 0.000000 0.000000 0.000000 0.115677 0.000000 0.000000
# 5 0.000000 0.000000 0.000000 0.000000 0.058572 0.000000
# 6 0.000000 0.000000 0.000000 0.000000 0.000000 0.061164
#
#
# Mechanical properties :
#
#
# Convention : Reuss Voigt Hill
#
# Bulk Modulus (GPa) = 50.64306 61.08722 55.86514
# Shear Modulus (GPa) = 16.03309 20.36571 18.19940
#
# Velocity S-wave (km/s) = 2.89184 3.25923 3.08102
# Velocity P-wave (km/s) = 6.12906 6.78425 6.46496
#
# Compressibility (1/GPa) = 0.01974604
#
# Stress axis : x y z
#
# Youngs Moduli (GPa) = 65.47580 52.00399 97.08159
#
# Poissons Ratio (x) = 0.12556 0.31385
# Poissons Ratio (y) = 0.15809 0.66802
# Poissons Ratio (z) = 0.21168 0.35784
#
# Static dielectric constant tensor:
#      x y z
#    x 1.710470 0.000000 0.000000 
#    y 0.000000 1.788380 0.000000 
#    z 0.000000 0.000000 1.683930 
# 
# From -- ./inp_files/63791.got.cif
#   From: 2010.05.17/outbox.cif.g08.bks.cpg/sg66_32_cif.got.tgz:63791.got - 2010.06.03 17:51:23.
