data_PCOD9497453
_publ_section_title
;
Structure prediction by ZEFSAII (Michael W. Deem and Ramdas Pophale) SiO2 
 PCOD9497453
Probable space group: C C C M
;
_chemical_formula_sum "Si O2"
_cell_formula_units_Z 52
_cell_length_a 13.071571
_cell_length_b 20.294922
_cell_length_c 8.063741
_cell_angle_alpha 90.000000
_cell_angle_beta 90.000000
_cell_angle_gamma 90.000000
_cell_volume 2139.201739
_symmetry_space_group_name_H-M "C C C M"
_symmetry_group_IT_number 66
_symmetry_cell_setting 'orthorhombic'
loop_
_space_group_symop_operation_xyz
x,y,z
-x,-y,z
x,-y,1/2-z
-x,y,1/2-z
-x,-y,-z
x,y,-z
-x,y,1/2+z
x,-y,1/2+z
1/2+x,1/2+y,z
1/2-x,1/2-y,z
1/2+x,1/2-y,1/2-z
1/2-x,1/2+y,1/2-z
1/2-x,1/2-y,-z
1/2+x,1/2+y,-z
1/2-x,1/2+y,1/2+z
1/2+x,1/2-y,1/2+z
loop_
_atom_site_type_symbol
_atom_site_label
_atom_site_fract_x
_atom_site_fract_y
_atom_site_fract_z
Si Si1 0.370925 0.742870 0.185350
Si Si2 0.000000 0.000000 0.250000
Si Si3 0.609310 0.111568 0.308182
Si Si4 0.658491 0.400905 0.698767
O O1 0.250000 0.750000 0.165592
O O2 0.398035 0.809637 0.279907
O O3 0.380487 0.673882 0.278554
O O4 0.416810 0.741278 0.000000
O O5 0.084669 0.053258 0.307440
O O6 0.500000 0.083485 0.250000
O O7 0.615978 0.096854 0.500000
O O8 0.722745 0.092582 0.242230
O O9 0.650503 0.416950 0.500000
#
# Coordination Sequence:
#
# PCOD9497453 Si02
#       4
#    16   4  16  16
#     4   9  18  34  59  91 125 161 202 252 313 376
#     4  12  26  44  66  86 122 172 224 266 306 376
#     4  10  20  37  63  94 127 160 203 260 323 381
#     4  10  23  42  62  88 123 167 215 262 312 371
#
# _framework density 24.308133000000002
#
# number of rings (size 3 to 8) (size 9 to 14) (size 15 to 20)
#    0.000    2.154    0.000    2.308    2.154    7.385 
#    0.000    0.769    0.000    3.692    0.000    0.000 
#    0.000    0.000    0.000    0.000    0.000    0.000 
#
# Total GULP energy -144741.602826 kJ/mol
# GULP energy per Si atom -5566.984724 kJ/mol
# Density = 2.425281 g / cm^3
# Si number density = 24.308133 Si / 1000 Ang^3
#
#
#
# Elastic Constant Matrix: (Units=GPa)
#
#
# Indices 1 2 3 4 5 6 
#
# 1 237.5198 38.3685 23.2379 0.0000 0.0000 0.0000
# 2 38.3685 92.4073 6.1755 0.0000 0.0000 0.0000
# 3 23.2379 6.1755 55.7774 0.0000 0.0000 0.0000
# 4 0.0000 0.0000 0.0000 -17.5265 0.0000 0.0000
# 5 0.0000 0.0000 0.0000 0.0000 -3.7700 0.0000
# 6 0.0000 0.0000 0.0000 0.0000 0.0000 96.2043
#
#
#
# Elastic Compliance Matrix: (Units=1/GPa)
#
#
# Indices 1 2 3 4 5 6 
#
# 1 0.004676 -0.001825 -0.001746 0.000000 0.000000 0.000000
# 2 -0.001825 0.011614 -0.000526 0.000000 0.000000 0.000000
# 3 -0.001746 -0.000526 0.018714 0.000000 0.000000 0.000000
# 4 0.000000 0.000000 0.000000 -0.057056 0.000000 0.000000
# 5 0.000000 0.000000 0.000000 0.000000 -0.265250 0.000000
# 6 0.000000 0.000000 0.000000 0.000000 0.000000 0.010395
#
#
# Mechanical properties :
#
#
# Convention : Reuss Voigt Hill
#
# Bulk Modulus (GPa) = 37.29756 57.91868 47.60812
# Shear Modulus (GPa) = -19.24724 36.17638 8.46457
#
# Velocity S-wave (km/s) = -2.81695 3.86196 1.86809
# Velocity P-wave (km/s) = 2.19013 6.61550 4.92755
#
# Compressibility (1/GPa) = 0.02681141
#
# Stress axis : x y z
#
# Youngs Moduli (GPa) = 213.86894 86.09968 53.43585
#
# Poissons Ratio (x) = 0.15711 0.09330
# Poissons Ratio (y) = 0.39026 0.02809
# Poissons Ratio (z) = 0.37341 0.04526
#
# Static dielectric constant tensor:
#      x y z
#    x 2.091870 0.000000 0.000000 
#    y 0.000000 1.899050 0.000000 
#    z 0.000000 0.000000 2.010620 
# 
# From -- ./inp_files/4727.got.cif
#   From: 2010.05.17/outbox.cif.g08.bks.cpg/sg66_3_cif.got.tgz:4727.got - 2010.06.03 17:51:23.
