data_PCOD9497128
_publ_section_title
;
Structure prediction by ZEFSAII (Michael W. Deem and Ramdas Pophale) SiO2 
 PCOD9497128
Probable space group: C C C M
;
_chemical_formula_sum "Si O2"
_cell_formula_units_Z 64
_cell_length_a 10.749928
_cell_length_b 17.337621
_cell_length_c 15.629392
_cell_angle_alpha 90.000000
_cell_angle_beta 90.000000
_cell_angle_gamma 90.000000
_cell_volume 2912.977595
_symmetry_space_group_name_H-M "C C C M"
_symmetry_group_IT_number 66
_symmetry_cell_setting 'orthorhombic'
loop_
_space_group_symop_operation_xyz
x,y,z
-x,-y,z
x,-y,1/2-z
-x,y,1/2-z
-x,-y,-z
x,y,-z
-x,y,1/2+z
x,-y,1/2+z
1/2+x,1/2+y,z
1/2-x,1/2-y,z
1/2+x,1/2-y,1/2-z
1/2-x,1/2+y,1/2-z
1/2-x,1/2-y,-z
1/2+x,1/2+y,-z
1/2-x,1/2+y,1/2+z
1/2+x,1/2-y,1/2+z
loop_
_atom_site_type_symbol
_atom_site_label
_atom_site_fract_x
_atom_site_fract_y
_atom_site_fract_z
Si Si1 0.365133 0.524396 0.102401
Si Si2 0.298040 0.167375 0.602435
Si Si3 0.221061 0.854942 0.402119
Si Si4 0.550251 0.770091 0.158312
O O1 0.500000 0.500000 0.138455
O O2 0.285774 0.596764 0.136769
O O3 0.289466 0.445344 0.110681
O O4 0.383746 0.538662 0.000000
O O5 0.282894 0.165480 0.500000
O O6 0.250000 0.250000 0.634478
O O7 0.445037 0.174033 0.619365
O O8 0.262558 0.840657 0.500000
O O9 0.323283 0.819114 0.340077
O O10 0.091331 0.808125 0.390700
O O11 0.500000 0.746877 0.250000
#
# Coordination Sequence:
#
# PCOD9497128 Si02
#       4
#    16  16  16  16
#     4   9  18  35  61  92 119 151 204 263 302 355
#     4  10  20  35  61  90 117 153 201 248 299 363
#     4  10  21  41  65  88 119 163 211 255 311 369
#     4  11  23  37  60  84 125 159 203 251 308 371
#
# _framework density 21.970645999999999
#
# number of rings (size 3 to 8) (size 9 to 14) (size 15 to 20)
#    0.000    2.000    0.000    4.500    3.500    5.000 
#    0.000    6.250    0.000    0.000    0.000    0.000 
#    0.000    0.000    0.000    0.000    0.000    0.000 
#
# Total GULP energy -178510.080632 kJ/mol
# GULP energy per Si atom -5578.440020 kJ/mol
# Density = 2.192064 g / cm^3
# Si number density = 21.970646 Si / 1000 Ang^3
#
#
#
# Elastic Constant Matrix: (Units=GPa)
#
#
# Indices 1 2 3 4 5 6 
#
# 1 133.8357 72.2599 16.7453 0.0000 0.0000 0.0000
# 2 72.2599 153.1338 13.6879 0.0000 0.0000 0.0000
# 3 16.7453 13.6879 37.9290 0.0000 0.0000 0.0000
# 4 0.0000 0.0000 0.0000 -21.4207 0.0000 0.0000
# 5 0.0000 0.0000 0.0000 0.0000 31.7822 0.0000
# 6 0.0000 0.0000 0.0000 0.0000 0.0000 41.2267
#
#
#
# Elastic Compliance Matrix: (Units=1/GPa)
#
#
# Indices 1 2 3 4 5 6 
#
# 1 0.010325 -0.004613 -0.002893 0.000000 0.000000 0.000000
# 2 -0.004613 0.008809 -0.001142 0.000000 0.000000 0.000000
# 3 -0.002893 -0.001142 0.028055 0.000000 0.000000 0.000000
# 4 0.000000 0.000000 0.000000 -0.046684 0.000000 0.000000
# 5 0.000000 0.000000 0.000000 0.000000 0.031464 0.000000
# 6 0.000000 0.000000 0.000000 0.000000 0.000000 0.024256
#
#
# Mechanical properties :
#
#
# Convention : Reuss Voigt Hill
#
# Bulk Modulus (GPa) = 33.45543 58.92052 46.18797
# Shear Modulus (GPa) = 59.88980 25.13133 42.51057
#
# Velocity S-wave (km/s) = 5.22668 3.38577 4.40350
# Velocity P-wave (km/s) = 7.18920 6.49312 6.85001
#
# Compressibility (1/GPa) = 0.02989052
#
# Stress axis : x y z
#
# Youngs Moduli (GPa) = 96.85539 113.51699 35.64463
#
# Poissons Ratio (x) = 0.52369 0.10313
# Poissons Ratio (y) = 0.44683 0.04072
# Poissons Ratio (z) = 0.28024 0.12968
#
# Static dielectric constant tensor:
#      x y z
#    x 1.893500 0.000000 0.000000 
#    y 0.000000 1.803840 0.000000 
#    z 0.000000 0.000000 1.814060 
# 
# From -- ./inp_files/25779.got.cif
#   From: 2010.05.17/outbox.cif.g08.bks.cpg/sg66_13_cif.got.tgz:25779.got - 2010.06.03 17:51:23.
