data_PCOD9497603
_publ_section_title
;
Structure prediction by ZEFSAII (Michael W. Deem and Ramdas Pophale) SiO2 
 PCOD9497603
Probable space group: C C C M
;
_chemical_formula_sum "Si O2"
_cell_formula_units_Z 112
_cell_length_a 11.866653
_cell_length_b 30.278917
_cell_length_c 15.611006
_cell_angle_alpha 90.000000
_cell_angle_beta 90.000000
_cell_angle_gamma 90.000000
_cell_volume 5609.181219
_symmetry_space_group_name_H-M "C C C M"
_symmetry_group_IT_number 66
_symmetry_cell_setting 'orthorhombic'
loop_
_space_group_symop_operation_xyz
x,y,z
-x,-y,z
x,-y,1/2-z
-x,y,1/2-z
-x,-y,-z
x,y,-z
-x,y,1/2+z
x,-y,1/2+z
1/2+x,1/2+y,z
1/2-x,1/2-y,z
1/2+x,1/2-y,1/2-z
1/2-x,1/2+y,1/2-z
1/2-x,1/2-y,-z
1/2+x,1/2+y,-z
1/2-x,1/2+y,1/2+z
1/2+x,1/2-y,1/2+z
loop_
_atom_site_type_symbol
_atom_site_label
_atom_site_fract_x
_atom_site_fract_y
_atom_site_fract_z
Si Si1 0.133747 0.090365 0.254496
Si Si2 0.377317 0.802602 0.905494
Si Si3 0.220296 0.545396 0.900668
Si Si4 0.489651 0.105116 0.352463
Si Si5 0.278292 0.059389 0.903166
Si Si6 0.423822 0.229928 0.826080
Si Si7 0.720885 0.689750 0.241569
O O1 0.186421 0.064275 0.335279
O O2 0.188254 0.071513 0.168306
O O3 0.173267 0.141409 0.255460
O O4 0.000000 0.087290 0.250000
O O5 0.441186 0.849466 0.891385
O O6 0.482027 0.768045 0.898640
O O7 0.283841 0.797776 0.830922
O O8 0.326524 0.801064 0.000000
O O9 0.104695 0.569181 0.875172
O O10 0.201496 0.492998 0.893488
O O11 0.248122 0.555411 0.000000
O O12 0.500000 0.109144 0.250000
O O13 0.608545 0.087635 0.387347
O O14 0.238698 0.067563 0.000000
O O15 0.500000 0.211060 0.750000
O O16 0.372692 0.275686 0.791081
O O17 0.318716 0.196430 0.830792
#
# Coordination Sequence:
#
# PCOD9497603 Si02
#       7
#    16  16  16  16  16  16  16
#     4  12  25  41  64  90 124 178 233 269 322 388
#     4  11  21  36  63  98 130 162 208 268 327 390
#     4  11  24  41  64  94 130 168 217 279 332 387
#     4  12  21  37  67 100 132 168 208 263 341 404
#     4  11  24  41  61  92 131 171 216 275 336 391
#     4   9  19  37  61  86 119 159 198 252 325 391
#     4  10  20  39  62  86 120 167 213 257 321 385
#
# _framework density 19.967262999999999
#
# number of rings (size 3 to 8) (size 9 to 14) (size 15 to 20)
#    0.000    1.143    2.857    4.714    0.000    3.429 
#    0.000    9.286    0.000    5.143    0.000    0.000 
#    0.000    0.000    0.000    0.000    0.000    0.000 
#
# Total GULP energy -312595.855908 kJ/mol
# GULP energy per Si atom -5582.068855 kJ/mol
# Density = 1.992182 g / cm^3
# Si number density = 19.967263 Si / 1000 Ang^3
#
#
#
# Elastic Constant Matrix: (Units=GPa)
#
#
# Indices 1 2 3 4 5 6 
#
# 1 93.1181 32.8535 27.5469 0.0000 0.0000 0.0000
# 2 32.8535 100.4914 40.4241 0.0000 0.0000 0.0000
# 3 27.5469 40.4241 118.4961 0.0000 0.0000 0.0000
# 4 0.0000 0.0000 0.0000 17.5421 0.0000 0.0000
# 5 0.0000 0.0000 0.0000 0.0000 1.8593 0.0000
# 6 0.0000 0.0000 0.0000 0.0000 0.0000 16.3240
#
#
#
# Elastic Compliance Matrix: (Units=1/GPa)
#
#
# Indices 1 2 3 4 5 6 
#
# 1 0.012443 -0.003366 -0.001744 0.000000 0.000000 0.000000
# 2 -0.003366 0.012445 -0.003463 0.000000 0.000000 0.000000
# 3 -0.001744 -0.003463 0.010026 0.000000 0.000000 0.000000
# 4 0.000000 0.000000 0.000000 0.057006 0.000000 0.000000
# 5 0.000000 0.000000 0.000000 0.000000 0.537841 0.000000
# 6 0.000000 0.000000 0.000000 0.000000 0.000000 0.061259
#
#
# Mechanical properties :
#
#
# Convention : Reuss Voigt Hill
#
# Bulk Modulus (GPa) = 56.28525 57.08384 56.68455
# Shear Modulus (GPa) = 7.00194 21.23049 14.11621
#
# Velocity S-wave (km/s) = 1.87465 3.26431 2.66177
# Velocity P-wave (km/s) = 5.73897 6.54663 6.15606
#
# Compressibility (1/GPa) = 0.01776664
#
# Stress axis : x y z
#
# Youngs Moduli (GPa) = 80.36841 80.35613 99.74177
#
# Poissons Ratio (x) = 0.27050 0.17397
# Poissons Ratio (y) = 0.27054 0.34539
# Poissons Ratio (z) = 0.14018 0.27826
#
# Static dielectric constant tensor:
#      x y z
#    x 1.719340 0.000000 0.000000 
#    y 0.000000 1.747040 0.000000 
#    z 0.000000 0.000000 1.752120 
# 
# From -- ./inp_files/26956.got.cif
#   From: 2010.05.17/outbox.cif.g08.bks.cpg/sg66_14_cif.got.tgz:26956.got - 2010.06.03 17:51:23.
