data_PCOD9497915
_publ_section_title
;
Structure prediction by ZEFSAII (Michael W. Deem and Ramdas Pophale) SiO2 
 PCOD9497915
Probable space group: C C C M
;
_chemical_formula_sum "Si O2"
_cell_formula_units_Z 100
_cell_length_a 10.554529
_cell_length_b 16.556012
_cell_length_c 32.999038
_cell_angle_alpha 90.000000
_cell_angle_beta 90.000000
_cell_angle_gamma 90.000000
_cell_volume 5766.281889
_symmetry_space_group_name_H-M "C C C M"
_symmetry_group_IT_number 66
_symmetry_cell_setting 'orthorhombic'
loop_
_space_group_symop_operation_xyz
x,y,z
-x,-y,z
x,-y,1/2-z
-x,y,1/2-z
-x,-y,-z
x,y,-z
-x,y,1/2+z
x,-y,1/2+z
1/2+x,1/2+y,z
1/2-x,1/2-y,z
1/2+x,1/2-y,1/2-z
1/2-x,1/2+y,1/2-z
1/2-x,1/2-y,-z
1/2+x,1/2+y,-z
1/2-x,1/2+y,1/2+z
1/2+x,1/2-y,1/2+z
loop_
_atom_site_type_symbol
_atom_site_label
_atom_site_fract_x
_atom_site_fract_y
_atom_site_fract_z
Si Si1 0.871617 0.444844 0.546134
Si Si2 0.626122 0.304915 0.141294
Si Si3 0.681926 0.919161 0.816496
Si Si4 0.531651 0.592181 0.797027
Si Si5 0.500000 0.000000 0.250000
Si Si6 0.533721 0.162504 0.386843
Si Si7 0.285155 0.948379 0.885162
O O1 0.831066 0.431817 0.500000
O O2 0.898041 0.363173 0.571598
O O3 0.779521 0.496183 0.575159
O O4 0.000000 0.500000 0.544498
O O5 0.750000 0.250000 0.152012
O O6 0.553032 0.343337 0.179120
O O7 0.529283 0.249583 0.116286
O O8 0.678271 0.381035 0.116530
O O9 0.819315 0.891444 0.801966
O O10 0.617647 0.855481 0.847119
O O11 0.589809 0.946589 0.779794
O O12 0.709566 0.996534 0.845245
O O13 0.500000 0.500000 0.811094
O O14 0.500000 0.595181 0.750000
O O15 0.418326 0.098718 0.384533
#
# Coordination Sequence:
#
# PCOD9497915 Si02
#       7
#    16  16  16  16   4  16  16
#     4   8  14  27  52  83 113 141 182 231 269 326
#     4  10  21  37  55  75 113 149 175 230 293 327
#     4  11  20  33  57  78 104 143 192 228 270 333
#     4  11  23  39  55  77 106 144 196 239 270 323
#     4  12  20  32  58  84 106 148 194 238 280 320
#     4   9  18  33  51  79 111 144 181 221 286 337
#     4   9  16  33  52  78 108 146 185 221 272 336
#
# _framework density 17.342198
#
# number of rings (size 3 to 8) (size 9 to 14) (size 15 to 20)
#    0.000    2.240    3.200    1.920    0.000    0.640 
#    4.320    0.800    0.000    4.800    0.000   17.920 
#    0.000    0.000    0.000    0.000    0.000    0.000 
#
# Total GULP energy -278571.265345 kJ/mol
# GULP energy per Si atom -5571.425307 kJ/mol
# Density = 1.730273 g / cm^3
# Si number density = 17.342198 Si / 1000 Ang^3
#
#
#
# Elastic Constant Matrix: (Units=GPa)
#
#
# Indices 1 2 3 4 5 6 
#
# 1 88.2551 39.4409 55.5082 0.0000 0.0000 0.0000
# 2 39.4409 88.1974 53.2088 0.0000 0.0000 0.0000
# 3 55.5082 53.2088 135.4410 0.0000 0.0000 0.0000
# 4 0.0000 0.0000 0.0000 0.4319 0.0000 0.0000
# 5 0.0000 0.0000 0.0000 0.0000 9.0329 0.0000
# 6 0.0000 0.0000 0.0000 0.0000 0.0000 20.9735
#
#
#
# Elastic Compliance Matrix: (Units=1/GPa)
#
#
# Indices 1 2 3 4 5 6 
#
# 1 0.016424 -0.004304 -0.005040 0.000000 0.000000 0.000000
# 2 -0.004304 0.015988 -0.004517 0.000000 0.000000 0.000000
# 3 -0.005040 -0.004517 0.011224 0.000000 0.000000 0.000000
# 4 0.000000 0.000000 0.000000 2.315357 0.000000 0.000000
# 5 0.000000 0.000000 0.000000 0.000000 0.110706 0.000000
# 6 0.000000 0.000000 0.000000 0.000000 0.000000 0.047679
#
#
# Mechanical properties :
#
#
# Convention : Reuss Voigt Hill
#
# Bulk Modulus (GPa) = 62.84145 67.57880 65.21012
# Shear Modulus (GPa) = 1.96047 17.00338 9.48192
#
# Velocity S-wave (km/s) = 1.06439 3.13463 2.34081
# Velocity P-wave (km/s) = 6.15023 7.22175 6.70742
#
# Compressibility (1/GPa) = 0.01591306
#
# Stress axis : x y z
#
# Youngs Moduli (GPa) = 60.88507 62.54689 89.09805
#
# Poissons Ratio (x) = 0.26920 0.44909
# Poissons Ratio (y) = 0.26205 0.40246
# Poissons Ratio (z) = 0.30689 0.28253
#
# Static dielectric constant tensor:
#      x y z
#    x 1.605540 0.000000 0.000000 
#    y 0.000000 1.600580 0.000000 
#    z 0.000000 0.000000 1.567180 
# 
# From -- ./inp_files/69029.got.cif
#   From: 2010.05.17/outbox.cif.g08.bks.cpg/sg66_35_cif.got.tgz:69029.got - 2010.06.03 17:51:23.
