data_PCOD9497116
_publ_section_title
;
Structure prediction by ZEFSAII (Michael W. Deem and Ramdas Pophale) SiO2 
 PCOD9497116
Probable space group: C C C M
;
_chemical_formula_sum "Si O2"
_cell_formula_units_Z 80
_cell_length_a 11.474642
_cell_length_b 16.714743
_cell_length_c 22.850267
_cell_angle_alpha 90.000000
_cell_angle_beta 90.000000
_cell_angle_gamma 90.000000
_cell_volume 4382.582773
_symmetry_space_group_name_H-M "C C C M"
_symmetry_group_IT_number 66
_symmetry_cell_setting 'orthorhombic'
loop_
_space_group_symop_operation_xyz
x,y,z
-x,-y,z
x,-y,1/2-z
-x,y,1/2-z
-x,-y,-z
x,y,-z
-x,y,1/2+z
x,-y,1/2+z
1/2+x,1/2+y,z
1/2-x,1/2-y,z
1/2+x,1/2-y,1/2-z
1/2-x,1/2+y,1/2-z
1/2-x,1/2-y,-z
1/2+x,1/2+y,-z
1/2-x,1/2+y,1/2+z
1/2+x,1/2-y,1/2+z
loop_
_atom_site_type_symbol
_atom_site_label
_atom_site_fract_x
_atom_site_fract_y
_atom_site_fract_z
Si Si1 0.865177 0.516646 0.616457
Si Si2 0.246190 0.157131 0.324986
Si Si3 0.989362 0.121708 0.500000
Si Si4 0.499468 0.596489 0.125438
Si Si5 0.287122 0.423679 0.790783
Si Si6 0.710818 0.510414 0.500000
O O1 0.844093 0.604845 0.642882
O O2 0.809939 0.456170 0.664365
O O3 0.790205 0.510199 0.557377
O O4 0.000000 0.500000 0.606378
O O5 0.250000 0.250000 0.338953
O O6 0.123552 0.119590 0.346601
O O7 0.255522 0.141466 0.255583
O O8 0.877190 0.063706 0.500000
O O9 0.982906 0.150716 0.432698
O O10 0.119591 0.083651 0.500000
O O11 0.500000 0.500000 0.109748
O O12 0.602687 0.604860 0.171898
O O13 0.320719 0.500000 0.750000
#
# Coordination Sequence:
#
# PCOD9497116 Si02
#       6
#    16  16   8  16  16   8
#     4  11  22  38  60  85 125 161 196 238 300 363
#     4  11  24  39  58  91 123 155 198 248 301 350
#     4  11  16  30  64  93 114 138 200 270 284 320
#     4  12  17  35  63  89 117 147 203 252 293 337
#     4  10  20  35  60  85 114 157 202 243 285 350
#     4  11  17  34  60  95 114 144 205 255 292 337
#
# _framework density 18.254075
#
# number of rings (size 3 to 8) (size 9 to 14) (size 15 to 20)
#    0.000    1.000   10.000    0.900    0.000    3.600 
#    7.200    2.000    0.000    0.000    0.000    2.800 
#    0.000    0.000    0.000    0.000    0.000    0.000 
#
# Total GULP energy -222947.043397 kJ/mol
# GULP energy per Si atom -5573.676085 kJ/mol
# Density = 1.821253 g / cm^3
# Si number density = 18.254075 Si / 1000 Ang^3
#
#
#
# Elastic Constant Matrix: (Units=GPa)
#
#
# Indices 1 2 3 4 5 6 
#
# 1 131.6590 35.1433 54.5777 0.0000 0.0000 0.0000
# 2 35.1433 60.0016 11.3300 0.0000 0.0000 0.0000
# 3 54.5777 11.3300 138.1459 0.0000 0.0000 0.0000
# 4 0.0000 0.0000 0.0000 4.2917 0.0000 0.0000
# 5 0.0000 0.0000 0.0000 0.0000 14.2059 0.0000
# 6 0.0000 0.0000 0.0000 0.0000 0.0000 7.9904
#
#
#
# Elastic Compliance Matrix: (Units=1/GPa)
#
#
# Indices 1 2 3 4 5 6 
#
# 1 0.010618 -0.005512 -0.003743 0.000000 0.000000 0.000000
# 2 -0.005512 0.019790 0.000555 0.000000 0.000000 0.000000
# 3 -0.003743 0.000555 0.008672 0.000000 0.000000 0.000000
# 4 0.000000 0.000000 0.000000 0.233007 0.000000 0.000000
# 5 0.000000 0.000000 0.000000 0.000000 0.070394 0.000000
# 6 0.000000 0.000000 0.000000 0.000000 0.000000 0.125150
#
#
# Mechanical properties :
#
#
# Convention : Reuss Voigt Hill
#
# Bulk Modulus (GPa) = 46.12720 59.10093 52.61407
# Shear Modulus (GPa) = 10.15726 20.54796 15.35261
#
# Velocity S-wave (km/s) = 2.36145 3.35873 2.90323
# Velocity P-wave (km/s) = 5.72361 6.89120 6.33436
#
# Compressibility (1/GPa) = 0.02167918
#
# Stress axis : x y z
#
# Youngs Moduli (GPa) = 94.17617 50.53014 115.31422
#
# Poissons Ratio (x) = 0.27855 0.43161
# Poissons Ratio (y) = 0.51914 -0.06397
# Poissons Ratio (z) = 0.35250 -0.02803
#
# Static dielectric constant tensor:
#      x y z
#    x 1.598920 0.000000 0.000000 
#    y 0.000000 1.634940 0.000000 
#    z 0.000000 0.000000 1.684500 
# 
# From -- ./inp_files/48465.got.cif
#   From: 2010.05.17/outbox.cif.g08.bks.cpg/sg66_25_cif.got.tgz:48465.got - 2010.06.03 17:51:23.
