data_PCOD9497824
_publ_section_title
;
Structure prediction by ZEFSAII (Michael W. Deem and Ramdas Pophale) SiO2 
 PCOD9497824
Probable space group: C C C M
;
_chemical_formula_sum "Si O2"
_cell_formula_units_Z 64
_cell_length_a 5.238277
_cell_length_b 30.324210
_cell_length_c 19.547918
_cell_angle_alpha 90.000000
_cell_angle_beta 90.000000
_cell_angle_gamma 90.000000
_cell_volume 3105.120542
_symmetry_space_group_name_H-M "C C C M"
_symmetry_group_IT_number 66
_symmetry_cell_setting 'orthorhombic'
loop_
_space_group_symop_operation_xyz
x,y,z
-x,-y,z
x,-y,1/2-z
-x,y,1/2-z
-x,-y,-z
x,y,-z
-x,y,1/2+z
x,-y,1/2+z
1/2+x,1/2+y,z
1/2-x,1/2-y,z
1/2+x,1/2-y,1/2-z
1/2-x,1/2+y,1/2-z
1/2-x,1/2-y,-z
1/2+x,1/2+y,-z
1/2-x,1/2+y,1/2+z
1/2+x,1/2-y,1/2+z
loop_
_atom_site_type_symbol
_atom_site_label
_atom_site_fract_x
_atom_site_fract_y
_atom_site_fract_z
Si Si1 0.094116 0.423293 0.076716
Si Si2 0.743929 0.049174 0.719345
Si Si3 0.097321 0.136306 0.576945
Si Si4 0.502516 0.278931 0.168736
O O1 0.187822 0.454128 0.138808
O O2 0.331728 0.389916 0.073898
O O3 0.832007 0.397032 0.093667
O O4 0.063872 0.442682 0.000000
O O5 0.500000 0.073761 0.750000
O O6 0.000000 0.070310 0.750000
O O7 0.747753 0.000000 0.750000
O O8 0.156135 0.152969 0.500000
O O9 0.044288 0.176007 0.628082
O O10 0.500000 0.287899 0.250000
O O11 0.750000 0.250000 0.153491
O O12 0.250000 0.250000 0.151793
#
# Coordination Sequence:
#
# PCOD9497824 Si02
#       4
#    16  16  16  16
#     4  10  21  38  58  83 116 150 190 240 291 342
#     4  10  21  38  58  85 115 146 189 237 287 351
#     4  10  21  36  57  84 111 148 195 237 284 341
#     4  10  21  36  53  78 113 150 189 234 287 342
#
# _framework density 20.611117
#
# number of rings (size 3 to 8) (size 9 to 14) (size 15 to 20)
#    0.000    2.000    0.000    3.000    0.000    4.000 
#    0.000    5.000    0.000    0.000    0.000    0.000 
#    0.000    0.000    0.000    0.000    0.000    0.000 
#
# Total GULP energy -178338.706188 kJ/mol
# GULP energy per Si atom -5573.084568 kJ/mol
# Density = 2.056421 g / cm^3
# Si number density = 20.611117 Si / 1000 Ang^3
#
#
#
# Elastic Constant Matrix: (Units=GPa)
#
#
# Indices 1 2 3 4 5 6 
#
# 1 161.8964 12.0680 11.9300 0.0000 0.0000 0.0000
# 2 12.0680 55.1293 43.7615 0.0000 0.0000 0.0000
# 3 11.9300 43.7615 106.5502 0.0000 0.0000 0.0000
# 4 0.0000 0.0000 0.0000 -337.9022 0.0000 0.0000
# 5 0.0000 0.0000 0.0000 0.0000 23.4361 0.0000
# 6 0.0000 0.0000 0.0000 0.0000 0.0000 12.2157
#
#
#
# Elastic Compliance Matrix: (Units=1/GPa)
#
#
# Indices 1 2 3 4 5 6 
#
# 1 0.006282 -0.001212 -0.000206 0.000000 0.000000 0.000000
# 2 -0.001212 0.027147 -0.011014 0.000000 0.000000 0.000000
# 3 -0.000206 -0.011014 0.013932 0.000000 0.000000 0.000000
# 4 0.000000 0.000000 0.000000 -0.002959 0.000000 0.000000
# 5 0.000000 0.000000 0.000000 0.000000 0.042669 0.000000
# 6 0.000000 0.000000 0.000000 0.000000 0.000000 0.081862
#
#
# Mechanical properties :
#
#
# Convention : Reuss Voigt Hill
#
# Bulk Modulus (GPa) = 44.44799 51.01054 47.72926
# Shear Modulus (GPa) = 24.83904 -43.39565 -9.27831
#
# Velocity S-wave (km/s) = 3.47526 -4.59350 -2.12400
# Velocity P-wave (km/s) = 6.14126 1.82506 4.14634
#
# Compressibility (1/GPa) = 0.02249821
#
# Stress axis : x y z
#
# Youngs Moduli (GPa) = 159.17772 36.83594 71.77779
#
# Poissons Ratio (x) = 0.04464 0.01476
# Poissons Ratio (y) = 0.19292 0.79057
# Poissons Ratio (z) = 0.03273 0.40571
#
# Static dielectric constant tensor:
#      x y z
#    x 1.834800 0.000000 0.000000 
#    y 0.000000 1.710240 0.000000 
#    z 0.000000 0.000000 1.817470 
# 
# From -- ./inp_files/35024.got.cif
#   From: 2010.05.17/outbox.cif.g08.bks.cpg/sg66_18_cif.got.tgz:35024.got - 2010.06.03 17:51:23.
