data_PCOD9497685
_publ_section_title
;
Structure prediction by ZEFSAII (Michael W. Deem and Ramdas Pophale) SiO2 
 PCOD9497685
Probable space group: C C C M
;
_chemical_formula_sum "Si O2"
_cell_formula_units_Z 116
_cell_length_a 11.562000
_cell_length_b 24.781717
_cell_length_c 18.310626
_cell_angle_alpha 90.000000
_cell_angle_beta 90.000000
_cell_angle_gamma 90.000000
_cell_volume 5246.474306
_symmetry_space_group_name_H-M "C C C M"
_symmetry_group_IT_number 66
_symmetry_cell_setting 'orthorhombic'
loop_
_space_group_symop_operation_xyz
x,y,z
-x,-y,z
x,-y,1/2-z
-x,y,1/2-z
-x,-y,-z
x,y,-z
-x,y,1/2+z
x,-y,1/2+z
1/2+x,1/2+y,z
1/2-x,1/2-y,z
1/2+x,1/2-y,1/2-z
1/2-x,1/2+y,1/2-z
1/2-x,1/2-y,-z
1/2+x,1/2+y,-z
1/2-x,1/2+y,1/2+z
1/2+x,1/2-y,1/2+z
loop_
_atom_site_type_symbol
_atom_site_label
_atom_site_fract_x
_atom_site_fract_y
_atom_site_fract_z
Si Si1 0.633604 0.388478 0.693489
Si Si2 0.120799 0.228291 0.264110
Si Si3 0.578424 0.138582 0.082461
Si Si4 0.113377 0.927148 0.850105
Si Si5 0.000000 0.500000 0.250000
Si Si6 0.343006 0.901516 0.414669
Si Si7 0.162644 0.523575 0.122025
Si Si8 0.318243 0.319043 0.584809
O O1 0.607271 0.326369 0.714792
O O2 0.670412 0.411751 0.772029
O O3 0.522511 0.423754 0.667666
O O4 0.731954 0.390907 0.633802
O O5 0.250000 0.250000 0.246820
O O6 0.122484 0.213692 0.350510
O O7 0.000000 0.259826 0.250000
O O8 0.451733 0.132709 0.115526
O O9 0.627341 0.077362 0.079699
O O10 0.684500 0.173855 0.110588
O O11 0.560973 0.157950 0.000000
O O12 0.196828 0.975743 0.873358
O O13 0.130760 0.879214 0.907948
O O14 0.089921 0.530235 0.197016
O O15 0.324906 0.889313 0.500000
O O16 0.371678 0.965366 0.408579
O O17 0.325607 0.301509 0.500000
#
# Coordination Sequence:
#
# PCOD9497685 Si02
#       8
#    16  16  16  16   4  16  16  16
#     4  10  20  41  58  81 116 160 201 243 311 371
#     4  11  23  44  69  96 126 156 198 256 322 387
#     4   9  18  34  54  79 118 164 203 253 305 352
#     4   9  19  36  60  78 117 160 204 248 291 361
#     4  12  20  28  46  82 116 156 220 266 322 348
#     4  11  22  35  55  84 125 163 208 264 310 356
#     4  11  20  32  48  81 115 159 210 260 297 353
#     4   9  18  36  64  93 120 159 205 243 298 371
#
# _framework density 22.110085000000002
#
# number of rings (size 3 to 8) (size 9 to 14) (size 15 to 20)
#    0.000    1.931    4.138    1.241    0.000    4.138 
#    0.000    2.069    0.000    1.655    0.000    0.000 
#    0.000    0.000    0.000    0.000    0.000    0.000 
#
# Total GULP energy -323022.109668 kJ/mol
# GULP energy per Si atom -5569.346718 kJ/mol
# Density = 2.205976 g / cm^3
# Si number density = 22.110085 Si / 1000 Ang^3
#
#
#
# Elastic Constant Matrix: (Units=GPa)
#
#
# Indices 1 2 3 4 5 6 
#
# 1 161.7433 16.5914 59.9567 0.0000 0.0000 0.0000
# 2 16.5914 29.6238 13.2108 0.0000 0.0000 0.0000
# 3 59.9567 13.2108 99.1728 0.0000 0.0000 0.0000
# 4 0.0000 0.0000 0.0000 0.6109 0.0000 0.0000
# 5 0.0000 0.0000 0.0000 0.0000 13.4338 0.0000
# 6 0.0000 0.0000 0.0000 0.0000 0.0000 23.3468
#
#
#
# Elastic Compliance Matrix: (Units=1/GPa)
#
#
# Indices 1 2 3 4 5 6 
#
# 1 0.008141 -0.002514 -0.004587 0.000000 0.000000 0.000000
# 2 -0.002514 0.036665 -0.003364 0.000000 0.000000 0.000000
# 3 -0.004587 -0.003364 0.013305 0.000000 0.000000 0.000000
# 4 0.000000 0.000000 0.000000 1.636916 0.000000 0.000000
# 5 0.000000 0.000000 0.000000 0.000000 0.074439 0.000000
# 6 0.000000 0.000000 0.000000 0.000000 0.000000 0.042832
#
#
# Mechanical properties :
#
#
# Convention : Reuss Voigt Hill
#
# Bulk Modulus (GPa) = 26.89598 52.22865 39.56232
# Shear Modulus (GPa) = 2.70911 20.86368 11.78640
#
# Velocity S-wave (km/s) = 1.10813 3.07518 2.31135
# Velocity P-wave (km/s) = 3.71863 6.02349 5.00553
#
# Compressibility (1/GPa) = 0.03718027
#
# Stress axis : x y z
#
# Youngs Moduli (GPa) = 122.83821 27.27404 75.16198
#
# Poissons Ratio (x) = 0.06856 0.34475
# Poissons Ratio (y) = 0.30881 0.25287
# Poissons Ratio (z) = 0.56343 0.09176
#
# Static dielectric constant tensor:
#      x y z
#    x 1.901630 0.000000 0.000000 
#    y 0.000000 1.847550 0.000000 
#    z 0.000000 0.000000 1.792670 
# 
# From -- ./inp_files/39220.got.cif
#   From: 2010.05.17/outbox.cif.g08.bks.cpg/sg66_20_cif.got.tgz:39220.got - 2010.06.03 17:51:23.
