data_PCOD9497455
_publ_section_title
;
Structure prediction by ZEFSAII (Michael W. Deem and Ramdas Pophale) SiO2 
 PCOD9497455
Probable space group: C C C M
;
_chemical_formula_sum "Si O2"
_cell_formula_units_Z 128
_cell_length_a 11.864106
_cell_length_b 20.675178
_cell_length_c 25.372417
_cell_angle_alpha 90.000000
_cell_angle_beta 90.000000
_cell_angle_gamma 90.000000
_cell_volume 6223.663682
_symmetry_space_group_name_H-M "C C C M"
_symmetry_group_IT_number 66
_symmetry_cell_setting 'orthorhombic'
loop_
_space_group_symop_operation_xyz
x,y,z
-x,-y,z
x,-y,1/2-z
-x,y,1/2-z
-x,-y,-z
x,y,-z
-x,y,1/2+z
x,-y,1/2+z
1/2+x,1/2+y,z
1/2-x,1/2-y,z
1/2+x,1/2-y,1/2-z
1/2-x,1/2+y,1/2-z
1/2-x,1/2-y,-z
1/2+x,1/2+y,-z
1/2-x,1/2+y,1/2+z
1/2+x,1/2-y,1/2+z
loop_
_atom_site_type_symbol
_atom_site_label
_atom_site_fract_x
_atom_site_fract_y
_atom_site_fract_z
Si Si1 0.189761 0.461367 0.696671
Si Si2 0.886354 0.876332 0.256455
Si Si3 0.348823 0.628766 0.557554
Si Si4 0.871884 0.232081 0.837756
Si Si5 0.247909 0.674464 0.337797
Si Si6 0.001554 0.360712 0.686774
Si Si7 0.868060 0.994007 0.388182
Si Si8 0.614539 0.646785 0.560530
O O1 0.159500 0.500000 0.750000
O O2 0.281038 0.408366 0.714955
O O3 0.079564 0.423494 0.675722
O O4 0.267551 0.499585 0.654795
O O5 0.921752 0.818108 0.295532
O O6 0.839893 0.857463 0.199874
O O7 0.000000 0.917430 0.250000
O O8 0.300566 0.639579 0.500000
O O9 0.283646 0.666144 0.602388
O O10 0.351471 0.552851 0.571657
O O11 0.478998 0.649896 0.558477
O O12 0.750000 0.250000 0.815315
O O13 0.943476 0.297302 0.839450
O O14 0.853152 0.198062 0.894241
O O15 0.250000 0.750000 0.323474
O O16 0.128278 0.639888 0.329486
O O17 0.000000 0.352296 0.750000
O O18 0.856245 0.924490 0.416751
O O19 0.000000 0.000000 0.369131
O O20 0.656031 0.655691 0.500000
#
# Coordination Sequence:
#
# PCOD9497455 Si02
#       8
#    16  16  16  16  16  16  16  16
#     4  12  26  40  61  95 132 175 217 269 325 388
#     4  12  23  38  62  94 129 163 209 268 327 396
#     4  10  22  41  63  91 124 166 218 271 328 386
#     4  12  21  39  62  88 125 167 213 264 328 397
#     4  12  24  41  66  96 125 171 219 267 329 397
#     4  12  24  44  61  90 131 174 216 261 327 412
#     4  10  21  39  63  93 129 168 215 267 327 389
#     4  10  20  37  63  95 127 163 210 272 336 391
#
# _framework density 20.566662999999998
#
# number of rings (size 3 to 8) (size 9 to 14) (size 15 to 20)
#    0.000    0.750    3.750    4.875    3.500    2.250 
#    0.000    0.625    0.000    2.250    0.000    0.000 
#    0.000    0.000    0.000    0.000    0.000    0.000 
#
# Total GULP energy -357659.833210 kJ/mol
# GULP energy per Si atom -5588.434894 kJ/mol
# Density = 2.051985 g / cm^3
# Si number density = 20.566663 Si / 1000 Ang^3
#
#
#
# Elastic Constant Matrix: (Units=GPa)
#
#
# Indices 1 2 3 4 5 6 
#
# 1 110.7498 19.6591 16.6273 0.0000 0.0000 0.0000
# 2 19.6591 57.2931 12.0083 0.0000 0.0000 0.0000
# 3 16.6273 12.0083 102.5837 0.0000 0.0000 0.0000
# 4 0.0000 0.0000 0.0000 49.3205 0.0000 0.0000
# 5 0.0000 0.0000 0.0000 0.0000 29.6887 0.0000
# 6 0.0000 0.0000 0.0000 0.0000 0.0000 -2.2377
#
#
#
# Elastic Compliance Matrix: (Units=1/GPa)
#
#
# Indices 1 2 3 4 5 6 
#
# 1 0.009762 -0.003094 -0.001220 0.000000 0.000000 0.000000
# 2 -0.003094 0.018874 -0.001708 0.000000 0.000000 0.000000
# 3 -0.001220 -0.001708 0.010146 0.000000 0.000000 0.000000
# 4 0.000000 0.000000 0.000000 0.020276 0.000000 0.000000
# 5 0.000000 0.000000 0.000000 0.000000 0.033683 0.000000
# 6 0.000000 0.000000 0.000000 0.000000 0.000000 -0.446897
#
#
# Mechanical properties :
#
#
# Convention : Reuss Voigt Hill
#
# Bulk Modulus (GPa) = 37.40046 40.80180 39.10113
# Shear Modulus (GPa) = -15.00597 30.17642 7.58523
#
# Velocity S-wave (km/s) = -2.70409 3.83462 1.92253
# Velocity P-wave (km/s) = 2.91119 6.28392 4.89707
#
# Compressibility (1/GPa) = 0.02673764
#
# Stress axis : x y z
#
# Youngs Moduli (GPa) = 102.44093 52.98391 98.56278
#
# Poissons Ratio (x) = 0.16392 0.12025
# Poissons Ratio (y) = 0.31694 0.16833
# Poissons Ratio (z) = 0.12499 0.09049
#
# Static dielectric constant tensor:
#      x y z
#    x 1.750160 0.000000 0.000000 
#    y 0.000000 1.807930 0.000000 
#    z 0.000000 0.000000 1.732660 
# 
# From -- ./inp_files/57360.got.cif
#   From: 2010.05.17/outbox.cif.g08.bks.cpg/sg66_29_cif.got.tgz:57360.got - 2010.06.03 17:51:23.
