data_PCOD9497303
_publ_section_title
;
Structure prediction by ZEFSAII (Michael W. Deem and Ramdas Pophale) SiO2 
 PCOD9497303
Probable space group: C C C M
;
_chemical_formula_sum "Si O2"
_cell_formula_units_Z 88
_cell_length_a 25.079648
_cell_length_b 12.185321
_cell_length_c 14.349811
_cell_angle_alpha 90.000000
_cell_angle_beta 90.000000
_cell_angle_gamma 90.000000
_cell_volume 4385.353348
_symmetry_space_group_name_H-M "C C C M"
_symmetry_group_IT_number 66
_symmetry_cell_setting 'orthorhombic'
loop_
_space_group_symop_operation_xyz
x,y,z
-x,-y,z
x,-y,1/2-z
-x,y,1/2-z
-x,-y,-z
x,y,-z
-x,y,1/2+z
x,-y,1/2+z
1/2+x,1/2+y,z
1/2-x,1/2-y,z
1/2+x,1/2-y,1/2-z
1/2-x,1/2+y,1/2-z
1/2-x,1/2-y,-z
1/2+x,1/2+y,-z
1/2-x,1/2+y,1/2+z
1/2+x,1/2-y,1/2+z
loop_
_atom_site_type_symbol
_atom_site_label
_atom_site_fract_x
_atom_site_fract_y
_atom_site_fract_z
Si Si1 0.500000 0.281773 0.250000
Si Si2 0.811810 0.270855 0.612236
Si Si3 0.642769 0.997001 0.609454
Si Si4 0.536555 0.893751 0.604977
Si Si5 0.189930 0.264220 0.608899
Si Si6 0.880856 0.870101 0.754503
O O1 0.491446 0.201054 0.337578
O O2 0.444421 0.347169 0.241813
O O3 0.814585 0.268403 0.500000
O O4 0.750000 0.250000 0.637068
O O5 0.832888 0.390300 0.646304
O O6 0.850735 0.181398 0.656661
O O7 0.629463 0.019529 0.500000
O O8 0.589766 0.942574 0.651403
O O9 0.682086 0.895004 0.612500
O O10 0.549006 0.853605 0.500000
O O11 0.500000 0.000000 0.598745
O O12 0.186021 0.230968 0.500000
O O13 0.250000 0.250000 0.642963
O O14 0.147042 0.196153 0.668852
O O15 0.871478 0.000000 0.750000
#
# Coordination Sequence:
#
# PCOD9497303 Si02
#       6
#     8  16  16  16  16  16
#     4  12  24  42  62  86 126 173 215 266 320 370
#     4  10  23  43  67  97 133 169 206 261 326 387
#     4   9  18  37  64  95 124 155 204 261 316 374
#     4  10  20  36  62  94 125 158 204 261 318 376
#     4  10  22  42  69  96 124 162 209 266 320 374
#     4  12  27  43  62  92 128 173 220 259 311 387
#
# _framework density 20.066797000000001
#
# number of rings (size 3 to 8) (size 9 to 14) (size 15 to 20)
#    0.000    1.636    1.818    2.182    2.545    3.636 
#    0.000    0.000    0.000    3.273    0.000    0.000 
#    0.000    0.000    0.000    0.000    0.000    0.000 
#
# Total GULP energy -245604.194497 kJ/mol
# GULP energy per Si atom -5581.913511 kJ/mol
# Density = 2.002112 g / cm^3
# Si number density = 20.066797 Si / 1000 Ang^3
#
#
#
# Elastic Constant Matrix: (Units=GPa)
#
#
# Indices 1 2 3 4 5 6 
#
# 1 145.9499 53.8878 25.7746 0.0000 0.0000 0.0000
# 2 53.8878 141.6865 27.9444 0.0000 0.0000 0.0000
# 3 25.7746 27.9444 89.3340 0.0000 0.0000 0.0000
# 4 0.0000 0.0000 0.0000 25.1221 0.0000 0.0000
# 5 0.0000 0.0000 0.0000 0.0000 23.4771 0.0000
# 6 0.0000 0.0000 0.0000 0.0000 0.0000 18.9127
#
#
#
# Elastic Compliance Matrix: (Units=1/GPa)
#
#
# Indices 1 2 3 4 5 6 
#
# 1 0.008149 -0.002809 -0.001472 0.000000 0.000000 0.000000
# 2 -0.002809 0.008490 -0.001845 0.000000 0.000000 0.000000
# 3 -0.001472 -0.001845 0.012196 0.000000 0.000000 0.000000
# 4 0.000000 0.000000 0.000000 0.039806 0.000000 0.000000
# 5 0.000000 0.000000 0.000000 0.000000 0.042595 0.000000
# 6 0.000000 0.000000 0.000000 0.000000 0.000000 0.052874
#
#
# Mechanical properties :
#
#
# Convention : Reuss Voigt Hill
#
# Bulk Modulus (GPa) = 60.30790 65.79825 63.05307
# Shear Modulus (GPa) = 27.48910 31.45994 29.47452
#
# Velocity S-wave (km/s) = 3.70520 3.96379 3.83668
# Velocity P-wave (km/s) = 6.95870 7.33551 7.14959
#
# Compressibility (1/GPa) = 0.01658157
#
# Stress axis : x y z
#
# Youngs Moduli (GPa) = 122.71779 117.78454 81.99395
#
# Poissons Ratio (x) = 0.33084 0.12073
# Poissons Ratio (y) = 0.34469 0.15131
# Poissons Ratio (z) = 0.18070 0.21736
#
# Static dielectric constant tensor:
#      x y z
#    x 1.722950 0.000000 0.000000 
#    y 0.000000 1.644770 0.000000 
#    z 0.000000 0.000000 1.773300 
# 
# From -- ./inp_files/32211.got.cif
#   From: 2010.05.17/outbox.cif.g08.bks.cpg/sg66_17_cif.got.tgz:32211.got - 2010.06.03 17:51:23.
