data_PCOD9497913
_publ_section_title
;
Structure prediction by ZEFSAII (Michael W. Deem and Ramdas Pophale) SiO2 
 PCOD9497913
Probable space group: C C C M
;
_chemical_formula_sum "Si O2"
_cell_formula_units_Z 60
_cell_length_a 26.059940
_cell_length_b 5.032786
_cell_length_c 25.983699
_cell_angle_alpha 90.000000
_cell_angle_beta 90.000000
_cell_angle_gamma 90.000000
_cell_volume 3407.868688
_symmetry_space_group_name_H-M "C C C M"
_symmetry_group_IT_number 66
_symmetry_cell_setting 'orthorhombic'
loop_
_space_group_symop_operation_xyz
x,y,z
-x,-y,z
x,-y,1/2-z
-x,y,1/2-z
-x,-y,-z
x,y,-z
-x,y,1/2+z
x,-y,1/2+z
1/2+x,1/2+y,z
1/2-x,1/2-y,z
1/2+x,1/2-y,1/2-z
1/2-x,1/2+y,1/2-z
1/2-x,1/2-y,-z
1/2+x,1/2+y,-z
1/2-x,1/2+y,1/2+z
1/2+x,1/2-y,1/2+z
loop_
_atom_site_type_symbol
_atom_site_label
_atom_site_fract_x
_atom_site_fract_y
_atom_site_fract_z
Si Si1 0.000000 0.500000 0.750000
Si Si2 0.647395 0.349905 0.650084
Si Si3 0.750000 0.250000 0.287197
Si Si4 0.285703 0.489902 0.440760
Si Si5 0.901209 0.628260 0.697277
O O1 0.039249 0.339951 0.713520
O O2 0.700295 0.262563 0.676939
O O3 0.665087 0.452107 0.594275
O O4 0.623436 0.596010 0.681274
O O5 0.609802 0.097124 0.654636
O O6 0.750559 0.500000 0.250000
O O7 0.299357 0.425793 0.500000
O O8 0.250000 0.250000 0.420060
O O9 0.250000 0.750000 0.440951
O O10 0.878337 0.500000 0.750000
#
# Coordination Sequence:
#
# PCOD9497913 Si02
#       5
#     4  16   8  16  16
#     4   8  24  42  56  78 110 146 188 242 272 328
#     4  12  21  35  54  81 107 151 180 218 269 328
#     4  12  24  32  47  78 123 152 170 210 264 330
#     4  10  21  37  54  76 111 151 189 222 260 317
#     4  10  22  37  56  77 109 140 188 221 273 328
#
# _framework density 17.606313
#
# number of rings (size 3 to 8) (size 9 to 14) (size 15 to 20)
#    0.800    0.533    1.333    6.400    1.867    2.133 
#    0.000    0.000    0.000    0.000    0.000    5.600 
#    0.000    0.000    0.000    0.000    0.000    0.000 
#
# Total GULP energy -167382.779098 kJ/mol
# GULP energy per Si atom -5579.425970 kJ/mol
# Density = 1.756624 g / cm^3
# Si number density = 17.606313 Si / 1000 Ang^3
#
#
#
# Elastic Constant Matrix: (Units=GPa)
#
#
# Indices 1 2 3 4 5 6 
#
# 1 85.8613 7.8684 24.0897 0.0000 0.0000 0.0000
# 2 7.8684 78.4555 -5.6506 0.0000 0.0000 0.0000
# 3 24.0897 -5.6506 58.6938 0.0000 0.0000 0.0000
# 4 0.0000 0.0000 0.0000 1.5891 0.0000 0.0000
# 5 0.0000 0.0000 0.0000 0.0000 0.2682 0.0000
# 6 0.0000 0.0000 0.0000 0.0000 0.0000 9.1924
#
#
#
# Elastic Compliance Matrix: (Units=1/GPa)
#
#
# Indices 1 2 3 4 5 6 
#
# 1 0.013397 -0.001752 -0.005667 0.000000 0.000000 0.000000
# 2 -0.001752 0.013064 0.001977 0.000000 0.000000 0.000000
# 3 -0.005667 0.001977 0.019554 0.000000 0.000000 0.000000
# 4 0.000000 0.000000 0.000000 0.629303 0.000000 0.000000
# 5 0.000000 0.000000 0.000000 0.000000 3.729055 0.000000
# 6 0.000000 0.000000 0.000000 0.000000 0.000000 0.108785
#
#
# Mechanical properties :
#
#
# Convention : Reuss Voigt Hill
#
# Bulk Modulus (GPa) = 28.46529 30.62508 29.54518
# Shear Modulus (GPa) = 1.10235 15.32347 8.21291
#
# Velocity S-wave (km/s) = 0.79213 2.95335 2.16215
# Velocity P-wave (km/s) = 4.12788 5.39090 4.80111
#
# Compressibility (1/GPa) = 0.03513051
#
# Stress axis : x y z
#
# Youngs Moduli (GPa) = 74.64199 76.54542 51.14070
#
# Poissons Ratio (x) = 0.13409 0.28983
# Poissons Ratio (y) = 0.13076 -0.10109
# Poissons Ratio (z) = 0.42302 -0.15131
#
# Static dielectric constant tensor:
#      x y z
#    x 1.606350 0.000000 0.000000 
#    y 0.000000 1.625600 0.000000 
#    z 0.000000 0.000000 1.644720 
# 
# From -- ./inp_files/65922.got.cif
#   From: 2010.05.17/outbox.cif.g08.bks.cpg/sg66_33_cif.got.tgz:65922.got - 2010.06.03 17:51:23.
