data_PCOD9497339
_publ_section_title
;
Structure prediction by ZEFSAII (Michael W. Deem and Ramdas Pophale) SiO2 
 PCOD9497339
Probable space group: C C C M
;
_chemical_formula_sum "Si O2"
_cell_formula_units_Z 112
_cell_length_a 14.816942
_cell_length_b 16.277091
_cell_length_c 24.036886
_cell_angle_alpha 90.000000
_cell_angle_beta 90.000000
_cell_angle_gamma 90.000000
_cell_volume 5797.137163
_symmetry_space_group_name_H-M "C C C M"
_symmetry_group_IT_number 66
_symmetry_cell_setting 'orthorhombic'
loop_
_space_group_symop_operation_xyz
x,y,z
-x,-y,z
x,-y,1/2-z
-x,y,1/2-z
-x,-y,-z
x,y,-z
-x,y,1/2+z
x,-y,1/2+z
1/2+x,1/2+y,z
1/2-x,1/2-y,z
1/2+x,1/2-y,1/2-z
1/2-x,1/2+y,1/2-z
1/2-x,1/2-y,-z
1/2+x,1/2+y,-z
1/2-x,1/2+y,1/2+z
1/2+x,1/2-y,1/2+z
loop_
_atom_site_type_symbol
_atom_site_label
_atom_site_fract_x
_atom_site_fract_y
_atom_site_fract_z
Si Si1 0.915742 0.617121 0.371992
Si Si2 0.653773 0.146994 0.748825
Si Si3 0.132735 0.163995 0.239569
Si Si4 0.379710 0.058492 0.860065
Si Si5 0.333240 0.810554 0.439158
Si Si6 0.470742 0.727375 0.935159
Si Si7 0.006153 0.097736 0.659747
O O1 0.890828 0.638111 0.308841
O O2 0.860812 0.532966 0.381459
O O3 0.910199 0.697814 0.410078
O O4 0.018875 0.586215 0.375488
O O5 0.762323 0.147480 0.750882
O O6 0.622557 0.238009 0.730231
O O7 0.627105 0.076077 0.705481
O O8 0.091130 0.123461 0.184691
O O9 0.075868 0.128229 0.291864
O O10 0.318530 0.123983 0.891123
O O11 0.340330 0.851820 0.500000
O O12 0.250000 0.750000 0.439429
O O13 0.426099 0.760588 0.431728
O O14 0.467600 0.648332 0.895295
O O15 0.450015 0.712126 0.000000
O O16 0.000000 0.000000 0.652593
#
# Coordination Sequence:
#
# PCOD9497339 Si02
#       7
#    16  16  16  16  16  16  16
#     4  10  20  37  52  82 121 151 192 240 282 350
#     4  11  21  34  58  86 119 154 189 237 290 363
#     4  10  22  37  58  86 116 153 190 235 311 356
#     4  10  21  30  55  87 115 156 191 228 291 350
#     4   9  19  35  54  81 116 147 188 243 295 347
#     4  10  21  39  63  82 110 160 203 243 297 352
#     4  11  23  40  60  85 118 150 197 256 297 358
#
# _framework density 19.319880999999999
#
# number of rings (size 3 to 8) (size 9 to 14) (size 15 to 20)
#    0.000    1.857    1.429    3.429    6.000    4.286 
#    0.000    2.857    0.000    1.714    0.000    0.000 
#    0.000    0.000    0.000    0.000    0.000    0.000 
#
# Total GULP energy -312289.269042 kJ/mol
# GULP energy per Si atom -5576.594090 kJ/mol
# Density = 1.927591 g / cm^3
# Si number density = 19.319881 Si / 1000 Ang^3
#
#
#
# Elastic Constant Matrix: (Units=GPa)
#
#
# Indices 1 2 3 4 5 6 
#
# 1 23.0506 26.8397 7.0848 0.0000 0.0000 0.0000
# 2 26.8397 143.3017 69.8928 0.0000 0.0000 0.0000
# 3 7.0848 69.8928 123.8922 0.0000 0.0000 0.0000
# 4 0.0000 0.0000 0.0000 8.0802 0.0000 0.0000
# 5 0.0000 0.0000 0.0000 0.0000 14.4540 0.0000
# 6 0.0000 0.0000 0.0000 0.0000 0.0000 17.9675
#
#
#
# Elastic Compliance Matrix: (Units=1/GPa)
#
#
# Indices 1 2 3 4 5 6 
#
# 1 0.056747 -0.012479 0.003795 0.000000 0.000000 0.000000
# 2 -0.012479 0.012372 -0.006266 0.000000 0.000000 0.000000
# 3 0.003795 -0.006266 0.011389 0.000000 0.000000 0.000000
# 4 0.000000 0.000000 0.000000 0.123759 0.000000 0.000000
# 5 0.000000 0.000000 0.000000 0.000000 0.069185 0.000000
# 6 0.000000 0.000000 0.000000 0.000000 0.000000 0.055656
#
#
# Mechanical properties :
#
#
# Convention : Reuss Voigt Hill
#
# Bulk Modulus (GPa) = 19.75974 55.31992 37.53983
# Shear Modulus (GPa) = 13.30221 20.52883 16.91552
#
# Velocity S-wave (km/s) = 2.62682 3.26325 2.96218
# Velocity P-wave (km/s) = 4.41023 6.54937 5.58321
#
# Compressibility (1/GPa) = 0.05060796
#
# Stress axis : x y z
#
# Youngs Moduli (GPa) = 17.62199 80.83023 87.80203
#
# Poissons Ratio (x) = 1.00872 -0.33322
# Poissons Ratio (y) = 0.21991 0.55014
# Poissons Ratio (z) = -0.06688 0.50646
#
# Static dielectric constant tensor:
#      x y z
#    x 1.684600 0.000000 0.000000 
#    y 0.000000 1.709660 0.000000 
#    z 0.000000 0.000000 1.688980 
# 
# From -- ./inp_files/64687.got.cif
#   From: 2010.05.17/outbox.cif.g08.bks.cpg/sg66_33_cif.got.tgz:64687.got - 2010.06.03 17:51:23.
