data_PCOD9497399
_publ_section_title
;
Structure prediction by ZEFSAII (Michael W. Deem and Ramdas Pophale) SiO2 
 PCOD9497399
Probable space group: C C C M
;
_chemical_formula_sum "Si O2"
_cell_formula_units_Z 92
_cell_length_a 20.926821
_cell_length_b 24.493314
_cell_length_c 9.519020
_cell_angle_alpha 90.000000
_cell_angle_beta 90.000000
_cell_angle_gamma 90.000000
_cell_volume 4879.137407
_symmetry_space_group_name_H-M "C C C M"
_symmetry_group_IT_number 66
_symmetry_cell_setting 'orthorhombic'
loop_
_space_group_symop_operation_xyz
x,y,z
-x,-y,z
x,-y,1/2-z
-x,y,1/2-z
-x,-y,-z
x,y,-z
-x,y,1/2+z
x,-y,1/2+z
1/2+x,1/2+y,z
1/2-x,1/2-y,z
1/2+x,1/2-y,1/2-z
1/2-x,1/2+y,1/2-z
1/2-x,1/2-y,-z
1/2+x,1/2+y,-z
1/2-x,1/2+y,1/2+z
1/2+x,1/2-y,1/2+z
loop_
_atom_site_type_symbol
_atom_site_label
_atom_site_fract_x
_atom_site_fract_y
_atom_site_fract_z
Si Si1 0.205211 0.910729 0.336771
Si Si2 0.063286 0.371171 0.335233
Si Si3 0.702114 0.299671 0.169338
Si Si4 0.938860 0.239654 0.838261
Si Si5 0.151019 0.553240 0.336258
Si Si6 0.500000 0.500000 0.000000
Si Si7 0.897356 0.000000 0.250000
O O1 0.190491 0.898149 0.500000
O O2 0.215818 0.855524 0.249380
O O3 0.272381 0.942679 0.334330
O O4 0.149058 0.948009 0.274276
O O5 0.062564 0.387351 0.500000
O O6 0.065542 0.305432 0.331202
O O7 0.121813 0.396207 0.249259
O O8 0.000000 0.388619 0.250000
O O9 0.750000 0.250000 0.205685
O O10 0.629435 0.283396 0.206448
O O11 0.706296 0.307007 0.000000
O O12 0.000000 0.221465 0.750000
O O13 0.949140 0.224210 0.000000
O O14 0.130084 0.500000 0.250000
O O15 0.130676 0.552678 0.500000
O O16 0.444151 0.507306 0.119920
#
# Coordination Sequence:
#
# PCOD9497399 Si02
#       7
#    16  16  16  16  16   4   8
#     4  11  24  41  64  92 126 163 208 261 317 379
#     4  10  20  37  61  86 119 158 198 246 298 352
#     4  10  22  40  62  90 123 164 210 258 312 373
#     4   9  19  37  58  85 115 152 196 241 295 356
#     4  11  23  38  58  87 117 154 199 245 298 357
#     4  10  24  42  72  90 128 166 210 266 324 400
#     4  11  22  46  64  98 125 166 212 262 331 388
#
# _framework density 18.855792000000001
#
# number of rings (size 3 to 8) (size 9 to 14) (size 15 to 20)
#    0.000    1.739    1.739    2.087    1.217    4.870 
#    3.130    1.739    0.000    0.000    0.000    0.000 
#    0.000    0.000    0.000    0.000    0.000    0.000 
#
# Total GULP energy -256222.960944 kJ/mol
# GULP energy per Si atom -5570.064368 kJ/mol
# Density = 1.881288 g / cm^3
# Si number density = 18.855792 Si / 1000 Ang^3
#
#
#
# Elastic Constant Matrix: (Units=GPa)
#
#
# Indices 1 2 3 4 5 6 
#
# 1 67.5347 8.9567 35.4338 0.0000 0.0000 0.0000
# 2 8.9567 56.8928 33.9546 0.0000 0.0000 0.0000
# 3 35.4338 33.9546 127.0910 0.0000 0.0000 0.0000
# 4 0.0000 0.0000 0.0000 84.8006 0.0000 0.0000
# 5 0.0000 0.0000 0.0000 0.0000 12.6308 0.0000
# 6 0.0000 0.0000 0.0000 0.0000 0.0000 18.6977
#
#
#
# Elastic Compliance Matrix: (Units=1/GPa)
#
#
# Indices 1 2 3 4 5 6 
#
# 1 0.017346 0.000185 -0.004886 0.000000 0.000000 0.000000
# 2 0.000185 0.020913 -0.005639 0.000000 0.000000 0.000000
# 3 -0.004886 -0.005639 0.010737 0.000000 0.000000 0.000000
# 4 0.000000 0.000000 0.000000 0.011792 0.000000 0.000000
# 5 0.000000 0.000000 0.000000 0.000000 0.079171 0.000000
# 6 0.000000 0.000000 0.000000 0.000000 0.000000 0.053483
#
#
# Mechanical properties :
#
#
# Convention : Reuss Voigt Hill
#
# Bulk Modulus (GPa) = 35.31421 45.35656 40.33538
# Shear Modulus (GPa) = 22.36530 34.77072 28.56801
#
# Velocity S-wave (km/s) = 3.44775 4.29888 3.89662
# Velocity P-wave (km/s) = 5.88375 6.98192 6.45623
#
# Compressibility (1/GPa) = 0.02831721
#
# Stress axis : x y z
#
# Youngs Moduli (GPa) = 57.65012 47.81675 93.13541
#
# Poissons Ratio (x) = -0.00885 0.45502
# Poissons Ratio (y) = -0.01067 0.52518
# Poissons Ratio (z) = 0.28166 0.26963
#
# Static dielectric constant tensor:
#      x y z
#    x 1.657740 0.000000 0.000000 
#    y 0.000000 1.642530 0.000000 
#    z 0.000000 0.000000 1.633440 
# 
# From -- ./inp_files/8072.got.cif
#   From: 2010.05.17/outbox.cif.g08.bks.cpg/sg66_5_cif.got.tgz:8072.got - 2010.06.03 17:51:23.
