data_PCOD9497651
_publ_section_title
;
Structure prediction by ZEFSAII (Michael W. Deem and Ramdas Pophale) SiO2 
 PCOD9497651
Probable space group: C C C M
;
_chemical_formula_sum "Si O2"
_cell_formula_units_Z 104
_cell_length_a 19.579079
_cell_length_b 9.406549
_cell_length_c 29.183711
_cell_angle_alpha 90.000000
_cell_angle_beta 90.000000
_cell_angle_gamma 90.000000
_cell_volume 5374.809756
_symmetry_space_group_name_H-M "C C C M"
_symmetry_group_IT_number 66
_symmetry_cell_setting 'orthorhombic'
loop_
_space_group_symop_operation_xyz
x,y,z
-x,-y,z
x,-y,1/2-z
-x,y,1/2-z
-x,-y,-z
x,y,-z
-x,y,1/2+z
x,-y,1/2+z
1/2+x,1/2+y,z
1/2-x,1/2-y,z
1/2+x,1/2-y,1/2-z
1/2-x,1/2+y,1/2-z
1/2-x,1/2-y,-z
1/2+x,1/2+y,-z
1/2-x,1/2+y,1/2+z
1/2+x,1/2-y,1/2+z
loop_
_atom_site_type_symbol
_atom_site_label
_atom_site_fract_x
_atom_site_fract_y
_atom_site_fract_z
Si Si1 0.750000 0.750000 0.821833
Si Si2 0.463906 0.150230 0.377456
Si Si3 0.329244 0.753108 0.145906
Si Si4 0.470997 0.657605 0.696491
Si Si5 0.854582 0.071296 0.374418
Si Si6 0.633706 0.166173 0.750941
Si Si7 0.957593 0.146607 0.553534
O O1 0.783977 0.866938 0.854936
O O2 0.691995 0.812893 0.788043
O O3 0.381789 0.141612 0.379787
O O4 0.478719 0.238090 0.330806
O O5 0.499416 0.235666 0.418722
O O6 0.500000 0.000000 0.373298
O O7 0.250000 0.750000 0.133092
O O8 0.355389 0.596807 0.132413
O O9 0.335522 0.788117 0.200074
O O10 0.500000 0.500000 0.704107
O O11 0.411357 0.632936 0.659514
O O12 0.430173 0.732538 0.737864
O O13 0.883390 0.120463 0.423451
O O14 0.613643 0.000000 0.750000
O O15 0.952593 0.179987 0.500000
O O16 0.000000 0.000000 0.559251
#
# Coordination Sequence:
#
# PCOD9497651 Si02
#       7
#     8  16  16  16  16  16  16
#     4  10  22  34  61  86 134 170 215 262 316 390
#     4  11  22  40  63  94 128 161 207 267 324 384
#     4  12  23  38  60  86 129 171 216 256 322 387
#     4  10  20  41  62  83 116 163 217 266 315 369
#     4  10  20  40  62  91 118 162 214 260 318 382
#     4  11  23  38  55  89 127 172 220 270 320 368
#     4  10  20  41  72  96 120 158 210 267 328 395
#
# _framework density 19.349522
#
# number of rings (size 3 to 8) (size 9 to 14) (size 15 to 20)
#    0.000    1.385    3.846    2.769    0.000    5.231 
#    5.538    1.923    0.000    1.846    0.000    0.000 
#    0.000    0.000    0.000    0.000    0.000    0.000 
#
# Total GULP energy -290382.404235 kJ/mol
# GULP energy per Si atom -5584.277005 kJ/mol
# Density = 1.930548 g / cm^3
# Si number density = 19.349522 Si / 1000 Ang^3
#
#
#
# Elastic Constant Matrix: (Units=GPa)
#
#
# Indices 1 2 3 4 5 6 
#
# 1 117.0420 46.8073 34.5317 0.0000 0.0000 0.0000
# 2 46.8073 112.1584 47.3609 0.0000 0.0000 0.0000
# 3 34.5317 47.3609 122.5652 0.0000 0.0000 0.0000
# 4 0.0000 0.0000 0.0000 13.1997 0.0000 0.0000
# 5 0.0000 0.0000 0.0000 0.0000 15.2204 0.0000
# 6 0.0000 0.0000 0.0000 0.0000 0.0000 35.2632
#
#
#
# Elastic Compliance Matrix: (Units=1/GPa)
#
#
# Indices 1 2 3 4 5 6 
#
# 1 0.010484 -0.003738 -0.001509 0.000000 0.000000 0.000000
# 2 -0.003738 0.011987 -0.003579 0.000000 0.000000 0.000000
# 3 -0.001509 -0.003579 0.009967 0.000000 0.000000 0.000000
# 4 0.000000 0.000000 0.000000 0.075760 0.000000 0.000000
# 5 0.000000 0.000000 0.000000 0.000000 0.065701 0.000000
# 6 0.000000 0.000000 0.000000 0.000000 0.000000 0.028358
#
#
# Mechanical properties :
#
#
# Convention : Reuss Voigt Hill
#
# Bulk Modulus (GPa) = 67.63194 67.68504 67.65849
# Shear Modulus (GPa) = 22.23818 27.60770 24.92294
#
# Velocity S-wave (km/s) = 3.39379 3.78138 3.59282
# Velocity P-wave (km/s) = 7.09829 7.35672 7.22866
#
# Compressibility (1/GPa) = 0.01478591
#
# Stress axis : x y z
#
# Youngs Moduli (GPa) = 95.38183 83.42232 100.32995
#
# Poissons Ratio (x) = 0.31183 0.15144
# Poissons Ratio (y) = 0.35654 0.35907
# Poissons Ratio (z) = 0.14397 0.29856
#
# Static dielectric constant tensor:
#      x y z
#    x 1.772760 0.000000 0.000000 
#    y 0.000000 1.711160 0.000000 
#    z 0.000000 0.000000 1.691470 
# 
# From -- ./inp_files/70202.got.cif
#   From: 2010.05.17/outbox.cif.g08.bks.cpg/sg66_36_cif.got.tgz:70202.got - 2010.06.03 17:51:23.
