data_PCOD9497137
_publ_section_title
;
Structure prediction by ZEFSAII (Michael W. Deem and Ramdas Pophale) SiO2 
 PCOD9497137
Probable space group: C C C M
;
_chemical_formula_sum "Si O2"
_cell_formula_units_Z 68
_cell_length_a 12.536343
_cell_length_b 8.967409
_cell_length_c 28.555016
_cell_angle_alpha 90.000000
_cell_angle_beta 90.000000
_cell_angle_gamma 90.000000
_cell_volume 3210.112496
_symmetry_space_group_name_H-M "C C C M"
_symmetry_group_IT_number 66
_symmetry_cell_setting 'orthorhombic'
loop_
_space_group_symop_operation_xyz
x,y,z
-x,-y,z
x,-y,1/2-z
-x,y,1/2-z
-x,-y,-z
x,y,-z
-x,y,1/2+z
x,-y,1/2+z
1/2+x,1/2+y,z
1/2-x,1/2-y,z
1/2+x,1/2-y,1/2-z
1/2-x,1/2+y,1/2-z
1/2-x,1/2-y,-z
1/2+x,1/2+y,-z
1/2-x,1/2+y,1/2+z
1/2+x,1/2-y,1/2+z
loop_
_atom_site_type_symbol
_atom_site_label
_atom_site_fract_x
_atom_site_fract_y
_atom_site_fract_z
Si Si1 0.145081 0.856949 0.673181
Si Si2 0.427559 0.121813 0.101830
Si Si3 0.913727 0.665708 0.000000
Si Si4 0.717408 0.579239 0.600301
Si Si5 0.807939 0.989856 0.000000
Si Si6 0.000000 0.000000 0.750000
O O1 0.250000 0.750000 0.682460
O O2 0.082647 0.765546 0.633176
O O3 0.164461 0.015194 0.647166
O O4 0.075791 0.895186 0.718263
O O5 0.500000 0.000000 0.126324
O O6 0.313418 0.042348 0.096271
O O7 0.471633 0.153975 0.049758
O O8 0.858899 0.826584 0.000000
O O9 0.820069 0.540536 0.000000
O O10 0.750000 0.750000 0.606383
O O11 0.662146 0.567196 0.549065
#
# Coordination Sequence:
#
# PCOD9497137 Si02
#       6
#    16  16   8  16   8   4
#     4  10  24  47  68  96 125 169 220 271 343 401
#     4  10  20  36  61  94 128 170 214 253 320 395
#     4   9  15  30  57  86 131 176 204 253 300 388
#     4  10  20  35  63  92 130 168 211 263 316 393
#     4   9  15  30  55  88 127 174 212 243 316 382
#     4  12  28  48  78  92 132 168 222 304 348 384
#
# _framework density 21.183059
#
# number of rings (size 3 to 8) (size 9 to 14) (size 15 to 20)
#    0.000    2.118    2.353    0.706    3.294    0.941 
#    4.235    0.000    0.000    2.824    0.000    0.000 
#    0.000    0.000    0.000    0.000    0.000    0.000 
#
# Total GULP energy -189503.708964 kJ/mol
# GULP energy per Si atom -5573.638499 kJ/mol
# Density = 2.113485 g / cm^3
# Si number density = 21.183059 Si / 1000 Ang^3
#
#
#
# Elastic Constant Matrix: (Units=GPa)
#
#
# Indices 1 2 3 4 5 6 
#
# 1 28.4401 14.7927 44.4672 0.0000 0.0000 0.0000
# 2 14.7927 125.0627 71.8456 0.0000 0.0000 0.0000
# 3 44.4672 71.8456 152.8847 0.0000 0.0000 0.0000
# 4 0.0000 0.0000 0.0000 206.6869 0.0000 0.0000
# 5 0.0000 0.0000 0.0000 0.0000 5.1510 0.0000
# 6 0.0000 0.0000 0.0000 0.0000 0.0000 27.2112
#
#
#
# Elastic Compliance Matrix: (Units=1/GPa)
#
#
# Indices 1 2 3 4 5 6 
#
# 1 0.066232 0.004428 -0.021345 0.000000 0.000000 0.000000
# 2 0.004428 0.011249 -0.006574 0.000000 0.000000 0.000000
# 3 -0.021345 -0.006574 0.015838 0.000000 0.000000 0.000000
# 4 0.000000 0.000000 0.000000 0.004838 0.000000 0.000000
# 5 0.000000 0.000000 0.000000 0.000000 0.194137 0.000000
# 6 0.000000 0.000000 0.000000 0.000000 0.000000 0.036750
#
#
# Mechanical properties :
#
#
# Convention : Reuss Voigt Hill
#
# Bulk Modulus (GPa) = 21.58078 63.17759 42.37919
# Shear Modulus (GPa) = 12.77234 59.49529 36.13382
#
# Velocity S-wave (km/s) = 2.45817 5.30540 4.13460
# Velocity P-wave (km/s) = 4.27395 8.21091 6.54544
#
# Compressibility (1/GPa) = 0.04633752
#
# Stress axis : x y z
#
# Youngs Moduli (GPa) = 15.09849 88.89734 63.13740
#
# Poissons Ratio (x) = -0.39363 1.34765
# Poissons Ratio (y) = -0.06686 0.41507
# Poissons Ratio (z) = 0.32227 0.58442
#
# Static dielectric constant tensor:
#      x y z
#    x 1.829670 0.000000 0.000000 
#    y 0.000000 1.716710 0.000000 
#    z 0.000000 0.000000 1.773310 
# 
# From -- ./inp_files/64284.got.cif
#   From: 2010.05.17/outbox.cif.g08.bks.cpg/sg66_33_cif.got.tgz:64284.got - 2010.06.03 17:51:23.
