data_PCOD9497610
_publ_section_title
;
Structure prediction by ZEFSAII (Michael W. Deem and Ramdas Pophale) SiO2 
 PCOD9497610
Probable space group: C C C M
;
_chemical_formula_sum "Si O2"
_cell_formula_units_Z 96
_cell_length_a 16.370752
_cell_length_b 14.186365
_cell_length_c 21.268479
_cell_angle_alpha 90.000000
_cell_angle_beta 90.000000
_cell_angle_gamma 90.000000
_cell_volume 4939.422683
_symmetry_space_group_name_H-M "C C C M"
_symmetry_group_IT_number 66
_symmetry_cell_setting 'orthorhombic'
loop_
_space_group_symop_operation_xyz
x,y,z
-x,-y,z
x,-y,1/2-z
-x,y,1/2-z
-x,-y,-z
x,y,-z
-x,y,1/2+z
x,-y,1/2+z
1/2+x,1/2+y,z
1/2-x,1/2-y,z
1/2+x,1/2-y,1/2-z
1/2-x,1/2+y,1/2-z
1/2-x,1/2-y,-z
1/2+x,1/2+y,-z
1/2-x,1/2+y,1/2+z
1/2+x,1/2-y,1/2+z
loop_
_atom_site_type_symbol
_atom_site_label
_atom_site_fract_x
_atom_site_fract_y
_atom_site_fract_z
Si Si1 0.603986 0.759512 0.138022
Si Si2 0.549206 0.100151 0.859714
Si Si3 0.697384 0.500000 0.250000
Si Si4 0.894941 0.263295 0.500000
Si Si5 0.688819 0.172621 0.764812
Si Si6 0.407432 0.537996 0.500000
Si Si7 0.452057 0.098517 0.500000
Si Si8 0.092628 0.033963 0.866438
O O1 0.520012 0.818726 0.141535
O O2 0.651749 0.784289 0.201114
O O3 0.591842 0.647192 0.138977
O O4 0.642912 0.785254 0.069041
O O5 0.618272 0.128852 0.809354
O O6 0.500000 0.000000 0.848908
O O7 0.587599 0.099652 0.930563
O O8 0.754378 0.411261 0.258152
O O9 0.641564 0.488180 0.189539
O O10 0.909464 0.151381 0.500000
O O11 0.980994 0.318086 0.500000
O O12 0.750000 0.250000 0.795197
O O13 0.500000 0.500000 0.500000
O O14 0.369589 0.507761 0.565827
O O15 0.500000 0.000000 0.500000
O O16 0.000000 0.000000 0.864307
#
# Coordination Sequence:
#
# PCOD9497610 Si02
#       8
#    16  16   8   8  16   8   8  16
#     4  10  20  39  63  88 114 152 199 243 287 346
#     4  10  21  39  65  88 113 157 207 249 293 354
#     4  12  25  40  55  80 120 158 192 234 293 350
#     4   8  16  32  60  89 110 139 194 250 286 327
#     4  12  25  39  55  87 128 159 194 244 299 356
#     4   8  16  34  56  85 111 136 186 247 285 334
#     4   8  16  34  60  89 111 140 201 261 292 334
#     4  10  21  37  62  86 111 149 195 238 290 347
#
# _framework density 19.435469999999999
#
# number of rings (size 3 to 8) (size 9 to 14) (size 15 to 20)
#    0.000    2.000    1.667    1.750    2.333    2.000 
#    0.000    2.500    0.000    0.000    0.000    0.000 
#    0.000    0.000    0.000    0.000    0.000    0.000 
#
# Total GULP energy -267366.539709 kJ/mol
# GULP energy per Si atom -5570.136244 kJ/mol
# Density = 1.939123 g / cm^3
# Si number density = 19.435470 Si / 1000 Ang^3
#
#
#
# Elastic Constant Matrix: (Units=GPa)
#
#
# Indices 1 2 3 4 5 6 
#
# 1 56.7172 14.7965 58.9309 0.0000 0.0000 0.0000
# 2 14.7965 28.3829 27.6061 0.0000 0.0000 0.0000
# 3 58.9309 27.6061 193.3204 0.0000 0.0000 0.0000
# 4 0.0000 0.0000 0.0000 47.7567 0.0000 0.0000
# 5 0.0000 0.0000 0.0000 0.0000 -20.8167 0.0000
# 6 0.0000 0.0000 0.0000 0.0000 0.0000 29.1013
#
#
#
# Elastic Compliance Matrix: (Units=1/GPa)
#
#
# Indices 1 2 3 4 5 6 
#
# 1 0.026964 -0.007040 -0.007214 0.000000 0.000000 0.000000
# 2 -0.007040 0.042753 -0.003959 0.000000 0.000000 0.000000
# 3 -0.007214 -0.003959 0.007937 0.000000 0.000000 0.000000
# 4 0.000000 0.000000 0.000000 0.020939 0.000000 0.000000
# 5 0.000000 0.000000 0.000000 0.000000 -0.048038 0.000000
# 6 0.000000 0.000000 0.000000 0.000000 0.000000 0.034363
#
#
# Mechanical properties :
#
#
# Convention : Reuss Voigt Hill
#
# Bulk Modulus (GPa) = 24.25553 53.45418 38.85486
# Shear Modulus (GPa) = 37.01317 23.01407 30.01362
#
# Velocity S-wave (km/s) = 4.36869 3.44485 3.93398
# Velocity P-wave (km/s) = 6.16072 6.58679 6.37731
#
# Compressibility (1/GPa) = 0.04122771
#
# Stress axis : x y z
#
# Youngs Moduli (GPa) = 37.08691 23.39004 125.98796
#
# Poissons Ratio (x) = 0.16466 0.90890
# Poissons Ratio (y) = 0.26109 0.49880
# Poissons Ratio (z) = 0.26755 0.09260
#
# Static dielectric constant tensor:
#      x y z
#    x 1.632840 0.000000 0.000000 
#    y 0.000000 1.687240 0.000000 
#    z 0.000000 0.000000 1.763100 
# 
# From -- ./inp_files/49941.got.cif
#   From: 2010.05.17/outbox.cif.g08.bks.cpg/sg66_25_cif.got.tgz:49941.got - 2010.06.03 17:51:23.
