data_PCOD9497928
_publ_section_title
;
Structure prediction by ZEFSAII (Michael W. Deem and Ramdas Pophale) SiO2 
 PCOD9497928
Probable space group: C C C M
;
_chemical_formula_sum "Si O2"
_cell_formula_units_Z 80
_cell_length_a 8.099796
_cell_length_b 19.524107
_cell_length_c 26.214208
_cell_angle_alpha 90.000000
_cell_angle_beta 90.000000
_cell_angle_gamma 90.000000
_cell_volume 4145.548506
_symmetry_space_group_name_H-M "C C C M"
_symmetry_group_IT_number 66
_symmetry_cell_setting 'orthorhombic'
loop_
_space_group_symop_operation_xyz
x,y,z
-x,-y,z
x,-y,1/2-z
-x,y,1/2-z
-x,-y,-z
x,y,-z
-x,y,1/2+z
x,-y,1/2+z
1/2+x,1/2+y,z
1/2-x,1/2-y,z
1/2+x,1/2-y,1/2-z
1/2-x,1/2+y,1/2-z
1/2-x,1/2-y,-z
1/2+x,1/2+y,-z
1/2-x,1/2+y,1/2+z
1/2+x,1/2-y,1/2+z
loop_
_atom_site_type_symbol
_atom_site_label
_atom_site_fract_x
_atom_site_fract_y
_atom_site_fract_z
Si Si1 0.590149 0.108167 0.056367
Si Si2 0.268030 0.168678 0.656452
Si Si3 0.265208 0.536758 0.445007
Si Si4 0.553736 0.426073 0.657435
Si Si5 0.806681 0.175698 0.267183
O O1 0.617595 0.147840 0.109115
O O2 0.405336 0.078789 0.056378
O O3 0.710735 0.042337 0.058101
O O4 0.616384 0.141809 0.000000
O O5 0.250000 0.250000 0.652631
O O6 0.302583 0.158201 0.717043
O O7 0.101319 0.124315 0.650284
O O8 0.345366 0.549769 0.500000
O O9 0.372079 0.557588 0.397376
O O10 0.500000 0.500000 0.680113
O O11 0.684742 0.385446 0.692351
O O12 0.750000 0.250000 0.287239
O O13 0.000000 0.183068 0.250000
#
# Coordination Sequence:
#
# PCOD9497928 Si02
#       5
#    16  16  16  16  16
#     4   9  18  36  57  80 115 150 186 231 284 341
#     4  10  21  37  56  82 114 152 187 229 290 346
#     4   9  19  35  57  83 113 149 184 233 292 338
#     4  11  21  36  60  90 112 147 194 242 279 334
#     4   9  21  38  57  81 114 154 186 229 288 343
#
# _framework density 19.297808
#
# number of rings (size 3 to 8) (size 9 to 14) (size 15 to 20)
#    0.000    2.400    2.000    1.200    0.000   10.000 
#    0.000    0.000    0.000    5.400    0.000    0.000 
#    0.000    0.000    0.000    0.000    0.000    0.000 
#
# Total GULP energy -222829.582817 kJ/mol
# GULP energy per Si atom -5570.739570 kJ/mol
# Density = 1.925389 g / cm^3
# Si number density = 19.297808 Si / 1000 Ang^3
#
#
#
# Elastic Constant Matrix: (Units=GPa)
#
#
# Indices 1 2 3 4 5 6 
#
# 1 25.8465 22.3440 25.6174 0.0000 0.0000 0.0000
# 2 22.3440 95.1631 75.7605 0.0000 0.0000 0.0000
# 3 25.6174 75.7605 149.5691 0.0000 0.0000 0.0000
# 4 0.0000 0.0000 0.0000 26.6245 0.0000 0.0000
# 5 0.0000 0.0000 0.0000 0.0000 -4.5329 0.0000
# 6 0.0000 0.0000 0.0000 0.0000 0.0000 22.9730
#
#
#
# Elastic Compliance Matrix: (Units=1/GPa)
#
#
# Indices 1 2 3 4 5 6 
#
# 1 0.050217 -0.008284 -0.004405 0.000000 0.000000 0.000000
# 2 -0.008284 0.018976 -0.008193 0.000000 0.000000 0.000000
# 3 -0.004405 -0.008193 0.011590 0.000000 0.000000 0.000000
# 4 0.000000 0.000000 0.000000 0.037559 0.000000 0.000000
# 5 0.000000 0.000000 0.000000 0.000000 -0.220611 0.000000
# 6 0.000000 0.000000 0.000000 0.000000 0.000000 0.043529
#
#
# Mechanical properties :
#
#
# Convention : Reuss Voigt Hill
#
# Bulk Modulus (GPa) = 25.62811 57.55805 41.59308
# Shear Modulus (GPa) = -1259.92647 18.80338 -620.56155
#
# Velocity S-wave (km/s) = -25.57935 3.12489 -17.95186
# Velocity P-wave (km/s) = 29.31032 6.55064 20.20129
#
# Compressibility (1/GPa) = 0.03901965
#
# Stress axis : x y z
#
# Youngs Moduli (GPa) = 19.91348 52.69870 86.27983
#
# Poissons Ratio (x) = 0.43656 0.38005
# Poissons Ratio (y) = 0.16497 0.70688
# Poissons Ratio (z) = 0.08772 0.43175
#
# Static dielectric constant tensor:
#      x y z
#    x 1.701740 0.000000 0.000000 
#    y 0.000000 1.730580 0.000000 
#    z 0.000000 0.000000 1.733970 
# 
# From -- ./inp_files/62385.got.cif
#   From: 2010.05.17/outbox.cif.g08.bks.cpg/sg66_32_cif.got.tgz:62385.got - 2010.06.03 17:51:23.
