data_PCOD9497144
_publ_section_title
;
Structure prediction by ZEFSAII (Michael W. Deem and Ramdas Pophale) SiO2 
 PCOD9497144
Probable space group: C C C M
;
_chemical_formula_sum "Si O2"
_cell_formula_units_Z 80
_cell_length_a 8.988379
_cell_length_b 13.277836
_cell_length_c 29.054757
_cell_angle_alpha 90.000000
_cell_angle_beta 90.000000
_cell_angle_gamma 90.000000
_cell_volume 3467.575487
_symmetry_space_group_name_H-M "C C C M"
_symmetry_group_IT_number 66
_symmetry_cell_setting 'orthorhombic'
loop_
_space_group_symop_operation_xyz
x,y,z
-x,-y,z
x,-y,1/2-z
-x,y,1/2-z
-x,-y,-z
x,y,-z
-x,y,1/2+z
x,-y,1/2+z
1/2+x,1/2+y,z
1/2-x,1/2-y,z
1/2+x,1/2-y,1/2-z
1/2-x,1/2+y,1/2-z
1/2-x,1/2-y,-z
1/2+x,1/2+y,-z
1/2-x,1/2+y,1/2+z
1/2+x,1/2-y,1/2+z
loop_
_atom_site_type_symbol
_atom_site_label
_atom_site_fract_x
_atom_site_fract_y
_atom_site_fract_z
Si Si1 0.953067 0.147260 0.197318
Si Si2 0.041258 0.330970 0.049233
Si Si3 0.601080 0.806282 0.150175
Si Si4 0.794882 0.990308 0.848984
Si Si5 0.254954 0.031210 0.549702
O O1 0.967595 0.261103 0.179756
O O2 0.000000 0.139703 0.250000
O O3 0.805311 0.085636 0.184809
O O4 0.076910 0.085747 0.167935
O O5 0.074135 0.276066 0.096791
O O6 0.153124 0.426233 0.047945
O O7 0.877482 0.379830 0.051901
O O8 0.056443 0.276151 0.000000
O O9 0.750000 0.750000 0.167001
O O10 0.643624 0.924045 0.151893
O O11 0.823320 0.027302 0.901156
O O12 0.176248 0.041524 0.500000
#
# Coordination Sequence:
#
# PCOD9497144 Si02
#       5
#    16  16  16  16  16
#     4  10  20  36  53  73 103 135 175 228 276 316
#     4   8  14  27  48  74 105 138 168 205 258 317
#     4   9  18  32  51  75 100 129 172 218 257 314
#     4   9  17  33  55  73  97 135 172 208 263 322
#     4   8  14  27  49  75 104 137 170 207 256 318
#
# _framework density 23.070875999999998
#
# number of rings (size 3 to 8) (size 9 to 14) (size 15 to 20)
#    0.000    3.200    0.000    2.400    0.000    0.400 
#    0.000   15.000    0.000    2.400    0.000    0.000 
#    0.000    0.000    0.000    0.000    0.000    0.000 
#
# Total GULP energy -222813.462150 kJ/mol
# GULP energy per Si atom -5570.336554 kJ/mol
# Density = 2.301837 g / cm^3
# Si number density = 23.070876 Si / 1000 Ang^3
#
#
#
# Elastic Constant Matrix: (Units=GPa)
#
#
# Indices 1 2 3 4 5 6 
#
# 1 33.6535 36.2477 25.1490 0.0000 0.0000 0.0000
# 2 36.2477 68.2157 37.0228 0.0000 0.0000 0.0000
# 3 25.1490 37.0228 165.7228 0.0000 0.0000 0.0000
# 4 0.0000 0.0000 0.0000 31.2817 0.0000 0.0000
# 5 0.0000 0.0000 0.0000 0.0000 37.8589 0.0000
# 6 0.0000 0.0000 0.0000 0.0000 0.0000 33.9937
#
#
#
# Elastic Compliance Matrix: (Units=1/GPa)
#
#
# Indices 1 2 3 4 5 6 
#
# 1 0.070489 -0.036017 -0.002651 0.000000 0.000000 0.000000
# 2 -0.036017 0.035085 -0.002372 0.000000 0.000000 0.000000
# 3 -0.002651 -0.002372 0.006966 0.000000 0.000000 0.000000
# 4 0.000000 0.000000 0.000000 0.031968 0.000000 0.000000
# 5 0.000000 0.000000 0.000000 0.000000 0.026414 0.000000
# 6 0.000000 0.000000 0.000000 0.000000 0.000000 0.029417
#
#
# Mechanical properties :
#
#
# Convention : Reuss Voigt Hill
#
# Bulk Modulus (GPa) = 32.82949 51.60344 42.21646
# Shear Modulus (GPa) = 17.08972 31.90502 24.49737
#
# Velocity S-wave (km/s) = 2.72462 3.72279 3.26211
# Velocity P-wave (km/s) = 4.91516 6.39490 5.70323
#
# Compressibility (1/GPa) = 0.03046042
#
# Stress axis : x y z
#
# Youngs Moduli (GPa) = 14.18659 28.50186 143.54575
#
# Poissons Ratio (x) = 1.02656 0.38049
# Poissons Ratio (y) = 0.51096 0.34055
# Poissons Ratio (z) = 0.03760 0.06762
#
# Static dielectric constant tensor:
#      x y z
#    x 1.939630 0.000000 0.000000 
#    y 0.000000 1.980460 0.000000 
#    z 0.000000 0.000000 1.881840 
# 
# From -- ./inp_files/63507.got.cif
#   From: 2010.05.17/outbox.cif.g08.bks.cpg/sg66_32_cif.got.tgz:63507.got - 2010.06.03 17:51:23.
