data_PCOD9497991
_publ_section_title
;
Structure prediction by ZEFSAII (Michael W. Deem and Ramdas Pophale) SiO2 
 PCOD9497991
Probable space group: C C C M
;
_chemical_formula_sum "Si O2"
_cell_formula_units_Z 80
_cell_length_a 11.819731
_cell_length_b 13.440876
_cell_length_c 24.335437
_cell_angle_alpha 90.000000
_cell_angle_beta 90.000000
_cell_angle_gamma 90.000000
_cell_volume 3866.110980
_symmetry_space_group_name_H-M "C C C M"
_symmetry_group_IT_number 66
_symmetry_cell_setting 'orthorhombic'
loop_
_space_group_symop_operation_xyz
x,y,z
-x,-y,z
x,-y,1/2-z
-x,y,1/2-z
-x,-y,-z
x,y,-z
-x,y,1/2+z
x,-y,1/2+z
1/2+x,1/2+y,z
1/2-x,1/2-y,z
1/2+x,1/2-y,1/2-z
1/2-x,1/2+y,1/2-z
1/2-x,1/2-y,-z
1/2+x,1/2+y,-z
1/2-x,1/2+y,1/2+z
1/2+x,1/2-y,1/2+z
loop_
_atom_site_type_symbol
_atom_site_label
_atom_site_fract_x
_atom_site_fract_y
_atom_site_fract_z
Si Si1 0.730930 0.387740 0.770249
Si Si2 0.740548 0.352951 0.654322
Si Si3 0.981421 0.882291 0.346890
Si Si4 0.884913 0.732438 0.437003
Si Si5 0.880515 0.544336 0.365792
O O1 0.711794 0.500000 0.750000
O O2 0.790773 0.343443 0.716026
O O3 0.612246 0.361655 0.799781
O O4 0.821239 0.389338 0.819206
O O5 0.750000 0.250000 0.621813
O O6 0.608673 0.357325 0.669033
O O7 0.794900 0.450257 0.626550
O O8 0.943920 0.814060 0.398074
O O9 0.000000 0.000000 0.359880
O O10 0.921663 0.743179 0.500000
O O11 0.750000 0.750000 0.434186
O O12 0.903050 0.619791 0.415562
O O13 0.000000 0.500000 0.347487
#
# Coordination Sequence:
#
# PCOD9497991 Si02
#       5
#    16  16  16  16  16
#     4  10  21  37  60  92 128 171 211 248 316 391
#     4  11  24  38  61  96 131 170 215 259 325 390
#     4  12  21  41  65  91 130 167 212 276 318 388
#     4  11  24  43  69  96 125 172 226 276 336 386
#     4  11  23  43  63  90 135 169 216 271 322 392
#
# _framework density 20.692629
#
# number of rings (size 3 to 8) (size 9 to 14) (size 15 to 20)
#    0.000    1.000    6.000    1.800    2.800    4.400 
#    3.600    1.000    0.000    2.400    0.000    0.000 
#    0.000    0.000    0.000    0.000    0.000    0.000 
#
# Total GULP energy -222816.418756 kJ/mol
# GULP energy per Si atom -5570.410469 kJ/mol
# Density = 2.064553 g / cm^3
# Si number density = 20.692629 Si / 1000 Ang^3
#
#
#
# Elastic Constant Matrix: (Units=GPa)
#
#
# Indices 1 2 3 4 5 6 
#
# 1 84.4842 -2.3202 -4.8268 0.0000 0.0000 0.0000
# 2 -2.3202 121.8673 26.4594 0.0000 0.0000 0.0000
# 3 -4.8268 26.4594 76.9839 0.0000 0.0000 0.0000
# 4 0.0000 0.0000 0.0000 27.3848 0.0000 0.0000
# 5 0.0000 0.0000 0.0000 0.0000 11.6900 0.0000
# 6 0.0000 0.0000 0.0000 0.0000 0.0000 15.4884
#
#
#
# Elastic Compliance Matrix: (Units=1/GPa)
#
#
# Indices 1 2 3 4 5 6 
#
# 1 0.011880 0.000070 0.000721 0.000000 0.000000 0.000000
# 2 0.000070 0.008868 -0.003043 0.000000 0.000000 0.000000
# 3 0.000721 -0.003043 0.014081 0.000000 0.000000 0.000000
# 4 0.000000 0.000000 0.000000 0.036517 0.000000 0.000000
# 5 0.000000 0.000000 0.000000 0.000000 0.085543 0.000000
# 6 0.000000 0.000000 0.000000 0.000000 0.000000 0.064565
#
#
# Mechanical properties :
#
#
# Convention : Reuss Voigt Hill
#
# Bulk Modulus (GPa) = 32.97881 35.77337 34.37609
# Shear Modulus (GPa) = 21.18054 28.51419 24.84736
#
# Velocity S-wave (km/s) = 3.20281 3.71615 3.46899
# Velocity P-wave (km/s) = 5.44513 5.97817 5.71787
#
# Compressibility (1/GPa) = 0.03032250
#
# Stress axis : x y z
#
# Youngs Moduli (GPa) = 84.17772 112.76795 71.01781
#
# Poissons Ratio (x) = -0.00785 -0.05120
# Poissons Ratio (y) = -0.00586 0.21614
# Poissons Ratio (z) = -0.06068 0.34321
#
# Static dielectric constant tensor:
#      x y z
#    x 1.773510 0.000000 0.000000 
#    y 0.000000 1.941600 0.000000 
#    z 0.000000 0.000000 1.740760 
# 
# From -- ./inp_files/56581.got.cif
#   From: 2010.05.17/outbox.cif.g08.bks.cpg/sg66_29_cif.got.tgz:56581.got - 2010.06.03 17:51:23.
