data_PCOD9497017
_publ_section_title
;
Structure prediction by ZEFSAII (Michael W. Deem and Ramdas Pophale) SiO2 
 PCOD9497017
Probable space group: C C C M
;
_chemical_formula_sum "Si O2"
_cell_formula_units_Z 96
_cell_length_a 32.695551
_cell_length_b 8.737050
_cell_length_c 17.496071
_cell_angle_alpha 90.000000
_cell_angle_beta 90.000000
_cell_angle_gamma 90.000000
_cell_volume 4997.974249
_symmetry_space_group_name_H-M "C C C M"
_symmetry_group_IT_number 66
_symmetry_cell_setting 'orthorhombic'
loop_
_space_group_symop_operation_xyz
x,y,z
-x,-y,z
x,-y,1/2-z
-x,y,1/2-z
-x,-y,-z
x,y,-z
-x,y,1/2+z
x,-y,1/2+z
1/2+x,1/2+y,z
1/2-x,1/2-y,z
1/2+x,1/2-y,1/2-z
1/2-x,1/2+y,1/2-z
1/2-x,1/2-y,-z
1/2+x,1/2+y,-z
1/2-x,1/2+y,1/2+z
1/2+x,1/2-y,1/2+z
loop_
_atom_site_type_symbol
_atom_site_label
_atom_site_fract_x
_atom_site_fract_y
_atom_site_fract_z
Si Si1 0.294785 0.934792 0.664866
Si Si2 0.960827 0.610288 0.590668
Si Si3 0.294564 0.564509 0.664324
Si Si4 0.379194 0.569571 0.408957
Si Si5 0.958735 0.070938 0.164500
Si Si6 0.121090 0.422885 0.908883
O O1 0.295407 0.749665 0.666369
O O2 0.250195 0.980027 0.631805
O O3 0.336184 0.985139 0.623512
O O4 0.295885 0.000000 0.750000
O O5 0.958958 0.660123 0.500000
O O6 0.963895 0.749129 0.650144
O O7 0.919124 0.519574 0.608683
O O8 0.000000 0.500000 0.596846
O O9 0.297122 0.500000 0.750000
O O10 0.334797 0.514253 0.619140
O O11 0.380401 0.565187 0.500000
O O12 0.416840 0.475987 0.375910
O O13 0.384287 0.746713 0.383045
O O14 0.956552 0.000000 0.250000
O O15 0.000000 0.000000 0.128720
O O16 0.125000 0.418338 0.000000
#
# Coordination Sequence:
#
# PCOD9497017 Si02
#       6
#    16  16  16  16  16  16
#     4   9  18  32  52  76 104 144 182 221 275 329
#     4  10  21  39  63  87 113 148 189 234 284 337
#     4   9  18  33  52  76 107 141 182 226 271 328
#     4  10  20  35  56  81 110 146 186 229 279 332
#     4  11  24  40  57  83 115 147 185 228 279 336
#     4   9  19  34  53  80 110 141 183 231 276 325
#
# _framework density 19.207782000000002
#
# number of rings (size 3 to 8) (size 9 to 14) (size 15 to 20)
#    0.000    2.333    0.000    2.000    0.000    7.333 
#    0.000    8.333    0.000    0.000    0.000    8.167 
#    0.000    0.000    0.000    0.000    0.000    0.000 
#
# Total GULP energy -267592.350477 kJ/mol
# GULP energy per Si atom -5574.840635 kJ/mol
# Density = 1.916406 g / cm^3
# Si number density = 19.207782 Si / 1000 Ang^3
#
#
#
# Elastic Constant Matrix: (Units=GPa)
#
#
# Indices 1 2 3 4 5 6 
#
# 1 193.1296 48.3810 43.6632 0.0000 0.0000 0.0000
# 2 48.3810 48.2794 28.8678 0.0000 0.0000 0.0000
# 3 43.6632 28.8678 36.6854 0.0000 0.0000 0.0000
# 4 0.0000 0.0000 0.0000 24.8421 0.0000 0.0000
# 5 0.0000 0.0000 0.0000 0.0000 29.4478 0.0000
# 6 0.0000 0.0000 0.0000 0.0000 0.0000 23.8309
#
#
#
# Elastic Compliance Matrix: (Units=1/GPa)
#
#
# Indices 1 2 3 4 5 6 
#
# 1 0.007492 -0.004110 -0.005683 0.000000 0.000000 0.000000
# 2 -0.004110 0.041373 -0.027665 0.000000 0.000000 0.000000
# 3 -0.005683 -0.027665 0.055793 0.000000 0.000000 0.000000
# 4 0.000000 0.000000 0.000000 0.040254 0.000000 0.000000
# 5 0.000000 0.000000 0.000000 0.000000 0.033958 0.000000
# 6 0.000000 0.000000 0.000000 0.000000 0.000000 0.041962
#
#
# Mechanical properties :
#
#
# Convention : Reuss Voigt Hill
#
# Bulk Modulus (GPa) = 33.62268 57.76871 45.69569
# Shear Modulus (GPa) = 16.35788 26.10298 21.23043
#
# Velocity S-wave (km/s) = 2.92143 3.69043 3.32822
# Velocity P-wave (km/s) = 5.37796 6.94982 6.21379
#
# Compressibility (1/GPa) = 0.02974183
#
# Stress axis : x y z
#
# Youngs Moduli (GPa) = 133.46956 24.17044 17.92349
#
# Poissons Ratio (x) = 0.09934 0.10187
# Poissons Ratio (y) = 0.54853 0.49585
# Poissons Ratio (z) = 0.75857 0.66867
#
# Static dielectric constant tensor:
#      x y z
#    x 1.688180 0.000000 0.000000 
#    y 0.000000 1.687450 0.000000 
#    z 0.000000 0.000000 1.651290 
# 
# From -- ./inp_files/52985.got.cif
#   From: 2010.05.17/outbox.cif.g08.bks.cpg/sg66_27_cif.got.tgz:52985.got - 2010.06.03 17:51:23.
