data_PCOD9497370
_publ_section_title
;
Structure prediction by ZEFSAII (Michael W. Deem and Ramdas Pophale) SiO2 
 PCOD9497370
Probable space group: C C C M
;
_chemical_formula_sum "Si O2"
_cell_formula_units_Z 96
_cell_length_a 22.596660
_cell_length_b 15.218640
_cell_length_c 14.320405
_cell_angle_alpha 90.000000
_cell_angle_beta 90.000000
_cell_angle_gamma 90.000000
_cell_volume 4924.650287
_symmetry_space_group_name_H-M "C C C M"
_symmetry_group_IT_number 66
_symmetry_cell_setting 'orthorhombic'
loop_
_space_group_symop_operation_xyz
x,y,z
-x,-y,z
x,-y,1/2-z
-x,y,1/2-z
-x,-y,-z
x,y,-z
-x,y,1/2+z
x,-y,1/2+z
1/2+x,1/2+y,z
1/2-x,1/2-y,z
1/2+x,1/2-y,1/2-z
1/2-x,1/2+y,1/2-z
1/2-x,1/2-y,-z
1/2+x,1/2+y,-z
1/2-x,1/2+y,1/2+z
1/2+x,1/2-y,1/2+z
loop_
_atom_site_type_symbol
_atom_site_label
_atom_site_fract_x
_atom_site_fract_y
_atom_site_fract_z
Si Si1 0.364299 0.396639 0.264217
Si Si2 0.567737 0.109292 0.717975
Si Si3 0.756871 0.143911 0.104808
Si Si4 0.087574 0.214450 0.106046
Si Si5 0.027537 0.093605 0.606424
Si Si6 0.627726 0.058632 0.110254
O O1 0.370369 0.500000 0.250000
O O2 0.304114 0.380908 0.318408
O O3 0.367940 0.341609 0.169489
O O4 0.420791 0.372440 0.327682
O O5 0.500000 0.091618 0.750000
O O6 0.573587 0.193238 0.653164
O O7 0.599015 0.127344 0.817569
O O8 0.601566 0.031172 0.658822
O O9 0.750000 0.250000 0.110409
O O10 0.697012 0.085591 0.115064
O O11 0.779536 0.125597 0.000000
O O12 0.026663 0.160240 0.105652
O O13 0.108443 0.224629 0.000000
O O14 0.049722 0.081620 0.500000
O O15 0.000000 0.000000 0.636599
O O16 0.611273 0.061440 0.000000
#
# Coordination Sequence:
#
# PCOD9497370 Si02
#       6
#    16  16  16  16  16  16
#     4  12  23  36  64  90 122 166 214 265 322 385
#     4  11  23  40  66  97 135 172 211 265 328 397
#     4  10  23  43  65  91 121 159 214 274 323 379
#     4  11  24  40  61  94 134 174 216 268 328 395
#     4  10  20  37  59  88 126 162 203 256 318 384
#     4  10  22  41  67  93 127 169 215 268 323 381
#
# _framework density 19.493769
#
# number of rings (size 3 to 8) (size 9 to 14) (size 15 to 20)
#    0.000    1.333    1.667    4.500    2.333    2.667 
#    0.000    4.167    0.000    1.500    0.000    0.000 
#    0.000    0.000    0.000    0.000    0.000    0.000 
#
# Total GULP energy -267691.526773 kJ/mol
# GULP energy per Si atom -5576.906808 kJ/mol
# Density = 1.944940 g / cm^3
# Si number density = 19.493769 Si / 1000 Ang^3
#
#
#
# Elastic Constant Matrix: (Units=GPa)
#
#
# Indices 1 2 3 4 5 6 
#
# 1 86.6091 26.4008 74.9200 0.0000 0.0000 0.0000
# 2 26.4008 106.2031 51.6035 0.0000 0.0000 0.0000
# 3 74.9200 51.6035 187.9758 0.0000 0.0000 0.0000
# 4 0.0000 0.0000 0.0000 31.6355 0.0000 0.0000
# 5 0.0000 0.0000 0.0000 0.0000 24.4485 0.0000
# 6 0.0000 0.0000 0.0000 0.0000 0.0000 -609.2726
#
#
#
# Elastic Compliance Matrix: (Units=1/GPa)
#
#
# Indices 1 2 3 4 5 6 
#
# 1 0.017737 -0.001124 -0.006761 0.000000 0.000000 0.000000
# 2 -0.001124 0.010936 -0.002554 0.000000 0.000000 0.000000
# 3 -0.006761 -0.002554 0.008716 0.000000 0.000000 0.000000
# 4 0.000000 0.000000 0.000000 0.031610 0.000000 0.000000
# 5 0.000000 0.000000 0.000000 0.000000 0.040902 0.000000
# 6 0.000000 0.000000 0.000000 0.000000 0.000000 -0.001641
#
#
# Mechanical properties :
#
#
# Convention : Reuss Voigt Hill
#
# Bulk Modulus (GPa) = 60.56638 76.29298 68.42968
# Shear Modulus (GPa) = 37.13546 -95.44683 -29.15568
#
# Velocity S-wave (km/s) = 4.36936 -7.00493 -3.87155
# Velocity P-wave (km/s) = 7.52277 5.11892 3.89800
#
# Compressibility (1/GPa) = 0.01651081
#
# Stress axis : x y z
#
# Youngs Moduli (GPa) = 56.37906 91.43711 114.73699
#
# Poissons Ratio (x) = 0.10280 0.77570
# Poissons Ratio (y) = 0.06338 0.29306
# Poissons Ratio (z) = 0.38116 0.23355
#
# Static dielectric constant tensor:
#      x y z
#    x 1.685850 0.000000 0.000000 
#    y 0.000000 1.626100 0.000000 
#    z 0.000000 0.000000 1.713520 
# 
# From -- ./inp_files/31180.got.cif
#   From: 2010.05.17/outbox.cif.g08.bks.cpg/sg66_16_cif.got.tgz:31180.got - 2010.06.03 17:51:23.
