data_PCOD9497139
_publ_section_title
;
Structure prediction by ZEFSAII (Michael W. Deem and Ramdas Pophale) SiO2 
 PCOD9497139
Probable space group: C C C M
;
_chemical_formula_sum "Si O2"
_cell_formula_units_Z 44
_cell_length_a 7.630686
_cell_length_b 12.748626
_cell_length_c 19.113321
_cell_angle_alpha 90.000000
_cell_angle_beta 90.000000
_cell_angle_gamma 90.000000
_cell_volume 1859.358430
_symmetry_space_group_name_H-M "C C C M"
_symmetry_group_IT_number 66
_symmetry_cell_setting 'orthorhombic'
loop_
_space_group_symop_operation_xyz
x,y,z
-x,-y,z
x,-y,1/2-z
-x,y,1/2-z
-x,-y,-z
x,y,-z
-x,y,1/2+z
x,-y,1/2+z
1/2+x,1/2+y,z
1/2-x,1/2-y,z
1/2+x,1/2-y,1/2-z
1/2-x,1/2+y,1/2-z
1/2-x,1/2-y,-z
1/2+x,1/2+y,-z
1/2-x,1/2+y,1/2+z
1/2+x,1/2-y,1/2+z
loop_
_atom_site_type_symbol
_atom_site_label
_atom_site_fract_x
_atom_site_fract_y
_atom_site_fract_z
Si Si1 0.510226 0.740613 0.000000
Si Si2 0.263528 0.442336 0.000000
Si Si3 0.250000 0.250000 0.626658
Si Si4 0.796615 0.478855 0.153969
Si Si5 0.500000 0.500000 0.750000
O O1 0.410536 0.756247 0.072752
O O2 0.551289 0.616225 0.000000
O O3 0.646852 0.836062 0.000000
O O4 0.224638 0.502955 0.929022
O O5 0.249346 0.357481 0.668963
O O6 0.646609 0.544660 0.194668
O O7 0.000000 0.500000 0.171499
#
# Coordination Sequence:
#
# PCOD9497139 Si02
#       5
#     8   8   8  16   4
#     4  10  20  35  67 114 140 173 226 298 362 428
#     4  11  21  41  75 103 140 180 232 297 364 410
#     4  11  22  40  70 104 140 179 236 290 364 421
#     4  12  25  49  72 105 141 187 235 302 353 431
#     4  12  30  50  68  94 146 194 238 280 368 420
#
# _framework density 23.664075
#
# number of rings (size 3 to 8) (size 9 to 14) (size 15 to 20)
#    0.000    0.727    3.636    5.455    0.000    2.182 
#    6.545    0.000    0.000    0.000    0.000    0.000 
#    0.000    0.000    0.000    0.000    0.000    0.000 
#
# Total GULP energy -122706.012979 kJ/mol
# GULP energy per Si atom -5577.546045 kJ/mol
# Density = 2.361021 g / cm^3
# Si number density = 23.664075 Si / 1000 Ang^3
#
#
#
# Elastic Constant Matrix: (Units=GPa)
#
#
# Indices 1 2 3 4 5 6 
#
# 1 115.9034 13.4955 52.8531 0.0000 0.0000 0.0000
# 2 13.4955 134.9691 25.8918 0.0000 0.0000 0.0000
# 3 52.8531 25.8918 148.4225 0.0000 0.0000 0.0000
# 4 0.0000 0.0000 0.0000 13.9814 0.0000 0.0000
# 5 0.0000 0.0000 0.0000 0.0000 -97.9077 0.0000
# 6 0.0000 0.0000 0.0000 0.0000 0.0000 32.1742
#
#
#
# Elastic Compliance Matrix: (Units=1/GPa)
#
#
# Indices 1 2 3 4 5 6 
#
# 1 0.010315 -0.000338 -0.003614 0.000000 0.000000 0.000000
# 2 -0.000338 0.007677 -0.001219 0.000000 0.000000 0.000000
# 3 -0.003614 -0.001219 0.008237 0.000000 0.000000 0.000000
# 4 0.000000 0.000000 0.000000 0.071524 0.000000 0.000000
# 5 0.000000 0.000000 0.000000 0.000000 -0.010214 0.000000
# 6 0.000000 0.000000 0.000000 0.000000 0.000000 0.031081
#
#
# Mechanical properties :
#
#
# Convention : Reuss Voigt Hill
#
# Bulk Modulus (GPa) = 62.94485 64.86400 63.90442
# Shear Modulus (GPa) = 37.24172 10.11989 23.68081
#
# Velocity S-wave (km/s) = 3.97138 2.07021 3.16683
# Velocity P-wave (km/s) = 6.90552 5.76057 6.35887
#
# Compressibility (1/GPa) = 0.01588692
#
# Stress axis : x y z
#
# Youngs Moduli (GPa) = 96.94237 130.26406 121.40055
#
# Poissons Ratio (x) = 0.04404 0.43878
# Poissons Ratio (y) = 0.03277 0.14796
# Poissons Ratio (z) = 0.35038 0.15876
#
# Static dielectric constant tensor:
#      x y z
#    x 2.205070 0.000000 0.000000 
#    y 0.000000 1.995420 0.000000 
#    z 0.000000 0.000000 1.850520 
# 
# From -- ./inp_files/54695.got.cif
#   From: 2010.05.17/outbox.cif.g08.bks.cpg/sg66_28_cif.got.tgz:54695.got - 2010.06.03 17:51:23.
