data_PCOD9497855
_publ_section_title
;
Structure prediction by ZEFSAII (Michael W. Deem and Ramdas Pophale) SiO2 
 PCOD9497855
Probable space group: C C C M
;
_chemical_formula_sum "Si O2"
_cell_formula_units_Z 104
_cell_length_a 29.196763
_cell_length_b 21.882438
_cell_length_c 7.949185
_cell_angle_alpha 90.000000
_cell_angle_beta 90.000000
_cell_angle_gamma 90.000000
_cell_volume 5078.705331
_symmetry_space_group_name_H-M "C C C M"
_symmetry_group_IT_number 66
_symmetry_cell_setting 'orthorhombic'
loop_
_space_group_symop_operation_xyz
x,y,z
-x,-y,z
x,-y,1/2-z
-x,y,1/2-z
-x,-y,-z
x,y,-z
-x,y,1/2+z
x,-y,1/2+z
1/2+x,1/2+y,z
1/2-x,1/2-y,z
1/2+x,1/2-y,1/2-z
1/2-x,1/2+y,1/2-z
1/2-x,1/2-y,-z
1/2+x,1/2+y,-z
1/2-x,1/2+y,1/2+z
1/2+x,1/2-y,1/2+z
loop_
_atom_site_type_symbol
_atom_site_label
_atom_site_fract_x
_atom_site_fract_y
_atom_site_fract_z
Si Si1 0.052727 0.430800 0.198705
Si Si2 0.212249 0.568595 0.798039
Si Si3 0.132858 0.657408 0.800135
Si Si4 0.052707 0.893148 0.202287
Si Si5 0.113930 0.000000 0.250000
Si Si6 0.315728 0.592800 0.305885
Si Si7 0.628558 0.704437 0.297405
O O1 0.065434 0.500000 0.250000
O O2 0.086902 0.381359 0.274479
O O3 0.000000 0.421056 0.250000
O O4 0.055998 0.426606 0.000000
O O5 0.198105 0.500000 0.750000
O O6 0.175331 0.617544 0.733441
O O7 0.262796 0.581293 0.727991
O O8 0.214700 0.572090 0.000000
O O9 0.129404 0.726318 0.733234
O O10 0.140125 0.662906 0.000000
O O11 0.081518 0.831877 0.239609
O O12 0.000000 0.887452 0.250000
O O13 0.077000 0.948315 0.303381
O O14 0.057011 0.906341 0.000000
O O15 0.152125 0.049862 0.310120
O O16 0.326627 0.576347 0.500000
O O17 0.331060 0.662053 0.274037
O O18 0.633092 0.705002 0.500000
#
# Coordination Sequence:
#
# PCOD9497855 Si02
#       7
#    16  16  16  16   8  16  16
#     4  11  22  38  62  90 120 154 194 243 295 356
#     4  11  23  38  60  88 118 151 192 241 299 356
#     4  10  22  41  62  86 118 158 198 242 296 356
#     4  10  21  36  56  83 114 150 193 241 291 347
#     4  10  21  36  58  82 114 156 197 238 298 350
#     4  11  22  37  60  86 115 151 198 246 292 352
#     4   9  21  41  60  80 115 158 198 239 293 357
#
# _framework density 20.47766
#
# number of rings (size 3 to 8) (size 9 to 14) (size 15 to 20)
#    0.000    1.692    0.769    3.923    0.000    9.231 
#    0.000    4.615    0.000    0.000    0.000    0.000 
#    0.000    0.000    0.000    0.000    0.000    0.000 
#
# Total GULP energy -289959.938539 kJ/mol
# GULP energy per Si atom -5576.152664 kJ/mol
# Density = 2.043105 g / cm^3
# Si number density = 20.477660 Si / 1000 Ang^3
#
#
#
# Elastic Constant Matrix: (Units=GPa)
#
#
# Indices 1 2 3 4 5 6 
#
# 1 117.2722 93.1950 17.0558 0.0000 0.0000 0.0000
# 2 93.1950 202.6837 20.7259 0.0000 0.0000 0.0000
# 3 17.0558 20.7259 54.5071 0.0000 0.0000 0.0000
# 4 0.0000 0.0000 0.0000 23.2533 0.0000 0.0000
# 5 0.0000 0.0000 0.0000 0.0000 -3.2779 0.0000
# 6 0.0000 0.0000 0.0000 0.0000 0.0000 26.7609
#
#
#
# Elastic Compliance Matrix: (Units=1/GPa)
#
#
# Indices 1 2 3 4 5 6 
#
# 1 0.013635 -0.006069 -0.001959 0.000000 0.000000 0.000000
# 2 -0.006069 0.007835 -0.001080 0.000000 0.000000 0.000000
# 3 -0.001959 -0.001080 0.019370 0.000000 0.000000 0.000000
# 4 0.000000 0.000000 0.000000 0.043005 0.000000 0.000000
# 5 0.000000 0.000000 0.000000 0.000000 -0.305075 0.000000
# 6 0.000000 0.000000 0.000000 0.000000 0.000000 0.037368
#
#
# Mechanical properties :
#
#
# Convention : Reuss Voigt Hill
#
# Bulk Modulus (GPa) = 44.20125 70.71292 57.45709
# Shear Modulus (GPa) = -31.62452 25.57969 -3.02241
#
# Velocity S-wave (km/s) = -3.93408 3.53817 -1.21621
# Velocity P-wave (km/s) = 0.99802 7.16228 5.11343
#
# Compressibility (1/GPa) = 0.02262379
#
# Stress axis : x y z
#
# Youngs Moduli (GPa) = 73.33953 127.63400 51.62665
#
# Poissons Ratio (x) = 0.77464 0.10113
# Poissons Ratio (y) = 0.44511 0.05576
# Poissons Ratio (z) = 0.14366 0.13785
#
# Static dielectric constant tensor:
#      x y z
#    x 1.679440 0.000000 0.000000 
#    y 0.000000 1.708320 0.000000 
#    z 0.000000 0.000000 1.880100 
# 
# From -- ./inp_files/10371.got.cif
#   From: 2010.05.17/outbox.cif.g08.bks.cpg/sg66_6_cif.got.tgz:10371.got - 2010.06.03 17:51:23.
