data_PCOD9497485
_publ_section_title
;
Structure prediction by ZEFSAII (Michael W. Deem and Ramdas Pophale) SiO2 
 PCOD9497485
Probable space group: C C C M
;
_chemical_formula_sum "Si O2"
_cell_formula_units_Z 72
_cell_length_a 5.116398
_cell_length_b 24.169771
_cell_length_c 30.046565
_cell_angle_alpha 90.000000
_cell_angle_beta 90.000000
_cell_angle_gamma 90.000000
_cell_volume 3715.623369
_symmetry_space_group_name_H-M "C C C M"
_symmetry_group_IT_number 66
_symmetry_cell_setting 'orthorhombic'
loop_
_space_group_symop_operation_xyz
x,y,z
-x,-y,z
x,-y,1/2-z
-x,y,1/2-z
-x,-y,-z
x,y,-z
-x,y,1/2+z
x,-y,1/2+z
1/2+x,1/2+y,z
1/2-x,1/2-y,z
1/2+x,1/2-y,1/2-z
1/2-x,1/2+y,1/2-z
1/2-x,1/2-y,-z
1/2+x,1/2+y,-z
1/2-x,1/2+y,1/2+z
1/2+x,1/2-y,1/2+z
loop_
_atom_site_type_symbol
_atom_site_label
_atom_site_fract_x
_atom_site_fract_y
_atom_site_fract_z
Si Si1 0.594894 0.378848 0.626353
Si Si2 0.744738 0.040247 0.000000
Si Si3 0.001828 0.210874 0.449348
Si Si4 0.381380 0.938372 0.902236
Si Si5 0.502117 0.287196 0.696856
O O1 0.520949 0.336541 0.586857
O O2 0.387381 0.428777 0.623981
O O3 0.540604 0.344181 0.670845
O O4 0.889323 0.398961 0.616460
O O5 0.703869 0.072372 0.953768
O O6 0.500000 0.000000 0.000000
O O7 0.000000 0.000000 0.000000
O O8 0.485058 0.311253 0.500000
O O9 0.250000 0.250000 0.441676
O O10 0.750000 0.250000 0.446196
O O11 0.500000 0.000000 0.899988
O O12 0.500000 0.296239 0.750000
O O13 0.750000 0.250000 0.685082
O O14 0.250000 0.250000 0.684884
#
# Coordination Sequence:
#
# PCOD9497485 Si02
#       5
#    16   8  16  16  16
#     4  12  22  36  62  84 114 156 197 240 294 361
#     4  10  20  38  56  76 110 154 206 254 294 328
#     4  10  21  35  51  77 114 147 182 227 281 352
#     4  11  24  38  57  83 117 155 201 255 289 337
#     4  10  21  39  64  93 121 148 190 246 299 358
#
# _framework density 19.377637
#
# number of rings (size 3 to 8) (size 9 to 14) (size 15 to 20)
#    0.000    1.333    0.000    7.333    3.111    0.000 
#    0.000    0.000    0.000    4.000    0.000    0.000 
#    0.000    0.000    0.000    0.000    0.000    0.000 
#
# Total GULP energy -201062.661798 kJ/mol
# GULP energy per Si atom -5585.073939 kJ/mol
# Density = 1.933353 g / cm^3
# Si number density = 19.377637 Si / 1000 Ang^3
#
#
#
# Elastic Constant Matrix: (Units=GPa)
#
#
# Indices 1 2 3 4 5 6 
#
# 1 152.4448 18.9484 22.7899 0.0000 0.0000 0.0000
# 2 18.9484 52.0760 30.9604 0.0000 0.0000 0.0000
# 3 22.7899 30.9604 50.5645 0.0000 0.0000 0.0000
# 4 0.0000 0.0000 0.0000 38.8817 0.0000 0.0000
# 5 0.0000 0.0000 0.0000 0.0000 -163.3077 0.0000
# 6 0.0000 0.0000 0.0000 0.0000 0.0000 34.6077
#
#
#
# Elastic Compliance Matrix: (Units=1/GPa)
#
#
# Indices 1 2 3 4 5 6 
#
# 1 0.007071 -0.001066 -0.002534 0.000000 0.000000 0.000000
# 2 -0.001066 0.030355 -0.018105 0.000000 0.000000 0.000000
# 3 -0.002534 -0.018105 0.032005 0.000000 0.000000 0.000000
# 4 0.000000 0.000000 0.000000 0.025719 0.000000 0.000000
# 5 0.000000 0.000000 0.000000 0.000000 -0.006123 0.000000
# 6 0.000000 0.000000 0.000000 0.000000 0.000000 0.028895
#
#
# Mechanical properties :
#
#
# Convention : Reuss Voigt Hill
#
# Bulk Modulus (GPa) = 38.43367 44.49808 41.46588
# Shear Modulus (GPa) = 29.41065 -5.80454 11.80305
#
# Velocity S-wave (km/s) = 3.90007 -1.73262 2.47069
# Velocity P-wave (km/s) = 6.33702 4.36014 5.43915
#
# Compressibility (1/GPa) = 0.02601885
#
# Stress axis : x y z
#
# Youngs Moduli (GPa) = 141.42009 32.94367 31.24536
#
# Poissons Ratio (x) = 0.03513 0.07918
# Poissons Ratio (y) = 0.15080 0.56571
# Poissons Ratio (z) = 0.35838 0.59646
#
# Static dielectric constant tensor:
#      x y z
#    x 1.673320 0.000000 0.000000 
#    y 0.000000 1.720920 0.000000 
#    z 0.000000 0.000000 1.719750 
# 
# From -- ./inp_files/67169.got.cif
#   From: 2010.05.17/outbox.cif.g08.bks.cpg/sg66_34_cif.got.tgz:67169.got - 2010.06.03 17:51:23.
