data_PCOD9497278
_publ_section_title
;
Structure prediction by ZEFSAII (Michael W. Deem and Ramdas Pophale) SiO2 
 PCOD9497278
Probable space group: C C C M
;
_chemical_formula_sum "Si O2"
_cell_formula_units_Z 64
_cell_length_a 19.160677
_cell_length_b 8.609301
_cell_length_c 17.809643
_cell_angle_alpha 90.000000
_cell_angle_beta 90.000000
_cell_angle_gamma 90.000000
_cell_volume 2937.879344
_symmetry_space_group_name_H-M "C C C M"
_symmetry_group_IT_number 66
_symmetry_cell_setting 'orthorhombic'
loop_
_space_group_symop_operation_xyz
x,y,z
-x,-y,z
x,-y,1/2-z
-x,y,1/2-z
-x,-y,-z
x,y,-z
-x,y,1/2+z
x,-y,1/2+z
1/2+x,1/2+y,z
1/2-x,1/2-y,z
1/2+x,1/2-y,1/2-z
1/2-x,1/2+y,1/2-z
1/2-x,1/2-y,-z
1/2+x,1/2+y,-z
1/2-x,1/2+y,1/2+z
1/2+x,1/2-y,1/2+z
loop_
_atom_site_type_symbol
_atom_site_label
_atom_site_fract_x
_atom_site_fract_y
_atom_site_fract_z
Si Si1 0.802271 0.892907 0.415836
Si Si2 0.410980 0.830635 0.591112
Si Si3 0.692968 0.365050 0.694091
Si Si4 0.073826 0.311126 0.590024
O O1 0.816689 0.949004 0.500000
O O2 0.750000 0.750000 0.419235
O O3 0.873839 0.821466 0.382284
O O4 0.769440 0.032377 0.369908
O O5 0.396976 0.814829 0.500000
O O6 0.364415 0.729119 0.647095
O O7 0.492206 0.785746 0.603790
O O8 0.406101 0.013429 0.612199
O O9 0.668049 0.500000 0.750000
O O10 0.750000 0.250000 0.729826
O O11 0.082601 0.310569 0.500000
#
# Coordination Sequence:
#
# PCOD9497278 Si02
#       4
#    16  16  16  16
#     4  10  20  36  61  90 120 154 195 243 293 350
#     4   9  18  36  64  93 121 155 194 239 296 362
#     4  12  26  41  57  79 115 160 202 249 302 353
#     4   8  16  34  62  96 127 151 183 237 300 354
#
# _framework density 21.784420000000001
#
# number of rings (size 3 to 8) (size 9 to 14) (size 15 to 20)
#    0.000    2.250    0.000    4.500    0.000    5.000 
#    0.000    6.250    0.000    3.000    0.000    0.000 
#    0.000    0.000    0.000    0.000    0.000    0.000 
#
# Total GULP energy -178473.585038 kJ/mol
# GULP energy per Si atom -5577.299532 kJ/mol
# Density = 2.173484 g / cm^3
# Si number density = 21.784420 Si / 1000 Ang^3
#
#
#
# Elastic Constant Matrix: (Units=GPa)
#
#
# Indices 1 2 3 4 5 6 
#
# 1 78.0186 37.3547 36.8004 0.0000 0.0000 0.0000
# 2 37.3547 84.3081 49.3381 0.0000 0.0000 0.0000
# 3 36.8004 49.3381 70.9339 0.0000 0.0000 0.0000
# 4 0.0000 0.0000 0.0000 49.7705 0.0000 0.0000
# 5 0.0000 0.0000 0.0000 0.0000 77.1474 0.0000
# 6 0.0000 0.0000 0.0000 0.0000 0.0000 41.8126
#
#
#
# Elastic Compliance Matrix: (Units=1/GPa)
#
#
# Indices 1 2 3 4 5 6 
#
# 1 0.017806 -0.004188 -0.006325 0.000000 0.000000 0.000000
# 2 -0.004188 0.020989 -0.012426 0.000000 0.000000 0.000000
# 3 -0.006325 -0.012426 0.026022 0.000000 0.000000 0.000000
# 4 0.000000 0.000000 0.000000 0.020092 0.000000 0.000000
# 5 0.000000 0.000000 0.000000 0.000000 0.012962 0.000000
# 6 0.000000 0.000000 0.000000 0.000000 0.000000 0.023916
#
#
# Mechanical properties :
#
#
# Convention : Reuss Voigt Hill
#
# Bulk Modulus (GPa) = 52.80109 53.36077 53.08093
# Shear Modulus (GPa) = 28.73935 41.06393 34.90164
#
# Velocity S-wave (km/s) = 3.63610 4.34638 4.00701
# Velocity P-wave (km/s) = 6.47449 7.05239 6.76961
#
# Compressibility (1/GPa) = 0.01893900
#
# Stress axis : x y z
#
# Youngs Moduli (GPa) = 56.16097 47.64467 38.42936
#
# Poissons Ratio (x) = 0.19954 0.24305
# Poissons Ratio (y) = 0.23521 0.47752
# Poissons Ratio (z) = 0.35520 0.59203
#
# Static dielectric constant tensor:
#      x y z
#    x 1.809610 0.000000 0.000000 
#    y 0.000000 1.810010 0.000000 
#    z 0.000000 0.000000 1.827850 
# 
# From -- ./inp_files/42381.got.cif
#   From: 2010.05.17/outbox.cif.g08.bks.cpg/sg66_22_cif.got.tgz:42381.got - 2010.06.03 17:51:23.
