data_PCOD9497875
_publ_section_title
;
Structure prediction by ZEFSAII (Michael W. Deem and Ramdas Pophale) SiO2 
 PCOD9497875
Probable space group: C C C M
;
_chemical_formula_sum "Si O2"
_cell_formula_units_Z 116
_cell_length_a 9.444792
_cell_length_b 23.937542
_cell_length_c 28.580195
_cell_angle_alpha 90.000000
_cell_angle_beta 90.000000
_cell_angle_gamma 90.000000
_cell_volume 6461.556393
_symmetry_space_group_name_H-M "C C C M"
_symmetry_group_IT_number 66
_symmetry_cell_setting 'orthorhombic'
loop_
_space_group_symop_operation_xyz
x,y,z
-x,-y,z
x,-y,1/2-z
-x,y,1/2-z
-x,-y,-z
x,y,-z
-x,y,1/2+z
x,-y,1/2+z
1/2+x,1/2+y,z
1/2-x,1/2-y,z
1/2+x,1/2-y,1/2-z
1/2-x,1/2+y,1/2-z
1/2-x,1/2-y,-z
1/2+x,1/2+y,-z
1/2-x,1/2+y,1/2+z
1/2+x,1/2-y,1/2+z
loop_
_atom_site_type_symbol
_atom_site_label
_atom_site_fract_x
_atom_site_fract_y
_atom_site_fract_z
Si Si1 0.168119 0.595878 0.749238
Si Si2 0.457292 0.360639 0.370453
Si Si3 0.253989 0.541213 0.841767
Si Si4 0.000000 0.500000 0.000000
Si Si5 0.139616 0.199856 0.281713
Si Si6 0.533965 0.090453 0.915206
Si Si7 0.750000 0.915241 0.859092
Si Si8 0.751062 0.184183 0.944279
O O1 0.205910 0.547699 0.787518
O O2 0.267367 0.646836 0.765665
O O3 0.205163 0.588308 0.695097
O O4 0.000000 0.606927 0.750000
O O5 0.382200 0.416588 0.351002
O O6 0.416486 0.312644 0.333669
O O7 0.621800 0.374139 0.370559
O O8 0.384839 0.344597 0.419101
O O9 0.124415 0.562893 0.873290
O O10 0.291944 0.480433 0.861126
O O11 0.028655 0.548033 0.041223
O O12 0.250000 0.250000 0.280247
O O13 0.000000 0.207483 0.250000
O O14 0.378299 0.097663 0.893936
O O15 0.614343 0.148239 0.927899
O O16 0.750000 0.250000 0.931849
O O17 0.761092 0.179883 0.000000
#
# Coordination Sequence:
#
# PCOD9497875 Si02
#       8
#    16  16  16   4  16  16  16  16
#     4  11  22  36  58  88 123 162 206 248 295 366
#     4  10  23  40  59  90 124 158 205 249 309 368
#     4  10  21  36  59  87 125 165 202 242 299 370
#     4  12  20  40  62  96 130 152 212 256 322 362
#     4  11  22  41  60  84 120 162 206 253 302 359
#     4  11  22  38  65  92 122 162 204 256 306 370
#     4  12  21  38  58  93 126 159 200 252 309 361
#     4  10  22  45  69  88 115 161 212 257 312 375
#
# _framework density 17.952331000000001
#
# number of rings (size 3 to 8) (size 9 to 14) (size 15 to 20)
#    0.000    1.241    4.828    1.655    0.000    0.552 
#    3.724    2.069    0.000    4.966    0.000    0.000 
#    0.000    0.000    0.000    0.000    0.000    0.000 
#
# Total GULP energy -323049.847584 kJ/mol
# GULP energy per Si atom -5569.824958 kJ/mol
# Density = 1.791147 g / cm^3
# Si number density = 17.952331 Si / 1000 Ang^3
#
#
#
# Elastic Constant Matrix: (Units=GPa)
#
#
# Indices 1 2 3 4 5 6 
#
# 1 73.2460 10.4370 28.8940 0.0000 0.0000 0.0000
# 2 10.4370 80.7997 29.9809 0.0000 0.0000 0.0000
# 3 28.8940 29.9809 102.9170 0.0000 0.0000 0.0000
# 4 0.0000 0.0000 0.0000 -5.3229 0.0000 0.0000
# 5 0.0000 0.0000 0.0000 0.0000 16.9616 0.0000
# 6 0.0000 0.0000 0.0000 0.0000 0.0000 22.1782
#
#
#
# Elastic Compliance Matrix: (Units=1/GPa)
#
#
# Indices 1 2 3 4 5 6 
#
# 1 0.015366 -0.000431 -0.004189 0.000000 0.000000 0.000000
# 2 -0.000431 0.013888 -0.003925 0.000000 0.000000 0.000000
# 3 -0.004189 -0.003925 0.012036 0.000000 0.000000 0.000000
# 4 0.000000 0.000000 0.000000 -0.187867 0.000000 0.000000
# 5 0.000000 0.000000 0.000000 0.000000 0.058957 0.000000
# 6 0.000000 0.000000 0.000000 0.000000 0.000000 0.045089
#
#
# Mechanical properties :
#
#
# Convention : Reuss Voigt Hill
#
# Bulk Modulus (GPa) = 41.31882 43.95404 42.63643
# Shear Modulus (GPa) = -287.77383 19.27344 -134.25019
#
# Velocity S-wave (km/s) = -12.67465 3.28012 -8.65701
# Velocity P-wave (km/s) = 13.82498 6.23558 8.72489
#
# Compressibility (1/GPa) = 0.02420205
#
# Stress axis : x y z
#
# Youngs Moduli (GPa) = 65.07741 72.00332 83.08482
#
# Poissons Ratio (x) = 0.03101 0.34801
# Poissons Ratio (y) = 0.02803 0.32610
# Poissons Ratio (z) = 0.27259 0.28261
#
# Static dielectric constant tensor:
#      x y z
#    x 1.809280 0.000000 0.000000 
#    y 0.000000 1.628940 0.000000 
#    z 0.000000 0.000000 1.607980 
# 
# From -- ./inp_files/62905.got.cif
#   From: 2010.05.17/outbox.cif.g08.bks.cpg/sg66_32_cif.got.tgz:62905.got - 2010.06.03 17:51:23.
