data_PCOD9497863
_publ_section_title
;
Structure prediction by ZEFSAII (Michael W. Deem and Ramdas Pophale) SiO2 
 PCOD9497863
Probable space group: C C C M
;
_chemical_formula_sum "Si O2"
_cell_formula_units_Z 72
_cell_length_a 13.484069
_cell_length_b 15.918087
_cell_length_c 16.109775
_cell_angle_alpha 90.000000
_cell_angle_beta 90.000000
_cell_angle_gamma 90.000000
_cell_volume 3457.811505
_symmetry_space_group_name_H-M "C C C M"
_symmetry_group_IT_number 66
_symmetry_cell_setting 'orthorhombic'
loop_
_space_group_symop_operation_xyz
x,y,z
-x,-y,z
x,-y,1/2-z
-x,y,1/2-z
-x,-y,-z
x,y,-z
-x,y,1/2+z
x,-y,1/2+z
1/2+x,1/2+y,z
1/2-x,1/2-y,z
1/2+x,1/2-y,1/2-z
1/2-x,1/2+y,1/2-z
1/2-x,1/2-y,-z
1/2+x,1/2+y,-z
1/2-x,1/2+y,1/2+z
1/2+x,1/2-y,1/2+z
loop_
_atom_site_type_symbol
_atom_site_label
_atom_site_fract_x
_atom_site_fract_y
_atom_site_fract_z
Si Si1 0.134518 0.232135 0.500000
Si Si2 0.597687 0.367781 0.833678
Si Si3 0.876750 0.836125 0.156116
Si Si4 0.115555 0.479193 0.000000
Si Si5 0.417948 0.784832 0.500000
Si Si6 0.237516 0.490313 0.839525
O O1 0.250000 0.250000 0.500000
O O2 0.119532 0.180004 0.582829
O O3 0.038638 0.293594 0.500000
O O4 0.480835 0.387662 0.841499
O O5 0.622701 0.309482 0.753274
O O6 0.668887 0.447441 0.830764
O O7 0.784492 0.898262 0.145368
O O8 0.885995 0.768167 0.082557
O O9 0.169680 0.512542 0.082550
O O10 0.000000 0.500000 0.000000
O O11 0.125148 0.377781 0.000000
O O12 0.184977 0.500000 0.750000
#
# Coordination Sequence:
#
# PCOD9497863 Si02
#       6
#     8  16  16   8   8  16
#     4  10  21  36  57  86 117 161 203 249 298 360
#     4   9  18  35  62  96 127 148 187 249 320 382
#     4   9  18  37  63  98 124 147 190 256 327 370
#     4  12  28  45  59  78 124 176 221 262 284 354
#     4  10  23  41  61  88 124 165 209 258 311 357
#     4  10  21  39  64  93 119 158 200 245 313 380
#
# _framework density 20.822419
#
# number of rings (size 3 to 8) (size 9 to 14) (size 15 to 20)
#    0.000    2.222    0.000    2.000    3.111    4.889 
#    8.000    8.889    0.000    0.000    0.000    0.000 
#    0.000    0.000    0.000    0.000    0.000    0.000 
#
# Total GULP energy -200653.432816 kJ/mol
# GULP energy per Si atom -5573.706467 kJ/mol
# Density = 2.077503 g / cm^3
# Si number density = 20.822419 Si / 1000 Ang^3
#
#
#
# Elastic Constant Matrix: (Units=GPa)
#
#
# Indices 1 2 3 4 5 6 
#
# 1 79.9189 2.7930 59.3572 0.0000 0.0000 0.0000
# 2 2.7930 42.2282 31.8592 0.0000 0.0000 0.0000
# 3 59.3572 31.8592 196.3752 0.0000 0.0000 0.0000
# 4 0.0000 0.0000 0.0000 30.2709 0.0000 0.0000
# 5 0.0000 0.0000 0.0000 0.0000 37.5807 0.0000
# 6 0.0000 0.0000 0.0000 0.0000 0.0000 16.8100
#
#
#
# Elastic Compliance Matrix: (Units=1/GPa)
#
#
# Indices 1 2 3 4 5 6 
#
# 1 0.016470 0.003038 -0.005471 0.000000 0.000000 0.000000
# 2 0.003038 0.027544 -0.005387 0.000000 0.000000 0.000000
# 3 -0.005471 -0.005387 0.007620 0.000000 0.000000 0.000000
# 4 0.000000 0.000000 0.000000 0.033035 0.000000 0.000000
# 5 0.000000 0.000000 0.000000 0.000000 0.026609 0.000000
# 6 0.000000 0.000000 0.000000 0.000000 0.000000 0.059488
#
#
# Mechanical properties :
#
#
# Convention : Reuss Voigt Hill
#
# Bulk Modulus (GPa) = 27.78192 56.28234 42.03213
# Shear Modulus (GPa) = 25.20095 31.89986 28.55040
#
# Velocity S-wave (km/s) = 3.48268 3.91832 3.70690
# Velocity P-wave (km/s) = 5.43538 6.89633 6.20897
#
# Compressibility (1/GPa) = 0.03599463
#
# Stress axis : x y z
#
# Youngs Moduli (GPa) = 60.71600 36.30522 131.23272
#
# Poissons Ratio (x) = -0.11031 0.71801
# Poissons Ratio (y) = -0.18449 0.70697
# Poissons Ratio (z) = 0.33219 0.19558
#
# Static dielectric constant tensor:
#      x y z
#    x 1.908110 0.000000 0.000000 
#    y 0.000000 1.759820 0.000000 
#    z 0.000000 0.000000 1.763800 
# 
# From -- ./inp_files/28018.got.cif
#   From: 2010.05.17/outbox.cif.g08.bks.cpg/sg66_15_cif.got.tgz:28018.got - 2010.06.03 17:51:23.
