data_PCOD9497001
_publ_section_title
;
Structure prediction by ZEFSAII (Michael W. Deem and Ramdas Pophale) SiO2 
 PCOD9497001
Probable space group: C C C M
;
_chemical_formula_sum "Si O2"
_cell_formula_units_Z 64
_cell_length_a 8.111414
_cell_length_b 23.731218
_cell_length_c 16.808341
_cell_angle_alpha 90.000000
_cell_angle_beta 90.000000
_cell_angle_gamma 90.000000
_cell_volume 3235.500320
_symmetry_space_group_name_H-M "C C C M"
_symmetry_group_IT_number 66
_symmetry_cell_setting 'orthorhombic'
loop_
_space_group_symop_operation_xyz
x,y,z
-x,-y,z
x,-y,1/2-z
-x,y,1/2-z
-x,-y,-z
x,y,-z
-x,y,1/2+z
x,-y,1/2+z
1/2+x,1/2+y,z
1/2-x,1/2-y,z
1/2+x,1/2-y,1/2-z
1/2-x,1/2+y,1/2-z
1/2-x,1/2-y,-z
1/2+x,1/2+y,-z
1/2-x,1/2+y,1/2+z
1/2+x,1/2-y,1/2+z
loop_
_atom_site_type_symbol
_atom_site_label
_atom_site_fract_x
_atom_site_fract_y
_atom_site_fract_z
Si Si1 0.164965 0.869687 0.298667
Si Si2 0.008155 0.782849 0.090975
Si Si3 0.547073 0.939050 0.843855
Si Si4 0.150061 0.330723 0.356194
O O1 0.262133 0.920418 0.341055
O O2 0.285169 0.841629 0.233188
O O3 0.000000 0.887001 0.250000
O O4 0.114795 0.822744 0.361872
O O5 0.034316 0.723431 0.134834
O O6 0.185866 0.814492 0.095128
O O7 0.961795 0.773407 0.000000
O O8 0.500000 0.941193 0.750000
O O9 0.442939 0.887661 0.880826
O O10 0.500000 0.000000 0.877585
#
# Coordination Sequence:
#
# PCOD9497001 Si02
#       4
#    16  16  16  16
#     4   9  19  33  54  84 111 141 182 229 279 331
#     4  10  20  35  55  80 111 143 181 229 280 329
#     4   9  18  34  54  78 106 138 181 228 271 322
#     4   9  18  32  54  79 106 142 180 222 275 330
#
# _framework density 19.780557000000002
#
# number of rings (size 3 to 8) (size 9 to 14) (size 15 to 20)
#    0.000    2.750    0.000    1.500    0.000   18.000 
#    0.000   25.000    0.000    8.250    0.000    0.000 
#    0.000    0.000    0.000    0.000    0.000    0.000 
#
# Total GULP energy -178524.727242 kJ/mol
# GULP energy per Si atom -5578.897726 kJ/mol
# Density = 1.973554 g / cm^3
# Si number density = 19.780557 Si / 1000 Ang^3
#
#
#
# Elastic Constant Matrix: (Units=GPa)
#
#
# Indices 1 2 3 4 5 6 
#
# 1 101.2982 84.1723 29.6867 0.0000 0.0000 0.0000
# 2 84.1723 181.5607 27.3347 0.0000 0.0000 0.0000
# 3 29.6867 27.3347 40.2462 0.0000 0.0000 0.0000
# 4 0.0000 0.0000 0.0000 -11.7986 0.0000 0.0000
# 5 0.0000 0.0000 0.0000 0.0000 1.9009 0.0000
# 6 0.0000 0.0000 0.0000 0.0000 0.0000 29.3682
#
#
#
# Elastic Compliance Matrix: (Units=1/GPa)
#
#
# Indices 1 2 3 4 5 6 
#
# 1 0.018429 -0.007237 -0.008678 0.000000 0.000000 0.000000
# 2 -0.007237 0.008977 -0.000759 0.000000 0.000000 0.000000
# 3 -0.008678 -0.000759 0.031764 0.000000 0.000000 0.000000
# 4 0.000000 0.000000 0.000000 -0.084756 0.000000 0.000000
# 5 0.000000 0.000000 0.000000 0.000000 0.526071 0.000000
# 6 0.000000 0.000000 0.000000 0.000000 0.000000 0.034050
#
#
# Mechanical properties :
#
#
# Convention : Reuss Voigt Hill
#
# Bulk Modulus (GPa) = 38.72769 67.27693 53.00231
# Shear Modulus (GPa) = 8.67317 16.02153 12.34735
#
# Velocity S-wave (km/s) = 2.09624 2.84907 2.50114
# Velocity P-wave (km/s) = 5.04778 6.70138 5.93248
#
# Compressibility (1/GPa) = 0.02582132
#
# Stress axis : x y z
#
# Youngs Moduli (GPa) = 54.26349 111.39349 31.48239
#
# Poissons Ratio (x) = 0.80616 0.27321
# Poissons Ratio (y) = 0.39271 0.02389
# Poissons Ratio (z) = 0.47091 0.08454
#
# Static dielectric constant tensor:
#      x y z
#    x 1.747190 0.000000 0.000000 
#    y 0.000000 1.696940 0.000000 
#    z 0.000000 0.000000 1.690950 
# 
# From -- ./inp_files/24147.got.cif
#   From: 2010.05.17/outbox.cif.g08.bks.cpg/sg66_13_cif.got.tgz:24147.got - 2010.06.03 17:51:23.
