data_PCOD9497659
_publ_section_title
;
Structure prediction by ZEFSAII (Michael W. Deem and Ramdas Pophale) SiO2 
 PCOD9497659
Probable space group: C C C M
;
_chemical_formula_sum "Si O2"
_cell_formula_units_Z 72
_cell_length_a 9.187099
_cell_length_b 27.882054
_cell_length_c 14.289448
_cell_angle_alpha 90.000000
_cell_angle_beta 90.000000
_cell_angle_gamma 90.000000
_cell_volume 3660.316273
_symmetry_space_group_name_H-M "C C C M"
_symmetry_group_IT_number 66
_symmetry_cell_setting 'orthorhombic'
loop_
_space_group_symop_operation_xyz
x,y,z
-x,-y,z
x,-y,1/2-z
-x,y,1/2-z
-x,-y,-z
x,y,-z
-x,y,1/2+z
x,-y,1/2+z
1/2+x,1/2+y,z
1/2-x,1/2-y,z
1/2+x,1/2-y,1/2-z
1/2-x,1/2+y,1/2-z
1/2-x,1/2-y,-z
1/2+x,1/2+y,-z
1/2-x,1/2+y,1/2+z
1/2+x,1/2-y,1/2+z
loop_
_atom_site_type_symbol
_atom_site_label
_atom_site_fract_x
_atom_site_fract_y
_atom_site_fract_z
Si Si1 0.013121 0.912072 0.888198
Si Si2 0.399840 0.307740 0.887111
Si Si3 0.000000 0.626122 0.250000
Si Si4 0.440502 0.797917 0.612142
Si Si5 0.239459 0.945601 0.261743
O O1 0.152208 0.930290 0.831665
O O2 0.980445 0.856513 0.861403
O O3 0.876183 0.941294 0.846404
O O4 0.024653 0.916245 0.000000
O O5 0.471343 0.257120 0.859841
O O6 0.229165 0.307312 0.860366
O O7 0.396890 0.306891 0.000000
O O8 0.033642 0.662307 0.164799
O O9 0.868157 0.591654 0.223202
O O10 0.452835 0.802153 0.500000
O O11 0.290419 0.000000 0.250000
#
# Coordination Sequence:
#
# PCOD9497659 Si02
#       5
#    16  16   8  16  16
#     4  10  20  40  65  86 111 148 193 240 291 345
#     4   8  15  33  60  85 113 148 186 231 280 337
#     4  12  23  38  58  84 118 160 191 232 288 356
#     4   9  18  34  56  86 120 155 189 224 278 349
#     4  11  25  40  57  84 115 149 196 250 294 335
#
# _framework density 19.67043
#
# number of rings (size 3 to 8) (size 9 to 14) (size 15 to 20)
#    0.000    2.222    2.222    3.000    0.000    4.444 
#    0.000    0.000    0.000    8.000    0.000    0.000 
#    0.000    0.000    0.000    0.000    0.000    0.000 
#
# Total GULP energy -200892.299232 kJ/mol
# GULP energy per Si atom -5580.341645 kJ/mol
# Density = 1.962566 g / cm^3
# Si number density = 19.670430 Si / 1000 Ang^3
#
#
#
# Elastic Constant Matrix: (Units=GPa)
#
#
# Indices 1 2 3 4 5 6 
#
# 1 2.5082 -7.2248 -3.3016 0.0000 0.0000 0.0000
# 2 -7.2248 135.5232 14.8052 0.0000 0.0000 0.0000
# 3 -3.3016 14.8052 95.4726 0.0000 0.0000 0.0000
# 4 0.0000 0.0000 0.0000 23.0016 0.0000 0.0000
# 5 0.0000 0.0000 0.0000 0.0000 9.1540 0.0000
# 6 0.0000 0.0000 0.0000 0.0000 0.0000 9.6768
#
#
#
# Elastic Compliance Matrix: (Units=1/GPa)
#
#
# Indices 1 2 3 4 5 6 
#
# 1 0.486424 0.024509 0.013021 0.000000 0.000000 0.000000
# 2 0.024509 0.008741 -0.000508 0.000000 0.000000 0.000000
# 3 0.013021 -0.000508 0.011003 0.000000 0.000000 0.000000
# 4 0.000000 0.000000 0.000000 0.043475 0.000000 0.000000
# 5 0.000000 0.000000 0.000000 0.000000 0.109242 0.000000
# 6 0.000000 0.000000 0.000000 0.000000 0.000000 0.103340
#
#
# Mechanical properties :
#
#
# Convention : Reuss Voigt Hill
#
# Bulk Modulus (GPa) = 1.72351 26.89574 14.30963
# Shear Modulus (GPa) = 5.67160 23.64816 14.65988
#
# Velocity S-wave (km/s) = 1.69987 3.47106 2.73293
# Velocity P-wave (km/s) = 2.17505 5.45594 4.15320
#
# Compressibility (1/GPa) = 0.58021149
#
# Stress axis : x y z
#
# Youngs Moduli (GPa) = 2.05582 114.40492 90.88226
#
# Poissons Ratio (x) = -2.80395 -1.18335
# Poissons Ratio (y) = -0.05039 0.04616
# Poissons Ratio (z) = -0.02677 0.05811
#
# Static dielectric constant tensor:
#      x y z
#    x 1.678360 0.000000 0.000000 
#    y 0.000000 1.713570 0.000000 
#    z 0.000000 0.000000 1.691260 
# 
# From -- ./inp_files/24494.got.cif
#   From: 2010.05.17/outbox.cif.g08.bks.cpg/sg66_13_cif.got.tgz:24494.got - 2010.06.03 17:51:23.
