data_PCOD9497022
_publ_section_title
;
Structure prediction by ZEFSAII (Michael W. Deem and Ramdas Pophale) SiO2 
 PCOD9497022
Probable space group: C C C M
;
_chemical_formula_sum "Si O2"
_cell_formula_units_Z 80
_cell_length_a 8.928434
_cell_length_b 26.485879
_cell_length_c 15.393519
_cell_angle_alpha 90.000000
_cell_angle_beta 90.000000
_cell_angle_gamma 90.000000
_cell_volume 3640.219698
_symmetry_space_group_name_H-M "C C C M"
_symmetry_group_IT_number 66
_symmetry_cell_setting 'orthorhombic'
loop_
_space_group_symop_operation_xyz
x,y,z
-x,-y,z
x,-y,1/2-z
-x,y,1/2-z
-x,-y,-z
x,y,-z
-x,y,1/2+z
x,-y,1/2+z
1/2+x,1/2+y,z
1/2-x,1/2-y,z
1/2+x,1/2-y,1/2-z
1/2-x,1/2+y,1/2-z
1/2-x,1/2-y,-z
1/2+x,1/2+y,-z
1/2-x,1/2+y,1/2+z
1/2+x,1/2-y,1/2+z
loop_
_atom_site_type_symbol
_atom_site_label
_atom_site_fract_x
_atom_site_fract_y
_atom_site_fract_z
Si Si1 0.132508 0.123541 0.101414
Si Si2 0.634261 0.204768 0.818276
Si Si3 0.824106 0.407268 0.235040
Si Si4 0.622152 0.457100 0.099271
Si Si5 0.580728 0.269811 0.592696
O O1 0.244912 0.098156 0.170835
O O2 0.093225 0.178223 0.144736
O O3 0.979387 0.092912 0.098264
O O4 0.193756 0.123774 0.000000
O O5 0.500000 0.207996 0.750000
O O6 0.750000 0.250000 0.801018
O O7 0.690454 0.147873 0.813170
O O8 0.537422 0.225086 0.898341
O O9 0.746637 0.448154 0.172363
O O10 0.000000 0.416345 0.250000
O O11 0.500000 0.500000 0.120575
O O12 0.677837 0.466476 0.000000
O O13 0.539753 0.292595 0.500000
O O14 0.750000 0.250000 0.592966
#
# Coordination Sequence:
#
# PCOD9497022 Si02
#       5
#    16  16  16  16  16
#     4  10  21  39  62  89 124 170 219 260 307 377
#     4  11  21  33  52  82 121 161 203 247 301 364
#     4  11  23  37  61  96 130 164 204 265 327 373
#     4  10  23  45  70  92 120 163 212 261 314 378
#     4  10  20  35  56  82 118 164 208 253 308 371
#
# _framework density 21.976694999999999
#
# number of rings (size 3 to 8) (size 9 to 14) (size 15 to 20)
#    0.000    1.600    0.000    6.000    0.000    3.600 
#    0.000    2.000    0.000    3.600    0.000    0.000 
#    0.000    0.000    0.000    0.000    0.000    0.000 
#
# Total GULP energy -222686.602598 kJ/mol
# GULP energy per Si atom -5567.165065 kJ/mol
# Density = 2.192667 g / cm^3
# Si number density = 21.976695 Si / 1000 Ang^3
#
#
#
# Elastic Constant Matrix: (Units=GPa)
#
#
# Indices 1 2 3 4 5 6 
#
# 1 90.5828 33.9946 59.6852 0.0000 0.0000 0.0000
# 2 33.9946 75.1022 27.2077 0.0000 0.0000 0.0000
# 3 59.6852 27.2077 125.6401 0.0000 0.0000 0.0000
# 4 0.0000 0.0000 0.0000 35.8540 0.0000 0.0000
# 5 0.0000 0.0000 0.0000 0.0000 79.7523 0.0000
# 6 0.0000 0.0000 0.0000 0.0000 0.0000 38.9746
#
#
#
# Elastic Compliance Matrix: (Units=1/GPa)
#
#
# Indices 1 2 3 4 5 6 
#
# 1 0.017916 -0.005454 -0.007330 0.000000 0.000000 0.000000
# 2 -0.005454 0.016109 -0.000897 0.000000 0.000000 0.000000
# 3 -0.007330 -0.000897 0.011636 0.000000 0.000000 0.000000
# 4 0.000000 0.000000 0.000000 0.027891 0.000000 0.000000
# 5 0.000000 0.000000 0.000000 0.000000 0.012539 0.000000
# 6 0.000000 0.000000 0.000000 0.000000 0.000000 0.025658
#
#
# Mechanical properties :
#
#
# Convention : Reuss Voigt Hill
#
# Bulk Modulus (GPa) = 54.65145 59.23335 56.94240
# Shear Modulus (GPa) = 34.43264 42.27869 38.35567
#
# Velocity S-wave (km/s) = 3.96255 4.39087 4.18220
# Velocity P-wave (km/s) = 6.77183 7.26069 7.02052
#
# Compressibility (1/GPa) = 0.01829778
#
# Stress axis : x y z
#
# Youngs Moduli (GPa) = 55.81527 62.07659 85.94247
#
# Poissons Ratio (x) = 0.33858 0.62996
# Poissons Ratio (y) = 0.30443 0.07713
# Poissons Ratio (z) = 0.40912 0.05571
#
# Static dielectric constant tensor:
#      x y z
#    x 1.037470 0.000000 0.000000 
#    y 0.000000 1.899130 0.000000 
#    z 0.000000 0.000000 1.998220 
# 
# From -- ./inp_files/36947.got.cif
#   From: 2010.05.17/outbox.cif.g08.bks.cpg/sg66_19_cif.got.tgz:36947.got - 2010.06.03 17:51:23.
