data_PCOD9497443
_publ_section_title
;
Structure prediction by ZEFSAII (Michael W. Deem and Ramdas Pophale) SiO2 
 PCOD9497443
Probable space group: C C C M
;
_chemical_formula_sum "Si O2"
_cell_formula_units_Z 88
_cell_length_a 12.285888
_cell_length_b 18.227912
_cell_length_c 20.697956
_cell_angle_alpha 90.000000
_cell_angle_beta 90.000000
_cell_angle_gamma 90.000000
_cell_volume 4635.226220
_symmetry_space_group_name_H-M "C C C M"
_symmetry_group_IT_number 66
_symmetry_cell_setting 'orthorhombic'
loop_
_space_group_symop_operation_xyz
x,y,z
-x,-y,z
x,-y,1/2-z
-x,y,1/2-z
-x,-y,-z
x,y,-z
-x,y,1/2+z
x,-y,1/2+z
1/2+x,1/2+y,z
1/2-x,1/2-y,z
1/2+x,1/2-y,1/2-z
1/2-x,1/2+y,1/2-z
1/2-x,1/2-y,-z
1/2+x,1/2+y,-z
1/2-x,1/2+y,1/2+z
1/2+x,1/2-y,1/2+z
loop_
_atom_site_type_symbol
_atom_site_label
_atom_site_fract_x
_atom_site_fract_y
_atom_site_fract_z
Si Si1 0.500000 0.500000 0.132504
Si Si2 0.085988 0.850709 0.573353
Si Si3 0.241542 0.972109 0.179990
Si Si4 0.328239 0.183169 0.287014
Si Si5 0.935826 0.699878 0.150677
Si Si6 0.674324 0.920791 0.926872
O O1 0.480848 0.424091 0.093169
O O2 0.612940 0.488469 0.170835
O O3 0.056836 0.829093 0.500000
O O4 0.075987 0.781324 0.620891
O O5 0.211399 0.876461 0.573672
O O6 0.268828 0.887243 0.184180
O O7 0.277455 0.000000 0.250000
O O8 0.306648 0.013412 0.123413
O O9 0.250000 0.250000 0.300421
O O10 0.352671 0.182932 0.209830
O O11 0.444460 0.192616 0.320335
O O12 0.913750 0.637329 0.097838
O O13 0.653914 0.945873 0.000000
#
# Coordination Sequence:
#
# PCOD9497443 Si02
#       6
#     8  16  16  16  16  16
#     4  10  22  36  64  96 123 161 206 258 315 368
#     4  10  20  37  62  92 129 164 206 256 310 370
#     4  11  22  41  62  91 126 162 205 258 310 373
#     4  11  24  40  60  88 127 160 205 256 313 371
#     4  11  22  38  61  90 121 168 205 255 307 370
#     4  10  21  39  64  93 122 160 210 260 306 364
#
# _framework density 18.985050000000001
#
# number of rings (size 3 to 8) (size 9 to 14) (size 15 to 20)
#    0.000    1.455    1.818    3.818    2.545    2.909 
#    0.000    2.727    0.000    3.818    0.000    0.000 
#    0.000    0.000    0.000    0.000    0.000    0.000 
#
# Total GULP energy -245628.861966 kJ/mol
# GULP energy per Si atom -5582.474136 kJ/mol
# Density = 1.894184 g / cm^3
# Si number density = 18.985050 Si / 1000 Ang^3
#
#
#
# Elastic Constant Matrix: (Units=GPa)
#
#
# Indices 1 2 3 4 5 6 
#
# 1 38.6207 31.7010 25.6096 0.0000 0.0000 0.0000
# 2 31.7010 143.2721 71.4283 0.0000 0.0000 0.0000
# 3 25.6096 71.4283 143.7522 0.0000 0.0000 0.0000
# 4 0.0000 0.0000 0.0000 31.9421 0.0000 0.0000
# 5 0.0000 0.0000 0.0000 0.0000 14.8629 0.0000
# 6 0.0000 0.0000 0.0000 0.0000 0.0000 28.2344
#
#
#
# Elastic Compliance Matrix: (Units=1/GPa)
#
#
# Indices 1 2 3 4 5 6 
#
# 1 0.032555 -0.005732 -0.002952 0.000000 0.000000 0.000000
# 2 -0.005732 0.010287 -0.004090 0.000000 0.000000 0.000000
# 3 -0.002952 -0.004090 0.009515 0.000000 0.000000 0.000000
# 4 0.000000 0.000000 0.000000 0.031307 0.000000 0.000000
# 5 0.000000 0.000000 0.000000 0.000000 0.067281 0.000000
# 6 0.000000 0.000000 0.000000 0.000000 0.000000 0.035418
#
#
# Mechanical properties :
#
#
# Convention : Reuss Voigt Hill
#
# Bulk Modulus (GPa) = 37.30067 64.79143 51.04605
# Shear Modulus (GPa) = 22.64013 28.13497 25.38755
#
# Velocity S-wave (km/s) = 3.45704 3.85379 3.66079
# Velocity P-wave (km/s) = 5.96866 7.34874 6.69436
#
# Compressibility (1/GPa) = 0.02680917
#
# Stress axis : x y z
#
# Youngs Moduli (GPa) = 30.71739 97.20780 105.09990
#
# Poissons Ratio (x) = 0.55716 0.31022
# Poissons Ratio (y) = 0.17606 0.42991
# Poissons Ratio (z) = 0.09067 0.39763
#
# Static dielectric constant tensor:
#      x y z
#    x 1.639710 0.000000 0.000000 
#    y 0.000000 1.717960 0.000000 
#    z 0.000000 0.000000 1.686530 
# 
# From -- ./inp_files/48543.got.cif
#   From: 2010.05.17/outbox.cif.g08.bks.cpg/sg66_25_cif.got.tgz:48543.got - 2010.06.03 17:51:23.
