data_PCOD9497790
_publ_section_title
;
Structure prediction by ZEFSAII (Michael W. Deem and Ramdas Pophale) SiO2 
 PCOD9497790
Probable space group: C C C M
;
_chemical_formula_sum "Si O2"
_cell_formula_units_Z 80
_cell_length_a 26.481088
_cell_length_b 11.865723
_cell_length_c 14.607521
_cell_angle_alpha 90.000000
_cell_angle_beta 90.000000
_cell_angle_gamma 90.000000
_cell_volume 4589.935150
_symmetry_space_group_name_H-M "C C C M"
_symmetry_group_IT_number 66
_symmetry_cell_setting 'orthorhombic'
loop_
_space_group_symop_operation_xyz
x,y,z
-x,-y,z
x,-y,1/2-z
-x,y,1/2-z
-x,-y,-z
x,y,-z
-x,y,1/2+z
x,-y,1/2+z
1/2+x,1/2+y,z
1/2-x,1/2-y,z
1/2+x,1/2-y,1/2-z
1/2-x,1/2+y,1/2-z
1/2-x,1/2-y,-z
1/2+x,1/2+y,-z
1/2-x,1/2+y,1/2+z
1/2+x,1/2-y,1/2+z
loop_
_atom_site_type_symbol
_atom_site_label
_atom_site_fract_x
_atom_site_fract_y
_atom_site_fract_z
Si Si1 0.221271 0.141018 0.155870
Si Si2 0.448045 0.564826 0.000000
Si Si3 0.444753 0.626912 0.790380
Si Si4 0.658339 0.458330 0.500000
Si Si5 0.191793 0.212741 0.500000
Si Si6 0.300527 0.000000 0.750000
Si Si7 0.345003 0.238312 0.699661
O O1 0.250000 0.250000 0.117615
O O2 0.176884 0.105001 0.089677
O O3 0.197088 0.182527 0.251486
O O4 0.261892 0.042521 0.171339
O O5 0.500000 0.500000 0.000000
O O6 0.446272 0.625390 0.098586
O O7 0.400613 0.481198 0.000000
O O8 0.434049 0.500000 0.750000
O O9 0.500000 0.657036 0.750000
O O10 0.398891 0.711813 0.769307
O O11 0.686026 0.578540 0.500000
O O12 0.250000 0.250000 0.500000
O O13 0.163916 0.253565 0.591487
O O14 0.333337 0.890099 0.772407
#
# Coordination Sequence:
#
# PCOD9497790 Si02
#       7
#    16   8  16   8   8   8  16
#     4  10  21  35  54  82 119 158 196 233 287 352
#     4  12  22  37  53  90 113 147 189 246 299 357
#     4  11  22  37  61  85 117 150 192 248 303 348
#     4  12  21  34  58  83 122 149 191 239 290 355
#     4  12  22  33  57  87 115 157 193 233 291 349
#     4  10  22  38  57  80 123 156 198 240 280 356
#     4  11  22  39  58  87 117 160 197 242 295 346
#
# _framework density 17.429441000000001
#
# number of rings (size 3 to 8) (size 9 to 14) (size 15 to 20)
#    0.000    1.000    4.000    5.700    1.400    0.000 
#    0.000    1.500    0.000    0.000    0.000    2.800 
#    0.000    0.000    0.000    0.000    0.000    0.000 
#
# Total GULP energy -223182.173992 kJ/mol
# GULP energy per Si atom -5579.554350 kJ/mol
# Density = 1.738977 g / cm^3
# Si number density = 17.429441 Si / 1000 Ang^3
#
#
#
# Elastic Constant Matrix: (Units=GPa)
#
#
# Indices 1 2 3 4 5 6 
#
# 1 159.5586 63.3256 35.6313 0.0000 0.0000 0.0000
# 2 63.3256 87.7004 29.1603 0.0000 0.0000 0.0000
# 3 35.6313 29.1603 105.4442 0.0000 0.0000 0.0000
# 4 0.0000 0.0000 0.0000 11.9741 0.0000 0.0000
# 5 0.0000 0.0000 0.0000 0.0000 10.0724 0.0000
# 6 0.0000 0.0000 0.0000 0.0000 0.0000 33.8180
#
#
#
# Elastic Compliance Matrix: (Units=1/GPa)
#
#
# Indices 1 2 3 4 5 6 
#
# 1 0.008959 -0.006016 -0.001364 0.000000 0.000000 0.000000
# 2 -0.006016 0.016596 -0.002557 0.000000 0.000000 0.000000
# 3 -0.001364 -0.002557 0.010652 0.000000 0.000000 0.000000
# 4 0.000000 0.000000 0.000000 0.083514 0.000000 0.000000
# 5 0.000000 0.000000 0.000000 0.000000 0.099281 0.000000
# 6 0.000000 0.000000 0.000000 0.000000 0.000000 0.029570
#
#
# Mechanical properties :
#
#
# Convention : Reuss Voigt Hill
#
# Bulk Modulus (GPa) = 61.22045 67.65973 64.44009
# Shear Modulus (GPa) = 18.25551 26.14531 22.20041
#
# Velocity S-wave (km/s) = 3.23986 3.87727 3.57281
# Velocity P-wave (km/s) = 7.01403 7.67775 7.35338
#
# Compressibility (1/GPa) = 0.01633441
#
# Stress axis : x y z
#
# Youngs Moduli (GPa) = 111.61444 60.25388 93.88211
#
# Poissons Ratio (x) = 0.36248 0.12804
# Poissons Ratio (y) = 0.67145 0.24004
# Poissons Ratio (z) = 0.15223 0.15406
#
# Static dielectric constant tensor:
#      x y z
#    x 1.584480 0.000000 0.000000 
#    y 0.000000 1.582160 0.000000 
#    z 0.000000 0.000000 1.749660 
# 
# From -- ./inp_files/33161.got.cif
#   From: 2010.05.17/outbox.cif.g08.bks.cpg/sg66_17_cif.got.tgz:33161.got - 2010.06.03 17:51:23.
