data_PCOD9497557
_publ_section_title
;
Structure prediction by ZEFSAII (Michael W. Deem and Ramdas Pophale) SiO2 
 PCOD9497557
Probable space group: C C C M
;
_chemical_formula_sum "Si O2"
_cell_formula_units_Z 60
_cell_length_a 17.830740
_cell_length_b 16.788564
_cell_length_c 10.186008
_cell_angle_alpha 90.000000
_cell_angle_beta 90.000000
_cell_angle_gamma 90.000000
_cell_volume 3049.207160
_symmetry_space_group_name_H-M "C C C M"
_symmetry_group_IT_number 66
_symmetry_cell_setting 'orthorhombic'
loop_
_space_group_symop_operation_xyz
x,y,z
-x,-y,z
x,-y,1/2-z
-x,y,1/2-z
-x,-y,-z
x,y,-z
-x,y,1/2+z
x,-y,1/2+z
1/2+x,1/2+y,z
1/2-x,1/2-y,z
1/2+x,1/2-y,1/2-z
1/2-x,1/2+y,1/2-z
1/2-x,1/2-y,-z
1/2+x,1/2+y,-z
1/2-x,1/2+y,1/2+z
1/2+x,1/2-y,1/2+z
loop_
_atom_site_type_symbol
_atom_site_label
_atom_site_fract_x
_atom_site_fract_y
_atom_site_fract_z
Si Si1 0.159849 0.754774 0.500000
Si Si2 0.087074 0.326889 0.749005
Si Si3 0.180859 0.306533 0.500000
Si Si4 0.096239 0.064526 0.000000
Si Si5 0.500000 0.500000 0.750000
Si Si6 0.743917 0.986137 0.500000
Si Si7 0.851263 0.500000 0.250000
O O1 0.250000 0.750000 0.500000
O O2 0.127170 0.708291 0.624530
O O3 0.129479 0.845804 0.500000
O O4 0.129457 0.292212 0.624651
O O5 0.098459 0.421990 0.733080
O O6 0.000000 0.307458 0.750000
O O7 0.250000 0.250000 0.500000
O O8 0.217957 0.394216 0.500000
O O9 0.050607 0.048432 0.860930
O O10 0.168235 0.005118 0.000000
O O11 0.703287 0.019448 0.371237
#
# Coordination Sequence:
#
# PCOD9497557 Si02
#       7
#     8  16   8   8   4   8   8
#     4  12  26  42  65  96 133 171 221 274 335 390
#     4  11  23  40  62  95 127 170 208 266 329 389
#     4  10  23  41  62  92 127 168 215 265 323 392
#     4  11  24  45  67  95 130 168 226 273 332 394
#     4  10  26  46  68  96 124 180 218 278 336 388
#     4  10  21  38  65  91 119 170 214 266 313 390
#     4  10  20  38  64  92 130 162 216 254 319 391
#
# _framework density 19.677244999999999
#
# number of rings (size 3 to 8) (size 9 to 14) (size 15 to 20)
#    0.000    1.333    0.000    5.200    1.867    6.400 
#    4.800    5.333    0.000    0.000    0.000    0.000 
#    0.000    0.000    0.000    0.000    0.000    0.000 
#
# Total GULP energy -167395.235612 kJ/mol
# GULP energy per Si atom -5579.841187 kJ/mol
# Density = 1.963246 g / cm^3
# Si number density = 19.677245 Si / 1000 Ang^3
#
#
#
# Elastic Constant Matrix: (Units=GPa)
#
#
# Indices 1 2 3 4 5 6 
#
# 1 192.8666 55.1742 91.5479 0.0000 0.0000 0.0000
# 2 55.1742 54.2489 35.6685 0.0000 0.0000 0.0000
# 3 91.5479 35.6685 194.9793 0.0000 0.0000 0.0000
# 4 0.0000 0.0000 0.0000 30.1035 0.0000 0.0000
# 5 0.0000 0.0000 0.0000 0.0000 31.5636 0.0000
# 6 0.0000 0.0000 0.0000 0.0000 0.0000 26.0372
#
#
#
# Elastic Compliance Matrix: (Units=1/GPa)
#
#
# Indices 1 2 3 4 5 6 
#
# 1 0.008407 -0.006770 -0.002709 0.000000 0.000000 0.000000
# 2 -0.006770 0.026405 -0.001652 0.000000 0.000000 0.000000
# 3 -0.002709 -0.001652 0.006703 0.000000 0.000000 0.000000
# 4 0.000000 0.000000 0.000000 0.033219 0.000000 0.000000
# 5 0.000000 0.000000 0.000000 0.000000 0.031682 0.000000
# 6 0.000000 0.000000 0.000000 0.000000 0.000000 0.038407
#
#
# Mechanical properties :
#
#
# Convention : Reuss Voigt Hill
#
# Bulk Modulus (GPa) = 51.93738 89.65289 70.79514
# Shear Modulus (GPa) = 28.81817 34.85448 31.83633
#
# Velocity S-wave (km/s) = 3.83109 4.21326 4.02671
# Velocity P-wave (km/s) = 6.78392 8.32642 7.59444
#
# Compressibility (1/GPa) = 0.01925395
#
# Stress axis : x y z
#
# Youngs Moduli (GPa) = 118.94147 37.87202 149.18832
#
# Poissons Ratio (x) = 0.25638 0.40417
# Poissons Ratio (y) = 0.80519 0.24643
# Poissons Ratio (z) = 0.32223 0.06256
#
# Static dielectric constant tensor:
#      x y z
#    x 1.651560 0.000000 0.000000 
#    y 0.000000 1.733190 0.000000 
#    z 0.000000 0.000000 1.682380 
# 
# From -- ./inp_files/6061.got.cif
#   From: 2010.05.17/outbox.cif.g08.bks.cpg/sg66_4_cif.got.tgz:6061.got - 2010.06.03 17:51:23.
