data_PCOD9497059
_publ_section_title
;
Structure prediction by ZEFSAII (Michael W. Deem and Ramdas Pophale) SiO2 
 PCOD9497059
Probable space group: C C C M
;
_chemical_formula_sum "Si O2"
_cell_formula_units_Z 64
_cell_length_a 14.648719
_cell_length_b 8.848145
_cell_length_c 21.564154
_cell_angle_alpha 90.000000
_cell_angle_beta 90.000000
_cell_angle_gamma 90.000000
_cell_volume 2795.016036
_symmetry_space_group_name_H-M "C C C M"
_symmetry_group_IT_number 66
_symmetry_cell_setting 'orthorhombic'
loop_
_space_group_symop_operation_xyz
x,y,z
-x,-y,z
x,-y,1/2-z
-x,y,1/2-z
-x,-y,-z
x,y,-z
-x,y,1/2+z
x,-y,1/2+z
1/2+x,1/2+y,z
1/2-x,1/2-y,z
1/2+x,1/2-y,1/2-z
1/2-x,1/2+y,1/2-z
1/2-x,1/2-y,-z
1/2+x,1/2+y,-z
1/2-x,1/2+y,1/2+z
1/2+x,1/2-y,1/2+z
loop_
_atom_site_type_symbol
_atom_site_label
_atom_site_fract_x
_atom_site_fract_y
_atom_site_fract_z
Si Si1 0.893423 0.333069 0.270537
Si Si2 0.219886 0.399684 0.891135
Si Si3 0.072861 0.374876 0.429584
Si Si4 0.160812 0.150590 0.341337
O O1 0.858691 0.500000 0.250000
O O2 0.850834 0.335501 0.338897
O O3 0.858901 0.191490 0.229950
O O4 0.000000 0.335864 0.250000
O O5 0.250000 0.250000 0.926510
O O6 0.165424 0.526359 0.928675
O O7 0.306921 0.485424 0.860702
O O8 0.050716 0.329509 0.500000
O O9 0.084138 0.232281 0.383947
O O10 0.000000 0.500000 0.407392
O O11 0.250000 0.250000 0.354262
#
# Coordination Sequence:
#
# PCOD9497059 Si02
#       4
#    16  16  16  16
#     4  11  20  34  58  84 116 151 191 236 287 348
#     4  11  24  37  58  86 122 153 192 243 291 348
#     4  10  21  40  63  83 108 149 199 243 294 361
#     4  10  20  35  57  86 113 151 194 234 291 344
#
# _framework density 22.8979
#
# number of rings (size 3 to 8) (size 9 to 14) (size 15 to 20)
#    0.000    1.500    5.000    2.250    0.000    5.000 
#    0.000    6.250    0.000    3.000    0.000    0.000 
#    0.000    0.000    0.000    0.000    0.000    0.000 
#
# Total GULP energy -178190.897650 kJ/mol
# GULP energy per Si atom -5568.465552 kJ/mol
# Density = 2.284578 g / cm^3
# Si number density = 22.897900 Si / 1000 Ang^3
#
#
#
# Elastic Constant Matrix: (Units=GPa)
#
#
# Indices 1 2 3 4 5 6 
#
# 1 56.9903 12.6573 23.2083 0.0000 0.0000 0.0000
# 2 12.6573 86.8960 23.2441 0.0000 0.0000 0.0000
# 3 23.2083 23.2441 91.2728 0.0000 0.0000 0.0000
# 4 0.0000 0.0000 0.0000 8.7064 0.0000 0.0000
# 5 0.0000 0.0000 0.0000 0.0000 16.7633 0.0000
# 6 0.0000 0.0000 0.0000 0.0000 0.0000 22.2965
#
#
#
# Elastic Compliance Matrix: (Units=1/GPa)
#
#
# Indices 1 2 3 4 5 6 
#
# 1 0.019791 -0.001649 -0.004613 0.000000 0.000000 0.000000
# 2 -0.001649 0.012487 -0.002761 0.000000 0.000000 0.000000
# 3 -0.004613 -0.002761 0.012832 0.000000 0.000000 0.000000
# 4 0.000000 0.000000 0.000000 0.114858 0.000000 0.000000
# 5 0.000000 0.000000 0.000000 0.000000 0.059654 0.000000
# 6 0.000000 0.000000 0.000000 0.000000 0.000000 0.044850
#
#
# Mechanical properties :
#
#
# Convention : Reuss Voigt Hill
#
# Bulk Modulus (GPa) = 36.94695 39.26430 38.10563
# Shear Modulus (GPa) = 17.15041 21.28987 19.22014
#
# Velocity S-wave (km/s) = 2.73975 3.05253 2.90036
# Velocity P-wave (km/s) = 5.11652 5.44139 5.28145
#
# Compressibility (1/GPa) = 0.02706583
#
# Stress axis : x y z
#
# Youngs Moduli (GPa) = 50.52690 80.08545 77.92988
#
# Poissons Ratio (x) = 0.13206 0.35945
# Poissons Ratio (y) = 0.08332 0.21514
# Poissons Ratio (z) = 0.23306 0.22109
#
# Static dielectric constant tensor:
#      x y z
#    x 1.966550 0.000000 0.000000 
#    y 0.000000 1.857620 0.000000 
#    z 0.000000 0.000000 1.892210 
# 
# From -- ./inp_files/50523.got.cif
#   From: 2010.05.17/outbox.cif.g08.bks.cpg/sg66_26_cif.got.tgz:50523.got - 2010.06.03 17:51:23.
