data_PCOD9497615
_publ_section_title
;
Structure prediction by ZEFSAII (Michael W. Deem and Ramdas Pophale) SiO2 
 PCOD9497615
Probable space group: C C C M
;
_chemical_formula_sum "Si O2"
_cell_formula_units_Z 72
_cell_length_a 8.298758
_cell_length_b 25.466476
_cell_length_c 18.504611
_cell_angle_alpha 90.000000
_cell_angle_beta 90.000000
_cell_angle_gamma 90.000000
_cell_volume 3910.766736
_symmetry_space_group_name_H-M "C C C M"
_symmetry_group_IT_number 66
_symmetry_cell_setting 'orthorhombic'
loop_
_space_group_symop_operation_xyz
x,y,z
-x,-y,z
x,-y,1/2-z
-x,y,1/2-z
-x,-y,-z
x,y,-z
-x,y,1/2+z
x,-y,1/2+z
1/2+x,1/2+y,z
1/2-x,1/2-y,z
1/2+x,1/2-y,1/2-z
1/2-x,1/2+y,1/2-z
1/2-x,1/2-y,-z
1/2+x,1/2+y,-z
1/2-x,1/2+y,1/2+z
1/2+x,1/2-y,1/2+z
loop_
_atom_site_type_symbol
_atom_site_label
_atom_site_fract_x
_atom_site_fract_y
_atom_site_fract_z
Si Si1 0.087608 0.855386 0.896046
Si Si2 0.256490 0.500000 0.250000
Si Si3 0.000000 0.905558 0.750000
Si Si4 0.092550 0.578781 0.500000
Si Si5 0.579334 0.278894 0.500000
Si Si6 0.368144 0.823202 0.000000
Si Si7 0.027676 0.938960 0.500000
Si Si8 0.500000 0.000000 0.374525
O O1 0.063991 0.867328 0.812810
O O2 0.254686 0.834456 0.930136
O O3 0.954383 0.816303 0.930935
O O4 0.057095 0.912028 0.932153
O O5 0.359194 0.552267 0.268214
O O6 0.147855 0.489244 0.320469
O O7 0.285085 0.575824 0.500000
O O8 0.033098 0.548115 0.571404
O O9 0.015160 0.635968 0.500000
O O10 0.750000 0.250000 0.500000
O O11 0.441704 0.234453 0.500000
O O12 0.000000 0.000000 0.500000
#
# Coordination Sequence:
#
# PCOD9497615 Si02
#       8
#    16   8   8   8   8   8   8   8
#     4  10  22  37  57  88 114 152 198 237 294 347
#     4  10  22  36  50  76 118 166 186 230 284 344
#     4  11  22  36  58  78 120 158 196 227 292 348
#     4  11  21  32  58  84 113 148 198 243 286 337
#     4  10  21  42  66  85 114 147 191 251 304 346
#     4  10  20  39  64  87 114 149 191 253 299 340
#     4  10  22  33  56  82 119 149 200 242 280 338
#     4  10  22  34  50  82 118 150 200 234 282 342
#
# _framework density 18.410710999999999
#
# number of rings (size 3 to 8) (size 9 to 14) (size 15 to 20)
#    0.000    2.000    0.000    5.333   12.444    0.000 
#    0.000    2.222    0.000    2.667    0.000    0.000 
#    0.000    0.000    0.000    0.000    0.000    0.000 
#
# Total GULP energy -200862.739105 kJ/mol
# GULP energy per Si atom -5579.520531 kJ/mol
# Density = 1.836881 g / cm^3
# Si number density = 18.410711 Si / 1000 Ang^3
#
#
#
# Elastic Constant Matrix: (Units=GPa)
#
#
# Indices 1 2 3 4 5 6 
#
# 1 91.6662 30.0329 23.4551 0.0000 0.0000 0.0000
# 2 30.0329 114.0896 24.9663 0.0000 0.0000 0.0000
# 3 23.4551 24.9663 104.0226 0.0000 0.0000 0.0000
# 4 0.0000 0.0000 0.0000 -2.7683 0.0000 0.0000
# 5 0.0000 0.0000 0.0000 0.0000 3.3844 0.0000
# 6 0.0000 0.0000 0.0000 0.0000 0.0000 37.8738
#
#
#
# Elastic Compliance Matrix: (Units=1/GPa)
#
#
# Indices 1 2 3 4 5 6 
#
# 1 0.012366 -0.002792 -0.002118 0.000000 0.000000 0.000000
# 2 -0.002792 0.009881 -0.001742 0.000000 0.000000 0.000000
# 3 -0.002118 -0.001742 0.010509 0.000000 0.000000 0.000000
# 4 0.000000 0.000000 0.000000 -0.361231 0.000000 0.000000
# 5 0.000000 0.000000 0.000000 0.000000 0.295478 0.000000
# 6 0.000000 0.000000 0.000000 0.000000 0.000000 0.026404
#
#
# Mechanical properties :
#
#
# Convention : Reuss Voigt Hill
#
# Bulk Modulus (GPa) = 51.40852 51.85412 51.63132
# Shear Modulus (GPa) = 378.96924 23.11957 201.04440
#
# Velocity S-wave (km/s) = 14.36275 3.54753 10.46120
# Velocity P-wave (km/s) = 17.40791 6.70867 13.19169
#
# Compressibility (1/GPa) = 0.01945203
#
# Stress axis : x y z
#
# Youngs Moduli (GPa) = 80.86833 101.20297 95.15626
#
# Poissons Ratio (x) = 0.28252 0.20156
# Poissons Ratio (y) = 0.22575 0.16577
# Poissons Ratio (z) = 0.17130 0.17631
#
# Static dielectric constant tensor:
#      x y z
#    x 1.679710 0.000000 0.000000 
#    y 0.000000 1.621110 0.000000 
#    z 0.000000 0.000000 1.763160 
# 
# From -- ./inp_files/36813.got.cif
#   From: 2010.05.17/outbox.cif.g08.bks.cpg/sg66_19_cif.got.tgz:36813.got - 2010.06.03 17:51:23.
