data_PCOD9497113
_publ_section_title
;
Structure prediction by ZEFSAII (Michael W. Deem and Ramdas Pophale) SiO2 
 PCOD9497113
Probable space group: C C C M
;
_chemical_formula_sum "Si O2"
_cell_formula_units_Z 116
_cell_length_a 23.039260
_cell_length_b 26.433910
_cell_length_c 9.547614
_cell_angle_alpha 90.000000
_cell_angle_beta 90.000000
_cell_angle_gamma 90.000000
_cell_volume 5814.666160
_symmetry_space_group_name_H-M "C C C M"
_symmetry_group_IT_number 66
_symmetry_cell_setting 'orthorhombic'
loop_
_space_group_symop_operation_xyz
x,y,z
-x,-y,z
x,-y,1/2-z
-x,y,1/2-z
-x,-y,-z
x,y,-z
-x,y,1/2+z
x,-y,1/2+z
1/2+x,1/2+y,z
1/2-x,1/2-y,z
1/2+x,1/2-y,1/2-z
1/2-x,1/2+y,1/2-z
1/2-x,1/2-y,-z
1/2+x,1/2+y,-z
1/2-x,1/2+y,1/2+z
1/2+x,1/2-y,1/2+z
loop_
_atom_site_type_symbol
_atom_site_label
_atom_site_fract_x
_atom_site_fract_y
_atom_site_fract_z
Si Si1 0.276942 0.912206 0.336713
Si Si2 0.000000 0.500000 0.250000
Si Si3 0.945989 0.880892 0.335170
Si Si4 0.166503 0.049902 0.333803
Si Si5 0.058753 0.681980 0.831071
Si Si6 0.908762 0.583091 0.160682
Si Si7 0.773546 0.806745 0.155633
Si Si8 0.117636 0.784674 0.833192
O O1 0.263203 0.923944 0.500000
O O2 0.227167 0.932710 0.235328
O O3 0.341902 0.931821 0.309422
O O4 0.273341 0.850950 0.321174
O O5 0.955534 0.537989 0.171533
O O6 0.959249 0.882375 0.500000
O O7 0.885690 0.910426 0.313874
O O8 0.933419 0.822956 0.291352
O O9 0.000000 0.902045 0.250000
O O10 0.173711 0.041640 0.500000
O O11 0.149183 0.000000 0.250000
O O12 0.075956 0.627584 0.768818
O O13 0.104275 0.726633 0.797071
O O14 0.000000 0.695957 0.750000
O O15 0.051376 0.679797 0.000000
O O16 0.909897 0.602539 0.000000
O O17 0.750000 0.750000 0.157149
O O18 0.824214 0.806448 0.267266
O O19 0.798181 0.816464 0.000000
O O20 0.122550 0.787502 0.000000
#
# Coordination Sequence:
#
# PCOD9497113 Si02
#       8
#    16   4  16  16  16  16  16  16
#     4  10  22  41  65  96 130 169 215 266 326 393
#     4  12  26  44  72 102 130 168 224 276 332 384
#     4  10  22  40  63  92 128 168 213 262 317 377
#     4  11  24  43  66  93 128 168 215 271 325 388
#     4  11  23  39  62  91 127 169 215 265 323 390
#     4  11  25  45  68  94 130 168 213 273 331 394
#     4  10  20  35  59  92 129 168 210 257 317 384
#     4  10  21  38  59  90 129 168 213 262 315 380
#
# _framework density 19.949555
#
# number of rings (size 3 to 8) (size 9 to 14) (size 15 to 20)
#    0.000    1.517    2.069    2.276    0.966    5.517 
#    0.000    1.379    0.000    0.000    0.000    0.000 
#    0.000    0.000    0.000    0.000    0.000    0.000 
#
# Total GULP energy -323662.262150 kJ/mol
# GULP energy per Si atom -5580.383830 kJ/mol
# Density = 1.990415 g / cm^3
# Si number density = 19.949555 Si / 1000 Ang^3
#
#
#
# Elastic Constant Matrix: (Units=GPa)
#
#
# Indices 1 2 3 4 5 6 
#
# 1 117.8322 30.1003 53.8555 0.0000 0.0000 0.0000
# 2 30.1003 92.4290 43.3209 0.0000 0.0000 0.0000
# 3 53.8555 43.3209 70.3115 0.0000 0.0000 0.0000
# 4 0.0000 0.0000 0.0000 25.3773 0.0000 0.0000
# 5 0.0000 0.0000 0.0000 0.0000 31.9853 0.0000
# 6 0.0000 0.0000 0.0000 0.0000 0.0000 27.2641
#
#
#
# Elastic Compliance Matrix: (Units=1/GPa)
#
#
# Indices 1 2 3 4 5 6 
#
# 1 0.013083 0.000613 -0.010399 0.000000 0.000000 0.000000
# 2 0.000613 0.015241 -0.009860 0.000000 0.000000 0.000000
# 3 -0.010399 -0.009860 0.028262 0.000000 0.000000 0.000000
# 4 0.000000 0.000000 0.000000 0.039405 0.000000 0.000000
# 5 0.000000 0.000000 0.000000 0.000000 0.031264 0.000000
# 6 0.000000 0.000000 0.000000 0.000000 0.000000 0.036678
#
#
# Mechanical properties :
#
#
# Convention : Reuss Voigt Hill
#
# Bulk Modulus (GPa) = 57.81990 59.45845 58.63917
# Shear Modulus (GPa) = 23.92468 27.14509 25.53488
#
# Velocity S-wave (km/s) = 3.46679 3.69275 3.58155
# Velocity P-wave (km/s) = 6.71348 6.93188 6.82355
#
# Compressibility (1/GPa) = 0.01729508
#
# Stress axis : x y z
#
# Youngs Moduli (GPa) = 76.43675 65.61383 35.38283
#
# Poissons Ratio (x) = -0.04024 0.36793
# Poissons Ratio (y) = -0.04688 0.34887
# Poissons Ratio (z) = 0.79484 0.64695
#
# Static dielectric constant tensor:
#      x y z
#    x 1.696590 0.000000 0.000000 
#    y 0.000000 1.740770 0.000000 
#    z 0.000000 0.000000 1.686440 
# 
# From -- ./inp_files/9467.got.cif
#   From: 2010.05.17/outbox.cif.g08.bks.cpg/sg66_5_cif.got.tgz:9467.got - 2010.06.03 17:51:23.
