data_PCOD9497933
_publ_section_title
;
Structure prediction by ZEFSAII (Michael W. Deem and Ramdas Pophale) SiO2 
 PCOD9497933
Probable space group: C C C M
;
_chemical_formula_sum "Si O2"
_cell_formula_units_Z 80
_cell_length_a 9.925023
_cell_length_b 16.761997
_cell_length_c 24.077253
_cell_angle_alpha 90.000000
_cell_angle_beta 90.000000
_cell_angle_gamma 90.000000
_cell_volume 4005.568995
_symmetry_space_group_name_H-M "C C C M"
_symmetry_group_IT_number 66
_symmetry_cell_setting 'orthorhombic'
loop_
_space_group_symop_operation_xyz
x,y,z
-x,-y,z
x,-y,1/2-z
-x,y,1/2-z
-x,-y,-z
x,y,-z
-x,y,1/2+z
x,-y,1/2+z
1/2+x,1/2+y,z
1/2-x,1/2-y,z
1/2+x,1/2-y,1/2-z
1/2-x,1/2+y,1/2-z
1/2-x,1/2-y,-z
1/2+x,1/2+y,-z
1/2-x,1/2+y,1/2+z
1/2+x,1/2-y,1/2+z
loop_
_atom_site_type_symbol
_atom_site_label
_atom_site_fract_x
_atom_site_fract_y
_atom_site_fract_z
Si Si1 0.702060 0.838081 0.066534
Si Si2 0.426153 0.584945 0.634198
Si Si3 0.799041 0.839412 0.634200
Si Si4 0.650502 0.319483 0.260557
Si Si5 0.570547 0.085786 0.065350
O O1 0.750000 0.750000 0.082867
O O2 0.802337 0.902815 0.092818
O O3 0.547655 0.853061 0.082431
O O4 0.708741 0.845109 0.000000
O O5 0.500000 0.500000 0.635549
O O6 0.546408 0.645653 0.617829
O O7 0.370657 0.611603 0.694370
O O8 0.750000 0.750000 0.621816
O O9 0.795976 0.849638 0.701054
O O10 0.700315 0.899360 0.602664
O O11 0.500000 0.285637 0.250000
O O12 0.750000 0.250000 0.280406
O O13 0.500000 0.000000 0.071224
O O14 0.603743 0.096636 0.000000
#
# Coordination Sequence:
#
# PCOD9497933 Si02
#       5
#    16  16  16  16  16
#     4  10  21  37  58  85 117 154 195 237 283 338
#     4  11  22  36  58  85 116 149 187 237 289 340
#     4  10  21  37  57  81 109 146 190 230 276 337
#     4   9  20  37  57  81 110 146 188 233 283 338
#     4  10  21  38  58  82 115 149 183 229 283 334
#
# _framework density 19.972193999999998
#
# number of rings (size 3 to 8) (size 9 to 14) (size 15 to 20)
#    0.000    2.000    0.000    3.000    0.000    8.400 
#    0.000    0.000    0.000    1.200    0.000    0.000 
#    0.000    0.000    0.000    0.000    0.000    0.000 
#
# Total GULP energy -223385.286709 kJ/mol
# GULP energy per Si atom -5584.632168 kJ/mol
# Density = 1.992674 g / cm^3
# Si number density = 19.972194 Si / 1000 Ang^3
#
#
#
# Elastic Constant Matrix: (Units=GPa)
#
#
# Indices 1 2 3 4 5 6 
#
# 1 89.3796 20.6069 56.5717 0.0000 0.0000 0.0000
# 2 20.6069 66.6107 18.1883 0.0000 0.0000 0.0000
# 3 56.5717 18.1883 57.8555 0.0000 0.0000 0.0000
# 4 0.0000 0.0000 0.0000 13.6407 0.0000 0.0000
# 5 0.0000 0.0000 0.0000 0.0000 33.7009 0.0000
# 6 0.0000 0.0000 0.0000 0.0000 0.0000 36.9579
#
#
#
# Elastic Compliance Matrix: (Units=1/GPa)
#
#
# Indices 1 2 3 4 5 6 
#
# 1 0.029470 -0.001366 -0.028387 0.000000 0.000000 0.000000
# 2 -0.001366 0.016486 -0.003847 0.000000 0.000000 0.000000
# 3 -0.028387 -0.003847 0.046251 0.000000 0.000000 0.000000
# 4 0.000000 0.000000 0.000000 0.073310 0.000000 0.000000
# 5 0.000000 0.000000 0.000000 0.000000 0.029673 0.000000
# 6 0.000000 0.000000 0.000000 0.000000 0.000000 0.027058
#
#
# Mechanical properties :
#
#
# Convention : Reuss Voigt Hill
#
# Bulk Modulus (GPa) = 39.98884 44.95330 42.47107
# Shear Modulus (GPa) = 16.79072 24.75850 20.77461
#
# Velocity S-wave (km/s) = 2.90264 3.52468 3.22868
# Velocity P-wave (km/s) = 5.59459 6.25470 5.93383
#
# Compressibility (1/GPa) = 0.02500698
#
# Stress axis : x y z
#
# Youngs Moduli (GPa) = 33.93235 60.65895 21.62111
#
# Poissons Ratio (x) = 0.08285 0.61376
# Poissons Ratio (y) = 0.04635 0.08318
# Poissons Ratio (z) = 0.96324 0.23336
#
# Static dielectric constant tensor:
#      x y z
#    x 1.689430 0.000000 0.000000 
#    y 0.000000 1.736130 0.000000 
#    z 0.000000 0.000000 1.695700 
# 
# From -- ./inp_files/62391.got.cif
#   From: 2010.05.17/outbox.cif.g08.bks.cpg/sg66_32_cif.got.tgz:62391.got - 2010.06.03 17:51:23.
