data_PCOD9497714
_publ_section_title
;
Structure prediction by ZEFSAII (Michael W. Deem and Ramdas Pophale) SiO2 
 PCOD9497714
Probable space group: C C C M
;
_chemical_formula_sum "Si O2"
_cell_formula_units_Z 96
_cell_length_a 19.758649
_cell_length_b 13.957481
_cell_length_c 15.333667
_cell_angle_alpha 90.000000
_cell_angle_beta 90.000000
_cell_angle_gamma 90.000000
_cell_volume 4228.733528
_symmetry_space_group_name_H-M "C C C M"
_symmetry_group_IT_number 66
_symmetry_cell_setting 'orthorhombic'
loop_
_space_group_symop_operation_xyz
x,y,z
-x,-y,z
x,-y,1/2-z
-x,y,1/2-z
-x,-y,-z
x,y,-z
-x,y,1/2+z
x,-y,1/2+z
1/2+x,1/2+y,z
1/2-x,1/2-y,z
1/2+x,1/2-y,1/2-z
1/2-x,1/2+y,1/2-z
1/2-x,1/2-y,-z
1/2+x,1/2+y,-z
1/2-x,1/2+y,1/2+z
1/2+x,1/2-y,1/2+z
loop_
_atom_site_type_symbol
_atom_site_label
_atom_site_fract_x
_atom_site_fract_y
_atom_site_fract_z
Si Si1 0.220422 0.394278 0.500000
Si Si2 0.026700 0.601150 0.605232
Si Si3 0.367182 0.707524 0.000000
Si Si4 0.885404 0.891344 0.899440
Si Si5 0.021001 0.187454 0.351587
Si Si6 0.257657 0.529962 0.344800
Si Si7 0.165410 0.686002 0.604250
O O1 0.294018 0.343223 0.500000
O O2 0.157594 0.319838 0.500000
O O3 0.223091 0.462563 0.416057
O O4 0.018503 0.604653 0.500000
O O5 0.105901 0.611253 0.624079
O O6 0.000000 0.500000 0.637571
O O7 0.993362 0.698546 0.639174
O O8 0.410837 0.680416 0.087564
O O9 0.839431 0.969404 0.852221
O O10 0.862570 0.787121 0.863337
O O11 0.965773 0.882266 0.896821
O O12 0.864169 0.899968 0.000000
O O13 0.000000 0.166504 0.250000
O O14 0.236600 0.500000 0.250000
O O15 0.232913 0.638315 0.361747
O O16 0.171542 0.694946 0.500000
#
# Coordination Sequence:
#
# PCOD9497714 Si02
#       7
#     8  16   8  16  16  16  16
#     4  11  28  47  69  99 140 194 223 287 354 421
#     4   9  18  33  58  91 126 168 215 265 329 410
#     4  11  26  51  69  94 146 187 231 277 362 428
#     4  10  20  43  69  97 128 172 228 288 340 398
#     4  11  23  40  71  98 129 177 228 286 346 412
#     4  12  25  41  66  99 137 179 236 282 338 418
#     4   9  18  36  63  92 125 168 215 272 342 390
#
# _framework density 22.701833000000001
#
# number of rings (size 3 to 8) (size 9 to 14) (size 15 to 20)
#    0.000    1.667    3.333    1.500    4.667    4.333 
#    3.000    1.667    0.000    0.000    0.000    0.000 
#    0.000    0.000    0.000    0.000    0.000    0.000 
#
# Total GULP energy -267533.174803 kJ/mol
# GULP energy per Si atom -5573.607808 kJ/mol
# Density = 2.265016 g / cm^3
# Si number density = 22.701833 Si / 1000 Ang^3
#
#
#
# Elastic Constant Matrix: (Units=GPa)
#
#
# Indices 1 2 3 4 5 6 
#
# 1 100.2554 5.6195 25.1637 0.0000 0.0000 0.0000
# 2 5.6195 35.9565 19.4447 0.0000 0.0000 0.0000
# 3 25.1637 19.4447 107.1034 0.0000 0.0000 0.0000
# 4 0.0000 0.0000 0.0000 -5.6313 0.0000 0.0000
# 5 0.0000 0.0000 0.0000 0.0000 3.9235 0.0000
# 6 0.0000 0.0000 0.0000 0.0000 0.0000 33.5061
#
#
#
# Elastic Compliance Matrix: (Units=1/GPa)
#
#
# Indices 1 2 3 4 5 6 
#
# 1 0.010603 -0.000344 -0.002429 0.000000 0.000000 0.000000
# 2 -0.000344 0.030850 -0.005520 0.000000 0.000000 0.000000
# 3 -0.002429 -0.005520 0.010910 0.000000 0.000000 0.000000
# 4 0.000000 0.000000 0.000000 -0.177578 0.000000 0.000000
# 5 0.000000 0.000000 0.000000 0.000000 0.254873 0.000000
# 6 0.000000 0.000000 0.000000 0.000000 0.000000 0.029845
#
#
# Mechanical properties :
#
#
# Convention : Reuss Voigt Hill
#
# Bulk Modulus (GPa) = 27.95015 38.19679 33.07347
# Shear Modulus (GPa) = 26.59362 19.23215 22.91289
#
# Velocity S-wave (km/s) = 3.42633 2.91376 3.18039
# Velocity P-wave (km/s) = 5.29070 5.30867 5.29969
#
# Compressibility (1/GPa) = 0.03577799
#
# Stress axis : x y z
#
# Youngs Moduli (GPa) = 94.30922 32.41457 91.66226
#
# Poissons Ratio (x) = 0.01114 0.22263
# Poissons Ratio (y) = 0.03241 0.50599
# Poissons Ratio (z) = 0.22906 0.17893
#
# Static dielectric constant tensor:
#      x y z
#    x 1.919160 0.000000 0.000000 
#    y 0.000000 1.899790 0.000000 
#    z 0.000000 0.000000 1.814580 
# 
# From -- ./inp_files/31234.got.cif
#   From: 2010.05.17/outbox.cif.g08.bks.cpg/sg66_16_cif.got.tgz:31234.got - 2010.06.03 17:51:23.
