data_PCOD9497695
_publ_section_title
;
Structure prediction by ZEFSAII (Michael W. Deem and Ramdas Pophale) SiO2 
 PCOD9497695
Probable space group: C C C M
;
_chemical_formula_sum "Si O2"
_cell_formula_units_Z 60
_cell_length_a 5.110350
_cell_length_b 26.237420
_cell_length_c 22.266888
_cell_angle_alpha 90.000000
_cell_angle_beta 90.000000
_cell_angle_gamma 90.000000
_cell_volume 2985.597768
_symmetry_space_group_name_H-M "C C C M"
_symmetry_group_IT_number 66
_symmetry_cell_setting 'orthorhombic'
loop_
_space_group_symop_operation_xyz
x,y,z
-x,-y,z
x,-y,1/2-z
-x,y,1/2-z
-x,-y,-z
x,y,-z
-x,y,1/2+z
x,-y,1/2+z
1/2+x,1/2+y,z
1/2-x,1/2-y,z
1/2+x,1/2-y,1/2-z
1/2-x,1/2+y,1/2-z
1/2-x,1/2-y,-z
1/2+x,1/2+y,-z
1/2-x,1/2+y,1/2+z
1/2+x,1/2-y,1/2+z
loop_
_atom_site_type_symbol
_atom_site_label
_atom_site_fract_x
_atom_site_fract_y
_atom_site_fract_z
Si Si1 0.500000 0.000000 0.750000
Si Si2 0.739438 0.967454 0.632689
Si Si3 0.145509 0.307766 0.120670
Si Si4 0.500000 0.785368 0.750000
Si Si5 0.655201 0.639325 0.570948
O O1 0.671547 0.966501 0.704017
O O2 0.761264 0.912541 0.603733
O O3 0.500000 0.000000 0.605723
O O4 0.000000 0.000000 0.624409
O O5 0.250000 0.250000 0.114962
O O6 0.082322 0.315991 0.191055
O O7 0.377876 0.343061 0.097232
O O8 0.879735 0.319192 0.085186
O O9 0.750000 0.750000 0.733634
O O10 0.633928 0.631776 0.500000
#
# Coordination Sequence:
#
# PCOD9497695 Si02
#       5
#     4  16  16   8  16
#     4   8  22  42  68  96 130 156 214 270 356 396
#     4  10  22  43  65  93 129 162 213 277 333 395
#     4  11  24  44  66  96 135 175 220 275 322 378
#     4  10  20  41  66  92 125 166 221 272 331 380
#     4  12  26  42  65  99 131 180 228 256 322 394
#
# _framework density 20.096477
#
# number of rings (size 3 to 8) (size 9 to 14) (size 15 to 20)
#    0.800    0.533    0.000    6.800    0.000    5.333 
#    4.800    0.000    0.000    0.000    0.000    0.000 
#    0.000    0.000    0.000    0.000    0.000    0.000 
#
# Total GULP energy -167589.844961 kJ/mol
# GULP energy per Si atom -5586.328165 kJ/mol
# Density = 2.005074 g / cm^3
# Si number density = 20.096477 Si / 1000 Ang^3
#
#
#
# Elastic Constant Matrix: (Units=GPa)
#
#
# Indices 1 2 3 4 5 6 
#
# 1 137.2324 15.1183 51.9529 0.0000 0.0000 0.0000
# 2 15.1183 59.4853 60.0285 0.0000 0.0000 0.0000
# 3 51.9529 60.0285 170.6933 0.0000 0.0000 0.0000
# 4 0.0000 0.0000 0.0000 63.7811 0.0000 0.0000
# 5 0.0000 0.0000 0.0000 0.0000 36.8640 0.0000
# 6 0.0000 0.0000 0.0000 0.0000 0.0000 27.4190
#
#
#
# Elastic Compliance Matrix: (Units=1/GPa)
#
#
# Indices 1 2 3 4 5 6 
#
# 1 0.008253 0.000678 -0.002750 0.000000 0.000000 0.000000
# 2 0.000678 0.026114 -0.009390 0.000000 0.000000 0.000000
# 3 -0.002750 -0.009390 0.009998 0.000000 0.000000 0.000000
# 4 0.000000 0.000000 0.000000 0.015679 0.000000 0.000000
# 5 0.000000 0.000000 0.000000 0.000000 0.027127 0.000000
# 6 0.000000 0.000000 0.000000 0.000000 0.000000 0.036471
#
#
# Mechanical properties :
#
#
# Convention : Reuss Voigt Hill
#
# Bulk Modulus (GPa) = 46.64067 69.06784 57.85426
# Shear Modulus (GPa) = 32.52785 41.63358 37.08071
#
# Velocity S-wave (km/s) = 4.02753 4.55651 4.30016
# Velocity P-wave (km/s) = 6.69976 7.88195 7.31478
#
# Compressibility (1/GPa) = 0.02144052
#
# Stress axis : x y z
#
# Youngs Moduli (GPa) = 121.16087 38.29293 100.02109
#
# Poissons Ratio (x) = -0.02596 0.27511
# Poissons Ratio (y) = -0.08214 0.93921
# Poissons Ratio (z) = 0.33325 0.35958
#
# Static dielectric constant tensor:
#      x y z
#    x 1.696970 0.000000 0.000000 
#    y 0.000000 1.693020 0.000000 
#    z 0.000000 0.000000 1.704940 
# 
# From -- ./inp_files/45567.got.cif
#   From: 2010.05.17/outbox.cif.g08.bks.cpg/sg66_23_cif.got.tgz:45567.got - 2010.06.03 17:51:23.
