data_PCOD9497732
_publ_section_title
;
Structure prediction by ZEFSAII (Michael W. Deem and Ramdas Pophale) SiO2 
 PCOD9497732
Probable space group: C C C M
;
_chemical_formula_sum "Si O2"
_cell_formula_units_Z 72
_cell_length_a 5.447101
_cell_length_b 21.655491
_cell_length_c 30.446375
_cell_angle_alpha 90.000000
_cell_angle_beta 90.000000
_cell_angle_gamma 90.000000
_cell_volume 3591.443638
_symmetry_space_group_name_H-M "C C C M"
_symmetry_group_IT_number 66
_symmetry_cell_setting 'orthorhombic'
loop_
_space_group_symop_operation_xyz
x,y,z
-x,-y,z
x,-y,1/2-z
-x,y,1/2-z
-x,-y,-z
x,y,-z
-x,y,1/2+z
x,-y,1/2+z
1/2+x,1/2+y,z
1/2-x,1/2-y,z
1/2+x,1/2-y,1/2-z
1/2-x,1/2+y,1/2-z
1/2-x,1/2-y,-z
1/2+x,1/2+y,-z
1/2-x,1/2+y,1/2+z
1/2+x,1/2-y,1/2+z
loop_
_atom_site_type_symbol
_atom_site_label
_atom_site_fract_x
_atom_site_fract_y
_atom_site_fract_z
Si Si1 0.750740 0.970629 0.552135
Si Si2 0.543766 0.648287 0.950988
Si Si3 0.750000 0.250000 0.087277
Si Si4 0.248895 0.325387 0.225451
Si Si5 0.356176 0.820148 0.627845
O O1 0.747589 0.985760 0.500000
O O2 0.813885 0.898184 0.554442
O O3 0.500000 0.000000 0.570250
O O4 0.000000 0.000000 0.571069
O O5 0.444400 0.717365 0.944275
O O6 0.742056 0.641939 0.912433
O O7 0.644689 0.638313 0.000000
O O8 0.639459 0.196566 0.118504
O O9 0.500000 0.344382 0.250000
O O10 0.250000 0.250000 0.225119
O O11 0.219240 0.345994 0.174928
O O12 0.000000 0.344489 0.250000
O O13 0.250000 0.750000 0.627344
#
# Coordination Sequence:
#
# PCOD9497732 Si02
#       5
#    16  16   8  16  16
#     4   9  19  35  54  74  97 133 183 232 272 307
#     4  10  21  34  51  73 106 148 187 225 270 324
#     4  10  21  32  50  74 108 150 182 220 263 328
#     4   9  18  29  49  69  95 134 177 217 266 316
#     4   9  20  32  47  70 105 140 184 221 265 325
#
# _framework density 20.047647000000001
#
# number of rings (size 3 to 8) (size 9 to 14) (size 15 to 20)
#    0.000    2.667    0.000    0.333   14.000    4.889 
#    0.000    0.000    0.000    0.000    0.000    0.000 
#    0.000    0.889    2.667    0.000    0.000    0.000 
#
# Total GULP energy -200402.787784 kJ/mol
# GULP energy per Si atom -5566.744105 kJ/mol
# Density = 2.000202 g / cm^3
# Si number density = 20.047647 Si / 1000 Ang^3
#
#
#
# Elastic Constant Matrix: (Units=GPa)
#
#
# Indices 1 2 3 4 5 6 
#
# 1 137.1825 16.4469 77.1258 0.0000 0.0000 0.0000
# 2 16.4469 25.7713 22.9908 0.0000 0.0000 0.0000
# 3 77.1258 22.9908 163.6229 0.0000 0.0000 0.0000
# 4 0.0000 0.0000 0.0000 -0.5058 0.0000 0.0000
# 5 0.0000 0.0000 0.0000 0.0000 19.2836 0.0000
# 6 0.0000 0.0000 0.0000 0.0000 0.0000 23.4361
#
#
#
# Elastic Compliance Matrix: (Units=1/GPa)
#
#
# Indices 1 2 3 4 5 6 
#
# 1 0.010057 -0.002503 -0.004389 0.000000 0.000000 0.000000
# 2 -0.002503 0.044987 -0.005141 0.000000 0.000000 0.000000
# 3 -0.004389 -0.005141 0.008903 0.000000 0.000000 0.000000
# 4 0.000000 0.000000 0.000000 -1.976967 0.000000 0.000000
# 5 0.000000 0.000000 0.000000 0.000000 0.051858 0.000000
# 6 0.000000 0.000000 0.000000 0.000000 0.000000 0.042669
#
#
# Mechanical properties :
#
#
# Convention : Reuss Voigt Hill
#
# Bulk Modulus (GPa) = 25.07502 62.18930 43.63216
# Shear Modulus (GPa) = -2.80720 22.44364 9.81822
#
# Velocity S-wave (km/s) = -1.18461 3.34955 2.21542
# Velocity P-wave (km/s) = 3.26555 6.78582 5.32500
#
# Compressibility (1/GPa) = 0.03988033
#
# Stress axis : x y z
#
# Youngs Moduli (GPa) = 99.43211 22.22876 112.32465
#
# Poissons Ratio (x) = 0.05564 0.49298
# Poissons Ratio (y) = 0.24888 0.57749
# Poissons Ratio (z) = 0.43639 0.11428
#
# Static dielectric constant tensor:
#      x y z
#    x 1.872050 0.000000 0.000000 
#    y 0.000000 1.752150 0.000000 
#    z 0.000000 0.000000 1.711010 
# 
# From -- ./inp_files/61438.got.cif
#   From: 2010.05.17/outbox.cif.g08.bks.cpg/sg66_31_cif.got.tgz:61438.got - 2010.06.03 17:51:23.
