data_PCOD9497000
_publ_section_title
;
Structure prediction by ZEFSAII (Michael W. Deem and Ramdas Pophale) SiO2 
 PCOD9497000
Probable space group: C C C M
;
_chemical_formula_sum "Si O2"
_cell_formula_units_Z 96
_cell_length_a 28.385601
_cell_length_b 21.068216
_cell_length_c 7.991254
_cell_angle_alpha 90.000000
_cell_angle_beta 90.000000
_cell_angle_gamma 90.000000
_cell_volume 4779.041380
_symmetry_space_group_name_H-M "C C C M"
_symmetry_group_IT_number 66
_symmetry_cell_setting 'orthorhombic'
loop_
_space_group_symop_operation_xyz
x,y,z
-x,-y,z
x,-y,1/2-z
-x,y,1/2-z
-x,-y,-z
x,y,-z
-x,y,1/2+z
x,-y,1/2+z
1/2+x,1/2+y,z
1/2-x,1/2-y,z
1/2+x,1/2-y,1/2-z
1/2-x,1/2+y,1/2-z
1/2-x,1/2-y,-z
1/2+x,1/2+y,-z
1/2-x,1/2+y,1/2+z
1/2+x,1/2-y,1/2+z
loop_
_atom_site_type_symbol
_atom_site_label
_atom_site_fract_x
_atom_site_fract_y
_atom_site_fract_z
Si Si1 0.946762 0.299951 0.702161
Si Si2 0.901429 0.429697 0.298433
Si Si3 0.726228 0.683643 0.795006
Si Si4 0.793150 0.570376 0.201566
Si Si5 0.446106 0.427592 0.698095
Si Si6 0.619298 0.686750 0.801145
O O1 0.944268 0.300153 0.500000
O O2 0.931981 0.370197 0.761983
O O3 0.910374 0.246671 0.765601
O O4 0.000000 0.284316 0.750000
O O5 0.918156 0.500000 0.250000
O O6 0.900627 0.427304 0.500000
O O7 0.847207 0.422174 0.238415
O O8 0.750000 0.750000 0.747486
O O9 0.758308 0.625029 0.737306
O O10 0.672367 0.680965 0.735146
O O11 0.725840 0.681387 0.000000
O O12 0.777046 0.500000 0.250000
O O13 0.794642 0.574305 0.000000
O O14 0.435721 0.500000 0.750000
O O15 0.500000 0.413765 0.750000
O O16 0.443079 0.423043 0.500000
O O17 0.410605 0.376789 0.774312
O O18 0.623872 0.697239 0.000000
#
# Coordination Sequence:
#
# PCOD9497000 Si02
#       6
#    16  16  16  16  16  16
#     4  10  21  35  52  74 102 135 172 214 259 309
#     4   9  18  33  52  75 102 134 171 212 258 307
#     4   9  17  31  54  80 104 136 179 221 258 303
#     4   9  17  31  52  76 102 132 167 207 251 300
#     4  11  22  38  59  82 109 141 178 219 266 320
#     4  10  20  35  55  80 109 141 178 220 265 315
#
# _framework density 20.087712
#
# number of rings (size 3 to 8) (size 9 to 14) (size 15 to 20)
#    0.000    2.333    0.000    3.500    0.000    7.667 
#    0.000    4.167    0.000    4.000    0.000    0.000 
#    0.000    0.000    0.000    0.000    0.000    0.000 
#
# Total GULP energy -268018.479059 kJ/mol
# GULP energy per Si atom -5583.718314 kJ/mol
# Density = 2.004199 g / cm^3
# Si number density = 20.087712 Si / 1000 Ang^3
#
#
#
# Elastic Constant Matrix: (Units=GPa)
#
#
# Indices 1 2 3 4 5 6 
#
# 1 38.6834 9.2753 -10.9110 0.0000 0.0000 0.0000
# 2 9.2753 57.7357 -16.5106 0.0000 0.0000 0.0000
# 3 -10.9110 -16.5106 11.3692 0.0000 0.0000 0.0000
# 4 0.0000 0.0000 0.0000 -14.7513 0.0000 0.0000
# 5 0.0000 0.0000 0.0000 0.0000 16.0278 0.0000
# 6 0.0000 0.0000 0.0000 0.0000 0.0000 54.5033
#
#
#
# Elastic Compliance Matrix: (Units=1/GPa)
#
#
# Indices 1 2 3 4 5 6 
#
# 1 0.037128 0.007226 0.046125 0.000000 0.000000 0.000000
# 2 0.007226 0.031028 0.051994 0.000000 0.000000 0.000000
# 3 0.046125 0.051994 0.207728 0.000000 0.000000 0.000000
# 4 0.000000 0.000000 0.000000 -0.067791 0.000000 0.000000
# 5 0.000000 0.000000 0.000000 0.000000 0.062392 0.000000
# 6 0.000000 0.000000 0.000000 0.000000 0.000000 0.018348
#
#
# Mechanical properties :
#
#
# Convention : Reuss Voigt Hill
#
# Bulk Modulus (GPa) = 2.05519 7.94397 4.99958
# Shear Modulus (GPa) = 20.80419 19.55160 20.17789
#
# Velocity S-wave (km/s) = 3.22167 3.12318 3.17281
# Velocity P-wave (km/s) = 3.85541 4.11933 3.98955
#
# Compressibility (1/GPa) = 0.48657316
#
# Stress axis : x y z
#
# Youngs Moduli (GPa) = 26.93361 32.22891 4.81398
#
# Poissons Ratio (x) = -0.23287 -0.22204
# Poissons Ratio (y) = -0.19461 -0.25030
# Poissons Ratio (z) = -1.24231 -1.67570
#
# Static dielectric constant tensor:
#      x y z
#    x 1.681960 0.000000 0.000000 
#    y 0.000000 1.697400 0.000000 
#    z 0.000000 0.000000 1.737410 
# 
# From -- ./inp_files/7999.got.cif
#   From: 2010.05.17/outbox.cif.g08.bks.cpg/sg66_4_cif.got.tgz:7999.got - 2010.06.03 17:51:23.
