data_PCOD9497098
_publ_section_title
;
Structure prediction by ZEFSAII (Michael W. Deem and Ramdas Pophale) SiO2 
 PCOD9497098
Probable space group: C C C M
;
_chemical_formula_sum "Si O2"
_cell_formula_units_Z 80
_cell_length_a 16.218740
_cell_length_b 9.173861
_cell_length_c 27.102951
_cell_angle_alpha 90.000000
_cell_angle_beta 90.000000
_cell_angle_gamma 90.000000
_cell_volume 4032.606513
_symmetry_space_group_name_H-M "C C C M"
_symmetry_group_IT_number 66
_symmetry_cell_setting 'orthorhombic'
loop_
_space_group_symop_operation_xyz
x,y,z
-x,-y,z
x,-y,1/2-z
-x,y,1/2-z
-x,-y,-z
x,y,-z
-x,y,1/2+z
x,-y,1/2+z
1/2+x,1/2+y,z
1/2-x,1/2-y,z
1/2+x,1/2-y,1/2-z
1/2-x,1/2+y,1/2-z
1/2-x,1/2-y,-z
1/2+x,1/2+y,-z
1/2-x,1/2+y,1/2+z
1/2+x,1/2-y,1/2+z
loop_
_atom_site_type_symbol
_atom_site_label
_atom_site_fract_x
_atom_site_fract_y
_atom_site_fract_z
Si Si1 0.102878 0.160929 0.692788
Si Si2 0.163009 0.677288 0.905014
Si Si3 0.904573 0.826277 0.197843
Si Si4 0.918900 0.394755 0.000000
Si Si5 0.158173 0.313527 0.000000
Si Si6 0.162877 0.669253 0.605530
O O1 0.134604 0.249118 0.646052
O O2 0.127723 0.214598 0.747595
O O3 0.003645 0.165567 0.696043
O O4 0.126805 0.990750 0.687688
O O5 0.250000 0.750000 0.919639
O O6 0.171938 0.504437 0.895790
O O7 0.096097 0.692195 0.949426
O O8 0.881162 0.717441 0.154876
O O9 0.000000 0.500000 0.000000
O O10 0.842963 0.510903 0.000000
O O11 0.250000 0.250000 0.000000
O O12 0.120550 0.278810 0.946317
O O13 0.250000 0.750000 0.606185
#
# Coordination Sequence:
#
# PCOD9497098 Si02
#       6
#    16  16  16   8   8  16
#     4   9  20  37  59  83 119 154 202 248 308 359
#     4  11  23  38  60  89 121 158 200 250 305 370
#     4   9  19  38  58  83 117 161 195 253 304 360
#     4  10  23  39  62  90 123 159 200 257 310 358
#     4   8  18  35  54  84 114 152 189 237 291 349
#     4  10  20  35  59  83 114 155 198 241 298 357
#
# _framework density 19.838284999999999
#
# number of rings (size 3 to 8) (size 9 to 14) (size 15 to 20)
#    0.000    2.400    0.000    2.700    5.600    1.600 
#    0.000    5.000    0.000    2.400    0.000    0.000 
#    0.000    0.000    0.000    0.000    0.000    0.000 
#
# Total GULP energy -222752.157638 kJ/mol
# GULP energy per Si atom -5568.803941 kJ/mol
# Density = 1.979313 g / cm^3
# Si number density = 19.838285 Si / 1000 Ang^3
#
#
#
# Elastic Constant Matrix: (Units=GPa)
#
#
# Indices 1 2 3 4 5 6 
#
# 1 49.3565 27.1869 43.6021 0.0000 0.0000 0.0000
# 2 27.1869 76.4052 73.9162 0.0000 0.0000 0.0000
# 3 43.6021 73.9162 195.9938 0.0000 0.0000 0.0000
# 4 0.0000 0.0000 0.0000 28.1773 0.0000 0.0000
# 5 0.0000 0.0000 0.0000 0.0000 27.7193 0.0000
# 6 0.0000 0.0000 0.0000 0.0000 0.0000 23.9257
#
#
#
# Elastic Compliance Matrix: (Units=1/GPa)
#
#
# Indices 1 2 3 4 5 6 
#
# 1 0.026825 -0.005938 -0.003728 0.000000 0.000000 0.000000
# 2 -0.005938 0.021921 -0.006946 0.000000 0.000000 0.000000
# 3 -0.003728 -0.006946 0.008551 0.000000 0.000000 0.000000
# 4 0.000000 0.000000 0.000000 0.035490 0.000000 0.000000
# 5 0.000000 0.000000 0.000000 0.000000 0.036076 0.000000
# 6 0.000000 0.000000 0.000000 0.000000 0.000000 0.041796
#
#
# Mechanical properties :
#
#
# Convention : Reuss Voigt Hill
#
# Bulk Modulus (GPa) = 41.54176 67.90733 54.72454
# Shear Modulus (GPa) = 23.59513 27.76783 25.68148
#
# Velocity S-wave (km/s) = 3.45247 3.74533 3.60188
# Velocity P-wave (km/s) = 6.07276 7.28066 6.70397
#
# Compressibility (1/GPa) = 0.02407216
#
# Stress axis : x y z
#
# Youngs Moduli (GPa) = 37.27830 45.61851 116.94274
#
# Poissons Ratio (x) = 0.27090 0.43598
# Poissons Ratio (y) = 0.22137 0.81229
# Poissons Ratio (z) = 0.13898 0.31687
#
# Static dielectric constant tensor:
#      x y z
#    x 1.745180 0.000000 0.000000 
#    y 0.000000 1.673860 0.000000 
#    z 0.000000 0.000000 1.781430 
# 
# From -- ./inp_files/65131.got.cif
#   From: 2010.05.17/outbox.cif.g08.bks.cpg/sg66_33_cif.got.tgz:65131.got - 2010.06.03 17:51:23.
