data_PCOD9497420
_publ_section_title
;
Structure prediction by ZEFSAII (Michael W. Deem and Ramdas Pophale) SiO2 
 PCOD9497420
Probable space group: C C C M
;
_chemical_formula_sum "Si O2"
_cell_formula_units_Z 52
_cell_length_a 12.195536
_cell_length_b 8.056034
_cell_length_c 23.498335
_cell_angle_alpha 90.000000
_cell_angle_beta 90.000000
_cell_angle_gamma 90.000000
_cell_volume 2308.656255
_symmetry_space_group_name_H-M "C C C M"
_symmetry_group_IT_number 66
_symmetry_cell_setting 'orthorhombic'
loop_
_space_group_symop_operation_xyz
x,y,z
-x,-y,z
x,-y,1/2-z
-x,y,1/2-z
-x,-y,-z
x,y,-z
-x,y,1/2+z
x,-y,1/2+z
1/2+x,1/2+y,z
1/2-x,1/2-y,z
1/2+x,1/2-y,1/2-z
1/2-x,1/2+y,1/2-z
1/2-x,1/2-y,-z
1/2+x,1/2+y,-z
1/2-x,1/2+y,1/2+z
1/2+x,1/2-y,1/2+z
loop_
_atom_site_type_symbol
_atom_site_label
_atom_site_fract_x
_atom_site_fract_y
_atom_site_fract_z
Si Si1 0.500000 0.000000 0.250000
Si Si2 0.062280 0.232674 0.565681
Si Si3 0.821539 0.409201 0.160842
Si Si4 0.669987 0.614853 0.095386
O O1 0.416320 0.913780 0.206843
O O2 0.038629 0.268562 0.500000
O O3 0.124691 0.376620 0.598873
O O4 0.949358 0.198232 0.599369
O O5 0.136009 0.063597 0.567958
O O6 0.750000 0.250000 0.174438
O O7 0.738218 0.561646 0.151719
O O8 0.750000 0.750000 0.066416
#
# Coordination Sequence:
#
# PCOD9497420 Si02
#       4
#     4  16  16  16
#     4  12  24  44  66  88 116 156 220 268 296 358
#     4  10  22  39  60  93 131 161 198 246 303 376
#     4  10  24  42  64  90 122 163 204 256 313 359
#     4  10  20  37  61  92 124 162 201 242 300 363
#
# _framework density 22.523924000000001
#
# number of rings (size 3 to 8) (size 9 to 14) (size 15 to 20)
#    0.000    1.846    0.000    3.692    0.000   12.923 
#    0.000    5.385    0.000    7.385    0.000    0.000 
#    0.000    0.000    0.000    0.000    0.000    0.000 
#
# Total GULP energy -144961.711482 kJ/mol
# GULP energy per Si atom -5575.450442 kJ/mol
# Density = 2.247266 g / cm^3
# Si number density = 22.523924 Si / 1000 Ang^3
#
#
#
# Elastic Constant Matrix: (Units=GPa)
#
#
# Indices 1 2 3 4 5 6 
#
# 1 184.4405 52.2189 65.6129 0.0000 0.0000 0.0000
# 2 52.2189 81.4167 31.2245 0.0000 0.0000 0.0000
# 3 65.6129 31.2245 77.9272 0.0000 0.0000 0.0000
# 4 0.0000 0.0000 0.0000 4.8108 0.0000 0.0000
# 5 0.0000 0.0000 0.0000 0.0000 -13.2657 0.0000
# 6 0.0000 0.0000 0.0000 0.0000 0.0000 31.5477
#
#
#
# Elastic Compliance Matrix: (Units=1/GPa)
#
#
# Indices 1 2 3 4 5 6 
#
# 1 0.008372 -0.003150 -0.005787 0.000000 0.000000 0.000000
# 2 -0.003150 0.015698 -0.003637 0.000000 0.000000 0.000000
# 3 -0.005787 -0.003637 0.019163 0.000000 0.000000 0.000000
# 4 0.000000 0.000000 0.000000 0.207866 0.000000 0.000000
# 5 0.000000 0.000000 0.000000 0.000000 -0.075383 0.000000
# 6 0.000000 0.000000 0.000000 0.000000 0.000000 0.031698
#
#
# Mechanical properties :
#
#
# Convention : Reuss Voigt Hill
#
# Bulk Modulus (GPa) = 55.29995 71.32189 63.31092
# Shear Modulus (GPa) = 20.95623 17.60045 19.27834
#
# Velocity S-wave (km/s) = 3.05355 2.79841 2.92876
# Velocity P-wave (km/s) = 6.08582 6.49424 6.29334
#
# Compressibility (1/GPa) = 0.01808320
#
# Stress axis : x y z
#
# Youngs Moduli (GPa) = 119.43927 63.70179 52.18524
#
# Poissons Ratio (x) = 0.20069 0.30200
# Poissons Ratio (y) = 0.37629 0.18982
# Poissons Ratio (z) = 0.69120 0.23171
#
# Static dielectric constant tensor:
#      x y z
#    x 1.855210 0.000000 0.000000 
#    y 0.000000 1.867330 0.000000 
#    z 0.000000 0.000000 1.853260 
# 
# From -- ./inp_files/63164.got.cif
#   From: 2010.05.17/outbox.cif.g08.bks.cpg/sg66_32_cif.got.tgz:63164.got - 2010.06.03 17:51:23.
