data_PCOD9497584
_publ_section_title
;
Structure prediction by ZEFSAII (Michael W. Deem and Ramdas Pophale) SiO2 
 PCOD9497584
Probable space group: C C C M
;
_chemical_formula_sum "Si O2"
_cell_formula_units_Z 52
_cell_length_a 10.721766
_cell_length_b 25.231318
_cell_length_c 9.543178
_cell_angle_alpha 90.000000
_cell_angle_beta 90.000000
_cell_angle_gamma 90.000000
_cell_volume 2581.661429
_symmetry_space_group_name_H-M "C C C M"
_symmetry_group_IT_number 66
_symmetry_cell_setting 'orthorhombic'
loop_
_space_group_symop_operation_xyz
x,y,z
-x,-y,z
x,-y,1/2-z
-x,y,1/2-z
-x,-y,-z
x,y,-z
-x,y,1/2+z
x,-y,1/2+z
1/2+x,1/2+y,z
1/2-x,1/2-y,z
1/2+x,1/2-y,1/2-z
1/2-x,1/2+y,1/2-z
1/2-x,1/2-y,-z
1/2+x,1/2+y,-z
1/2-x,1/2+y,1/2+z
1/2+x,1/2-y,1/2+z
loop_
_atom_site_type_symbol
_atom_site_label
_atom_site_fract_x
_atom_site_fract_y
_atom_site_fract_z
Si Si1 0.055559 0.257551 0.000000
Si Si2 0.063650 0.430105 0.500000
Si Si3 0.134624 0.830076 0.275700
Si Si4 0.204158 0.318191 0.500000
Si Si5 0.692246 0.870527 0.000000
Si Si6 0.500000 0.000000 0.750000
O O1 0.097604 0.221724 0.131564
O O2 0.129750 0.312213 0.000000
O O3 0.911799 0.277016 0.000000
O O4 0.143107 0.376743 0.500000
O O5 0.078957 0.463718 0.357763
O O6 0.917998 0.412320 0.500000
O O7 0.220699 0.869255 0.364826
O O8 0.000000 0.855565 0.250000
O O9 0.210270 0.814622 0.137585
#
# Coordination Sequence:
#
# PCOD9497584 Si02
#       6
#     8   8  16   8   8   4
#     4  10  25  36  54  80 118 164 216 254 283 332
#     4  10  21  40  66  95 119 146 184 256 320 374
#     4  11  23  37  55  82 119 172 211 250 275 343
#     4  11  24  40  61  85 124 167 205 248 309 339
#     4  10  22  40  53  83 123 156 196 251 307 347
#     4  10  20  38  68 102 114 130 192 250 332 384
#
# _framework density 20.142068999999999
#
# number of rings (size 3 to 8) (size 9 to 14) (size 15 to 20)
#    0.000    1.538    0.000    5.538    8.615    3.692 
#    0.000    0.000    0.000    0.000    0.000   75.385 
#    0.000    0.000    0.000    0.000    0.000    0.000 
#
# Total GULP energy -145326.175776 kJ/mol
# GULP energy per Si atom -5589.468299 kJ/mol
# Density = 2.009623 g / cm^3
# Si number density = 20.142069 Si / 1000 Ang^3
#
#
#
# Elastic Constant Matrix: (Units=GPa)
#
#
# Indices 1 2 3 4 5 6 
#
# 1 161.3057 29.7389 78.2041 0.0000 0.0000 0.0000
# 2 29.7389 93.1215 48.3520 0.0000 0.0000 0.0000
# 3 78.2041 48.3520 178.2178 0.0000 0.0000 0.0000
# 4 0.0000 0.0000 0.0000 11.8160 0.0000 0.0000
# 5 0.0000 0.0000 0.0000 0.0000 35.6057 0.0000
# 6 0.0000 0.0000 0.0000 0.0000 0.0000 18.0094
#
#
#
# Elastic Compliance Matrix: (Units=1/GPa)
#
#
# Indices 1 2 3 4 5 6 
#
# 1 0.007931 -0.000845 -0.003251 0.000000 0.000000 0.000000
# 2 -0.000845 0.012589 -0.003045 0.000000 0.000000 0.000000
# 3 -0.003251 -0.003045 0.007864 0.000000 0.000000 0.000000
# 4 0.000000 0.000000 0.000000 0.084631 0.000000 0.000000
# 5 0.000000 0.000000 0.000000 0.000000 0.028085 0.000000
# 6 0.000000 0.000000 0.000000 0.000000 0.000000 0.055527
#
#
# Mechanical properties :
#
#
# Convention : Reuss Voigt Hill
#
# Bulk Modulus (GPa) = 70.90723 82.80387 76.85555
# Shear Modulus (GPa) = 23.18996 31.50955 27.34976
#
# Velocity S-wave (km/s) = 3.39679 3.95950 3.68889
# Velocity P-wave (km/s) = 7.11788 7.88052 7.50889
#
# Compressibility (1/GPa) = 0.01410293
#
# Stress axis : x y z
#
# Youngs Moduli (GPa) = 126.08112 79.43140 127.16355
#
# Poissons Ratio (x) = 0.06710 0.41343
# Poissons Ratio (y) = 0.10651 0.38720
# Poissons Ratio (z) = 0.40991 0.24186
#
# Static dielectric constant tensor:
#      x y z
#    x 1.736580 0.000000 0.000000 
#    y 0.000000 1.702240 0.000000 
#    z 0.000000 0.000000 1.755030 
# 
# From -- ./inp_files/3684.got.cif
#   From: 2010.05.17/outbox.cif.g08.bks.cpg/sg66_2_cif.got.tgz:3684.got - 2010.06.03 17:51:23.
