data_PCOD9497613
_publ_section_title
;
Structure prediction by ZEFSAII (Michael W. Deem and Ramdas Pophale) SiO2 
 PCOD9497613
Probable space group: C C C M
;
_chemical_formula_sum "Si O2"
_cell_formula_units_Z 68
_cell_length_a 14.053702
_cell_length_b 10.028035
_cell_length_c 20.298318
_cell_angle_alpha 90.000000
_cell_angle_beta 90.000000
_cell_angle_gamma 90.000000
_cell_volume 2860.662569
_symmetry_space_group_name_H-M "C C C M"
_symmetry_group_IT_number 66
_symmetry_cell_setting 'orthorhombic'
loop_
_space_group_symop_operation_xyz
x,y,z
-x,-y,z
x,-y,1/2-z
-x,y,1/2-z
-x,-y,-z
x,y,-z
-x,y,1/2+z
x,-y,1/2+z
1/2+x,1/2+y,z
1/2-x,1/2-y,z
1/2+x,1/2-y,1/2-z
1/2-x,1/2+y,1/2-z
1/2-x,1/2-y,-z
1/2+x,1/2+y,-z
1/2-x,1/2+y,1/2+z
1/2+x,1/2-y,1/2+z
loop_
_atom_site_type_symbol
_atom_site_label
_atom_site_fract_x
_atom_site_fract_y
_atom_site_fract_z
Si Si1 0.886123 0.338969 0.109308
Si Si2 0.383211 0.637026 0.000000
Si Si3 0.106610 0.372840 0.106800
Si Si4 0.000000 0.000000 0.250000
Si Si5 0.384873 0.336566 0.000000
Si Si6 0.863743 0.752790 0.759686
O O1 0.852239 0.218883 0.064072
O O2 0.843170 0.485173 0.096321
O O3 0.883348 0.291942 0.184920
O O4 0.995233 0.366676 0.089046
O O5 0.348348 0.486470 0.000000
O O6 0.499606 0.641650 0.000000
O O7 0.144159 0.250042 0.063700
O O8 0.105374 0.350360 0.184820
O O9 0.077819 0.889779 0.276630
O O10 0.750000 0.750000 0.765905
#
# Coordination Sequence:
#
# PCOD9497613 Si02
#       6
#    16   8  16   4   8  16
#     4  10  20  39  63  94 136 186 238 300 369 441
#     4   9  19  33  60  95 132 179 239 300 372 438
#     4  10  20  39  63  94 136 186 238 300 369 441
#     4  12  28  48  74 108 164 188 250 322 376 426
#     4   9  19  33  60  95 132 179 239 300 372 438
#     4  12  27  43  71 105 143 195 246 303 376 448
#
# _framework density 23.770716
#
# number of rings (size 3 to 8) (size 9 to 14) (size 15 to 20)
#    0.000    1.647    2.353    1.412    6.588    4.706 
#    0.000    1.176    0.000    0.000    0.000    0.000 
#    0.000    0.000    0.000    0.000    0.000    0.000 
#
# Total GULP energy -189548.828853 kJ/mol
# GULP energy per Si atom -5574.965555 kJ/mol
# Density = 2.371661 g / cm^3
# Si number density = 23.770716 Si / 1000 Ang^3
#
#
#
# Elastic Constant Matrix: (Units=GPa)
#
#
# Indices 1 2 3 4 5 6 
#
# 1 111.1745 1.1505 -24.3432 0.0000 0.0000 0.0000
# 2 1.1505 212.5610 82.3167 0.0000 0.0000 0.0000
# 3 -24.3432 82.3167 150.7189 0.0000 0.0000 0.0000
# 4 0.0000 0.0000 0.0000 -62.3872 0.0000 0.0000
# 5 0.0000 0.0000 0.0000 0.0000 75.8938 0.0000
# 6 0.0000 0.0000 0.0000 0.0000 0.0000 6.9599
#
#
#
# Elastic Compliance Matrix: (Units=1/GPa)
#
#
# Indices 1 2 3 4 5 6 
#
# 1 0.009434 -0.000813 0.001968 0.000000 0.000000 0.000000
# 2 -0.000813 0.006037 -0.003428 0.000000 0.000000 0.000000
# 3 0.001968 -0.003428 0.008825 0.000000 0.000000 0.000000
# 4 0.000000 0.000000 0.000000 -0.016029 0.000000 0.000000
# 5 0.000000 0.000000 0.000000 0.000000 0.013176 0.000000
# 6 0.000000 0.000000 0.000000 0.000000 0.000000 0.143680
#
#
# Mechanical properties :
#
#
# Convention : Reuss Voigt Hill
#
# Bulk Modulus (GPa) = 50.63618 65.85582 58.24600
# Shear Modulus (GPa) = 28.36821 31.78198 30.07510
#
# Velocity S-wave (km/s) = 3.45832 3.66050 3.56085
# Velocity P-wave (km/s) = 6.10695 6.75503 6.43915
#
# Compressibility (1/GPa) = 0.01974872
#
# Stress axis : x y z
#
# Youngs Moduli (GPa) = 105.99763 165.65694 113.31328
#
# Poissons Ratio (x) = 0.13470 -0.22298
# Poissons Ratio (y) = 0.08619 0.38847
# Poissons Ratio (z) = -0.20859 0.56792
#
# Static dielectric constant tensor:
#      x y z
#    x 1.950120 0.000000 0.000000 
#    y 0.000000 1.955830 0.000000 
#    z 0.000000 0.000000 1.859350 
# 
# From -- ./inp_files/50658.got.cif
#   From: 2010.05.17/outbox.cif.g08.bks.cpg/sg66_26_cif.got.tgz:50658.got - 2010.06.03 17:51:23.
