data_PCOD9497016
_publ_section_title
;
Structure prediction by ZEFSAII (Michael W. Deem and Ramdas Pophale) SiO2 
 PCOD9497016
Probable space group: C C C M
;
_chemical_formula_sum "Si O2"
_cell_formula_units_Z 96
_cell_length_a 24.142080
_cell_length_b 25.792614
_cell_length_c 8.712632
_cell_angle_alpha 90.000000
_cell_angle_beta 90.000000
_cell_angle_gamma 90.000000
_cell_volume 5425.245737
_symmetry_space_group_name_H-M "C C C M"
_symmetry_group_IT_number 66
_symmetry_cell_setting 'orthorhombic'
loop_
_space_group_symop_operation_xyz
x,y,z
-x,-y,z
x,-y,1/2-z
-x,y,1/2-z
-x,-y,-z
x,y,-z
-x,y,1/2+z
x,-y,1/2+z
1/2+x,1/2+y,z
1/2-x,1/2-y,z
1/2+x,1/2-y,1/2-z
1/2-x,1/2+y,1/2-z
1/2-x,1/2-y,-z
1/2+x,1/2+y,-z
1/2-x,1/2+y,1/2+z
1/2+x,1/2-y,1/2+z
loop_
_atom_site_type_symbol
_atom_site_label
_atom_site_fract_x
_atom_site_fract_y
_atom_site_fract_z
Si Si1 0.940017 0.057311 0.816617
Si Si2 0.061485 0.250889 0.183466
Si Si3 0.369048 0.648672 0.316346
Si Si4 0.939463 0.556660 0.315592
Si Si5 0.867147 0.345274 0.184966
Si Si6 0.745454 0.311036 0.184995
O O1 0.893995 0.097849 0.762554
O O2 0.000000 0.073882 0.750000
O O3 0.929164 0.000000 0.750000
O O4 0.943268 0.055008 0.000000
O O5 0.092172 0.197554 0.226892
O O6 0.097230 0.298738 0.245262
O O7 0.000000 0.252529 0.250000
O O8 0.058934 0.253557 0.000000
O O9 0.370734 0.642563 0.500000
O O10 0.307439 0.662962 0.262575
O O11 0.925761 0.500000 0.250000
O O12 0.942987 0.553891 0.500000
O O13 0.894986 0.600232 0.271834
O O14 0.000000 0.571062 0.250000
O O15 0.803128 0.338277 0.229119
O O16 0.869835 0.340897 0.000000
O O17 0.750000 0.250000 0.225635
O O18 0.739088 0.313881 0.000000
#
# Coordination Sequence:
#
# PCOD9497016 Si02
#       6
#    16  16  16  16  16  16
#     4  11  22  39  63  89 119 154 193 238 291 348
#     4  11  23  35  53  81 114 147 183 231 285 340
#     4  11  23  38  57  85 117 152 195 239 285 341
#     4  10  20  35  56  81 110 143 182 226 275 334
#     4  10  21  37  57  82 111 145 189 233 282 341
#     4  10  20  37  60  82 111 155 195 235 288 342
#
# _framework density 17.695050999999999
#
# number of rings (size 3 to 8) (size 9 to 14) (size 15 to 20)
#    0.000    1.500    1.667    5.000    0.000    7.000 
#    0.000    0.833    0.000    2.000    0.000    0.000 
#    0.000    0.000    0.000    0.000    0.000    0.000 
#
# Total GULP energy -268263.499824 kJ/mol
# GULP energy per Si atom -5588.822913 kJ/mol
# Density = 1.765478 g / cm^3
# Si number density = 17.695051 Si / 1000 Ang^3
#
#
#
# Elastic Constant Matrix: (Units=GPa)
#
#
# Indices 1 2 3 4 5 6 
#
# 1 158.3533 85.0880 55.9691 0.0000 0.0000 0.0000
# 2 85.0880 108.2088 50.6723 0.0000 0.0000 0.0000
# 3 55.9691 50.6723 65.4882 0.0000 0.0000 0.0000
# 4 0.0000 0.0000 0.0000 60.3156 0.0000 0.0000
# 5 0.0000 0.0000 0.0000 0.0000 31.1656 0.0000
# 6 0.0000 0.0000 0.0000 0.0000 0.0000 16.7955
#
#
#
# Elastic Compliance Matrix: (Units=1/GPa)
#
#
# Indices 1 2 3 4 5 6 
#
# 1 0.011734 -0.007105 -0.004531 0.000000 0.000000 0.000000
# 2 -0.007105 0.018795 -0.008470 0.000000 0.000000 0.000000
# 3 -0.004531 -0.008470 0.025696 0.000000 0.000000 0.000000
# 4 0.000000 0.000000 0.000000 0.016579 0.000000 0.000000
# 5 0.000000 0.000000 0.000000 0.000000 0.032087 0.000000
# 6 0.000000 0.000000 0.000000 0.000000 0.000000 0.059540
#
#
# Mechanical properties :
#
#
# Convention : Reuss Voigt Hill
#
# Bulk Modulus (GPa) = 62.45106 79.50099 70.97603
# Shear Modulus (GPa) = 23.81155 31.01007 27.41081
#
# Velocity S-wave (km/s) = 3.67231 4.19079 3.94009
# Velocity P-wave (km/s) = 7.30415 8.27302 7.80364
#
# Compressibility (1/GPa) = 0.01601254
#
# Stress axis : x y z
#
# Youngs Moduli (GPa) = 85.22031 53.20532 38.91625
#
# Poissons Ratio (x) = 0.37804 0.17632
# Poissons Ratio (y) = 0.60552 0.32964
# Poissons Ratio (z) = 0.38611 0.45067
#
# Static dielectric constant tensor:
#      x y z
#    x 1.578310 0.000000 0.000000 
#    y 0.000000 1.584730 0.000000 
#    z 0.000000 0.000000 1.595410 
# 
# From -- ./inp_files/9119.got.cif
#   From: 2010.05.17/outbox.cif.g08.bks.cpg/sg66_5_cif.got.tgz:9119.got - 2010.06.03 17:51:23.
