data_PCOD9497620
_publ_section_title
;
Structure prediction by ZEFSAII (Michael W. Deem and Ramdas Pophale) SiO2 
 PCOD9497620
Probable space group: C C C M
;
_chemical_formula_sum "Si O2"
_cell_formula_units_Z 112
_cell_length_a 23.489590
_cell_length_b 16.229748
_cell_length_c 15.137271
_cell_angle_alpha 90.000000
_cell_angle_beta 90.000000
_cell_angle_gamma 90.000000
_cell_volume 5770.783736
_symmetry_space_group_name_H-M "C C C M"
_symmetry_group_IT_number 66
_symmetry_cell_setting 'orthorhombic'
loop_
_space_group_symop_operation_xyz
x,y,z
-x,-y,z
x,-y,1/2-z
-x,y,1/2-z
-x,-y,-z
x,y,-z
-x,y,1/2+z
x,-y,1/2+z
1/2+x,1/2+y,z
1/2-x,1/2-y,z
1/2+x,1/2-y,1/2-z
1/2-x,1/2+y,1/2-z
1/2-x,1/2-y,-z
1/2+x,1/2+y,-z
1/2-x,1/2+y,1/2+z
1/2+x,1/2-y,1/2+z
loop_
_atom_site_type_symbol
_atom_site_label
_atom_site_fract_x
_atom_site_fract_y
_atom_site_fract_z
Si Si1 0.685214 0.782874 0.396735
Si Si2 0.134919 0.293583 0.096807
Si Si3 0.817547 0.596582 0.765490
Si Si4 0.960628 0.171181 0.368247
Si Si5 0.892569 0.988045 0.899766
Si Si6 0.712201 0.633883 0.104879
Si Si7 0.415060 0.336836 0.331039
O O1 0.673194 0.801672 0.500000
O O2 0.750000 0.750000 0.392380
O O3 0.683379 0.858665 0.328866
O O4 0.638870 0.716628 0.361100
O O5 0.134469 0.360590 0.173557
O O6 0.077439 0.241659 0.089648
O O7 0.182865 0.223419 0.117248
O O8 0.147393 0.329424 0.000000
O O9 0.823504 0.500000 0.750000
O O10 0.761646 0.616323 0.825309
O O11 0.937792 0.177686 0.267585
O O12 0.027223 0.181685 0.384731
O O13 0.942833 0.078981 0.395944
O O14 0.900678 0.066723 0.839179
O O15 0.836489 0.934555 0.880092
O O16 0.887743 0.019809 0.000000
O O17 0.727462 0.629123 0.000000
#
# Coordination Sequence:
#
# PCOD9497620 Si02
#       7
#    16  16  16  16  16  16  16
#     4  11  26  44  62  88 125 170 215 253 307 380
#     4  10  20  39  64  91 121 154 207 261 308 367
#     4  12  25  39  62  86 118 163 206 268 322 361
#     4  10  21  37  62  94 124 166 213 249 305 372
#     4  10  21  34  55  95 135 166 206 245 295 377
#     4   9  20  37  60  91 125 164 206 252 306 369
#     4  11  22  39  62  88 132 172 203 252 305 374
#
# _framework density 19.408109
#
# number of rings (size 3 to 8) (size 9 to 14) (size 15 to 20)
#    0.000    1.571    1.429    4.286    4.000    6.286 
#    0.000    0.000    0.000    1.714    0.000    2.000 
#    0.000    0.000    0.000    0.000    0.000    0.000 
#
# Total GULP energy -312671.727260 kJ/mol
# GULP energy per Si atom -5583.423701 kJ/mol
# Density = 1.936393 g / cm^3
# Si number density = 19.408109 Si / 1000 Ang^3
#
#
#
# Elastic Constant Matrix: (Units=GPa)
#
#
# Indices 1 2 3 4 5 6 
#
# 1 109.5666 47.9296 30.0270 0.0000 0.0000 0.0000
# 2 47.9296 124.6881 69.4789 0.0000 0.0000 0.0000
# 3 30.0270 69.4789 120.3741 0.0000 0.0000 0.0000
# 4 0.0000 0.0000 0.0000 4.6882 0.0000 0.0000
# 5 0.0000 0.0000 0.0000 0.0000 26.7625 0.0000
# 6 0.0000 0.0000 0.0000 0.0000 0.0000 12.0800
#
#
#
# Elastic Compliance Matrix: (Units=1/GPa)
#
#
# Indices 1 2 3 4 5 6 
#
# 1 0.010988 -0.003975 -0.000447 0.000000 0.000000 0.000000
# 2 -0.003975 0.013260 -0.006662 0.000000 0.000000 0.000000
# 3 -0.000447 -0.006662 0.012264 0.000000 0.000000 0.000000
# 4 0.000000 0.000000 0.000000 0.213299 0.000000 0.000000
# 5 0.000000 0.000000 0.000000 0.000000 0.037366 0.000000
# 6 0.000000 0.000000 0.000000 0.000000 0.000000 0.082781
#
#
# Mechanical properties :
#
#
# Convention : Reuss Voigt Hill
#
# Bulk Modulus (GPa) = 69.71036 72.16663 70.93850
# Shear Modulus (GPa) = 12.59737 22.51903 17.55820
#
# Velocity S-wave (km/s) = 2.55046 3.41000 3.01106
# Velocity P-wave (km/s) = 6.68351 7.26420 6.97990
#
# Compressibility (1/GPa) = 0.01434507
#
# Stress axis : x y z
#
# Youngs Moduli (GPa) = 91.00771 75.41336 81.53806
#
# Poissons Ratio (x) = 0.29976 0.03642
# Poissons Ratio (y) = 0.36174 0.54322
# Poissons Ratio (z) = 0.04065 0.50242
#
# Static dielectric constant tensor:
#      x y z
#    x 1.713110 0.000000 0.000000 
#    y 0.000000 1.644690 0.000000 
#    z 0.000000 0.000000 1.757370 
# 
# From -- ./inp_files/32500.got.cif
#   From: 2010.05.17/outbox.cif.g08.bks.cpg/sg66_17_cif.got.tgz:32500.got - 2010.06.03 17:51:23.
