data_PCOD9497891
_publ_section_title
;
Structure prediction by ZEFSAII (Michael W. Deem and Ramdas Pophale) SiO2 
 PCOD9497891
Probable space group: C C C M
;
_chemical_formula_sum "Si O2"
_cell_formula_units_Z 64
_cell_length_a 11.350274
_cell_length_b 16.106626
_cell_length_c 15.543677
_cell_angle_alpha 90.000000
_cell_angle_beta 90.000000
_cell_angle_gamma 90.000000
_cell_volume 2841.611378
_symmetry_space_group_name_H-M "C C C M"
_symmetry_group_IT_number 66
_symmetry_cell_setting 'orthorhombic'
loop_
_space_group_symop_operation_xyz
x,y,z
-x,-y,z
x,-y,1/2-z
-x,y,1/2-z
-x,-y,-z
x,y,-z
-x,y,1/2+z
x,-y,1/2+z
1/2+x,1/2+y,z
1/2-x,1/2-y,z
1/2+x,1/2-y,1/2-z
1/2-x,1/2+y,1/2-z
1/2-x,1/2-y,-z
1/2+x,1/2+y,-z
1/2-x,1/2+y,1/2+z
1/2+x,1/2-y,1/2+z
loop_
_atom_site_type_symbol
_atom_site_label
_atom_site_fract_x
_atom_site_fract_y
_atom_site_fract_z
Si Si1 0.275359 0.570680 0.405061
Si Si2 0.247878 0.875376 0.902365
Si Si3 0.649833 0.820338 0.227835
Si Si4 0.994635 0.174425 0.654099
O O1 0.227023 0.588437 0.500000
O O2 0.288353 0.472286 0.396504
O O3 0.189433 0.604810 0.332472
O O4 0.398142 0.620894 0.395990
O O5 0.338119 0.855387 0.825197
O O6 0.124122 0.827650 0.885959
O O7 0.289804 0.859130 0.000000
O O8 0.750000 0.750000 0.227219
O O9 0.550441 0.767690 0.175803
O O10 0.000000 0.135035 0.750000
#
# Coordination Sequence:
#
# PCOD9497891 Si02
#       4
#    16  16  16  16
#     4  10  21  36  60  90 123 159 200 255 315 365
#     4  11  22  38  62  91 124 164 207 258 313 373
#     4  10  21  37  57  88 127 162 204 250 316 368
#     4  11  21  36  57  91 123 159 207 251 312 367
#
# _framework density 22.522431999999998
#
# number of rings (size 3 to 8) (size 9 to 14) (size 15 to 20)
#    0.000    1.500    5.000    2.250    0.000    9.000 
#    0.000    0.000    0.000    3.000    0.000    3.500 
#    0.000    0.000    0.000    0.000    0.000    0.000 
#
# Total GULP energy -178421.455880 kJ/mol
# GULP energy per Si atom -5575.670496 kJ/mol
# Density = 2.247117 g / cm^3
# Si number density = 22.522432 Si / 1000 Ang^3
#
#
#
# Elastic Constant Matrix: (Units=GPa)
#
#
# Indices 1 2 3 4 5 6 
#
# 1 65.3835 50.6397 47.4502 0.0000 0.0000 0.0000
# 2 50.6397 95.3252 65.5493 0.0000 0.0000 0.0000
# 3 47.4502 65.5493 195.2888 0.0000 0.0000 0.0000
# 4 0.0000 0.0000 0.0000 24.1125 0.0000 0.0000
# 5 0.0000 0.0000 0.0000 0.0000 18.5698 0.0000
# 6 0.0000 0.0000 0.0000 0.0000 0.0000 28.3267
#
#
#
# Elastic Compliance Matrix: (Units=1/GPa)
#
#
# Indices 1 2 3 4 5 6 
#
# 1 0.026723 -0.012651 -0.002247 0.000000 0.000000 0.000000
# 2 -0.012651 0.019628 -0.003514 0.000000 0.000000 0.000000
# 3 -0.002247 -0.003514 0.006846 0.000000 0.000000 0.000000
# 4 0.000000 0.000000 0.000000 0.041472 0.000000 0.000000
# 5 0.000000 0.000000 0.000000 0.000000 0.053851 0.000000
# 6 0.000000 0.000000 0.000000 0.000000 0.000000 0.035302
#
#
# Mechanical properties :
#
#
# Convention : Reuss Voigt Hill
#
# Bulk Modulus (GPa) = 61.07706 75.91954 68.49830
# Shear Modulus (GPa) = 22.11367 27.02568 24.56967
#
# Velocity S-wave (km/s) = 3.13685 3.46778 3.30646
# Velocity P-wave (km/s) = 6.34799 7.05802 6.71240
#
# Compressibility (1/GPa) = 0.01637276
#
# Stress axis : x y z
#
# Youngs Moduli (GPa) = 37.42045 50.94843 146.07033
#
# Poissons Ratio (x) = 0.64457 0.32816
# Poissons Ratio (y) = 0.47342 0.51331
# Poissons Ratio (z) = 0.08407 0.17904
#
# Static dielectric constant tensor:
#      x y z
#    x 2.074800 0.000000 0.000000 
#    y 0.000000 1.824990 0.000000 
#    z 0.000000 0.000000 1.873560 
# 
# From -- ./inp_files/25787.got.cif
#   From: 2010.05.17/outbox.cif.g08.bks.cpg/sg66_13_cif.got.tgz:25787.got - 2010.06.03 17:51:23.
