data_PCOD9497347
_publ_section_title
;
Structure prediction by ZEFSAII (Michael W. Deem and Ramdas Pophale) SiO2 
 PCOD9497347
Probable space group: C C C M
;
_chemical_formula_sum "Si O2"
_cell_formula_units_Z 80
_cell_length_a 12.199189
_cell_length_b 15.049127
_cell_length_c 24.911429
_cell_angle_alpha 90.000000
_cell_angle_beta 90.000000
_cell_angle_gamma 90.000000
_cell_volume 4573.418117
_symmetry_space_group_name_H-M "C C C M"
_symmetry_group_IT_number 66
_symmetry_cell_setting 'orthorhombic'
loop_
_space_group_symop_operation_xyz
x,y,z
-x,-y,z
x,-y,1/2-z
-x,y,1/2-z
-x,-y,-z
x,y,-z
-x,y,1/2+z
x,-y,1/2+z
1/2+x,1/2+y,z
1/2-x,1/2-y,z
1/2+x,1/2-y,1/2-z
1/2-x,1/2+y,1/2-z
1/2-x,1/2-y,-z
1/2+x,1/2+y,-z
1/2-x,1/2+y,1/2+z
1/2+x,1/2-y,1/2+z
loop_
_atom_site_type_symbol
_atom_site_label
_atom_site_fract_x
_atom_site_fract_y
_atom_site_fract_z
Si Si1 0.628708 0.228297 0.438238
Si Si2 0.929849 0.236037 0.858062
Si Si3 0.765630 0.401464 0.145017
Si Si4 0.817402 0.000000 0.250000
Si Si5 0.500000 0.646912 0.250000
Si Si6 0.878970 0.517127 0.939038
O O1 0.619079 0.262425 0.500000
O O2 0.750000 0.250000 0.416726
O O3 0.526808 0.258339 0.401717
O O4 0.630210 0.122133 0.440832
O O5 0.863601 0.328794 0.853361
O O6 0.841766 0.157321 0.868295
O O7 0.976777 0.208637 0.800523
O O8 0.749175 0.458296 0.199835
O O9 0.791156 0.469851 0.097812
O O10 0.898864 0.081545 0.264767
O O11 0.000000 0.500000 0.916494
O O12 0.874776 0.481220 0.000000
#
# Coordination Sequence:
#
# PCOD9497347 Si02
#       6
#    16  16  16   8   8  16
#     4  10  22  39  58  84 117 152 190 231 281 340
#     4  10  21  38  57  84 114 146 189 234 281 335
#     4  10  21  37  58  85 113 143 189 235 280 336
#     4   9  20  38  57  78 110 150 187 229 280 334
#     4   9  20  38  56  77 112 154 186 225 282 334
#     4  10  20  37  57  81 114 148 183 226 281 336
#
# _framework density 17.492387999999998
#
# number of rings (size 3 to 8) (size 9 to 14) (size 15 to 20)
#    0.000    2.200    2.000    0.000    2.800    2.400 
#    3.600    2.000    0.000    3.600    0.000    0.000 
#    0.000    0.000    0.000    0.000    0.000    0.000 
#
# Total GULP energy -222829.315926 kJ/mol
# GULP energy per Si atom -5570.732898 kJ/mol
# Density = 1.745257 g / cm^3
# Si number density = 17.492388 Si / 1000 Ang^3
#
#
#
# Elastic Constant Matrix: (Units=GPa)
#
#
# Indices 1 2 3 4 5 6 
#
# 1 114.9104 32.6113 72.8298 0.0000 0.0000 0.0000
# 2 32.6113 52.9971 37.7322 0.0000 0.0000 0.0000
# 3 72.8298 37.7322 100.6643 0.0000 0.0000 0.0000
# 4 0.0000 0.0000 0.0000 46.3197 0.0000 0.0000
# 5 0.0000 0.0000 0.0000 0.0000 32.0656 0.0000
# 6 0.0000 0.0000 0.0000 0.0000 0.0000 11.9503
#
#
#
# Elastic Compliance Matrix: (Units=1/GPa)
#
#
# Indices 1 2 3 4 5 6 
#
# 1 0.016262 -0.002223 -0.010932 0.000000 0.000000 0.000000
# 2 -0.002223 0.026041 -0.008152 0.000000 0.000000 0.000000
# 3 -0.010932 -0.008152 0.020899 0.000000 0.000000 0.000000
# 4 0.000000 0.000000 0.000000 0.021589 0.000000 0.000000
# 5 0.000000 0.000000 0.000000 0.000000 0.031186 0.000000
# 6 0.000000 0.000000 0.000000 0.000000 0.000000 0.083680
#
#
# Mechanical properties :
#
#
# Convention : Reuss Voigt Hill
#
# Bulk Modulus (GPa) = 48.57536 61.65759 55.11647
# Shear Modulus (GPa) = 20.06936 26.42703 23.24819
#
# Velocity S-wave (km/s) = 3.39088 3.89108 3.64956
# Velocity P-wave (km/s) = 6.56967 7.45065 7.02398
#
# Compressibility (1/GPa) = 0.02058657
#
# Stress axis : x y z
#
# Youngs Moduli (GPa) = 61.49221 38.40031 47.84881
#
# Poissons Ratio (x) = 0.08538 0.52309
# Poissons Ratio (y) = 0.13673 0.39009
# Poissons Ratio (z) = 0.67224 0.31306
#
# Static dielectric constant tensor:
#      x y z
#    x 1.607390 0.000000 0.000000 
#    y 0.000000 1.519870 0.000000 
#    z 0.000000 0.000000 1.586270 
# 
# From -- ./inp_files/63553.got.cif
#   From: 2010.05.17/outbox.cif.g08.bks.cpg/sg66_32_cif.got.tgz:63553.got - 2010.06.03 17:51:23.
