data_PCOD9497892
_publ_section_title
;
Structure prediction by ZEFSAII (Michael W. Deem and Ramdas Pophale) SiO2 
 PCOD9497892
Probable space group: C C C M
;
_chemical_formula_sum "Si O2"
_cell_formula_units_Z 68
_cell_length_a 26.822677
_cell_length_b 9.237727
_cell_length_c 13.766237
_cell_angle_alpha 90.000000
_cell_angle_beta 90.000000
_cell_angle_gamma 90.000000
_cell_volume 3411.006017
_symmetry_space_group_name_H-M "C C C M"
_symmetry_group_IT_number 66
_symmetry_cell_setting 'orthorhombic'
loop_
_space_group_symop_operation_xyz
x,y,z
-x,-y,z
x,-y,1/2-z
-x,y,1/2-z
-x,-y,-z
x,y,-z
-x,y,1/2+z
x,-y,1/2+z
1/2+x,1/2+y,z
1/2-x,1/2-y,z
1/2+x,1/2-y,1/2-z
1/2-x,1/2+y,1/2-z
1/2-x,1/2-y,-z
1/2+x,1/2+y,-z
1/2-x,1/2+y,1/2+z
1/2+x,1/2-y,1/2+z
loop_
_atom_site_type_symbol
_atom_site_label
_atom_site_fract_x
_atom_site_fract_y
_atom_site_fract_z
Si Si1 0.358941 0.139728 0.278188
Si Si2 0.000000 0.000000 0.250000
Si Si3 0.583619 0.386187 0.112463
Si Si4 0.260834 0.917190 0.115912
Si Si5 0.830787 0.129619 0.614287
O O1 0.386131 0.247728 0.351248
O O2 0.313973 0.062941 0.336296
O O3 0.340287 0.240328 0.188888
O O4 0.391728 0.000000 0.250000
O O5 0.036305 0.090777 0.319316
O O6 0.621901 0.521657 0.121748
O O7 0.569614 0.374344 0.000000
O O8 0.250000 0.750000 0.142751
O O9 0.218105 0.033720 0.141223
O O10 0.264219 0.922702 0.000000
O O11 0.825684 0.173375 0.500000
#
# Coordination Sequence:
#
# PCOD9497892 Si02
#       5
#    16   4  16  16  16
#     4  12  25  38  64  95 137 178 215 260 325 389
#     4  12  22  44  78 102 116 160 224 272 344 380
#     4  11  23  43  70  98 127 162 217 278 327 386
#     4  10  21  36  60  91 126 171 219 265 321 379
#     4  10  22  41  63  92 130 172 221 270 318 386
#
# _framework density 19.935466999999999
#
# number of rings (size 3 to 8) (size 9 to 14) (size 15 to 20)
#    0.000    1.176    4.706    1.059    3.294    1.882 
#    0.000    2.941    0.000    1.412    0.000    0.000 
#    0.000    0.000    0.000    0.000    0.000    0.000 
#
# Total GULP energy -189957.254889 kJ/mol
# GULP energy per Si atom -5586.978085 kJ/mol
# Density = 1.989009 g / cm^3
# Si number density = 19.935467 Si / 1000 Ang^3
#
#
#
# Elastic Constant Matrix: (Units=GPa)
#
#
# Indices 1 2 3 4 5 6 
#
# 1 93.0649 28.1460 47.2513 0.0000 0.0000 0.0000
# 2 28.1460 121.6866 56.8674 0.0000 0.0000 0.0000
# 3 47.2513 56.8674 123.5702 0.0000 0.0000 0.0000
# 4 0.0000 0.0000 0.0000 7.5076 0.0000 0.0000
# 5 0.0000 0.0000 0.0000 0.0000 38.4401 0.0000
# 6 0.0000 0.0000 0.0000 0.0000 0.0000 -36.9208
#
#
#
# Elastic Compliance Matrix: (Units=1/GPa)
#
#
# Indices 1 2 3 4 5 6 
#
# 1 0.013411 -0.000899 -0.004714 0.000000 0.000000 0.000000
# 2 -0.000899 0.010530 -0.004502 0.000000 0.000000 0.000000
# 3 -0.004714 -0.004502 0.011967 0.000000 0.000000 0.000000
# 4 0.000000 0.000000 0.000000 0.133198 0.000000 0.000000
# 5 0.000000 0.000000 0.000000 0.000000 0.026014 0.000000
# 6 0.000000 0.000000 0.000000 0.000000 0.000000 -0.027085
#
#
# Mechanical properties :
#
#
# Convention : Reuss Voigt Hill
#
# Bulk Modulus (GPa) = 63.78790 66.98346 65.38568
# Shear Modulus (GPa) = 25.84099 15.54254 20.69176
#
# Velocity S-wave (km/s) = 3.60423 2.79524 3.22520
# Velocity P-wave (km/s) = 7.02761 6.64010 6.83660
#
# Compressibility (1/GPa) = 0.01567696
#
# Stress axis : x y z
#
# Youngs Moduli (GPa) = 74.56783 94.96983 83.56185
#
# Poissons Ratio (x) = 0.08535 0.39395
# Poissons Ratio (y) = 0.06701 0.37621
# Poissons Ratio (z) = 0.35154 0.42757
#
# Static dielectric constant tensor:
#      x y z
#    x 1.714800 0.000000 0.000000 
#    y 0.000000 1.803590 0.000000 
#    z 0.000000 0.000000 1.735500 
# 
# From -- ./inp_files/32942.got.cif
#   From: 2010.05.17/outbox.cif.g08.bks.cpg/sg66_17_cif.got.tgz:32942.got - 2010.06.03 17:51:23.
