data_PCOD9497632
_publ_section_title
;
Structure prediction by ZEFSAII (Michael W. Deem and Ramdas Pophale) SiO2 
 PCOD9497632
Probable space group: C C C M
;
_chemical_formula_sum "Si O2"
_cell_formula_units_Z 116
_cell_length_a 8.505462
_cell_length_b 22.310910
_cell_length_c 29.078633
_cell_angle_alpha 90.000000
_cell_angle_beta 90.000000
_cell_angle_gamma 90.000000
_cell_volume 5518.095078
_symmetry_space_group_name_H-M "C C C M"
_symmetry_group_IT_number 66
_symmetry_cell_setting 'orthorhombic'
loop_
_space_group_symop_operation_xyz
x,y,z
-x,-y,z
x,-y,1/2-z
-x,y,1/2-z
-x,-y,-z
x,y,-z
-x,y,1/2+z
x,-y,1/2+z
1/2+x,1/2+y,z
1/2-x,1/2-y,z
1/2+x,1/2-y,1/2-z
1/2-x,1/2+y,1/2-z
1/2-x,1/2-y,-z
1/2+x,1/2+y,-z
1/2-x,1/2+y,1/2+z
1/2+x,1/2-y,1/2+z
loop_
_atom_site_type_symbol
_atom_site_label
_atom_site_fract_x
_atom_site_fract_y
_atom_site_fract_z
Si Si1 0.756665 0.414212 0.871640
Si Si2 0.016380 0.572013 0.449571
Si Si3 0.390490 0.212320 0.837187
Si Si4 0.395486 0.709353 0.100912
Si Si5 0.192893 0.140314 0.909756
Si Si6 0.006649 0.411742 0.801320
Si Si7 0.000000 0.000000 0.750000
Si Si8 0.182457 0.038804 0.839096
O O1 0.897383 0.411995 0.908922
O O2 0.674487 0.351889 0.880000
O O3 0.666759 0.477779 0.868972
O O4 0.835078 0.414530 0.821971
O O5 0.964962 0.594447 0.500000
O O6 0.000000 0.500000 0.450664
O O7 0.191718 0.598718 0.440731
O O8 0.250000 0.250000 0.814746
O O9 0.529923 0.252683 0.857077
O O10 0.311805 0.183943 0.882996
O O11 0.440704 0.157196 0.806045
O O12 0.250000 0.750000 0.081170
O O13 0.548211 0.682179 0.072636
O O14 0.130800 0.094917 0.870127
O O15 0.132310 0.449551 0.830429
O O16 0.000000 0.432530 0.750000
O O17 0.895417 0.964209 0.788173
#
# Coordination Sequence:
#
# PCOD9497632 Si02
#       8
#    16  16  16  16  16  16   4  16
#     4  12  21  40  65  94 136 168 213 272 333 394
#     4  11  21  40  70 100 130 168 218 270 336 417
#     4   9  19  38  59  83 121 172 221 261 313 382
#     4  11  21  37  65  90 122 178 213 266 324 391
#     4  10  20  39  66  91 126 168 215 273 330 390
#     4  11  21  36  60  90 122 170 213 264 318 389
#     4  12  24  36  54  96 138 168 218 260 308 414
#     4  11  22  38  58  90 128 167 209 265 327 383
#
# _framework density 21.021747000000001
#
# number of rings (size 3 to 8) (size 9 to 14) (size 15 to 20)
#    0.000    1.241    5.517    2.069    0.000    0.552 
#    2.483    0.690    3.034   16.138    0.000    0.000 
#    0.000    0.000    0.000    0.000    0.000    0.000 
#
# Total GULP energy -323067.392631 kJ/mol
# GULP energy per Si atom -5570.127459 kJ/mol
# Density = 2.097390 g / cm^3
# Si number density = 21.021747 Si / 1000 Ang^3
#
#
#
# Elastic Constant Matrix: (Units=GPa)
#
#
# Indices 1 2 3 4 5 6 
#
# 1 95.1827 46.0397 17.9947 0.0000 0.0000 0.0000
# 2 46.0397 128.2402 10.4264 0.0000 0.0000 0.0000
# 3 17.9947 10.4264 64.1053 0.0000 0.0000 0.0000
# 4 0.0000 0.0000 0.0000 11.8466 0.0000 0.0000
# 5 0.0000 0.0000 0.0000 0.0000 3.3722 0.0000
# 6 0.0000 0.0000 0.0000 0.0000 0.0000 60.8137
#
#
#
# Elastic Compliance Matrix: (Units=1/GPa)
#
#
# Indices 1 2 3 4 5 6 
#
# 1 0.013255 -0.004516 -0.002986 0.000000 0.000000 0.000000
# 2 -0.004516 0.009441 -0.000268 0.000000 0.000000 0.000000
# 3 -0.002986 -0.000268 0.016481 0.000000 0.000000 0.000000
# 4 0.000000 0.000000 0.000000 0.084413 0.000000 0.000000
# 5 0.000000 0.000000 0.000000 0.000000 0.296545 0.000000
# 6 0.000000 0.000000 0.000000 0.000000 0.000000 0.016444
#
#
# Mechanical properties :
#
#
# Convention : Reuss Voigt Hill
#
# Bulk Modulus (GPa) = 42.30658 48.49442 45.40050
# Shear Modulus (GPa) = 10.86964 29.41098 20.14031
#
# Velocity S-wave (km/s) = 2.27638 3.74448 3.09863
# Velocity P-wave (km/s) = 5.20365 6.46634 5.86905
#
# Compressibility (1/GPa) = 0.02363699
#
# Stress axis : x y z
#
# Youngs Moduli (GPa) = 75.44318 105.92204 60.67537
#
# Poissons Ratio (x) = 0.47833 0.18119
# Poissons Ratio (y) = 0.34069 0.01625
# Poissons Ratio (z) = 0.22529 0.02837
#
# Static dielectric constant tensor:
#      x y z
#    x 1.962020 0.000000 0.000000 
#    y 0.000000 1.806080 0.000000 
#    z 0.000000 0.000000 1.706090 
# 
# From -- ./inp_files/68348.got.cif
#   From: 2010.05.17/outbox.cif.g08.bks.cpg/sg66_35_cif.got.tgz:68348.got - 2010.06.03 17:51:23.
