data_PCOD9497919
_publ_section_title
;
Structure prediction by ZEFSAII (Michael W. Deem and Ramdas Pophale) SiO2 
 PCOD9497919
Probable space group: C C C M
;
_chemical_formula_sum "Si O2"
_cell_formula_units_Z 96
_cell_length_a 8.144742
_cell_length_b 28.783133
_cell_length_c 18.068313
_cell_angle_alpha 90.000000
_cell_angle_beta 90.000000
_cell_angle_gamma 90.000000
_cell_volume 4235.776158
_symmetry_space_group_name_H-M "C C C M"
_symmetry_group_IT_number 66
_symmetry_cell_setting 'orthorhombic'
loop_
_space_group_symop_operation_xyz
x,y,z
-x,-y,z
x,-y,1/2-z
-x,y,1/2-z
-x,-y,-z
x,y,-z
-x,y,1/2+z
x,-y,1/2+z
1/2+x,1/2+y,z
1/2-x,1/2-y,z
1/2+x,1/2-y,1/2-z
1/2-x,1/2+y,1/2-z
1/2-x,1/2-y,-z
1/2+x,1/2+y,-z
1/2-x,1/2+y,1/2+z
1/2+x,1/2-y,1/2+z
loop_
_atom_site_type_symbol
_atom_site_label
_atom_site_fract_x
_atom_site_fract_y
_atom_site_fract_z
Si Si1 0.262483 0.145774 0.413290
Si Si2 0.327967 0.982270 0.665449
Si Si3 0.608287 0.802416 0.913662
Si Si4 0.628080 0.554816 0.586425
Si Si5 0.074883 0.776974 0.828276
Si Si6 0.779165 0.105700 0.588199
O O1 0.219838 0.144795 0.500000
O O2 0.441401 0.167537 0.406589
O O3 0.260502 0.092994 0.386996
O O4 0.131232 0.178610 0.374332
O O5 0.173874 0.008090 0.628082
O O6 0.500000 0.000000 0.632633
O O7 0.324358 0.000000 0.750000
O O8 0.316459 0.928073 0.644790
O O9 0.558650 0.756350 0.868642
O O10 0.747832 0.840086 0.892731
O O11 0.629740 0.790235 0.000000
O O12 0.644766 0.543535 0.500000
O O13 0.461993 0.584742 0.594204
O O14 0.250000 0.750000 0.818561
O O15 0.000000 0.789889 0.750000
O O16 0.731224 0.100863 0.500000
#
# Coordination Sequence:
#
# PCOD9497919 Si02
#       6
#    16  16  16  16  16  16
#     4   9  18  36  61  85 112 153 206 252 295 356
#     4  11  24  41  58  86 121 159 202 247 302 362
#     4   9  18  36  61  86 113 155 205 252 299 355
#     4  10  21  38  61  89 119 154 199 250 303 362
#     4  10  21  37  55  85 122 159 200 249 309 367
#     4  10  21  38  61  89 118 153 198 249 305 362
#
# _framework density 22.664086999999999
#
# number of rings (size 3 to 8) (size 9 to 14) (size 15 to 20)
#    0.000    2.167    0.000    2.500    0.000    8.667 
#   12.000    0.000    0.000    5.000    0.000    0.000 
#    0.000    0.000    0.000    0.000    0.000    0.000 
#
# Total GULP energy -267954.170869 kJ/mol
# GULP energy per Si atom -5582.378560 kJ/mol
# Density = 2.261250 g / cm^3
# Si number density = 22.664087 Si / 1000 Ang^3
#
#
#
# Elastic Constant Matrix: (Units=GPa)
#
#
# Indices 1 2 3 4 5 6 
#
# 1 99.9328 32.2550 22.3197 0.0000 0.0000 0.0000
# 2 32.2550 116.4260 22.1685 0.0000 0.0000 0.0000
# 3 22.3197 22.1685 34.2066 0.0000 0.0000 0.0000
# 4 0.0000 0.0000 0.0000 -11.5047 0.0000 0.0000
# 5 0.0000 0.0000 0.0000 0.0000 -4.9603 0.0000
# 6 0.0000 0.0000 0.0000 0.0000 0.0000 34.3940
#
#
#
# Elastic Compliance Matrix: (Units=1/GPa)
#
#
# Indices 1 2 3 4 5 6 
#
# 1 0.012155 -0.002119 -0.006558 0.000000 0.000000 0.000000
# 2 -0.002119 0.010168 -0.005207 0.000000 0.000000 0.000000
# 3 -0.006558 -0.005207 0.036888 0.000000 0.000000 0.000000
# 4 0.000000 0.000000 0.000000 -0.086921 0.000000 0.000000
# 5 0.000000 0.000000 0.000000 0.000000 -0.201600 0.000000
# 6 0.000000 0.000000 0.000000 0.000000 0.000000 0.029075
#
#
# Mechanical properties :
#
#
# Convention : Reuss Voigt Hill
#
# Bulk Modulus (GPa) = 31.80359 44.89466 38.34912
# Shear Modulus (GPa) = -30.86674 15.17394 -7.84640
#
# Velocity S-wave (km/s) = -3.69443 2.59031 -1.86267
# Velocity P-wave (km/s) = 2.03355 5.36637 3.51160
#
# Compressibility (1/GPa) = 0.03144299
#
# Stress axis : x y z
#
# Youngs Moduli (GPa) = 82.26832 98.35180 27.10931
#
# Poissons Ratio (x) = 0.20839 0.17779
# Poissons Ratio (y) = 0.17431 0.14115
# Poissons Ratio (z) = 0.53953 0.51210
#
# Static dielectric constant tensor:
#      x y z
#    x 1.952230 0.000000 0.000000 
#    y 0.000000 1.821100 0.000000 
#    z 0.000000 0.000000 1.791400 
# 
# From -- ./inp_files/47337.got.cif
#   From: 2010.05.17/outbox.cif.g08.bks.cpg/sg66_24_cif.got.tgz:47337.got - 2010.06.03 17:51:23.
