data_PCOD9497179
_publ_section_title
;
Structure prediction by ZEFSAII (Michael W. Deem and Ramdas Pophale) SiO2 
 PCOD9497179
Probable space group: C C C M
;
_chemical_formula_sum "Si O2"
_cell_formula_units_Z 96
_cell_length_a 21.038260
_cell_length_b 28.153288
_cell_length_c 8.634871
_cell_angle_alpha 90.000000
_cell_angle_beta 90.000000
_cell_angle_gamma 90.000000
_cell_volume 5114.401219
_symmetry_space_group_name_H-M "C C C M"
_symmetry_group_IT_number 66
_symmetry_cell_setting 'orthorhombic'
loop_
_space_group_symop_operation_xyz
x,y,z
-x,-y,z
x,-y,1/2-z
-x,y,1/2-z
-x,-y,-z
x,y,-z
-x,y,1/2+z
x,-y,1/2+z
1/2+x,1/2+y,z
1/2-x,1/2-y,z
1/2+x,1/2-y,1/2-z
1/2-x,1/2+y,1/2-z
1/2-x,1/2-y,-z
1/2+x,1/2+y,-z
1/2-x,1/2+y,1/2+z
1/2+x,1/2-y,1/2+z
loop_
_atom_site_type_symbol
_atom_site_label
_atom_site_fract_x
_atom_site_fract_y
_atom_site_fract_z
Si Si1 0.930690 0.100678 0.314092
Si Si2 0.312302 0.117571 0.686814
Si Si3 0.431234 0.288903 0.186531
Si Si4 0.814436 0.276292 0.312767
Si Si5 0.805698 0.947837 0.314082
Si Si6 0.068492 0.447054 0.686026
O O1 0.931037 0.097726 0.500000
O O2 0.919757 0.156055 0.268362
O O3 0.873768 0.069522 0.247309
O O4 0.000000 0.086902 0.250000
O O5 0.311689 0.120056 0.500000
O O6 0.314971 0.170229 0.753165
O O7 0.248996 0.089210 0.735827
O O8 0.374430 0.087497 0.733067
O O9 0.500000 0.274680 0.250000
O O10 0.375178 0.254342 0.239918
O O11 0.433104 0.287760 0.000000
O O12 0.815146 0.277030 0.500000
O O13 0.750000 0.250000 0.262973
O O14 0.806616 0.949387 0.500000
O O15 0.791040 0.000000 0.250000
O O16 0.080065 0.500000 0.750000
O O17 0.065752 0.449191 0.500000
O O18 0.000000 0.431248 0.750000
#
# Coordination Sequence:
#
# PCOD9497179 Si02
#       6
#    16  16  16  16  16  16
#     4  10  20  37  60  85 114 147 183 225 273 324
#     4  10  23  39  56  81 112 145 183 228 276 327
#     4   9  19  35  56  82 111 144 181 222 269 322
#     4  10  21  37  57  81 109 143 184 227 271 322
#     4  11  23  39  58  82 111 144 184 228 276 328
#     4  10  20  36  57  82 111 144 183 225 273 327
#
# _framework density 18.770524999999999
#
# number of rings (size 3 to 8) (size 9 to 14) (size 15 to 20)
#    0.000    2.000    0.000    3.500    0.000    6.667 
#    0.000    5.000    0.000    0.000    0.000    0.000 
#    0.000    0.000    0.000    0.000    0.000    0.000 
#
# Total GULP energy -268177.037760 kJ/mol
# GULP energy per Si atom -5587.021620 kJ/mol
# Density = 1.872780 g / cm^3
# Si number density = 18.770525 Si / 1000 Ang^3
#
#
#
# Elastic Constant Matrix: (Units=GPa)
#
#
# Indices 1 2 3 4 5 6 
#
# 1 76.0194 18.4138 14.7993 0.0000 0.0000 0.0000
# 2 18.4138 41.7121 8.9566 0.0000 0.0000 0.0000
# 3 14.7993 8.9566 28.2526 0.0000 0.0000 0.0000
# 4 0.0000 0.0000 0.0000 31.1597 0.0000 0.0000
# 5 0.0000 0.0000 0.0000 0.0000 30.2762 0.0000
# 6 0.0000 0.0000 0.0000 0.0000 0.0000 42.3738
#
#
#
# Elastic Compliance Matrix: (Units=1/GPa)
#
#
# Indices 1 2 3 4 5 6 
#
# 1 0.015767 -0.005566 -0.006495 0.000000 0.000000 0.000000
# 2 -0.005566 0.027690 -0.005863 0.000000 0.000000 0.000000
# 3 -0.006495 -0.005863 0.040656 0.000000 0.000000 0.000000
# 4 0.000000 0.000000 0.000000 0.032093 0.000000 0.000000
# 5 0.000000 0.000000 0.000000 0.000000 0.033029 0.000000
# 6 0.000000 0.000000 0.000000 0.000000 0.000000 0.023599
#
#
# Mechanical properties :
#
#
# Convention : Reuss Voigt Hill
#
# Bulk Modulus (GPa) = 20.71845 25.59150 23.15497
# Shear Modulus (GPa) = 22.24506 27.68289 24.96398
#
# Velocity S-wave (km/s) = 3.44627 3.84449 3.65081
# Velocity P-wave (km/s) = 5.18627 5.77670 5.48943
#
# Compressibility (1/GPa) = 0.04826617
#
# Stress axis : x y z
#
# Youngs Moduli (GPa) = 63.42318 36.11447 24.59685
#
# Poissons Ratio (x) = 0.20101 0.15975
# Poissons Ratio (y) = 0.35300 0.14420
# Poissons Ratio (z) = 0.41191 0.21173
#
# Static dielectric constant tensor:
#      x y z
#    x 1.636090 0.000000 0.000000 
#    y 0.000000 1.614840 0.000000 
#    z 0.000000 0.000000 1.638690 
# 
# From -- ./inp_files/8027.got.cif
#   From: 2010.05.17/outbox.cif.g08.bks.cpg/sg66_5_cif.got.tgz:8027.got - 2010.06.03 17:51:23.
