data_PCOD9497768
_publ_section_title
;
Structure prediction by ZEFSAII (Michael W. Deem and Ramdas Pophale) SiO2 
 PCOD9497768
Probable space group: C C C M
;
_chemical_formula_sum "Si O2"
_cell_formula_units_Z 88
_cell_length_a 19.216949
_cell_length_b 10.796844
_cell_length_c 20.311947
_cell_angle_alpha 90.000000
_cell_angle_beta 90.000000
_cell_angle_gamma 90.000000
_cell_volume 4214.371523
_symmetry_space_group_name_H-M "C C C M"
_symmetry_group_IT_number 66
_symmetry_cell_setting 'orthorhombic'
loop_
_space_group_symop_operation_xyz
x,y,z
-x,-y,z
x,-y,1/2-z
-x,y,1/2-z
-x,-y,-z
x,y,-z
-x,y,1/2+z
x,-y,1/2+z
1/2+x,1/2+y,z
1/2-x,1/2-y,z
1/2+x,1/2-y,1/2-z
1/2-x,1/2+y,1/2-z
1/2-x,1/2-y,-z
1/2+x,1/2+y,-z
1/2-x,1/2+y,1/2+z
1/2+x,1/2-y,1/2+z
loop_
_atom_site_type_symbol
_atom_site_label
_atom_site_fract_x
_atom_site_fract_y
_atom_site_fract_z
Si Si1 0.070366 0.665679 0.000000
Si Si2 0.608868 0.281640 0.621866
Si Si3 0.951457 0.200094 0.868908
Si Si4 0.250000 0.750000 0.174003
Si Si5 0.833845 0.977542 0.671481
Si Si6 0.388913 0.145802 0.259640
Si Si7 0.402757 0.884717 0.500000
O O1 0.084272 0.744460 0.934429
O O2 0.107562 0.532211 0.000000
O O3 0.987019 0.636222 0.000000
O O4 0.530116 0.331565 0.611589
O O5 0.662263 0.393439 0.633269
O O6 0.602359 0.209584 0.689940
O O7 0.625271 0.186243 0.563956
O O8 0.909181 0.086820 0.837627
O O9 0.944370 0.307634 0.813730
O O10 0.218917 0.875121 0.142393
O O11 0.314888 0.803219 0.214749
O O12 0.820860 0.000000 0.750000
O O13 0.389699 0.000000 0.250000
#
# Coordination Sequence:
#
# PCOD9497768 Si02
#       7
#     8  16  16   8  16  16   8
#     4   9  18  37  55  83 129 172 195 242 300 385
#     4  11  21  36  59  91 122 161 196 254 309 367
#     4  10  21  34  58  90 124 160 198 241 322 365
#     4  10  22  40  56  84 110 158 208 246 324 346
#     4  11  21  38  59  88 119 158 196 263 301 368
#     4  11  22  34  58  88 115 160 203 263 296 370
#     4   9  20  35  57  84 128 166 204 242 301 375
#
# _framework density 20.880931
#
# number of rings (size 3 to 8) (size 9 to 14) (size 15 to 20)
#    0.000    1.636    3.636    2.727    0.000    4.364 
#    0.000    2.727    0.000   14.182    0.000    0.000 
#    0.000    0.000    0.000    0.000    0.000    0.000 
#
# Total GULP energy -245498.440168 kJ/mol
# GULP energy per Si atom -5579.510004 kJ/mol
# Density = 2.083341 g / cm^3
# Si number density = 20.880931 Si / 1000 Ang^3
#
#
#
# Elastic Constant Matrix: (Units=GPa)
#
#
# Indices 1 2 3 4 5 6 
#
# 1 42.1901 13.8046 -1.8747 0.0000 0.0000 0.0000
# 2 13.8046 135.5713 39.2411 0.0000 0.0000 0.0000
# 3 -1.8747 39.2411 104.8543 0.0000 0.0000 0.0000
# 4 0.0000 0.0000 0.0000 8.8541 0.0000 0.0000
# 5 0.0000 0.0000 0.0000 0.0000 0.5321 0.0000
# 6 0.0000 0.0000 0.0000 0.0000 0.0000 31.8057
#
#
#
# Elastic Compliance Matrix: (Units=1/GPa)
#
#
# Indices 1 2 3 4 5 6 
#
# 1 0.024743 -0.002969 0.001554 0.000000 0.000000 0.000000
# 2 -0.002969 0.008629 -0.003282 0.000000 0.000000 0.000000
# 3 0.001554 -0.003282 0.010793 0.000000 0.000000 0.000000
# 4 0.000000 0.000000 0.000000 0.112942 0.000000 0.000000
# 5 0.000000 0.000000 0.000000 0.000000 1.879247 0.000000
# 6 0.000000 0.000000 0.000000 0.000000 0.000000 0.031441
#
#
# Mechanical properties :
#
#
# Convention : Reuss Voigt Hill
#
# Bulk Modulus (GPa) = 28.76138 42.77306 35.76722
# Shear Modulus (GPa) = 2.39374 23.66803 13.03089
#
# Velocity S-wave (km/s) = 1.07185 3.37037 2.50082
# Velocity P-wave (km/s) = 3.91608 5.97282 5.05026
#
# Compressibility (1/GPa) = 0.03476885
#
# Stress axis : x y z
#
# Youngs Moduli (GPa) = 40.41589 115.89398 92.65096
#
# Poissons Ratio (x) = 0.34410 -0.14394
# Poissons Ratio (y) = 0.12000 0.30411
# Poissons Ratio (z) = -0.06279 0.38040
#
# Static dielectric constant tensor:
#      x y z
#    x 1.804010 0.000000 0.000000 
#    y 0.000000 1.769030 0.000000 
#    z 0.000000 0.000000 1.713160 
# 
# From -- ./inp_files/42824.got.cif
#   From: 2010.05.17/outbox.cif.g08.bks.cpg/sg66_22_cif.got.tgz:42824.got - 2010.06.03 17:51:23.
