data_PCOD9497106
_publ_section_title
;
Structure prediction by ZEFSAII (Michael W. Deem and Ramdas Pophale) SiO2 
 PCOD9497106
Probable space group: C C C M
;
_chemical_formula_sum "Si O2"
_cell_formula_units_Z 80
_cell_length_a 9.934932
_cell_length_b 21.753495
_cell_length_c 17.621056
_cell_angle_alpha 90.000000
_cell_angle_beta 90.000000
_cell_angle_gamma 90.000000
_cell_volume 3808.253699
_symmetry_space_group_name_H-M "C C C M"
_symmetry_group_IT_number 66
_symmetry_cell_setting 'orthorhombic'
loop_
_space_group_symop_operation_xyz
x,y,z
-x,-y,z
x,-y,1/2-z
-x,y,1/2-z
-x,-y,-z
x,y,-z
-x,y,1/2+z
x,-y,1/2+z
1/2+x,1/2+y,z
1/2-x,1/2-y,z
1/2+x,1/2-y,1/2-z
1/2-x,1/2+y,1/2-z
1/2-x,1/2-y,-z
1/2+x,1/2+y,-z
1/2-x,1/2+y,1/2+z
1/2+x,1/2-y,1/2+z
loop_
_atom_site_type_symbol
_atom_site_label
_atom_site_fract_x
_atom_site_fract_y
_atom_site_fract_z
Si Si1 0.261953 0.818228 0.156911
Si Si2 0.913485 0.945921 0.172561
Si Si3 0.050671 0.685411 0.588583
Si Si4 0.856971 0.410959 0.285475
Si Si5 0.468507 0.677079 0.410495
O O1 0.250000 0.750000 0.192534
O O2 0.389315 0.818076 0.100753
O O3 0.286895 0.869145 0.220567
O O4 0.125299 0.827178 0.111372
O O5 0.756123 0.959446 0.187813
O O6 0.907569 0.881831 0.129364
O O7 0.000000 0.936413 0.250000
O O8 0.000000 0.000000 0.133025
O O9 0.085756 0.676984 0.500000
O O10 0.108581 0.634308 0.644459
O O11 0.415142 0.744473 0.612898
O O12 0.000000 0.431612 0.250000
O O13 0.450631 0.673596 0.500000
#
# Coordination Sequence:
#
# PCOD9497106 Si02
#       5
#    16  16  16  16  16
#     4   9  17  31  56  87 120 158 201 241 301 372
#     4  11  24  41  60  83 118 157 210 263 296 350
#     4   9  19  33  55  91 129 159 193 245 308 376
#     4  10  21  37  62  90 120 159 200 249 312 370
#     4  10  20  35  59  88 124 166 202 247 307 366
#
# _framework density 21.007003999999998
#
# number of rings (size 3 to 8) (size 9 to 14) (size 15 to 20)
#    0.000    2.200    2.000    0.600    2.800    4.400 
#    0.000    4.000    0.000    0.000    0.000    4.200 
#    0.000    0.000    0.000    0.000    0.000    0.000 
#
# Total GULP energy -223242.938499 kJ/mol
# GULP energy per Si atom -5581.073462 kJ/mol
# Density = 2.095919 g / cm^3
# Si number density = 21.007004 Si / 1000 Ang^3
#
#
#
# Elastic Constant Matrix: (Units=GPa)
#
#
# Indices 1 2 3 4 5 6 
#
# 1 152.4302 41.3429 14.5633 0.0000 0.0000 0.0000
# 2 41.3429 79.4060 29.5003 0.0000 0.0000 0.0000
# 3 14.5633 29.5003 64.8755 0.0000 0.0000 0.0000
# 4 0.0000 0.0000 0.0000 32.3139 0.0000 0.0000
# 5 0.0000 0.0000 0.0000 0.0000 5.0796 0.0000
# 6 0.0000 0.0000 0.0000 0.0000 0.0000 5.7127
#
#
#
# Elastic Compliance Matrix: (Units=1/GPa)
#
#
# Indices 1 2 3 4 5 6 
#
# 1 0.007640 -0.004020 0.000113 0.000000 0.000000 0.000000
# 2 -0.004020 0.017268 -0.006950 0.000000 0.000000 0.000000
# 3 0.000113 -0.006950 0.018549 0.000000 0.000000 0.000000
# 4 0.000000 0.000000 0.000000 0.030946 0.000000 0.000000
# 5 0.000000 0.000000 0.000000 0.000000 0.196865 0.000000
# 6 0.000000 0.000000 0.000000 0.000000 0.000000 0.175048
#
#
# Mechanical properties :
#
#
# Convention : Reuss Voigt Hill
#
# Bulk Modulus (GPa) = 45.99022 51.94719 48.96870
# Shear Modulus (GPa) = 10.52016 22.70825 16.61421
#
# Velocity S-wave (km/s) = 2.24027 3.29140 2.81533
# Velocity P-wave (km/s) = 5.35089 6.26312 5.82489
#
# Compressibility (1/GPa) = 0.02174375
#
# Stress axis : x y z
#
# Youngs Moduli (GPa) = 130.89324 57.90950 53.91088
#
# Poissons Ratio (x) = 0.23277 -0.00608
# Poissons Ratio (y) = 0.52614 0.37468
# Poissons Ratio (z) = -0.01477 0.40247
#
# Static dielectric constant tensor:
#      x y z
#    x 1.863540 0.000000 0.000000 
#    y 0.000000 1.811060 0.000000 
#    z 0.000000 0.000000 1.711240 
# 
# From -- ./inp_files/36964.got.cif
#   From: 2010.05.17/outbox.cif.g08.bks.cpg/sg66_19_cif.got.tgz:36964.got - 2010.06.03 17:51:23.
