data_PCOD9497436
_publ_section_title
;
Structure prediction by ZEFSAII (Michael W. Deem and Ramdas Pophale) SiO2 
 PCOD9497436
Probable space group: C C C M
;
_chemical_formula_sum "Si O2"
_cell_formula_units_Z 96
_cell_length_a 19.688970
_cell_length_b 13.432880
_cell_length_c 19.049975
_cell_angle_alpha 90.000000
_cell_angle_beta 90.000000
_cell_angle_gamma 90.000000
_cell_volume 5038.329222
_symmetry_space_group_name_H-M "C C C M"
_symmetry_group_IT_number 66
_symmetry_cell_setting 'orthorhombic'
loop_
_space_group_symop_operation_xyz
x,y,z
-x,-y,z
x,-y,1/2-z
-x,y,1/2-z
-x,-y,-z
x,y,-z
-x,y,1/2+z
x,-y,1/2+z
1/2+x,1/2+y,z
1/2-x,1/2-y,z
1/2+x,1/2-y,1/2-z
1/2-x,1/2+y,1/2-z
1/2-x,1/2-y,-z
1/2+x,1/2+y,-z
1/2-x,1/2+y,1/2+z
1/2+x,1/2-y,1/2+z
loop_
_atom_site_type_symbol
_atom_site_label
_atom_site_fract_x
_atom_site_fract_y
_atom_site_fract_z
Si Si1 0.947788 0.689768 0.915139
Si Si2 0.184680 0.198439 0.080013
Si Si3 0.889028 0.500928 0.165688
Si Si4 0.944454 0.288843 0.813209
Si Si5 0.227707 0.976711 0.649184
Si Si6 0.309722 0.668102 0.220538
O O1 0.884076 0.757238 0.891469
O O2 0.932337 0.582764 0.877375
O O3 0.011093 0.745170 0.879515
O O4 0.952989 0.679605 0.000000
O O5 0.250000 0.250000 0.114258
O O6 0.197511 0.081791 0.083673
O O7 0.182836 0.232749 0.000000
O O8 0.898450 0.500000 0.250000
O O9 0.911067 0.388198 0.153213
O O10 0.809542 0.520745 0.150717
O O11 0.882795 0.220870 0.785597
O O12 0.000000 0.305581 0.750000
O O13 0.201605 0.903244 0.711780
O O14 0.201153 0.087707 0.658868
O O15 0.250000 0.750000 0.218831
#
# Coordination Sequence:
#
# PCOD9497436 Si02
#       6
#    16  16  16  16  16  16
#     4  11  25  42  63  94 132 169 210 259 316 378
#     4  10  20  37  62  90 121 161 208 257 305 369
#     4  12  21  37  61  96 129 162 200 262 324 371
#     4  12  24  39  62  91 129 168 208 255 318 381
#     4  11  21  36  64  93 123 156 212 263 312 369
#     4  11  22  39  60  89 123 165 205 261 312 368
#
# _framework density 19.053934999999999
#
# number of rings (size 3 to 8) (size 9 to 14) (size 15 to 20)
#    0.000    0.833    6.667    2.000    0.000    1.333 
#    0.000    6.667    0.000    3.000    0.000    0.000 
#    0.000    0.000    0.000    0.000    0.000    0.000 
#
# Total GULP energy -267339.487491 kJ/mol
# GULP energy per Si atom -5569.572656 kJ/mol
# Density = 1.901057 g / cm^3
# Si number density = 19.053935 Si / 1000 Ang^3
#
#
#
# Elastic Constant Matrix: (Units=GPa)
#
#
# Indices 1 2 3 4 5 6 
#
# 1 149.0857 58.8934 34.7168 0.0000 0.0000 0.0000
# 2 58.8934 94.0399 17.3626 0.0000 0.0000 0.0000
# 3 34.7168 17.3626 65.8854 0.0000 0.0000 0.0000
# 4 0.0000 0.0000 0.0000 20.6364 0.0000 0.0000
# 5 0.0000 0.0000 0.0000 0.0000 19.2608 0.0000
# 6 0.0000 0.0000 0.0000 0.0000 0.0000 34.0942
#
#
#
# Elastic Compliance Matrix: (Units=1/GPa)
#
#
# Indices 1 2 3 4 5 6 
#
# 1 0.009696 -0.005391 -0.003688 0.000000 0.000000 0.000000
# 2 -0.005391 0.014175 -0.000895 0.000000 0.000000 0.000000
# 3 -0.003688 -0.000895 0.017357 0.000000 0.000000 0.000000
# 4 0.000000 0.000000 0.000000 0.048458 0.000000 0.000000
# 5 0.000000 0.000000 0.000000 0.000000 0.051919 0.000000
# 6 0.000000 0.000000 0.000000 0.000000 0.000000 0.029330
#
#
# Mechanical properties :
#
#
# Convention : Reuss Voigt Hill
#
# Bulk Modulus (GPa) = 46.99308 58.99518 52.99413
# Shear Modulus (GPa) = 25.25527 28.00083 26.62805
#
# Velocity S-wave (km/s) = 3.64464 3.83764 3.74238
# Velocity P-wave (km/s) = 6.51367 7.11801 6.82254
#
# Compressibility (1/GPa) = 0.02127973
#
# Stress axis : x y z
#
# Youngs Moduli (GPa) = 103.13319 70.54498 57.61296
#
# Poissons Ratio (x) = 0.38033 0.21250
# Poissons Ratio (y) = 0.55603 0.05155
# Poissons Ratio (z) = 0.38040 0.06312
#
# Static dielectric constant tensor:
#      x y z
#    x 1.700450 0.000000 0.000000 
#    y 0.000000 1.720590 0.000000 
#    z 0.000000 0.000000 1.816220 
# 
# From -- ./inp_files/51822.got.cif
#   From: 2010.05.17/outbox.cif.g08.bks.cpg/sg66_26_cif.got.tgz:51822.got - 2010.06.03 17:51:23.
