data_PCOD9497288
_publ_section_title
;
Structure prediction by ZEFSAII (Michael W. Deem and Ramdas Pophale) SiO2 
 PCOD9497288
Probable space group: C C C M
;
_chemical_formula_sum "Si O2"
_cell_formula_units_Z 112
_cell_length_a 14.065070
_cell_length_b 24.487138
_cell_length_c 14.847408
_cell_angle_alpha 90.000000
_cell_angle_beta 90.000000
_cell_angle_gamma 90.000000
_cell_volume 5113.644935
_symmetry_space_group_name_H-M "C C C M"
_symmetry_group_IT_number 66
_symmetry_cell_setting 'orthorhombic'
loop_
_space_group_symop_operation_xyz
x,y,z
-x,-y,z
x,-y,1/2-z
-x,y,1/2-z
-x,-y,-z
x,y,-z
-x,y,1/2+z
x,-y,1/2+z
1/2+x,1/2+y,z
1/2-x,1/2-y,z
1/2+x,1/2-y,1/2-z
1/2-x,1/2+y,1/2-z
1/2-x,1/2-y,-z
1/2+x,1/2+y,-z
1/2-x,1/2+y,1/2+z
1/2+x,1/2-y,1/2+z
loop_
_atom_site_type_symbol
_atom_site_label
_atom_site_fract_x
_atom_site_fract_y
_atom_site_fract_z
Si Si1 0.005556 0.776426 0.142755
Si Si2 0.298600 0.882260 0.250588
Si Si3 0.674783 0.350308 0.396285
Si Si4 0.959491 0.945136 0.104100
Si Si5 0.355468 0.369627 0.600852
Si Si6 0.445623 0.155284 0.598699
Si Si7 0.447149 0.053679 0.155125
O O1 0.911708 0.807502 0.107730
O O2 0.000000 0.778056 0.250000
O O3 0.101858 0.808971 0.115822
O O4 0.010583 0.714853 0.109587
O O5 0.258362 0.840599 0.325578
O O6 0.215433 0.890417 0.177318
O O7 0.379065 0.856287 0.185414
O O8 0.339803 0.934230 0.308231
O O9 0.705741 0.355052 0.500000
O O10 0.627521 0.408067 0.363373
O O11 0.049567 0.905547 0.104380
O O12 0.933537 0.958374 0.000000
O O13 0.000000 0.000000 0.147309
O O14 0.315930 0.374399 0.500000
O O15 0.398067 0.152651 0.500000
O O16 0.523571 0.107409 0.601570
O O17 0.500000 0.055971 0.250000
O O18 0.500000 0.000000 0.113056
#
# Coordination Sequence:
#
# PCOD9497288 Si02
#       7
#    16  16  16  16  16  16  16
#     4  11  20  40  67  93 136 182 213 260 336 414
#     4  11  22  41  64  99 129 161 220 281 327 382
#     4  10  21  39  64  96 132 173 218 269 336 404
#     4   8  16  34  56  86 131 173 211 257 319 397
#     4  10  20  36  61  94 136 177 214 264 326 393
#     4  11  24  43  67  94 125 170 224 271 336 410
#     4   9  21  45  67  86 124 173 222 277 330 390
#
# _framework density 21.902184999999999
#
# number of rings (size 3 to 8) (size 9 to 14) (size 15 to 20)
#    0.000    2.000    1.429    3.857    0.000    1.429 
#   12.857    2.143    0.000    3.857    0.000    0.000 
#    0.000    0.000    0.000    0.000    0.000    0.000 
#
# Total GULP energy -311841.454191 kJ/mol
# GULP energy per Si atom -5568.597396 kJ/mol
# Density = 2.185234 g / cm^3
# Si number density = 21.902185 Si / 1000 Ang^3
#
#
#
# Elastic Constant Matrix: (Units=GPa)
#
#
# Indices 1 2 3 4 5 6 
#
# 1 81.2079 20.7753 49.2199 0.0000 0.0000 0.0000
# 2 20.7753 124.3916 27.1066 0.0000 0.0000 0.0000
# 3 49.2199 27.1066 144.9167 0.0000 0.0000 0.0000
# 4 0.0000 0.0000 0.0000 10.1449 0.0000 0.0000
# 5 0.0000 0.0000 0.0000 0.0000 57.1888 0.0000
# 6 0.0000 0.0000 0.0000 0.0000 0.0000 10.0826
#
#
#
# Elastic Compliance Matrix: (Units=1/GPa)
#
#
# Indices 1 2 3 4 5 6 
#
# 1 0.015781 -0.001530 -0.005074 0.000000 0.000000 0.000000
# 2 -0.001530 0.008529 -0.001076 0.000000 0.000000 0.000000
# 3 -0.005074 -0.001076 0.008825 0.000000 0.000000 0.000000
# 4 0.000000 0.000000 0.000000 0.098571 0.000000 0.000000
# 5 0.000000 0.000000 0.000000 0.000000 0.017486 0.000000
# 6 0.000000 0.000000 0.000000 0.000000 0.000000 0.099180
#
#
# Mechanical properties :
#
#
# Convention : Reuss Voigt Hill
#
# Bulk Modulus (GPa) = 56.25556 60.52443 58.39000
# Shear Modulus (GPa) = 18.54213 32.37756 25.45984
#
# Velocity S-wave (km/s) = 2.91278 3.84901 3.41315
# Velocity P-wave (km/s) = 6.08712 6.88819 6.50001
#
# Compressibility (1/GPa) = 0.01777602
#
# Stress axis : x y z
#
# Youngs Moduli (GPa) = 63.36909 117.24608 113.31531
#
# Poissons Ratio (x) = 0.17939 0.57491
# Poissons Ratio (y) = 0.09695 0.12189
# Poissons Ratio (z) = 0.32151 0.12612
#
# Static dielectric constant tensor:
#      x y z
#    x 1.871760 0.000000 0.000000 
#    y 0.000000 1.866510 0.000000 
#    z 0.000000 0.000000 1.817650 
# 
# From -- ./inp_files/28750.got.cif
#   From: 2010.05.17/outbox.cif.g08.bks.cpg/sg66_15_cif.got.tgz:28750.got - 2010.06.03 17:51:23.
