data_PCOD9497675
_publ_section_title
;
Structure prediction by ZEFSAII (Michael W. Deem and Ramdas Pophale) SiO2 
 PCOD9497675
Probable space group: C C C M
;
_chemical_formula_sum "Si O2"
_cell_formula_units_Z 80
_cell_length_a 12.508849
_cell_length_b 21.883042
_cell_length_c 14.063922
_cell_angle_alpha 90.000000
_cell_angle_beta 90.000000
_cell_angle_gamma 90.000000
_cell_volume 3849.740828
_symmetry_space_group_name_H-M "C C C M"
_symmetry_group_IT_number 66
_symmetry_cell_setting 'orthorhombic'
loop_
_space_group_symop_operation_xyz
x,y,z
-x,-y,z
x,-y,1/2-z
-x,y,1/2-z
-x,-y,-z
x,y,-z
-x,y,1/2+z
x,-y,1/2+z
1/2+x,1/2+y,z
1/2-x,1/2-y,z
1/2+x,1/2-y,1/2-z
1/2-x,1/2+y,1/2-z
1/2-x,1/2-y,-z
1/2+x,1/2+y,-z
1/2-x,1/2+y,1/2+z
1/2+x,1/2-y,1/2+z
loop_
_atom_site_type_symbol
_atom_site_label
_atom_site_fract_x
_atom_site_fract_y
_atom_site_fract_z
Si Si1 0.875527 0.734058 0.610960
Si Si2 0.382844 0.112401 0.731302
Si Si3 0.796871 0.954399 0.386921
Si Si4 0.518203 0.638841 0.615358
Si Si5 0.286866 0.598914 0.387135
O O1 0.901490 0.720605 0.500000
O O2 0.750000 0.750000 0.614774
O O3 0.897470 0.676283 0.676536
O O4 0.936463 0.795235 0.641367
O O5 0.500000 0.085930 0.750000
O O6 0.306803 0.070695 0.666301
O O7 0.315234 0.120154 0.827840
O O8 0.784364 0.944190 0.500000
O O9 0.900875 0.915498 0.356011
O O10 0.806090 0.026532 0.371428
O O11 0.516732 0.636120 0.500000
O O12 0.396284 0.630722 0.645660
O O13 0.271907 0.608513 0.500000
#
# Coordination Sequence:
#
# PCOD9497675 Si02
#       5
#    16  16  16  16  16
#     4  10  20  40  68  95 124 165 217 268 319 382
#     4  12  26  40  59  90 132 177 225 261 311 379
#     4  10  20  40  68  95 124 163 212 270 330 387
#     4   9  18  38  68  98 125 156 206 270 336 391
#     4  10  23  41  64  96 132 165 206 268 333 385
#
# _framework density 20.780619000000002
#
# number of rings (size 3 to 8) (size 9 to 14) (size 15 to 20)
#    0.000    1.800    2.000    1.800    0.000    8.000 
#    0.000    4.000    0.000    4.200    0.000    0.000 
#    0.000    0.000    0.000    0.000    0.000    0.000 
#
# Total GULP energy -223739.526911 kJ/mol
# GULP energy per Si atom -5593.488173 kJ/mol
# Density = 2.073332 g / cm^3
# Si number density = 20.780619 Si / 1000 Ang^3
#
#
#
# Elastic Constant Matrix: (Units=GPa)
#
#
# Indices 1 2 3 4 5 6 
#
# 1 163.4953 44.0959 44.9995 0.0000 0.0000 0.0000
# 2 44.0959 64.3765 48.4842 0.0000 0.0000 0.0000
# 3 44.9995 48.4842 95.8826 0.0000 0.0000 0.0000
# 4 0.0000 0.0000 0.0000 24.4912 0.0000 0.0000
# 5 0.0000 0.0000 0.0000 0.0000 29.3199 0.0000
# 6 0.0000 0.0000 0.0000 0.0000 0.0000 -1.1909
#
#
#
# Elastic Compliance Matrix: (Units=1/GPa)
#
#
# Indices 1 2 3 4 5 6 
#
# 1 0.007637 -0.004089 -0.001516 0.000000 0.000000 0.000000
# 2 -0.004089 0.027277 -0.011874 0.000000 0.000000 0.000000
# 3 -0.001516 -0.011874 0.017145 0.000000 0.000000 0.000000
# 4 0.000000 0.000000 0.000000 0.040831 0.000000 0.000000
# 5 0.000000 0.000000 0.000000 0.000000 0.034106 0.000000
# 6 0.000000 0.000000 0.000000 0.000000 0.000000 -0.839674
#
#
# Mechanical properties :
#
#
# Convention : Reuss Voigt Hill
#
# Bulk Modulus (GPa) = 58.47779 66.54594 62.51186
# Shear Modulus (GPa) = -7.44027 22.93569 7.74771
#
# Velocity S-wave (km/s) = -1.89424 3.32581 1.93298
# Velocity P-wave (km/s) = 4.83915 6.84402 5.92697
#
# Compressibility (1/GPa) = 0.01710051
#
# Stress axis : x y z
#
# Youngs Moduli (GPa) = 130.94990 36.66095 58.32473
#
# Poissons Ratio (x) = 0.14989 0.08845
# Poissons Ratio (y) = 0.53541 0.69255
# Poissons Ratio (z) = 0.19858 0.43531
#
# Static dielectric constant tensor:
#      x y z
#    x 1.714440 0.000000 0.000000 
#    y 0.000000 1.717190 0.000000 
#    z 0.000000 0.000000 1.787940 
# 
# From -- ./inp_files/26423.got.cif
#   From: 2010.05.17/outbox.cif.g08.bks.cpg/sg66_14_cif.got.tgz:26423.got - 2010.06.03 17:51:23.
