data_PCOD9497496
_publ_section_title
;
Structure prediction by ZEFSAII (Michael W. Deem and Ramdas Pophale) SiO2 
 PCOD9497496
Probable space group: C C C M
;
_chemical_formula_sum "Si O2"
_cell_formula_units_Z 96
_cell_length_a 14.930250
_cell_length_b 13.253623
_cell_length_c 22.841167
_cell_angle_alpha 90.000000
_cell_angle_beta 90.000000
_cell_angle_gamma 90.000000
_cell_volume 4519.807951
_symmetry_space_group_name_H-M "C C C M"
_symmetry_group_IT_number 66
_symmetry_cell_setting 'orthorhombic'
loop_
_space_group_symop_operation_xyz
x,y,z
-x,-y,z
x,-y,1/2-z
-x,y,1/2-z
-x,-y,-z
x,y,-z
-x,y,1/2+z
x,-y,1/2+z
1/2+x,1/2+y,z
1/2-x,1/2-y,z
1/2+x,1/2-y,1/2-z
1/2-x,1/2+y,1/2-z
1/2-x,1/2-y,-z
1/2+x,1/2+y,-z
1/2-x,1/2+y,1/2+z
1/2+x,1/2-y,1/2+z
loop_
_atom_site_type_symbol
_atom_site_label
_atom_site_fract_x
_atom_site_fract_y
_atom_site_fract_z
Si Si1 0.122579 0.325073 0.167655
Si Si2 0.565723 0.244828 0.874444
Si Si3 0.305961 0.385113 0.124041
Si Si4 0.120965 0.944270 0.191745
Si Si5 0.307381 0.150922 0.289496
Si Si6 0.366364 0.423368 0.000000
Si Si7 0.428149 0.351366 0.500000
O O1 0.200538 0.392310 0.138228
O O2 0.158685 0.210445 0.160448
O O3 0.123938 0.359602 0.235557
O O4 0.026716 0.314955 0.136692
O O5 0.572912 0.342827 0.830428
O O6 0.643088 0.171923 0.850168
O O7 0.581734 0.286552 0.939925
O O8 0.373703 0.475161 0.140156
O O9 0.318931 0.375103 0.055750
O O10 0.226657 0.925689 0.203396
O O11 0.088806 0.000000 0.250000
O O12 0.250000 0.250000 0.274588
O O13 0.367327 0.546647 0.000000
O O14 0.469547 0.389618 0.000000
#
# Coordination Sequence:
#
# PCOD9497496 Si02
#       7
#    16  16  16  16  16   8   8
#     4  11  21  38  60  92 126 156 201 255 313 375
#     4  11  23  38  62  90 123 164 203 255 310 368
#     4  11  21  37  62  85 124 164 199 244 312 371
#     4  11  21  40  65  89 123 163 203 256 319 367
#     4  10  20  38  58  88 125 153 206 257 304 378
#     4  11  22  38  58  92 127 159 209 260 303 373
#     4  11  22  39  58  90 131 155 211 265 299 365
#
# _framework density 21.239840000000001
#
# number of rings (size 3 to 8) (size 9 to 14) (size 15 to 20)
#    0.000    1.167    6.667    1.500    0.000    2.667 
#    0.000    7.917    0.000    0.000    0.000    2.333 
#    0.000    0.000    0.000    0.000    0.000    0.000 
#
# Total GULP energy -267672.640971 kJ/mol
# GULP energy per Si atom -5576.513354 kJ/mol
# Density = 2.119150 g / cm^3
# Si number density = 21.239840 Si / 1000 Ang^3
#
#
#
# Elastic Constant Matrix: (Units=GPa)
#
#
# Indices 1 2 3 4 5 6 
#
# 1 96.1672 21.0107 30.6371 0.0000 0.0000 0.0000
# 2 21.0107 22.3598 4.6530 0.0000 0.0000 0.0000
# 3 30.6371 4.6530 140.8371 0.0000 0.0000 0.0000
# 4 0.0000 0.0000 0.0000 19.9710 0.0000 0.0000
# 5 0.0000 0.0000 0.0000 0.0000 -22.1414 0.0000
# 6 0.0000 0.0000 0.0000 0.0000 0.0000 24.3780
#
#
#
# Elastic Compliance Matrix: (Units=1/GPa)
#
#
# Indices 1 2 3 4 5 6 
#
# 1 0.013988 -0.012597 -0.002627 0.000000 0.000000 0.000000
# 2 -0.012597 0.056377 0.000878 0.000000 0.000000 0.000000
# 3 -0.002627 0.000878 0.007643 0.000000 0.000000 0.000000
# 4 0.000000 0.000000 0.000000 0.050073 0.000000 0.000000
# 5 0.000000 0.000000 0.000000 0.000000 -0.045164 0.000000
# 6 0.000000 0.000000 0.000000 0.000000 0.000000 0.041021
#
#
# Mechanical properties :
#
#
# Convention : Reuss Voigt Hill
#
# Bulk Modulus (GPa) = 20.27742 41.32952 30.80347
# Shear Modulus (GPa) = 29.57404 17.97909 23.77656
#
# Velocity S-wave (km/s) = 3.73552 2.91259 3.34942
# Velocity P-wave (km/s) = 5.30783 5.55082 5.43068
#
# Compressibility (1/GPa) = 0.04931594
#
# Stress axis : x y z
#
# Youngs Moduli (GPa) = 71.49209 17.73758 130.84236
#
# Poissons Ratio (x) = 0.22344 0.34367
# Poissons Ratio (y) = 0.90059 -0.11484
# Poissons Ratio (z) = 0.18778 -0.01557
#
# Static dielectric constant tensor:
#      x y z
#    x 1.592080 0.000000 0.000000 
#    y 0.000000 1.864270 0.000000 
#    z 0.000000 0.000000 1.857550 
# 
# From -- ./inp_files/58178.got.cif
#   From: 2010.05.17/outbox.cif.g08.bks.cpg/sg66_30_cif.got.tgz:58178.got - 2010.06.03 17:51:23.
