data_PCOD9497559
_publ_section_title
;
Structure prediction by ZEFSAII (Michael W. Deem and Ramdas Pophale) SiO2 
 PCOD9497559
Probable space group: C C C M
;
_chemical_formula_sum "Si O2"
_cell_formula_units_Z 88
_cell_length_a 14.859508
_cell_length_b 13.128733
_cell_length_c 21.863515
_cell_angle_alpha 90.000000
_cell_angle_beta 90.000000
_cell_angle_gamma 90.000000
_cell_volume 4265.276904
_symmetry_space_group_name_H-M "C C C M"
_symmetry_group_IT_number 66
_symmetry_cell_setting 'orthorhombic'
loop_
_space_group_symop_operation_xyz
x,y,z
-x,-y,z
x,-y,1/2-z
-x,y,1/2-z
-x,-y,-z
x,y,-z
-x,y,1/2+z
x,-y,1/2+z
1/2+x,1/2+y,z
1/2-x,1/2-y,z
1/2+x,1/2-y,1/2-z
1/2-x,1/2+y,1/2-z
1/2-x,1/2-y,-z
1/2+x,1/2+y,-z
1/2-x,1/2+y,1/2+z
1/2+x,1/2-y,1/2+z
loop_
_atom_site_type_symbol
_atom_site_label
_atom_site_fract_x
_atom_site_fract_y
_atom_site_fract_z
Si Si1 0.210317 0.028874 0.000000
Si Si2 0.324375 0.024197 0.179205
Si Si3 0.656016 0.193870 0.872513
Si Si4 0.348267 0.705497 0.000000
Si Si5 0.683146 0.657803 0.116960
Si Si6 0.074789 0.410898 0.000000
Si Si7 0.538854 0.813941 0.133267
O O1 0.172384 0.086582 0.941196
O O2 0.321171 0.044820 0.000000
O O3 0.169661 0.914941 0.000000
O O4 0.237354 0.092615 0.165916
O O5 0.410819 0.092337 0.165049
O O6 0.324906 0.000000 0.250000
O O7 0.321972 0.926379 0.133618
O O8 0.750000 0.250000 0.855884
O O9 0.560476 0.198019 0.838565
O O10 0.620500 0.245168 0.936275
O O11 0.250000 0.750000 0.000000
O O12 0.750000 0.750000 0.098279
O O13 0.593653 0.709959 0.140818
O O14 0.055200 0.345926 0.938644
O O15 0.000000 0.500000 0.000000
#
# Coordination Sequence:
#
# PCOD9497559 Si02
#       7
#     8  16  16   8  16   8  16
#     4  12  20  39  61  95 132 166 202 256 318 380
#     4  11  24  43  66  92 122 162 213 269 322 372
#     4  11  24  41  62  92 130 169 208 261 318 380
#     4  10  23  35  57  88 131 165 203 244 317 384
#     4  10  20  38  64  94 126 162 207 262 315 381
#     4  12  22  31  65  98 132 159 209 257 318 371
#     4  11  24  39  65  97 126 165 215 260 317 377
#
# _framework density 20.631720000000001
#
# number of rings (size 3 to 8) (size 9 to 14) (size 15 to 20)
#    0.000    1.091    3.636    5.182    5.091    3.636 
#    0.000    4.545    0.000    1.091    0.000    0.000 
#    0.000    0.000    0.000    0.000    0.000    0.000 
#
# Total GULP energy -245152.855998 kJ/mol
# GULP energy per Si atom -5571.655818 kJ/mol
# Density = 2.058476 g / cm^3
# Si number density = 20.631720 Si / 1000 Ang^3
#
#
#
# Elastic Constant Matrix: (Units=GPa)
#
#
# Indices 1 2 3 4 5 6 
#
# 1 126.1376 70.4409 10.8356 0.0000 0.0000 0.0000
# 2 70.4409 152.2995 45.8087 0.0000 0.0000 0.0000
# 3 10.8356 45.8087 77.9684 0.0000 0.0000 0.0000
# 4 0.0000 0.0000 0.0000 -22.9192 0.0000 0.0000
# 5 0.0000 0.0000 0.0000 0.0000 0.0636 0.0000
# 6 0.0000 0.0000 0.0000 0.0000 0.0000 17.2275
#
#
#
# Elastic Compliance Matrix: (Units=1/GPa)
#
#
# Indices 1 2 3 4 5 6 
#
# 1 0.010883 -0.005561 0.001755 0.000000 0.000000 0.000000
# 2 -0.005561 0.010817 -0.005583 0.000000 0.000000 0.000000
# 3 0.001755 -0.005583 0.015862 0.000000 0.000000 0.000000
# 4 0.000000 0.000000 0.000000 -0.043632 0.000000 0.000000
# 5 0.000000 0.000000 0.000000 0.000000 15.719059 0.000000
# 6 0.000000 0.000000 0.000000 0.000000 0.000000 0.058047
#
#
# Mechanical properties :
#
#
# Convention : Reuss Voigt Hill
#
# Bulk Modulus (GPa) = 53.23673 67.84177 60.53925
# Shear Modulus (GPa) = 0.31653 14.16240 7.23947
#
# Velocity S-wave (km/s) = 0.39212 2.62284 1.87524
# Velocity P-wave (km/s) = 5.10533 6.49046 5.83911
#
# Compressibility (1/GPa) = 0.01878402
#
# Stress axis : x y z
#
# Youngs Moduli (GPa) = 91.88827 92.44403 63.04464
#
# Poissons Ratio (x) = 0.51411 -0.11064
# Poissons Ratio (y) = 0.51102 0.35196
# Poissons Ratio (z) = -0.16127 0.51608
#
# Static dielectric constant tensor:
#      x y z
#    x 1.766170 0.000000 0.000000 
#    y 0.000000 1.727880 0.000000 
#    z 0.000000 0.000000 1.949170 
# 
# From -- ./inp_files/58023.got.cif
#   From: 2010.05.17/outbox.cif.g08.bks.cpg/sg66_30_cif.got.tgz:58023.got - 2010.06.03 17:51:23.
