data_PCOD9497244
_publ_section_title
;
Structure prediction by ZEFSAII (Michael W. Deem and Ramdas Pophale) SiO2 
 PCOD9497244
Probable space group: C C C M
;
_chemical_formula_sum "Si O2"
_cell_formula_units_Z 80
_cell_length_a 8.731697
_cell_length_b 17.039644
_cell_length_c 27.236210
_cell_angle_alpha 90.000000
_cell_angle_beta 90.000000
_cell_angle_gamma 90.000000
_cell_volume 4052.339734
_symmetry_space_group_name_H-M "C C C M"
_symmetry_group_IT_number 66
_symmetry_cell_setting 'orthorhombic'
loop_
_space_group_symop_operation_xyz
x,y,z
-x,-y,z
x,-y,1/2-z
-x,y,1/2-z
-x,-y,-z
x,y,-z
-x,y,1/2+z
x,-y,1/2+z
1/2+x,1/2+y,z
1/2-x,1/2-y,z
1/2+x,1/2-y,1/2-z
1/2-x,1/2+y,1/2-z
1/2-x,1/2-y,-z
1/2+x,1/2+y,-z
1/2-x,1/2+y,1/2+z
1/2+x,1/2-y,1/2+z
loop_
_atom_site_type_symbol
_atom_site_label
_atom_site_fract_x
_atom_site_fract_y
_atom_site_fract_z
Si Si1 0.898874 0.078400 0.054489
Si Si2 0.815867 0.837591 0.646408
Si Si3 0.674096 0.093552 0.754197
Si Si4 0.211931 0.841930 0.552536
Si Si5 0.682734 0.663014 0.842129
O O1 0.792673 0.106199 0.098860
O O2 0.029437 0.145251 0.050598
O O3 0.829357 0.068707 0.000000
O O4 0.000000 0.000000 0.064981
O O5 0.750000 0.750000 0.638536
O O6 0.742798 0.875104 0.695005
O O7 0.999244 0.834279 0.654235
O O8 0.500000 0.123562 0.750000
O O9 0.769318 0.121286 0.707368
O O10 0.672025 0.000000 0.750000
O O11 0.271939 0.874437 0.500000
O O12 0.250000 0.750000 0.553227
O O13 0.251141 0.873619 0.606926
O O14 0.750000 0.750000 0.839407
#
# Coordination Sequence:
#
# PCOD9497244 Si02
#       5
#    16  16  16  16  16
#     4   9  19  35  58  90 124 157 198 250 302 356
#     4  11  23  37  61  90 122 158 203 250 300 370
#     4  11  25  41  58  81 117 159 202 258 311 362
#     4   8  15  29  52  84 114 146 188 233 282 344
#     4  10  20  36  60  84 117 153 197 244 296 357
#
# _framework density 19.741682000000001
#
# number of rings (size 3 to 8) (size 9 to 14) (size 15 to 20)
#    0.000    2.200    0.000    2.400    5.600    1.200 
#    0.000    0.000    0.000    3.600    0.000    2.800 
#    0.000    0.000    0.000    0.000    0.000    0.000 
#
# Total GULP energy -222744.045313 kJ/mol
# GULP energy per Si atom -5568.601133 kJ/mol
# Density = 1.969675 g / cm^3
# Si number density = 19.741682 Si / 1000 Ang^3
#
#
#
# Elastic Constant Matrix: (Units=GPa)
#
#
# Indices 1 2 3 4 5 6 
#
# 1 70.2467 33.6504 44.3801 0.0000 0.0000 0.0000
# 2 33.6504 58.2089 70.0518 0.0000 0.0000 0.0000
# 3 44.3801 70.0518 236.3164 0.0000 0.0000 0.0000
# 4 0.0000 0.0000 0.0000 37.2041 0.0000 0.0000
# 5 0.0000 0.0000 0.0000 0.0000 38.5511 0.0000
# 6 0.0000 0.0000 0.0000 0.0000 0.0000 17.8182
#
#
#
# Elastic Compliance Matrix: (Units=1/GPa)
#
#
# Indices 1 2 3 4 5 6 
#
# 1 0.019726 -0.010797 -0.000504 0.000000 0.000000 0.000000
# 2 -0.010797 0.032617 -0.007641 0.000000 0.000000 0.000000
# 3 -0.000504 -0.007641 0.006591 0.000000 0.000000 0.000000
# 4 0.000000 0.000000 0.000000 0.026879 0.000000 0.000000
# 5 0.000000 0.000000 0.000000 0.000000 0.025940 0.000000
# 6 0.000000 0.000000 0.000000 0.000000 0.000000 0.056122
#
#
# Mechanical properties :
#
#
# Convention : Reuss Voigt Hill
#
# Bulk Modulus (GPa) = 47.50559 73.43739 60.47149
# Shear Modulus (GPa) = 23.49892 33.16067 28.32979
#
# Velocity S-wave (km/s) = 3.45384 4.10290 3.79228
# Velocity P-wave (km/s) = 6.32623 7.72819 7.06209
#
# Compressibility (1/GPa) = 0.02105015
#
# Stress axis : x y z
#
# Youngs Moduli (GPa) = 50.69431 30.65896 151.71523
#
# Poissons Ratio (x) = 0.33103 0.07645
# Poissons Ratio (y) = 0.54735 1.15926
# Poissons Ratio (z) = 0.02555 0.23427
#
# Static dielectric constant tensor:
#      x y z
#    x 1.669960 0.000000 0.000000 
#    y 0.000000 1.684780 0.000000 
#    z 0.000000 0.000000 1.793600 
# 
# From -- ./inp_files/62401.got.cif
#   From: 2010.05.17/outbox.cif.g08.bks.cpg/sg66_32_cif.got.tgz:62401.got - 2010.06.03 17:51:23.
