data_PCOD9497161
_publ_section_title
;
Structure prediction by ZEFSAII (Michael W. Deem and Ramdas Pophale) SiO2 
 PCOD9497161
Probable space group: C C C M
;
_chemical_formula_sum "Si O2"
_cell_formula_units_Z 64
_cell_length_a 28.685691
_cell_length_b 14.450673
_cell_length_c 8.728702
_cell_angle_alpha 90.000000
_cell_angle_beta 90.000000
_cell_angle_gamma 90.000000
_cell_volume 3618.287371
_symmetry_space_group_name_H-M "C C C M"
_symmetry_group_IT_number 66
_symmetry_cell_setting 'orthorhombic'
loop_
_space_group_symop_operation_xyz
x,y,z
-x,-y,z
x,-y,1/2-z
-x,y,1/2-z
-x,-y,-z
x,y,-z
-x,y,1/2+z
x,-y,1/2+z
1/2+x,1/2+y,z
1/2-x,1/2-y,z
1/2+x,1/2-y,1/2-z
1/2-x,1/2+y,1/2-z
1/2-x,1/2-y,-z
1/2+x,1/2+y,-z
1/2-x,1/2+y,1/2+z
1/2+x,1/2-y,1/2+z
loop_
_atom_site_type_symbol
_atom_site_label
_atom_site_fract_x
_atom_site_fract_y
_atom_site_fract_z
Si Si1 0.362526 0.709152 0.315595
Si Si2 0.050135 0.102836 0.316502
Si Si3 0.264044 0.641722 0.326369
Si Si4 0.329970 0.903925 0.180020
O O1 0.365540 0.709167 0.500000
O O2 0.408730 0.668812 0.240509
O O3 0.317665 0.644690 0.275217
O O4 0.351625 0.812957 0.258783
O O5 0.048264 0.098947 0.500000
O O6 0.000000 0.132731 0.250000
O O7 0.058730 0.000000 0.250000
O O8 0.259944 0.603725 0.500000
O O9 0.250000 0.750000 0.336379
O O10 0.225502 0.599679 0.216048
O O11 0.347972 0.000000 0.250000
O O12 0.337973 0.900316 0.000000
#
# Coordination Sequence:
#
# PCOD9497161 Si02
#       4
#    16  16  16  16
#     4  10  20  36  56  79 108 141 179 223 269 318
#     4  11  22  38  59  83 109 138 173 216 268 321
#     4   8  16  31  49  70 100 136 173 215 260 305
#     4  11  21  33  51  76 108 146 185 223 264 313
#
# _framework density 17.687926000000001
#
# number of rings (size 3 to 8) (size 9 to 14) (size 15 to 20)
#    0.000    2.000    0.000    7.500    0.000    6.500 
#    0.000    0.000    0.000    0.750    0.000    5.250 
#    0.000    0.000    0.000    0.000    0.000    0.000 
#
# Total GULP energy -178605.784640 kJ/mol
# GULP energy per Si atom -5581.430770 kJ/mol
# Density = 1.764767 g / cm^3
# Si number density = 17.687926 Si / 1000 Ang^3
#
#
#
# Elastic Constant Matrix: (Units=GPa)
#
#
# Indices 1 2 3 4 5 6 
#
# 1 133.7761 57.4191 57.0198 0.0000 0.0000 0.0000
# 2 57.4191 68.4234 40.0201 0.0000 0.0000 0.0000
# 3 57.0198 40.0201 123.7488 0.0000 0.0000 0.0000
# 4 0.0000 0.0000 0.0000 24.9082 0.0000 0.0000
# 5 0.0000 0.0000 0.0000 0.0000 33.7921 0.0000
# 6 0.0000 0.0000 0.0000 0.0000 0.0000 20.0402
#
#
#
# Elastic Compliance Matrix: (Units=1/GPa)
#
#
# Indices 1 2 3 4 5 6 
#
# 1 0.012482 -0.008769 -0.002915 0.000000 0.000000 0.000000
# 2 -0.008769 0.024185 -0.003781 0.000000 0.000000 0.000000
# 3 -0.002915 -0.003781 0.010647 0.000000 0.000000 0.000000
# 4 0.000000 0.000000 0.000000 0.040147 0.000000 0.000000
# 5 0.000000 0.000000 0.000000 0.000000 0.029593 0.000000
# 6 0.000000 0.000000 0.000000 0.000000 0.000000 0.049900
#
#
# Mechanical properties :
#
#
# Convention : Reuss Voigt Hill
#
# Bulk Modulus (GPa) = 61.03850 70.54071 65.78961
# Shear Modulus (GPa) = 24.58876 27.18073 25.88474
#
# Velocity S-wave (km/s) = 3.73251 3.92431 3.82961
# Velocity P-wave (km/s) = 7.29102 7.77823 7.53856
#
# Compressibility (1/GPa) = 0.01638310
#
# Stress axis : x y z
#
# Youngs Moduli (GPa) = 80.11773 41.34777 93.92446
#
# Poissons Ratio (x) = 0.36259 0.27381
# Poissons Ratio (y) = 0.70257 0.35511
# Poissons Ratio (z) = 0.23356 0.15633
#
# Static dielectric constant tensor:
#      x y z
#    x 1.606440 0.000000 0.000000 
#    y 0.000000 1.612240 0.000000 
#    z 0.000000 0.000000 1.588860 
# 
# From -- ./inp_files/5069.got.cif
#   From: 2010.05.17/outbox.cif.g08.bks.cpg/sg66_3_cif.got.tgz:5069.got - 2010.06.03 17:51:23.
