data_PCOD9497184
_publ_section_title
;
Structure prediction by ZEFSAII (Michael W. Deem and Ramdas Pophale) SiO2 
 PCOD9497184
Probable space group: C C C M
;
_chemical_formula_sum "Si O2"
_cell_formula_units_Z 96
_cell_length_a 21.708142
_cell_length_b 13.786937
_cell_length_c 15.997535
_cell_angle_alpha 90.000000
_cell_angle_beta 90.000000
_cell_angle_gamma 90.000000
_cell_volume 4787.882831
_symmetry_space_group_name_H-M "C C C M"
_symmetry_group_IT_number 66
_symmetry_cell_setting 'orthorhombic'
loop_
_space_group_symop_operation_xyz
x,y,z
-x,-y,z
x,-y,1/2-z
-x,y,1/2-z
-x,-y,-z
x,y,-z
-x,y,1/2+z
x,-y,1/2+z
1/2+x,1/2+y,z
1/2-x,1/2-y,z
1/2+x,1/2-y,1/2-z
1/2-x,1/2+y,1/2-z
1/2-x,1/2-y,-z
1/2+x,1/2+y,-z
1/2-x,1/2+y,1/2+z
1/2+x,1/2-y,1/2+z
loop_
_atom_site_type_symbol
_atom_site_label
_atom_site_fract_x
_atom_site_fract_y
_atom_site_fract_z
Si Si1 0.964247 0.706393 0.334596
Si Si2 0.658927 0.892809 0.598406
Si Si3 0.693261 0.120057 0.407742
Si Si4 0.100453 0.114656 0.743726
Si Si5 0.242772 0.884766 0.237556
Si Si6 0.582321 0.729123 0.088602
O O1 0.906476 0.642141 0.363714
O O2 0.940100 0.815695 0.314834
O O3 0.000000 0.672120 0.250000
O O4 0.017486 0.716237 0.402380
O O5 0.664509 0.863643 0.500000
O O6 0.711868 0.854996 0.662322
O O7 0.668071 0.009710 0.600347
O O8 0.723597 0.127474 0.500000
O O9 0.735339 0.147861 0.329274
O O10 0.635592 0.191436 0.405737
O O11 0.171521 0.133919 0.719848
O O12 0.089985 0.156558 0.835677
O O13 0.087978 0.000000 0.750000
O O14 0.247372 0.000000 0.250000
O O15 0.586616 0.677804 0.000000
#
# Coordination Sequence:
#
# PCOD9497184 Si02
#       6
#    16  16  16  16  16  16
#     4  10  21  36  55  79 110 146 187 229 267 320
#     4  10  20  36  57  85 119 150 175 213 271 337
#     4   9  19  35  58  86 116 145 176 218 274 332
#     4  10  22  40  58  76 105 145 186 232 282 319
#     4   9  18  35  57  81 110 144 183 225 271 328
#     4  10  21  37  56  82 108 137 184 233 269 318
#
# _framework density 20.050616000000002
#
# number of rings (size 3 to 8) (size 9 to 14) (size 15 to 20)
#    0.000    2.333    0.000    2.500    0.000    7.000 
#    0.000   14.167    0.000    0.000    0.000    0.000 
#    0.000    0.000    0.000    0.000    0.000    0.000 
#
# Total GULP energy -267732.156718 kJ/mol
# GULP energy per Si atom -5577.753265 kJ/mol
# Density = 2.000498 g / cm^3
# Si number density = 20.050616 Si / 1000 Ang^3
#
#
#
# Elastic Constant Matrix: (Units=GPa)
#
#
# Indices 1 2 3 4 5 6 
#
# 1 52.6830 -13.4284 15.6102 0.0000 0.0000 0.0000
# 2 -13.4284 64.0294 10.6628 0.0000 0.0000 0.0000
# 3 15.6102 10.6628 96.9048 0.0000 0.0000 0.0000
# 4 0.0000 0.0000 0.0000 -10.3372 0.0000 0.0000
# 5 0.0000 0.0000 0.0000 0.0000 -125.1694 0.0000
# 6 0.0000 0.0000 0.0000 0.0000 0.0000 16.2620
#
#
#
# Elastic Compliance Matrix: (Units=1/GPa)
#
#
# Indices 1 2 3 4 5 6 
#
# 1 0.021497 0.005180 -0.004033 0.000000 0.000000 0.000000
# 2 0.005180 0.017158 -0.002722 0.000000 0.000000 0.000000
# 3 -0.004033 -0.002722 0.011269 0.000000 0.000000 0.000000
# 4 0.000000 0.000000 0.000000 -0.096738 0.000000 0.000000
# 5 0.000000 0.000000 0.000000 0.000000 -0.007989 0.000000
# 6 0.000000 0.000000 0.000000 0.000000 0.000000 0.061493
#
#
# Mechanical properties :
#
#
# Convention : Reuss Voigt Hill
#
# Bulk Modulus (GPa) = 21.38015 26.58959 23.98487
# Shear Modulus (GPa) = 196.61925 -10.46407 93.07759
#
# Velocity S-wave (km/s) = 9.91334 -2.28695 6.82071
# Velocity P-wave (km/s) = 11.90457 2.51326 8.60335
#
# Compressibility (1/GPa) = 0.04677237
#
# Stress axis : x y z
#
# Youngs Moduli (GPa) = 46.51877 58.28352 88.74222
#
# Poissons Ratio (x) = -0.30190 0.35788
# Poissons Ratio (y) = -0.24096 0.24159
# Poissons Ratio (z) = 0.18760 0.15867
#
# Static dielectric constant tensor:
#      x y z
#    x 1.713680 0.000000 0.000000 
#    y 0.000000 1.710270 0.000000 
#    z 0.000000 0.000000 1.766640 
# 
# From -- ./inp_files/28378.got.cif
#   From: 2010.05.17/outbox.cif.g08.bks.cpg/sg66_15_cif.got.tgz:28378.got - 2010.06.03 17:51:23.
