data_PCOD9497471
_publ_section_title
;
Structure prediction by ZEFSAII (Michael W. Deem and Ramdas Pophale) SiO2 
 PCOD9497471
Probable space group: C C C M
;
_chemical_formula_sum "Si O2"
_cell_formula_units_Z 64
_cell_length_a 9.074987
_cell_length_b 12.207519
_cell_length_c 22.781466
_cell_angle_alpha 90.000000
_cell_angle_beta 90.000000
_cell_angle_gamma 90.000000
_cell_volume 2523.800884
_symmetry_space_group_name_H-M "C C C M"
_symmetry_group_IT_number 66
_symmetry_cell_setting 'orthorhombic'
loop_
_space_group_symop_operation_xyz
x,y,z
-x,-y,z
x,-y,1/2-z
-x,y,1/2-z
-x,-y,-z
x,y,-z
-x,y,1/2+z
x,-y,1/2+z
1/2+x,1/2+y,z
1/2-x,1/2-y,z
1/2+x,1/2-y,1/2-z
1/2-x,1/2+y,1/2-z
1/2-x,1/2-y,-z
1/2+x,1/2+y,-z
1/2-x,1/2+y,1/2+z
1/2+x,1/2-y,1/2+z
loop_
_atom_site_type_symbol
_atom_site_label
_atom_site_fract_x
_atom_site_fract_y
_atom_site_fract_z
Si Si1 0.171431 0.505776 0.134940
Si Si2 0.005986 0.218091 0.000000
Si Si3 0.640792 0.339686 0.288785
Si Si4 0.193081 0.423664 0.000000
Si Si5 0.069410 0.873145 0.880895
O O1 0.250841 0.427706 0.182423
O O2 0.267580 0.614659 0.144286
O O3 0.000000 0.500000 0.146235
O O4 0.192927 0.479403 0.064720
O O5 0.051124 0.344151 0.000000
O O6 0.158837 0.149280 0.000000
O O7 0.920407 0.178557 0.943895
O O8 0.500000 0.376869 0.250000
O O9 0.750000 0.250000 0.263092
O O10 0.548209 0.299897 0.345896
O O11 0.000000 0.000000 0.882635
#
# Coordination Sequence:
#
# PCOD9497471 Si02
#       5
#    16   8  16   8  16
#     4  11  24  42  67 103 143 177 224 277 331 412
#     4  11  18  34  66  98 136 183 225 268 325 404
#     4  11  25  46  69  94 125 171 226 283 343 398
#     4  11  20  35  66 103 142 186 218 268 338 406
#     4  10  20  37  65  96 129 174 222 266 334 392
#
# _framework density 25.358578000000001
#
# number of rings (size 3 to 8) (size 9 to 14) (size 15 to 20)
#    0.000    1.250    5.000    3.000    0.000    6.500 
#    0.000    6.250    0.000    0.000    0.000    0.875 
#    0.000    0.000    0.000    0.000    0.000    0.000 
#
# Total GULP energy -178667.611315 kJ/mol
# GULP energy per Si atom -5583.362854 kJ/mol
# Density = 2.530086 g / cm^3
# Si number density = 25.358578 Si / 1000 Ang^3
#
#
#
# Elastic Constant Matrix: (Units=GPa)
#
#
# Indices 1 2 3 4 5 6 
#
# 1 231.6928 52.6971 59.6851 0.0000 0.0000 0.0000
# 2 52.6971 70.5012 42.9261 0.0000 0.0000 0.0000
# 3 59.6851 42.9261 121.8216 0.0000 0.0000 0.0000
# 4 0.0000 0.0000 0.0000 21.9625 0.0000 0.0000
# 5 0.0000 0.0000 0.0000 0.0000 20.9656 0.0000
# 6 0.0000 0.0000 0.0000 0.0000 0.0000 35.2569
#
#
#
# Elastic Compliance Matrix: (Units=1/GPa)
#
#
# Indices 1 2 3 4 5 6 
#
# 1 0.005425 -0.003102 -0.001565 0.000000 0.000000 0.000000
# 2 -0.003102 0.019832 -0.005469 0.000000 0.000000 0.000000
# 3 -0.001565 -0.005469 0.010902 0.000000 0.000000 0.000000
# 4 0.000000 0.000000 0.000000 0.045532 0.000000 0.000000
# 5 0.000000 0.000000 0.000000 0.000000 0.047697 0.000000
# 6 0.000000 0.000000 0.000000 0.000000 0.000000 0.028363
#
#
# Mechanical properties :
#
#
# Convention : Reuss Voigt Hill
#
# Bulk Modulus (GPa) = 62.93718 81.62579 72.28148
# Shear Modulus (GPa) = 27.27488 33.55081 30.41284
#
# Velocity S-wave (km/s) = 3.28314 3.64133 3.46687
# Velocity P-wave (km/s) = 6.26457 7.06665 6.67766
#
# Compressibility (1/GPa) = 0.01588886
#
# Stress axis : x y z
#
# Youngs Moduli (GPa) = 184.34289 50.42240 91.72413
#
# Poissons Ratio (x) = 0.15641 0.14352
# Poissons Ratio (y) = 0.57184 0.50160
# Poissons Ratio (z) = 0.28844 0.27574
#
# Static dielectric constant tensor:
#      x y z
#    x 2.001170 0.000000 0.000000 
#    y 0.000000 2.128260 0.000000 
#    z 0.000000 0.000000 2.081740 
# 
# From -- ./inp_files/55010.got.cif
#   From: 2010.05.17/outbox.cif.g08.bks.cpg/sg66_28_cif.got.tgz:55010.got - 2010.06.03 17:51:23.
