data_PCOD9497741
_publ_section_title
;
Structure prediction by ZEFSAII (Michael W. Deem and Ramdas Pophale) SiO2 
 PCOD9497741
Probable space group: C C C M
;
_chemical_formula_sum "Si O2"
_cell_formula_units_Z 88
_cell_length_a 17.430543
_cell_length_b 13.734419
_cell_length_c 19.062893
_cell_angle_alpha 90.000000
_cell_angle_beta 90.000000
_cell_angle_gamma 90.000000
_cell_volume 4563.625721
_symmetry_space_group_name_H-M "C C C M"
_symmetry_group_IT_number 66
_symmetry_cell_setting 'orthorhombic'
loop_
_space_group_symop_operation_xyz
x,y,z
-x,-y,z
x,-y,1/2-z
-x,y,1/2-z
-x,-y,-z
x,y,-z
-x,y,1/2+z
x,-y,1/2+z
1/2+x,1/2+y,z
1/2-x,1/2-y,z
1/2+x,1/2-y,1/2-z
1/2-x,1/2+y,1/2-z
1/2-x,1/2-y,-z
1/2+x,1/2+y,-z
1/2-x,1/2+y,1/2+z
1/2+x,1/2-y,1/2+z
loop_
_atom_site_type_symbol
_atom_site_label
_atom_site_fract_x
_atom_site_fract_y
_atom_site_fract_z
Si Si1 0.500000 0.500000 0.128673
Si Si2 0.153473 0.899142 0.818848
Si Si3 0.124880 0.282861 0.419059
Si Si4 0.452503 0.709386 0.423285
Si Si5 0.167360 0.242750 0.194095
Si Si6 0.176474 0.420475 0.697442
O O1 0.424580 0.541511 0.168422
O O2 0.469722 0.405758 0.086722
O O3 0.157931 0.810947 0.876355
O O4 0.151120 0.851688 0.741689
O O5 0.236113 0.951336 0.821507
O O6 0.151672 0.286743 0.500000
O O7 0.140456 0.380541 0.374487
O O8 0.034227 0.262299 0.419763
O O9 0.418052 0.724892 0.500000
O O10 0.399414 0.748563 0.361744
O O11 0.250000 0.250000 0.157463
O O12 0.174569 0.326409 0.252356
O O13 0.140896 0.500000 0.750000
#
# Coordination Sequence:
#
# PCOD9497741 Si02
#       6
#     8  16  16  16  16  16
#     4  10  21  33  58  92 119 141 182 232 303 355
#     4   9  20  34  56  87 117 152 184 233 286 356
#     4   9  19  38  60  84 114 153 195 237 290 346
#     4  10  21  37  57  83 118 150 190 239 288 354
#     4   9  20  37  55  79 113 155 195 229 290 347
#     4  10  21  37  56  82 116 149 197 248 276 328
#
# _framework density 19.282914000000002
#
# number of rings (size 3 to 8) (size 9 to 14) (size 15 to 20)
#    0.000    2.545    0.000    1.909    5.091    9.818 
#    0.000    2.727    0.000    2.182    0.000    0.000 
#    0.000    0.000    0.000    0.000    0.000    0.000 
#
# Total GULP energy -245062.066039 kJ/mol
# GULP energy per Si atom -5569.592410 kJ/mol
# Density = 1.923902 g / cm^3
# Si number density = 19.282914 Si / 1000 Ang^3
#
#
#
# Elastic Constant Matrix: (Units=GPa)
#
#
# Indices 1 2 3 4 5 6 
#
# 1 66.2889 27.4473 46.9100 0.0000 0.0000 0.0000
# 2 27.4473 60.5198 27.4957 0.0000 0.0000 0.0000
# 3 46.9100 27.4957 124.7984 0.0000 0.0000 0.0000
# 4 0.0000 0.0000 0.0000 18.9601 0.0000 0.0000
# 5 0.0000 0.0000 0.0000 0.0000 3.3504 0.0000
# 6 0.0000 0.0000 0.0000 0.0000 0.0000 30.4397
#
#
#
# Elastic Compliance Matrix: (Units=1/GPa)
#
#
# Indices 1 2 3 4 5 6 
#
# 1 0.023106 -0.007260 -0.007086 0.000000 0.000000 0.000000
# 2 -0.007260 0.020643 -0.001819 0.000000 0.000000 0.000000
# 3 -0.007086 -0.001819 0.011077 0.000000 0.000000 0.000000
# 4 0.000000 0.000000 0.000000 0.052742 0.000000 0.000000
# 5 0.000000 0.000000 0.000000 0.000000 0.298469 0.000000
# 6 0.000000 0.000000 0.000000 0.000000 0.000000 0.032852
#
#
# Mechanical properties :
#
#
# Convention : Reuss Voigt Hill
#
# Bulk Modulus (GPa) = 44.45201 50.59034 47.52117
# Shear Modulus (GPa) = 10.44460 20.53365 15.48912
#
# Velocity S-wave (km/s) = 2.32986 3.26676 2.83725
# Velocity P-wave (km/s) = 5.50820 6.36567 5.95240
#
# Compressibility (1/GPa) = 0.02249617
#
# Stress axis : x y z
#
# Youngs Moduli (GPa) = 43.27942 48.44372 90.27641
#
# Poissons Ratio (x) = 0.35169 0.63966
# Poissons Ratio (y) = 0.31420 0.16422
# Poissons Ratio (z) = 0.30666 0.08812
#
# Static dielectric constant tensor:
#      x y z
#    x 1.687270 0.000000 0.000000 
#    y 0.000000 1.728140 0.000000 
#    z 0.000000 0.000000 1.669300 
# 
# From -- ./inp_files/41580.got.cif
#   From: 2010.05.17/outbox.cif.g08.bks.cpg/sg66_21_cif.got.tgz:41580.got - 2010.06.03 17:51:23.
