data_PCOD9497981
_publ_section_title
;
Structure prediction by ZEFSAII (Michael W. Deem and Ramdas Pophale) SiO2 
 PCOD9497981
Probable space group: C C C M
;
_chemical_formula_sum "Si O2"
_cell_formula_units_Z 80
_cell_length_a 26.786122
_cell_length_b 7.247334
_cell_length_c 19.026075
_cell_angle_alpha 90.000000
_cell_angle_beta 90.000000
_cell_angle_gamma 90.000000
_cell_volume 3693.493368
_symmetry_space_group_name_H-M "C C C M"
_symmetry_group_IT_number 66
_symmetry_cell_setting 'orthorhombic'
loop_
_space_group_symop_operation_xyz
x,y,z
-x,-y,z
x,-y,1/2-z
-x,y,1/2-z
-x,-y,-z
x,y,-z
-x,y,1/2+z
x,-y,1/2+z
1/2+x,1/2+y,z
1/2-x,1/2-y,z
1/2+x,1/2-y,1/2-z
1/2-x,1/2+y,1/2-z
1/2-x,1/2-y,-z
1/2+x,1/2+y,-z
1/2-x,1/2+y,1/2+z
1/2+x,1/2-y,1/2+z
loop_
_atom_site_type_symbol
_atom_site_label
_atom_site_fract_x
_atom_site_fract_y
_atom_site_fract_z
Si Si1 0.406067 0.358270 0.580511
Si Si2 0.872531 0.783823 0.851547
Si Si3 0.818933 0.431520 0.919333
Si Si4 0.054109 0.217315 0.729799
Si Si5 0.768019 0.047050 0.328957
O O1 0.424168 0.330652 0.500000
O O2 0.403335 0.577718 0.597707
O O3 0.435747 0.271503 0.646680
O O4 0.352542 0.252657 0.584064
O O5 0.851330 0.602793 0.889323
O O6 0.902500 0.716599 0.782593
O O7 0.827332 0.922977 0.830667
O O8 0.767110 0.425536 0.877905
O O9 0.807449 0.469804 0.000000
O O10 0.000000 0.292237 0.750000
O O11 0.053628 0.000000 0.750000
O O12 0.750000 0.250000 0.348390
O O13 0.753341 0.000000 0.250000
#
# Coordination Sequence:
#
# PCOD9497981 Si02
#       5
#    16  16  16  16  16
#     4  10  21  37  60  84 115 150 190 242 296 345
#     4  10  21  38  59  81 115 154 194 239 284 350
#     4  10  23  38  55  84 118 152 192 240 289 345
#     4   9  19  38  62  88 115 150 198 247 294 346
#     4  10  22  34  55  81 113 154 191 238 282 344
#
# _framework density 21.659711999999999
#
# number of rings (size 3 to 8) (size 9 to 14) (size 15 to 20)
#    0.000    2.200    0.000    2.400    8.400    4.400 
#    0.000   13.000    0.000    2.400    0.000    0.000 
#    0.000    0.000    0.000    0.000    0.000    0.000 
#
# Total GULP energy -222969.332611 kJ/mol
# GULP energy per Si atom -5574.233315 kJ/mol
# Density = 2.161041 g / cm^3
# Si number density = 21.659712 Si / 1000 Ang^3
#
#
#
# Elastic Constant Matrix: (Units=GPa)
#
#
# Indices 1 2 3 4 5 6 
#
# 1 95.4271 3.3393 85.2080 0.0000 0.0000 0.0000
# 2 3.3393 93.1611 38.1816 0.0000 0.0000 0.0000
# 3 85.2080 38.1816 210.9335 0.0000 0.0000 0.0000
# 4 0.0000 0.0000 0.0000 22.8736 0.0000 0.0000
# 5 0.0000 0.0000 0.0000 0.0000 41.5553 0.0000
# 6 0.0000 0.0000 0.0000 0.0000 0.0000 8.4784
#
#
#
# Elastic Compliance Matrix: (Units=1/GPa)
#
#
# Indices 1 2 3 4 5 6 
#
# 1 0.016860 0.002362 -0.007238 0.000000 0.000000 0.000000
# 2 0.002362 0.011925 -0.003113 0.000000 0.000000 0.000000
# 3 -0.007238 -0.003113 0.008228 0.000000 0.000000 0.000000
# 4 0.000000 0.000000 0.000000 0.043718 0.000000 0.000000
# 5 0.000000 0.000000 0.000000 0.000000 0.024064 0.000000
# 6 0.000000 0.000000 0.000000 0.000000 0.000000 0.117947
#
#
# Mechanical properties :
#
#
# Convention : Reuss Voigt Hill
#
# Bulk Modulus (GPa) = 47.53896 72.55328 60.04612
# Shear Modulus (GPa) = 20.34741 32.76767 26.55754
#
# Velocity S-wave (km/s) = 3.06831 3.89374 3.50541
# Velocity P-wave (km/s) = 5.87779 7.33380 6.64579
#
# Compressibility (1/GPa) = 0.02103538
#
# Stress axis : x y z
#
# Youngs Moduli (GPa) = 59.31370 83.85610 121.53380
#
# Poissons Ratio (x) = -0.19808 0.87967
# Poissons Ratio (y) = -0.14011 0.37831
# Poissons Ratio (z) = 0.42932 0.26103
#
# Static dielectric constant tensor:
#      x y z
#    x 1.868880 0.000000 0.000000 
#    y 0.000000 1.798390 0.000000 
#    z 0.000000 0.000000 1.764000 
# 
# From -- ./inp_files/44078.got.cif
#   From: 2010.05.17/outbox.cif.g08.bks.cpg/sg66_23_cif.got.tgz:44078.got - 2010.06.03 17:51:23.
