data_PCOD9497397
_publ_section_title
;
Structure prediction by ZEFSAII (Michael W. Deem and Ramdas Pophale) SiO2 
 PCOD9497397
Probable space group: C C C M
;
_chemical_formula_sum "Si O2"
_cell_formula_units_Z 96
_cell_length_a 17.361862
_cell_length_b 12.305140
_cell_length_c 23.349979
_cell_angle_alpha 90.000000
_cell_angle_beta 90.000000
_cell_angle_gamma 90.000000
_cell_volume 4988.492843
_symmetry_space_group_name_H-M "C C C M"
_symmetry_group_IT_number 66
_symmetry_cell_setting 'orthorhombic'
loop_
_space_group_symop_operation_xyz
x,y,z
-x,-y,z
x,-y,1/2-z
-x,y,1/2-z
-x,-y,-z
x,y,-z
-x,y,1/2+z
x,-y,1/2+z
1/2+x,1/2+y,z
1/2-x,1/2-y,z
1/2+x,1/2-y,1/2-z
1/2-x,1/2+y,1/2-z
1/2-x,1/2-y,-z
1/2+x,1/2+y,-z
1/2-x,1/2+y,1/2+z
1/2+x,1/2-y,1/2+z
loop_
_atom_site_type_symbol
_atom_site_label
_atom_site_fract_x
_atom_site_fract_y
_atom_site_fract_z
Si Si1 0.644710 0.504003 0.568231
Si Si2 0.799434 0.615934 0.934771
Si Si3 0.595137 0.297603 0.375821
Si Si4 0.573302 0.067215 0.065071
Si Si5 0.912982 0.777850 0.369937
Si Si6 0.906461 0.125578 0.749060
O O1 0.648726 0.516756 0.500000
O O2 0.724841 0.447757 0.589211
O O3 0.587840 0.408204 0.587474
O O4 0.618161 0.617220 0.595677
O O5 0.842127 0.715999 0.903213
O O6 0.863108 0.524082 0.938684
O O7 0.780607 0.647863 0.000000
O O8 0.506078 0.261201 0.372654
O O9 0.618736 0.323492 0.310787
O O10 0.610190 0.165283 0.100826
O O11 0.500000 0.000000 0.088991
O O12 0.552434 0.105535 0.000000
O O13 0.887207 0.803797 0.305022
O O14 0.000000 0.120802 0.750000
O O15 0.879650 0.000000 0.750000
#
# Coordination Sequence:
#
# PCOD9497397 Si02
#       6
#    16  16  16  16  16  16
#     4  11  23  35  56  90 122 151 191 246 303 360
#     4  10  22  39  58  84 122 161 192 239 308 365
#     4  11  20  36  62  85 116 158 199 241 298 361
#     4  10  20  37  61  86 116 154 198 248 298 349
#     4  11  21  36  62  89 115 154 205 249 291 352
#     4   9  18  35  58  85 113 152 191 243 300 339
#
# _framework density 19.244289999999999
#
# number of rings (size 3 to 8) (size 9 to 14) (size 15 to 20)
#    0.000    1.667    3.333    2.000    0.000    4.667 
#    0.000    3.333   11.000    0.000    0.000    0.000 
#    0.000    0.000    0.000    0.000    0.000    0.000 
#
# Total GULP energy -267325.362132 kJ/mol
# GULP energy per Si atom -5569.278378 kJ/mol
# Density = 1.920049 g / cm^3
# Si number density = 19.244290 Si / 1000 Ang^3
#
#
#
# Elastic Constant Matrix: (Units=GPa)
#
#
# Indices 1 2 3 4 5 6 
#
# 1 33.5676 9.2270 5.4168 0.0000 0.0000 0.0000
# 2 9.2270 140.7746 54.8052 0.0000 0.0000 0.0000
# 3 5.4168 54.8052 96.2322 0.0000 0.0000 0.0000
# 4 0.0000 0.0000 0.0000 19.7152 0.0000 0.0000
# 5 0.0000 0.0000 0.0000 0.0000 13.0408 0.0000
# 6 0.0000 0.0000 0.0000 0.0000 0.0000 23.2598
#
#
#
# Elastic Compliance Matrix: (Units=1/GPa)
#
#
# Indices 1 2 3 4 5 6 
#
# 1 0.030378 -0.001703 -0.000740 0.000000 0.000000 0.000000
# 2 -0.001703 0.009223 -0.005157 0.000000 0.000000 0.000000
# 3 -0.000740 -0.005157 0.013370 0.000000 0.000000 0.000000
# 4 0.000000 0.000000 0.000000 0.050722 0.000000 0.000000
# 5 0.000000 0.000000 0.000000 0.000000 0.076682 0.000000
# 6 0.000000 0.000000 0.000000 0.000000 0.000000 0.042993
#
#
# Mechanical properties :
#
#
# Convention : Reuss Voigt Hill
#
# Bulk Modulus (GPa) = 26.47500 45.49693 35.98597
# Shear Modulus (GPa) = 19.90779 24.61151 22.25965
#
# Velocity S-wave (km/s) = 3.21982 3.58005 3.40470
# Velocity P-wave (km/s) = 5.25454 6.38609 5.84775
#
# Compressibility (1/GPa) = 0.03777148
#
# Stress axis : x y z
#
# Youngs Moduli (GPa) = 32.91841 108.42825 74.79483
#
# Poissons Ratio (x) = 0.18465 0.05535
# Poissons Ratio (y) = 0.05606 0.38568
# Poissons Ratio (z) = 0.02436 0.55912
#
# Static dielectric constant tensor:
#      x y z
#    x 1.751580 0.000000 0.000000 
#    y 0.000000 1.669880 0.000000 
#    z 0.000000 0.000000 1.694330 
# 
# From -- ./inp_files/56947.got.cif
#   From: 2010.05.17/outbox.cif.g08.bks.cpg/sg66_29_cif.got.tgz:56947.got - 2010.06.03 17:51:23.
