data_PCOD9497392
_publ_section_title
;
Structure prediction by ZEFSAII (Michael W. Deem and Ramdas Pophale) SiO2 
 PCOD9497392
Probable space group: C C C M
;
_chemical_formula_sum "Si O2"
_cell_formula_units_Z 104
_cell_length_a 28.430238
_cell_length_b 22.345998
_cell_length_c 7.964501
_cell_angle_alpha 90.000000
_cell_angle_beta 90.000000
_cell_angle_gamma 90.000000
_cell_volume 5059.863745
_symmetry_space_group_name_H-M "C C C M"
_symmetry_group_IT_number 66
_symmetry_cell_setting 'orthorhombic'
loop_
_space_group_symop_operation_xyz
x,y,z
-x,-y,z
x,-y,1/2-z
-x,y,1/2-z
-x,-y,-z
x,y,-z
-x,y,1/2+z
x,-y,1/2+z
1/2+x,1/2+y,z
1/2-x,1/2-y,z
1/2+x,1/2-y,1/2-z
1/2-x,1/2+y,1/2-z
1/2-x,1/2-y,-z
1/2+x,1/2+y,-z
1/2-x,1/2+y,1/2+z
1/2+x,1/2-y,1/2+z
loop_
_atom_site_type_symbol
_atom_site_label
_atom_site_fract_x
_atom_site_fract_y
_atom_site_fract_z
Si Si1 0.053787 0.431567 0.199860
Si Si2 0.269156 0.814722 0.799688
Si Si3 0.122272 0.672639 0.703563
Si Si4 0.052145 0.917744 0.194721
Si Si5 0.131089 0.000000 0.250000
Si Si6 0.315829 0.608893 0.697121
Si Si7 0.598567 0.696291 0.200737
O O1 0.063918 0.500000 0.250000
O O2 0.091591 0.383482 0.265446
O O3 0.000000 0.417473 0.250000
O O4 0.055600 0.429021 0.000000
O O5 0.250000 0.750000 0.736557
O O6 0.323341 0.825816 0.755820
O O7 0.235865 0.866548 0.728275
O O8 0.263901 0.814681 0.000000
O O9 0.121528 0.672560 0.500000
O O10 0.099874 0.735751 0.759797
O O11 0.060927 0.847367 0.216263
O O12 0.000000 0.932890 0.250000
O O13 0.090944 0.951735 0.307479
O O14 0.060883 0.933755 0.000000
O O15 0.167772 0.051664 0.305236
O O16 0.321039 0.591638 0.500000
O O17 0.351187 0.664090 0.733635
O O18 0.591249 0.695441 0.000000
#
# Coordination Sequence:
#
# PCOD9497392 Si02
#       7
#    16  16  16  16   8  16  16
#     4  10  21  39  64  90 119 154 193 236 292 355
#     4  11  23  37  58  90 123 154 194 243 294 347
#     4  10  21  39  63  90 119 156 198 240 291 356
#     4  11  23  38  58  84 118 155 199 250 300 351
#     4  10  23  40  60  86 112 154 207 254 298 346
#     4  10  20  37  61  83 112 156 200 243 295 354
#     4   9  19  36  58  84 114 149 194 242 294 352
#
# _framework density 20.553913999999999
#
# number of rings (size 3 to 8) (size 9 to 14) (size 15 to 20)
#    0.000    1.846    1.538    2.538    0.000    8.615 
#    1.385    1.538    0.000    0.000    0.000    0.000 
#    0.000    0.000    0.000    0.000    0.000    0.000 
#
# Total GULP energy -289805.854201 kJ/mol
# GULP energy per Si atom -5573.189504 kJ/mol
# Density = 2.050713 g / cm^3
# Si number density = 20.553914 Si / 1000 Ang^3
#
#
#
# Elastic Constant Matrix: (Units=GPa)
#
#
# Indices 1 2 3 4 5 6 
#
# 1 130.7476 96.4331 22.8157 0.0000 0.0000 0.0000
# 2 96.4331 155.4257 31.5846 0.0000 0.0000 0.0000
# 3 22.8157 31.5846 61.2092 0.0000 0.0000 0.0000
# 4 0.0000 0.0000 0.0000 34.0306 0.0000 0.0000
# 5 0.0000 0.0000 0.0000 0.0000 4.4400 0.0000
# 6 0.0000 0.0000 0.0000 0.0000 0.0000 29.9906
#
#
#
# Elastic Compliance Matrix: (Units=1/GPa)
#
#
# Indices 1 2 3 4 5 6 
#
# 1 0.014139 -0.008604 -0.000831 0.000000 0.000000 0.000000
# 2 -0.008604 0.012423 -0.003203 0.000000 0.000000 0.000000
# 3 -0.000831 -0.003203 0.018300 0.000000 0.000000 0.000000
# 4 0.000000 0.000000 0.000000 0.029385 0.000000 0.000000
# 5 0.000000 0.000000 0.000000 0.000000 0.225226 0.000000
# 6 0.000000 0.000000 0.000000 0.000000 0.000000 0.033344
#
#
# Mechanical properties :
#
#
# Convention : Reuss Voigt Hill
#
# Bulk Modulus (GPa) = 51.05563 72.11659 61.58611
# Shear Modulus (GPa) = 13.71286 26.79552 20.25419
#
# Velocity S-wave (km/s) = 2.58576 3.61455 3.14254
# Velocity P-wave (km/s) = 5.81452 7.25139 6.57234
#
# Compressibility (1/GPa) = 0.01958648
#
# Stress axis : x y z
#
# Youngs Moduli (GPa) = 70.72704 80.49614 54.64470
#
# Poissons Ratio (x) = 0.69255 0.04539
# Poissons Ratio (y) = 0.60851 0.17505
# Poissons Ratio (z) = 0.05875 0.25786
#
# Static dielectric constant tensor:
#      x y z
#    x 1.709540 0.000000 0.000000 
#    y 0.000000 1.763080 0.000000 
#    z 0.000000 0.000000 1.816680 
# 
# From -- ./inp_files/10372.got.cif
#   From: 2010.05.17/outbox.cif.g08.bks.cpg/sg66_6_cif.got.tgz:10372.got - 2010.06.03 17:51:23.
