data_PCOD9497043
_publ_section_title
;
Structure prediction by ZEFSAII (Michael W. Deem and Ramdas Pophale) SiO2 
 PCOD9497043
Probable space group: C C C M
;
_chemical_formula_sum "Si O2"
_cell_formula_units_Z 96
_cell_length_a 17.595226
_cell_length_b 30.268486
_cell_length_c 8.682952
_cell_angle_alpha 90.000000
_cell_angle_beta 90.000000
_cell_angle_gamma 90.000000
_cell_volume 4624.373973
_symmetry_space_group_name_H-M "C C C M"
_symmetry_group_IT_number 66
_symmetry_cell_setting 'orthorhombic'
loop_
_space_group_symop_operation_xyz
x,y,z
-x,-y,z
x,-y,1/2-z
-x,y,1/2-z
-x,-y,-z
x,y,-z
-x,y,1/2+z
x,-y,1/2+z
1/2+x,1/2+y,z
1/2-x,1/2-y,z
1/2+x,1/2-y,1/2-z
1/2-x,1/2+y,1/2-z
1/2-x,1/2-y,-z
1/2+x,1/2+y,-z
1/2-x,1/2+y,1/2+z
1/2+x,1/2-y,1/2+z
loop_
_atom_site_type_symbol
_atom_site_label
_atom_site_fract_x
_atom_site_fract_y
_atom_site_fract_z
Si Si1 0.418364 0.358424 0.815442
Si Si2 0.079959 0.292094 0.328193
Si Si3 0.309593 0.286801 0.324365
Si Si4 0.914733 0.377625 0.682571
Si Si5 0.799339 0.453813 0.313800
Si Si6 0.628892 0.547764 0.684702
O O1 0.500000 0.341711 0.750000
O O2 0.344807 0.329667 0.758830
O O3 0.409892 0.408723 0.754984
O O4 0.420399 0.357356 0.000000
O O5 0.070655 0.309688 0.500000
O O6 0.118712 0.245397 0.335274
O O7 0.120508 0.330674 0.233489
O O8 0.000000 0.286056 0.250000
O O9 0.282880 0.298061 0.500000
O O10 0.250000 0.250000 0.257942
O O11 0.920864 0.379040 0.500000
O O12 0.857754 0.415804 0.731716
O O13 0.000000 0.381586 0.750000
O O14 0.829934 0.500000 0.250000
O O15 0.790773 0.454715 0.500000
O O16 0.716974 0.448163 0.237019
O O17 0.602200 0.500000 0.750000
O O18 0.622438 0.547760 0.500000
#
# Coordination Sequence:
#
# PCOD9497043 Si02
#       6
#    16  16  16  16  16  16
#     4  12  26  45  69  99 133 172 216 263 319 378
#     4  10  20  35  57  82 114 156 200 248 301 361
#     4  10  23  42  63  94 129 166 211 257 312 373
#     4  10  21  35  54  81 115 153 204 255 307 369
#     4  10  21  37  57  85 118 158 203 256 312 377
#     4  11  23  42  68  97 130 168 211 262 319 383
#
# _framework density 20.759564999999998
#
# number of rings (size 3 to 8) (size 9 to 14) (size 15 to 20)
#    0.000    1.500    0.000    7.000    2.333    6.333 
#    0.000    3.333    0.000    0.000    0.000    0.000 
#    0.000    0.000    0.000    0.000    0.000    0.000 
#
# Total GULP energy -267824.954060 kJ/mol
# GULP energy per Si atom -5579.686543 kJ/mol
# Density = 2.071232 g / cm^3
# Si number density = 20.759565 Si / 1000 Ang^3
#
#
#
# Elastic Constant Matrix: (Units=GPa)
#
#
# Indices 1 2 3 4 5 6 
#
# 1 42.7146 37.3638 27.5610 0.0000 0.0000 0.0000
# 2 37.3638 115.1556 35.5479 0.0000 0.0000 0.0000
# 3 27.5610 35.5479 104.8846 0.0000 0.0000 0.0000
# 4 0.0000 0.0000 0.0000 49.9253 0.0000 0.0000
# 5 0.0000 0.0000 0.0000 0.0000 9.2294 0.0000
# 6 0.0000 0.0000 0.0000 0.0000 0.0000 41.3599
#
#
#
# Elastic Compliance Matrix: (Units=1/GPa)
#
#
# Indices 1 2 3 4 5 6 
#
# 1 0.035899 -0.009757 -0.006126 0.000000 0.000000 0.000000
# 2 -0.009757 0.012350 -0.001622 0.000000 0.000000 0.000000
# 3 -0.006126 -0.001622 0.011694 0.000000 0.000000 0.000000
# 4 0.000000 0.000000 0.000000 0.020030 0.000000 0.000000
# 5 0.000000 0.000000 0.000000 0.000000 0.108349 0.000000
# 6 0.000000 0.000000 0.000000 0.000000 0.000000 0.024178
#
#
# Mechanical properties :
#
#
# Convention : Reuss Voigt Hill
#
# Bulk Modulus (GPa) = 40.10815 51.52224 45.81519
# Shear Modulus (GPa) = 19.54495 30.92172 25.23334
#
# Velocity S-wave (km/s) = 3.07170 3.86361 3.49019
# Velocity P-wave (km/s) = 5.65179 6.69147 6.19348
#
# Compressibility (1/GPa) = 0.02493259
#
# Stress axis : x y z
#
# Youngs Moduli (GPa) = 27.85628 80.97000 85.51449
#
# Poissons Ratio (x) = 0.78999 0.52390
# Poissons Ratio (y) = 0.27178 0.13871
# Poissons Ratio (z) = 0.17066 0.13134
#
# Static dielectric constant tensor:
#      x y z
#    x 1.779460 0.000000 0.000000 
#    y 0.000000 1.763610 0.000000 
#    z 0.000000 0.000000 1.747440 
# 
# From -- ./inp_files/8044.got.cif
#   From: 2010.05.17/outbox.cif.g08.bks.cpg/sg66_5_cif.got.tgz:8044.got - 2010.06.03 17:51:23.
