data_PCOD9497213
_publ_section_title
;
Structure prediction by ZEFSAII (Michael W. Deem and Ramdas Pophale) SiO2 
 PCOD9497213
Probable space group: C C C M
;
_chemical_formula_sum "Si O2"
_cell_formula_units_Z 112
_cell_length_a 26.070033
_cell_length_b 14.685177
_cell_length_c 15.057281
_cell_angle_alpha 90.000000
_cell_angle_beta 90.000000
_cell_angle_gamma 90.000000
_cell_volume 5764.575368
_symmetry_space_group_name_H-M "C C C M"
_symmetry_group_IT_number 66
_symmetry_cell_setting 'orthorhombic'
loop_
_space_group_symop_operation_xyz
x,y,z
-x,-y,z
x,-y,1/2-z
-x,y,1/2-z
-x,-y,-z
x,y,-z
-x,y,1/2+z
x,-y,1/2+z
1/2+x,1/2+y,z
1/2-x,1/2-y,z
1/2+x,1/2-y,1/2-z
1/2-x,1/2+y,1/2-z
1/2-x,1/2-y,-z
1/2+x,1/2+y,-z
1/2-x,1/2+y,1/2+z
1/2+x,1/2-y,1/2+z
loop_
_atom_site_type_symbol
_atom_site_label
_atom_site_fract_x
_atom_site_fract_y
_atom_site_fract_z
Si Si1 0.301809 0.202661 0.295050
Si Si2 0.206879 0.478373 0.401876
Si Si3 0.401737 0.670984 0.603595
Si Si4 0.621628 0.332922 0.103607
Si Si5 0.169824 0.329213 0.900081
Si Si6 0.990532 0.104631 0.108283
Si Si7 0.320021 0.482120 0.852904
O O1 0.250000 0.250000 0.328614
O O2 0.301248 0.099524 0.330024
O O3 0.348830 0.260269 0.335385
O O4 0.301056 0.201989 0.188340
O O5 0.202867 0.436273 0.500000
O O6 0.167809 0.562049 0.394812
O O7 0.263528 0.523679 0.394480
O O8 0.404263 0.643974 0.500000
O O9 0.383075 0.774308 0.607722
O O10 0.458514 0.656114 0.639857
O O11 0.357327 0.604650 0.640079
O O12 0.563945 0.354409 0.136192
O O13 0.651433 0.429399 0.108343
O O14 0.621018 0.303518 0.000000
O O15 0.190287 0.307036 0.000000
O O16 0.988002 0.106139 0.000000
O O17 0.000000 0.000000 0.134555
O O18 0.311017 0.500000 0.750000
#
# Coordination Sequence:
#
# PCOD9497213 Si02
#       7
#    16  16  16  16  16  16  16
#     4  12  24  39  60  88 123 155 201 250 299 357
#     4  11  24  41  62  85 117 160 204 249 302 356
#     4  10  20  36  59  83 115 157 204 247 292 351
#     4  11  22  37  59  88 124 163 201 245 305 362
#     4  10  24  42  60  85 118 162 204 246 298 356
#     4   9  17  34  59  87 119 159 200 245 299 360
#     4  12  22  33  51  84 123 160 200 244 293 349
#
# _framework density 19.429012
#
# number of rings (size 3 to 8) (size 9 to 14) (size 15 to 20)
#    0.000    1.286    2.857    3.857    2.000    0.857 
#    0.000    3.571    0.000    0.857    0.000    7.000 
#    0.000    0.000    0.000    0.000    0.000    0.000 
#
# Total GULP energy -312687.607841 kJ/mol
# GULP energy per Si atom -5583.707283 kJ/mol
# Density = 1.938479 g / cm^3
# Si number density = 19.429012 Si / 1000 Ang^3
#
#
#
# Elastic Constant Matrix: (Units=GPa)
#
#
# Indices 1 2 3 4 5 6 
#
# 1 114.7430 79.3410 32.2447 0.0000 0.0000 0.0000
# 2 79.3410 101.7103 25.2701 0.0000 0.0000 0.0000
# 3 32.2447 25.2701 102.0719 0.0000 0.0000 0.0000
# 4 0.0000 0.0000 0.0000 25.8783 0.0000 0.0000
# 5 0.0000 0.0000 0.0000 0.0000 5.5934 0.0000
# 6 0.0000 0.0000 0.0000 0.0000 0.0000 22.6105
#
#
#
# Elastic Compliance Matrix: (Units=1/GPa)
#
#
# Indices 1 2 3 4 5 6 
#
# 1 0.019527 -0.014597 -0.002555 0.000000 0.000000 0.000000
# 2 -0.014597 0.021389 -0.000684 0.000000 0.000000 0.000000
# 3 -0.002555 -0.000684 0.010773 0.000000 0.000000 0.000000
# 4 0.000000 0.000000 0.000000 0.038642 0.000000 0.000000
# 5 0.000000 0.000000 0.000000 0.000000 0.178783 0.000000
# 6 0.000000 0.000000 0.000000 0.000000 0.000000 0.044227
#
#
# Mechanical properties :
#
#
# Convention : Reuss Voigt Hill
#
# Bulk Modulus (GPa) = 62.43405 65.80408 64.11906
# Shear Modulus (GPa) = 14.11025 22.92773 18.51899
#
# Velocity S-wave (km/s) = 2.69782 3.43895 3.09068
# Velocity P-wave (km/s) = 6.47368 7.05060 6.76829
#
# Compressibility (1/GPa) = 0.01601690
#
# Stress axis : x y z
#
# Youngs Moduli (GPa) = 51.21193 46.75345 92.82185
#
# Poissons Ratio (x) = 0.68248 0.23712
# Poissons Ratio (y) = 0.74756 0.06348
# Poissons Ratio (z) = 0.13083 0.03197
#
# Static dielectric constant tensor:
#      x y z
#    x 1.688050 0.000000 0.000000 
#    y 0.000000 1.664420 0.000000 
#    z 0.000000 0.000000 1.745260 
# 
# From -- ./inp_files/32485.got.cif
#   From: 2010.05.17/outbox.cif.g08.bks.cpg/sg66_17_cif.got.tgz:32485.got - 2010.06.03 17:51:23.
