data_PCOD9497992
_publ_section_title
;
Structure prediction by ZEFSAII (Michael W. Deem and Ramdas Pophale) SiO2 
 PCOD9497992
Probable space group: C C C M
;
_chemical_formula_sum "Si O2"
_cell_formula_units_Z 72
_cell_length_a 9.770233
_cell_length_b 23.696083
_cell_length_c 14.231210
_cell_angle_alpha 90.000000
_cell_angle_beta 90.000000
_cell_angle_gamma 90.000000
_cell_volume 3294.756402
_symmetry_space_group_name_H-M "C C C M"
_symmetry_group_IT_number 66
_symmetry_cell_setting 'orthorhombic'
loop_
_space_group_symop_operation_xyz
x,y,z
-x,-y,z
x,-y,1/2-z
-x,y,1/2-z
-x,-y,-z
x,y,-z
-x,y,1/2+z
x,-y,1/2+z
1/2+x,1/2+y,z
1/2-x,1/2-y,z
1/2+x,1/2-y,1/2-z
1/2-x,1/2+y,1/2-z
1/2-x,1/2-y,-z
1/2+x,1/2+y,-z
1/2-x,1/2+y,1/2+z
1/2+x,1/2-y,1/2+z
loop_
_atom_site_type_symbol
_atom_site_label
_atom_site_fract_x
_atom_site_fract_y
_atom_site_fract_z
Si Si1 0.230240 0.124229 0.735861
Si Si2 0.105964 0.216530 0.395032
Si Si3 0.358574 0.028491 0.605732
Si Si4 0.897585 0.948871 0.106195
Si Si5 0.500000 0.801125 0.250000
O O1 0.139475 0.161524 0.665467
O O2 0.297313 0.073210 0.677303
O O3 0.136200 0.100020 0.819544
O O4 0.362825 0.161854 0.763076
O O5 0.058446 0.203796 0.500000
O O6 0.250000 0.250000 0.401032
O O7 0.010724 0.259566 0.338908
O O8 0.376883 0.053263 0.500000
O O9 0.500000 0.000000 0.635107
O O10 0.248237 0.979339 0.598809
O O11 0.940939 0.931353 0.000000
O O12 0.000000 0.000000 0.135966
#
# Coordination Sequence:
#
# PCOD9497992 Si02
#       5
#    16  16  16  16   8
#     4  11  21  37  64  90 120 166 211 254 312 372
#     4   9  20  39  61  88 120 154 201 258 313 371
#     4  10  21  37  60  93 128 161 204 258 312 371
#     4  10  23  41  60  89 130 171 208 249 306 377
#     4  10  22  38  61  92 119 154 210 268 318 362
#
# _framework density 21.852903999999999
#
# number of rings (size 3 to 8) (size 9 to 14) (size 15 to 20)
#    0.000    2.000    0.000    2.667    0.000    6.222 
#    0.000    3.333    0.000    6.000    0.000    0.000 
#    0.000    0.000    0.000    0.000    0.000    0.000 
#
# Total GULP energy -201238.512698 kJ/mol
# GULP energy per Si atom -5589.958686 kJ/mol
# Density = 2.180317 g / cm^3
# Si number density = 21.852904 Si / 1000 Ang^3
#
#
#
# Elastic Constant Matrix: (Units=GPa)
#
#
# Indices 1 2 3 4 5 6 
#
# 1 102.2731 46.1885 50.5843 0.0000 0.0000 0.0000
# 2 46.1885 111.4682 96.3859 0.0000 0.0000 0.0000
# 3 50.5843 96.3859 190.6420 0.0000 0.0000 0.0000
# 4 0.0000 0.0000 0.0000 18.3525 0.0000 0.0000
# 5 0.0000 0.0000 0.0000 0.0000 23.5241 0.0000
# 6 0.0000 0.0000 0.0000 0.0000 0.0000 43.7413
#
#
#
# Elastic Compliance Matrix: (Units=1/GPa)
#
#
# Indices 1 2 3 4 5 6 
#
# 1 0.012184 -0.004003 -0.001209 0.000000 0.000000 0.000000
# 2 -0.004003 0.017255 -0.007662 0.000000 0.000000 0.000000
# 3 -0.001209 -0.007662 0.009440 0.000000 0.000000 0.000000
# 4 0.000000 0.000000 0.000000 0.054488 0.000000 0.000000
# 5 0.000000 0.000000 0.000000 0.000000 0.042510 0.000000
# 6 0.000000 0.000000 0.000000 0.000000 0.000000 0.022862
#
#
# Mechanical properties :
#
#
# Convention : Reuss Voigt Hill
#
# Bulk Modulus (GPa) = 76.15572 87.85562 82.00567
# Shear Modulus (GPa) = 26.47433 31.20524 28.83978
#
# Velocity S-wave (km/s) = 3.48441 3.78295 3.63674
# Velocity P-wave (km/s) = 7.14934 7.70528 7.43251
#
# Compressibility (1/GPa) = 0.01313099
#
# Stress axis : x y z
#
# Youngs Moduli (GPa) = 82.07806 57.95439 105.93462
#
# Poissons Ratio (x) = 0.23200 0.12805
# Poissons Ratio (y) = 0.32858 0.81163
# Poissons Ratio (z) = 0.09921 0.44403
#
# Static dielectric constant tensor:
#      x y z
#    x 2.034680 0.000000 0.000000 
#    y 0.000000 1.839880 0.000000 
#    z 0.000000 0.000000 1.859840 
# 
# From -- ./inp_files/26309.got.cif
#   From: 2010.05.17/outbox.cif.g08.bks.cpg/sg66_14_cif.got.tgz:26309.got - 2010.06.03 17:51:23.
