data_PCOD9497903
_publ_section_title
;
Structure prediction by ZEFSAII (Michael W. Deem and Ramdas Pophale) SiO2 
 PCOD9497903
Probable space group: C C C M
;
_chemical_formula_sum "Si O2"
_cell_formula_units_Z 48
_cell_length_a 19.019953
_cell_length_b 8.992627
_cell_length_c 15.423706
_cell_angle_alpha 90.000000
_cell_angle_beta 90.000000
_cell_angle_gamma 90.000000
_cell_volume 2638.060539
_symmetry_space_group_name_H-M "C C C M"
_symmetry_group_IT_number 66
_symmetry_cell_setting 'orthorhombic'
loop_
_space_group_symop_operation_xyz
x,y,z
-x,-y,z
x,-y,1/2-z
-x,y,1/2-z
-x,-y,-z
x,y,-z
-x,y,1/2+z
x,-y,1/2+z
1/2+x,1/2+y,z
1/2-x,1/2-y,z
1/2+x,1/2-y,1/2-z
1/2-x,1/2+y,1/2-z
1/2-x,1/2-y,-z
1/2+x,1/2+y,-z
1/2-x,1/2+y,1/2+z
1/2+x,1/2-y,1/2+z
loop_
_atom_site_type_symbol
_atom_site_label
_atom_site_fract_x
_atom_site_fract_y
_atom_site_fract_z
Si Si1 0.922214 0.066935 0.500000
Si Si2 0.823807 0.608668 0.400374
Si Si3 0.666076 0.430217 0.157034
Si Si4 0.424867 0.920489 0.500000
O O1 0.879790 0.009028 0.416461
O O2 0.928156 0.244538 0.500000
O O3 0.000000 0.000000 0.500000
O O4 0.814256 0.664360 0.500000
O O5 0.749100 0.552870 0.365734
O O6 0.847245 0.752377 0.346622
O O7 0.880845 0.480416 0.416460
O O8 0.651753 0.500000 0.250000
O O9 0.500000 0.000000 0.500000
#
# Coordination Sequence:
#
# PCOD9497903 Si02
#       4
#     8  16  16   8
#     4  12  23  40  61  87 121 159 209 256 299 366
#     4   9  19  40  61  83 129 158 195 249 311 355
#     4  11  21  37  65  91 119 159 201 251 302 363
#     4  10  21  36  63  85 115 169 201 242 311 366
#
# _framework density 18.195186
#
# number of rings (size 3 to 8) (size 9 to 14) (size 15 to 20)
#    1.000    0.667    3.333    3.000    0.000    8.667 
#    0.000    0.000    0.000    7.000    0.000    0.000 
#    0.000    0.000    0.000    0.000    0.000    0.000 
#
# Total GULP energy -133780.021301 kJ/mol
# GULP energy per Si atom -5574.167554 kJ/mol
# Density = 1.815377 g / cm^3
# Si number density = 18.195186 Si / 1000 Ang^3
#
#
#
# Elastic Constant Matrix: (Units=GPa)
#
#
# Indices 1 2 3 4 5 6 
#
# 1 117.1564 106.5482 50.0119 0.0000 0.0000 0.0000
# 2 106.5482 167.4151 63.1984 0.0000 0.0000 0.0000
# 3 50.0119 63.1984 141.3092 0.0000 0.0000 0.0000
# 4 0.0000 0.0000 0.0000 2.3417 0.0000 0.0000
# 5 0.0000 0.0000 0.0000 0.0000 -4.4285 0.0000
# 6 0.0000 0.0000 0.0000 0.0000 0.0000 34.4933
#
#
#
# Elastic Compliance Matrix: (Units=1/GPa)
#
#
# Indices 1 2 3 4 5 6 
#
# 1 0.020606 -0.012466 -0.001718 0.000000 0.000000 0.000000
# 2 -0.012466 0.014728 -0.002175 0.000000 0.000000 0.000000
# 3 -0.001718 -0.002175 0.008657 0.000000 0.000000 0.000000
# 4 0.000000 0.000000 0.000000 0.427046 0.000000 0.000000
# 5 0.000000 0.000000 0.000000 0.000000 -0.225810 0.000000
# 6 0.000000 0.000000 0.000000 0.000000 0.000000 0.028991
#
#
# Mechanical properties :
#
#
# Convention : Reuss Voigt Hill
#
# Bulk Modulus (GPa) = 88.69787 96.15530 92.42659
# Shear Modulus (GPa) = 16.09306 20.22278 18.15792
#
# Velocity S-wave (km/s) = 2.97723 3.33744 3.16246
# Velocity P-wave (km/s) = 7.78924 8.23484 8.01514
#
# Compressibility (1/GPa) = 0.01127423
#
# Stress axis : x y z
#
# Youngs Moduli (GPa) = 48.52977 67.89867 115.50964
#
# Poissons Ratio (x) = 0.84641 0.19841
# Poissons Ratio (y) = 0.60496 0.25122
# Poissons Ratio (z) = 0.08336 0.14767
#
# Static dielectric constant tensor:
#      x y z
#    x 1.623800 0.000000 0.000000 
#    y 0.000000 1.629740 0.000000 
#    z 0.000000 0.000000 1.613260 
# 
# From -- ./inp_files/39519.got.cif
#   From: 2010.05.17/outbox.cif.g08.bks.cpg/sg66_20_cif.got.tgz:39519.got - 2010.06.03 17:51:23.
