data_PCOD9497046
_publ_section_title
;
Structure prediction by ZEFSAII (Michael W. Deem and Ramdas Pophale) SiO2 
 PCOD9497046
Probable space group: C C C M
;
_chemical_formula_sum "Si O2"
_cell_formula_units_Z 96
_cell_length_a 27.701049
_cell_length_b 20.636878
_cell_length_c 8.690787
_cell_angle_alpha 90.000000
_cell_angle_beta 90.000000
_cell_angle_gamma 90.000000
_cell_volume 4968.202835
_symmetry_space_group_name_H-M "C C C M"
_symmetry_group_IT_number 66
_symmetry_cell_setting 'orthorhombic'
loop_
_space_group_symop_operation_xyz
x,y,z
-x,-y,z
x,-y,1/2-z
-x,y,1/2-z
-x,-y,-z
x,y,-z
-x,y,1/2+z
x,-y,1/2+z
1/2+x,1/2+y,z
1/2-x,1/2-y,z
1/2+x,1/2-y,1/2-z
1/2-x,1/2+y,1/2-z
1/2-x,1/2-y,-z
1/2+x,1/2+y,-z
1/2-x,1/2+y,1/2+z
1/2+x,1/2-y,1/2+z
loop_
_atom_site_type_symbol
_atom_site_label
_atom_site_fract_x
_atom_site_fract_y
_atom_site_fract_z
Si Si1 0.447805 0.825390 0.314707
Si Si2 0.207118 0.799442 0.815304
Si Si3 0.103073 0.805502 0.316357
Si Si4 0.761290 0.430235 0.183908
Si Si5 0.132537 0.570672 0.685074
Si Si6 0.053867 0.069264 0.316514
O O1 0.500000 0.842129 0.250000
O O2 0.449574 0.826510 0.500000
O O3 0.431935 0.753154 0.267310
O O4 0.406546 0.876083 0.266631
O O5 0.250000 0.750000 0.773936
O O6 0.157268 0.786386 0.730011
O O7 0.225131 0.872047 0.779377
O O8 0.199706 0.794408 0.000000
O O9 0.099575 0.813231 0.500000
O O10 0.087490 0.871920 0.235869
O O11 0.746471 0.500000 0.250000
O O12 0.814096 0.414361 0.251730
O O13 0.765560 0.435048 0.000000
O O14 0.119386 0.500000 0.750000
O O15 0.134536 0.568235 0.500000
O O16 0.051337 0.065651 0.500000
O O17 0.000000 0.080592 0.250000
O O18 0.070423 0.000000 0.250000
#
# Coordination Sequence:
#
# PCOD9497046 Si02
#       6
#    16  16  16  16  16  16
#     4  10  23  39  57  82 112 147 187 231 279 333
#     4  10  22  39  58  82 112 148 191 237 286 339
#     4  11  23  39  59  85 115 150 191 235 286 340
#     4  10  20  35  57  83 111 145 183 224 275 331
#     4  10  20  36  57  83 113 146 186 229 277 332
#     4  11  22  39  62  88 118 152 190 233 282 337
#
# _framework density 19.322883000000001
#
# number of rings (size 3 to 8) (size 9 to 14) (size 15 to 20)
#    0.000    1.667    0.000    6.000    0.000    6.667 
#    0.000    3.333    0.000    0.000    0.000    0.000 
#    0.000    0.000    0.000    0.000    0.000    0.000 
#
# Total GULP energy -268338.769619 kJ/mol
# GULP energy per Si atom -5590.391034 kJ/mol
# Density = 1.927890 g / cm^3
# Si number density = 19.322883 Si / 1000 Ang^3
#
#
#
# Elastic Constant Matrix: (Units=GPa)
#
#
# Indices 1 2 3 4 5 6 
#
# 1 23.7724 -1.1457 7.2444 0.0000 0.0000 0.0000
# 2 -1.1457 32.0623 12.4585 0.0000 0.0000 0.0000
# 3 7.2444 12.4585 60.2877 0.0000 0.0000 0.0000
# 4 0.0000 0.0000 0.0000 14.2434 0.0000 0.0000
# 5 0.0000 0.0000 0.0000 0.0000 31.2223 0.0000
# 6 0.0000 0.0000 0.0000 0.0000 0.0000 34.5490
#
#
#
# Elastic Compliance Matrix: (Units=1/GPa)
#
#
# Indices 1 2 3 4 5 6 
#
# 1 0.044121 0.003954 -0.006119 0.000000 0.000000 0.000000
# 2 0.003954 0.034267 -0.007556 0.000000 0.000000 0.000000
# 3 -0.006119 -0.007556 0.018884 0.000000 0.000000 0.000000
# 4 0.000000 0.000000 0.000000 0.070208 0.000000 0.000000
# 5 0.000000 0.000000 0.000000 0.000000 0.032028 0.000000
# 6 0.000000 0.000000 0.000000 0.000000 0.000000 0.028944
#
#
# Mechanical properties :
#
#
# Convention : Reuss Voigt Hill
#
# Bulk Modulus (GPa) = 12.84864 17.02632 14.93748
# Shear Modulus (GPa) = 18.25900 22.50727 20.38314
#
# Velocity S-wave (km/s) = 3.07733 3.41662 3.25140
# Velocity P-wave (km/s) = 4.39209 4.93913 4.67362
#
# Compressibility (1/GPa) = 0.07782925
#
# Stress axis : x y z
#
# Youngs Moduli (GPa) = 22.66508 29.18283 52.95507
#
# Poissons Ratio (x) = -0.11539 0.32402
# Poissons Ratio (y) = -0.08962 0.40015
# Poissons Ratio (z) = 0.13868 0.22052
#
# Static dielectric constant tensor:
#      x y z
#    x 1.647840 0.000000 0.000000 
#    y 0.000000 1.671510 0.000000 
#    z 0.000000 0.000000 1.651000 
# 
# From -- ./inp_files/8046.got.cif
#   From: 2010.05.17/outbox.cif.g08.bks.cpg/sg66_5_cif.got.tgz:8046.got - 2010.06.03 17:51:23.
