data_PCOD9497897
_publ_section_title
;
Structure prediction by ZEFSAII (Michael W. Deem and Ramdas Pophale) SiO2 
 PCOD9497897
Probable space group: C C C M
;
_chemical_formula_sum "Si O2"
_cell_formula_units_Z 60
_cell_length_a 10.614580
_cell_length_b 9.861234
_cell_length_c 24.842077
_cell_angle_alpha 90.000000
_cell_angle_beta 90.000000
_cell_angle_gamma 90.000000
_cell_volume 2600.291178
_symmetry_space_group_name_H-M "C C C M"
_symmetry_group_IT_number 66
_symmetry_cell_setting 'orthorhombic'
loop_
_space_group_symop_operation_xyz
x,y,z
-x,-y,z
x,-y,1/2-z
-x,y,1/2-z
-x,-y,-z
x,y,-z
-x,y,1/2+z
x,-y,1/2+z
1/2+x,1/2+y,z
1/2-x,1/2-y,z
1/2+x,1/2-y,1/2-z
1/2-x,1/2+y,1/2-z
1/2-x,1/2-y,-z
1/2+x,1/2+y,-z
1/2-x,1/2+y,1/2+z
1/2+x,1/2-y,1/2+z
loop_
_atom_site_type_symbol
_atom_site_label
_atom_site_fract_x
_atom_site_fract_y
_atom_site_fract_z
Si Si1 0.876714 0.343317 0.942549
Si Si2 0.000000 0.000000 0.147543
Si Si3 0.100981 0.727264 0.827289
Si Si4 0.500000 0.000000 0.250000
Si Si5 0.207757 0.096312 0.061469
O O1 0.750000 0.250000 0.944117
O O2 0.945197 0.305972 0.887984
O O3 0.827469 0.496033 0.938039
O O4 0.942386 0.322234 0.000000
O O5 0.035743 0.870753 0.183467
O O6 0.886010 0.960125 0.107027
O O7 0.250000 0.750000 0.828786
O O8 0.075160 0.602814 0.788242
O O9 0.250000 0.250000 0.071050
O O10 0.155626 0.085162 0.000000
#
# Coordination Sequence:
#
# PCOD9497897 Si02
#       5
#    16   8  16   4  16
#     4   9  17  38  67  98 144 178 207 276 345 396
#     4  12  23  39  74  98 132 184 229 269 354 410
#     4  11  26  49  71 103 137 176 229 293 339 405
#     4  12  32  50  74  98 128 182 248 282 352 404
#     4  10  21  36  61 104 149 185 221 268 329 414
#
# _framework density 23.074338999999998
#
# number of rings (size 3 to 8) (size 9 to 14) (size 15 to 20)
#    0.000    1.600    5.333    0.400    3.733    3.733 
#    0.000    0.667    0.000    0.000    0.000    0.000 
#    0.000    0.000    0.000    0.000    0.000    0.000 
#
# Total GULP energy -167799.650865 kJ/mol
# GULP energy per Si atom -5593.321695 kJ/mol
# Density = 2.302182 g / cm^3
# Si number density = 23.074339 Si / 1000 Ang^3
#
#
#
# Elastic Constant Matrix: (Units=GPa)
#
#
# Indices 1 2 3 4 5 6 
#
# 1 45.3181 29.3389 32.5891 0.0000 0.0000 0.0000
# 2 29.3389 195.0526 57.2381 0.0000 0.0000 0.0000
# 3 32.5891 57.2381 130.2542 0.0000 0.0000 0.0000
# 4 0.0000 0.0000 0.0000 38.5005 0.0000 0.0000
# 5 0.0000 0.0000 0.0000 0.0000 -26.2547 0.0000
# 6 0.0000 0.0000 0.0000 0.0000 0.0000 39.3919
#
#
#
# Elastic Compliance Matrix: (Units=1/GPa)
#
#
# Indices 1 2 3 4 5 6 
#
# 1 0.027904 -0.002467 -0.005898 0.000000 0.000000 0.000000
# 2 -0.002467 0.006104 -0.002065 0.000000 0.000000 0.000000
# 3 -0.005898 -0.002065 0.010060 0.000000 0.000000 0.000000
# 4 0.000000 0.000000 0.000000 0.025974 0.000000 0.000000
# 5 0.000000 0.000000 0.000000 0.000000 -0.038088 0.000000
# 6 0.000000 0.000000 0.000000 0.000000 0.000000 0.025386
#
#
# Mechanical properties :
#
#
# Convention : Reuss Voigt Hill
#
# Bulk Modulus (GPa) = 43.08533 67.66190 55.37361
# Shear Modulus (GPa) = 58.18369 27.09145 42.63757
#
# Velocity S-wave (km/s) = 5.02698 3.43022 4.30331
# Velocity P-wave (km/s) = 7.23926 6.71384 6.98150
#
# Compressibility (1/GPa) = 0.02320976
#
# Stress axis : x y z
#
# Youngs Moduli (GPa) = 35.83695 163.83138 99.40022
#
# Poissons Ratio (x) = 0.40410 0.58622
# Poissons Ratio (y) = 0.08839 0.20527
# Poissons Ratio (z) = 0.21135 0.33833
#
# Static dielectric constant tensor:
#      x y z
#    x 2.010410 0.000000 0.000000 
#    y 0.000000 1.876120 0.000000 
#    z 0.000000 0.000000 1.889390 
# 
# From -- ./inp_files/63263.got.cif
#   From: 2010.05.17/outbox.cif.g08.bks.cpg/sg66_32_cif.got.tgz:63263.got - 2010.06.03 17:51:23.
