data_PCOD9497848
_publ_section_title
;
Structure prediction by ZEFSAII (Michael W. Deem and Ramdas Pophale) SiO2 
 PCOD9497848
Probable space group: C C C M
;
_chemical_formula_sum "Si O2"
_cell_formula_units_Z 64
_cell_length_a 12.062503
_cell_length_b 17.311447
_cell_length_c 13.480602
_cell_angle_alpha 90.000000
_cell_angle_beta 90.000000
_cell_angle_gamma 90.000000
_cell_volume 2815.010970
_symmetry_space_group_name_H-M "C C C M"
_symmetry_group_IT_number 66
_symmetry_cell_setting 'orthorhombic'
loop_
_space_group_symop_operation_xyz
x,y,z
-x,-y,z
x,-y,1/2-z
-x,y,1/2-z
-x,-y,-z
x,y,-z
-x,y,1/2+z
x,-y,1/2+z
1/2+x,1/2+y,z
1/2-x,1/2-y,z
1/2+x,1/2-y,1/2-z
1/2-x,1/2+y,1/2-z
1/2-x,1/2-y,-z
1/2+x,1/2+y,-z
1/2-x,1/2+y,1/2+z
1/2+x,1/2-y,1/2+z
loop_
_atom_site_type_symbol
_atom_site_label
_atom_site_fract_x
_atom_site_fract_y
_atom_site_fract_z
Si Si1 0.832264 0.954359 0.119592
Si Si2 0.072337 0.111458 0.379924
Si Si3 0.425981 0.211423 0.615190
Si Si4 0.671665 0.824638 0.187662
O O1 0.730874 0.901597 0.150682
O O2 0.947409 0.912250 0.148763
O O3 0.845679 0.043260 0.153106
O O4 0.831811 0.956462 0.000000
O O5 0.073991 0.111408 0.500000
O O6 0.093609 0.199448 0.352753
O O7 0.395701 0.200755 0.500000
O O8 0.356371 0.165537 0.696042
O O9 0.555268 0.192044 0.632312
O O10 0.750000 0.750000 0.170922
#
# Coordination Sequence:
#
# PCOD9497848 Si02
#       4
#    16  16  16  16
#     4   9  16  29  55  89 124 164 209 267 336 394
#     4   8  15  30  54  85 121 161 207 267 334 387
#     4  10  21  36  55  86 129 172 222 276 323 390
#     4  11  21  33  55  89 128 174 223 268 333 394
#
# _framework density 22.735257000000001
#
# number of rings (size 3 to 8) (size 9 to 14) (size 15 to 20)
#    0.000    2.500    2.500    2.250    0.000    1.500 
#    0.000    1.250    0.000    0.000    0.000   26.250 
#    0.000   32.000    0.000    0.000    0.000    0.000 
#
# Total GULP energy -179140.165352 kJ/mol
# GULP energy per Si atom -5598.130167 kJ/mol
# Density = 2.268351 g / cm^3
# Si number density = 22.735257 Si / 1000 Ang^3
#
#
#
# Elastic Constant Matrix: (Units=GPa)
#
#
# Indices 1 2 3 4 5 6 
#
# 1 89.8264 59.8178 12.1055 0.0000 0.0000 0.0000
# 2 59.8178 106.1852 36.6543 0.0000 0.0000 0.0000
# 3 12.1055 36.6543 95.8114 0.0000 0.0000 0.0000
# 4 0.0000 0.0000 0.0000 32.9716 0.0000 0.0000
# 5 0.0000 0.0000 0.0000 0.0000 34.3376 0.0000
# 6 0.0000 0.0000 0.0000 0.0000 0.0000 42.5284
#
#
#
# Elastic Compliance Matrix: (Units=1/GPa)
#
#
# Indices 1 2 3 4 5 6 
#
# 1 0.018099 -0.010838 0.001859 0.000000 0.000000 0.000000
# 2 -0.010838 0.017340 -0.005264 0.000000 0.000000 0.000000
# 3 0.001859 -0.005264 0.012216 0.000000 0.000000 0.000000
# 4 0.000000 0.000000 0.000000 0.030329 0.000000 0.000000
# 5 0.000000 0.000000 0.000000 0.000000 0.029123 0.000000
# 6 0.000000 0.000000 0.000000 0.000000 0.000000 0.023514
#
#
# Mechanical properties :
#
#
# Convention : Reuss Voigt Hill
#
# Bulk Modulus (GPa) = 52.16513 56.55314 54.35914
# Shear Modulus (GPa) = 30.21216 34.18386 32.19801
#
# Velocity S-wave (km/s) = 3.64932 3.88179 3.76735
# Velocity P-wave (km/s) = 6.38366 6.70967 6.54869
#
# Compressibility (1/GPa) = 0.01916989
#
# Stress axis : x y z
#
# Youngs Moduli (GPa) = 55.25129 57.67012 81.85824
#
# Poissons Ratio (x) = 0.62501 -0.15221
# Poissons Ratio (y) = 0.59880 0.43094
# Poissons Ratio (z) = -0.10273 0.30360
#
# Static dielectric constant tensor:
#      x y z
#    x 1.808140 0.000000 0.000000 
#    y 0.000000 1.804340 0.000000 
#    z 0.000000 0.000000 1.902560 
# 
# From -- ./inp_files/25816.got.cif
#   From: 2010.05.17/outbox.cif.g08.bks.cpg/sg66_13_cif.got.tgz:25816.got - 2010.06.03 17:51:23.
