data_PCOD9497065
_publ_section_title
;
Structure prediction by ZEFSAII (Michael W. Deem and Ramdas Pophale) SiO2 
 PCOD9497065
Probable space group: C C C M
;
_chemical_formula_sum "Si O2"
_cell_formula_units_Z 112
_cell_length_a 13.084277
_cell_length_b 23.615096
_cell_length_c 17.102426
_cell_angle_alpha 90.000000
_cell_angle_beta 90.000000
_cell_angle_gamma 90.000000
_cell_volume 5284.418023
_symmetry_space_group_name_H-M "C C C M"
_symmetry_group_IT_number 66
_symmetry_cell_setting 'orthorhombic'
loop_
_space_group_symop_operation_xyz
x,y,z
-x,-y,z
x,-y,1/2-z
-x,y,1/2-z
-x,-y,-z
x,y,-z
-x,y,1/2+z
x,-y,1/2+z
1/2+x,1/2+y,z
1/2-x,1/2-y,z
1/2+x,1/2-y,1/2-z
1/2-x,1/2+y,1/2-z
1/2-x,1/2-y,-z
1/2+x,1/2+y,-z
1/2-x,1/2+y,1/2+z
1/2+x,1/2-y,1/2+z
loop_
_atom_site_type_symbol
_atom_site_label
_atom_site_fract_x
_atom_site_fract_y
_atom_site_fract_z
Si Si1 0.641780 0.621179 0.906042
Si Si2 0.739641 0.513812 0.840316
Si Si3 0.987183 0.778258 0.910500
Si Si4 0.666114 0.908499 0.407786
Si Si5 0.438247 0.069390 0.909929
Si Si6 0.648458 0.183661 0.366378
Si Si7 0.346590 0.208295 0.685409
O O1 0.656743 0.558902 0.870680
O O2 0.542364 0.658209 0.885087
O O3 0.739787 0.657792 0.878735
O O4 0.646484 0.617233 0.000000
O O5 0.726857 0.500000 0.750000
O O6 0.748352 0.454476 0.885912
O O7 0.849116 0.544790 0.855906
O O8 0.882174 0.742101 0.906615
O O9 0.064610 0.744601 0.855697
O O10 0.024364 0.779133 0.000000
O O11 0.665388 0.897043 0.500000
O O12 0.556487 0.938782 0.389088
O O13 0.674189 0.849899 0.361220
O O14 0.425455 0.136889 0.903826
O O15 0.418969 0.051521 0.000000
O O16 0.629390 0.191194 0.274328
O O17 0.250000 0.250000 0.687038
#
# Coordination Sequence:
#
# PCOD9497065 Si02
#       7
#    16  16  16  16  16  16  16
#     4  10  21  38  62  90 122 163 217 266 308 369
#     4  11  22  35  57  88 126 162 198 254 313 374
#     4  11  22  38  61  86 117 163 211 260 309 363
#     4  11  22  37  58  83 120 164 205 250 307 381
#     4  10  20  35  57  87 123 162 206 251 304 382
#     4  11  20  35  59  88 123 158 203 260 316 374
#     4  12  26  40  58  89 127 165 205 257 323 386
#
# _framework density 21.194388
#
# number of rings (size 3 to 8) (size 9 to 14) (size 15 to 20)
#    0.000    1.143    1.429    7.714    0.000    5.714 
#    0.000    0.000    0.000    0.857    0.000    6.000 
#    0.000    0.000    0.000    0.286    0.000    0.000 
#
# Total GULP energy -312944.238792 kJ/mol
# GULP energy per Si atom -5588.289978 kJ/mol
# Density = 2.114615 g / cm^3
# Si number density = 21.194388 Si / 1000 Ang^3
#
#
#
# Elastic Constant Matrix: (Units=GPa)
#
#
# Indices 1 2 3 4 5 6 
#
# 1 23.2454 33.7014 17.8304 0.0000 0.0000 0.0000
# 2 33.7014 130.0532 51.2947 0.0000 0.0000 0.0000
# 3 17.8304 51.2947 104.6780 0.0000 0.0000 0.0000
# 4 0.0000 0.0000 0.0000 58.5577 0.0000 0.0000
# 5 0.0000 0.0000 0.0000 0.0000 0.0715 0.0000
# 6 0.0000 0.0000 0.0000 0.0000 0.0000 31.3404
#
#
#
# Elastic Compliance Matrix: (Units=1/GPa)
#
#
# Indices 1 2 3 4 5 6 
#
# 1 0.070086 -0.016676 -0.003766 0.000000 0.000000 0.000000
# 2 -0.016676 0.013499 -0.003774 0.000000 0.000000 0.000000
# 3 -0.003766 -0.003774 0.012044 0.000000 0.000000 0.000000
# 4 0.000000 0.000000 0.000000 0.017077 0.000000 0.000000
# 5 0.000000 0.000000 0.000000 0.000000 13.994489 0.000000
# 6 0.000000 0.000000 0.000000 0.000000 0.000000 0.031908
#
#
# Mechanical properties :
#
#
# Convention : Reuss Voigt Hill
#
# Bulk Modulus (GPa) = 21.18863 51.51442 36.35152
# Shear Modulus (GPa) = 0.35203 28.33725 14.34464
#
# Velocity S-wave (km/s) = 0.40799 3.66049 2.60439
# Velocity P-wave (km/s) = 3.20015 6.49800 5.12177
#
# Compressibility (1/GPa) = 0.04719512
#
# Stress axis : x y z
#
# Youngs Moduli (GPa) = 14.26828 74.07830 83.02755
#
# Poissons Ratio (x) = 1.23534 0.31271
# Poissons Ratio (y) = 0.23794 0.31338
# Poissons Ratio (z) = 0.05374 0.27960
#
# Static dielectric constant tensor:
#      x y z
#    x 1.799230 0.000000 0.000000 
#    y 0.000000 1.826000 0.000000 
#    z 0.000000 0.000000 1.732810 
# 
# From -- ./inp_files/28740.got.cif
#   From: 2010.05.17/outbox.cif.g08.bks.cpg/sg66_15_cif.got.tgz:28740.got - 2010.06.03 17:51:23.
