data_PCOD9497724
_publ_section_title
;
Structure prediction by ZEFSAII (Michael W. Deem and Ramdas Pophale) SiO2 
 PCOD9497724
Probable space group: C C C M
;
_chemical_formula_sum "Si O2"
_cell_formula_units_Z 64
_cell_length_a 29.692800
_cell_length_b 7.123589
_cell_length_c 11.961120
_cell_angle_alpha 90.000000
_cell_angle_beta 90.000000
_cell_angle_gamma 90.000000
_cell_volume 2530.007771
_symmetry_space_group_name_H-M "C C C M"
_symmetry_group_IT_number 66
_symmetry_cell_setting 'orthorhombic'
loop_
_space_group_symop_operation_xyz
x,y,z
-x,-y,z
x,-y,1/2-z
-x,y,1/2-z
-x,-y,-z
x,y,-z
-x,y,1/2+z
x,-y,1/2+z
1/2+x,1/2+y,z
1/2-x,1/2-y,z
1/2+x,1/2-y,1/2-z
1/2-x,1/2+y,1/2-z
1/2-x,1/2-y,-z
1/2+x,1/2+y,-z
1/2-x,1/2+y,1/2+z
1/2+x,1/2-y,1/2+z
loop_
_atom_site_type_symbol
_atom_site_label
_atom_site_fract_x
_atom_site_fract_y
_atom_site_fract_z
Si Si1 0.097362 0.768025 0.000000
Si Si2 0.552796 0.221303 0.235689
Si Si3 0.678164 0.017384 0.000000
Si Si4 0.620714 0.500000 0.750000
Si Si5 0.201073 0.769557 0.306220
Si Si6 0.691805 0.563020 0.500000
O O1 0.068419 0.772891 0.110780
O O2 0.125992 0.575691 0.000000
O O3 0.136412 0.928604 0.000000
O O4 0.500000 0.255334 0.250000
O O5 0.584308 0.358885 0.308736
O O6 0.561247 0.000000 0.250000
O O7 0.689090 0.904312 0.113105
O O8 0.702842 0.218040 0.000000
O O9 0.658432 0.331658 0.768751
O O10 0.250000 0.750000 0.251630
O O11 0.207050 0.937917 0.396030
#
# Coordination Sequence:
#
# PCOD9497724 Si02
#       6
#     8  16   8   8  16   8
#     4  10  20  45  69  98 137 182 221 295 359 404
#     4  11  25  45  73 103 137 184 239 296 360 434
#     4   9  19  39  68  92 125 181 226 285 350 413
#     4  12  23  46  62  96 150 180 233 290 354 414
#     4  11  23  39  63  99 135 182 238 284 342 421
#     4   9  19  41  65  93 127 177 227 290 346 415
#
# _framework density 25.296364000000001
#
# number of rings (size 3 to 8) (size 9 to 14) (size 15 to 20)
#    0.750    0.750    2.500    3.375    0.000    4.000 
#   11.250    5.000    0.000    0.000    0.000    0.000 
#    0.000    0.000    0.000    0.000    0.000    0.000 
#
# Total GULP energy -178406.269251 kJ/mol
# GULP energy per Si atom -5575.195914 kJ/mol
# Density = 2.523879 g / cm^3
# Si number density = 25.296364 Si / 1000 Ang^3
#
#
#
# Elastic Constant Matrix: (Units=GPa)
#
#
# Indices 1 2 3 4 5 6 
#
# 1 220.1074 73.6704 41.1089 0.0000 0.0000 0.0000
# 2 73.6704 190.3300 29.4073 0.0000 0.0000 0.0000
# 3 41.1089 29.4073 95.7770 0.0000 0.0000 0.0000
# 4 0.0000 0.0000 0.0000 42.2619 0.0000 0.0000
# 5 0.0000 0.0000 0.0000 0.0000 41.0888 0.0000
# 6 0.0000 0.0000 0.0000 0.0000 0.0000 47.8370
#
#
#
# Elastic Compliance Matrix: (Units=1/GPa)
#
#
# Indices 1 2 3 4 5 6 
#
# 1 0.005497 -0.001851 -0.001791 0.000000 0.000000 0.000000
# 2 -0.001851 0.006139 -0.001090 0.000000 0.000000 0.000000
# 3 -0.001791 -0.001090 0.011545 0.000000 0.000000 0.000000
# 4 0.000000 0.000000 0.000000 0.023662 0.000000 0.000000
# 5 0.000000 0.000000 0.000000 0.000000 0.024338 0.000000
# 6 0.000000 0.000000 0.000000 0.000000 0.000000 0.020904
#
#
# Mechanical properties :
#
#
# Convention : Reuss Voigt Hill
#
# Bulk Modulus (GPa) = 72.91012 88.28750 80.59881
# Shear Modulus (GPa) = 47.11564 50.37272 48.74418
#
# Velocity S-wave (km/s) = 4.32040 4.46724 4.39444
# Velocity P-wave (km/s) = 7.33299 7.84763 7.59467
#
# Compressibility (1/GPa) = 0.01371552
#
# Stress axis : x y z
#
# Youngs Moduli (GPa) = 181.90641 162.89296 86.62125
#
# Poissons Ratio (x) = 0.30153 0.15515
# Poissons Ratio (y) = 0.33672 0.09445
# Poissons Ratio (z) = 0.32583 0.17762
#
# Static dielectric constant tensor:
#      x y z
#    x 1.990500 0.000000 0.000000 
#    y 0.000000 2.074310 0.000000 
#    z 0.000000 0.000000 2.249980 
# 
# From -- ./inp_files/31958.got.cif
#   From: 2010.05.17/outbox.cif.g08.bks.cpg/sg66_16_cif.got.tgz:31958.got - 2010.06.03 17:51:23.
