data_PCOD9497127
_publ_section_title
;
Structure prediction by ZEFSAII (Michael W. Deem and Ramdas Pophale) SiO2 
 PCOD9497127
Probable space group: C C C M
;
_chemical_formula_sum "Si O2"
_cell_formula_units_Z 112
_cell_length_a 14.198257
_cell_length_b 13.233561
_cell_length_c 27.666062
_cell_angle_alpha 90.000000
_cell_angle_beta 90.000000
_cell_angle_gamma 90.000000
_cell_volume 5198.273223
_symmetry_space_group_name_H-M "C C C M"
_symmetry_group_IT_number 66
_symmetry_cell_setting 'orthorhombic'
loop_
_space_group_symop_operation_xyz
x,y,z
-x,-y,z
x,-y,1/2-z
-x,y,1/2-z
-x,-y,-z
x,y,-z
-x,y,1/2+z
x,-y,1/2+z
1/2+x,1/2+y,z
1/2-x,1/2-y,z
1/2+x,1/2-y,1/2-z
1/2-x,1/2+y,1/2-z
1/2-x,1/2-y,-z
1/2+x,1/2+y,-z
1/2-x,1/2+y,1/2+z
1/2+x,1/2-y,1/2+z
loop_
_atom_site_type_symbol
_atom_site_label
_atom_site_fract_x
_atom_site_fract_y
_atom_site_fract_z
Si Si1 0.943495 0.741619 0.058229
Si Si2 0.201081 0.960752 0.805468
Si Si3 0.085523 0.555987 0.802304
Si Si4 0.427863 0.587842 0.376127
Si Si5 0.110868 0.470627 0.055527
Si Si6 0.159019 0.687826 0.058852
Si Si7 0.449593 0.706168 0.200174
O O1 0.898955 0.843402 0.079053
O O2 0.890111 0.641325 0.077438
O O3 0.055726 0.732712 0.071235
O O4 0.940273 0.739874 0.000000
O O5 0.309158 0.954770 0.820034
O O6 0.148202 0.853204 0.805683
O O7 0.193153 0.000000 0.750000
O O8 0.148907 0.034313 0.842780
O O9 0.089584 0.500000 0.750000
O O10 0.062701 0.673961 0.799224
O O11 0.000000 0.500000 0.829608
O O12 0.500000 0.500000 0.391764
O O13 0.482772 0.665771 0.341486
O O14 0.160836 0.570879 0.075001
O O15 0.000000 0.500000 0.053010
O O16 0.144375 0.460065 0.000000
O O17 0.250000 0.750000 0.076216
O O18 0.161875 0.687496 0.000000
O O19 0.500000 0.674935 0.250000
#
# Coordination Sequence:
#
# PCOD9497127 Si02
#       7
#    16  16  16  16  16  16  16
#     4   9  17  32  53  80 117 162 210 270 322 366
#     4  10  20  35  61  89 120 162 201 243 304 374
#     4  10  20  36  58  91 126 159 190 244 315 366
#     4  10  22  36  58  88 120 163 219 254 304 385
#     4   7  11  22  44  73 107 146 191 245 312 373
#     4   8  13  24  48  82 114 154 208 262 321 380
#     4  11  19  36  59  88 121 159 198 249 301 369
#
# _framework density 21.545615999999999
#
# number of rings (size 3 to 8) (size 9 to 14) (size 15 to 20)
#    0.000    2.714    2.857    2.143    0.000    0.286 
#    0.000    5.714    0.000    3.429    0.000    1.000 
#    0.000    9.714    0.000    0.000    0.000    0.000 
#
# Total GULP energy -312542.920249 kJ/mol
# GULP energy per Si atom -5581.123576 kJ/mol
# Density = 2.149658 g / cm^3
# Si number density = 21.545616 Si / 1000 Ang^3
#
#
#
# Elastic Constant Matrix: (Units=GPa)
#
#
# Indices 1 2 3 4 5 6 
#
# 1 121.8822 72.1328 19.9892 0.0000 0.0000 0.0000
# 2 72.1328 175.9930 41.4484 0.0000 0.0000 0.0000
# 3 19.9892 41.4484 58.4372 0.0000 0.0000 0.0000
# 4 0.0000 0.0000 0.0000 8.5133 0.0000 0.0000
# 5 0.0000 0.0000 0.0000 0.0000 -0.8267 0.0000
# 6 0.0000 0.0000 0.0000 0.0000 0.0000 25.3985
#
#
#
# Elastic Compliance Matrix: (Units=1/GPa)
#
#
# Indices 1 2 3 4 5 6 
#
# 1 0.010854 -0.004291 -0.000669 0.000000 0.000000 0.000000
# 2 -0.004291 0.008518 -0.004574 0.000000 0.000000 0.000000
# 3 -0.000669 -0.004574 0.020585 0.000000 0.000000 0.000000
# 4 0.000000 0.000000 0.000000 0.117463 0.000000 0.000000
# 5 0.000000 0.000000 0.000000 0.000000 -1.209669 0.000000
# 6 0.000000 0.000000 0.000000 0.000000 0.000000 0.039372
#
#
# Mechanical properties :
#
#
# Convention : Reuss Voigt Hill
#
# Bulk Modulus (GPa) = 47.87156 69.27257 58.57207
# Shear Modulus (GPa) = -5.06665 21.46652 8.19993
#
# Velocity S-wave (km/s) = -1.53515 3.15989 1.95297
# Velocity P-wave (km/s) = 4.37318 6.74793 5.68592
#
# Compressibility (1/GPa) = 0.02088923
#
# Stress axis : x y z
#
# Youngs Moduli (GPa) = 92.13272 117.39920 48.57810
#
# Poissons Ratio (x) = 0.50376 0.03251
# Poissons Ratio (y) = 0.39534 0.22219
# Poissons Ratio (z) = 0.06166 0.53696
#
# Static dielectric constant tensor:
#      x y z
#    x 1.799550 0.000000 0.000000 
#    y 0.000000 1.761810 0.000000 
#    z 0.000000 0.000000 1.823810 
# 
# From -- ./inp_files/69561.got.cif
#   From: 2010.05.17/outbox.cif.g08.bks.cpg/sg66_35_cif.got.tgz:69561.got - 2010.06.03 17:51:23.
