data_PCOD9497125
_publ_section_title
;
Structure prediction by ZEFSAII (Michael W. Deem and Ramdas Pophale) SiO2 
 PCOD9497125
Probable space group: C C C M
;
_chemical_formula_sum "Si O2"
_cell_formula_units_Z 88
_cell_length_a 7.930417
_cell_length_b 20.778852
_cell_length_c 22.527256
_cell_angle_alpha 90.000000
_cell_angle_beta 90.000000
_cell_angle_gamma 90.000000
_cell_volume 3712.153005
_symmetry_space_group_name_H-M "C C C M"
_symmetry_group_IT_number 66
_symmetry_cell_setting 'orthorhombic'
loop_
_space_group_symop_operation_xyz
x,y,z
-x,-y,z
x,-y,1/2-z
-x,y,1/2-z
-x,-y,-z
x,y,-z
-x,y,1/2+z
x,-y,1/2+z
1/2+x,1/2+y,z
1/2-x,1/2-y,z
1/2+x,1/2-y,1/2-z
1/2-x,1/2+y,1/2-z
1/2-x,1/2-y,-z
1/2+x,1/2+y,-z
1/2-x,1/2+y,1/2+z
1/2+x,1/2-y,1/2+z
loop_
_atom_site_type_symbol
_atom_site_label
_atom_site_fract_x
_atom_site_fract_y
_atom_site_fract_z
Si Si1 0.459728 0.350101 0.681299
Si Si2 0.060037 0.574936 0.500000
Si Si3 0.940149 0.272559 0.370851
Si Si4 0.054280 0.230871 0.500000
Si Si5 0.677301 0.532672 0.630600
Si Si6 0.314548 0.409629 0.500000
Si Si7 0.307406 0.097258 0.872299
O O1 0.500000 0.355355 0.750000
O O2 0.437268 0.276263 0.662995
O O3 0.313296 0.399204 0.663080
O O4 0.624057 0.375273 0.644890
O O5 0.881749 0.612065 0.500000
O O6 0.166893 0.591505 0.557354
O O7 0.000000 0.500000 0.500000
O O8 0.750000 0.250000 0.355947
O O9 0.969871 0.258286 0.440462
O O10 0.940558 0.347792 0.354416
O O11 0.063788 0.152415 0.500000
O O12 0.500000 0.500000 0.647870
O O13 0.668173 0.549329 0.560379
O O14 0.811219 0.477442 0.646637
O O15 0.250000 0.250000 0.500000
#
# Coordination Sequence:
#
# PCOD9497125 Si02
#       7
#    16   8  16   8  16   8  16
#     4  10  22  41  67  92 121 165 229 291 333 384
#     4  12  22  37  62  93 143 176 207 256 342 437
#     4  10  21  40  64  91 124 163 213 268 336 403
#     4  12  23  36  57  94 134 170 207 261 335 412
#     4  10  20  35  60  94 125 161 218 275 333 397
#     4  12  21  35  59  94 130 175 210 263 336 416
#     4  10  21  38  64  94 127 168 211 270 337 411
#
# _framework density 23.705919000000002
#
# number of rings (size 3 to 8) (size 9 to 14) (size 15 to 20)
#    0.000    1.455    3.636    2.182    0.000    7.636 
#    0.000    2.727    0.000    0.000    0.000    0.000 
#    0.000    0.000    0.000    0.000    0.000    0.000 
#
# Total GULP energy -245735.935595 kJ/mol
# GULP energy per Si atom -5584.907627 kJ/mol
# Density = 2.365196 g / cm^3
# Si number density = 23.705919 Si / 1000 Ang^3
#
#
#
# Elastic Constant Matrix: (Units=GPa)
#
#
# Indices 1 2 3 4 5 6 
#
# 1 77.0852 44.6902 13.7910 0.0000 0.0000 0.0000
# 2 44.6902 242.9571 41.8731 0.0000 0.0000 0.0000
# 3 13.7910 41.8731 64.6382 0.0000 0.0000 0.0000
# 4 0.0000 0.0000 0.0000 -20.2603 0.0000 0.0000
# 5 0.0000 0.0000 0.0000 0.0000 -21.2254 0.0000
# 6 0.0000 0.0000 0.0000 0.0000 0.0000 39.9187
#
#
#
# Elastic Compliance Matrix: (Units=1/GPa)
#
#
# Indices 1 2 3 4 5 6 
#
# 1 0.014659 -0.002428 -0.001554 0.000000 0.000000 0.000000
# 2 -0.002428 0.005036 -0.002744 0.000000 0.000000 0.000000
# 3 -0.001554 -0.002744 0.017580 0.000000 0.000000 0.000000
# 4 0.000000 0.000000 0.000000 -0.049358 0.000000 0.000000
# 5 0.000000 0.000000 0.000000 0.000000 -0.047113 0.000000
# 6 0.000000 0.000000 0.000000 0.000000 0.000000 0.025051
#
#
# Mechanical properties :
#
#
# Convention : Reuss Voigt Hill
#
# Bulk Modulus (GPa) = 41.98048 65.04325 53.51187
# Shear Modulus (GPa) = -392.08819 18.64168 -186.72325
#
# Velocity S-wave (km/s) = -12.87462 2.80728 -8.88468
# Velocity P-wave (km/s) = 14.25694 6.16481 9.08998
#
# Compressibility (1/GPa) = 0.02382059
#
# Stress axis : x y z
#
# Youngs Moduli (GPa) = 68.21909 198.58750 56.88316
#
# Poissons Ratio (x) = 0.48226 0.08842
# Poissons Ratio (y) = 0.16567 0.15608
# Poissons Ratio (z) = 0.10604 0.54491
#
# Static dielectric constant tensor:
#      x y z
#    x 1.893140 0.000000 0.000000 
#    y 0.000000 2.051270 0.000000 
#    z 0.000000 0.000000 1.843400 
# 
# From -- ./inp_files/48594.got.cif
#   From: 2010.05.17/outbox.cif.g08.bks.cpg/sg66_25_cif.got.tgz:48594.got - 2010.06.03 17:51:23.
