data_PCOD9497341
_publ_section_title
;
Structure prediction by ZEFSAII (Michael W. Deem and Ramdas Pophale) SiO2 
 PCOD9497341
Probable space group: C C C M
;
_chemical_formula_sum "Si O2"
_cell_formula_units_Z 96
_cell_length_a 9.799441
_cell_length_b 31.190220
_cell_length_c 17.304905
_cell_angle_alpha 90.000000
_cell_angle_beta 90.000000
_cell_angle_gamma 90.000000
_cell_volume 5289.187465
_symmetry_space_group_name_H-M "C C C M"
_symmetry_group_IT_number 66
_symmetry_cell_setting 'orthorhombic'
loop_
_space_group_symop_operation_xyz
x,y,z
-x,-y,z
x,-y,1/2-z
-x,y,1/2-z
-x,-y,-z
x,y,-z
-x,y,1/2+z
x,-y,1/2+z
1/2+x,1/2+y,z
1/2-x,1/2-y,z
1/2+x,1/2-y,1/2-z
1/2-x,1/2+y,1/2-z
1/2-x,1/2-y,-z
1/2+x,1/2+y,-z
1/2-x,1/2+y,1/2+z
1/2+x,1/2-y,1/2+z
loop_
_atom_site_type_symbol
_atom_site_label
_atom_site_fract_x
_atom_site_fract_y
_atom_site_fract_z
Si Si1 0.249112 0.298686 0.092765
Si Si2 0.477388 0.359178 0.160612
Si Si3 0.750531 0.096755 0.865370
Si Si4 0.753904 0.071152 0.314584
Si Si5 0.163683 0.995857 0.085701
Si Si6 0.954033 0.627281 0.908337
O O1 0.250000 0.250000 0.122358
O O2 0.382788 0.324164 0.120465
O O3 0.116355 0.327294 0.114351
O O4 0.251438 0.297159 0.000000
O O5 0.500000 0.347189 0.250000
O O6 0.623730 0.370446 0.125938
O O7 0.390003 0.403154 0.159772
O O8 0.740516 0.081230 0.775898
O O9 0.786687 0.053043 0.909825
O O10 0.612063 0.119884 0.890295
O O11 0.628894 0.092161 0.360039
O O12 0.771399 0.023102 0.344813
O O13 0.199821 0.013363 0.000000
O O14 0.000000 0.000000 0.093340
O O15 0.931648 0.621739 0.000000
#
# Coordination Sequence:
#
# PCOD9497341 Si02
#       6
#    16  16  16  16  16  16
#     4   9  19  38  62  83 109 147 185 219 273 349
#     4   9  19  35  56  82 110 142 184 227 277 332
#     4  11  21  35  56  83 113 145 187 237 282 321
#     4  10  20  37  56  76 109 154 190 221 277 338
#     4  11  22  34  53  82 113 147 193 238 276 321
#     4  10  21  37  56  81 112 143 181 231 281 331
#
# _framework density 18.150236
#
# number of rings (size 3 to 8) (size 9 to 14) (size 15 to 20)
#    0.000    2.000    1.667    2.000    0.000    3.333 
#    0.000    9.167    0.000    3.000    0.000    0.000 
#    0.000    0.000    0.000    0.000    0.000    0.000 
#
# Total GULP energy -267740.157162 kJ/mol
# GULP energy per Si atom -5577.919941 kJ/mol
# Density = 1.810893 g / cm^3
# Si number density = 18.150236 Si / 1000 Ang^3
#
#
#
# Elastic Constant Matrix: (Units=GPa)
#
#
# Indices 1 2 3 4 5 6 
#
# 1 124.6327 48.2137 23.5738 0.0000 0.0000 0.0000
# 2 48.2137 114.0008 25.2338 0.0000 0.0000 0.0000
# 3 23.5738 25.2338 42.0959 0.0000 0.0000 0.0000
# 4 0.0000 0.0000 0.0000 11.8341 0.0000 0.0000
# 5 0.0000 0.0000 0.0000 0.0000 26.1847 0.0000
# 6 0.0000 0.0000 0.0000 0.0000 0.0000 12.1241
#
#
#
# Elastic Compliance Matrix: (Units=1/GPa)
#
#
# Indices 1 2 3 4 5 6 
#
# 1 0.010032 -0.003458 -0.003545 0.000000 0.000000 0.000000
# 2 -0.003458 0.011306 -0.004841 0.000000 0.000000 0.000000
# 3 -0.003545 -0.004841 0.028642 0.000000 0.000000 0.000000
# 4 0.000000 0.000000 0.000000 0.084502 0.000000 0.000000
# 5 0.000000 0.000000 0.000000 0.000000 0.038190 0.000000
# 6 0.000000 0.000000 0.000000 0.000000 0.000000 0.082480
#
#
# Mechanical properties :
#
#
# Convention : Reuss Voigt Hill
#
# Bulk Modulus (GPa) = 38.03361 52.75245 45.39303
# Shear Modulus (GPa) = 17.38505 22.27578 19.83042
#
# Velocity S-wave (km/s) = 3.09826 3.50708 3.30899
# Velocity P-wave (km/s) = 5.81372 6.74737 6.29787
#
# Compressibility (1/GPa) = 0.02629253
#
# Stress axis : x y z
#
# Youngs Moduli (GPa) = 99.68282 88.45007 34.91359
#
# Poissons Ratio (x) = 0.30586 0.12377
# Poissons Ratio (y) = 0.34471 0.16900
# Poissons Ratio (z) = 0.35337 0.42815
#
# Static dielectric constant tensor:
#      x y z
#    x 1.629670 0.000000 0.000000 
#    y 0.000000 1.611720 0.000000 
#    z 0.000000 0.000000 1.636100 
# 
# From -- ./inp_files/47329.got.cif
#   From: 2010.05.17/outbox.cif.g08.bks.cpg/sg66_24_cif.got.tgz:47329.got - 2010.06.03 17:51:23.
