data_PCOD9497271
_publ_section_title
;
Structure prediction by ZEFSAII (Michael W. Deem and Ramdas Pophale) SiO2 
 PCOD9497271
Probable space group: C C C M
;
_chemical_formula_sum "Si O2"
_cell_formula_units_Z 80
_cell_length_a 24.711637
_cell_length_b 12.690074
_cell_length_c 13.987677
_cell_angle_alpha 90.000000
_cell_angle_beta 90.000000
_cell_angle_gamma 90.000000
_cell_volume 4386.430630
_symmetry_space_group_name_H-M "C C C M"
_symmetry_group_IT_number 66
_symmetry_cell_setting 'orthorhombic'
loop_
_space_group_symop_operation_xyz
x,y,z
-x,-y,z
x,-y,1/2-z
-x,y,1/2-z
-x,-y,-z
x,y,-z
-x,y,1/2+z
x,-y,1/2+z
1/2+x,1/2+y,z
1/2-x,1/2-y,z
1/2+x,1/2-y,1/2-z
1/2-x,1/2+y,1/2-z
1/2-x,1/2-y,-z
1/2+x,1/2+y,-z
1/2-x,1/2+y,1/2+z
1/2+x,1/2-y,1/2+z
loop_
_atom_site_type_symbol
_atom_site_label
_atom_site_fract_x
_atom_site_fract_y
_atom_site_fract_z
Si Si1 0.695929 0.816640 0.762193
Si Si2 0.672944 0.989259 0.609267
Si Si3 0.922157 0.763230 0.765687
Si Si4 0.444678 0.062708 0.110143
Si Si5 0.000522 0.874695 0.111601
O O1 0.750000 0.750000 0.768847
O O2 0.688871 0.895439 0.852008
O O3 0.641908 0.745924 0.751926
O O4 0.697123 0.897495 0.673575
O O5 0.687941 0.976627 0.500000
O O6 0.607613 0.987735 0.618977
O O7 0.940238 0.649305 0.806843
O O8 0.955547 0.809509 0.675139
O O9 0.941909 0.837184 0.852180
O O10 0.500000 0.000000 0.118284
O O11 0.442117 0.106586 0.000000
O O12 0.009418 0.854548 0.000000
O O13 0.000000 0.000000 0.128696
#
# Coordination Sequence:
#
# PCOD9497271 Si02
#       5
#    16  16  16  16  16
#     4  10  22  40  59  84 115 151 194 239 278 332
#     4   9  20  39  58  85 119 148 185 234 283 333
#     4  10  20  36  61  84 111 152 192 226 286 336
#     4   9  18  32  57  90 121 148 176 219 280 348
#     4  10  22  40  57  83 119 148 187 239 285 337
#
# _framework density 18.238061999999999
#
# number of rings (size 3 to 8) (size 9 to 14) (size 15 to 20)
#    0.000    2.400    0.000    1.800    5.600    2.400 
#    7.200    0.000    0.000    0.600    0.000    0.000 
#    0.000    0.000    0.000    0.000    0.000    0.000 
#
# Total GULP energy -223103.292782 kJ/mol
# GULP energy per Si atom -5577.582320 kJ/mol
# Density = 1.819655 g / cm^3
# Si number density = 18.238062 Si / 1000 Ang^3
#
#
#
# Elastic Constant Matrix: (Units=GPa)
#
#
# Indices 1 2 3 4 5 6 
#
# 1 134.7411 53.2022 36.8922 0.0000 0.0000 0.0000
# 2 53.2022 37.3257 5.2712 0.0000 0.0000 0.0000
# 3 36.8922 5.2712 83.8820 0.0000 0.0000 0.0000
# 4 0.0000 0.0000 0.0000 -11.0922 0.0000 0.0000
# 5 0.0000 0.0000 0.0000 0.0000 9.8772 0.0000
# 6 0.0000 0.0000 0.0000 0.0000 0.0000 31.1913
#
#
#
# Elastic Compliance Matrix: (Units=1/GPa)
#
#
# Indices 1 2 3 4 5 6 
#
# 1 0.020607 -0.028344 -0.007282 0.000000 0.000000 0.000000
# 2 -0.028344 0.066016 0.008317 0.000000 0.000000 0.000000
# 3 -0.007282 0.008317 0.014602 0.000000 0.000000 0.000000
# 4 0.000000 0.000000 0.000000 -0.090153 0.000000 0.000000
# 5 0.000000 0.000000 0.000000 0.000000 0.101243 0.000000
# 6 0.000000 0.000000 0.000000 0.000000 0.000000 0.032060
#
#
# Mechanical properties :
#
#
# Convention : Reuss Voigt Hill
#
# Bulk Modulus (GPa) = 21.45552 49.63110 35.54331
# Shear Modulus (GPa) = 23.30701 16.70080 20.00391
#
# Velocity S-wave (km/s) = 3.57870 3.02936 3.31542
# Velocity P-wave (km/s) = 5.37269 6.28554 5.84696
#
# Compressibility (1/GPa) = 0.04660805
#
# Stress axis : x y z
#
# Youngs Moduli (GPa) = 48.52752 15.14779 68.48598
#
# Poissons Ratio (x) = 0.42934 0.49871
# Poissons Ratio (y) = 1.37545 -0.56962
# Poissons Ratio (z) = 0.35338 -0.12599
#
# Static dielectric constant tensor:
#      x y z
#    x 1.618100 0.000000 0.000000 
#    y 0.000000 1.661930 0.000000 
#    z 0.000000 0.000000 1.663910 
# 
# From -- ./inp_files/26428.got.cif
#   From: 2010.05.17/outbox.cif.g08.bks.cpg/sg66_14_cif.got.tgz:26428.got - 2010.06.03 17:51:23.
