data_PCOD9497277
_publ_section_title
;
Structure prediction by ZEFSAII (Michael W. Deem and Ramdas Pophale) SiO2 
 PCOD9497277
Probable space group: C C C M
;
_chemical_formula_sum "Si O2"
_cell_formula_units_Z 116
_cell_length_a 22.754453
_cell_length_b 17.528721
_cell_length_c 14.416604
_cell_angle_alpha 90.000000
_cell_angle_beta 90.000000
_cell_angle_gamma 90.000000
_cell_volume 5750.155610
_symmetry_space_group_name_H-M "C C C M"
_symmetry_group_IT_number 66
_symmetry_cell_setting 'orthorhombic'
loop_
_space_group_symop_operation_xyz
x,y,z
-x,-y,z
x,-y,1/2-z
-x,y,1/2-z
-x,-y,-z
x,y,-z
-x,y,1/2+z
x,-y,1/2+z
1/2+x,1/2+y,z
1/2-x,1/2-y,z
1/2+x,1/2-y,1/2-z
1/2-x,1/2+y,1/2-z
1/2-x,1/2-y,-z
1/2+x,1/2+y,-z
1/2-x,1/2+y,1/2+z
1/2+x,1/2-y,1/2+z
loop_
_atom_site_type_symbol
_atom_site_label
_atom_site_fract_x
_atom_site_fract_y
_atom_site_fract_z
Si Si1 0.103069 0.512389 0.142387
Si Si2 0.482423 0.746387 0.642250
Si Si3 0.106042 0.691280 0.898045
Si Si4 0.788420 0.404022 0.392367
Si Si5 0.658860 0.397468 0.611427
Si Si6 0.000000 0.500000 0.000000
Si Si7 0.030251 0.073734 0.851273
Si Si8 0.644377 0.231523 0.303868
O O1 0.089607 0.500000 0.250000
O O2 0.111698 0.601455 0.119711
O O3 0.162954 0.468381 0.120248
O O4 0.049887 0.483998 0.080075
O O5 0.500000 0.741925 0.750000
O O6 0.536246 0.791081 0.598575
O O7 0.478387 0.658798 0.607642
O O8 0.418193 0.784485 0.643840
O O9 0.132309 0.732122 0.806817
O O10 0.130561 0.711508 0.000000
O O11 0.787669 0.378549 0.500000
O O12 0.722790 0.432704 0.370307
O O13 0.809259 0.332907 0.330430
O O14 0.650853 0.391852 0.500000
O O15 0.600480 0.437096 0.651230
O O16 0.661656 0.313802 0.657317
O O17 0.000000 0.078170 0.750000
O O18 0.000000 0.000000 0.896359
#
# Coordination Sequence:
#
# PCOD9497277 Si02
#       8
#    16  16  16  16  16   4  16  16
#     4  12  25  41  60  96 130 177 225 276 330 389
#     4   8  18  32  55  86 121 164 203 255 317 379
#     4  11  22  38  58  86 129 172 217 266 323 397
#     4  11  22  39  64  89 127 170 211 264 325 381
#     4  10  22  40  63  97 125 160 215 268 323 395
#     4  12  26  40  64  90 138 166 238 280 324 394
#     4   9  18  38  62  93 128 158 202 263 322 387
#     4  10  20  36  61  89 123 163 209 264 320 384
#
# _framework density 20.173366000000001
#
# number of rings (size 3 to 8) (size 9 to 14) (size 15 to 20)
#    0.000    1.793    2.759    1.862    1.931    5.241 
#    2.483    0.000    0.000    1.655    0.000    0.000 
#    0.000    0.000    0.000    0.000    0.000    0.000 
#
# Total GULP energy -323092.048632 kJ/mol
# GULP energy per Si atom -5570.552563 kJ/mol
# Density = 2.012745 g / cm^3
# Si number density = 20.173366 Si / 1000 Ang^3
#
#
#
# Elastic Constant Matrix: (Units=GPa)
#
#
# Indices 1 2 3 4 5 6 
#
# 1 176.7942 42.8189 51.3784 0.0000 0.0000 0.0000
# 2 42.8189 54.8363 4.6089 0.0000 0.0000 0.0000
# 3 51.3784 4.6089 134.2643 0.0000 0.0000 0.0000
# 4 0.0000 0.0000 0.0000 -31.3347 0.0000 0.0000
# 5 0.0000 0.0000 0.0000 0.0000 26.8181 0.0000
# 6 0.0000 0.0000 0.0000 0.0000 0.0000 0.4605
#
#
#
# Elastic Compliance Matrix: (Units=1/GPa)
#
#
# Indices 1 2 3 4 5 6 
#
# 1 0.007917 -0.005945 -0.002826 0.000000 0.000000 0.000000
# 2 -0.005945 0.022752 0.001494 0.000000 0.000000 0.000000
# 3 -0.002826 0.001494 0.008478 0.000000 0.000000 0.000000
# 4 0.000000 0.000000 0.000000 -0.031913 0.000000 0.000000
# 5 0.000000 0.000000 0.000000 0.000000 0.037288 0.000000
# 6 0.000000 0.000000 0.000000 0.000000 0.000000 2.171671
#
#
# Mechanical properties :
#
#
# Convention : Reuss Voigt Hill
#
# Bulk Modulus (GPa) = 40.65919 62.61193 51.63556
# Shear Modulus (GPa) = 2.23320 16.99468 9.61394
#
# Velocity S-wave (km/s) = 1.05328 2.90562 2.18541
# Velocity P-wave (km/s) = 4.65595 6.50854 5.65858
#
# Compressibility (1/GPa) = 0.02459469
#
# Stress axis : x y z
#
# Youngs Moduli (GPa) = 126.30701 43.95137 117.95270
#
# Poissons Ratio (x) = 0.26128 0.33329
# Poissons Ratio (y) = 0.75085 -0.17620
# Poissons Ratio (z) = 0.35689 -0.06565
#
# Static dielectric constant tensor:
#      x y z
#    x 1.725550 0.000000 0.000000 
#    y 0.000000 1.733990 0.000000 
#    z 0.000000 0.000000 1.974120 
# 
# From -- ./inp_files/32677.got.cif
#   From: 2010.05.17/outbox.cif.g08.bks.cpg/sg66_17_cif.got.tgz:32677.got - 2010.06.03 17:51:23.
