data_PCOD9497619
_publ_section_title
;
Structure prediction by ZEFSAII (Michael W. Deem and Ramdas Pophale) SiO2 
 PCOD9497619
Probable space group: C C C M
;
_chemical_formula_sum "Si O2"
_cell_formula_units_Z 116
_cell_length_a 12.319844
_cell_length_b 28.308609
_cell_length_c 14.621102
_cell_angle_alpha 90.000000
_cell_angle_beta 90.000000
_cell_angle_gamma 90.000000
_cell_volume 5099.221126
_symmetry_space_group_name_H-M "C C C M"
_symmetry_group_IT_number 66
_symmetry_cell_setting 'orthorhombic'
loop_
_space_group_symop_operation_xyz
x,y,z
-x,-y,z
x,-y,1/2-z
-x,y,1/2-z
-x,-y,-z
x,y,-z
-x,y,1/2+z
x,-y,1/2+z
1/2+x,1/2+y,z
1/2-x,1/2-y,z
1/2+x,1/2-y,1/2-z
1/2-x,1/2+y,1/2-z
1/2-x,1/2-y,-z
1/2+x,1/2+y,-z
1/2-x,1/2+y,1/2+z
1/2+x,1/2-y,1/2+z
loop_
_atom_site_type_symbol
_atom_site_label
_atom_site_fract_x
_atom_site_fract_y
_atom_site_fract_z
Si Si1 0.387545 0.128882 0.890238
Si Si2 0.781566 0.800066 0.104099
Si Si3 0.109583 0.478139 0.850425
Si Si4 0.235380 0.136424 0.395294
Si Si5 0.000000 0.000000 0.250000
Si Si6 0.319526 0.466177 0.606875
Si Si7 0.579749 0.203324 0.110395
Si Si8 0.474584 0.691524 0.149171
O O1 0.276349 0.153647 0.858100
O O2 0.403837 0.078030 0.846967
O O3 0.479155 0.168337 0.872318
O O4 0.386747 0.119884 0.000000
O O5 0.750000 0.750000 0.148644
O O6 0.909566 0.805701 0.101206
O O7 0.737385 0.797229 0.000000
O O8 0.114445 0.500000 0.750000
O O9 0.224929 0.494223 0.892428
O O10 0.000000 0.500000 0.894389
O O11 0.274031 0.132030 0.500000
O O12 0.234636 0.083203 0.360854
O O13 0.315608 0.175207 0.354477
O O14 0.115463 0.158110 0.393535
O O15 0.083137 0.975118 0.178193
O O16 0.356153 0.460821 0.500000
O O17 0.568202 0.254775 0.153209
O O18 0.585858 0.211819 0.000000
O O19 0.500000 0.673552 0.250000
#
# Coordination Sequence:
#
# PCOD9497619 Si02
#       8
#    16  16  16  16   4  16  16  16
#     4  10  21  39  71 101 127 174 227 279 346 420
#     4  10  20  39  64  90 126 168 218 273 326 392
#     4  11  24  44  68 105 145 188 230 297 368 426
#     4  10  23  42  68  94 124 175 230 278 334 407
#     4  12  26  48  74 102 140 184 226 306 360 426
#     4  11  25  47  74 104 140 187 242 299 358 424
#     4  10  20  42  68  94 130 171 221 279 332 405
#     4  12  25  38  58  94 136 178 215 269 337 407
#
# _framework density 22.748571999999999
#
# number of rings (size 3 to 8) (size 9 to 14) (size 15 to 20)
#    0.000    1.379    2.069    3.103    0.966    6.621 
#    4.966    1.379    0.000    0.000    0.000    0.000 
#    0.000    0.000    0.000    0.000    0.000    0.000 
#
# Total GULP energy -324095.236771 kJ/mol
# GULP energy per Si atom -5587.848910 kJ/mol
# Density = 2.269680 g / cm^3
# Si number density = 22.748572 Si / 1000 Ang^3
#
#
#
# Elastic Constant Matrix: (Units=GPa)
#
#
# Indices 1 2 3 4 5 6 
#
# 1 84.7812 -7.3625 -4.6802 0.0000 0.0000 0.0000
# 2 -7.3625 67.3214 -9.6896 0.0000 0.0000 0.0000
# 3 -4.6802 -9.6896 79.1555 0.0000 0.0000 0.0000
# 4 0.0000 0.0000 0.0000 29.2856 0.0000 0.0000
# 5 0.0000 0.0000 0.0000 0.0000 49.9292 0.0000
# 6 0.0000 0.0000 0.0000 0.0000 0.0000 32.6976
#
#
#
# Elastic Compliance Matrix: (Units=1/GPa)
#
#
# Indices 1 2 3 4 5 6 
#
# 1 0.011969 0.001436 0.000883 0.000000 0.000000 0.000000
# 2 0.001436 0.015293 0.001957 0.000000 0.000000 0.000000
# 3 0.000883 0.001957 0.012925 0.000000 0.000000 0.000000
# 4 0.000000 0.000000 0.000000 0.034146 0.000000 0.000000
# 5 0.000000 0.000000 0.000000 0.000000 0.020028 0.000000
# 6 0.000000 0.000000 0.000000 0.000000 0.000000 0.030583
#
#
# Mechanical properties :
#
#
# Convention : Reuss Voigt Hill
#
# Bulk Modulus (GPa) = 20.51725 20.86595 20.69160
# Shear Modulus (GPa) = 37.69655 39.24852 38.47254
#
# Velocity S-wave (km/s) = 4.07516 4.15820 4.11689
# Velocity P-wave (km/s) = 5.58402 5.67860 5.63151
#
# Compressibility (1/GPa) = 0.04873946
#
# Stress axis : x y z
#
# Youngs Moduli (GPa) = 83.55234 65.39007 77.36859
#
# Poissons Ratio (x) = -0.09390 -0.06835
# Poissons Ratio (y) = -0.11999 -0.15141
# Poissons Ratio (z) = -0.07382 -0.12796
#
# Static dielectric constant tensor:
#      x y z
#    x 1.853700 0.000000 0.000000 
#    y 0.000000 1.814570 0.000000 
#    z 0.000000 0.000000 1.895190 
# 
# From -- ./inp_files/39157.got.cif
#   From: 2010.05.17/outbox.cif.g08.bks.cpg/sg66_20_cif.got.tgz:39157.got - 2010.06.03 17:51:23.
