data_PCOD9497594
_publ_section_title
;
Structure prediction by ZEFSAII (Michael W. Deem and Ramdas Pophale) SiO2 
 PCOD9497594
Probable space group: C C C M
;
_chemical_formula_sum "Si O2"
_cell_formula_units_Z 112
_cell_length_a 14.418300
_cell_length_b 23.212225
_cell_length_c 13.215766
_cell_angle_alpha 90.000000
_cell_angle_beta 90.000000
_cell_angle_gamma 90.000000
_cell_volume 4423.063451
_symmetry_space_group_name_H-M "C C C M"
_symmetry_group_IT_number 66
_symmetry_cell_setting 'orthorhombic'
loop_
_space_group_symop_operation_xyz
x,y,z
-x,-y,z
x,-y,1/2-z
-x,y,1/2-z
-x,-y,-z
x,y,-z
-x,y,1/2+z
x,-y,1/2+z
1/2+x,1/2+y,z
1/2-x,1/2-y,z
1/2+x,1/2-y,1/2-z
1/2-x,1/2+y,1/2-z
1/2-x,1/2-y,-z
1/2+x,1/2+y,-z
1/2-x,1/2+y,1/2+z
1/2+x,1/2-y,1/2+z
loop_
_atom_site_type_symbol
_atom_site_label
_atom_site_fract_x
_atom_site_fract_y
_atom_site_fract_z
Si Si1 0.852759 0.900506 0.621648
Si Si2 0.945557 0.073798 0.383327
Si Si3 0.054930 0.355905 0.617706
Si Si4 0.243938 0.422566 0.878089
Si Si5 0.143545 0.313355 0.191283
Si Si6 0.400957 0.308821 0.786367
Si Si7 0.842811 0.534389 0.621669
O O1 0.859785 0.890283 0.500000
O O2 0.859270 0.842864 0.689485
O O3 0.755514 0.932644 0.638816
O O4 0.948371 0.935098 0.652098
O O5 0.946538 0.056948 0.500000
O O6 0.844880 0.053992 0.344964
O O7 0.929496 0.142471 0.367411
O O8 0.077141 0.348986 0.500000
O O9 0.123395 0.320021 0.689260
O O10 0.074939 0.422219 0.648228
O O11 0.950086 0.337061 0.637997
O O12 0.221459 0.358543 0.841670
O O13 0.168268 0.468847 0.841701
O O14 0.244581 0.420721 0.000000
O O15 0.152422 0.245869 0.171142
O O16 0.500000 0.284036 0.750000
O O17 0.850367 0.528208 0.500000
#
# Coordination Sequence:
#
# PCOD9497594 Si02
#       7
#    16  16  16  16  16  16  16
#     4   9  19  38  64  91 124 166 206 253 315 373
#     4   9  20  37  60  90 123 162 205 250 311 373
#     4  10  22  41  63  90 123 160 208 256 308 372
#     4  10  22  40  62  93 127 161 207 261 313 373
#     4  11  23  40  61  93 123 165 208 254 319 371
#     4  10  20  39  58  87 123 159 204 257 307 369
#     4   9  20  40  64  91 125 161 207 261 309 369
#
# _framework density 25.321815999999998
#
# number of rings (size 3 to 8) (size 9 to 14) (size 15 to 20)
#    0.000    2.286    1.429    0.429    2.000    4.000 
#    0.000    7.857    0.000    5.143    0.000    0.000 
#    0.000    0.000    0.000    0.000    0.000    0.000 
#
# Total GULP energy -313035.182052 kJ/mol
# GULP energy per Si atom -5589.913965 kJ/mol
# Density = 2.526418 g / cm^3
# Si number density = 25.321816 Si / 1000 Ang^3
#
#
#
# Elastic Constant Matrix: (Units=GPa)
#
#
# Indices 1 2 3 4 5 6 
#
# 1 84.0344 16.2670 5.9067 0.0000 0.0000 0.0000
# 2 16.2670 131.7182 12.9244 0.0000 0.0000 0.0000
# 3 5.9067 12.9244 102.5499 0.0000 0.0000 0.0000
# 4 0.0000 0.0000 0.0000 20.8868 0.0000 0.0000
# 5 0.0000 0.0000 0.0000 0.0000 29.1020 0.0000
# 6 0.0000 0.0000 0.0000 0.0000 0.0000 34.6784
#
#
#
# Elastic Compliance Matrix: (Units=1/GPa)
#
#
# Indices 1 2 3 4 5 6 
#
# 1 0.012219 -0.001458 -0.000520 0.000000 0.000000 0.000000
# 2 -0.001458 0.007861 -0.000907 0.000000 0.000000 0.000000
# 3 -0.000520 -0.000907 0.009896 0.000000 0.000000 0.000000
# 4 0.000000 0.000000 0.000000 0.047877 0.000000 0.000000
# 5 0.000000 0.000000 0.000000 0.000000 0.034362 0.000000
# 6 0.000000 0.000000 0.000000 0.000000 0.000000 0.028836
#
#
# Mechanical properties :
#
#
# Convention : Reuss Voigt Hill
#
# Bulk Modulus (GPa) = 41.31249 43.16654 42.23952
# Shear Modulus (GPa) = 32.28126 35.81375 34.04751
#
# Velocity S-wave (km/s) = 3.57436 3.76486 3.67085
# Velocity P-wave (km/s) = 5.77799 5.99859 5.88932
#
# Compressibility (1/GPa) = 0.02420576
#
# Stress axis : x y z
#
# Youngs Moduli (GPa) = 81.84200 127.21043 101.05523
#
# Poissons Ratio (x) = 0.18547 0.05255
# Poissons Ratio (y) = 0.11932 0.09163
# Poissons Ratio (z) = 0.04256 0.11535
#
# Static dielectric constant tensor:
#      x y z
#    x 2.051040 0.000000 0.000000 
#    y 0.000000 1.989950 0.000000 
#    z 0.000000 0.000000 2.041400 
# 
# From -- ./inp_files/28718.got.cif
#   From: 2010.05.17/outbox.cif.g08.bks.cpg/sg66_15_cif.got.tgz:28718.got - 2010.06.03 17:51:23.
