data_PCOD9497419
_publ_section_title
;
Structure prediction by ZEFSAII (Michael W. Deem and Ramdas Pophale) SiO2 
 PCOD9497419
Probable space group: C C C M
;
_chemical_formula_sum "Si O2"
_cell_formula_units_Z 80
_cell_length_a 9.830408
_cell_length_b 24.563816
_cell_length_c 17.320565
_cell_angle_alpha 90.000000
_cell_angle_beta 90.000000
_cell_angle_gamma 90.000000
_cell_volume 4182.437245
_symmetry_space_group_name_H-M "C C C M"
_symmetry_group_IT_number 66
_symmetry_cell_setting 'orthorhombic'
loop_
_space_group_symop_operation_xyz
x,y,z
-x,-y,z
x,-y,1/2-z
-x,y,1/2-z
-x,-y,-z
x,y,-z
-x,y,1/2+z
x,-y,1/2+z
1/2+x,1/2+y,z
1/2-x,1/2-y,z
1/2+x,1/2-y,1/2-z
1/2-x,1/2+y,1/2-z
1/2-x,1/2-y,-z
1/2+x,1/2+y,-z
1/2-x,1/2+y,1/2+z
1/2+x,1/2-y,1/2+z
loop_
_atom_site_type_symbol
_atom_site_label
_atom_site_fract_x
_atom_site_fract_y
_atom_site_fract_z
Si Si1 0.843722 0.485457 0.835548
Si Si2 0.198657 0.628899 0.908834
Si Si3 0.504749 0.347685 0.842916
Si Si4 0.107452 0.045991 0.090307
Si Si5 0.091807 0.269086 0.322826
O O1 0.790157 0.500000 0.750000
O O2 0.839903 0.422699 0.857932
O O3 0.753204 0.519607 0.894645
O O4 0.000000 0.500000 0.838281
O O5 0.355429 0.636897 0.885305
O O6 0.116110 0.682142 0.882266
O O7 0.185158 0.619171 0.000000
O O8 0.500000 0.352348 0.750000
O O9 0.403019 0.394191 0.872472
O O10 0.506252 0.282403 0.855859
O O11 0.078738 0.052364 0.000000
O O12 0.000000 0.000000 0.120846
O O13 0.250000 0.250000 0.302430
O O14 0.000000 0.287391 0.250000
#
# Coordination Sequence:
#
# PCOD9497419 Si02
#       5
#    16  16  16  16  16
#     4  11  25  41  61  89 118 164 209 251 306 381
#     4  11  22  39  64  91 126 163 209 261 312 374
#     4  10  20  37  61  92 122 157 207 254 304 366
#     4  11  22  36  59  88 123 158 194 251 311 365
#     4   9  21  39  64  92 122 164 211 264 308 373
#
# _framework density 19.127604000000002
#
# number of rings (size 3 to 8) (size 9 to 14) (size 15 to 20)
#    0.000    1.600    2.000    2.400    2.800    6.000 
#    0.000    0.000    0.000    0.600    0.000    0.000 
#    0.000    0.000    0.000    0.000    0.000    0.000 
#
# Total GULP energy -222840.412835 kJ/mol
# GULP energy per Si atom -5571.010321 kJ/mol
# Density = 1.908407 g / cm^3
# Si number density = 19.127604 Si / 1000 Ang^3
#
#
#
# Elastic Constant Matrix: (Units=GPa)
#
#
# Indices 1 2 3 4 5 6 
#
# 1 32.1368 17.0759 7.1303 0.0000 0.0000 0.0000
# 2 17.0759 106.1928 46.0307 0.0000 0.0000 0.0000
# 3 7.1303 46.0307 78.6593 0.0000 0.0000 0.0000
# 4 0.0000 0.0000 0.0000 14.1801 0.0000 0.0000
# 5 0.0000 0.0000 0.0000 0.0000 11.3961 0.0000
# 6 0.0000 0.0000 0.0000 0.0000 0.0000 100.2218
#
#
#
# Elastic Compliance Matrix: (Units=1/GPa)
#
#
# Indices 1 2 3 4 5 6 
#
# 1 0.034026 -0.005540 0.000157 0.000000 0.000000 0.000000
# 2 -0.005540 0.013519 -0.007409 0.000000 0.000000 0.000000
# 3 0.000157 -0.007409 0.017035 0.000000 0.000000 0.000000
# 4 0.000000 0.000000 0.000000 0.070522 0.000000 0.000000
# 5 0.000000 0.000000 0.000000 0.000000 0.087749 0.000000
# 6 0.000000 0.000000 0.000000 0.000000 0.000000 0.009978
#
#
# Mechanical properties :
#
#
# Convention : Reuss Voigt Hill
#
# Bulk Modulus (GPa) = 25.64327 39.71806 32.68067
# Shear Modulus (GPa) = 18.42235 34.94307 26.68271
#
# Velocity S-wave (km/s) = 3.10680 4.27879 3.73900
# Velocity P-wave (km/s) = 5.12885 6.72463 5.98021
#
# Compressibility (1/GPa) = 0.03899659
#
# Stress axis : x y z
#
# Youngs Moduli (GPa) = 29.38970 73.96889 58.70415
#
# Poissons Ratio (x) = 0.40975 -0.00924
# Poissons Ratio (y) = 0.16281 0.43495
# Poissons Ratio (z) = -0.00462 0.54805
#
# Static dielectric constant tensor:
#      x y z
#    x 1.640130 0.000000 0.000000 
#    y 0.000000 1.679800 0.000000 
#    z 0.000000 0.000000 1.350640 
# 
# From -- ./inp_files/37022.got.cif
#   From: 2010.05.17/outbox.cif.g08.bks.cpg/sg66_19_cif.got.tgz:37022.got - 2010.06.03 17:51:23.
