data_PCOD9497322
_publ_section_title
;
Structure prediction by ZEFSAII (Michael W. Deem and Ramdas Pophale) SiO2 
 PCOD9497322
Probable space group: C C C M
;
_chemical_formula_sum "Si O2"
_cell_formula_units_Z 60
_cell_length_a 9.451208
_cell_length_b 31.306912
_cell_length_c 9.543591
_cell_angle_alpha 90.000000
_cell_angle_beta 90.000000
_cell_angle_gamma 90.000000
_cell_volume 2823.835363
_symmetry_space_group_name_H-M "C C C M"
_symmetry_group_IT_number 66
_symmetry_cell_setting 'orthorhombic'
loop_
_space_group_symop_operation_xyz
x,y,z
-x,-y,z
x,-y,1/2-z
-x,y,1/2-z
-x,-y,-z
x,y,-z
-x,y,1/2+z
x,-y,1/2+z
1/2+x,1/2+y,z
1/2-x,1/2-y,z
1/2+x,1/2-y,1/2-z
1/2-x,1/2+y,1/2-z
1/2-x,1/2-y,-z
1/2+x,1/2+y,-z
1/2-x,1/2+y,1/2+z
1/2+x,1/2-y,1/2+z
loop_
_atom_site_type_symbol
_atom_site_label
_atom_site_fract_x
_atom_site_fract_y
_atom_site_fract_z
Si Si1 0.258187 0.454543 0.778067
Si Si2 0.093725 0.895768 0.500000
Si Si3 0.264254 0.806744 0.000000
Si Si4 0.421419 0.703241 0.500000
Si Si5 0.750000 0.750000 0.756710
Si Si6 0.000000 0.500000 0.750000
Si Si7 0.744720 0.404124 0.000000
O O1 0.334830 0.500000 0.750000
O O2 0.108370 0.470964 0.837458
O O3 0.219184 0.431126 0.635418
O O4 0.344950 0.421593 0.869017
O O5 0.132606 0.845833 0.500000
O O6 0.925385 0.898922 0.500000
O O7 0.312491 0.784326 0.144815
O O8 0.302867 0.856229 0.000000
O O9 0.092117 0.800292 0.000000
O O10 0.360845 0.727124 0.637987
#
# Coordination Sequence:
#
# PCOD9497322 Si02
#       7
#    16   8   8   8   8   4   8
#     4  10  22  38  61  80 122 157 200 230 290 354
#     4  11  22  37  62  94 114 148 191 252 307 333
#     4  10  21  38  62  85 123 150 189 246 297 352
#     4  10  21  38  62  85 123 150 189 246 297 352
#     4  10  20  36  64  84 112 158 194 220 300 364
#     4   8  24  42  58  78 112 186 184 232 284 338
#     4  11  22  37  62  94 114 148 191 252 307 333
#
# _framework density 21.247696000000001
#
# number of rings (size 3 to 8) (size 9 to 14) (size 15 to 20)
#    0.800    1.067    0.000    4.000    0.000    9.600 
#    0.000    0.000   58.667    0.000    0.000    0.000 
#    0.000    0.000    0.000    0.000    0.000    0.000 
#
# Total GULP energy -167288.844671 kJ/mol
# GULP energy per Si atom -5576.294822 kJ/mol
# Density = 2.119934 g / cm^3
# Si number density = 21.247696 Si / 1000 Ang^3
#
#
#
# Elastic Constant Matrix: (Units=GPa)
#
#
# Indices 1 2 3 4 5 6 
#
# 1 58.9771 24.9021 7.6016 0.0000 0.0000 0.0000
# 2 24.9021 194.1805 76.9603 0.0000 0.0000 0.0000
# 3 7.6016 76.9603 151.9383 0.0000 0.0000 0.0000
# 4 0.0000 0.0000 0.0000 18.5449 0.0000 0.0000
# 5 0.0000 0.0000 0.0000 0.0000 45.9146 0.0000
# 6 0.0000 0.0000 0.0000 0.0000 0.0000 34.3854
#
#
#
# Elastic Compliance Matrix: (Units=1/GPa)
#
#
# Indices 1 2 3 4 5 6 
#
# 1 0.017940 -0.002433 0.000335 0.000000 0.000000 0.000000
# 2 -0.002433 0.006773 -0.003309 0.000000 0.000000 0.000000
# 3 0.000335 -0.003309 0.008241 0.000000 0.000000 0.000000
# 4 0.000000 0.000000 0.000000 0.053923 0.000000 0.000000
# 5 0.000000 0.000000 0.000000 0.000000 0.021780 0.000000
# 6 0.000000 0.000000 0.000000 0.000000 0.000000 0.029082
#
#
# Mechanical properties :
#
#
# Convention : Reuss Voigt Hill
#
# Bulk Modulus (GPa) = 45.16840 69.33600 57.25220
# Shear Modulus (GPa) = 32.06478 39.47778 35.77128
#
# Velocity S-wave (km/s) = 3.88892 4.31510 4.10754
# Velocity P-wave (km/s) = 6.43965 7.58485 7.03559
#
# Compressibility (1/GPa) = 0.02213937
#
# Stress axis : x y z
#
# Youngs Moduli (GPa) = 55.74122 147.63510 121.34408
#
# Poissons Ratio (x) = 0.35926 -0.04066
# Poissons Ratio (y) = 0.13564 0.40155
# Poissons Ratio (z) = -0.01868 0.48855
#
# Static dielectric constant tensor:
#      x y z
#    x 1.778320 0.000000 0.000000 
#    y 0.000000 1.785670 0.000000 
#    z 0.000000 0.000000 1.779220 
# 
# From -- ./inp_files/3943.got.cif
#   From: 2010.05.17/outbox.cif.g08.bks.cpg/sg66_2_cif.got.tgz:3943.got - 2010.06.03 17:51:23.
