data_PCOD9497592
_publ_section_title
;
Structure prediction by ZEFSAII (Michael W. Deem and Ramdas Pophale) SiO2 
 PCOD9497592
Probable space group: C C C M
;
_chemical_formula_sum "Si O2"
_cell_formula_units_Z 80
_cell_length_a 28.197534
_cell_length_b 5.306812
_cell_length_c 25.149687
_cell_angle_alpha 90.000000
_cell_angle_beta 90.000000
_cell_angle_gamma 90.000000
_cell_volume 3763.374310
_symmetry_space_group_name_H-M "C C C M"
_symmetry_group_IT_number 66
_symmetry_cell_setting 'orthorhombic'
loop_
_space_group_symop_operation_xyz
x,y,z
-x,-y,z
x,-y,1/2-z
-x,y,1/2-z
-x,-y,-z
x,y,-z
-x,y,1/2+z
x,-y,1/2+z
1/2+x,1/2+y,z
1/2-x,1/2-y,z
1/2+x,1/2-y,1/2-z
1/2-x,1/2+y,1/2-z
1/2-x,1/2-y,-z
1/2+x,1/2+y,-z
1/2-x,1/2+y,1/2+z
1/2+x,1/2-y,1/2+z
loop_
_atom_site_type_symbol
_atom_site_label
_atom_site_fract_x
_atom_site_fract_y
_atom_site_fract_z
Si Si1 0.401397 0.974297 0.936893
Si Si2 0.704722 0.370320 0.800679
Si Si3 0.874699 0.500000 0.250000
Si Si4 0.631355 0.466757 0.383055
Si Si5 0.000000 0.500000 0.127694
Si Si6 0.445228 0.348211 0.304874
O O1 0.372676 0.220090 0.918407
O O2 0.374624 0.723641 0.916458
O O3 0.453303 0.996299 0.909315
O O4 0.407040 0.965913 0.000000
O O5 0.728516 0.500000 0.750000
O O6 0.750000 0.250000 0.829299
O O7 0.676391 0.532059 0.844022
O O8 0.664061 0.207474 0.770299
O O9 0.914013 0.591997 0.293729
O O10 0.586542 0.482801 0.343487
O O11 0.991476 0.261892 0.166546
O O12 0.449160 0.500000 0.250000
#
# Coordination Sequence:
#
# PCOD9497592 Si02
#       6
#    16  16   8  16   8  16
#     4  11  24  47  69  92 125 171 231 297 342 381
#     4  11  23  37  66 100 140 173 213 256 317 401
#     4  10  20  39  54  84 128 180 210 235 304 382
#     4  10  24  41  69  94 130 174 220 266 341 404
#     4  10  25  43  62  98 122 178 234 276 334 384
#     4  10  23  40  58  85 137 178 212 259 314 401
#
# _framework density 21.25752
#
# number of rings (size 3 to 8) (size 9 to 14) (size 15 to 20)
#    0.000    1.600    1.000    3.300   16.800    3.600 
#    7.200    5.000    0.000    3.600    0.000    0.000 
#    0.000    0.000    0.000    0.000    0.000    0.000 
#
# Total GULP energy -222831.511391 kJ/mol
# GULP energy per Si atom -5570.787785 kJ/mol
# Density = 2.120914 g / cm^3
# Si number density = 21.257520 Si / 1000 Ang^3
#
#
#
# Elastic Constant Matrix: (Units=GPa)
#
#
# Indices 1 2 3 4 5 6 
#
# 1 88.0985 17.2298 23.6712 0.0000 0.0000 0.0000
# 2 17.2298 119.1688 57.7818 0.0000 0.0000 0.0000
# 3 23.6712 57.7818 152.9670 0.0000 0.0000 0.0000
# 4 0.0000 0.0000 0.0000 26.9426 0.0000 0.0000
# 5 0.0000 0.0000 0.0000 0.0000 4.8881 0.0000
# 6 0.0000 0.0000 0.0000 0.0000 0.0000 11.9906
#
#
#
# Elastic Compliance Matrix: (Units=1/GPa)
#
#
# Indices 1 2 3 4 5 6 
#
# 1 0.011943 -0.001017 -0.001464 0.000000 0.000000 0.000000
# 2 -0.001017 0.010360 -0.003756 0.000000 0.000000 0.000000
# 3 -0.001464 -0.003756 0.008183 0.000000 0.000000 0.000000
# 4 0.000000 0.000000 0.000000 0.037116 0.000000 0.000000
# 5 0.000000 0.000000 0.000000 0.000000 0.204579 0.000000
# 6 0.000000 0.000000 0.000000 0.000000 0.000000 0.083399
#
#
# Mechanical properties :
#
#
# Convention : Reuss Voigt Hill
#
# Bulk Modulus (GPa) = 55.51917 61.95555 58.73736
# Shear Modulus (GPa) = 13.36695 26.20104 19.78400
#
# Velocity S-wave (km/s) = 2.51033 3.51458 3.05402
# Velocity P-wave (km/s) = 5.88018 6.75857 6.33462
#
# Compressibility (1/GPa) = 0.01801180
#
# Stress axis : x y z
#
# Youngs Moduli (GPa) = 83.72974 96.52874 122.20966
#
# Poissons Ratio (x) = 0.09816 0.17892
# Poissons Ratio (y) = 0.08515 0.45900
# Poissons Ratio (z) = 0.12258 0.36255
#
# Static dielectric constant tensor:
#      x y z
#    x 1.779260 0.000000 0.000000 
#    y 0.000000 1.884600 0.000000 
#    z 0.000000 0.000000 1.734570 
# 
# From -- ./inp_files/60350.got.cif
#   From: 2010.05.17/outbox.cif.g08.bks.cpg/sg66_31_cif.got.tgz:60350.got - 2010.06.03 17:51:23.
