data_PCOD9497975
_publ_section_title
;
Structure prediction by ZEFSAII (Michael W. Deem and Ramdas Pophale) SiO2 
 PCOD9497975
Probable space group: C C C M
;
_chemical_formula_sum "Si O2"
_cell_formula_units_Z 80
_cell_length_a 9.723696
_cell_length_b 15.830722
_cell_length_c 23.991810
_cell_angle_alpha 90.000000
_cell_angle_beta 90.000000
_cell_angle_gamma 90.000000
_cell_volume 3693.134364
_symmetry_space_group_name_H-M "C C C M"
_symmetry_group_IT_number 66
_symmetry_cell_setting 'orthorhombic'
loop_
_space_group_symop_operation_xyz
x,y,z
-x,-y,z
x,-y,1/2-z
-x,y,1/2-z
-x,-y,-z
x,y,-z
-x,y,1/2+z
x,-y,1/2+z
1/2+x,1/2+y,z
1/2-x,1/2-y,z
1/2+x,1/2-y,1/2-z
1/2-x,1/2+y,1/2-z
1/2-x,1/2-y,-z
1/2+x,1/2+y,-z
1/2-x,1/2+y,1/2+z
1/2+x,1/2-y,1/2+z
loop_
_atom_site_type_symbol
_atom_site_label
_atom_site_fract_x
_atom_site_fract_y
_atom_site_fract_z
Si Si1 0.863083 0.176801 0.935686
Si Si2 0.201243 0.161742 0.737758
Si Si3 0.102851 0.577489 0.681068
Si Si4 0.092813 0.240930 0.852988
Si Si5 0.847901 0.033242 0.859711
O O1 0.750000 0.250000 0.931423
O O2 0.801089 0.090926 0.910893
O O3 0.992599 0.196322 0.895794
O O4 0.904136 0.168619 0.000000
O O5 0.250000 0.250000 0.710275
O O6 0.334745 0.113790 0.761723
O O7 0.113865 0.194022 0.792309
O O8 0.143440 0.093892 0.694899
O O9 0.042366 0.662538 0.654369
O O10 0.239068 0.540807 0.650842
O O11 0.000000 0.500000 0.684003
O O12 0.250000 0.250000 0.873400
O O13 0.000000 0.000000 0.870258
#
# Coordination Sequence:
#
# PCOD9497975 Si02
#       5
#    16  16  16  16  16
#     4  11  25  44  64  86 116 159 207 250 298 357
#     4   9  21  39  61  89 124 163 198 234 289 364
#     4  10  21  37  59  91 124 154 194 245 299 353
#     4   9  20  42  64  88 119 158 201 239 292 362
#     4  12  24  40  62  91 126 158 196 248 303 352
#
# _framework density 21.661816999999999
#
# number of rings (size 3 to 8) (size 9 to 14) (size 15 to 20)
#    0.000    2.200    0.000    4.800    0.000    8.000 
#    0.000   17.000    0.000    3.600    0.000    0.000 
#    0.000    0.000    0.000    0.000    0.000    0.000 
#
# Total GULP energy -223654.886693 kJ/mol
# GULP energy per Si atom -5591.372167 kJ/mol
# Density = 2.161251 g / cm^3
# Si number density = 21.661817 Si / 1000 Ang^3
#
#
#
# Elastic Constant Matrix: (Units=GPa)
#
#
# Indices 1 2 3 4 5 6 
#
# 1 60.4638 13.3127 21.1672 0.0000 0.0000 0.0000
# 2 13.3127 125.1339 37.8874 0.0000 0.0000 0.0000
# 3 21.1672 37.8874 95.0404 0.0000 0.0000 0.0000
# 4 0.0000 0.0000 0.0000 9.7784 0.0000 0.0000
# 5 0.0000 0.0000 0.0000 0.0000 12.9813 0.0000
# 6 0.0000 0.0000 0.0000 0.0000 0.0000 47.2225
#
#
#
# Elastic Compliance Matrix: (Units=1/GPa)
#
#
# Indices 1 2 3 4 5 6 
#
# 1 0.018007 -0.000798 -0.003693 0.000000 0.000000 0.000000
# 2 -0.000798 0.009124 -0.003459 0.000000 0.000000 0.000000
# 3 -0.003693 -0.003459 0.012723 0.000000 0.000000 0.000000
# 4 0.000000 0.000000 0.000000 0.102267 0.000000 0.000000
# 5 0.000000 0.000000 0.000000 0.000000 0.077034 0.000000
# 6 0.000000 0.000000 0.000000 0.000000 0.000000 0.021176
#
#
# Mechanical properties :
#
#
# Convention : Reuss Voigt Hill
#
# Bulk Modulus (GPa) = 41.74528 47.26363 44.50446
# Shear Modulus (GPa) = 18.92395 27.88114 23.40255
#
# Velocity S-wave (km/s) = 2.95889 3.59152 3.29045
# Velocity P-wave (km/s) = 5.56656 6.25020 5.91826
#
# Compressibility (1/GPa) = 0.02395480
#
# Stress axis : x y z
#
# Youngs Moduli (GPa) = 55.53350 109.60405 78.59581
#
# Poissons Ratio (x) = 0.08743 0.29022
# Poissons Ratio (y) = 0.04430 0.27190
# Poissons Ratio (z) = 0.20506 0.37917
#
# Static dielectric constant tensor:
#      x y z
#    x 1.858680 0.000000 0.000000 
#    y 0.000000 1.809300 0.000000 
#    z 0.000000 0.000000 1.779420 
# 
# From -- ./inp_files/56631.got.cif
#   From: 2010.05.17/outbox.cif.g08.bks.cpg/sg66_29_cif.got.tgz:56631.got - 2010.06.03 17:51:23.
