data_PCOD9497869
_publ_section_title
;
Structure prediction by ZEFSAII (Michael W. Deem and Ramdas Pophale) SiO2 
 PCOD9497869
Probable space group: C C C M
;
_chemical_formula_sum "Si O2"
_cell_formula_units_Z 116
_cell_length_a 12.285565
_cell_length_b 26.128374
_cell_length_c 18.033643
_cell_angle_alpha 90.000000
_cell_angle_beta 90.000000
_cell_angle_gamma 90.000000
_cell_volume 5788.832533
_symmetry_space_group_name_H-M "C C C M"
_symmetry_group_IT_number 66
_symmetry_cell_setting 'orthorhombic'
loop_
_space_group_symop_operation_xyz
x,y,z
-x,-y,z
x,-y,1/2-z
-x,y,1/2-z
-x,-y,-z
x,y,-z
-x,y,1/2+z
x,-y,1/2+z
1/2+x,1/2+y,z
1/2-x,1/2-y,z
1/2+x,1/2-y,1/2-z
1/2-x,1/2+y,1/2-z
1/2-x,1/2-y,-z
1/2+x,1/2+y,-z
1/2-x,1/2+y,1/2+z
1/2+x,1/2-y,1/2+z
loop_
_atom_site_type_symbol
_atom_site_label
_atom_site_fract_x
_atom_site_fract_y
_atom_site_fract_z
Si Si1 0.536130 0.208846 0.331091
Si Si2 0.524004 0.687608 0.087553
Si Si3 0.361736 0.052256 0.874226
Si Si4 0.261946 0.346903 0.828207
Si Si5 0.600458 0.611683 0.694891
Si Si6 0.231557 0.048844 0.415845
Si Si7 0.500000 0.000000 0.750000
Si Si8 0.942968 0.382418 0.919196
O O1 0.500000 0.226496 0.250000
O O2 0.511074 0.253486 0.388830
O O3 0.662650 0.192939 0.327426
O O4 0.472489 0.157688 0.355655
O O5 0.642749 0.672462 0.118569
O O6 0.441744 0.651759 0.133449
O O7 0.514355 0.680322 0.000000
O O8 0.284687 0.100168 0.860007
O O9 0.464884 0.073485 0.919430
O O10 0.292082 0.005377 0.905543
O O11 0.420326 0.033940 0.799309
O O12 0.311583 0.360466 0.747802
O O13 0.500000 0.598482 0.750000
O O14 0.648340 0.563509 0.649511
O O15 0.186260 0.051398 0.500000
O O16 0.327301 0.090989 0.409295
O O17 0.946462 0.356716 0.000000
#
# Coordination Sequence:
#
# PCOD9497869 Si02
#       8
#    16  16  16  16  16  16   4  16
#     4  11  22  37  64  92 122 155 194 245 305 368
#     4  11  24  43  62  84 115 157 206 257 305 351
#     4  11  22  35  60  93 129 159 196 240 297 363
#     4  10  23  38  63  89 120 157 199 250 299 360
#     4  10  22  43  62  84 117 158 210 261 303 348
#     4  11  21  38  62  89 124 166 202 243 304 367
#     4  12  20  32  58  88 130 168 186 232 292 356
#     4  10  21  36  57  92 131 161 192 239 299 370
#
# _framework density 20.038582000000002
#
# number of rings (size 3 to 8) (size 9 to 14) (size 15 to 20)
#    0.000    1.379    1.379    4.552    3.862    4.966 
#    0.000    6.897    0.000    9.103    0.000    0.000 
#    0.000    0.000    0.000    0.000    0.000    0.000 
#
# Total GULP energy -324075.197404 kJ/mol
# GULP energy per Si atom -5587.503404 kJ/mol
# Density = 1.999297 g / cm^3
# Si number density = 20.038582 Si / 1000 Ang^3
#
#
#
# Elastic Constant Matrix: (Units=GPa)
#
#
# Indices 1 2 3 4 5 6 
#
# 1 29.6687 1.2988 11.7648 0.0000 0.0000 0.0000
# 2 1.2988 54.0667 11.5221 0.0000 0.0000 0.0000
# 3 11.7648 11.5221 118.6965 0.0000 0.0000 0.0000
# 4 0.0000 0.0000 0.0000 16.1774 0.0000 0.0000
# 5 0.0000 0.0000 0.0000 0.0000 17.5721 0.0000
# 6 0.0000 0.0000 0.0000 0.0000 0.0000 13.7479
#
#
#
# Elastic Compliance Matrix: (Units=1/GPa)
#
#
# Indices 1 2 3 4 5 6 
#
# 1 0.035085 -0.000104 -0.003467 0.000000 0.000000 0.000000
# 2 -0.000104 0.018887 -0.001823 0.000000 0.000000 0.000000
# 3 -0.003467 -0.001823 0.008945 0.000000 0.000000 0.000000
# 4 0.000000 0.000000 0.000000 0.061815 0.000000 0.000000
# 5 0.000000 0.000000 0.000000 0.000000 0.056908 0.000000
# 6 0.000000 0.000000 0.000000 0.000000 0.000000 0.072739
#
#
# Mechanical properties :
#
#
# Convention : Reuss Voigt Hill
#
# Bulk Modulus (GPa) = 19.18338 27.95593 23.56966
# Shear Modulus (GPa) = 17.69638 21.35589 19.52614
#
# Velocity S-wave (km/s) = 2.97495 3.26811 3.12497
# Velocity P-wave (km/s) = 4.62541 5.31244 4.98079
#
# Compressibility (1/GPa) = 0.05212845
#
# Stress axis : x y z
#
# Youngs Moduli (GPa) = 28.50220 52.94733 111.78809
#
# Poissons Ratio (x) = 0.00550 0.38762
# Poissons Ratio (y) = 0.00296 0.20380
# Poissons Ratio (z) = 0.09883 0.09653
#
# Static dielectric constant tensor:
#      x y z
#    x 1.700090 0.000000 0.000000 
#    y 0.000000 1.670750 0.000000 
#    z 0.000000 0.000000 1.993190 
# 
# From -- ./inp_files/39110.got.cif
#   From: 2010.05.17/outbox.cif.g08.bks.cpg/sg66_20_cif.got.tgz:39110.got - 2010.06.03 17:51:23.
