data_PCOD9497962
_publ_section_title
;
Structure prediction by ZEFSAII (Michael W. Deem and Ramdas Pophale) SiO2 
 PCOD9497962
Probable space group: C C C M
;
_chemical_formula_sum "Si O2"
_cell_formula_units_Z 56
_cell_length_a 18.016979
_cell_length_b 5.275221
_cell_length_c 24.844535
_cell_angle_alpha 90.000000
_cell_angle_beta 90.000000
_cell_angle_gamma 90.000000
_cell_volume 2361.312705
_symmetry_space_group_name_H-M "C C C M"
_symmetry_group_IT_number 66
_symmetry_cell_setting 'orthorhombic'
loop_
_space_group_symop_operation_xyz
x,y,z
-x,-y,z
x,-y,1/2-z
-x,y,1/2-z
-x,-y,-z
x,y,-z
-x,y,1/2+z
x,-y,1/2+z
1/2+x,1/2+y,z
1/2-x,1/2-y,z
1/2+x,1/2-y,1/2-z
1/2-x,1/2+y,1/2-z
1/2-x,1/2-y,-z
1/2+x,1/2+y,-z
1/2-x,1/2+y,1/2+z
1/2+x,1/2-y,1/2+z
loop_
_atom_site_type_symbol
_atom_site_label
_atom_site_fract_x
_atom_site_fract_y
_atom_site_fract_z
Si Si1 0.675131 0.919410 0.379615
Si Si2 0.799539 0.496020 0.500000
Si Si3 0.449744 0.252808 0.438008
Si Si4 0.837485 0.255642 0.277068
O O1 0.750000 0.750000 0.370673
O O2 0.604944 0.734204 0.386342
O O3 0.667977 0.025078 0.440113
O O4 0.665885 0.152092 0.338945
O O5 0.750000 0.250000 0.500000
O O6 0.750000 0.750000 0.500000
O O7 0.500000 0.500000 0.436172
O O8 0.416029 0.259706 0.500000
O O9 0.500000 0.000000 0.434942
O O10 0.874122 0.500000 0.250000
O O11 0.750000 0.250000 0.261089
O O12 0.867869 0.000000 0.250000
#
# Coordination Sequence:
#
# PCOD9497962 Si02
#       4
#    16   8  16  16
#     4  11  22  41  68 103 137 184 234 289 341 414
#     4  10  22  34  54  96 138 168 213 280 341 394
#     4  10  23  42  62  94 143 191 225 270 343 424
#     4  10  21  37  58  91 132 171 221 287 348 400
#
# _framework density 23.715623000000001
#
# number of rings (size 3 to 8) (size 9 to 14) (size 15 to 20)
#    0.000    1.714    1.429    3.429    0.000   11.429 
#    0.000    0.000    0.000    0.857    0.000   20.000 
#    0.000    0.000    0.000    0.000    0.000    0.000 
#
# Total GULP energy -155877.675774 kJ/mol
# GULP energy per Si atom -5567.059849 kJ/mol
# Density = 2.366165 g / cm^3
# Si number density = 23.715623 Si / 1000 Ang^3
#
#
#
# Elastic Constant Matrix: (Units=GPa)
#
#
# Indices 1 2 3 4 5 6 
#
# 1 56.5294 26.1473 30.4089 0.0000 0.0000 0.0000
# 2 26.1473 192.6265 88.7926 0.0000 0.0000 0.0000
# 3 30.4089 88.7926 156.7342 0.0000 0.0000 0.0000
# 4 0.0000 0.0000 0.0000 50.5761 0.0000 0.0000
# 5 0.0000 0.0000 0.0000 0.0000 -3.7657 0.0000
# 6 0.0000 0.0000 0.0000 0.0000 0.0000 9.2235
#
#
#
# Elastic Compliance Matrix: (Units=1/GPa)
#
#
# Indices 1 2 3 4 5 6 
#
# 1 0.019972 -0.001252 -0.003166 0.000000 0.000000 0.000000
# 2 -0.001252 0.007105 -0.003782 0.000000 0.000000 0.000000
# 3 -0.003166 -0.003782 0.009137 0.000000 0.000000 0.000000
# 4 0.000000 0.000000 0.000000 0.019772 0.000000 0.000000
# 5 0.000000 0.000000 0.000000 0.000000 -0.265555 0.000000
# 6 0.000000 0.000000 0.000000 0.000000 0.000000 0.108419
#
#
# Mechanical properties :
#
#
# Convention : Reuss Voigt Hill
#
# Bulk Modulus (GPa) = 50.46810 77.39865 63.93337
# Shear Modulus (GPa) = -63.98246 28.57620 -17.70313
#
# Velocity S-wave (km/s) = -5.19977 3.47501 -2.73513
# Velocity P-wave (km/s) = 3.83711 6.98627 4.12823
#
# Compressibility (1/GPa) = 0.01981450
#
# Stress axis : x y z
#
# Youngs Moduli (GPa) = 50.07055 140.75238 109.44472
#
# Poissons Ratio (x) = 0.17618 0.34647
# Poissons Ratio (y) = 0.06268 0.41393
# Poissons Ratio (z) = 0.15851 0.53233
#
# Static dielectric constant tensor:
#      x y z
#    x 4.180000 0.000000 0.000000 
#    y 0.000000 1.871890 0.000000 
#    z 0.000000 0.000000 1.945560 
# 
# From -- ./inp_files/59128.got.cif
#   From: 2010.05.17/outbox.cif.g08.bks.cpg/sg66_30_cif.got.tgz:59128.got - 2010.06.03 17:51:23.
