data_PCOD9497800
_publ_section_title
;
Structure prediction by ZEFSAII (Michael W. Deem and Ramdas Pophale) SiO2 
 PCOD9497800
Probable space group: C C C M
;
_chemical_formula_sum "Si O2"
_cell_formula_units_Z 96
_cell_length_a 8.633001
_cell_length_b 25.887832
_cell_length_c 22.525360
_cell_angle_alpha 90.000000
_cell_angle_beta 90.000000
_cell_angle_gamma 90.000000
_cell_volume 5034.185488
_symmetry_space_group_name_H-M "C C C M"
_symmetry_group_IT_number 66
_symmetry_cell_setting 'orthorhombic'
loop_
_space_group_symop_operation_xyz
x,y,z
-x,-y,z
x,-y,1/2-z
-x,y,1/2-z
-x,-y,-z
x,y,-z
-x,y,1/2+z
x,-y,1/2+z
1/2+x,1/2+y,z
1/2-x,1/2-y,z
1/2+x,1/2-y,1/2-z
1/2-x,1/2+y,1/2-z
1/2-x,1/2-y,-z
1/2+x,1/2+y,-z
1/2-x,1/2+y,1/2+z
1/2+x,1/2-y,1/2+z
loop_
_atom_site_type_symbol
_atom_site_label
_atom_site_fract_x
_atom_site_fract_y
_atom_site_fract_z
Si Si1 0.248568 0.500508 0.000000
Si Si2 0.885521 0.459142 0.623414
Si Si3 0.929311 0.362230 0.928511
Si Si4 0.506997 0.585706 0.500000
Si Si5 0.435045 0.250589 0.069861
Si Si6 0.926404 0.147217 0.889082
Si Si7 0.443769 0.554539 0.682312
O O1 0.164091 0.488678 0.937918
O O2 0.383433 0.458709 0.000000
O O3 0.327729 0.556603 0.000000
O O4 0.737044 0.445031 0.663777
O O5 0.000000 0.500000 0.654687
O O6 0.976405 0.407915 0.603086
O O7 0.754441 0.358004 0.904428
O O8 0.005650 0.306671 0.917003
O O9 0.933278 0.370163 0.000000
O O10 0.484758 0.621512 0.555837
O O11 0.250000 0.250000 0.076110
O O12 0.516829 0.293822 0.110616
O O13 0.473303 0.261581 0.000000
O O14 0.974783 0.107323 0.838527
O O15 0.500000 0.500000 0.652634
O O16 0.500000 0.550806 0.750000
#
# Coordination Sequence:
#
# PCOD9497800 Si02
#       7
#     8  16  16   8  16  16  16
#     4  11  21  32  53  92 133 159 197 246 321 387
#     4  12  23  37  61  95 130 164 201 257 317 376
#     4  11  22  35  57  94 132 162 195 245 315 389
#     4  11  20  30  55  87 120 161 197 251 309 379
#     4  10  21  35  56  87 126 166 201 244 308 381
#     4  12  21  38  60  86 124 163 207 256 309 368
#     4  11  25  45  64  85 117 166 219 260 303 358
#
# _framework density 19.06962
#
# number of rings (size 3 to 8) (size 9 to 14) (size 15 to 20)
#    0.000    0.833    4.167    4.750    0.000    1.333 
#    0.000    5.833    0.000    6.000    0.000    0.000 
#    0.000    0.000    0.000    0.000    0.000    0.000 
#
# Total GULP energy -267900.032140 kJ/mol
# GULP energy per Si atom -5581.250670 kJ/mol
# Density = 1.902622 g / cm^3
# Si number density = 19.069620 Si / 1000 Ang^3
#
#
#
# Elastic Constant Matrix: (Units=GPa)
#
#
# Indices 1 2 3 4 5 6 
#
# 1 128.7253 68.5043 33.4834 0.0000 0.0000 0.0000
# 2 68.5043 165.1914 30.3557 0.0000 0.0000 0.0000
# 3 33.4834 30.3557 62.4583 0.0000 0.0000 0.0000
# 4 0.0000 0.0000 0.0000 22.7892 0.0000 0.0000
# 5 0.0000 0.0000 0.0000 0.0000 0.4931 0.0000
# 6 0.0000 0.0000 0.0000 0.0000 0.0000 42.8364
#
#
#
# Elastic Compliance Matrix: (Units=1/GPa)
#
#
# Indices 1 2 3 4 5 6 
#
# 1 0.010794 -0.003748 -0.003965 0.000000 0.000000 0.000000
# 2 -0.003748 0.007948 -0.001854 0.000000 0.000000 0.000000
# 3 -0.003965 -0.001854 0.019037 0.000000 0.000000 0.000000
# 4 0.000000 0.000000 0.000000 0.043880 0.000000 0.000000
# 5 0.000000 0.000000 0.000000 0.000000 2.028187 0.000000
# 6 0.000000 0.000000 0.000000 0.000000 0.000000 0.023345
#
#
# Mechanical properties :
#
#
# Convention : Reuss Voigt Hill
#
# Bulk Modulus (GPa) = 53.62984 69.00688 61.31836
# Shear Modulus (GPa) = 2.31638 28.15918 15.23778
#
# Velocity S-wave (km/s) = 1.10333 3.84689 2.82983
# Velocity P-wave (km/s) = 5.45961 7.48310 6.54997
#
# Compressibility (1/GPa) = 0.01864633
#
# Stress axis : x y z
#
# Youngs Moduli (GPa) = 92.64106 125.81105 52.52791
#
# Poissons Ratio (x) = 0.47150 0.20829
# Poissons Ratio (y) = 0.34719 0.09738
# Poissons Ratio (z) = 0.36735 0.23325
#
# Static dielectric constant tensor:
#      x y z
#    x 1.708510 0.000000 0.000000 
#    y 0.000000 1.669840 0.000000 
#    z 0.000000 0.000000 1.643440 
# 
# From -- ./inp_files/55692.got.cif
#   From: 2010.05.17/outbox.cif.g08.bks.cpg/sg66_28_cif.got.tgz:55692.got - 2010.06.03 17:51:23.
