data_PCOD9497879
_publ_section_title
;
Structure prediction by ZEFSAII (Michael W. Deem and Ramdas Pophale) SiO2 
 PCOD9497879
Probable space group: C C C M
;
_chemical_formula_sum "Si O2"
_cell_formula_units_Z 108
_cell_length_a 11.471363
_cell_length_b 29.435077
_cell_length_c 14.526942
_cell_angle_alpha 90.000000
_cell_angle_beta 90.000000
_cell_angle_gamma 90.000000
_cell_volume 4905.173819
_symmetry_space_group_name_H-M "C C C M"
_symmetry_group_IT_number 66
_symmetry_cell_setting 'orthorhombic'
loop_
_space_group_symop_operation_xyz
x,y,z
-x,-y,z
x,-y,1/2-z
-x,y,1/2-z
-x,-y,-z
x,y,-z
-x,y,1/2+z
x,-y,1/2+z
1/2+x,1/2+y,z
1/2-x,1/2-y,z
1/2+x,1/2-y,1/2-z
1/2-x,1/2+y,1/2-z
1/2-x,1/2-y,-z
1/2+x,1/2+y,-z
1/2-x,1/2+y,1/2+z
1/2+x,1/2-y,1/2+z
loop_
_atom_site_type_symbol
_atom_site_label
_atom_site_fract_x
_atom_site_fract_y
_atom_site_fract_z
Si Si1 0.000000 0.111433 0.750000
Si Si2 0.836086 0.964381 0.333093
Si Si3 0.629054 0.770992 0.888568
Si Si4 0.264871 0.800978 0.109458
Si Si5 0.008100 0.355671 0.387624
Si Si6 0.568084 0.954723 0.388450
Si Si7 0.499278 0.681042 0.106811
Si Si8 0.000000 0.000000 0.000000
O O1 0.094084 0.079810 0.700778
O O2 0.056231 0.144629 0.826291
O O3 0.701789 0.954500 0.356534
O O4 0.840040 0.000000 0.250000
O O5 0.905569 0.984707 0.419538
O O6 0.750000 0.750000 0.855924
O O7 0.592210 0.820786 0.856638
O O8 0.532679 0.732612 0.868609
O O9 0.635933 0.773798 0.000000
O O10 0.250000 0.750000 0.147303
O O11 0.370952 0.831750 0.142271
O O12 0.139236 0.824045 0.117181
O O13 0.288837 0.795146 0.000000
O O14 0.006164 0.356066 0.500000
O O15 0.005289 0.407936 0.358939
O O16 0.569584 0.954996 0.500000
O O17 0.500000 0.000000 0.358608
O O18 0.531444 0.673874 0.000000
#
# Coordination Sequence:
#
# PCOD9497879 Si02
#       8
#     8  16  16  16  16  16  16   4
#     4  12  25  40  62 106 136 164 223 274 348 428
#     4  12  25  46  74 103 137 180 232 294 361 433
#     4   9  17  33  57  86 126 178 228 270 328 400
#     4   9  14  26  53  88 119 162 219 269 323 389
#     4   9  16  30  56  91 127 167 222 279 331 400
#     4  10  22  41  69 104 140 185 239 292 358 430
#     4  10  21  36  59  90 131 173 212 275 334 401
#     4  12  22  48  78 102 132 186 226 294 366 442
#
# _framework density 22.017568000000001
#
# number of rings (size 3 to 8) (size 9 to 14) (size 15 to 20)
#    0.000    1.926    3.704    0.889    1.037    1.481 
#    2.667    0.741    3.259    0.000    0.000    0.000 
#    0.000    0.000    0.000    0.000    0.000    0.000 
#
# Total GULP energy -301256.185662 kJ/mol
# GULP energy per Si atom -5578.818253 kJ/mol
# Density = 2.196745 g / cm^3
# Si number density = 22.017568 Si / 1000 Ang^3
#
#
#
# Elastic Constant Matrix: (Units=GPa)
#
#
# Indices 1 2 3 4 5 6 
#
# 1 105.2476 74.4943 18.6957 0.0000 0.0000 0.0000
# 2 74.4943 191.7459 47.8820 0.0000 0.0000 0.0000
# 3 18.6957 47.8820 118.8267 0.0000 0.0000 0.0000
# 4 0.0000 0.0000 0.0000 -14.9509 0.0000 0.0000
# 5 0.0000 0.0000 0.0000 0.0000 121.5964 0.0000
# 6 0.0000 0.0000 0.0000 0.0000 0.0000 4.0612
#
#
#
# Elastic Compliance Matrix: (Units=1/GPa)
#
#
# Indices 1 2 3 4 5 6 
#
# 1 0.013105 -0.005089 -0.000011 0.000000 0.000000 0.000000
# 2 -0.005089 0.007775 -0.002332 0.000000 0.000000 0.000000
# 3 -0.000011 -0.002332 0.009357 0.000000 0.000000 0.000000
# 4 0.000000 0.000000 0.000000 -0.066885 0.000000 0.000000
# 5 0.000000 0.000000 0.000000 0.000000 0.008224 0.000000
# 6 0.000000 0.000000 0.000000 0.000000 0.000000 0.246233
#
#
# Mechanical properties :
#
#
# Convention : Reuss Voigt Hill
#
# Bulk Modulus (GPa) = 65.05130 77.55157 71.30144
# Shear Modulus (GPa) = 21.02634 40.45788 30.74211
#
# Velocity S-wave (km/s) = 3.09363 4.29129 3.74070
# Velocity P-wave (km/s) = 6.50923 7.73645 7.14922
#
# Compressibility (1/GPa) = 0.01537248
#
# Stress axis : x y z
#
# Youngs Moduli (GPa) = 76.30615 128.62488 106.86965
#
# Poissons Ratio (x) = 0.65451 0.00122
# Poissons Ratio (y) = 0.38829 0.24924
# Poissons Ratio (z) = 0.00087 0.29998
#
# Static dielectric constant tensor:
#      x y z
#    x 1.805860 0.000000 0.000000 
#    y 0.000000 1.812780 0.000000 
#    z 0.000000 0.000000 1.816670 
# 
# From -- ./inp_files/27054.got.cif
#   From: 2010.05.17/outbox.cif.g08.bks.cpg/sg66_14_cif.got.tgz:27054.got - 2010.06.03 17:51:23.
