data_PCOD9497868
_publ_section_title
;
Structure prediction by ZEFSAII (Michael W. Deem and Ramdas Pophale) SiO2 
 PCOD9497868
Probable space group: C C C M
;
_chemical_formula_sum "Si O2"
_cell_formula_units_Z 60
_cell_length_a 17.799361
_cell_length_b 9.498358
_cell_length_c 14.920357
_cell_angle_alpha 90.000000
_cell_angle_beta 90.000000
_cell_angle_gamma 90.000000
_cell_volume 2522.505724
_symmetry_space_group_name_H-M "C C C M"
_symmetry_group_IT_number 66
_symmetry_cell_setting 'orthorhombic'
loop_
_space_group_symop_operation_xyz
x,y,z
-x,-y,z
x,-y,1/2-z
-x,y,1/2-z
-x,-y,-z
x,y,-z
-x,y,1/2+z
x,-y,1/2+z
1/2+x,1/2+y,z
1/2-x,1/2-y,z
1/2+x,1/2-y,1/2-z
1/2-x,1/2+y,1/2-z
1/2-x,1/2-y,-z
1/2+x,1/2+y,-z
1/2-x,1/2+y,1/2+z
1/2+x,1/2-y,1/2+z
loop_
_atom_site_type_symbol
_atom_site_label
_atom_site_fract_x
_atom_site_fract_y
_atom_site_fract_z
Si Si1 0.867159 0.448131 0.344242
Si Si2 0.000000 0.000000 0.750000
Si Si3 0.856515 0.240848 0.097293
Si Si4 0.750000 0.750000 0.752972
Si Si5 0.534723 0.306997 0.598289
O O1 0.902442 0.500000 0.250000
O O2 0.848897 0.589346 0.397170
O O3 0.793510 0.361649 0.313913
O O4 0.923065 0.340393 0.391198
O O5 0.949906 0.094250 0.683012
O O6 0.810737 0.186424 0.182779
O O7 0.945158 0.213446 0.103339
O O8 0.830428 0.188726 0.000000
O O9 0.553877 0.366846 0.500000
#
# Coordination Sequence:
#
# PCOD9497868 Si02
#       5
#    16   4  16   8  16
#     4  10  21  40  65  95 127 163 216 267 325 380
#     4  12  22  40  62  90 140 168 206 256 324 398
#     4  10  21  41  67  93 122 160 214 274 325 379
#     4  10  21  36  57  90 132 166 200 244 322 384
#     4  11  24  43  69  99 128 167 220 277 330 381
#
# _framework density 23.785872999999999
#
# number of rings (size 3 to 8) (size 9 to 14) (size 15 to 20)
#    0.000    1.600    0.000    5.600    0.000    5.333 
#   28.800    2.667    0.000    0.000    0.000    0.000 
#    0.000    0.000    0.000    0.000    0.000    0.000 
#
# Total GULP energy -167800.330997 kJ/mol
# GULP energy per Si atom -5593.344367 kJ/mol
# Density = 2.373174 g / cm^3
# Si number density = 23.785873 Si / 1000 Ang^3
#
#
#
# Elastic Constant Matrix: (Units=GPa)
#
#
# Indices 1 2 3 4 5 6 
#
# 1 99.6412 12.9505 24.6510 0.0000 0.0000 0.0000
# 2 12.9505 63.2674 24.0630 0.0000 0.0000 0.0000
# 3 24.6510 24.0630 143.7997 0.0000 0.0000 0.0000
# 4 0.0000 0.0000 0.0000 17.4991 0.0000 0.0000
# 5 0.0000 0.0000 0.0000 0.0000 16.2412 0.0000
# 6 0.0000 0.0000 0.0000 0.0000 0.0000 39.8785
#
#
#
# Elastic Compliance Matrix: (Units=1/GPa)
#
#
# Indices 1 2 3 4 5 6 
#
# 1 0.010627 -0.001583 -0.001557 0.000000 0.000000 0.000000
# 2 -0.001583 0.017116 -0.002593 0.000000 0.000000 0.000000
# 3 -0.001557 -0.002593 0.007655 0.000000 0.000000 0.000000
# 4 0.000000 0.000000 0.000000 0.057146 0.000000 0.000000
# 5 0.000000 0.000000 0.000000 0.000000 0.061572 0.000000
# 6 0.000000 0.000000 0.000000 0.000000 0.000000 0.025076
#
#
# Mechanical properties :
#
#
# Convention : Reuss Voigt Hill
#
# Bulk Modulus (GPa) = 41.78428 47.78192 44.78310
# Shear Modulus (GPa) = 25.17185 31.06000 28.11593
#
# Velocity S-wave (km/s) = 3.25663 3.61753 3.44182
# Velocity P-wave (km/s) = 5.63435 6.13031 5.88755
#
# Compressibility (1/GPa) = 0.02393245
#
# Stress axis : x y z
#
# Youngs Moduli (GPa) = 94.10059 58.42443 130.63587
#
# Poissons Ratio (x) = 0.09249 0.20338
# Poissons Ratio (y) = 0.14898 0.33871
# Poissons Ratio (z) = 0.14650 0.15148
#
# Static dielectric constant tensor:
#      x y z
#    x 1.902410 0.000000 0.000000 
#    y 0.000000 1.920250 0.000000 
#    z 0.000000 0.000000 1.950750 
# 
# From -- ./inp_files/29523.got.cif
#   From: 2010.05.17/outbox.cif.g08.bks.cpg/sg66_15_cif.got.tgz:29523.got - 2010.06.03 17:51:23.
