data_PCOD9497638
_publ_section_title
;
Structure prediction by ZEFSAII (Michael W. Deem and Ramdas Pophale) SiO2 
 PCOD9497638
Probable space group: C C C M
;
_chemical_formula_sum "Si O2"
_cell_formula_units_Z 96
_cell_length_a 12.584744
_cell_length_b 13.891506
_cell_length_c 24.160681
_cell_angle_alpha 90.000000
_cell_angle_beta 90.000000
_cell_angle_gamma 90.000000
_cell_volume 4223.795543
_symmetry_space_group_name_H-M "C C C M"
_symmetry_group_IT_number 66
_symmetry_cell_setting 'orthorhombic'
loop_
_space_group_symop_operation_xyz
x,y,z
-x,-y,z
x,-y,1/2-z
-x,y,1/2-z
-x,-y,-z
x,y,-z
-x,y,1/2+z
x,-y,1/2+z
1/2+x,1/2+y,z
1/2-x,1/2-y,z
1/2+x,1/2-y,1/2-z
1/2-x,1/2+y,1/2-z
1/2-x,1/2-y,-z
1/2+x,1/2+y,-z
1/2-x,1/2+y,1/2+z
1/2+x,1/2-y,1/2+z
loop_
_atom_site_type_symbol
_atom_site_label
_atom_site_fract_x
_atom_site_fract_y
_atom_site_fract_z
Si Si1 0.623479 0.525948 0.119862
Si Si2 0.878542 0.965950 0.000000
Si Si3 0.599082 0.247090 0.619419
Si Si4 0.142860 0.315618 0.609708
Si Si5 0.765116 0.420337 0.209247
Si Si6 0.250000 0.250000 0.786275
Si Si7 0.575518 0.095216 0.000000
Si Si8 0.611051 0.765156 0.000000
O O1 0.500000 0.500000 0.121708
O O2 0.628563 0.640752 0.123282
O O3 0.681851 0.472671 0.169082
O O4 0.666044 0.499648 0.058489
O O5 0.879527 0.849668 0.000000
O O6 0.000000 0.000000 0.000000
O O7 0.471346 0.238335 0.615055
O O8 0.656915 0.208311 0.674028
O O9 0.646429 0.203086 0.561683
O O10 0.250000 0.250000 0.603672
O O11 0.153813 0.371390 0.667353
O O12 0.134863 0.389377 0.558035
O O13 0.811458 0.500000 0.250000
O O14 0.713409 0.336281 0.246426
O O15 0.500000 0.000000 0.000000
O O16 0.506316 0.193323 0.000000
#
# Coordination Sequence:
#
# PCOD9497638 Si02
#       8
#    16   8  16  16  16   8   8   8
#     4  10  20  39  68 101 136 176 232 300 358 431
#     4   8  16  33  64 104 136 163 221 297 377 425
#     4  10  22  44  73 101 145 186 237 306 370 436
#     4  11  24  47  77 111 149 191 249 314 381 440
#     4  12  26  45  66 103 145 191 257 296 368 437
#     4  12  26  47  66 101 148 196 250 296 364 440
#     4  10  23  44  73 111 154 200 245 294 375 466
#     4   8  18  38  69 106 131 184 236 285 372 436
#
# _framework density 22.728372
#
# number of rings (size 3 to 8) (size 9 to 14) (size 15 to 20)
#    0.000    1.667    2.500    1.250    0.000    6.000 
#    3.000    2.500    0.000    0.000    0.000    0.000 
#    0.000    0.000    0.000    0.000    0.000    0.000 
#
# Total GULP energy -267706.255490 kJ/mol
# GULP energy per Si atom -5577.213656 kJ/mol
# Density = 2.267664 g / cm^3
# Si number density = 22.728372 Si / 1000 Ang^3
#
#
#
# Elastic Constant Matrix: (Units=GPa)
#
#
# Indices 1 2 3 4 5 6 
#
# 1 124.7174 42.2867 50.4826 0.0000 0.0000 0.0000
# 2 42.2867 68.7388 66.1461 0.0000 0.0000 0.0000
# 3 50.4826 66.1461 210.2734 0.0000 0.0000 0.0000
# 4 0.0000 0.0000 0.0000 32.1603 0.0000 0.0000
# 5 0.0000 0.0000 0.0000 0.0000 29.4888 0.0000
# 6 0.0000 0.0000 0.0000 0.0000 0.0000 33.3057
#
#
#
# Elastic Compliance Matrix: (Units=1/GPa)
#
#
# Indices 1 2 3 4 5 6 
#
# 1 0.010199 -0.005619 -0.000681 0.000000 0.000000 0.000000
# 2 -0.005619 0.023959 -0.006188 0.000000 0.000000 0.000000
# 3 -0.000681 -0.006188 0.006866 0.000000 0.000000 0.000000
# 4 0.000000 0.000000 0.000000 0.031094 0.000000 0.000000
# 5 0.000000 0.000000 0.000000 0.000000 0.033911 0.000000
# 6 0.000000 0.000000 0.000000 0.000000 0.000000 0.030025
#
#
# Mechanical properties :
#
#
# Convention : Reuss Voigt Hill
#
# Bulk Modulus (GPa) = 62.31250 80.17338 71.24294
# Shear Modulus (GPa) = 30.05197 35.31191 32.68194
#
# Velocity S-wave (km/s) = 3.64018 3.94591 3.79613
# Velocity P-wave (km/s) = 6.71890 7.49076 7.11530
#
# Compressibility (1/GPa) = 0.01604814
#
# Stress axis : x y z
#
# Youngs Moduli (GPa) = 98.04968 41.73829 145.65103
#
# Poissons Ratio (x) = 0.23452 0.09919
# Poissons Ratio (y) = 0.55092 0.90126
# Poissons Ratio (z) = 0.06678 0.25827
#
# Static dielectric constant tensor:
#      x y z
#    x 1.721140 0.000000 0.000000 
#    y 0.000000 1.861660 0.000000 
#    z 0.000000 0.000000 1.901290 
# 
# From -- ./inp_files/49940.got.cif
#   From: 2010.05.17/outbox.cif.g08.bks.cpg/sg66_25_cif.got.tgz:49940.got - 2010.06.03 17:51:23.
