data_PCOD9497110
_publ_section_title
;
Structure prediction by ZEFSAII (Michael W. Deem and Ramdas Pophale) SiO2 
 PCOD9497110
Probable space group: C C C M
;
_chemical_formula_sum "Si O2"
_cell_formula_units_Z 80
_cell_length_a 19.208590
_cell_length_b 9.765878
_cell_length_c 21.116887
_cell_angle_alpha 90.000000
_cell_angle_beta 90.000000
_cell_angle_gamma 90.000000
_cell_volume 3961.290362
_symmetry_space_group_name_H-M "C C C M"
_symmetry_group_IT_number 66
_symmetry_cell_setting 'orthorhombic'
loop_
_space_group_symop_operation_xyz
x,y,z
-x,-y,z
x,-y,1/2-z
-x,y,1/2-z
-x,-y,-z
x,y,-z
-x,y,1/2+z
x,-y,1/2+z
1/2+x,1/2+y,z
1/2-x,1/2-y,z
1/2+x,1/2-y,1/2-z
1/2-x,1/2+y,1/2-z
1/2-x,1/2-y,-z
1/2+x,1/2+y,-z
1/2-x,1/2+y,1/2+z
1/2+x,1/2-y,1/2+z
loop_
_atom_site_type_symbol
_atom_site_label
_atom_site_fract_x
_atom_site_fract_y
_atom_site_fract_z
Si Si1 0.938234 0.739827 0.074724
Si Si2 0.342252 0.493995 0.925297
Si Si3 0.326546 0.774555 0.854540
Si Si4 0.690363 0.948574 0.925231
Si Si5 0.469953 0.154222 0.313672
O O1 0.875873 0.638038 0.097687
O O2 0.002820 0.719154 0.120973
O O3 0.905981 0.890619 0.080407
O O4 0.953940 0.713458 0.000000
O O5 0.348721 0.631224 0.885292
O O6 0.269948 0.418222 0.905252
O O7 0.334719 0.528351 0.000000
O O8 0.250000 0.750000 0.825611
O O9 0.318473 0.892110 0.907830
O O10 0.387038 0.832695 0.810488
O O11 0.688798 0.925131 0.000000
O O12 0.500000 0.220657 0.250000
O O13 0.500000 0.000000 0.315503
#
# Coordination Sequence:
#
# PCOD9497110 Si02
#       5
#    16  16  16  16  16
#     4  10  20  35  59  90 120 157 203 246 296 359
#     4   9  18  32  54  89 129 159 189 247 308 352
#     4  10  20  37  60  86 117 155 204 244 294 362
#     4   9  16  30  55  87 123 160 200 243 294 355
#     4  11  24  43  64  86 120 159 200 252 305 354
#
# _framework density 20.195440000000001
#
# number of rings (size 3 to 8) (size 9 to 14) (size 15 to 20)
#    0.000    2.200    2.000    1.200    0.000    7.600 
#    0.000    6.000    0.000    0.000    0.000    0.000 
#    0.000    0.000    0.000    0.000    0.000    0.000 
#
# Total GULP energy -222997.237438 kJ/mol
# GULP energy per Si atom -5574.930936 kJ/mol
# Density = 2.014947 g / cm^3
# Si number density = 20.195440 Si / 1000 Ang^3
#
#
#
# Elastic Constant Matrix: (Units=GPa)
#
#
# Indices 1 2 3 4 5 6 
#
# 1 117.1503 23.6920 33.5732 0.0000 0.0000 0.0000
# 2 23.6920 52.6789 9.6765 0.0000 0.0000 0.0000
# 3 33.5732 9.6765 49.7571 0.0000 0.0000 0.0000
# 4 0.0000 0.0000 0.0000 -4.0353 0.0000 0.0000
# 5 0.0000 0.0000 0.0000 0.0000 4.3039 0.0000
# 6 0.0000 0.0000 0.0000 0.0000 0.0000 -8.8415
#
#
#
# Elastic Compliance Matrix: (Units=1/GPa)
#
#
# Indices 1 2 3 4 5 6 
#
# 1 0.011274 -0.003809 -0.006866 0.000000 0.000000 0.000000
# 2 -0.003809 0.020973 -0.001509 0.000000 0.000000 0.000000
# 3 -0.006866 -0.001509 0.025024 0.000000 0.000000 0.000000
# 4 0.000000 0.000000 0.000000 -0.247811 0.000000 0.000000
# 5 0.000000 0.000000 0.000000 0.000000 0.232350 0.000000
# 6 0.000000 0.000000 0.000000 0.000000 0.000000 -0.113103
#
#
# Mechanical properties :
#
#
# Convention : Reuss Voigt Hill
#
# Bulk Modulus (GPa) = 30.39215 39.27440 34.83328
# Shear Modulus (GPa) = -139.05906 8.46171 -65.29868
#
# Velocity S-wave (km/s) = -8.30699 2.04915 -5.69241
# Velocity P-wave (km/s) = 8.77078 5.00880 5.09109
#
# Compressibility (1/GPa) = 0.03290323
#
# Stress axis : x y z
#
# Youngs Moduli (GPa) = 88.69824 47.67990 39.96158
#
# Poissons Ratio (x) = 0.18162 0.27439
# Poissons Ratio (y) = 0.33787 0.06028
# Poissons Ratio (z) = 0.60903 0.07193
#
# Static dielectric constant tensor:
#      x y z
#    x 1.785170 0.000000 0.000000 
#    y 0.000000 1.720840 0.000000 
#    z 0.000000 0.000000 1.714280 
# 
# From -- ./inp_files/65070.got.cif
#   From: 2010.05.17/outbox.cif.g08.bks.cpg/sg66_33_cif.got.tgz:65070.got - 2010.06.03 17:51:23.
