data_PCOD9497131
_publ_section_title
;
Structure prediction by ZEFSAII (Michael W. Deem and Ramdas Pophale) SiO2 
 PCOD9497131
Probable space group: C C C M
;
_chemical_formula_sum "Si O2"
_cell_formula_units_Z 80
_cell_length_a 12.095450
_cell_length_b 18.397009
_cell_length_c 14.275379
_cell_angle_alpha 90.000000
_cell_angle_beta 90.000000
_cell_angle_gamma 90.000000
_cell_volume 3176.558798
_symmetry_space_group_name_H-M "C C C M"
_symmetry_group_IT_number 66
_symmetry_cell_setting 'orthorhombic'
loop_
_space_group_symop_operation_xyz
x,y,z
-x,-y,z
x,-y,1/2-z
-x,y,1/2-z
-x,-y,-z
x,y,-z
-x,y,1/2+z
x,-y,1/2+z
1/2+x,1/2+y,z
1/2-x,1/2-y,z
1/2+x,1/2-y,1/2-z
1/2-x,1/2+y,1/2-z
1/2-x,1/2-y,-z
1/2+x,1/2+y,-z
1/2-x,1/2+y,1/2+z
1/2+x,1/2-y,1/2+z
loop_
_atom_site_type_symbol
_atom_site_label
_atom_site_fract_x
_atom_site_fract_y
_atom_site_fract_z
Si Si1 0.741964 0.584078 0.893162
Si Si2 0.142766 0.285487 0.677571
Si Si3 0.498400 0.582796 0.860955
Si Si4 0.751204 0.080362 0.891547
Si Si5 0.601384 0.778252 0.889911
O O1 0.617099 0.616497 0.885393
O O2 0.745786 0.502485 0.852206
O O3 0.835650 0.644051 0.879746
O O4 0.752963 0.564086 0.000000
O O5 0.250000 0.250000 0.631629
O O6 0.175089 0.370665 0.674559
O O7 0.131180 0.251348 0.782356
O O8 0.030363 0.278056 0.620411
O O9 0.500000 0.500000 0.897375
O O10 0.500000 0.581015 0.750000
O O11 0.378067 0.609967 0.889517
O O12 0.713241 0.085404 0.000000
O O13 0.627018 0.756079 0.000000
#
# Coordination Sequence:
#
# PCOD9497131 Si02
#       5
#    16  16  16  16  16
#     4   9  18  35  60  95 130 161 211 270 331 393
#     4  11  25  45  66  92 129 172 223 267 313 395
#     4   9  16  28  50  84 127 167 206 258 319 381
#     4  10  20  35  61  94 131 174 213 264 329 388
#     4  10  23  45  70  94 126 166 214 278 335 382
#
# _framework density 25.184487000000001
#
# number of rings (size 3 to 8) (size 9 to 14) (size 15 to 20)
#    0.000    2.200    0.000    2.400    0.000    7.600 
#   10.800    5.000    0.000    0.000    0.000    0.000 
#    0.000    0.000    0.000    0.000    0.000    0.000 
#
# Total GULP energy -222847.878205 kJ/mol
# GULP energy per Si atom -5571.196955 kJ/mol
# Density = 2.512717 g / cm^3
# Si number density = 25.184487 Si / 1000 Ang^3
#
#
#
# Elastic Constant Matrix: (Units=GPa)
#
#
# Indices 1 2 3 4 5 6 
#
# 1 162.2372 21.5664 16.7295 0.0000 0.0000 0.0000
# 2 21.5664 45.4730 19.3289 0.0000 0.0000 0.0000
# 3 16.7295 19.3289 171.4127 0.0000 0.0000 0.0000
# 4 0.0000 0.0000 0.0000 174.4242 0.0000 0.0000
# 5 0.0000 0.0000 0.0000 0.0000 63.0680 0.0000
# 6 0.0000 0.0000 0.0000 0.0000 0.0000 161.1690
#
#
#
# Elastic Compliance Matrix: (Units=1/GPa)
#
#
# Indices 1 2 3 4 5 6 
#
# 1 0.006594 -0.002997 -0.000306 0.000000 0.000000 0.000000
# 2 -0.002997 0.024461 -0.002466 0.000000 0.000000 0.000000
# 3 -0.000306 -0.002466 0.006142 0.000000 0.000000 0.000000
# 4 0.000000 0.000000 0.000000 0.005733 0.000000 0.000000
# 5 0.000000 0.000000 0.000000 0.000000 0.015856 0.000000
# 6 0.000000 0.000000 0.000000 0.000000 0.000000 0.006205
#
#
# Mechanical properties :
#
#
# Convention : Reuss Voigt Hill
#
# Bulk Modulus (GPa) = 38.97269 54.93028 46.95149
# Shear Modulus (GPa) = 58.76816 101.16545 79.96681
#
# Velocity S-wave (km/s) = 4.83588 6.34484 5.64104
# Velocity P-wave (km/s) = 6.83297 8.69106 7.81741
#
# Compressibility (1/GPa) = 0.02565899
#
# Stress axis : x y z
#
# Youngs Moduli (GPa) = 151.65856 40.88193 162.82041
#
# Poissons Ratio (x) = 0.12254 0.04975
# Poissons Ratio (y) = 0.45457 0.40147
# Poissons Ratio (z) = 0.04634 0.10080
#
# Static dielectric constant tensor:
#      x y z
#    x 1.981750 0.000000 0.000000 
#    y 0.000000 2.120280 0.000000 
#    z 0.000000 0.000000 1.963330 
# 
# From -- ./inp_files/26393.got.cif
#   From: 2010.05.17/outbox.cif.g08.bks.cpg/sg66_14_cif.got.tgz:26393.got - 2010.06.03 17:51:23.
