data_PCOD9497494
_publ_section_title
;
Structure prediction by ZEFSAII (Michael W. Deem and Ramdas Pophale) SiO2 
 PCOD9497494
Probable space group: C C C M
;
_chemical_formula_sum "Si O2"
_cell_formula_units_Z 104
_cell_length_a 12.203272
_cell_length_b 16.057385
_cell_length_c 26.990442
_cell_angle_alpha 90.000000
_cell_angle_beta 90.000000
_cell_angle_gamma 90.000000
_cell_volume 5288.848277
_symmetry_space_group_name_H-M "C C C M"
_symmetry_group_IT_number 66
_symmetry_cell_setting 'orthorhombic'
loop_
_space_group_symop_operation_xyz
x,y,z
-x,-y,z
x,-y,1/2-z
-x,y,1/2-z
-x,-y,-z
x,y,-z
-x,y,1/2+z
x,-y,1/2+z
1/2+x,1/2+y,z
1/2-x,1/2-y,z
1/2+x,1/2-y,1/2-z
1/2-x,1/2+y,1/2-z
1/2-x,1/2-y,-z
1/2+x,1/2+y,-z
1/2-x,1/2+y,1/2+z
1/2+x,1/2-y,1/2+z
loop_
_atom_site_type_symbol
_atom_site_label
_atom_site_fract_x
_atom_site_fract_y
_atom_site_fract_z
Si Si1 0.500000 0.000000 0.370795
Si Si2 0.092805 0.623273 0.557554
Si Si3 0.301638 0.381635 0.555250
Si Si4 0.340451 0.811462 0.853842
Si Si5 0.179560 0.056905 0.103836
Si Si6 0.303677 0.986453 0.192469
Si Si7 0.488648 0.292875 0.908101
O O1 0.498737 0.076186 0.410144
O O2 0.406593 0.969084 0.333380
O O3 0.085897 0.600066 0.500000
O O4 0.209094 0.595119 0.580367
O O5 0.079049 0.721768 0.564105
O O6 0.255992 0.380571 0.500000
O O7 0.215565 0.345467 0.594979
O O8 0.338990 0.474580 0.570656
O O9 0.409981 0.325778 0.559537
O O10 0.250000 0.750000 0.831905
O O11 0.340710 0.892045 0.819439
O O12 0.449308 0.757432 0.863731
O O13 0.087127 0.127984 0.104861
O O14 0.203854 0.018364 0.158373
O O15 0.288447 0.000000 0.250000
#
# Coordination Sequence:
#
# PCOD9497494 Si02
#       7
#     8  16  16  16  16  16  16
#     4  10  20  38  58  86 110 152 194 248 296 346
#     4  11  22  35  56  86 124 159 194 231 287 355
#     4  10  21  37  58  86 121 165 206 235 279 348
#     4   9  20  38  60  86 117 150 196 251 294 342
#     4  10  23  38  57  86 124 158 191 245 298 354
#     4  10  20  40  65  83 107 150 199 248 305 362
#     4  11  21  37  58  86 122 158 200 240 291 340
#
# _framework density 19.664016
#
# number of rings (size 3 to 8) (size 9 to 14) (size 15 to 20)
#    0.000    1.846    1.538    2.308    0.000    7.077 
#    0.000    3.077    0.000   15.692    0.000    0.000 
#    0.000    0.000    0.000    0.000    0.000    0.000 
#
# Total GULP energy -289673.121326 kJ/mol
# GULP energy per Si atom -5570.636949 kJ/mol
# Density = 1.961926 g / cm^3
# Si number density = 19.664016 Si / 1000 Ang^3
#
#
#
# Elastic Constant Matrix: (Units=GPa)
#
#
# Indices 1 2 3 4 5 6 
#
# 1 35.3043 11.6091 7.7813 0.0000 0.0000 0.0000
# 2 11.6091 102.9078 15.2431 0.0000 0.0000 0.0000
# 3 7.7813 15.2431 106.1411 0.0000 0.0000 0.0000
# 4 0.0000 0.0000 0.0000 -6.3798 0.0000 0.0000
# 5 0.0000 0.0000 0.0000 0.0000 -0.6844 0.0000
# 6 0.0000 0.0000 0.0000 0.0000 0.0000 43.7801
#
#
#
# Elastic Compliance Matrix: (Units=1/GPa)
#
#
# Indices 1 2 3 4 5 6 
#
# 1 0.029726 -0.003096 -0.001735 0.000000 0.000000 0.000000
# 2 -0.003096 0.010251 -0.001245 0.000000 0.000000 0.000000
# 3 -0.001735 -0.001245 0.009727 0.000000 0.000000 0.000000
# 4 0.000000 0.000000 0.000000 -0.156745 0.000000 0.000000
# 5 0.000000 0.000000 0.000000 0.000000 -1.461191 0.000000
# 6 0.000000 0.000000 0.000000 0.000000 0.000000 0.022841
#
#
# Mechanical properties :
#
#
# Convention : Reuss Voigt Hill
#
# Bulk Modulus (GPa) = 26.62979 34.84670 30.73824
# Shear Modulus (GPa) = -3.28792 21.32449 9.01829
#
# Velocity S-wave (km/s) = -1.29448 3.29666 2.14386
# Velocity P-wave (km/s) = 3.36713 5.67892 4.66839
#
# Compressibility (1/GPa) = 0.03755192
#
# Stress axis : x y z
#
# Youngs Moduli (GPa) = 33.64094 97.54965 102.80235
#
# Poissons Ratio (x) = 0.30206 0.17831
# Poissons Ratio (y) = 0.10417 0.12801
# Poissons Ratio (z) = 0.05835 0.12147
#
# Static dielectric constant tensor:
#      x y z
#    x 1.804490 0.000000 0.000000 
#    y 0.000000 1.754630 0.000000 
#    z 0.000000 0.000000 1.668310 
# 
# From -- ./inp_files/63783.got.cif
#   From: 2010.05.17/outbox.cif.g08.bks.cpg/sg66_32_cif.got.tgz:63783.got - 2010.06.03 17:51:23.
