data_PCOD9497996
_publ_section_title
;
Structure prediction by ZEFSAII (Michael W. Deem and Ramdas Pophale) SiO2 
 PCOD9497996
Probable space group: C C C M
;
_chemical_formula_sum "Si O2"
_cell_formula_units_Z 64
_cell_length_a 25.120810
_cell_length_b 13.491566
_cell_length_c 10.323461
_cell_angle_alpha 90.000000
_cell_angle_beta 90.000000
_cell_angle_gamma 90.000000
_cell_volume 3498.817761
_symmetry_space_group_name_H-M "C C C M"
_symmetry_group_IT_number 66
_symmetry_cell_setting 'orthorhombic'
loop_
_space_group_symop_operation_xyz
x,y,z
-x,-y,z
x,-y,1/2-z
-x,y,1/2-z
-x,-y,-z
x,y,-z
-x,y,1/2+z
x,-y,1/2+z
1/2+x,1/2+y,z
1/2-x,1/2-y,z
1/2+x,1/2-y,1/2-z
1/2-x,1/2+y,1/2-z
1/2-x,1/2-y,-z
1/2+x,1/2+y,-z
1/2-x,1/2+y,1/2+z
1/2+x,1/2-y,1/2+z
loop_
_atom_site_type_symbol
_atom_site_label
_atom_site_fract_x
_atom_site_fract_y
_atom_site_fract_z
Si Si1 0.624015 0.307580 0.244766
Si Si2 0.651062 0.084859 0.153656
Si Si3 0.062998 0.129110 0.000000
Si Si4 0.561607 0.608907 0.500000
Si Si5 0.229479 0.136637 0.643426
O O1 0.635106 0.192545 0.209676
O O2 0.592060 0.325598 0.375399
O O3 0.589819 0.350645 0.127491
O O4 0.681124 0.364788 0.243789
O O5 0.715653 0.078729 0.158552
O O6 0.629739 0.000000 0.250000
O O7 0.636571 0.077219 0.000000
O O8 0.999573 0.144643 0.000000
O O9 0.066977 0.009803 0.000000
O O10 0.207121 0.114565 0.500000
O O11 0.250000 0.250000 0.641678
#
# Coordination Sequence:
#
# PCOD9497996 Si02
#       5
#    16  16   8   8  16
#     4  11  20  40  62  86 120 159 191 240 300 352
#     4  10  21  37  61  89 122 161 196 234 285 350
#     4  11  26  36  62  93 113 143 202 256 294 355
#     4  11  22  44  60  83 117 153 194 246 310 351
#     4   8  15  33  56  80 113 155 191 224 278 343
#
# _framework density 18.291892000000001
#
# number of rings (size 3 to 8) (size 9 to 14) (size 15 to 20)
#    0.000    2.000    2.500    3.000    1.750    4.000 
#    2.250    1.875    0.000    4.500    0.000    0.000 
#    0.000    0.000    0.000    0.000    0.000    0.000 
#
# Total GULP energy -178361.959181 kJ/mol
# GULP energy per Si atom -5573.811224 kJ/mol
# Density = 1.825026 g / cm^3
# Si number density = 18.291892 Si / 1000 Ang^3
#
#
#
# Elastic Constant Matrix: (Units=GPa)
#
#
# Indices 1 2 3 4 5 6 
#
# 1 98.7924 23.4181 59.7595 0.0000 0.0000 0.0000
# 2 23.4181 57.8310 45.7593 0.0000 0.0000 0.0000
# 3 59.7595 45.7593 151.3768 0.0000 0.0000 0.0000
# 4 0.0000 0.0000 0.0000 26.3934 0.0000 0.0000
# 5 0.0000 0.0000 0.0000 0.0000 23.2661 0.0000
# 6 0.0000 0.0000 0.0000 0.0000 0.0000 22.7808
#
#
#
# Elastic Compliance Matrix: (Units=1/GPa)
#
#
# Indices 1 2 3 4 5 6 
#
# 1 0.013414 -0.001632 -0.004802 0.000000 0.000000 0.000000
# 2 -0.001632 0.022927 -0.006286 0.000000 0.000000 0.000000
# 3 -0.004802 -0.006286 0.010402 0.000000 0.000000 0.000000
# 4 0.000000 0.000000 0.000000 0.037888 0.000000 0.000000
# 5 0.000000 0.000000 0.000000 0.000000 0.042981 0.000000
# 6 0.000000 0.000000 0.000000 0.000000 0.000000 0.043897
#
#
# Mechanical properties :
#
#
# Convention : Reuss Voigt Hill
#
# Bulk Modulus (GPa) = 46.94431 62.87490 54.90960
# Shear Modulus (GPa) = 24.50386 26.42563 25.46474
#
# Velocity S-wave (km/s) = 3.66403 3.80500 3.73518
# Velocity P-wave (km/s) = 6.60453 7.33156 6.97752
#
# Compressibility (1/GPa) = 0.02130184
#
# Stress axis : x y z
#
# Youngs Moduli (GPa) = 74.54957 43.61746 96.13576
#
# Poissons Ratio (x) = 0.07119 0.46165
# Poissons Ratio (y) = 0.12168 0.60432
# Poissons Ratio (z) = 0.35799 0.27418
#
# Static dielectric constant tensor:
#      x y z
#    x 1.631350 0.000000 0.000000 
#    y 0.000000 1.647630 0.000000 
#    z 0.000000 0.000000 1.953550 
# 
# From -- ./inp_files/5282.got.cif
#   From: 2010.05.17/outbox.cif.g08.bks.cpg/sg66_3_cif.got.tgz:5282.got - 2010.06.03 17:51:23.
