data_PCOD9497702
_publ_section_title
;
Structure prediction by ZEFSAII (Michael W. Deem and Ramdas Pophale) SiO2 
 PCOD9497702
Probable space group: C C C M
;
_chemical_formula_sum "Si O2"
_cell_formula_units_Z 116
_cell_length_a 9.085386
_cell_length_b 21.808656
_cell_length_c 25.257470
_cell_angle_alpha 90.000000
_cell_angle_beta 90.000000
_cell_angle_gamma 90.000000
_cell_volume 5004.516568
_symmetry_space_group_name_H-M "C C C M"
_symmetry_group_IT_number 66
_symmetry_cell_setting 'orthorhombic'
loop_
_space_group_symop_operation_xyz
x,y,z
-x,-y,z
x,-y,1/2-z
-x,y,1/2-z
-x,-y,-z
x,y,-z
-x,y,1/2+z
x,-y,1/2+z
1/2+x,1/2+y,z
1/2-x,1/2-y,z
1/2+x,1/2-y,1/2-z
1/2-x,1/2+y,1/2-z
1/2-x,1/2-y,-z
1/2+x,1/2+y,-z
1/2-x,1/2+y,1/2+z
1/2+x,1/2-y,1/2+z
loop_
_atom_site_type_symbol
_atom_site_label
_atom_site_fract_x
_atom_site_fract_y
_atom_site_fract_z
Si Si1 0.609049 0.450006 0.894331
Si Si2 0.902654 0.716633 0.405768
Si Si3 0.885350 0.386928 0.439112
Si Si4 0.500000 0.500000 0.000000
Si Si5 0.594895 0.333673 0.614358
Si Si6 0.851007 0.308332 0.216495
Si Si7 0.653483 0.394626 0.722779
Si Si8 0.849065 0.515639 0.844829
O O1 0.500000 0.500000 0.866941
O O2 0.529962 0.385261 0.895155
O O3 0.763886 0.456777 0.866872
O O4 0.611621 0.475864 0.953480
O O5 0.750000 0.750000 0.424159
O O6 0.878227 0.694393 0.345773
O O7 0.975060 0.659033 0.435662
O O8 0.026767 0.769277 0.401443
O O9 0.866740 0.407333 0.500000
O O10 0.737854 0.350416 0.420195
O O11 0.888541 0.441312 0.395737
O O12 0.629478 0.342840 0.676701
O O13 0.750000 0.250000 0.229530
O O14 0.758159 0.366838 0.233051
O O15 0.000000 0.306398 0.250000
O O16 0.500000 0.411219 0.750000
O O17 0.740836 0.447604 0.693110
O O18 0.000000 0.500000 0.817224
#
# Coordination Sequence:
#
# PCOD9497702 Si02
#       8
#    16  16  16   4  16  16  16  16
#     4  10  20  41  70 101 142 179 234 299 346 434
#     4  11  25  42  64 100 144 185 225 295 361 426
#     4  11  25  46  72 102 137 187 238 294 355 430
#     4   8  16  36  66 108 126 180 248 282 338 424
#     4  11  23  42  72 102 140 179 235 292 350 424
#     4  11  21  38  67 102 137 182 237 289 348 422
#     4  11  22  43  73 100 132 185 236 287 344 421
#     4  11  26  46  73 107 149 183 234 301 368 433
#
# _framework density 23.179062999999999
#
# number of rings (size 3 to 8) (size 9 to 14) (size 15 to 20)
#    0.414    0.828    2.759    4.966    5.793    1.655 
#    2.483    1.379    6.069    0.000    0.000    0.000 
#    0.000    0.000    0.000    0.000    0.000    0.000 
#
# Total GULP energy -323995.459630 kJ/mol
# GULP energy per Si atom -5586.128614 kJ/mol
# Density = 2.312631 g / cm^3
# Si number density = 23.179063 Si / 1000 Ang^3
#
#
#
# Elastic Constant Matrix: (Units=GPa)
#
#
# Indices 1 2 3 4 5 6 
#
# 1 125.5551 35.0017 49.1855 0.0000 0.0000 0.0000
# 2 35.0017 69.5026 29.5534 0.0000 0.0000 0.0000
# 3 49.1855 29.5534 92.0819 0.0000 0.0000 0.0000
# 4 0.0000 0.0000 0.0000 0.9124 0.0000 0.0000
# 5 0.0000 0.0000 0.0000 0.0000 21.0757 0.0000
# 6 0.0000 0.0000 0.0000 0.0000 0.0000 -11.7918
#
#
#
# Elastic Compliance Matrix: (Units=1/GPa)
#
#
# Indices 1 2 3 4 5 6 
#
# 1 0.010738 -0.003438 -0.004632 0.000000 0.000000 0.000000
# 2 -0.003438 0.017763 -0.003864 0.000000 0.000000 0.000000
# 3 -0.004632 -0.003864 0.014574 0.000000 0.000000 0.000000
# 4 0.000000 0.000000 0.000000 1.095997 0.000000 0.000000
# 5 0.000000 0.000000 0.000000 0.000000 0.047448 0.000000
# 6 0.000000 0.000000 0.000000 0.000000 0.000000 -0.084805
#
#
# Mechanical properties :
#
#
# Convention : Reuss Voigt Hill
#
# Bulk Modulus (GPa) = 52.06807 57.18006 54.62407
# Shear Modulus (GPa) = 4.41702 13.59921 9.00811
#
# Velocity S-wave (km/s) = 1.38193 2.42482 1.97351
# Velocity P-wave (km/s) = 5.00585 5.70632 5.36752
#
# Compressibility (1/GPa) = 0.01920563
#
# Stress axis : x y z
#
# Youngs Moduli (GPa) = 93.13047 56.29836 68.61326
#
# Poissons Ratio (x) = 0.19355 0.31783
# Poissons Ratio (y) = 0.32017 0.26516
# Poissons Ratio (z) = 0.43139 0.21756
#
# Static dielectric constant tensor:
#      x y z
#    x 1.866400 0.000000 0.000000 
#    y 0.000000 1.823580 0.000000 
#    z 0.000000 0.000000 1.843420 
# 
# From -- ./inp_files/55919.got.cif
#   From: 2010.05.17/outbox.cif.g08.bks.cpg/sg66_28_cif.got.tgz:55919.got - 2010.06.03 17:51:23.
