data_PCOD9497614
_publ_section_title
;
Structure prediction by ZEFSAII (Michael W. Deem and Ramdas Pophale) SiO2 
 PCOD9497614
Probable space group: C C C M
;
_chemical_formula_sum "Si O2"
_cell_formula_units_Z 116
_cell_length_a 9.399465
_cell_length_b 24.635106
_cell_length_c 24.171023
_cell_angle_alpha 90.000000
_cell_angle_beta 90.000000
_cell_angle_gamma 90.000000
_cell_volume 5596.965140
_symmetry_space_group_name_H-M "C C C M"
_symmetry_group_IT_number 66
_symmetry_cell_setting 'orthorhombic'
loop_
_space_group_symop_operation_xyz
x,y,z
-x,-y,z
x,-y,1/2-z
-x,y,1/2-z
-x,-y,-z
x,y,-z
-x,y,1/2+z
x,-y,1/2+z
1/2+x,1/2+y,z
1/2-x,1/2-y,z
1/2+x,1/2-y,1/2-z
1/2-x,1/2+y,1/2-z
1/2-x,1/2-y,-z
1/2+x,1/2+y,-z
1/2-x,1/2+y,1/2+z
1/2+x,1/2-y,1/2+z
loop_
_atom_site_type_symbol
_atom_site_label
_atom_site_fract_x
_atom_site_fract_y
_atom_site_fract_z
Si Si1 0.364051 0.539322 0.564863
Si Si2 0.838577 0.860521 0.239418
Si Si3 0.902736 0.763380 0.835545
Si Si4 0.518543 0.661244 0.938586
Si Si5 0.500000 0.000000 0.250000
Si Si6 0.661928 0.932666 0.839298
Si Si7 0.791829 0.313279 0.943119
Si Si8 0.080532 0.656651 0.171927
O O1 0.500000 0.500000 0.579027
O O2 0.328586 0.527923 0.500000
O O3 0.409053 0.602900 0.568250
O O4 0.230245 0.537538 0.607458
O O5 0.865039 0.800224 0.216944
O O6 0.781374 0.895131 0.188340
O O7 0.711596 0.857844 0.286053
O O8 0.000000 0.881154 0.250000
O O9 0.750000 0.750000 0.861181
O O10 0.970870 0.799398 0.885031
O O11 0.986836 0.710364 0.814618
O O12 0.350921 0.651961 0.943727
O O13 0.562846 0.683991 0.000000
O O14 0.609031 0.972246 0.208120
O O15 0.524993 0.892931 0.841749
O O16 0.750000 0.250000 0.943192
O O17 0.862741 0.326383 0.886904
O O18 0.875283 0.323427 0.000000
#
# Coordination Sequence:
#
# PCOD9497614 Si02
#       8
#    16  16  16  16   4  16  16  16
#     4  10  23  45  76 108 140 178 235 306 361 424
#     4  12  27  41  66  98 138 181 236 284 342 421
#     4  12  24  37  62  96 134 184 224 276 342 411
#     4  10  20  39  63  96 137 176 224 277 338 411
#     4  12  28  52  72  96 140 192 226 306 362 424
#     4  12  26  49  72 100 140 180 234 289 363 422
#     4  10  21  37  61  94 136 186 228 271 339 416
#     4  12  25  42  66  99 143 181 229 293 343 418
#
# _framework density 20.725517
#
# number of rings (size 3 to 8) (size 9 to 14) (size 15 to 20)
#    0.000    0.828    5.517    0.828    1.931    3.034 
#    0.000    0.345    0.000    0.000    0.000    0.000 
#    0.000    0.000    0.000    0.000    0.000    0.000 
#
# Total GULP energy -322900.201657 kJ/mol
# GULP energy per Si atom -5567.244856 kJ/mol
# Density = 2.067835 g / cm^3
# Si number density = 20.725517 Si / 1000 Ang^3
#
#
#
# Elastic Constant Matrix: (Units=GPa)
#
#
# Indices 1 2 3 4 5 6 
#
# 1 100.4976 22.1051 59.2302 0.0000 0.0000 0.0000
# 2 22.1051 42.9500 38.1595 0.0000 0.0000 0.0000
# 3 59.2302 38.1595 145.1709 0.0000 0.0000 0.0000
# 4 0.0000 0.0000 0.0000 94.6194 0.0000 0.0000
# 5 0.0000 0.0000 0.0000 0.0000 35.7325 0.0000
# 6 0.0000 0.0000 0.0000 0.0000 0.0000 -11.6443
#
#
#
# Elastic Compliance Matrix: (Units=1/GPa)
#
#
# Indices 1 2 3 4 5 6 
#
# 1 0.013327 -0.002646 -0.004742 0.000000 0.000000 0.000000
# 2 -0.002646 0.030903 -0.007043 0.000000 0.000000 0.000000
# 3 -0.004742 -0.007043 0.010675 0.000000 0.000000 0.000000
# 4 0.000000 0.000000 0.000000 0.010569 0.000000 0.000000
# 5 0.000000 0.000000 0.000000 0.000000 0.027986 0.000000
# 6 0.000000 0.000000 0.000000 0.000000 0.000000 -0.085879
#
#
# Mechanical properties :
#
#
# Convention : Reuss Voigt Hill
#
# Bulk Modulus (GPa) = 38.40031 58.62313 48.51172
# Shear Modulus (GPa) = 110.80790 35.01644 72.91217
#
# Velocity S-wave (km/s) = 7.31987 4.11485 5.93770
# Velocity P-wave (km/s) = 9.48731 7.13603 8.39440
#
# Compressibility (1/GPa) = 0.02604146
#
# Stress axis : x y z
#
# Youngs Moduli (GPa) = 75.03387 32.35983 93.67995
#
# Poissons Ratio (x) = 0.08562 0.44424
# Poissons Ratio (y) = 0.19854 0.65983
# Poissons Ratio (z) = 0.35582 0.22792
#
# Static dielectric constant tensor:
#      x y z
#    x 3.673930 0.000000 0.000000 
#    y 0.000000 1.850860 0.000000 
#    z 0.000000 0.000000 1.915860 
# 
# From -- ./inp_files/62914.got.cif
#   From: 2010.05.17/outbox.cif.g08.bks.cpg/sg66_32_cif.got.tgz:62914.got - 2010.06.03 17:51:23.
