data_PCOD9497092
_publ_section_title
;
Structure prediction by ZEFSAII (Michael W. Deem and Ramdas Pophale) SiO2 
 PCOD9497092
Probable space group: C C C M
;
_chemical_formula_sum "Si O2"
_cell_formula_units_Z 64
_cell_length_a 15.441324
_cell_length_b 9.232473
_cell_length_c 19.359153
_cell_angle_alpha 90.000000
_cell_angle_beta 90.000000
_cell_angle_gamma 90.000000
_cell_volume 2759.871960
_symmetry_space_group_name_H-M "C C C M"
_symmetry_group_IT_number 66
_symmetry_cell_setting 'orthorhombic'
loop_
_space_group_symop_operation_xyz
x,y,z
-x,-y,z
x,-y,1/2-z
-x,y,1/2-z
-x,-y,-z
x,y,-z
-x,y,1/2+z
x,-y,1/2+z
1/2+x,1/2+y,z
1/2-x,1/2-y,z
1/2+x,1/2-y,1/2-z
1/2-x,1/2+y,1/2-z
1/2-x,1/2-y,-z
1/2+x,1/2+y,-z
1/2-x,1/2+y,1/2+z
1/2+x,1/2-y,1/2+z
loop_
_atom_site_type_symbol
_atom_site_label
_atom_site_fract_x
_atom_site_fract_y
_atom_site_fract_z
Si Si1 0.654276 0.673166 0.766224
Si Si2 0.767499 0.407397 0.078668
Si Si3 0.091955 0.576183 0.816173
Si Si4 0.344565 0.673658 0.422623
O O1 0.658911 0.500000 0.750000
O O2 0.750000 0.750000 0.764709
O O3 0.596035 0.756979 0.708854
O O4 0.619025 0.699655 0.845311
O O5 0.750000 0.250000 0.108097
O O6 0.848115 0.464617 0.120472
O O7 0.682869 0.504981 0.080299
O O8 0.794714 0.392395 0.000000
O O9 0.133168 0.500000 0.750000
O O10 0.000000 0.500000 0.825454
O O11 0.384639 0.702778 0.500000
O O12 0.250000 0.750000 0.425111
#
# Coordination Sequence:
#
# PCOD9497092 Si02
#       4
#    16  16  16  16
#     4  11  20  34  61  90 118 155 206 268 324 367
#     4  10  20  35  58  89 120 152 199 260 320 373
#     4  11  23  38  55  81 123 169 211 251 302 379
#     4   9  17  29  50  82 114 143 185 248 313 361
#
# _framework density 23.189481000000001
#
# number of rings (size 3 to 8) (size 9 to 14) (size 15 to 20)
#    0.000    1.750    0.000    7.500    0.000    0.500 
#    0.000    2.500    0.000    2.250    0.000    0.000 
#    0.000   70.000    0.000    0.000    0.000    0.000 
#
# Total GULP energy -178379.459718 kJ/mol
# GULP energy per Si atom -5574.358116 kJ/mol
# Density = 2.313670 g / cm^3
# Si number density = 23.189481 Si / 1000 Ang^3
#
#
#
# Elastic Constant Matrix: (Units=GPa)
#
#
# Indices 1 2 3 4 5 6 
#
# 1 63.9999 13.1607 38.8104 0.0000 0.0000 0.0000
# 2 13.1607 116.4095 -11.2960 0.0000 0.0000 0.0000
# 3 38.8104 -11.2960 169.8754 0.0000 0.0000 0.0000
# 4 0.0000 0.0000 0.0000 28.6628 0.0000 0.0000
# 5 0.0000 0.0000 0.0000 0.0000 21.8453 0.0000
# 6 0.0000 0.0000 0.0000 0.0000 0.0000 17.3537
#
#
#
# Elastic Compliance Matrix: (Units=1/GPa)
#
#
# Indices 1 2 3 4 5 6 
#
# 1 0.018871 -0.002568 -0.004482 0.000000 0.000000 0.000000
# 2 -0.002568 0.008996 0.001185 0.000000 0.000000 0.000000
# 3 -0.004482 0.001185 0.006989 0.000000 0.000000 0.000000
# 4 0.000000 0.000000 0.000000 0.034888 0.000000 0.000000
# 5 0.000000 0.000000 0.000000 0.000000 0.045777 0.000000
# 6 0.000000 0.000000 0.000000 0.000000 0.000000 0.057625
#
#
# Mechanical properties :
#
#
# Convention : Reuss Voigt Hill
#
# Bulk Modulus (GPa) = 43.24294 47.95944 45.60119
# Shear Modulus (GPa) = 25.96246 34.21300 30.08773
#
# Velocity S-wave (km/s) = 3.34964 3.84522 3.60595
# Velocity P-wave (km/s) = 5.80071 6.35930 6.08642
#
# Compressibility (1/GPa) = 0.02312516
#
# Stress axis : x y z
#
# Youngs Moduli (GPa) = 52.99062 111.16398 143.07207
#
# Poissons Ratio (x) = 0.28552 0.64128
# Poissons Ratio (y) = 0.13610 -0.16954
# Poissons Ratio (z) = 0.23751 -0.13173
#
# Static dielectric constant tensor:
#      x y z
#    x 1.862570 0.000000 0.000000 
#    y 0.000000 2.095880 0.000000 
#    z 0.000000 0.000000 1.923530 
# 
# From -- ./inp_files/50504.got.cif
#   From: 2010.05.17/outbox.cif.g08.bks.cpg/sg66_26_cif.got.tgz:50504.got - 2010.06.03 17:51:23.
