data_PCOD9497402
_publ_section_title
;
Structure prediction by ZEFSAII (Michael W. Deem and Ramdas Pophale) SiO2 
 PCOD9497402
Probable space group: C C C M
;
_chemical_formula_sum "Si O2"
_cell_formula_units_Z 80
_cell_length_a 30.962876
_cell_length_b 13.919353
_cell_length_c 8.314427
_cell_angle_alpha 90.000000
_cell_angle_beta 90.000000
_cell_angle_gamma 90.000000
_cell_volume 3583.378362
_symmetry_space_group_name_H-M "C C C M"
_symmetry_group_IT_number 66
_symmetry_cell_setting 'orthorhombic'
loop_
_space_group_symop_operation_xyz
x,y,z
-x,-y,z
x,-y,1/2-z
-x,y,1/2-z
-x,-y,-z
x,y,-z
-x,y,1/2+z
x,-y,1/2+z
1/2+x,1/2+y,z
1/2-x,1/2-y,z
1/2+x,1/2-y,1/2-z
1/2-x,1/2+y,1/2-z
1/2-x,1/2-y,-z
1/2+x,1/2+y,-z
1/2-x,1/2+y,1/2+z
1/2+x,1/2-y,1/2+z
loop_
_atom_site_type_symbol
_atom_site_label
_atom_site_fract_x
_atom_site_fract_y
_atom_site_fract_z
Si Si1 0.454178 0.792609 0.690509
Si Si2 0.681787 0.611300 0.305385
Si Si3 0.133291 0.609990 0.307308
Si Si4 0.413498 0.391009 0.307114
Si Si5 0.724635 0.888347 0.692955
O O1 0.500000 0.830926 0.750000
O O2 0.453500 0.801498 0.500000
O O3 0.410964 0.843567 0.756193
O O4 0.448378 0.681778 0.738903
O O5 0.682494 0.500000 0.250000
O O6 0.681465 0.616186 0.500000
O O7 0.634400 0.644167 0.249610
O O8 0.728517 0.651307 0.252359
O O9 0.132974 0.500000 0.250000
O O10 0.133483 0.613165 0.500000
O O11 0.178992 0.653895 0.249751
O O12 0.419408 0.500000 0.250000
O O13 0.414396 0.388715 0.500000
O O14 0.724112 0.885403 0.500000
O O15 0.724295 0.000000 0.750000
#
# Coordination Sequence:
#
# PCOD9497402 Si02
#       5
#    16  16  16  16  16
#     4  11  25  43  61  83 110 142 185 236 287 338
#     4   8  15  27  47  78 112 147 184 221 264 317
#     4  10  21  37  58  84 114 147 185 229 278 333
#     4  10  20  37  61  87 117 151 187 229 277 329
#     4   9  15  26  48  78 112 148 185 222 264 319
#
# _framework density 22.325301
#
# number of rings (size 3 to 8) (size 9 to 14) (size 15 to 20)
#    0.000    2.400    0.000    3.600    0.000    5.600 
#    0.000    5.000    0.000    6.000    0.000    0.000 
#    0.000    0.000    0.000    0.000    0.000    0.000 
#
# Total GULP energy -223289.865088 kJ/mol
# GULP energy per Si atom -5582.246627 kJ/mol
# Density = 2.227449 g / cm^3
# Si number density = 22.325301 Si / 1000 Ang^3
#
#
#
# Elastic Constant Matrix: (Units=GPa)
#
#
# Indices 1 2 3 4 5 6 
#
# 1 177.0457 30.2383 24.1782 0.0000 0.0000 0.0000
# 2 30.2383 44.6537 -9.0037 0.0000 0.0000 0.0000
# 3 24.1782 -9.0037 36.7956 0.0000 0.0000 0.0000
# 4 0.0000 0.0000 0.0000 0.1907 0.0000 0.0000
# 5 0.0000 0.0000 0.0000 0.0000 31.1177 0.0000
# 6 0.0000 0.0000 0.0000 0.0000 0.0000 34.4740
#
#
#
# Elastic Compliance Matrix: (Units=1/GPa)
#
#
# Indices 1 2 3 4 5 6 
#
# 1 0.007671 -0.006533 -0.006639 0.000000 0.000000 0.000000
# 2 -0.006533 0.029121 0.011419 0.000000 0.000000 0.000000
# 3 -0.006639 0.011419 0.034334 0.000000 0.000000 0.000000
# 4 0.000000 0.000000 0.000000 5.242942 0.000000 0.000000
# 5 0.000000 0.000000 0.000000 0.000000 0.032136 0.000000
# 6 0.000000 0.000000 0.000000 0.000000 0.000000 0.029007
#
#
# Mechanical properties :
#
#
# Convention : Reuss Voigt Hill
#
# Bulk Modulus (GPa) = 14.78891 38.81341 26.80116
# Shear Modulus (GPa) = 0.92571 27.36196 14.14383
#
# Velocity S-wave (km/s) = 0.64463 3.50466 2.51974
# Velocity P-wave (km/s) = 2.68193 5.81378 4.52729
#
# Compressibility (1/GPa) = 0.06761825
#
# Stress axis : x y z
#
# Youngs Moduli (GPa) = 130.36605 34.33962 29.12597
#
# Poissons Ratio (x) = 0.22434 0.19337
# Poissons Ratio (y) = 0.85168 -0.33258
# Poissons Ratio (z) = 0.86550 -0.39211
#
# Static dielectric constant tensor:
#      x y z
#    x 1.881290 0.000000 0.000000 
#    y 0.000000 1.826630 0.000000 
#    z 0.000000 0.000000 1.778900 
# 
# From -- ./inp_files/11365.got.cif
#   From: 2010.05.17/outbox.cif.g08.bks.cpg/sg66_6_cif.got.tgz:11365.got - 2010.06.03 17:51:23.
