data_PCOD9497612
_publ_section_title
;
Structure prediction by ZEFSAII (Michael W. Deem and Ramdas Pophale) SiO2 
 PCOD9497612
Probable space group: C C C M
;
_chemical_formula_sum "Si O2"
_cell_formula_units_Z 112
_cell_length_a 15.432356
_cell_length_b 20.866750
_cell_length_c 14.697134
_cell_angle_alpha 90.000000
_cell_angle_beta 90.000000
_cell_angle_gamma 90.000000
_cell_volume 4732.816866
_symmetry_space_group_name_H-M "C C C M"
_symmetry_group_IT_number 66
_symmetry_cell_setting 'orthorhombic'
loop_
_space_group_symop_operation_xyz
x,y,z
-x,-y,z
x,-y,1/2-z
-x,y,1/2-z
-x,-y,-z
x,y,-z
-x,y,1/2+z
x,-y,1/2+z
1/2+x,1/2+y,z
1/2-x,1/2-y,z
1/2+x,1/2-y,1/2-z
1/2-x,1/2+y,1/2-z
1/2-x,1/2-y,-z
1/2+x,1/2+y,-z
1/2-x,1/2+y,1/2+z
1/2+x,1/2-y,1/2+z
loop_
_atom_site_type_symbol
_atom_site_label
_atom_site_fract_x
_atom_site_fract_y
_atom_site_fract_z
Si Si1 0.476424 0.309753 0.103732
Si Si2 0.783273 0.351879 0.895324
Si Si3 0.310180 0.330540 0.222342
Si Si4 0.661593 0.882201 0.889728
Si Si5 0.025623 0.336782 0.393818
Si Si6 0.419145 0.426679 0.311568
Si Si7 0.278170 0.500237 0.898144
O O1 0.395450 0.304113 0.173219
O O2 0.518613 0.239997 0.108855
O O3 0.544419 0.366536 0.128203
O O4 0.445499 0.320391 0.000000
O O5 0.722268 0.314520 0.823991
O O6 0.757460 0.426895 0.899468
O O7 0.880268 0.352103 0.855632
O O8 0.779311 0.327854 0.000000
O O9 0.228400 0.331996 0.155714
O O10 0.344332 0.402031 0.243657
O O11 0.563062 0.868588 0.858573
O O12 0.703640 0.951358 0.863776
O O13 0.661216 0.874869 0.000000
O O14 0.030850 0.356835 0.500000
O O15 0.500000 0.439162 0.250000
O O16 0.375099 0.485378 0.362224
O O17 0.292150 0.475834 0.000000
#
# Coordination Sequence:
#
# PCOD9497612 Si02
#       7
#    16  16  16  16  16  16  16
#     4  10  20  39  63  88 124 163 206 257 315 381
#     4   9  19  38  61  91 124 160 207 255 312 370
#     4  10  21  38  58  92 117 163 205 257 316 372
#     4  10  21  38  59  89 125 162 207 255 312 378
#     4   9  20  39  61  87 124 166 205 256 316 371
#     4   9  19  36  56  87 123 163 208 256 314 370
#     4   9  18  35  62  89 121 163 208 259 312 375
#
# _framework density 23.664555
#
# number of rings (size 3 to 8) (size 9 to 14) (size 15 to 20)
#    0.000    2.571    0.000    0.857    0.000    4.571 
#   10.286   12.143    0.000   22.286    0.000    1.000 
#    0.000    0.000    0.000    1.429    0.000    0.000 
#
# Total GULP energy -312082.935107 kJ/mol
# GULP energy per Si atom -5572.909555 kJ/mol
# Density = 2.361069 g / cm^3
# Si number density = 23.664555 Si / 1000 Ang^3
#
#
#
# Elastic Constant Matrix: (Units=GPa)
#
#
# Indices 1 2 3 4 5 6 
#
# 1 152.0214 18.9126 61.8847 0.0000 0.0000 0.0000
# 2 18.9126 66.5350 18.8096 0.0000 0.0000 0.0000
# 3 61.8847 18.8096 91.7178 0.0000 0.0000 0.0000
# 4 0.0000 0.0000 0.0000 -1.3308 0.0000 0.0000
# 5 0.0000 0.0000 0.0000 0.0000 29.0979 0.0000
# 6 0.0000 0.0000 0.0000 0.0000 0.0000 10.9062
#
#
#
# Elastic Compliance Matrix: (Units=1/GPa)
#
#
# Indices 1 2 3 4 5 6 
#
# 1 0.009120 -0.000905 -0.005968 0.000000 0.000000 0.000000
# 2 -0.000905 0.016045 -0.002680 0.000000 0.000000 0.000000
# 3 -0.005968 -0.002680 0.015479 0.000000 0.000000 0.000000
# 4 0.000000 0.000000 0.000000 -0.751433 0.000000 0.000000
# 5 0.000000 0.000000 0.000000 0.000000 0.034367 0.000000
# 6 0.000000 0.000000 0.000000 0.000000 0.000000 0.091691
#
#
# Mechanical properties :
#
#
# Convention : Reuss Voigt Hill
#
# Bulk Modulus (GPa) = 46.42896 56.60977 51.51937
# Shear Modulus (GPa) = -8.95340 21.77915 6.41287
#
# Velocity S-wave (km/s) = -1.94722 3.03698 1.64797
# Velocity P-wave (km/s) = 3.82186 6.02257 5.04371
#
# Compressibility (1/GPa) = 0.02153828
#
# Stress axis : x y z
#
# Youngs Moduli (GPa) = 109.64839 62.32645 64.60240
#
# Poissons Ratio (x) = 0.05642 0.38554
# Poissons Ratio (y) = 0.09926 0.17311
# Poissons Ratio (z) = 0.65437 0.16701
#
# Static dielectric constant tensor:
#      x y z
#    x 1.949770 0.000000 0.000000 
#    y 0.000000 1.934690 0.000000 
#    z 0.000000 0.000000 2.001290 
# 
# From -- ./inp_files/28735.got.cif
#   From: 2010.05.17/outbox.cif.g08.bks.cpg/sg66_15_cif.got.tgz:28735.got - 2010.06.03 17:51:23.
