data_PCOD9497517
_publ_section_title
;
Structure prediction by ZEFSAII (Michael W. Deem and Ramdas Pophale) SiO2 
 PCOD9497517
Probable space group: C C C M
;
_chemical_formula_sum "Si O2"
_cell_formula_units_Z 112
_cell_length_a 11.184239
_cell_length_b 30.020931
_cell_length_c 16.560170
_cell_angle_alpha 90.000000
_cell_angle_beta 90.000000
_cell_angle_gamma 90.000000
_cell_volume 5560.263666
_symmetry_space_group_name_H-M "C C C M"
_symmetry_group_IT_number 66
_symmetry_cell_setting 'orthorhombic'
loop_
_space_group_symop_operation_xyz
x,y,z
-x,-y,z
x,-y,1/2-z
-x,y,1/2-z
-x,-y,-z
x,y,-z
-x,y,1/2+z
x,-y,1/2+z
1/2+x,1/2+y,z
1/2-x,1/2-y,z
1/2+x,1/2-y,1/2-z
1/2-x,1/2+y,1/2-z
1/2-x,1/2-y,-z
1/2+x,1/2+y,-z
1/2-x,1/2+y,1/2+z
1/2+x,1/2-y,1/2+z
loop_
_atom_site_type_symbol
_atom_site_label
_atom_site_fract_x
_atom_site_fract_y
_atom_site_fract_z
Si Si1 0.014756 0.552737 0.916364
Si Si2 0.394168 0.465348 0.905047
Si Si3 0.939697 0.778842 0.661507
Si Si4 0.777105 0.398962 0.142105
Si Si5 0.171727 0.545206 0.706078
Si Si6 0.991499 0.875486 0.651320
Si Si7 0.677726 0.196012 0.096960
O O1 0.937099 0.567591 0.841193
O O2 0.000000 0.500000 0.917534
O O3 0.152661 0.564589 0.908721
O O4 0.966060 0.571533 0.000000
O O5 0.500000 0.500000 0.879906
O O6 0.275071 0.471575 0.853652
O O7 0.428695 0.414044 0.886587
O O8 0.374578 0.471862 0.000000
O O9 0.007650 0.823240 0.628951
O O10 0.798783 0.793412 0.649791
O O11 0.926920 0.731412 0.616658
O O12 0.000000 0.772003 0.750000
O O13 0.778938 0.418633 0.231737
O O14 0.641006 0.389087 0.121984
O O15 0.850208 0.353932 0.124330
O O16 0.131794 0.500000 0.750000
O O17 0.000000 0.877376 0.750000
O O18 0.704345 0.197688 0.000000
#
# Coordination Sequence:
#
# PCOD9497517 Si02
#       7
#    16  16  16  16  16  16  16
#     4  11  24  39  56  82 117 155 202 252 301 356
#     4  11  25  39  58  88 122 164 209 254 308 365
#     4   9  19  35  62  91 124 153 194 245 302 361
#     4  11  22  37  64  86 119 156 209 246 303 363
#     4  12  23  40  59  83 119 162 205 253 305 364
#     4  10  20  38  60  91 121 158 199 247 299 366
#     4  10  21  39  62  94 125 156 201 257 308 359
#
# _framework density 20.14293
#
# number of rings (size 3 to 8) (size 9 to 14) (size 15 to 20)
#    0.000    1.429    2.857    3.000    0.000    4.571 
#    0.000    0.000    0.000    0.000    0.000    8.000 
#    0.000    0.000    0.000    0.000    0.000    0.000 
#
# Total GULP energy -311944.746725 kJ/mol
# GULP energy per Si atom -5570.441906 kJ/mol
# Density = 2.009708 g / cm^3
# Si number density = 20.142930 Si / 1000 Ang^3
#
#
#
# Elastic Constant Matrix: (Units=GPa)
#
#
# Indices 1 2 3 4 5 6 
#
# 1 66.3256 29.2194 39.6982 0.0000 0.0000 0.0000
# 2 29.2194 113.6277 27.8087 0.0000 0.0000 0.0000
# 3 39.6982 27.8087 100.5662 0.0000 0.0000 0.0000
# 4 0.0000 0.0000 0.0000 -12.8298 0.0000 0.0000
# 5 0.0000 0.0000 0.0000 0.0000 -65.0731 0.0000
# 6 0.0000 0.0000 0.0000 0.0000 0.0000 29.3673
#
#
#
# Elastic Compliance Matrix: (Units=1/GPa)
#
#
# Indices 1 2 3 4 5 6 
#
# 1 0.021047 -0.003624 -0.007306 0.000000 0.000000 0.000000
# 2 -0.003624 0.010064 -0.001352 0.000000 0.000000 0.000000
# 3 -0.007306 -0.001352 0.013202 0.000000 0.000000 0.000000
# 4 0.000000 0.000000 0.000000 -0.077944 0.000000 0.000000
# 5 0.000000 0.000000 0.000000 0.000000 -0.015367 0.000000
# 6 0.000000 0.000000 0.000000 0.000000 0.000000 0.034051
#
#
# Mechanical properties :
#
#
# Convention : Reuss Voigt Hill
#
# Bulk Modulus (GPa) = 50.63993 52.66359 51.65176
# Shear Modulus (GPa) = 308.65782 2.54577 155.60179
#
# Velocity S-wave (km/s) = 12.39219 1.12543 8.79867
# Velocity P-wave (km/s) = 15.16411 5.28115 11.35431
#
# Compressibility (1/GPa) = 0.01974726
#
# Stress axis : x y z
#
# Youngs Moduli (GPa) = 47.51367 99.36866 75.74837
#
# Poissons Ratio (x) = 0.36012 0.55341
# Poissons Ratio (y) = 0.17220 0.10242
# Poissons Ratio (z) = 0.34713 0.13436
#
# Static dielectric constant tensor:
#      x y z
#    x 1.747570 0.000000 0.000000 
#    y 0.000000 1.792580 0.000000 
#    z 0.000000 0.000000 1.773120 
# 
# From -- ./inp_files/27002.got.cif
#   From: 2010.05.17/outbox.cif.g08.bks.cpg/sg66_14_cif.got.tgz:27002.got - 2010.06.03 17:51:23.
