data_PCOD9497280
_publ_section_title
;
Structure prediction by ZEFSAII (Michael W. Deem and Ramdas Pophale) SiO2 
 PCOD9497280
Probable space group: C C C M
;
_chemical_formula_sum "Si O2"
_cell_formula_units_Z 112
_cell_length_a 15.474361
_cell_length_b 23.023936
_cell_length_c 14.731994
_cell_angle_alpha 90.000000
_cell_angle_beta 90.000000
_cell_angle_gamma 90.000000
_cell_volume 5248.725095
_symmetry_space_group_name_H-M "C C C M"
_symmetry_group_IT_number 66
_symmetry_cell_setting 'orthorhombic'
loop_
_space_group_symop_operation_xyz
x,y,z
-x,-y,z
x,-y,1/2-z
-x,y,1/2-z
-x,-y,-z
x,y,-z
-x,y,1/2+z
x,-y,1/2+z
1/2+x,1/2+y,z
1/2-x,1/2-y,z
1/2+x,1/2-y,1/2-z
1/2-x,1/2+y,1/2-z
1/2-x,1/2-y,-z
1/2+x,1/2+y,-z
1/2-x,1/2+y,1/2+z
1/2+x,1/2-y,1/2+z
loop_
_atom_site_type_symbol
_atom_site_label
_atom_site_fract_x
_atom_site_fract_y
_atom_site_fract_z
Si Si1 0.136281 0.363550 0.211700
Si Si2 0.126949 0.848588 0.899672
Si Si3 0.520895 0.564291 0.142897
Si Si4 0.806743 0.414057 0.101309
Si Si5 0.352277 0.264791 0.769306
Si Si6 0.683083 0.635651 0.106096
Si Si7 0.909944 0.480415 0.644883
O O1 0.141884 0.384652 0.315948
O O2 0.105198 0.297511 0.213112
O O3 0.232118 0.367708 0.168073
O O4 0.088578 0.411099 0.150702
O O5 0.207974 0.892830 0.884559
O O6 0.122622 0.801184 0.819885
O O7 0.041686 0.887571 0.898589
O O8 0.138866 0.822240 0.000000
O O9 0.500000 0.500000 0.109269
O O10 0.500000 0.565455 0.250000
O O11 0.618957 0.582425 0.124215
O O12 0.829129 0.483037 0.105950
O O13 0.831551 0.394541 0.000000
O O14 0.250000 0.250000 0.758586
O O15 0.363620 0.306665 0.855511
O O16 0.703732 0.640135 0.000000
O O17 0.909302 0.500000 0.750000
O O18 0.000000 0.500000 0.602714
#
# Coordination Sequence:
#
# PCOD9497280 Si02
#       7
#    16  16  16  16  16  16  16
#     4  10  21  40  66  90 124 167 212 257 318 376
#     4  11  22  38  62  94 130 168 209 256 317 381
#     4  11  23  41  65  92 131 172 211 260 319 381
#     4  10  20  36  61  90 125 162 204 256 314 378
#     4  10  20  40  62  89 121 165 210 261 307 366
#     4  11  23  40  62  92 127 166 214 264 312 374
#     4   9  20  39  61  88 121 160 206 261 316 369
#
# _framework density 21.338515999999998
#
# number of rings (size 3 to 8) (size 9 to 14) (size 15 to 20)
#    0.000    1.714    4.286    0.429    2.000    5.429 
#    0.000    5.714    0.000    1.714    0.000    0.000 
#    0.000    0.000    0.000    0.000    0.000    0.000 
#
# Total GULP energy -312445.231599 kJ/mol
# GULP energy per Si atom -5579.379136 kJ/mol
# Density = 2.128995 g / cm^3
# Si number density = 21.338516 Si / 1000 Ang^3
#
#
#
# Elastic Constant Matrix: (Units=GPa)
#
#
# Indices 1 2 3 4 5 6 
#
# 1 58.7599 41.9644 13.0772 0.0000 0.0000 0.0000
# 2 41.9644 146.6449 39.3989 0.0000 0.0000 0.0000
# 3 13.0772 39.3989 129.9909 0.0000 0.0000 0.0000
# 4 0.0000 0.0000 0.0000 -2.9227 0.0000 0.0000
# 5 0.0000 0.0000 0.0000 0.0000 -3.9482 0.0000
# 6 0.0000 0.0000 0.0000 0.0000 0.0000 27.1835
#
#
#
# Elastic Compliance Matrix: (Units=1/GPa)
#
#
# Indices 1 2 3 4 5 6 
#
# 1 0.021402 -0.006038 -0.000323 0.000000 0.000000 0.000000
# 2 -0.006038 0.009127 -0.002159 0.000000 0.000000 0.000000
# 3 -0.000323 -0.002159 0.008380 0.000000 0.000000 0.000000
# 4 0.000000 0.000000 0.000000 -0.342152 0.000000 0.000000
# 5 0.000000 0.000000 0.000000 0.000000 -0.253279 0.000000
# 6 0.000000 0.000000 0.000000 0.000000 0.000000 0.036787
#
#
# Mechanical properties :
#
#
# Convention : Reuss Voigt Hill
#
# Bulk Modulus (GPa) = 45.72584 58.25297 51.98941
# Shear Modulus (GPa) = -10.09273 20.12621 5.01674
#
# Velocity S-wave (km/s) = -2.17717 3.07447 1.53497
# Velocity P-wave (km/s) = 3.89297 6.32154 5.24962
#
# Compressibility (1/GPa) = 0.02186947
#
# Stress axis : x y z
#
# Youngs Moduli (GPa) = 46.72399 109.56508 119.33610
#
# Poissons Ratio (x) = 0.66152 0.03856
# Poissons Ratio (y) = 0.28211 0.25763
# Poissons Ratio (z) = 0.01510 0.23654
#
# Static dielectric constant tensor:
#      x y z
#    x 1.821470 0.000000 0.000000 
#    y 0.000000 1.818250 0.000000 
#    z 0.000000 0.000000 1.780350 
# 
# From -- ./inp_files/28698.got.cif
#   From: 2010.05.17/outbox.cif.g08.bks.cpg/sg66_15_cif.got.tgz:28698.got - 2010.06.03 17:51:23.
