data_PCOD9497351
_publ_section_title
;
Structure prediction by ZEFSAII (Michael W. Deem and Ramdas Pophale) SiO2 
 PCOD9497351
Probable space group: C C C M
;
_chemical_formula_sum "Si O2"
_cell_formula_units_Z 116
_cell_length_a 12.414729
_cell_length_b 27.508213
_cell_length_c 17.773393
_cell_angle_alpha 90.000000
_cell_angle_beta 90.000000
_cell_angle_gamma 90.000000
_cell_volume 6069.738295
_symmetry_space_group_name_H-M "C C C M"
_symmetry_group_IT_number 66
_symmetry_cell_setting 'orthorhombic'
loop_
_space_group_symop_operation_xyz
x,y,z
-x,-y,z
x,-y,1/2-z
-x,y,1/2-z
-x,-y,-z
x,y,-z
-x,y,1/2+z
x,-y,1/2+z
1/2+x,1/2+y,z
1/2-x,1/2-y,z
1/2+x,1/2-y,1/2-z
1/2-x,1/2+y,1/2-z
1/2-x,1/2-y,-z
1/2+x,1/2+y,-z
1/2-x,1/2+y,1/2+z
1/2+x,1/2-y,1/2+z
loop_
_atom_site_type_symbol
_atom_site_label
_atom_site_fract_x
_atom_site_fract_y
_atom_site_fract_z
Si Si1 0.241998 0.692391 0.267988
Si Si2 0.804115 0.549689 0.670792
Si Si3 0.642548 0.855974 0.088867
Si Si4 0.500000 0.000000 0.250000
Si Si5 0.999066 0.943103 0.589232
Si Si6 0.761824 0.047625 0.589252
Si Si7 0.432267 0.861103 0.824658
Si Si8 0.882900 0.895029 0.284282
O O1 0.250000 0.750000 0.268214
O O2 0.215282 0.674038 0.352552
O O3 0.142367 0.679423 0.213202
O O4 0.339971 0.658324 0.237327
O O5 0.916538 0.529553 0.700545
O O6 0.754807 0.504937 0.625635
O O7 0.847903 0.600711 0.638903
O O8 0.715781 0.567568 0.732352
O O9 0.669633 0.912859 0.104916
O O10 0.520407 0.846442 0.114404
O O11 0.661211 0.847277 0.000000
O O12 0.981395 0.942537 0.500000
O O13 0.122347 0.927851 0.606020
O O14 0.910906 0.909643 0.629487
O O15 0.000000 0.000000 0.613764
O O16 0.762737 0.038958 0.500000
O O17 0.500000 0.878729 0.750000
O O18 0.000000 0.905062 0.250000
#
# Coordination Sequence:
#
# PCOD9497351 Si02
#       8
#    16  16  16   4  16  16  16  16
#     4  10  23  43  66  90 121 160 206 272 342 394
#     4  11  22  34  54  80 120 169 206 247 302 369
#     4  10  21  39  62  90 123 160 206 259 315 387
#     4  12  24  32  48  76 120 160 200 248 280 360
#     4  10  20  37  57  86 130 175 209 249 305 369
#     4  10  21  36  56  86 126 166 207 249 300 372
#     4   9  19  38  56  84 118 158 202 256 316 374
#     4  11  24  38  61  96 125 162 218 272 320 392
#
# _framework density 19.111204000000001
#
# number of rings (size 3 to 8) (size 9 to 14) (size 15 to 20)
#    0.000    1.793    2.069    1.655    5.793    2.759 
#    0.000    3.793    0.000    4.966    0.000    0.000 
#    0.000    0.000    0.000    0.000    0.000    0.000 
#
# Total GULP energy -322946.345975 kJ/mol
# GULP energy per Si atom -5568.040448 kJ/mol
# Density = 1.906771 g / cm^3
# Si number density = 19.111204 Si / 1000 Ang^3
#
#
#
# Elastic Constant Matrix: (Units=GPa)
#
#
# Indices 1 2 3 4 5 6 
#
# 1 111.5417 42.7044 36.5516 0.0000 0.0000 0.0000
# 2 42.7044 123.5377 56.8997 0.0000 0.0000 0.0000
# 3 36.5516 56.8997 81.0593 0.0000 0.0000 0.0000
# 4 0.0000 0.0000 0.0000 13.5167 0.0000 0.0000
# 5 0.0000 0.0000 0.0000 0.0000 23.2885 0.0000
# 6 0.0000 0.0000 0.0000 0.0000 0.0000 18.8516
#
#
#
# Elastic Compliance Matrix: (Units=1/GPa)
#
#
# Indices 1 2 3 4 5 6 
#
# 1 0.010919 -0.002227 -0.003361 0.000000 0.000000 0.000000
# 2 -0.002227 0.012416 -0.007712 0.000000 0.000000 0.000000
# 3 -0.003361 -0.007712 0.019265 0.000000 0.000000 0.000000
# 4 0.000000 0.000000 0.000000 0.073983 0.000000 0.000000
# 5 0.000000 0.000000 0.000000 0.000000 0.042940 0.000000
# 6 0.000000 0.000000 0.000000 0.000000 0.000000 0.053046
#
#
# Mechanical properties :
#
#
# Convention : Reuss Voigt Hill
#
# Bulk Modulus (GPa) = 62.48923 65.38334 63.93629
# Shear Modulus (GPa) = 20.44986 23.13023 21.79004
#
# Velocity S-wave (km/s) = 3.27470 3.48271 3.38031
# Velocity P-wave (km/s) = 6.86053 7.10342 6.98304
#
# Compressibility (1/GPa) = 0.01600276
#
# Stress axis : x y z
#
# Youngs Moduli (GPa) = 91.58351 80.53988 51.90702
#
# Poissons Ratio (x) = 0.17933 0.17444
# Poissons Ratio (y) = 0.20392 0.40028
# Poissons Ratio (z) = 0.30778 0.62109
#
# Static dielectric constant tensor:
#      x y z
#    x 1.757120 0.000000 0.000000 
#    y 0.000000 1.911670 0.000000 
#    z 0.000000 0.000000 1.716910 
# 
# From -- ./inp_files/39210.got.cif
#   From: 2010.05.17/outbox.cif.g08.bks.cpg/sg66_20_cif.got.tgz:39210.got - 2010.06.03 17:51:23.
