data_PCOD9497286
_publ_section_title
;
Structure prediction by ZEFSAII (Michael W. Deem and Ramdas Pophale) SiO2 
 PCOD9497286
Probable space group: C C C M
;
_chemical_formula_sum "Si O2"
_cell_formula_units_Z 96
_cell_length_a 12.257732
_cell_length_b 20.318857
_cell_length_c 18.442050
_cell_angle_alpha 90.000000
_cell_angle_beta 90.000000
_cell_angle_gamma 90.000000
_cell_volume 4593.234211
_symmetry_space_group_name_H-M "C C C M"
_symmetry_group_IT_number 66
_symmetry_cell_setting 'orthorhombic'
loop_
_space_group_symop_operation_xyz
x,y,z
-x,-y,z
x,-y,1/2-z
-x,y,1/2-z
-x,-y,-z
x,y,-z
-x,y,1/2+z
x,-y,1/2+z
1/2+x,1/2+y,z
1/2-x,1/2-y,z
1/2+x,1/2-y,1/2-z
1/2-x,1/2+y,1/2-z
1/2-x,1/2-y,-z
1/2+x,1/2+y,-z
1/2-x,1/2+y,1/2+z
1/2+x,1/2-y,1/2+z
loop_
_atom_site_type_symbol
_atom_site_label
_atom_site_fract_x
_atom_site_fract_y
_atom_site_fract_z
Si Si1 0.533799 0.340566 0.085156
Si Si2 0.792269 0.114630 0.414124
Si Si3 0.313748 0.536935 0.913933
Si Si4 0.165573 0.657662 0.723311
Si Si5 0.611196 0.041219 0.815674
Si Si6 0.391168 0.298437 0.276063
O O1 0.402806 0.342925 0.095413
O O2 0.592794 0.410237 0.105799
O O3 0.590583 0.288447 0.138488
O O4 0.553184 0.329144 0.000000
O O5 0.761133 0.117997 0.500000
O O6 0.695039 0.134585 0.358675
O O7 0.831423 0.040135 0.397365
O O8 0.195260 0.550183 0.879981
O O9 0.306542 0.541383 0.000000
O O10 0.098355 0.610878 0.776685
O O11 0.284629 0.660605 0.760163
O O12 0.120376 0.731218 0.730816
O O13 0.500000 0.000000 0.832489
O O14 0.666377 0.000000 0.750000
O O15 0.500000 0.334168 0.250000
#
# Coordination Sequence:
#
# PCOD9497286 Si02
#       6
#    16  16  16  16  16  16
#     4  10  20  38  62  93 127 160 202 255 320 383
#     4  10  20  37  62  93 126 159 200 256 322 379
#     4  10  20  36  61  92 126 157 197 254 316 381
#     4  11  23  40  60  91 121 163 217 259 314 373
#     4  11  23  38  60  87 119 166 207 255 311 364
#     4  11  23  39  62  88 121 166 211 265 311 362
#
# _framework density 20.900306
#
# number of rings (size 3 to 8) (size 9 to 14) (size 15 to 20)
#    0.000    1.500    5.000    0.500    2.333    2.333 
#    0.000    5.000    0.000    0.500    0.000    0.000 
#    0.000    0.000    0.000    0.000    0.000    0.000 
#
# Total GULP energy -267412.122955 kJ/mol
# GULP energy per Si atom -5571.085895 kJ/mol
# Density = 2.085274 g / cm^3
# Si number density = 20.900306 Si / 1000 Ang^3
#
#
#
# Elastic Constant Matrix: (Units=GPa)
#
#
# Indices 1 2 3 4 5 6 
#
# 1 86.9420 5.5802 5.6347 0.0000 0.0000 0.0000
# 2 5.5802 57.9645 18.4309 0.0000 0.0000 0.0000
# 3 5.6347 18.4309 59.8324 0.0000 0.0000 0.0000
# 4 0.0000 0.0000 0.0000 31.0246 0.0000 0.0000
# 5 0.0000 0.0000 0.0000 0.0000 10.8823 0.0000
# 6 0.0000 0.0000 0.0000 0.0000 0.0000 10.4995
#
#
#
# Elastic Compliance Matrix: (Units=1/GPa)
#
#
# Indices 1 2 3 4 5 6 
#
# 1 0.011611 -0.000854 -0.000830 0.000000 0.000000 0.000000
# 2 -0.000854 0.019188 -0.005830 0.000000 0.000000 0.000000
# 3 -0.000830 -0.005830 0.018588 0.000000 0.000000 0.000000
# 4 0.000000 0.000000 0.000000 0.032232 0.000000 0.000000
# 5 0.000000 0.000000 0.000000 0.000000 0.091892 0.000000
# 6 0.000000 0.000000 0.000000 0.000000 0.000000 0.095242
#
#
# Mechanical properties :
#
#
# Convention : Reuss Voigt Hill
#
# Bulk Modulus (GPa) = 29.10602 29.33674 29.22138
# Shear Modulus (GPa) = 16.93570 22.15417 19.54494
#
# Velocity S-wave (km/s) = 2.84968 3.25929 3.06134
# Velocity P-wave (km/s) = 4.97835 5.31328 5.14854
#
# Compressibility (1/GPa) = 0.03435715
#
# Stress axis : x y z
#
# Youngs Moduli (GPa) = 86.12873 52.11596 53.79947
#
# Poissons Ratio (x) = 0.04449 0.04468
# Poissons Ratio (y) = 0.07353 0.31367
# Poissons Ratio (z) = 0.07153 0.30385
#
# Static dielectric constant tensor:
#      x y z
#    x 1.802480 0.000000 0.000000 
#    y 0.000000 1.938250 0.000000 
#    z 0.000000 0.000000 1.787550 
# 
# From -- ./inp_files/38829.got.cif
#   From: 2010.05.17/outbox.cif.g08.bks.cpg/sg66_20_cif.got.tgz:38829.got - 2010.06.03 17:51:23.
