data_PCOD9497537
_publ_section_title
;
Structure prediction by ZEFSAII (Michael W. Deem and Ramdas Pophale) SiO2 
 PCOD9497537
Probable space group: C C C M
;
_chemical_formula_sum "Si O2"
_cell_formula_units_Z 96
_cell_length_a 21.588268
_cell_length_b 14.811377
_cell_length_c 15.413196
_cell_angle_alpha 90.000000
_cell_angle_beta 90.000000
_cell_angle_gamma 90.000000
_cell_volume 4928.399879
_symmetry_space_group_name_H-M "C C C M"
_symmetry_group_IT_number 66
_symmetry_cell_setting 'orthorhombic'
loop_
_space_group_symop_operation_xyz
x,y,z
-x,-y,z
x,-y,1/2-z
-x,y,1/2-z
-x,-y,-z
x,y,-z
-x,y,1/2+z
x,-y,1/2+z
1/2+x,1/2+y,z
1/2-x,1/2-y,z
1/2+x,1/2-y,1/2-z
1/2-x,1/2+y,1/2-z
1/2-x,1/2-y,-z
1/2+x,1/2+y,-z
1/2-x,1/2+y,1/2+z
1/2+x,1/2-y,1/2+z
loop_
_atom_site_type_symbol
_atom_site_label
_atom_site_fract_x
_atom_site_fract_y
_atom_site_fract_z
Si Si1 0.179528 0.257570 0.734396
Si Si2 0.447757 0.254521 0.824145
Si Si3 0.401608 0.021248 0.500000
Si Si4 0.827190 0.942800 0.338525
Si Si5 0.938379 0.946430 0.098674
Si Si6 0.311299 0.950352 0.156525
Si Si7 0.488019 0.845685 0.500000
O O1 0.250000 0.250000 0.773244
O O2 0.121220 0.277677 0.796880
O O3 0.167432 0.162933 0.685034
O O4 0.181828 0.343359 0.671628
O O5 0.500000 0.239938 0.750000
O O6 0.436357 0.360677 0.839536
O O7 0.472599 0.209914 0.912807
O O8 0.359871 0.018312 0.414186
O O9 0.442877 0.112586 0.500000
O O10 0.445043 0.934190 0.500000
O O11 0.759146 0.963211 0.375230
O O12 0.830307 0.000000 0.250000
O O13 0.882028 0.984070 0.394079
O O14 0.941937 0.912829 0.000000
O O15 0.000000 0.000000 0.119915
O O16 0.318238 0.000000 0.250000
#
# Coordination Sequence:
#
# PCOD9497537 Si02
#       7
#    16  16   8  16  16  16   8
#     4  10  21  39  62  94 127 168 218 261 312 384
#     4  12  23  41  68  92 128 172 211 261 328 381
#     4  11  24  44  66  86 128 164 209 280 330 359
#     4  10  20  38  62  91 128 166 209 257 309 385
#     4  11  24  39  58  93 130 165 208 259 313 391
#     4  10  22  41  65  93 124 165 216 263 320 383
#     4  11  26  44  61  97 124 157 224 274 312 394
#
# _framework density 19.478939
#
# number of rings (size 3 to 8) (size 9 to 14) (size 15 to 20)
#    0.000    1.333    2.500    3.000    1.167    0.000 
#    1.500    3.333    0.000    0.000    0.000    0.000 
#    0.000    0.000    0.000    0.000    0.000    0.000 
#
# Total GULP energy -267914.313157 kJ/mol
# GULP energy per Si atom -5581.548191 kJ/mol
# Density = 1.943460 g / cm^3
# Si number density = 19.478939 Si / 1000 Ang^3
#
#
#
# Elastic Constant Matrix: (Units=GPa)
#
#
# Indices 1 2 3 4 5 6 
#
# 1 158.4110 28.6263 78.6321 0.0000 0.0000 0.0000
# 2 28.6263 99.7781 16.0340 0.0000 0.0000 0.0000
# 3 78.6321 16.0340 105.1205 0.0000 0.0000 0.0000
# 4 0.0000 0.0000 0.0000 23.4834 0.0000 0.0000
# 5 0.0000 0.0000 0.0000 0.0000 59.8613 0.0000
# 6 0.0000 0.0000 0.0000 0.0000 0.0000 36.6193
#
#
#
# Elastic Compliance Matrix: (Units=1/GPa)
#
#
# Indices 1 2 3 4 5 6 
#
# 1 0.010336 -0.001766 -0.007462 0.000000 0.000000 0.000000
# 2 -0.001766 0.010576 -0.000292 0.000000 0.000000 0.000000
# 3 -0.007462 -0.000292 0.015139 0.000000 0.000000 0.000000
# 4 0.000000 0.000000 0.000000 0.042583 0.000000 0.000000
# 5 0.000000 0.000000 0.000000 0.000000 0.016705 0.000000
# 6 0.000000 0.000000 0.000000 0.000000 0.000000 0.027308
#
#
# Mechanical properties :
#
#
# Convention : Reuss Voigt Hill
#
# Bulk Modulus (GPa) = 58.78730 67.76605 63.27668
# Shear Modulus (GPa) = 33.93097 39.99396 36.96246
#
# Velocity S-wave (km/s) = 4.17817 4.53613 4.36083
# Velocity P-wave (km/s) = 7.31585 7.89305 7.60992
#
# Compressibility (1/GPa) = 0.01701048
#
# Stress axis : x y z
#
# Youngs Moduli (GPa) = 96.75046 94.55476 66.05390
#
# Poissons Ratio (x) = 0.16701 0.49290
# Poissons Ratio (y) = 0.17088 0.01929
# Poissons Ratio (z) = 0.72195 0.02761
#
# Static dielectric constant tensor:
#      x y z
#    x 1.724210 0.000000 0.000000 
#    y 0.000000 1.680720 0.000000 
#    z 0.000000 0.000000 1.667440 
# 
# From -- ./inp_files/28458.got.cif
#   From: 2010.05.17/outbox.cif.g08.bks.cpg/sg66_15_cif.got.tgz:28458.got - 2010.06.03 17:51:23.
