data_PCOD9497698
_publ_section_title
;
Structure prediction by ZEFSAII (Michael W. Deem and Ramdas Pophale) SiO2 
 PCOD9497698
Probable space group: C C C M
;
_chemical_formula_sum "Si O2"
_cell_formula_units_Z 64
_cell_length_a 11.408654
_cell_length_b 8.723210
_cell_length_c 26.503523
_cell_angle_alpha 90.000000
_cell_angle_beta 90.000000
_cell_angle_gamma 90.000000
_cell_volume 2637.632853
_symmetry_space_group_name_H-M "C C C M"
_symmetry_group_IT_number 66
_symmetry_cell_setting 'orthorhombic'
loop_
_space_group_symop_operation_xyz
x,y,z
-x,-y,z
x,-y,1/2-z
-x,y,1/2-z
-x,-y,-z
x,y,-z
-x,y,1/2+z
x,-y,1/2+z
1/2+x,1/2+y,z
1/2-x,1/2-y,z
1/2+x,1/2-y,1/2-z
1/2-x,1/2+y,1/2-z
1/2-x,1/2-y,-z
1/2+x,1/2+y,-z
1/2-x,1/2+y,1/2+z
1/2+x,1/2-y,1/2+z
loop_
_atom_site_type_symbol
_atom_site_label
_atom_site_fract_x
_atom_site_fract_y
_atom_site_fract_z
Si Si1 0.822956 0.406842 0.444965
Si Si2 0.369279 0.424896 0.606563
Si Si3 0.999606 0.338293 0.852711
Si Si4 0.844358 0.116983 0.295364
O O1 0.878679 0.426211 0.500000
O O2 0.750000 0.250000 0.445500
O O3 0.724552 0.536300 0.435878
O O4 0.912359 0.379568 0.398934
O O5 0.500000 0.500000 0.595951
O O6 0.391685 0.248383 0.620933
O O7 0.317929 0.516120 0.654994
O O8 0.042264 0.211062 0.813156
O O9 0.000000 0.500000 0.824599
O O10 0.750000 0.250000 0.285667
O O11 0.856273 0.000000 0.250000
#
# Coordination Sequence:
#
# PCOD9497698 Si02
#       4
#    16  16  16  16
#     4  11  21  40  71 102 138 182 236 288 351 416
#     4  10  20  41  67  94 135 178 227 288 341 409
#     4  11  24  43  68  99 146 183 229 287 345 415
#     4  11  23  45  69  97 131 177 231 283 347 414
#
# _framework density 24.264182000000002
#
# number of rings (size 3 to 8) (size 9 to 14) (size 15 to 20)
#    0.000    1.250    7.500    0.000    0.000    9.500 
#    0.000    2.500    0.000    0.000    0.000    0.000 
#    0.000    0.000    0.000    0.000    0.000    0.000 
#
# Total GULP energy -178806.426101 kJ/mol
# GULP energy per Si atom -5587.700816 kJ/mol
# Density = 2.420896 g / cm^3
# Si number density = 24.264182 Si / 1000 Ang^3
#
#
#
# Elastic Constant Matrix: (Units=GPa)
#
#
# Indices 1 2 3 4 5 6 
#
# 1 86.6009 52.5671 35.7732 0.0000 0.0000 0.0000
# 2 52.5671 159.7215 16.8210 0.0000 0.0000 0.0000
# 3 35.7732 16.8210 102.6997 0.0000 0.0000 0.0000
# 4 0.0000 0.0000 0.0000 349.0518 0.0000 0.0000
# 5 0.0000 0.0000 0.0000 0.0000 5.3498 0.0000
# 6 0.0000 0.0000 0.0000 0.0000 0.0000 48.8540
#
#
#
# Elastic Compliance Matrix: (Units=1/GPa)
#
#
# Indices 1 2 3 4 5 6 
#
# 1 0.016600 -0.004940 -0.004973 0.000000 0.000000 0.000000
# 2 -0.004940 0.007841 0.000436 0.000000 0.000000 0.000000
# 3 -0.004973 0.000436 0.011398 0.000000 0.000000 0.000000
# 4 0.000000 0.000000 0.000000 0.002865 0.000000 0.000000
# 5 0.000000 0.000000 0.000000 0.000000 0.186923 0.000000
# 6 0.000000 0.000000 0.000000 0.000000 0.000000 0.020469
#
#
# Mechanical properties :
#
#
# Convention : Reuss Voigt Hill
#
# Bulk Modulus (GPa) = 59.22144 62.14943 60.68544
# Shear Modulus (GPa) = 18.47219 96.90848 57.69033
#
# Velocity S-wave (km/s) = 2.76215 6.32658 4.88135
# Velocity P-wave (km/s) = 5.88494 8.89026 7.53888
#
# Compressibility (1/GPa) = 0.01688578
#
# Stress axis : x y z
#
# Youngs Moduli (GPa) = 60.24132 127.54068 87.73502
#
# Poissons Ratio (x) = 0.63000 0.43632
# Poissons Ratio (y) = 0.29757 -0.03829
# Poissons Ratio (z) = 0.29959 -0.05566
#
# Static dielectric constant tensor:
#      x y z
#    x 2.078710 0.000000 0.000000 
#    y 0.000000 2.184860 0.000000 
#    z 0.000000 0.000000 1.905030 
# 
# From -- ./inp_files/57653.got.cif
#   From: 2010.05.17/outbox.cif.g08.bks.cpg/sg66_29_cif.got.tgz:57653.got - 2010.06.03 17:51:23.
