data_PCOD9497257
_publ_section_title
;
Structure prediction by ZEFSAII (Michael W. Deem and Ramdas Pophale) SiO2 
 PCOD9497257
Probable space group: C C C M
;
_chemical_formula_sum "Si O2"
_cell_formula_units_Z 64
_cell_length_a 29.159621
_cell_length_b 5.075241
_cell_length_c 21.120514
_cell_angle_alpha 90.000000
_cell_angle_beta 90.000000
_cell_angle_gamma 90.000000
_cell_volume 3125.669305
_symmetry_space_group_name_H-M "C C C M"
_symmetry_group_IT_number 66
_symmetry_cell_setting 'orthorhombic'
loop_
_space_group_symop_operation_xyz
x,y,z
-x,-y,z
x,-y,1/2-z
-x,y,1/2-z
-x,-y,-z
x,y,-z
-x,y,1/2+z
x,-y,1/2+z
1/2+x,1/2+y,z
1/2-x,1/2-y,z
1/2+x,1/2-y,1/2-z
1/2-x,1/2+y,1/2-z
1/2-x,1/2-y,-z
1/2+x,1/2+y,-z
1/2-x,1/2+y,1/2+z
1/2+x,1/2-y,1/2+z
loop_
_atom_site_type_symbol
_atom_site_label
_atom_site_fract_x
_atom_site_fract_y
_atom_site_fract_z
Si Si1 0.172854 0.500000 0.250000
Si Si2 0.371553 0.916020 0.379046
Si Si3 0.180881 0.067863 0.572554
Si Si4 0.750000 0.250000 0.165958
Si Si5 0.968712 0.757396 0.072357
O O1 0.142338 0.622788 0.305543
O O2 0.208238 0.680737 0.211629
O O3 0.343145 0.711568 0.420915
O O4 0.423975 0.834581 0.389863
O O5 0.354401 0.206763 0.400860
O O6 0.191819 0.129486 0.500000
O O7 0.225965 0.052550 0.616710
O O8 0.000000 0.500000 0.069057
O O9 0.954533 0.830744 0.000000
O O10 0.000000 0.000000 0.096679
#
# Coordination Sequence:
#
# PCOD9497257 Si02
#       5
#     8  16  16   8  16
#     4  10  22  40  61  84 120 162 207 242 286 358
#     4  11  23  39  62  88 121 161 199 244 299 358
#     4  11  22  37  60  90 123 155 198 252 302 351
#     4  10  21  38  60  86 117 162 204 246 294 350
#     4  10  20  36  60  89 118 147 187 239 296 353
#
# _framework density 20.475615999999999
#
# number of rings (size 3 to 8) (size 9 to 14) (size 15 to 20)
#    0.000    1.500    0.000    5.625    0.000    8.000 
#    0.000    6.875    0.000    1.500    0.000    0.000 
#    0.000    0.000    0.000    0.000    0.000    0.000 
#
# Total GULP energy -178480.991200 kJ/mol
# GULP energy per Si atom -5577.530975 kJ/mol
# Density = 2.042901 g / cm^3
# Si number density = 20.475616 Si / 1000 Ang^3
#
#
#
# Elastic Constant Matrix: (Units=GPa)
#
#
# Indices 1 2 3 4 5 6 
#
# 1 110.5195 12.4885 61.0357 0.0000 0.0000 0.0000
# 2 12.4885 71.8523 6.6013 0.0000 0.0000 0.0000
# 3 61.0357 6.6013 150.7113 0.0000 0.0000 0.0000
# 4 0.0000 0.0000 0.0000 20.6708 0.0000 0.0000
# 5 0.0000 0.0000 0.0000 0.0000 -108.3348 0.0000
# 6 0.0000 0.0000 0.0000 0.0000 0.0000 21.4138
#
#
#
# Elastic Compliance Matrix: (Units=1/GPa)
#
#
# Indices 1 2 3 4 5 6 
#
# 1 0.011841 -0.001624 -0.004724 0.000000 0.000000 0.000000
# 2 -0.001624 0.014196 0.000036 0.000000 0.000000 0.000000
# 3 -0.004724 0.000036 0.008547 0.000000 0.000000 0.000000
# 4 0.000000 0.000000 0.000000 0.048377 0.000000 0.000000
# 5 0.000000 0.000000 0.000000 0.000000 -0.009231 0.000000
# 6 0.000000 0.000000 0.000000 0.000000 0.000000 0.046699
#
#
# Mechanical properties :
#
#
# Convention : Reuss Voigt Hill
#
# Bulk Modulus (GPa) = 45.53861 54.81490 50.17676
# Shear Modulus (GPa) = 35.61919 3.61381 19.61650
#
# Velocity S-wave (km/s) = 4.17536 1.32995 3.09858
# Velocity P-wave (km/s) = 6.74786 5.40253 6.11232
#
# Compressibility (1/GPa) = 0.02195939
#
# Stress axis : x y z
#
# Youngs Moduli (GPa) = 84.45476 70.44033 117.00234
#
# Poissons Ratio (x) = 0.11439 0.55274
# Poissons Ratio (y) = 0.13715 -0.00420
# Poissons Ratio (z) = 0.39898 -0.00253
#
# Static dielectric constant tensor:
#      x y z
#    x 1.763840 0.000000 0.000000 
#    y 0.000000 1.761010 0.000000 
#    z 0.000000 0.000000 1.725880 
# 
# From -- ./inp_files/45684.got.cif
#   From: 2010.05.17/outbox.cif.g08.bks.cpg/sg66_23_cif.got.tgz:45684.got - 2010.06.03 17:51:23.
