data_PCOD9497813
_publ_section_title
;
Structure prediction by ZEFSAII (Michael W. Deem and Ramdas Pophale) SiO2 
 PCOD9497813
Probable space group: C C C M
;
_chemical_formula_sum "Si O2"
_cell_formula_units_Z 104
_cell_length_a 18.510700
_cell_length_b 17.045065
_cell_length_c 16.974669
_cell_angle_alpha 90.000000
_cell_angle_beta 90.000000
_cell_angle_gamma 90.000000
_cell_volume 5355.781102
_symmetry_space_group_name_H-M "C C C M"
_symmetry_group_IT_number 66
_symmetry_cell_setting 'orthorhombic'
loop_
_space_group_symop_operation_xyz
x,y,z
-x,-y,z
x,-y,1/2-z
-x,y,1/2-z
-x,-y,-z
x,y,-z
-x,y,1/2+z
x,-y,1/2+z
1/2+x,1/2+y,z
1/2-x,1/2-y,z
1/2+x,1/2-y,1/2-z
1/2-x,1/2+y,1/2-z
1/2-x,1/2-y,-z
1/2+x,1/2+y,-z
1/2-x,1/2+y,1/2+z
1/2+x,1/2-y,1/2+z
loop_
_atom_site_type_symbol
_atom_site_label
_atom_site_fract_x
_atom_site_fract_y
_atom_site_fract_z
Si Si1 0.180407 0.304229 0.807401
Si Si2 0.288108 0.046197 0.092857
Si Si3 0.614576 0.456747 0.410718
Si Si4 0.114434 0.733095 0.000000
Si Si5 0.922745 0.170377 0.712484
Si Si6 0.802795 0.630926 0.369937
Si Si7 0.865996 0.864215 0.620798
O O1 0.250000 0.250000 0.824882
O O2 0.179287 0.380174 0.862167
O O3 0.111572 0.249106 0.821733
O O4 0.186455 0.332574 0.716604
O O5 0.201098 0.054062 0.100035
O O6 0.311073 0.963035 0.129719
O O7 0.305198 0.045318 0.000000
O O8 0.595101 0.436277 0.500000
O O9 0.576114 0.400695 0.348813
O O10 0.604607 0.549435 0.398010
O O11 0.144813 0.672910 0.068875
O O12 0.095491 0.798680 0.069181
O O13 0.871906 0.147274 0.786000
O O14 0.000000 0.184197 0.750000
O O15 0.719610 0.643788 0.398852
#
# Coordination Sequence:
#
# PCOD9497813 Si02
#       7
#    16  16  16   8  16  16  16
#     4  12  21  38  62  87 117 159 207 251 310 364
#     4  10  21  35  61  96 124 152 194 259 319 369
#     4  10  21  38  59  88 125 161 203 246 297 370
#     4  12  19  32  62  97 126 150 198 266 308 352
#     4  12  26  42  57  84 123 169 210 250 298 364
#     4  11  19  34  60  96 122 146 195 260 317 361
#     4  11  20  35  59  89 123 157 199 247 305 359
#
# _framework density 19.418268999999999
#
# number of rings (size 3 to 8) (size 9 to 14) (size 15 to 20)
#    0.000    0.923    6.154    2.308    0.000    4.615 
#    1.385    0.769    0.000    1.846    0.000    2.154 
#    0.000    0.000    0.000    0.000    0.000    0.000 
#
# Total GULP energy -289671.924454 kJ/mol
# GULP energy per Si atom -5570.613932 kJ/mol
# Density = 1.937407 g / cm^3
# Si number density = 19.418269 Si / 1000 Ang^3
#
#
#
# Elastic Constant Matrix: (Units=GPa)
#
#
# Indices 1 2 3 4 5 6 
#
# 1 35.5882 39.2068 1.3430 0.0000 0.0000 0.0000
# 2 39.2068 122.4878 22.8529 0.0000 0.0000 0.0000
# 3 1.3430 22.8529 27.8488 0.0000 0.0000 0.0000
# 4 0.0000 0.0000 0.0000 16.5801 0.0000 0.0000
# 5 0.0000 0.0000 0.0000 0.0000 13.1948 0.0000
# 6 0.0000 0.0000 0.0000 0.0000 0.0000 9.3820
#
#
#
# Elastic Compliance Matrix: (Units=1/GPa)
#
#
# Indices 1 2 3 4 5 6 
#
# 1 0.046455 -0.017064 0.011763 0.000000 0.000000 0.000000
# 2 -0.017064 0.015908 -0.012231 0.000000 0.000000 0.000000
# 3 0.011763 -0.012231 0.045378 0.000000 0.000000 0.000000
# 4 0.000000 0.000000 0.000000 0.060313 0.000000 0.000000
# 5 0.000000 0.000000 0.000000 0.000000 0.075787 0.000000
# 6 0.000000 0.000000 0.000000 0.000000 0.000000 0.106588
#
#
# Mechanical properties :
#
#
# Convention : Reuss Voigt Hill
#
# Bulk Modulus (GPa) = 13.75988 34.74780 24.25384
# Shear Modulus (GPa) = 12.20347 15.99952 14.10149
#
# Velocity S-wave (km/s) = 2.50962 2.87355 2.69773
# Velocity P-wave (km/s) = 3.93688 5.37987 4.71391
#
# Compressibility (1/GPa) = 0.07267505
#
# Stress axis : x y z
#
# Youngs Moduli (GPa) = 21.52643 62.86090 22.03708
#
# Poissons Ratio (x) = 1.07267 -0.25922
# Poissons Ratio (y) = 0.36733 0.26954
# Poissons Ratio (z) = -0.25321 0.76888
#
# Static dielectric constant tensor:
#      x y z
#    x 1.711670 0.000000 0.000000 
#    y 0.000000 1.675370 0.000000 
#    z 0.000000 0.000000 1.672610 
# 
# From -- ./inp_files/42932.got.cif
#   From: 2010.05.17/outbox.cif.g08.bks.cpg/sg66_22_cif.got.tgz:42932.got - 2010.06.03 17:51:23.
