data_PCOD9497751
_publ_section_title
;
Structure prediction by ZEFSAII (Michael W. Deem and Ramdas Pophale) SiO2 
 PCOD9497751
Probable space group: C C C M
;
_chemical_formula_sum "Si O2"
_cell_formula_units_Z 116
_cell_length_a 8.945698
_cell_length_b 23.703153
_cell_length_c 26.020390
_cell_angle_alpha 90.000000
_cell_angle_beta 90.000000
_cell_angle_gamma 90.000000
_cell_volume 5517.395979
_symmetry_space_group_name_H-M "C C C M"
_symmetry_group_IT_number 66
_symmetry_cell_setting 'orthorhombic'
loop_
_space_group_symop_operation_xyz
x,y,z
-x,-y,z
x,-y,1/2-z
-x,y,1/2-z
-x,-y,-z
x,y,-z
-x,y,1/2+z
x,-y,1/2+z
1/2+x,1/2+y,z
1/2-x,1/2-y,z
1/2+x,1/2-y,1/2-z
1/2-x,1/2+y,1/2-z
1/2-x,1/2-y,-z
1/2+x,1/2+y,-z
1/2-x,1/2+y,1/2+z
1/2+x,1/2-y,1/2+z
loop_
_atom_site_type_symbol
_atom_site_label
_atom_site_fract_x
_atom_site_fract_y
_atom_site_fract_z
Si Si1 0.622276 0.385338 0.654461
Si Si2 0.366559 0.037007 0.137317
Si Si3 0.830715 0.189473 0.443721
Si Si4 0.000000 0.000000 0.500000
Si Si5 0.645715 0.440547 0.096219
Si Si6 0.075190 0.739603 0.909297
Si Si7 0.061076 0.386553 0.560074
Si Si8 0.077653 0.232525 0.197644
O O1 0.763683 0.422456 0.671872
O O2 0.682487 0.353984 0.602502
O O3 0.475669 0.420273 0.637775
O O4 0.576241 0.335174 0.691817
O O5 0.450981 0.073359 0.093016
O O6 0.500000 0.000000 0.161799
O O7 0.244244 0.994715 0.112974
O O8 0.789638 0.167185 0.500000
O O9 0.750000 0.250000 0.435089
O O10 0.001978 0.209573 0.441191
O O11 0.942327 0.956642 0.454913
O O12 0.773129 0.395189 0.083137
O O13 0.250000 0.750000 0.907740
O O14 0.028833 0.679579 0.933107
O O15 0.007365 0.743229 0.851983
O O16 0.057232 0.402404 0.500000
O O17 0.250000 0.250000 0.196200
O O18 0.000000 0.250824 0.250000
#
# Coordination Sequence:
#
# PCOD9497751 Si02
#       8
#    16  16  16   4  16  16  16  16
#     4  11  21  38  60  85 115 154 198 236 289 354
#     4  10  22  36  53  81 117 160 199 250 286 329
#     4  10  21  34  51  77 116 164 203 243 292 347
#     4  12  20  36  50  80 118 164 214 260 280 320
#     4  11  23  34  54  79 117 162 211 248 285 329
#     4  11  22  38  57  87 123 153 197 249 298 361
#     4  11  22  33  52  83 122 169 208 244 289 335
#     4  11  24  44  70  95 118 147 185 241 305 371
#
# _framework density 21.024412000000002
#
# number of rings (size 3 to 8) (size 9 to 14) (size 15 to 20)
#    0.000    1.241    2.069    5.793    1.931    4.690 
#    0.000    0.000    0.000    1.655    0.000    8.690 
#    0.000    0.000    0.000    0.000    0.000    0.000 
#
# Total GULP energy -323483.511449 kJ/mol
# GULP energy per Si atom -5577.301922 kJ/mol
# Density = 2.097656 g / cm^3
# Si number density = 21.024412 Si / 1000 Ang^3
#
#
#
# Elastic Constant Matrix: (Units=GPa)
#
#
# Indices 1 2 3 4 5 6 
#
# 1 128.9722 23.9455 8.2067 0.0000 0.0000 0.0000
# 2 23.9455 59.9820 -13.9889 0.0000 0.0000 0.0000
# 3 8.2067 -13.9889 45.7229 0.0000 0.0000 0.0000
# 4 0.0000 0.0000 0.0000 8.1736 0.0000 0.0000
# 5 0.0000 0.0000 0.0000 0.0000 11.4431 0.0000
# 6 0.0000 0.0000 0.0000 0.0000 0.0000 51.9622
#
#
#
# Elastic Compliance Matrix: (Units=1/GPa)
#
#
# Indices 1 2 3 4 5 6 
#
# 1 0.008701 -0.004132 -0.002826 0.000000 0.000000 0.000000
# 2 -0.004132 0.019915 0.006835 0.000000 0.000000 0.000000
# 3 -0.002826 0.006835 0.024469 0.000000 0.000000 0.000000
# 4 0.000000 0.000000 0.000000 0.122345 0.000000 0.000000
# 5 0.000000 0.000000 0.000000 0.000000 0.087389 0.000000
# 6 0.000000 0.000000 0.000000 0.000000 0.000000 0.019245
#
#
# Mechanical properties :
#
#
# Convention : Reuss Voigt Hill
#
# Bulk Modulus (GPa) = 18.92579 30.11153 24.51866
# Shear Modulus (GPa) = 16.67092 28.75004 22.71048
#
# Velocity S-wave (km/s) = 2.81896 3.70193 3.29020
# Velocity P-wave (km/s) = 4.42908 5.71189 5.11089
#
# Compressibility (1/GPa) = 0.05283795
#
# Stress axis : x y z
#
# Youngs Moduli (GPa) = 114.93349 50.21242 40.86771
#
# Poissons Ratio (x) = 0.20750 0.11549
# Poissons Ratio (y) = 0.47496 -0.27932
# Poissons Ratio (z) = 0.32480 -0.34319
#
# Static dielectric constant tensor:
#      x y z
#    x 1.811460 0.000000 0.000000 
#    y 0.000000 1.833250 0.000000 
#    z 0.000000 0.000000 1.685050 
# 
# From -- ./inp_files/68356.got.cif
#   From: 2010.05.17/outbox.cif.g08.bks.cpg/sg66_35_cif.got.tgz:68356.got - 2010.06.03 17:51:23.
