data_PCOD9497439
_publ_section_title
;
Structure prediction by ZEFSAII (Michael W. Deem and Ramdas Pophale) SiO2 
 PCOD9497439
Probable space group: C C C M
;
_chemical_formula_sum "Si O2"
_cell_formula_units_Z 64
_cell_length_a 12.802291
_cell_length_b 11.275930
_cell_length_c 21.720295
_cell_angle_alpha 90.000000
_cell_angle_beta 90.000000
_cell_angle_gamma 90.000000
_cell_volume 3135.492637
_symmetry_space_group_name_H-M "C C C M"
_symmetry_group_IT_number 66
_symmetry_cell_setting 'orthorhombic'
loop_
_space_group_symop_operation_xyz
x,y,z
-x,-y,z
x,-y,1/2-z
-x,y,1/2-z
-x,-y,-z
x,y,-z
-x,y,1/2+z
x,-y,1/2+z
1/2+x,1/2+y,z
1/2-x,1/2-y,z
1/2+x,1/2-y,1/2-z
1/2-x,1/2+y,1/2-z
1/2-x,1/2-y,-z
1/2+x,1/2+y,-z
1/2-x,1/2+y,1/2+z
1/2+x,1/2-y,1/2+z
loop_
_atom_site_type_symbol
_atom_site_label
_atom_site_fract_x
_atom_site_fract_y
_atom_site_fract_z
Si Si1 0.034984 0.738141 0.683982
Si Si2 0.301934 0.498319 0.429395
Si Si3 0.000000 0.000000 0.847319
Si Si4 0.575806 0.885025 0.429560
Si Si5 0.250000 0.250000 0.875869
O O1 0.153547 0.708423 0.665948
O O2 0.000000 0.688518 0.750000
O O3 0.031246 0.880817 0.687319
O O4 0.965191 0.695217 0.626265
O O5 0.329883 0.479667 0.500000
O O6 0.399309 0.465118 0.387584
O O7 0.194344 0.427761 0.417914
O O8 0.281989 0.637789 0.416848
O O9 0.570131 0.834946 0.500000
O O10 0.500000 0.000000 0.429592
#
# Coordination Sequence:
#
# PCOD9497439 Si02
#       5
#    16  16   8  16   8
#     4  11  24  42  63  89 124 165 210 253 311 368
#     4  10  20  37  62  91 126 163 205 254 311 368
#     4  10  24  40  58  90 125 166 209 254 307 372
#     4  10  21  39  63  94 124 155 200 260 309 355
#     4  10  21  38  60  88 119 168 210 252 296 374
#
# _framework density 20.411465
#
# number of rings (size 3 to 8) (size 9 to 14) (size 15 to 20)
#    0.000    1.750    2.500    1.125    0.000    8.500 
#    0.000    5.000    0.000    0.000    0.000    0.000 
#    0.000    0.000    0.000    0.000    0.000    0.000 
#
# Total GULP energy -178645.771260 kJ/mol
# GULP energy per Si atom -5582.680352 kJ/mol
# Density = 2.036501 g / cm^3
# Si number density = 20.411465 Si / 1000 Ang^3
#
#
#
# Elastic Constant Matrix: (Units=GPa)
#
#
# Indices 1 2 3 4 5 6 
#
# 1 96.9680 -18.0627 41.9815 0.0000 0.0000 0.0000
# 2 -18.0627 32.9654 11.2065 0.0000 0.0000 0.0000
# 3 41.9815 11.2065 123.2638 0.0000 0.0000 0.0000
# 4 0.0000 0.0000 0.0000 4.4604 0.0000 0.0000
# 5 0.0000 0.0000 0.0000 0.0000 32.6922 0.0000
# 6 0.0000 0.0000 0.0000 0.0000 0.0000 19.2083
#
#
#
# Elastic Compliance Matrix: (Units=1/GPa)
#
#
# Indices 1 2 3 4 5 6 
#
# 1 0.014774 0.010119 -0.005952 0.000000 0.000000 0.000000
# 2 0.010119 0.038232 -0.006922 0.000000 0.000000 0.000000
# 3 -0.005952 -0.006922 0.010769 0.000000 0.000000 0.000000
# 4 0.000000 0.000000 0.000000 0.224194 0.000000 0.000000
# 5 0.000000 0.000000 0.000000 0.000000 0.030588 0.000000
# 6 0.000000 0.000000 0.000000 0.000000 0.000000 0.052061
#
#
# Mechanical properties :
#
#
# Convention : Reuss Voigt Hill
#
# Bulk Modulus (GPa) = 17.16296 35.93863 26.55080
# Shear Modulus (GPa) = 12.64060 25.81031 19.22546
#
# Velocity S-wave (km/s) = 2.49125 3.55984 3.07236
# Velocity P-wave (km/s) = 4.08679 5.87724 5.06181
#
# Compressibility (1/GPa) = 0.05826500
#
# Stress axis : x y z
#
# Youngs Moduli (GPa) = 67.68518 26.15592 92.85847
#
# Poissons Ratio (x) = -0.26466 0.55267
# Poissons Ratio (y) = -0.68488 0.64277
# Poissons Ratio (z) = 0.40285 0.18105
#
# Static dielectric constant tensor:
#      x y z
#    x 1.711670 0.000000 0.000000 
#    y 0.000000 1.728320 0.000000 
#    z 0.000000 0.000000 1.728060 
# 
# From -- ./inp_files/56365.got.cif
#   From: 2010.05.17/outbox.cif.g08.bks.cpg/sg66_29_cif.got.tgz:56365.got - 2010.06.03 17:51:23.
