data_PCOD9497479
_publ_section_title
;
Structure prediction by ZEFSAII (Michael W. Deem and Ramdas Pophale) SiO2 
 PCOD9497479
Probable space group: C C C M
;
_chemical_formula_sum "Si O2"
_cell_formula_units_Z 72
_cell_length_a 9.098861
_cell_length_b 27.880614
_cell_length_c 14.582758
_cell_angle_alpha 90.000000
_cell_angle_beta 90.000000
_cell_angle_gamma 90.000000
_cell_volume 3699.380756
_symmetry_space_group_name_H-M "C C C M"
_symmetry_group_IT_number 66
_symmetry_cell_setting 'orthorhombic'
loop_
_space_group_symop_operation_xyz
x,y,z
-x,-y,z
x,-y,1/2-z
-x,y,1/2-z
-x,-y,-z
x,y,-z
-x,y,1/2+z
x,-y,1/2+z
1/2+x,1/2+y,z
1/2-x,1/2-y,z
1/2+x,1/2-y,1/2-z
1/2-x,1/2+y,1/2-z
1/2-x,1/2-y,-z
1/2+x,1/2+y,-z
1/2-x,1/2+y,1/2+z
1/2+x,1/2-y,1/2+z
loop_
_atom_site_type_symbol
_atom_site_label
_atom_site_fract_x
_atom_site_fract_y
_atom_site_fract_z
Si Si1 0.571383 0.547830 0.351448
Si Si2 0.968109 0.371460 0.000000
Si Si3 0.572409 0.950727 0.650066
Si Si4 0.251266 0.308030 0.000000
Si Si5 0.693913 0.303136 0.000000
Si Si6 0.983024 0.154041 0.360020
O O1 0.500000 0.500000 0.394832
O O2 0.500000 0.548841 0.250000
O O3 0.749221 0.544986 0.347266
O O4 0.521526 0.599329 0.389712
O O5 0.971779 0.406460 0.912926
O O6 0.817179 0.343176 0.000000
O O7 0.092415 0.331511 0.000000
O O8 0.500000 0.944125 0.750000
O O9 0.500000 0.000000 0.614215
O O10 0.250000 0.250000 0.000000
O O11 0.333458 0.328816 0.090900
O O12 0.750000 0.250000 0.000000
O O13 0.599300 0.311876 0.909290
O O14 0.000000 0.157052 0.250000
#
# Coordination Sequence:
#
# PCOD9497479 Si02
#       6
#    16   8  16   8   8  16
#     4  10  20  37  67  97 130 172 217 255 314 382
#     4  12  25  40  65  98 128 171 216 256 342 385
#     4  11  24  41  64  98 138 170 211 266 321 382
#     4  11  27  46  66  95 133 165 218 281 327 373
#     4  11  23  46  66  92 131 166 209 287 320 373
#     4  10  23  44  70  96 126 170 222 257 320 395
#
# _framework density 19.462717999999999
#
# number of rings (size 3 to 8) (size 9 to 14) (size 15 to 20)
#    0.000    1.333    2.222    4.333    9.333    0.889 
#    0.000    5.000    0.000    0.000    0.000    0.000 
#    0.000    0.000    0.000    0.000    0.000    0.000 
#
# Total GULP energy -200889.717679 kJ/mol
# GULP energy per Si atom -5580.269936 kJ/mol
# Density = 1.941842 g / cm^3
# Si number density = 19.462718 Si / 1000 Ang^3
#
#
#
# Elastic Constant Matrix: (Units=GPa)
#
#
# Indices 1 2 3 4 5 6 
#
# 1 104.4396 12.4982 17.3238 0.0000 0.0000 0.0000
# 2 12.4982 112.7228 21.3793 0.0000 0.0000 0.0000
# 3 17.3238 21.3793 108.9977 0.0000 0.0000 0.0000
# 4 0.0000 0.0000 0.0000 1.7894 0.0000 0.0000
# 5 0.0000 0.0000 0.0000 0.0000 37.7736 0.0000
# 6 0.0000 0.0000 0.0000 0.0000 0.0000 40.1086
#
#
#
# Elastic Compliance Matrix: (Units=1/GPa)
#
#
# Indices 1 2 3 4 5 6 
#
# 1 0.009909 -0.000831 -0.001412 0.000000 0.000000 0.000000
# 2 -0.000831 0.009284 -0.001689 0.000000 0.000000 0.000000
# 3 -0.001412 -0.001689 0.009730 0.000000 0.000000 0.000000
# 4 0.000000 0.000000 0.000000 0.558844 0.000000 0.000000
# 5 0.000000 0.000000 0.000000 0.000000 0.026474 0.000000
# 6 0.000000 0.000000 0.000000 0.000000 0.000000 0.024932
#
#
# Mechanical properties :
#
#
# Convention : Reuss Voigt Hill
#
# Bulk Modulus (GPa) = 47.48510 47.61808 47.55159
# Shear Modulus (GPa) = 7.64461 34.26492 20.95477
#
# Velocity S-wave (km/s) = 1.98402 4.20043 3.28481
# Velocity P-wave (km/s) = 5.44972 6.93140 6.23473
#
# Compressibility (1/GPa) = 0.02105924
#
# Stress axis : x y z
#
# Youngs Moduli (GPa) = 100.92317 107.71502 102.77307
#
# Poissons Ratio (x) = 0.08949 0.14510
# Poissons Ratio (y) = 0.08385 0.17357
# Poissons Ratio (z) = 0.14249 0.18192
#
# Static dielectric constant tensor:
#      x y z
#    x 1.695280 0.000000 0.000000 
#    y 0.000000 1.664410 0.000000 
#    z 0.000000 0.000000 1.664540 
# 
# From -- ./inp_files/24558.got.cif
#   From: 2010.05.17/outbox.cif.g08.bks.cpg/sg66_13_cif.got.tgz:24558.got - 2010.06.03 17:51:23.
