data_PCOD9497671
_publ_section_title
;
Structure prediction by ZEFSAII (Michael W. Deem and Ramdas Pophale) SiO2 
 PCOD9497671
Probable space group: C C C M
;
_chemical_formula_sum "Si O2"
_cell_formula_units_Z 112
_cell_length_a 11.134122
_cell_length_b 15.150604
_cell_length_c 29.505308
_cell_angle_alpha 90.000000
_cell_angle_beta 90.000000
_cell_angle_gamma 90.000000
_cell_volume 4977.211262
_symmetry_space_group_name_H-M "C C C M"
_symmetry_group_IT_number 66
_symmetry_cell_setting 'orthorhombic'
loop_
_space_group_symop_operation_xyz
x,y,z
-x,-y,z
x,-y,1/2-z
-x,y,1/2-z
-x,-y,-z
x,y,-z
-x,y,1/2+z
x,-y,1/2+z
1/2+x,1/2+y,z
1/2-x,1/2-y,z
1/2+x,1/2-y,1/2-z
1/2-x,1/2+y,1/2-z
1/2-x,1/2-y,-z
1/2+x,1/2+y,-z
1/2-x,1/2+y,1/2+z
1/2+x,1/2-y,1/2+z
loop_
_atom_site_type_symbol
_atom_site_label
_atom_site_fract_x
_atom_site_fract_y
_atom_site_fract_z
Si Si1 0.119465 0.702681 0.233171
Si Si2 0.355505 0.506312 0.640223
Si Si3 0.304273 0.845251 0.860923
Si Si4 0.812429 0.655748 0.175635
Si Si5 0.436970 0.905948 0.048933
Si Si6 0.389203 0.232126 0.918772
Si Si7 0.097875 0.922327 0.550942
O O1 0.250000 0.750000 0.229133
O O2 0.109361 0.663718 0.182736
O O3 0.127833 0.636097 0.275849
O O4 0.000000 0.756361 0.250000
O O5 0.500000 0.500000 0.643832
O O6 0.300389 0.412759 0.652563
O O7 0.289296 0.582896 0.667678
O O8 0.317688 0.534010 0.588629
O O9 0.250000 0.750000 0.871440
O O10 0.362408 0.882056 0.906610
O O11 0.750000 0.750000 0.182639
O O12 0.885989 0.680515 0.129735
O O13 0.540876 0.832335 0.048715
O O14 0.500000 0.000000 0.053796
O O15 0.371692 0.903955 0.000000
O O16 0.250000 0.250000 0.929769
O O17 0.444778 0.330895 0.924732
O O18 0.141487 0.902889 0.500000
O O19 0.000000 0.000000 0.546533
#
# Coordination Sequence:
#
# PCOD9497671 Si02
#       7
#    16  16  16  16  16  16  16
#     4  10  23  44  74 107 147 194 242 300 363 436
#     4  11  24  44  69 100 137 186 238 299 360 435
#     4  11  27  46  67 101 140 184 235 290 360 431
#     4  10  20  40  68 103 136 176 230 295 361 413
#     4  11  26  45  65  95 140 185 231 292 361 434
#     4  11  21  40  68 101 132 179 236 291 351 430
#     4  10  22  38  62  99 139 181 239 300 357 422
#
# _framework density 22.502561
#
# number of rings (size 3 to 8) (size 9 to 14) (size 15 to 20)
#    0.000    1.429    2.857    2.143    4.000    7.143 
#    0.000    1.429    0.000    0.000    0.000    0.000 
#    0.000    0.000    0.000    0.000    0.000    0.000 
#
# Total GULP energy -311872.420511 kJ/mol
# GULP energy per Si atom -5569.150366 kJ/mol
# Density = 2.245134 g / cm^3
# Si number density = 22.502561 Si / 1000 Ang^3
#
#
#
# Elastic Constant Matrix: (Units=GPa)
#
#
# Indices 1 2 3 4 5 6 
#
# 1 103.9219 47.7259 49.4706 0.0000 0.0000 0.0000
# 2 47.7259 156.6959 30.1747 0.0000 0.0000 0.0000
# 3 49.4706 30.1747 157.7908 0.0000 0.0000 0.0000
# 4 0.0000 0.0000 0.0000 10.0410 0.0000 0.0000
# 5 0.0000 0.0000 0.0000 0.0000 36.4470 0.0000
# 6 0.0000 0.0000 0.0000 0.0000 0.0000 27.2966
#
#
#
# Elastic Compliance Matrix: (Units=1/GPa)
#
#
# Indices 1 2 3 4 5 6 
#
# 1 0.012705 -0.003221 -0.003367 0.000000 0.000000 0.000000
# 2 -0.003221 0.007442 -0.000413 0.000000 0.000000 0.000000
# 3 -0.003367 -0.000413 0.007472 0.000000 0.000000 0.000000
# 4 0.000000 0.000000 0.000000 0.099591 0.000000 0.000000
# 5 0.000000 0.000000 0.000000 0.000000 0.027437 0.000000
# 6 0.000000 0.000000 0.000000 0.000000 0.000000 0.036635
#
#
# Mechanical properties :
#
#
# Convention : Reuss Voigt Hill
#
# Bulk Modulus (GPa) = 73.44260 74.79456 74.11858
# Shear Modulus (GPa) = 23.82941 34.15943 28.99442
#
# Velocity S-wave (km/s) = 3.25770 3.90041 3.59345
# Velocity P-wave (km/s) = 6.84532 7.32084 7.08707
#
# Compressibility (1/GPa) = 0.01361608
#
# Stress axis : x y z
#
# Youngs Moduli (GPa) = 78.71014 134.36386 133.82864
#
# Poissons Ratio (x) = 0.43281 0.45063
# Poissons Ratio (y) = 0.25354 0.05532
# Poissons Ratio (z) = 0.26503 0.05554
#
# Static dielectric constant tensor:
#      x y z
#    x 1.889020 0.000000 0.000000 
#    y 0.000000 1.821000 0.000000 
#    z 0.000000 0.000000 1.943110 
# 
# From -- ./inp_files/69076.got.cif
#   From: 2010.05.17/outbox.cif.g08.bks.cpg/sg66_35_cif.got.tgz:69076.got - 2010.06.03 17:51:23.
