data_PCOD9497697
_publ_section_title
;
Structure prediction by ZEFSAII (Michael W. Deem and Ramdas Pophale) SiO2 
 PCOD9497697
Probable space group: C C C M
;
_chemical_formula_sum "Si O2"
_cell_formula_units_Z 64
_cell_length_a 9.864176
_cell_length_b 17.741450
_cell_length_c 15.357195
_cell_angle_alpha 90.000000
_cell_angle_beta 90.000000
_cell_angle_gamma 90.000000
_cell_volume 2687.582614
_symmetry_space_group_name_H-M "C C C M"
_symmetry_group_IT_number 66
_symmetry_cell_setting 'orthorhombic'
loop_
_space_group_symop_operation_xyz
x,y,z
-x,-y,z
x,-y,1/2-z
-x,y,1/2-z
-x,-y,-z
x,y,-z
-x,y,1/2+z
x,-y,1/2+z
1/2+x,1/2+y,z
1/2-x,1/2-y,z
1/2+x,1/2-y,1/2-z
1/2-x,1/2+y,1/2-z
1/2-x,1/2-y,-z
1/2+x,1/2+y,-z
1/2-x,1/2+y,1/2+z
1/2+x,1/2-y,1/2+z
loop_
_atom_site_type_symbol
_atom_site_label
_atom_site_fract_x
_atom_site_fract_y
_atom_site_fract_z
Si Si1 0.022247 0.907623 0.601514
Si Si2 0.339921 0.001135 0.500000
Si Si3 0.239794 0.932085 0.817566
Si Si4 0.296729 0.168108 0.819499
Si Si5 0.840579 0.672863 0.000000
O O1 0.007836 0.885078 0.500000
O O2 0.894247 0.884446 0.659694
O O3 0.158779 0.872301 0.641703
O O4 0.000000 0.000000 0.602721
O O5 0.291505 0.914833 0.500000
O O6 0.500000 0.000000 0.500000
O O7 0.291975 0.038829 0.589559
O O8 0.340801 0.881022 0.761851
O O9 0.208720 0.000000 0.750000
O O10 0.250000 0.250000 0.792011
O O11 0.398422 0.175260 0.901958
O O12 0.750000 0.750000 0.000000
#
# Coordination Sequence:
#
# PCOD9497697 Si02
#       5
#    16   8  16  16   8
#     4  11  20  35  67 108 140 177 225 298 363 410
#     4  12  26  47  70 102 140 188 239 302 368 422
#     4  12  23  42  70 101 143 178 246 300 346 430
#     4  11  23  40  66 103 150 185 232 291 361 427
#     4  10  20  41  67 100 135 174 225 289 342 427
#
# _framework density 23.813220999999999
#
# number of rings (size 3 to 8) (size 9 to 14) (size 15 to 20)
#    0.000    0.750    7.500    0.750    0.000    0.500 
#    0.000   10.625    0.000    0.000    0.000    0.000 
#    0.000    0.000    0.000    0.000    0.000    0.000 
#
# Total GULP energy -178322.760651 kJ/mol
# GULP energy per Si atom -5572.586270 kJ/mol
# Density = 2.375902 g / cm^3
# Si number density = 23.813221 Si / 1000 Ang^3
#
#
#
# Elastic Constant Matrix: (Units=GPa)
#
#
# Indices 1 2 3 4 5 6 
#
# 1 100.2264 2.4397 34.5024 0.0000 0.0000 0.0000
# 2 2.4397 111.8274 52.3089 0.0000 0.0000 0.0000
# 3 34.5024 52.3089 202.0611 0.0000 0.0000 0.0000
# 4 0.0000 0.0000 0.0000 23.0623 0.0000 0.0000
# 5 0.0000 0.0000 0.0000 0.0000 19.3623 0.0000
# 6 0.0000 0.0000 0.0000 0.0000 0.0000 5.1510
#
#
#
# Elastic Compliance Matrix: (Units=1/GPa)
#
#
# Indices 1 2 3 4 5 6 
#
# 1 0.010649 0.000703 -0.002000 0.000000 0.000000 0.000000
# 2 0.000703 0.010221 -0.002766 0.000000 0.000000 0.000000
# 3 -0.002000 -0.002766 0.006007 0.000000 0.000000 0.000000
# 4 0.000000 0.000000 0.000000 0.043361 0.000000 0.000000
# 5 0.000000 0.000000 0.000000 0.000000 0.051647 0.000000
# 6 0.000000 0.000000 0.000000 0.000000 0.000000 0.194137
#
#
# Mechanical properties :
#
#
# Convention : Reuss Voigt Hill
#
# Bulk Modulus (GPa) = 53.33252 65.84633 59.58943
# Shear Modulus (GPa) = 15.13329 31.17271 23.15300
#
# Velocity S-wave (km/s) = 2.52365 3.62201 3.12152
# Velocity P-wave (km/s) = 5.56206 6.72332 6.17007
#
# Compressibility (1/GPa) = 0.01875029
#
# Stress axis : x y z
#
# Youngs Moduli (GPa) = 93.90618 97.83910 166.48241
#
# Poissons Ratio (x) = -0.06882 0.33304
# Poissons Ratio (y) = -0.06605 0.46050
# Poissons Ratio (z) = 0.18785 0.27063
#
# Static dielectric constant tensor:
#      x y z
#    x 2.007130 0.000000 0.000000 
#    y 0.000000 1.963200 0.000000 
#    z 0.000000 0.000000 1.987750 
# 
# From -- ./inp_files/25851.got.cif
#   From: 2010.05.17/outbox.cif.g08.bks.cpg/sg66_13_cif.got.tgz:25851.got - 2010.06.03 17:51:23.
