data_PCOD9497851
_publ_section_title
;
Structure prediction by ZEFSAII (Michael W. Deem and Ramdas Pophale) SiO2 
 PCOD9497851
Probable space group: C C C M
;
_chemical_formula_sum "Si O2"
_cell_formula_units_Z 112
_cell_length_a 24.428278
_cell_length_b 17.691954
_cell_length_c 14.261646
_cell_angle_alpha 90.000000
_cell_angle_beta 90.000000
_cell_angle_gamma 90.000000
_cell_volume 6163.654797
_symmetry_space_group_name_H-M "C C C M"
_symmetry_group_IT_number 66
_symmetry_cell_setting 'orthorhombic'
loop_
_space_group_symop_operation_xyz
x,y,z
-x,-y,z
x,-y,1/2-z
-x,y,1/2-z
-x,-y,-z
x,y,-z
-x,y,1/2+z
x,-y,1/2+z
1/2+x,1/2+y,z
1/2-x,1/2-y,z
1/2+x,1/2-y,1/2-z
1/2-x,1/2+y,1/2-z
1/2-x,1/2-y,-z
1/2+x,1/2+y,-z
1/2-x,1/2+y,1/2+z
1/2+x,1/2-y,1/2+z
loop_
_atom_site_type_symbol
_atom_site_label
_atom_site_fract_x
_atom_site_fract_y
_atom_site_fract_z
Si Si1 0.301485 0.194114 0.105981
Si Si2 0.636719 0.205108 0.887987
Si Si3 0.472452 0.707808 0.110635
Si Si4 0.188636 0.867058 0.112426
Si Si5 0.797169 0.413375 0.222814
Si Si6 0.404055 0.700198 0.610316
Si Si7 0.415219 0.584596 0.225004
O O1 0.250000 0.250000 0.107583
O O2 0.290312 0.129553 0.179430
O O3 0.356123 0.240770 0.131182
O O4 0.308191 0.165446 0.000000
O O5 0.575567 0.233721 0.863598
O O6 0.676184 0.277723 0.867389
O O7 0.655275 0.131292 0.832766
O O8 0.639498 0.192400 0.000000
O O9 0.534756 0.733094 0.124549
O O10 0.460698 0.632253 0.169003
O O11 0.464967 0.691712 0.000000
O O12 0.243275 0.897860 0.160319
O O13 0.137623 0.911575 0.157126
O O14 0.190537 0.874644 0.000000
O O15 0.806508 0.500000 0.250000
O O16 0.399162 0.679154 0.500000
O O17 0.400017 0.630053 0.680513
O O18 0.430624 0.500000 0.250000
#
# Coordination Sequence:
#
# PCOD9497851 Si02
#       7
#    16  16  16  16  16  16  16
#     4  10  21  38  58  78 106 146 185 219 261 321
#     4   9  18  35  59  80 102 137 182 230 272 315
#     4   9  19  36  57  80 104 139 190 237 272 312
#     4  10  21  38  59  80 105 143 190 230 265 315
#     4  12  23  34  53  83 113 140 171 221 283 337
#     4  10  21  36  56  80 106 144 191 229 265 319
#     4  11  21  33  51  79 115 151 180 221 275 322
#
# _framework density 18.171037999999999
#
# number of rings (size 3 to 8) (size 9 to 14) (size 15 to 20)
#    0.000    1.857    0.000    6.429    0.000    4.571 
#    0.000    2.857    0.000    1.714    0.000    4.000 
#    0.000    0.000    0.000    0.000    0.000    0.000 
#
# Total GULP energy -312756.225082 kJ/mol
# GULP energy per Si atom -5584.932591 kJ/mol
# Density = 1.812968 g / cm^3
# Si number density = 18.171038 Si / 1000 Ang^3
#
#
#
# Elastic Constant Matrix: (Units=GPa)
#
#
# Indices 1 2 3 4 5 6 
#
# 1 115.2480 47.8429 41.0692 0.0000 0.0000 0.0000
# 2 47.8429 96.4088 58.3707 0.0000 0.0000 0.0000
# 3 41.0692 58.3707 92.2731 0.0000 0.0000 0.0000
# 4 0.0000 0.0000 0.0000 6.0602 0.0000 0.0000
# 5 0.0000 0.0000 0.0000 0.0000 33.3196 0.0000
# 6 0.0000 0.0000 0.0000 0.0000 0.0000 -2.7889
#
#
#
# Elastic Compliance Matrix: (Units=1/GPa)
#
#
# Indices 1 2 3 4 5 6 
#
# 1 0.011244 -0.004133 -0.002390 0.000000 0.000000 0.000000
# 2 -0.004133 0.018330 -0.009756 0.000000 0.000000 0.000000
# 3 -0.002390 -0.009756 0.018073 0.000000 0.000000 0.000000
# 4 0.000000 0.000000 0.000000 0.165010 0.000000 0.000000
# 5 0.000000 0.000000 0.000000 0.000000 0.030012 0.000000
# 6 0.000000 0.000000 0.000000 0.000000 0.000000 -0.358559
#
#
# Mechanical properties :
#
#
# Convention : Reuss Voigt Hill
#
# Bulk Modulus (GPa) = 66.27290 66.49950 66.38620
# Shear Modulus (GPa) = -63.85613 17.76132 -23.04741
#
# Velocity S-wave (km/s) = -5.93448 3.12981 -3.56527
# Velocity P-wave (km/s) = 3.22590 7.05244 4.43455
#
# Compressibility (1/GPa) = 0.01508912
#
# Stress axis : x y z
#
# Youngs Moduli (GPa) = 88.93309 54.55491 55.33182
#
# Poissons Ratio (x) = 0.22547 0.13226
# Poissons Ratio (y) = 0.36754 0.53981
# Poissons Ratio (z) = 0.21258 0.53224
#
# Static dielectric constant tensor:
#      x y z
#    x 1.655400 0.000000 0.000000 
#    y 0.000000 1.595370 0.000000 
#    z 0.000000 0.000000 1.652210 
# 
# From -- ./inp_files/33332.got.cif
#   From: 2010.05.17/outbox.cif.g08.bks.cpg/sg66_17_cif.got.tgz:33332.got - 2010.06.03 17:51:23.
