data_PCOD9497804
_publ_section_title
;
Structure prediction by ZEFSAII (Michael W. Deem and Ramdas Pophale) SiO2 
 PCOD9497804
Probable space group: C C C M
;
_chemical_formula_sum "Si O2"
_cell_formula_units_Z 64
_cell_length_a 13.059437
_cell_length_b 8.043140
_cell_length_c 27.062957
_cell_angle_alpha 90.000000
_cell_angle_beta 90.000000
_cell_angle_gamma 90.000000
_cell_volume 2842.662696
_symmetry_space_group_name_H-M "C C C M"
_symmetry_group_IT_number 66
_symmetry_cell_setting 'orthorhombic'
loop_
_space_group_symop_operation_xyz
x,y,z
-x,-y,z
x,-y,1/2-z
-x,y,1/2-z
-x,-y,-z
x,y,-z
-x,y,1/2+z
x,-y,1/2+z
1/2+x,1/2+y,z
1/2-x,1/2-y,z
1/2+x,1/2-y,1/2-z
1/2-x,1/2+y,1/2-z
1/2-x,1/2-y,-z
1/2+x,1/2+y,-z
1/2-x,1/2+y,1/2+z
1/2+x,1/2-y,1/2+z
loop_
_atom_site_type_symbol
_atom_site_label
_atom_site_fract_x
_atom_site_fract_y
_atom_site_fract_z
Si Si1 0.134400 0.397378 0.345508
Si Si2 0.127174 0.764517 0.377407
Si Si3 0.956184 0.312675 0.945687
Si Si4 0.635634 0.563382 0.305298
O O1 0.097111 0.587295 0.352177
O O2 0.126735 0.322336 0.401451
O O3 0.245309 0.420180 0.321023
O O4 0.089128 0.246664 0.313062
O O5 0.250000 0.750000 0.387612
O O6 0.055202 0.784723 0.425103
O O7 0.103539 0.917936 0.342206
O O8 0.000000 0.500000 0.949950
O O9 0.920938 0.258829 0.000000
O O10 0.624747 0.500000 0.250000
#
# Coordination Sequence:
#
# PCOD9497804 Si02
#       4
#    16  16  16  16
#     4   9  20  35  56  84 113 147 192 237 281 348
#     4   9  19  35  57  83 116 147 194 236 280 349
#     4   9  18  37  61  83 116 154 187 242 298 340
#     4  10  21  35  58  79 114 155 191 234 290 343
#
# _framework density 22.514104
#
# number of rings (size 3 to 8) (size 9 to 14) (size 15 to 20)
#    0.000    2.750    0.000    0.000   10.500    1.500 
#    0.000   11.250    5.500    0.000    0.000    0.000 
#    0.000    0.000    0.000    0.000    0.000    0.000 
#
# Total GULP energy -178253.785200 kJ/mol
# GULP energy per Si atom -5570.430787 kJ/mol
# Density = 2.246286 g / cm^3
# Si number density = 22.514104 Si / 1000 Ang^3
#
#
#
# Elastic Constant Matrix: (Units=GPa)
#
#
# Indices 1 2 3 4 5 6 
#
# 1 84.8848 20.2671 19.2122 0.0000 0.0000 0.0000
# 2 20.2671 127.0899 48.5661 0.0000 0.0000 0.0000
# 3 19.2122 48.5661 156.2136 0.0000 0.0000 0.0000
# 4 0.0000 0.0000 0.0000 -10.5597 0.0000 0.0000
# 5 0.0000 0.0000 0.0000 0.0000 72.3295 0.0000
# 6 0.0000 0.0000 0.0000 0.0000 0.0000 36.6682
#
#
#
# Elastic Compliance Matrix: (Units=1/GPa)
#
#
# Indices 1 2 3 4 5 6 
#
# 1 0.012392 -0.001582 -0.001032 0.000000 0.000000 0.000000
# 2 -0.001582 0.009131 -0.002644 0.000000 0.000000 0.000000
# 3 -0.001032 -0.002644 0.007351 0.000000 0.000000 0.000000
# 4 0.000000 0.000000 0.000000 -0.094700 0.000000 0.000000
# 5 0.000000 0.000000 0.000000 0.000000 0.013826 0.000000
# 6 0.000000 0.000000 0.000000 0.000000 0.000000 0.027272
#
#
# Mechanical properties :
#
#
# Convention : Reuss Voigt Hill
#
# Bulk Modulus (GPa) = 54.47485 60.47546 57.47516
# Shear Modulus (GPa) = -617.78779 38.36380 -289.71199
#
# Velocity S-wave (km/s) = -16.58300 4.13242 -11.35604
# Velocity P-wave (km/s) = 18.50440 7.04902 12.09802
#
# Compressibility (1/GPa) = 0.01835709
#
# Stress axis : x y z
#
# Youngs Moduli (GPa) = 80.69752 109.51491 136.04404
#
# Poissons Ratio (x) = 0.17322 0.14044
# Poissons Ratio (y) = 0.12764 0.35974
# Poissons Ratio (z) = 0.08331 0.28959
#
# Static dielectric constant tensor:
#      x y z
#    x 2.062510 0.000000 0.000000 
#    y 0.000000 1.878610 0.000000 
#    z 0.000000 0.000000 1.803310 
# 
# From -- ./inp_files/57657.got.cif
#   From: 2010.05.17/outbox.cif.g08.bks.cpg/sg66_29_cif.got.tgz:57657.got - 2010.06.03 17:51:23.
