data_PCOD9497437
_publ_section_title
;
Structure prediction by ZEFSAII (Michael W. Deem and Ramdas Pophale) SiO2 
 PCOD9497437
Probable space group: C C C M
;
_chemical_formula_sum "Si O2"
_cell_formula_units_Z 96
_cell_length_a 10.626457
_cell_length_b 15.271899
_cell_length_c 24.345745
_cell_angle_alpha 90.000000
_cell_angle_beta 90.000000
_cell_angle_gamma 90.000000
_cell_volume 3950.977907
_symmetry_space_group_name_H-M "C C C M"
_symmetry_group_IT_number 66
_symmetry_cell_setting 'orthorhombic'
loop_
_space_group_symop_operation_xyz
x,y,z
-x,-y,z
x,-y,1/2-z
-x,y,1/2-z
-x,-y,-z
x,y,-z
-x,y,1/2+z
x,-y,1/2+z
1/2+x,1/2+y,z
1/2-x,1/2-y,z
1/2+x,1/2-y,1/2-z
1/2-x,1/2+y,1/2-z
1/2-x,1/2-y,-z
1/2+x,1/2+y,-z
1/2-x,1/2+y,1/2+z
1/2+x,1/2-y,1/2+z
loop_
_atom_site_type_symbol
_atom_site_label
_atom_site_fract_x
_atom_site_fract_y
_atom_site_fract_z
Si Si1 0.786219 0.098051 0.938071
Si Si2 0.934421 0.594398 0.156594
Si Si3 0.524030 0.605440 0.864432
Si Si4 0.254590 0.109834 0.061708
Si Si5 0.796249 0.852148 0.773061
Si Si6 0.683487 0.158728 0.164468
O O1 0.674821 0.118265 0.896104
O O2 0.904633 0.130704 0.902150
O O3 0.782887 0.993141 0.942241
O O4 0.782163 0.133111 0.000000
O O5 0.882508 0.617375 0.096149
O O6 0.807822 0.595431 0.192080
O O7 0.000000 0.500000 0.159571
O O8 0.038263 0.659970 0.181706
O O9 0.500000 0.500000 0.860436
O O10 0.639590 0.643009 0.901443
O O11 0.571345 0.635767 0.804209
O O12 0.262295 0.144189 0.000000
O O13 0.750000 0.750000 0.773743
O O14 0.772671 0.885154 0.710618
O O15 0.750000 0.250000 0.157560
#
# Coordination Sequence:
#
# PCOD9497437 Si02
#       6
#    16  16  16  16  16  16
#     4  10  20  37  62  90 125 161 206 261 314 371
#     4  11  22  42  65  95 124 165 213 264 308 365
#     4   9  19  38  63  94 123 161 211 265 313 364
#     4   9  18  36  63  92 123 163 211 258 312 372
#     4  10  24  43  65  89 126 172 208 255 316 384
#     4  11  25  41  60  89 127 169 209 252 322 380
#
# _framework density 24.297784
#
# number of rings (size 3 to 8) (size 9 to 14) (size 15 to 20)
#    0.000    2.000    1.667    1.000    2.333    5.333 
#    0.000    2.500    0.000    2.500    0.000    0.000 
#    0.000    0.000    0.000    0.000    0.000    0.000 
#
# Total GULP energy -267646.401014 kJ/mol
# GULP energy per Si atom -5575.966688 kJ/mol
# Density = 2.424248 g / cm^3
# Si number density = 24.297784 Si / 1000 Ang^3
#
#
#
# Elastic Constant Matrix: (Units=GPa)
#
#
# Indices 1 2 3 4 5 6 
#
# 1 108.0195 17.4012 39.9233 0.0000 0.0000 0.0000
# 2 17.4012 51.7186 16.4482 0.0000 0.0000 0.0000
# 3 39.9233 16.4482 212.8732 0.0000 0.0000 0.0000
# 4 0.0000 0.0000 0.0000 26.2487 0.0000 0.0000
# 5 0.0000 0.0000 0.0000 0.0000 1.7266 0.0000
# 6 0.0000 0.0000 0.0000 0.0000 0.0000 28.4735
#
#
#
# Elastic Compliance Matrix: (Units=1/GPa)
#
#
# Indices 1 2 3 4 5 6 
#
# 1 0.010366 -0.002942 -0.001717 0.000000 0.000000 0.000000
# 2 -0.002942 0.020657 -0.001044 0.000000 0.000000 0.000000
# 3 -0.001717 -0.001044 0.005100 0.000000 0.000000 0.000000
# 4 0.000000 0.000000 0.000000 0.038097 0.000000 0.000000
# 5 0.000000 0.000000 0.000000 0.000000 0.579169 0.000000
# 6 0.000000 0.000000 0.000000 0.000000 0.000000 0.035120
#
#
# Mechanical properties :
#
#
# Convention : Reuss Voigt Hill
#
# Bulk Modulus (GPa) = 40.45682 57.79519 49.12601
# Shear Modulus (GPa) = 7.06059 31.21233 19.13646
#
# Velocity S-wave (km/s) = 1.70651 3.58799 2.80943
# Velocity P-wave (km/s) = 4.53536 6.40333 5.54852
#
# Compressibility (1/GPa) = 0.02471771
#
# Stress axis : x y z
#
# Youngs Moduli (GPa) = 96.46923 48.40896 196.06662
#
# Poissons Ratio (x) = 0.14241 0.33661
# Poissons Ratio (y) = 0.28379 0.20478
# Poissons Ratio (z) = 0.16562 0.05056
#
# Static dielectric constant tensor:
#      x y z
#    x 1.982510 0.000000 0.000000 
#    y 0.000000 2.022270 0.000000 
#    z 0.000000 0.000000 1.997790 
# 
# From -- ./inp_files/56932.got.cif
#   From: 2010.05.17/outbox.cif.g08.bks.cpg/sg66_29_cif.got.tgz:56932.got - 2010.06.03 17:51:23.
