data_PCOD9497273
_publ_section_title
;
Structure prediction by ZEFSAII (Michael W. Deem and Ramdas Pophale) SiO2 
 PCOD9497273
Probable space group: C C C M
;
_chemical_formula_sum "Si O2"
_cell_formula_units_Z 112
_cell_length_a 11.729314
_cell_length_b 31.699996
_cell_length_c 14.212123
_cell_angle_alpha 90.000000
_cell_angle_beta 90.000000
_cell_angle_gamma 90.000000
_cell_volume 5284.340302
_symmetry_space_group_name_H-M "C C C M"
_symmetry_group_IT_number 66
_symmetry_cell_setting 'orthorhombic'
loop_
_space_group_symop_operation_xyz
x,y,z
-x,-y,z
x,-y,1/2-z
-x,y,1/2-z
-x,-y,-z
x,y,-z
-x,y,1/2+z
x,-y,1/2+z
1/2+x,1/2+y,z
1/2-x,1/2-y,z
1/2+x,1/2-y,1/2-z
1/2-x,1/2+y,1/2-z
1/2-x,1/2-y,-z
1/2+x,1/2+y,-z
1/2-x,1/2+y,1/2+z
1/2+x,1/2-y,1/2+z
loop_
_atom_site_type_symbol
_atom_site_label
_atom_site_fract_x
_atom_site_fract_y
_atom_site_fract_z
Si Si1 0.758531 0.895793 0.111851
Si Si2 0.113495 0.700639 0.113399
Si Si3 0.387468 0.627228 0.222435
Si Si4 0.006272 0.387569 0.613883
Si Si5 0.274914 0.935066 0.113647
Si Si6 0.614721 0.706630 0.612354
Si Si7 0.127692 0.013869 0.885984
O O1 0.816720 0.863227 0.183253
O O2 0.624602 0.897022 0.135555
O O3 0.821607 0.939983 0.134966
O O4 0.771508 0.887229 0.000000
O O5 0.051322 0.658350 0.147535
O O6 0.249211 0.701172 0.130978
O O7 0.073476 0.747156 0.144155
O O8 0.101733 0.700383 0.000000
O O9 0.500000 0.601423 0.250000
O O10 0.306173 0.601403 0.153384
O O11 0.435144 0.667236 0.166319
O O12 0.011460 0.386266 0.500000
O O13 0.096945 0.423166 0.643524
O O14 0.219573 0.978878 0.144972
O O15 0.271625 0.934096 0.000000
O O16 0.598689 0.703414 0.500000
O O17 0.124192 0.012646 0.000000
O O18 0.000000 0.000000 0.855873
#
# Coordination Sequence:
#
# PCOD9497273 Si02
#       7
#    16  16  16  16  16  16  16
#     4  10  23  40  56  83 123 161 200 244 294 359
#     4   8  14  30  59  88 115 148 187 239 301 354
#     4  12  24  36  55  84 115 155 204 240 297 354
#     4   9  17  34  61  88 116 153 193 237 304 365
#     4  10  20  36  61  88 113 145 196 254 297 350
#     4   9  17  33  58  88 118 145 191 251 294 349
#     4   9  18  35  58  83 116 161 201 239 294 346
#
# _framework density 21.194700000000001
#
# number of rings (size 3 to 8) (size 9 to 14) (size 15 to 20)
#    0.000    2.429    1.429    2.143    0.000    4.000 
#    0.000    7.143    0.000    1.714    0.000    6.000 
#    0.000    0.000    0.000    0.000    0.000    0.000 
#
# Total GULP energy -312348.475301 kJ/mol
# GULP energy per Si atom -5577.651345 kJ/mol
# Density = 2.114646 g / cm^3
# Si number density = 21.194700 Si / 1000 Ang^3
#
#
#
# Elastic Constant Matrix: (Units=GPa)
#
#
# Indices 1 2 3 4 5 6 
#
# 1 134.4855 45.9116 20.4866 0.0000 0.0000 0.0000
# 2 45.9116 100.0069 21.6944 0.0000 0.0000 0.0000
# 3 20.4866 21.6944 74.9384 0.0000 0.0000 0.0000
# 4 0.0000 0.0000 0.0000 3.0330 0.0000 0.0000
# 5 0.0000 0.0000 0.0000 0.0000 18.2907 0.0000
# 6 0.0000 0.0000 0.0000 0.0000 0.0000 16.7332
#
#
#
# Elastic Compliance Matrix: (Units=1/GPa)
#
#
# Indices 1 2 3 4 5 6 
#
# 1 0.008942 -0.003814 -0.001340 0.000000 0.000000 0.000000
# 2 -0.003814 0.012296 -0.002517 0.000000 0.000000 0.000000
# 3 -0.001340 -0.002517 0.014439 0.000000 0.000000 0.000000
# 4 0.000000 0.000000 0.000000 0.329701 0.000000 0.000000
# 5 0.000000 0.000000 0.000000 0.000000 0.054673 0.000000
# 6 0.000000 0.000000 0.000000 0.000000 0.000000 0.059761
#
#
# Mechanical properties :
#
#
# Convention : Reuss Voigt Hill
#
# Bulk Modulus (GPa) = 49.17763 53.95734 51.56749
# Shear Modulus (GPa) = 9.96145 22.36727 16.16436
#
# Velocity S-wave (km/s) = 2.17029 3.25210 2.76463
# Velocity P-wave (km/s) = 5.43446 6.29402 5.87997
#
# Compressibility (1/GPa) = 0.02033445
#
# Stress axis : x y z
#
# Youngs Moduli (GPa) = 111.83024 81.32412 69.25508
#
# Poissons Ratio (x) = 0.31021 0.09282
# Poissons Ratio (y) = 0.42657 0.17431
# Poissons Ratio (z) = 0.14989 0.20469
#
# Static dielectric constant tensor:
#      x y z
#    x 1.850260 0.000000 0.000000 
#    y 0.000000 1.823150 0.000000 
#    z 0.000000 0.000000 1.775070 
# 
# From -- ./inp_files/27028.got.cif
#   From: 2010.05.17/outbox.cif.g08.bks.cpg/sg66_14_cif.got.tgz:27028.got - 2010.06.03 17:51:23.
