data_PCOD9497200
_publ_section_title
;
Structure prediction by ZEFSAII (Michael W. Deem and Ramdas Pophale) SiO2 
 PCOD9497200
Probable space group: C C C M
;
_chemical_formula_sum "Si O2"
_cell_formula_units_Z 72
_cell_length_a 16.259835
_cell_length_b 10.420334
_cell_length_c 20.623754
_cell_angle_alpha 90.000000
_cell_angle_beta 90.000000
_cell_angle_gamma 90.000000
_cell_volume 3494.342686
_symmetry_space_group_name_H-M "C C C M"
_symmetry_group_IT_number 66
_symmetry_cell_setting 'orthorhombic'
loop_
_space_group_symop_operation_xyz
x,y,z
-x,-y,z
x,-y,1/2-z
-x,y,1/2-z
-x,-y,-z
x,y,-z
-x,y,1/2+z
x,-y,1/2+z
1/2+x,1/2+y,z
1/2-x,1/2-y,z
1/2+x,1/2-y,1/2-z
1/2-x,1/2+y,1/2-z
1/2-x,1/2-y,-z
1/2+x,1/2+y,-z
1/2-x,1/2+y,1/2+z
1/2+x,1/2-y,1/2+z
loop_
_atom_site_type_symbol
_atom_site_label
_atom_site_fract_x
_atom_site_fract_y
_atom_site_fract_z
Si Si1 0.860800 0.000000 0.750000
Si Si2 0.059221 0.871459 0.000000
Si Si3 0.408592 0.951067 0.500000
Si Si4 0.739815 0.480913 0.000000
Si Si5 0.299038 0.378735 0.869537
Si Si6 0.039099 0.736701 0.609070
Si Si7 0.500000 0.717810 0.750000
O O1 0.802325 0.978634 0.811391
O O2 0.921278 0.877319 0.741316
O O3 0.156684 0.898150 0.000000
O O4 0.032847 0.791022 0.063578
O O5 0.000000 0.000000 0.000000
O O6 0.410711 0.865793 0.565728
O O7 0.500000 0.000000 0.500000
O O8 0.336354 0.056327 0.500000
O O9 0.733758 0.567322 0.063736
O O10 0.250000 0.250000 0.851177
O O11 0.394803 0.349151 0.881788
O O12 0.011604 0.704846 0.682475
#
# Coordination Sequence:
#
# PCOD9497200 Si02
#       7
#     8   8   8   8  16  16   8
#     4   9  20  32  52  88 125 148 188 240 305 350
#     4  11  19  29  58  98 120 135 187 252 311 346
#     4  11  24  42  58  80 117 167 204 243 286 357
#     4  12  20  34  60  91 117 150 195 249 294 350
#     4  11  19  33  59  89 118 151 191 246 300 357
#     4  10  20  36  58  87 117 152 197 244 301 362
#     4   9  18  34  57  82 118 153 188 246 305 352
#
# _framework density 20.604733
#
# number of rings (size 3 to 8) (size 9 to 14) (size 15 to 20)
#    0.000    1.556    4.444    2.333    3.111    0.000 
#    0.000    7.222    0.000    0.000    0.000    0.000 
#    0.000    0.000    0.000    0.000    0.000    0.000 
#
# Total GULP energy -200566.339405 kJ/mol
# GULP energy per Si atom -5571.287206 kJ/mol
# Density = 2.055784 g / cm^3
# Si number density = 20.604733 Si / 1000 Ang^3
#
#
#
# Elastic Constant Matrix: (Units=GPa)
#
#
# Indices 1 2 3 4 5 6 
#
# 1 132.7771 22.9098 46.4102 0.0000 0.0000 0.0000
# 2 22.9098 22.9820 30.7521 0.0000 0.0000 0.0000
# 3 46.4102 30.7521 185.4377 0.0000 0.0000 0.0000
# 4 0.0000 0.0000 0.0000 -203.9994 0.0000 0.0000
# 5 0.0000 0.0000 0.0000 0.0000 96.1409 0.0000
# 6 0.0000 0.0000 0.0000 0.0000 0.0000 31.1340
#
#
#
# Elastic Compliance Matrix: (Units=1/GPa)
#
#
# Indices 1 2 3 4 5 6 
#
# 1 0.009241 -0.007861 -0.001009 0.000000 0.000000 0.000000
# 2 -0.007861 0.062609 -0.008415 0.000000 0.000000 0.000000
# 3 -0.001009 -0.008415 0.007041 0.000000 0.000000 0.000000
# 4 0.000000 0.000000 0.000000 -0.004902 0.000000 0.000000
# 5 0.000000 0.000000 0.000000 0.000000 0.010401 0.000000
# 6 0.000000 0.000000 0.000000 0.000000 0.000000 0.032119
#
#
# Mechanical properties :
#
#
# Convention : Reuss Voigt Hill
#
# Bulk Modulus (GPa) = 22.56354 60.14899 41.35627
# Shear Modulus (GPa) = 30.14704 0.73011 15.43857
#
# Velocity S-wave (km/s) = 3.82921 0.59591 2.74026
# Velocity P-wave (km/s) = 5.52494 5.45240 5.48879
#
# Compressibility (1/GPa) = 0.04431928
#
# Stress axis : x y z
#
# Youngs Moduli (GPa) = 108.21909 15.97203 142.03089
#
# Poissons Ratio (x) = 0.12556 0.14330
# Poissons Ratio (y) = 0.85075 1.19524
# Poissons Ratio (z) = 0.10919 0.13441
#
# Static dielectric constant tensor:
#      x y z
#    x 1.837180 0.000000 0.000000 
#    y 0.000000 1.811650 0.000000 
#    z 0.000000 0.000000 1.797220 
# 
# From -- ./inp_files/50802.got.cif
#   From: 2010.05.17/outbox.cif.g08.bks.cpg/sg66_26_cif.got.tgz:50802.got - 2010.06.03 17:51:23.
