data_PCOD9497643
_publ_section_title
;
Structure prediction by ZEFSAII (Michael W. Deem and Ramdas Pophale) SiO2 
 PCOD9497643
Probable space group: C C C M
;
_chemical_formula_sum "Si O2"
_cell_formula_units_Z 76
_cell_length_a 27.311057
_cell_length_b 18.525716
_cell_length_c 10.200976
_cell_angle_alpha 90.000000
_cell_angle_beta 90.000000
_cell_angle_gamma 90.000000
_cell_volume 5161.254047
_symmetry_space_group_name_H-M "C C C M"
_symmetry_group_IT_number 66
_symmetry_cell_setting 'orthorhombic'
loop_
_space_group_symop_operation_xyz
x,y,z
-x,-y,z
x,-y,1/2-z
-x,y,1/2-z
-x,-y,-z
x,y,-z
-x,y,1/2+z
x,-y,1/2+z
1/2+x,1/2+y,z
1/2-x,1/2-y,z
1/2+x,1/2-y,1/2-z
1/2-x,1/2+y,1/2-z
1/2-x,1/2-y,-z
1/2+x,1/2+y,-z
1/2-x,1/2+y,1/2+z
1/2+x,1/2-y,1/2+z
loop_
_atom_site_type_symbol
_atom_site_label
_atom_site_fract_x
_atom_site_fract_y
_atom_site_fract_z
Si Si1 0.365493 0.096510 0.000000
Si Si2 0.650180 0.849534 0.500000
Si Si3 0.062423 0.536910 0.000000
Si Si4 0.787396 0.852002 0.844786
Si Si5 0.000000 0.500000 0.250000
Si Si6 0.822907 0.304930 0.279578
Si Si7 0.778292 0.519035 0.500000
Si Si8 0.710731 0.500000 0.750000
O O1 0.357556 0.147444 0.873826
O O2 0.412220 0.043231 0.000000
O O3 0.320212 0.041020 0.000000
O O4 0.602729 0.900551 0.500000
O O5 0.656062 0.806016 0.366365
O O6 0.695435 0.904733 0.500000
O O7 0.033307 0.541517 0.860123
O O8 0.815822 0.777188 0.825278
O O9 0.732092 0.839451 0.789251
O O10 0.812858 0.921941 0.779457
O O11 0.782060 0.863878 0.000000
O O12 0.745196 0.511227 0.625989
#
# Coordination Sequence:
#
# PCOD9497643 Si02
#       8
#     8   8   8  16   4  16   8   8
#     4  11  17  32  50  65  84 123 160 194 239 279
#     4  11  21  30  44  73  88 111 160 208 239 265
#     4  10  22  33  56  72  98 126 158 192 246 282
#     4  11  20  31  43  60  85 129 153 209 252 280
#     4  10  20  40  48  74 104 122 148 192 236 322
#     4  11  19  30  45  61  91 114 161 207 251 271
#     4  11  18  27  40  63  82 108 150 214 224 273
#     4  12  18  29  42  56  82 119 160 191 254 272
#
# _framework density 14.725103000000001
#
# number of rings (size 3 to 8) (size 9 to 14) (size 15 to 20)
#    0.000    1.053    7.368    1.895    0.000    5.895 
#    0.000    0.000    0.000    0.000    0.000    0.000 
#    0.000    0.000    0.000    0.000    0.000   73.684 
#
# Total GULP energy -211620.737123 kJ/mol
# GULP energy per Si atom -5568.966766 kJ/mol
# Density = 1.469159 g / cm^3
# Si number density = 14.725103 Si / 1000 Ang^3
#
#
#
# Elastic Constant Matrix: (Units=GPa)
#
#
# Indices 1 2 3 4 5 6 
#
# 1 29.8068 10.5282 23.1615 0.0000 0.0000 0.0000
# 2 10.5282 93.7757 23.0804 0.0000 0.0000 0.0000
# 3 23.1615 23.0804 127.1462 0.0000 0.0000 0.0000
# 4 0.0000 0.0000 0.0000 22.6747 0.0000 0.0000
# 5 0.0000 0.0000 0.0000 0.0000 16.9038 0.0000
# 6 0.0000 0.0000 0.0000 0.0000 0.0000 7.0267
#
#
#
# Elastic Compliance Matrix: (Units=1/GPa)
#
#
# Indices 1 2 3 4 5 6 
#
# 1 0.039775 -0.002808 -0.006736 0.000000 0.000000 0.000000
# 2 -0.002808 0.011361 -0.001551 0.000000 0.000000 0.000000
# 3 -0.006736 -0.001551 0.009374 0.000000 0.000000 0.000000
# 4 0.000000 0.000000 0.000000 0.044102 0.000000 0.000000
# 5 0.000000 0.000000 0.000000 0.000000 0.059158 0.000000
# 6 0.000000 0.000000 0.000000 0.000000 0.000000 0.142314
#
#
# Mechanical properties :
#
#
# Convention : Reuss Voigt Hill
#
# Bulk Modulus (GPa) = 26.09564 40.47432 33.28498
# Shear Modulus (GPa) = 14.66076 22.25162 18.45619
#
# Velocity S-wave (km/s) = 3.15878 3.89155 3.54416
# Velocity P-wave (km/s) = 5.57353 6.90930 6.27705
#
# Compressibility (1/GPa) = 0.03832058
#
# Stress axis : x y z
#
# Youngs Moduli (GPa) = 25.14120 88.02315 106.68338
#
# Poissons Ratio (x) = 0.24714 0.71862
# Poissons Ratio (y) = 0.07059 0.16544
# Poissons Ratio (z) = 0.16935 0.13651
#
# Static dielectric constant tensor:
#      x y z
#    x 1.476190 0.000000 0.000000 
#    y 0.000000 1.520960 0.000000 
#    z 0.000000 0.000000 1.501740 
# 
# From -- ./inp_files/10129.got.cif
#   From: 2010.05.17/outbox.cif.g08.bks.cpg/sg66_6_cif.got.tgz:10129.got - 2010.06.03 17:51:23.
