data_PCOD9497482
_publ_section_title
;
Structure prediction by ZEFSAII (Michael W. Deem and Ramdas Pophale) SiO2 
 PCOD9497482
Probable space group: C C C M
;
_chemical_formula_sum "Si O2"
_cell_formula_units_Z 72
_cell_length_a 20.997558
_cell_length_b 17.734840
_cell_length_c 10.649072
_cell_angle_alpha 90.000000
_cell_angle_beta 90.000000
_cell_angle_gamma 90.000000
_cell_volume 3965.590154
_symmetry_space_group_name_H-M "C C C M"
_symmetry_group_IT_number 66
_symmetry_cell_setting 'orthorhombic'
loop_
_space_group_symop_operation_xyz
x,y,z
-x,-y,z
x,-y,1/2-z
-x,y,1/2-z
-x,-y,-z
x,y,-z
-x,y,1/2+z
x,-y,1/2+z
1/2+x,1/2+y,z
1/2-x,1/2-y,z
1/2+x,1/2-y,1/2-z
1/2-x,1/2+y,1/2-z
1/2-x,1/2-y,-z
1/2+x,1/2+y,-z
1/2-x,1/2+y,1/2+z
1/2+x,1/2-y,1/2+z
loop_
_atom_site_type_symbol
_atom_site_label
_atom_site_fract_x
_atom_site_fract_y
_atom_site_fract_z
Si Si1 0.097984 0.612676 0.000000
Si Si2 0.674511 0.731755 0.854997
Si Si3 0.631628 0.111503 0.723606
Si Si4 0.732627 0.164288 0.000000
Si Si5 0.225548 0.085613 0.755880
Si Si6 0.964464 0.580990 0.000000
O O1 0.111689 0.578197 0.860105
O O2 0.024998 0.636890 0.000000
O O3 0.156591 0.668868 0.000000
O O4 0.750000 0.750000 0.843813
O O5 0.638439 0.796498 0.776752
O O6 0.675805 0.644037 0.816901
O O7 0.655634 0.741202 0.000000
O O8 0.702909 0.085095 0.682956
O O9 0.579200 0.091431 0.621121
O O10 0.750000 0.250000 0.000000
O O11 0.758243 0.120130 0.120083
O O12 0.202986 0.000000 0.750000
O O13 0.000000 0.500000 0.000000
#
# Coordination Sequence:
#
# PCOD9497482 Si02
#       6
#     8  16  16   8  16   8
#     4  10  22  36  54  73 106 140 196 230 272 326
#     4   9  17  33  54  77 103 144 188 232 284 345
#     4  10  21  38  54  75 110 157 191 234 281 331
#     4  10  20  38  53  75 109 151 180 238 304 350
#     4  10  21  30  56  82 111 139 192 239 291 343
#     4  12  26  36  54  76 114 160 206 236 263 323
#
# _framework density 18.156188
#
# number of rings (size 3 to 8) (size 9 to 14) (size 15 to 20)
#    0.000    2.000    1.111    4.000    9.333    0.889 
#    0.000    0.000    0.000    0.000    0.000    0.000 
#    0.000   21.333    0.000    0.000    0.000    0.000 
#
# Total GULP energy -200435.180448 kJ/mol
# GULP energy per Si atom -5567.643901 kJ/mol
# Density = 1.811486 g / cm^3
# Si number density = 18.156188 Si / 1000 Ang^3
#
#
#
# Elastic Constant Matrix: (Units=GPa)
#
#
# Indices 1 2 3 4 5 6 
#
# 1 46.7689 20.6697 28.5692 0.0000 0.0000 0.0000
# 2 20.6697 145.0827 25.4529 0.0000 0.0000 0.0000
# 3 28.5692 25.4529 103.0439 0.0000 0.0000 0.0000
# 4 0.0000 0.0000 0.0000 12.7057 0.0000 0.0000
# 5 0.0000 0.0000 0.0000 0.0000 22.9911 0.0000
# 6 0.0000 0.0000 0.0000 0.0000 0.0000 21.7001
#
#
#
# Elastic Compliance Matrix: (Units=1/GPa)
#
#
# Indices 1 2 3 4 5 6 
#
# 1 0.026657 -0.002615 -0.006745 0.000000 0.000000 0.000000
# 2 -0.002615 0.007461 -0.001118 0.000000 0.000000 0.000000
# 3 -0.006745 -0.001118 0.011851 0.000000 0.000000 0.000000
# 4 0.000000 0.000000 0.000000 0.078705 0.000000 0.000000
# 5 0.000000 0.000000 0.000000 0.000000 0.043495 0.000000
# 6 0.000000 0.000000 0.000000 0.000000 0.000000 0.046083
#
#
# Mechanical properties :
#
#
# Convention : Reuss Voigt Hill
#
# Bulk Modulus (GPa) = 39.97720 49.36434 44.67077
# Shear Modulus (GPa) = 20.53003 26.15964 23.34483
#
# Velocity S-wave (km/s) = 3.36630 3.79992 3.58967
# Velocity P-wave (km/s) = 6.09718 6.81911 6.46823
#
# Compressibility (1/GPa) = 0.02501426
#
# Stress axis : x y z
#
# Youngs Moduli (GPa) = 37.51292 134.02553 84.38206
#
# Poissons Ratio (x) = 0.35041 0.56916
# Poissons Ratio (y) = 0.09808 0.09435
# Poissons Ratio (z) = 0.25303 0.14986
#
# Static dielectric constant tensor:
#      x y z
#    x 1.618610 0.000000 0.000000 
#    y 0.000000 1.667000 0.000000 
#    z 0.000000 0.000000 1.698470 
# 
# From -- ./inp_files/17501.got.cif
#   From: 2010.05.17/outbox.cif.g08.bks.cpg/sg66_9_cif.got.tgz:17501.got - 2010.06.03 17:51:23.
