data_PCOD9497475
_publ_section_title
;
Structure prediction by ZEFSAII (Michael W. Deem and Ramdas Pophale) SiO2 
 PCOD9497475
Probable space group: C C C M
;
_chemical_formula_sum "Si O2"
_cell_formula_units_Z 96
_cell_length_a 23.133302
_cell_length_b 12.275082
_cell_length_c 17.587238
_cell_angle_alpha 90.000000
_cell_angle_beta 90.000000
_cell_angle_gamma 90.000000
_cell_volume 4994.128012
_symmetry_space_group_name_H-M "C C C M"
_symmetry_group_IT_number 66
_symmetry_cell_setting 'orthorhombic'
loop_
_space_group_symop_operation_xyz
x,y,z
-x,-y,z
x,-y,1/2-z
-x,y,1/2-z
-x,-y,-z
x,y,-z
-x,y,1/2+z
x,-y,1/2+z
1/2+x,1/2+y,z
1/2-x,1/2-y,z
1/2+x,1/2-y,1/2-z
1/2-x,1/2+y,1/2-z
1/2-x,1/2-y,-z
1/2+x,1/2+y,-z
1/2-x,1/2+y,1/2+z
1/2+x,1/2-y,1/2+z
loop_
_atom_site_type_symbol
_atom_site_label
_atom_site_fract_x
_atom_site_fract_y
_atom_site_fract_z
Si Si1 0.701684 0.179363 0.916304
Si Si2 0.702547 0.418027 0.590420
Si Si3 0.501785 0.370772 0.840272
Si Si4 0.676524 0.957653 0.836369
Si Si5 0.105542 0.733914 0.409373
Si Si6 0.620358 0.380488 0.916297
O O1 0.750000 0.250000 0.871928
O O2 0.653125 0.268152 0.924295
O O3 0.677360 0.069741 0.883173
O O4 0.726725 0.150999 0.000000
O O5 0.717856 0.422538 0.500000
O O6 0.760183 0.409028 0.640901
O O7 0.658568 0.318522 0.599799
O O8 0.665362 0.526700 0.610975
O O9 0.500000 0.500000 0.859060
O O10 0.500000 0.357913 0.750000
O O11 0.451752 0.297145 0.878677
O O12 0.566250 0.347951 0.866572
O O13 0.626768 0.873667 0.863574
O O14 0.672567 0.000000 0.750000
O O15 0.098975 0.710873 0.500000
O O16 0.600602 0.420089 0.000000
#
# Coordination Sequence:
#
# PCOD9497475 Si02
#       6
#    16  16  16  16  16  16
#     4  10  20  38  64  89 120 163 212 261 307 380
#     4  10  20  39  66  96 130 163 209 269 324 394
#     4  11  24  40  64  98 132 169 209 271 335 393
#     4  12  26  39  60  94 132 176 210 265 331 394
#     4  11  24  43  68  95 131 175 222 272 325 398
#     4  10  20  37  66  95 118 159 216 266 311 381
#
# _framework density 19.222574999999999
#
# number of rings (size 3 to 8) (size 9 to 14) (size 15 to 20)
#    0.000    1.333    3.333    2.500    2.333    4.667 
#    0.000    0.833    0.000    3.000    0.000    0.000 
#    0.000    0.000    0.000    0.000    0.000    0.000 
#
# Total GULP energy -267456.227957 kJ/mol
# GULP energy per Si atom -5572.004749 kJ/mol
# Density = 1.917882 g / cm^3
# Si number density = 19.222575 Si / 1000 Ang^3
#
#
#
# Elastic Constant Matrix: (Units=GPa)
#
#
# Indices 1 2 3 4 5 6 
#
# 1 75.8786 16.8294 19.2817 0.0000 0.0000 0.0000
# 2 16.8294 105.7360 23.5643 0.0000 0.0000 0.0000
# 3 19.2817 23.5643 51.2612 0.0000 0.0000 0.0000
# 4 0.0000 0.0000 0.0000 24.8304 0.0000 0.0000
# 5 0.0000 0.0000 0.0000 0.0000 15.5502 0.0000
# 6 0.0000 0.0000 0.0000 0.0000 0.0000 41.8264
#
#
#
# Elastic Compliance Matrix: (Units=1/GPa)
#
#
# Indices 1 2 3 4 5 6 
#
# 1 0.014715 -0.001235 -0.004967 0.000000 0.000000 0.000000
# 2 -0.001235 0.010641 -0.004427 0.000000 0.000000 0.000000
# 3 -0.004967 -0.004427 0.023411 0.000000 0.000000 0.000000
# 4 0.000000 0.000000 0.000000 0.040273 0.000000 0.000000
# 5 0.000000 0.000000 0.000000 0.000000 0.064308 0.000000
# 6 0.000000 0.000000 0.000000 0.000000 0.000000 0.023908
#
#
# Mechanical properties :
#
#
# Convention : Reuss Voigt Hill
#
# Bulk Modulus (GPa) = 36.35215 39.13629 37.74422
# Shear Modulus (GPa) = 24.07497 27.98809 26.03153
#
# Velocity S-wave (km/s) = 3.54281 3.81990 3.68396
# Velocity P-wave (km/s) = 5.97391 6.31342 6.14601
#
# Compressibility (1/GPa) = 0.02750869
#
# Stress axis : x y z
#
# Youngs Moduli (GPa) = 67.95726 93.97914 42.71435
#
# Poissons Ratio (x) = 0.11608 0.21217
# Poissons Ratio (y) = 0.08394 0.18909
# Poissons Ratio (z) = 0.33756 0.41603
#
# Static dielectric constant tensor:
#      x y z
#    x 1.513750 0.000000 0.000000 
#    y 0.000000 1.568470 0.000000 
#    z 0.000000 0.000000 1.556160 
# 
# From -- ./inp_files/43558.got.cif
#   From: 2010.05.17/outbox.cif.g08.bks.cpg/sg66_22_cif.got.tgz:43558.got - 2010.06.03 17:51:23.
