data_PCOD9497684
_publ_section_title
;
Structure prediction by ZEFSAII (Michael W. Deem and Ramdas Pophale) SiO2 
 PCOD9497684
Probable space group: C C C M
;
_chemical_formula_sum "Si O2"
_cell_formula_units_Z 56
_cell_length_a 7.411687
_cell_length_b 14.155655
_cell_length_c 19.732309
_cell_angle_alpha 90.000000
_cell_angle_beta 90.000000
_cell_angle_gamma 90.000000
_cell_volume 2070.260270
_symmetry_space_group_name_H-M "C C C M"
_symmetry_group_IT_number 66
_symmetry_cell_setting 'orthorhombic'
loop_
_space_group_symop_operation_xyz
x,y,z
-x,-y,z
x,-y,1/2-z
-x,y,1/2-z
-x,-y,-z
x,y,-z
-x,y,1/2+z
x,-y,1/2+z
1/2+x,1/2+y,z
1/2-x,1/2-y,z
1/2+x,1/2-y,1/2-z
1/2-x,1/2+y,1/2-z
1/2-x,1/2-y,-z
1/2+x,1/2+y,-z
1/2-x,1/2+y,1/2+z
1/2+x,1/2-y,1/2+z
loop_
_atom_site_type_symbol
_atom_site_label
_atom_site_fract_x
_atom_site_fract_y
_atom_site_fract_z
Si Si1 0.878951 0.094585 0.500000
Si Si2 0.000000 0.742433 0.250000
Si Si3 0.032181 0.100648 0.853929
Si Si4 0.553732 0.795030 0.500000
Si Si5 0.890847 0.400848 0.134438
O O1 0.835540 0.089714 0.581754
O O2 0.930967 0.203984 0.500000
O O3 0.000000 0.000000 0.500000
O O4 0.090570 0.817952 0.302386
O O5 0.909816 0.669987 0.302336
O O6 0.825685 0.112618 0.879867
O O7 0.000000 0.000000 0.819352
O O8 0.750000 0.750000 0.500000
O O9 0.528586 0.858853 0.434512
O O10 0.000000 0.500000 0.148766
#
# Coordination Sequence:
#
# PCOD9497684 Si02
#       5
#     8   8  16   8  16
#     4  10  20  40  74 102 127 167 232 282 335 407
#     4  12  24  40  66  96 132 180 230 272 334 400
#     4  11  24  44  72  99 133 181 228 280 346 410
#     4  12  19  44  75  99 132 176 229 280 346 402
#     4  12  26  43  68 104 138 176 227 288 341 406
#
# _framework density 27.04974
#
# number of rings (size 3 to 8) (size 9 to 14) (size 15 to 20)
#    0.000    0.571    5.714    2.143    0.000    6.857 
#    0.000    0.000    0.000    3.429    0.000    0.000 
#    0.000    0.000    0.000    0.000    0.000    0.000 
#
# Total GULP energy -155873.405891 kJ/mol
# GULP energy per Si atom -5566.907353 kJ/mol
# Density = 2.698817 g / cm^3
# Si number density = 27.049740 Si / 1000 Ang^3
#
#
#
# Elastic Constant Matrix: (Units=GPa)
#
#
# Indices 1 2 3 4 5 6 
#
# 1 132.5560 52.9011 44.9551 0.0000 0.0000 0.0000
# 2 52.9011 196.9280 73.4579 0.0000 0.0000 0.0000
# 3 44.9551 73.4579 222.3078 0.0000 0.0000 0.0000
# 4 0.0000 0.0000 0.0000 81.7714 0.0000 0.0000
# 5 0.0000 0.0000 0.0000 0.0000 5.7439 0.0000
# 6 0.0000 0.0000 0.0000 0.0000 0.0000 28.2531
#
#
#
# Elastic Compliance Matrix: (Units=1/GPa)
#
#
# Indices 1 2 3 4 5 6 
#
# 1 0.008690 -0.001915 -0.001124 0.000000 0.000000 0.000000
# 2 -0.001915 0.006214 -0.001666 0.000000 0.000000 0.000000
# 3 -0.001124 -0.001666 0.005276 0.000000 0.000000 0.000000
# 4 0.000000 0.000000 0.000000 0.012229 0.000000 0.000000
# 5 0.000000 0.000000 0.000000 0.000000 0.174098 0.000000
# 6 0.000000 0.000000 0.000000 0.000000 0.000000 0.035394
#
#
# Mechanical properties :
#
#
# Convention : Reuss Voigt Hill
#
# Bulk Modulus (GPa) = 92.86045 99.38000 96.12023
# Shear Modulus (GPa) = 19.61544 48.51885 34.06715
#
# Velocity S-wave (km/s) = 2.69580 4.23979 3.55269
# Velocity P-wave (km/s) = 6.64032 7.79662 7.24159
#
# Compressibility (1/GPa) = 0.01076885
#
# Stress axis : x y z
#
# Youngs Moduli (GPa) = 115.08126 160.93081 189.53120
#
# Poissons Ratio (x) = 0.30815 0.21312
# Poissons Ratio (y) = 0.22036 0.31577
# Poissons Ratio (z) = 0.12941 0.26812
#
# Static dielectric constant tensor:
#      x y z
#    x 2.434050 0.000000 0.000000 
#    y 0.000000 2.288550 0.000000 
#    z 0.000000 0.000000 2.182500 
# 
# From -- ./inp_files/46450.got.cif
#   From: 2010.05.17/outbox.cif.g08.bks.cpg/sg66_24_cif.got.tgz:46450.got - 2010.06.03 17:51:23.
