data_PCOD9497526
_publ_section_title
;
Structure prediction by ZEFSAII (Michael W. Deem and Ramdas Pophale) SiO2 
 PCOD9497526
Probable space group: C C C M
;
_chemical_formula_sum "Si O2"
_cell_formula_units_Z 96
_cell_length_a 15.172796
_cell_length_b 14.229962
_cell_length_c 23.048759
_cell_angle_alpha 90.000000
_cell_angle_beta 90.000000
_cell_angle_gamma 90.000000
_cell_volume 4976.418615
_symmetry_space_group_name_H-M "C C C M"
_symmetry_group_IT_number 66
_symmetry_cell_setting 'orthorhombic'
loop_
_space_group_symop_operation_xyz
x,y,z
-x,-y,z
x,-y,1/2-z
-x,y,1/2-z
-x,-y,-z
x,y,-z
-x,y,1/2+z
x,-y,1/2+z
1/2+x,1/2+y,z
1/2-x,1/2-y,z
1/2+x,1/2-y,1/2-z
1/2-x,1/2+y,1/2-z
1/2-x,1/2-y,-z
1/2+x,1/2+y,-z
1/2-x,1/2+y,1/2+z
1/2+x,1/2-y,1/2+z
loop_
_atom_site_type_symbol
_atom_site_label
_atom_site_fract_x
_atom_site_fract_y
_atom_site_fract_z
Si Si1 0.857371 0.934083 0.500000
Si Si2 0.054438 0.261299 0.500000
Si Si3 0.660496 0.197919 0.826315
Si Si4 0.104780 0.497697 0.873037
Si Si5 0.352418 0.965168 0.000000
Si Si6 0.664932 0.813164 0.187896
Si Si7 0.991386 0.206210 0.374904
Si Si8 0.000000 0.000000 0.092751
O O1 0.872689 0.821871 0.500000
O O2 0.754152 0.956893 0.500000
O O3 0.914105 0.974971 0.446188
O O4 0.100931 0.362353 0.500000
O O5 0.998165 0.242426 0.441647
O O6 0.750000 0.250000 0.842711
O O7 0.645310 0.099017 0.857888
O O8 0.658714 0.181266 0.757385
O O9 0.582642 0.265969 0.845495
O O10 0.116095 0.483361 0.941759
O O11 0.156995 0.417267 0.838626
O O12 0.000000 0.500000 0.858376
O O13 0.750000 0.750000 0.173542
O O14 0.583189 0.759162 0.160051
O O15 0.978823 0.094794 0.373512
#
# Coordination Sequence:
#
# PCOD9497526 Si02
#       8
#     8   8  16  16   8  16  16   8
#     4   9  21  37  58  90 132 176 210 250 334 410
#     4  10  20  38  62 100 128 167 214 278 324 398
#     4  11  25  43  70  98 125 171 237 277 324 383
#     4  12  25  44  69  97 136 173 220 275 340 398
#     4  12  23  35  66  99 129 163 219 275 332 389
#     4  11  26  45  64  96 133 178 225 272 327 405
#     4  11  22  41  68  92 136 171 219 273 339 385
#     4   9  22  38  59  92 132 170 213 259 328 412
#
# _framework density 19.290982
#
# number of rings (size 3 to 8) (size 9 to 14) (size 15 to 20)
#    0.000    1.167    3.333    2.000    7.000    1.333 
#    0.000    4.167    0.000    0.000    0.000    0.000 
#    0.000    0.000    0.000    0.000    0.000    0.000 
#
# Total GULP energy -268289.343837 kJ/mol
# GULP energy per Si atom -5589.361330 kJ/mol
# Density = 1.924707 g / cm^3
# Si number density = 19.290982 Si / 1000 Ang^3
#
#
#
# Elastic Constant Matrix: (Units=GPa)
#
#
# Indices 1 2 3 4 5 6 
#
# 1 86.4891 -2.0701 24.9277 0.0000 0.0000 0.0000
# 2 -2.0701 87.0489 16.6280 0.0000 0.0000 0.0000
# 3 24.9277 16.6280 50.3186 0.0000 0.0000 0.0000
# 4 0.0000 0.0000 0.0000 17.3688 0.0000 0.0000
# 5 0.0000 0.0000 0.0000 0.0000 23.9304 0.0000
# 6 0.0000 0.0000 0.0000 0.0000 0.0000 23.1173
#
#
#
# Elastic Compliance Matrix: (Units=1/GPa)
#
#
# Indices 1 2 3 4 5 6 
#
# 1 0.013729 0.001735 -0.007375 0.000000 0.000000 0.000000
# 2 0.001735 0.012481 -0.004984 0.000000 0.000000 0.000000
# 3 -0.007375 -0.004984 0.025174 0.000000 0.000000 0.000000
# 4 0.000000 0.000000 0.000000 0.057575 0.000000 0.000000
# 5 0.000000 0.000000 0.000000 0.000000 0.041788 0.000000
# 6 0.000000 0.000000 0.000000 0.000000 0.000000 0.043258
#
#
# Mechanical properties :
#
#
# Convention : Reuss Voigt Hill
#
# Bulk Modulus (GPa) = 33.18198 33.64754 33.41476
# Shear Modulus (GPa) = 22.19289 25.17468 23.68379
#
# Velocity S-wave (km/s) = 3.39548 3.61639 3.50767
# Velocity P-wave (km/s) = 5.71056 5.90912 5.81069
#
# Compressibility (1/GPa) = 0.03013684
#
# Stress axis : x y z
#
# Youngs Moduli (GPa) = 72.83717 80.12106 39.72376
#
# Poissons Ratio (x) = -0.13903 0.29296
# Poissons Ratio (y) = -0.12639 0.19799
# Poissons Ratio (z) = 0.53716 0.39933
#
# Static dielectric constant tensor:
#      x y z
#    x 1.621160 0.000000 0.000000 
#    y 0.000000 1.667140 0.000000 
#    z 0.000000 0.000000 1.690120 
# 
# From -- ./inp_files/49929.got.cif
#   From: 2010.05.17/outbox.cif.g08.bks.cpg/sg66_25_cif.got.tgz:49929.got - 2010.06.03 17:51:23.
