data_PCOD9497948
_publ_section_title
;
Structure prediction by ZEFSAII (Michael W. Deem and Ramdas Pophale) SiO2 
 PCOD9497948
Probable space group: C C C M
;
_chemical_formula_sum "Si O2"
_cell_formula_units_Z 64
_cell_length_a 12.725222
_cell_length_b 10.301746
_cell_length_c 22.849248
_cell_angle_alpha 90.000000
_cell_angle_beta 90.000000
_cell_angle_gamma 90.000000
_cell_volume 2995.353729
_symmetry_space_group_name_H-M "C C C M"
_symmetry_group_IT_number 66
_symmetry_cell_setting 'orthorhombic'
loop_
_space_group_symop_operation_xyz
x,y,z
-x,-y,z
x,-y,1/2-z
-x,y,1/2-z
-x,-y,-z
x,y,-z
-x,y,1/2+z
x,-y,1/2+z
1/2+x,1/2+y,z
1/2-x,1/2-y,z
1/2+x,1/2-y,1/2-z
1/2-x,1/2+y,1/2-z
1/2-x,1/2-y,-z
1/2+x,1/2+y,-z
1/2-x,1/2+y,1/2+z
1/2+x,1/2-y,1/2+z
loop_
_atom_site_type_symbol
_atom_site_label
_atom_site_fract_x
_atom_site_fract_y
_atom_site_fract_z
Si Si1 0.616284 0.819083 0.739763
Si Si2 0.949401 0.854403 0.566527
Si Si3 0.814664 0.084252 0.169283
Si Si4 0.145737 0.211449 0.137559
O O1 0.500000 0.867700 0.750000
O O2 0.699198 0.893713 0.697936
O O3 0.614203 0.674382 0.711443
O O4 0.652297 0.804045 0.806353
O O5 0.933380 0.811766 0.500000
O O6 0.843452 0.860301 0.604974
O O7 0.038878 0.774458 0.601218
O O8 0.000000 0.000000 0.564712
O O9 0.847195 0.935340 0.162408
O O10 0.250000 0.250000 0.101367
#
# Coordination Sequence:
#
# PCOD9497948 Si02
#       4
#    16  16  16  16
#     4  11  21  35  57  84 120 152 195 241 308 359
#     4   9  19  37  61  86 116 159 210 256 293 349
#     4  10  21  37  57  87 117 155 198 248 303 355
#     4  11  21  34  58  89 120 154 197 247 302 363
#
# _framework density 21.366425
#
# number of rings (size 3 to 8) (size 9 to 14) (size 15 to 20)
#    0.000    1.750    5.000    0.750    0.000    1.500 
#    0.000    7.500    0.000    0.000    0.000    7.000 
#    0.000    0.000    0.000    0.000    0.000    0.000 
#
# Total GULP energy -178243.127673 kJ/mol
# GULP energy per Si atom -5570.097740 kJ/mol
# Density = 2.131779 g / cm^3
# Si number density = 21.366425 Si / 1000 Ang^3
#
#
#
# Elastic Constant Matrix: (Units=GPa)
#
#
# Indices 1 2 3 4 5 6 
#
# 1 157.9836 22.4942 78.9256 0.0000 0.0000 0.0000
# 2 22.4942 75.2204 17.3678 0.0000 0.0000 0.0000
# 3 78.9256 17.3678 164.0419 0.0000 0.0000 0.0000
# 4 0.0000 0.0000 0.0000 60.3334 0.0000 0.0000
# 5 0.0000 0.0000 0.0000 0.0000 33.2384 0.0000
# 6 0.0000 0.0000 0.0000 0.0000 0.0000 17.2119
#
#
#
# Elastic Compliance Matrix: (Units=1/GPa)
#
#
# Indices 1 2 3 4 5 6 
#
# 1 0.008526 -0.001643 -0.003928 0.000000 0.000000 0.000000
# 2 -0.001643 0.013944 -0.000686 0.000000 0.000000 0.000000
# 3 -0.003928 -0.000686 0.008059 0.000000 0.000000 0.000000
# 4 0.000000 0.000000 0.000000 0.016575 0.000000 0.000000
# 5 0.000000 0.000000 0.000000 0.000000 0.030086 0.000000
# 6 0.000000 0.000000 0.000000 0.000000 0.000000 0.058099
#
#
# Mechanical properties :
#
#
# Convention : Reuss Voigt Hill
#
# Bulk Modulus (GPa) = 55.50976 70.53567 63.02271
# Shear Modulus (GPa) = 32.50826 40.72064 36.61445
#
# Velocity S-wave (km/s) = 3.90483 4.37031 4.14411
# Velocity P-wave (km/s) = 6.80930 7.65181 7.24282
#
# Compressibility (1/GPa) = 0.01801485
#
# Stress axis : x y z
#
# Youngs Moduli (GPa) = 117.28622 71.71609 124.09042
#
# Poissons Ratio (x) = 0.11781 0.48746
# Poissons Ratio (y) = 0.19266 0.08512
# Poissons Ratio (z) = 0.46073 0.04919
#
# Static dielectric constant tensor:
#      x y z
#    x 2.522140 0.000000 0.000000 
#    y 0.000000 1.843530 0.000000 
#    z 0.000000 0.000000 1.768320 
# 
# From -- ./inp_files/49571.got.cif
#   From: 2010.05.17/outbox.cif.g08.bks.cpg/sg66_25_cif.got.tgz:49571.got - 2010.06.03 17:51:23.
