data_PCOD9497464
_publ_section_title
;
Structure prediction by ZEFSAII (Michael W. Deem and Ramdas Pophale) SiO2 
 PCOD9497464
Probable space group: C C C M
;
_chemical_formula_sum "Si O2"
_cell_formula_units_Z 56
_cell_length_a 11.914019
_cell_length_b 7.315316
_cell_length_c 23.871490
_cell_angle_alpha 90.000000
_cell_angle_beta 90.000000
_cell_angle_gamma 90.000000
_cell_volume 2080.515266
_symmetry_space_group_name_H-M "C C C M"
_symmetry_group_IT_number 66
_symmetry_cell_setting 'orthorhombic'
loop_
_space_group_symop_operation_xyz
x,y,z
-x,-y,z
x,-y,1/2-z
-x,y,1/2-z
-x,-y,-z
x,y,-z
-x,y,1/2+z
x,-y,1/2+z
1/2+x,1/2+y,z
1/2-x,1/2-y,z
1/2+x,1/2-y,1/2-z
1/2-x,1/2+y,1/2-z
1/2-x,1/2-y,-z
1/2+x,1/2+y,-z
1/2-x,1/2+y,1/2+z
1/2+x,1/2-y,1/2+z
loop_
_atom_site_type_symbol
_atom_site_label
_atom_site_fract_x
_atom_site_fract_y
_atom_site_fract_z
Si Si1 0.347879 0.015337 0.937103
Si Si2 0.882024 0.913487 0.598338
Si Si3 0.000000 0.500000 0.652205
Si Si4 0.376776 0.725965 0.778826
O O1 0.216768 0.032865 0.927720
O O2 0.367791 0.795736 0.924489
O O3 0.422664 0.114328 0.890382
O O4 0.379623 0.059868 0.000000
O O5 0.866419 0.904696 0.666293
O O6 0.000000 0.000000 0.584293
O O7 0.907542 0.584913 0.691649
O O8 0.500000 0.687642 0.750000
O O9 0.250000 0.750000 0.753393
#
# Coordination Sequence:
#
# PCOD9497464 Si02
#       4
#    16  16   8  16
#     4  10  20  37  64  92 127 169 207 256 320 378
#     4  10  20  38  61  89 129 163 207 263 313 377
#     4  10  20  42  66  88 130 162 210 264 322 374
#     4  11  23  43  66  93 126 172 217 268 329 382
#
# _framework density 26.916408000000001
#
# number of rings (size 3 to 8) (size 9 to 14) (size 15 to 20)
#    0.000    1.714    5.714    2.571    0.000    5.143 
#    5.143    4.286    0.000    8.571    0.000    0.000 
#    0.000    0.000    0.000    0.000    0.000    0.000 
#
# Total GULP energy -156194.605197 kJ/mol
# GULP energy per Si atom -5578.378757 kJ/mol
# Density = 2.685515 g / cm^3
# Si number density = 26.916408 Si / 1000 Ang^3
#
#
#
# Elastic Constant Matrix: (Units=GPa)
#
#
# Indices 1 2 3 4 5 6 
#
# 1 278.4158 34.0892 51.3570 0.0000 0.0000 0.0000
# 2 34.0892 51.2883 2.7798 0.0000 0.0000 0.0000
# 3 51.3570 2.7798 132.9475 0.0000 0.0000 0.0000
# 4 0.0000 0.0000 0.0000 14.1678 0.0000 0.0000
# 5 0.0000 0.0000 0.0000 0.0000 27.2666 0.0000
# 6 0.0000 0.0000 0.0000 0.0000 0.0000 50.1196
#
#
#
# Elastic Compliance Matrix: (Units=1/GPa)
#
#
# Indices 1 2 3 4 5 6 
#
# 1 0.004214 -0.002716 -0.001571 0.000000 0.000000 0.000000
# 2 -0.002716 0.021270 0.000604 0.000000 0.000000 0.000000
# 3 -0.001571 0.000604 0.008116 0.000000 0.000000 0.000000
# 4 0.000000 0.000000 0.000000 0.070582 0.000000 0.000000
# 5 0.000000 0.000000 0.000000 0.000000 0.036675 0.000000
# 6 0.000000 0.000000 0.000000 0.000000 0.000000 0.019952
#
#
# Mechanical properties :
#
#
# Convention : Reuss Voigt Hill
#
# Bulk Modulus (GPa) = 38.11698 71.01150 54.56424
# Shear Modulus (GPa) = 28.26141 43.27250 35.76695
#
# Velocity S-wave (km/s) = 3.24384 4.01392 3.64925
# Velocity P-wave (km/s) = 5.31244 6.92254 6.17023
#
# Compressibility (1/GPa) = 0.02623503
#
# Stress axis : x y z
#
# Youngs Moduli (GPa) = 237.30000 47.01474 123.21283
#
# Poissons Ratio (x) = 0.12768 0.19358
# Poissons Ratio (y) = 0.64445 -0.07446
# Poissons Ratio (z) = 0.37282 -0.02841
#
# Static dielectric constant tensor:
#      x y z
#    x 2.139340 0.000000 0.000000 
#    y 0.000000 2.253820 0.000000 
#    z 0.000000 0.000000 2.104620 
# 
# From -- ./inp_files/56272.got.cif
#   From: 2010.05.17/outbox.cif.g08.bks.cpg/sg66_29_cif.got.tgz:56272.got - 2010.06.03 17:51:23.
