data_PCOD9497170
_publ_section_title
;
Structure prediction by ZEFSAII (Michael W. Deem and Ramdas Pophale) SiO2 
 PCOD9497170
Probable space group: C C C M
;
_chemical_formula_sum "Si O2"
_cell_formula_units_Z 44
_cell_length_a 20.221419
_cell_length_b 4.989016
_cell_length_c 22.785554
_cell_angle_alpha 90.000000
_cell_angle_beta 90.000000
_cell_angle_gamma 90.000000
_cell_volume 2298.720226
_symmetry_space_group_name_H-M "C C C M"
_symmetry_group_IT_number 66
_symmetry_cell_setting 'orthorhombic'
loop_
_space_group_symop_operation_xyz
x,y,z
-x,-y,z
x,-y,1/2-z
-x,y,1/2-z
-x,-y,-z
x,y,-z
-x,y,1/2+z
x,-y,1/2+z
1/2+x,1/2+y,z
1/2-x,1/2-y,z
1/2+x,1/2-y,1/2-z
1/2-x,1/2+y,1/2-z
1/2-x,1/2-y,-z
1/2+x,1/2+y,-z
1/2-x,1/2+y,1/2+z
1/2+x,1/2-y,1/2+z
loop_
_atom_site_type_symbol
_atom_site_label
_atom_site_fract_x
_atom_site_fract_y
_atom_site_fract_z
Si Si1 0.200728 0.000864 0.500000
Si Si2 0.000000 0.500000 0.750000
Si Si3 0.126914 0.636591 0.691753
Si Si4 0.825687 0.147965 0.125914
O O1 0.250000 0.750000 0.500000
O O2 0.250000 0.250000 0.500000
O O3 0.162043 0.027564 0.438949
O O4 0.949375 0.327289 0.710948
O O5 0.158626 0.500000 0.750000
O O6 0.131977 0.408666 0.642156
O O7 0.160050 0.909018 0.671227
O O8 0.750000 0.250000 0.129091
#
# Coordination Sequence:
#
# PCOD9497170 Si02
#       4
#     8   4  16  16
#     4  10  20  36  56  81 120 159 186 224 292 364
#     4   8  24  42  60  84 112 170 200 232 302 338
#     4  10  22  38  60  84 115 161 190 243 283 355
#     4  11  21  36  59  89 119 150 189 239 296 350
#
# _framework density 19.141085
#
# number of rings (size 3 to 8) (size 9 to 14) (size 15 to 20)
#    1.091    0.727    0.000    6.545    0.000    5.818 
#    0.000    1.818    0.000    6.545    0.000    0.000 
#    0.000    0.000    0.000    0.000    0.000    0.000 
#
# Total GULP energy -122601.181004 kJ/mol
# GULP energy per Si atom -5572.780955 kJ/mol
# Density = 1.909752 g / cm^3
# Si number density = 19.141085 Si / 1000 Ang^3
#
#
#
# Elastic Constant Matrix: (Units=GPa)
#
#
# Indices 1 2 3 4 5 6 
#
# 1 73.1147 37.5620 54.2681 0.0000 0.0000 0.0000
# 2 37.5620 137.5739 38.7337 0.0000 0.0000 0.0000
# 3 54.2681 38.7337 94.7521 0.0000 0.0000 0.0000
# 4 0.0000 0.0000 0.0000 33.2415 0.0000 0.0000
# 5 0.0000 0.0000 0.0000 0.0000 -6.4442 0.0000
# 6 0.0000 0.0000 0.0000 0.0000 0.0000 6.4292
#
#
#
# Elastic Compliance Matrix: (Units=1/GPa)
#
#
# Indices 1 2 3 4 5 6 
#
# 1 0.024943 -0.003151 -0.012998 0.000000 0.000000 0.000000
# 2 -0.003151 0.008612 -0.001716 0.000000 0.000000 0.000000
# 3 -0.012998 -0.001716 0.018700 0.000000 0.000000 0.000000
# 4 0.000000 0.000000 0.000000 0.030083 0.000000 0.000000
# 5 0.000000 0.000000 0.000000 0.000000 -0.155179 0.000000
# 6 0.000000 0.000000 0.000000 0.000000 0.000000 0.155541
#
#
# Mechanical properties :
#
#
# Convention : Reuss Voigt Hill
#
# Bulk Modulus (GPa) = 60.51148 62.95204 61.73176
# Shear Modulus (GPa) = 40.34261 18.30377 29.32319
#
# Velocity S-wave (km/s) = 4.59589 3.09569 3.91826
# Velocity P-wave (km/s) = 7.73595 6.76296 7.26576
#
# Compressibility (1/GPa) = 0.01652579
#
# Stress axis : x y z
#
# Youngs Moduli (GPa) = 40.09089 116.11411 53.47655
#
# Poissons Ratio (x) = 0.36585 0.69509
# Poissons Ratio (y) = 0.12632 0.09177
# Poissons Ratio (z) = 0.52110 0.19926
#
# Static dielectric constant tensor:
#      x y z
#    x 1.655510 0.000000 0.000000 
#    y 0.000000 1.662240 0.000000 
#    z 0.000000 0.000000 1.803640 
# 
# From -- ./inp_files/51386.got.cif
#   From: 2010.05.17/outbox.cif.g08.bks.cpg/sg66_26_cif.got.tgz:51386.got - 2010.06.03 17:51:23.
