data_PCOD9497335
_publ_section_title
;
Structure prediction by ZEFSAII (Michael W. Deem and Ramdas Pophale) SiO2 
 PCOD9497335
Probable space group: C C C M
;
_chemical_formula_sum "Si O2"
_cell_formula_units_Z 72
_cell_length_a 15.687286
_cell_length_b 7.006816
_cell_length_c 25.748220
_cell_angle_alpha 90.000000
_cell_angle_beta 90.000000
_cell_angle_gamma 90.000000
_cell_volume 2830.190955
_symmetry_space_group_name_H-M "C C C M"
_symmetry_group_IT_number 66
_symmetry_cell_setting 'orthorhombic'
loop_
_space_group_symop_operation_xyz
x,y,z
-x,-y,z
x,-y,1/2-z
-x,y,1/2-z
-x,-y,-z
x,y,-z
-x,y,1/2+z
x,-y,1/2+z
1/2+x,1/2+y,z
1/2-x,1/2-y,z
1/2+x,1/2-y,1/2-z
1/2-x,1/2+y,1/2-z
1/2-x,1/2-y,-z
1/2+x,1/2+y,-z
1/2-x,1/2+y,1/2+z
1/2+x,1/2-y,1/2+z
loop_
_atom_site_type_symbol
_atom_site_label
_atom_site_fract_x
_atom_site_fract_y
_atom_site_fract_z
Si Si1 0.000000 0.000000 0.617981
Si Si2 0.172551 0.031609 0.082079
Si Si3 0.075096 0.614973 0.665059
Si Si4 0.357271 0.968061 0.444598
Si Si5 0.744595 0.523575 0.693636
O O1 0.919207 0.931255 0.583239
O O2 0.905206 0.493365 0.609728
O O3 0.035762 0.177398 0.151413
O O4 0.155130 0.237740 0.057315
O O5 0.197921 0.053627 0.142734
O O6 0.239598 0.454890 0.558944
O O7 0.164146 0.584160 0.694794
O O8 0.000000 0.500000 0.691727
O O9 0.395244 0.024947 0.500000
O O10 0.702624 0.500000 0.750000
O O11 0.750000 0.750000 0.684509
#
# Coordination Sequence:
#
# PCOD9497335 Si02
#       5
#     8  16  16  16  16
#     4  10  20  36  68  86 126 178 212 268 348 388
#     4   9  18  35  57  88 125 164 212 270 334 394
#     4  10  22  41  63  94 135 171 220 285 344 411
#     4   9  18  35  65  92 127 179 227 272 335 409
#     4  11  25  40  67  94 129 173 230 284 354 423
#
# _framework density 25.439981
#
# number of rings (size 3 to 8) (size 9 to 14) (size 15 to 20)
#    0.000    2.222    0.000    4.000    9.333    0.889 
#    0.000   14.444    0.000   39.333    0.000    0.000 
#    0.000    0.000    0.000    0.000    0.000    0.000 
#
# Total GULP energy -200886.984945 kJ/mol
# GULP energy per Si atom -5580.194026 kJ/mol
# Density = 2.538208 g / cm^3
# Si number density = 25.439981 Si / 1000 Ang^3
#
#
#
# Elastic Constant Matrix: (Units=GPa)
#
#
# Indices 1 2 3 4 5 6 
#
# 1 145.1366 9.9686 6.7742 0.0000 0.0000 0.0000
# 2 9.9686 136.7220 -1.5191 0.0000 0.0000 0.0000
# 3 6.7742 -1.5191 168.1825 0.0000 0.0000 0.0000
# 4 0.0000 0.0000 0.0000 18.3213 0.0000 0.0000
# 5 0.0000 0.0000 0.0000 0.0000 -7.9331 0.0000
# 6 0.0000 0.0000 0.0000 0.0000 0.0000 29.5659
#
#
#
# Elastic Compliance Matrix: (Units=1/GPa)
#
#
# Indices 1 2 3 4 5 6 
#
# 1 0.006938 -0.000509 -0.000284 0.000000 0.000000 0.000000
# 2 -0.000509 0.007352 0.000087 0.000000 0.000000 0.000000
# 3 -0.000284 0.000087 0.005958 0.000000 0.000000 0.000000
# 4 0.000000 0.000000 0.000000 0.054581 0.000000 0.000000
# 5 0.000000 0.000000 0.000000 0.000000 -0.126054 0.000000
# 6 0.000000 0.000000 0.000000 0.000000 0.000000 0.033823
#
#
# Mechanical properties :
#
#
# Convention : Reuss Voigt Hill
#
# Bulk Modulus (GPa) = 53.08912 53.38759 53.23836
# Shear Modulus (GPa) = -514.90130 36.97865 -238.96132
#
# Velocity S-wave (km/s) = -14.24212 3.81670 -9.70234
# Velocity P-wave (km/s) = 15.79673 6.36036 10.22454
#
# Compressibility (1/GPa) = 0.01883625
#
# Stress axis : x y z
#
# Youngs Moduli (GPa) = 144.12788 136.01385 167.83734
#
# Poissons Ratio (x) = 0.06924 0.04768
# Poissons Ratio (y) = 0.07337 -0.01459
# Poissons Ratio (z) = 0.04094 -0.01182
#
# Static dielectric constant tensor:
#      x y z
#    x 2.050470 0.000000 0.000000 
#    y 0.000000 2.049900 0.000000 
#    z 0.000000 0.000000 1.951720 
# 
# From -- ./inp_files/64991.got.cif
#   From: 2010.05.17/outbox.cif.g08.bks.cpg/sg66_33_cif.got.tgz:64991.got - 2010.06.03 17:51:23.
