data_PCOD9497336
_publ_section_title
;
Structure prediction by ZEFSAII (Michael W. Deem and Ramdas Pophale) SiO2 
 PCOD9497336
Probable space group: C C C M
;
_chemical_formula_sum "Si O2"
_cell_formula_units_Z 80
_cell_length_a 11.866509
_cell_length_b 13.724045
_cell_length_c 25.465051
_cell_angle_alpha 90.000000
_cell_angle_beta 90.000000
_cell_angle_gamma 90.000000
_cell_volume 4147.149168
_symmetry_space_group_name_H-M "C C C M"
_symmetry_group_IT_number 66
_symmetry_cell_setting 'orthorhombic'
loop_
_space_group_symop_operation_xyz
x,y,z
-x,-y,z
x,-y,1/2-z
-x,y,1/2-z
-x,-y,-z
x,y,-z
-x,y,1/2+z
x,-y,1/2+z
1/2+x,1/2+y,z
1/2-x,1/2-y,z
1/2+x,1/2-y,1/2-z
1/2-x,1/2+y,1/2-z
1/2-x,1/2-y,-z
1/2+x,1/2+y,-z
1/2-x,1/2+y,1/2+z
1/2+x,1/2-y,1/2+z
loop_
_atom_site_type_symbol
_atom_site_label
_atom_site_fract_x
_atom_site_fract_y
_atom_site_fract_z
Si Si1 0.983951 0.342145 0.910062
Si Si2 0.365033 0.503273 0.500000
Si Si3 0.620205 0.721506 0.500000
Si Si4 0.080996 0.738879 0.201007
Si Si5 0.693974 0.017805 0.408179
Si Si6 0.268810 0.426476 0.298394
O O1 0.975065 0.297971 0.852279
O O2 0.885847 0.423442 0.920247
O O3 0.104729 0.394172 0.913422
O O4 0.952111 0.258742 0.950882
O O5 0.500000 0.500000 0.500000
O O6 0.353773 0.389663 0.500000
O O7 0.296285 0.537207 0.448346
O O8 0.750000 0.750000 0.500000
O O9 0.167284 0.649843 0.213634
O O10 0.134592 0.845773 0.191243
O O11 0.000000 0.747883 0.250000
O O12 0.739797 0.990943 0.349964
O O13 0.289152 0.500000 0.250000
#
# Coordination Sequence:
#
# PCOD9497336 Si02
#       6
#    16   8   8  16  16  16
#     4  10  20  36  68  95 118 159 210 269 300 363
#     4  12  25  41  59  89 130 167 199 254 315 379
#     4  12  21  37  65  93 124 162 213 256 308 371
#     4  10  21  37  60  91 122 155 204 257 315 366
#     4  10  20  39  63  93 124 158 210 254 313 366
#     4  10  21  38  61  87 122 161 202 253 307 376
#
# _framework density 19.29036
#
# number of rings (size 3 to 8) (size 9 to 14) (size 15 to 20)
#    0.000    1.600    2.000    3.000    2.800    4.000 
#    7.200    2.000    0.000    0.000    0.000    0.000 
#    0.000    0.000    0.000    0.000    0.000    0.000 
#
# Total GULP energy -222723.238824 kJ/mol
# GULP energy per Si atom -5568.080971 kJ/mol
# Density = 1.924645 g / cm^3
# Si number density = 19.290360 Si / 1000 Ang^3
#
#
#
# Elastic Constant Matrix: (Units=GPa)
#
#
# Indices 1 2 3 4 5 6 
#
# 1 122.5829 19.6166 53.4702 0.0000 0.0000 0.0000
# 2 19.6166 46.3675 7.5421 0.0000 0.0000 0.0000
# 3 53.4702 7.5421 75.3188 0.0000 0.0000 0.0000
# 4 0.0000 0.0000 0.0000 46.5573 0.0000 0.0000
# 5 0.0000 0.0000 0.0000 0.0000 31.5433 0.0000
# 6 0.0000 0.0000 0.0000 0.0000 0.0000 25.6334
#
#
#
# Elastic Compliance Matrix: (Units=1/GPa)
#
#
# Indices 1 2 3 4 5 6 
#
# 1 0.012474 -0.003901 -0.008465 0.000000 0.000000 0.000000
# 2 -0.003901 0.023144 0.000452 0.000000 0.000000 0.000000
# 3 -0.008465 0.000452 0.019241 0.000000 0.000000 0.000000
# 4 0.000000 0.000000 0.000000 0.021479 0.000000 0.000000
# 5 0.000000 0.000000 0.000000 0.000000 0.031702 0.000000
# 6 0.000000 0.000000 0.000000 0.000000 0.000000 0.039012
#
#
# Mechanical properties :
#
#
# Convention : Reuss Voigt Hill
#
# Bulk Modulus (GPa) = 32.22601 45.05858 38.64229
# Shear Modulus (GPa) = 27.59010 31.65616 29.62313
#
# Velocity S-wave (km/s) = 3.78597 4.05536 3.92298
# Velocity P-wave (km/s) = 5.98778 6.73326 6.37143
#
# Compressibility (1/GPa) = 0.03103084
#
# Stress axis : x y z
#
# Youngs Moduli (GPa) = 80.16381 43.20852 51.97153
#
# Poissons Ratio (x) = 0.16854 0.43995
# Poissons Ratio (y) = 0.31269 -0.02347
# Poissons Ratio (z) = 0.67861 -0.01951
#
# Static dielectric constant tensor:
#      x y z
#    x 1.670970 0.000000 0.000000 
#    y 0.000000 1.641850 0.000000 
#    z 0.000000 0.000000 1.530050 
# 
# From -- ./inp_files/56688.got.cif
#   From: 2010.05.17/outbox.cif.g08.bks.cpg/sg66_29_cif.got.tgz:56688.got - 2010.06.03 17:51:23.
