data_PCOD9497534
_publ_section_title
;
Structure prediction by ZEFSAII (Michael W. Deem and Ramdas Pophale) SiO2 
 PCOD9497534
Probable space group: C C C M
;
_chemical_formula_sum "Si O2"
_cell_formula_units_Z 56
_cell_length_a 24.734484
_cell_length_b 5.328000
_cell_length_c 18.726445
_cell_angle_alpha 90.000000
_cell_angle_beta 90.000000
_cell_angle_gamma 90.000000
_cell_volume 2467.870748
_symmetry_space_group_name_H-M "C C C M"
_symmetry_group_IT_number 66
_symmetry_cell_setting 'orthorhombic'
loop_
_space_group_symop_operation_xyz
x,y,z
-x,-y,z
x,-y,1/2-z
-x,y,1/2-z
-x,-y,-z
x,y,-z
-x,y,1/2+z
x,-y,1/2+z
1/2+x,1/2+y,z
1/2-x,1/2-y,z
1/2+x,1/2-y,1/2-z
1/2-x,1/2+y,1/2-z
1/2-x,1/2-y,-z
1/2+x,1/2+y,-z
1/2-x,1/2+y,1/2+z
1/2+x,1/2-y,1/2+z
loop_
_atom_site_type_symbol
_atom_site_label
_atom_site_fract_x
_atom_site_fract_y
_atom_site_fract_z
Si Si1 0.523554 0.750338 0.667849
Si Si2 0.812259 0.187076 0.396634
Si Si3 0.376548 0.804044 0.077441
Si Si4 0.718806 0.500000 0.250000
O O1 0.500000 0.500000 0.634667
O O2 0.500000 0.750282 0.750000
O O3 0.586261 0.759987 0.647470
O O4 0.500000 0.000000 0.634153
O O5 0.750000 0.250000 0.414626
O O6 0.847896 0.426960 0.415798
O O7 0.813420 0.137226 0.311891
O O8 0.834271 0.924761 0.425344
O O9 0.405872 0.799147 0.000000
O O10 0.750000 0.250000 0.218280
#
# Coordination Sequence:
#
# PCOD9497534 Si02
#       4
#    16  16  16   8
#     4  10  23  44  68  96 125 167 225 290 353 403
#     4  11  24  43  67  99 141 185 226 273 332 398
#     4  12  26  42  66 101 139 181 229 277 335 416
#     4  10  20  38  62  90 125 172 231 284 322 366
#
# _framework density 22.691625999999999
#
# number of rings (size 3 to 8) (size 9 to 14) (size 15 to 20)
#    0.000    1.143    0.000    6.857    0.000   11.429 
#    0.000    0.000    0.000    0.000    0.000    0.000 
#    0.000    0.000    0.000    0.000    0.000    0.000 
#
# Total GULP energy -155997.346641 kJ/mol
# GULP energy per Si atom -5571.333809 kJ/mol
# Density = 2.263998 g / cm^3
# Si number density = 22.691626 Si / 1000 Ang^3
#
#
#
# Elastic Constant Matrix: (Units=GPa)
#
#
# Indices 1 2 3 4 5 6 
#
# 1 73.3077 30.3715 37.6121 0.0000 0.0000 0.0000
# 2 30.3715 208.0545 14.3392 0.0000 0.0000 0.0000
# 3 37.6121 14.3392 120.5275 0.0000 0.0000 0.0000
# 4 0.0000 0.0000 0.0000 -30.6046 0.0000 0.0000
# 5 0.0000 0.0000 0.0000 0.0000 4.5960 0.0000
# 6 0.0000 0.0000 0.0000 0.0000 0.0000 44.0635
#
#
#
# Elastic Compliance Matrix: (Units=1/GPa)
#
#
# Indices 1 2 3 4 5 6 
#
# 1 0.017147 -0.002152 -0.005095 0.000000 0.000000 0.000000
# 2 -0.002152 0.005116 0.000063 0.000000 0.000000 0.000000
# 3 -0.005095 0.000063 0.009879 0.000000 0.000000 0.000000
# 4 0.000000 0.000000 0.000000 -0.032675 0.000000 0.000000
# 5 0.000000 0.000000 0.000000 0.000000 0.217581 0.000000
# 6 0.000000 0.000000 0.000000 0.000000 0.000000 0.022695
#
#
# Mechanical properties :
#
#
# Convention : Reuss Voigt Hill
#
# Bulk Modulus (GPa) = 56.26057 62.94837 59.60447
# Shear Modulus (GPa) = 19.22818 24.91544 22.07181
#
# Velocity S-wave (km/s) = 2.91412 3.31721 3.12217
# Velocity P-wave (km/s) = 6.01416 6.51712 6.27068
#
# Compressibility (1/GPa) = 0.01777444
#
# Stress axis : x y z
#
# Youngs Moduli (GPa) = 58.32037 195.45623 101.22194
#
# Poissons Ratio (x) = 0.42060 0.51571
# Poissons Ratio (y) = 0.12550 -0.00636
# Poissons Ratio (z) = 0.29713 -0.01228
#
# Static dielectric constant tensor:
#      x y z
#    x 1.706240 0.000000 0.000000 
#    y 0.000000 1.815030 0.000000 
#    z 0.000000 0.000000 2.446020 
# 
# From -- ./inp_files/52170.got.cif
#   From: 2010.05.17/outbox.cif.g08.bks.cpg/sg66_27_cif.got.tgz:52170.got - 2010.06.03 17:51:23.
