data_PCOD9497831
_publ_section_title
;
Structure prediction by ZEFSAII (Michael W. Deem and Ramdas Pophale) SiO2 
 PCOD9497831
Probable space group: C C C M
;
_chemical_formula_sum "Si O2"
_cell_formula_units_Z 88
_cell_length_a 13.394681
_cell_length_b 17.946997
_cell_length_c 19.636553
_cell_angle_alpha 90.000000
_cell_angle_beta 90.000000
_cell_angle_gamma 90.000000
_cell_volume 4720.515407
_symmetry_space_group_name_H-M "C C C M"
_symmetry_group_IT_number 66
_symmetry_cell_setting 'orthorhombic'
loop_
_space_group_symop_operation_xyz
x,y,z
-x,-y,z
x,-y,1/2-z
-x,y,1/2-z
-x,-y,-z
x,y,-z
-x,y,1/2+z
x,-y,1/2+z
1/2+x,1/2+y,z
1/2-x,1/2-y,z
1/2+x,1/2-y,1/2-z
1/2-x,1/2+y,1/2-z
1/2-x,1/2-y,-z
1/2+x,1/2+y,-z
1/2-x,1/2+y,1/2+z
1/2+x,1/2-y,1/2+z
loop_
_atom_site_type_symbol
_atom_site_label
_atom_site_fract_x
_atom_site_fract_y
_atom_site_fract_z
Si Si1 0.545407 0.661517 0.917988
Si Si2 0.536287 0.084950 0.578660
Si Si3 0.669955 0.598512 0.580662
Si Si4 0.536396 0.793043 0.325745
Si Si5 0.750000 0.750000 0.641762
Si Si6 0.762794 0.062387 0.582723
O O1 0.448039 0.609664 0.905465
O O2 0.526286 0.732814 0.870320
O O3 0.647312 0.618580 0.900470
O O4 0.546079 0.679258 0.000000
O O5 0.529351 0.111543 0.500000
O O6 0.469433 0.133523 0.628370
O O7 0.651830 0.087972 0.602157
O O8 0.500000 0.000000 0.579176
O O9 0.679415 0.592491 0.500000
O O10 0.726480 0.674216 0.600749
O O11 0.712513 0.520878 0.609158
O O12 0.500000 0.805646 0.250000
O O13 0.648865 0.764320 0.318578
O O14 0.760595 0.059140 0.500000
#
# Coordination Sequence:
#
# PCOD9497831 Si02
#       6
#    16  16  16  16   8  16
#     4   9  18  33  55  82 109 140 181 226 270 318
#     4  10  21  37  57  82 111 142 179 222 269 325
#     4   9  16  29  53  84 113 140 179 228 271 317
#     4  11  24  39  56  78 108 142 181 224 268 323
#     4  10  21  36  54  76 105 146 186 220 270 324
#     4   9  17  30  53  83 112 143 178 223 277 322
#
# _framework density 18.642032
#
# number of rings (size 3 to 8) (size 9 to 14) (size 15 to 20)
#    0.000    2.364    0.000    2.455    0.000    8.364 
#    0.000    2.727    0.000   13.091    0.000    0.000 
#    0.000    0.000    0.000    0.000    0.000    0.000 
#
# Total GULP energy -245262.335869 kJ/mol
# GULP energy per Si atom -5574.143997 kJ/mol
# Density = 1.859960 g / cm^3
# Si number density = 18.642032 Si / 1000 Ang^3
#
#
#
# Elastic Constant Matrix: (Units=GPa)
#
#
# Indices 1 2 3 4 5 6 
#
# 1 85.4378 15.6890 21.8316 0.0000 0.0000 0.0000
# 2 15.6890 64.0933 26.7100 0.0000 0.0000 0.0000
# 3 21.8316 26.7100 54.6243 0.0000 0.0000 0.0000
# 4 0.0000 0.0000 0.0000 -6.4714 0.0000 0.0000
# 5 0.0000 0.0000 0.0000 0.0000 -0.9621 0.0000
# 6 0.0000 0.0000 0.0000 0.0000 0.0000 2.8238
#
#
#
# Elastic Compliance Matrix: (Units=1/GPa)
#
#
# Indices 1 2 3 4 5 6 
#
# 1 0.013120 -0.001289 -0.004613 0.000000 0.000000 0.000000
# 2 -0.001289 0.019722 -0.009128 0.000000 0.000000 0.000000
# 3 -0.004613 -0.009128 0.024614 0.000000 0.000000 0.000000
# 4 0.000000 0.000000 0.000000 -0.154527 0.000000 0.000000
# 5 0.000000 0.000000 0.000000 0.000000 -1.039400 0.000000
# 6 0.000000 0.000000 0.000000 0.000000 0.000000 0.354138
#
#
# Mechanical properties :
#
#
# Convention : Reuss Voigt Hill
#
# Bulk Modulus (GPa) = 36.50347 36.95741 36.73044
# Shear Modulus (GPa) = -6.72821 8.40638 0.83908
#
# Velocity S-wave (km/s) = -1.90184 2.12583 0.67162
# Velocity P-wave (km/s) = 3.84722 5.08855 4.51079
#
# Compressibility (1/GPa) = 0.02739466
#
# Stress axis : x y z
#
# Youngs Moduli (GPa) = 76.21983 50.70505 40.62694
#
# Poissons Ratio (x) = 0.06536 0.18742
# Poissons Ratio (y) = 0.09825 0.37086
# Poissons Ratio (z) = 0.35163 0.46285
#
# Static dielectric constant tensor:
#      x y z
#    x 1.667240 0.000000 0.000000 
#    y 0.000000 1.658880 0.000000 
#    z 0.000000 0.000000 1.600250 
# 
# From -- ./inp_files/48550.got.cif
#   From: 2010.05.17/outbox.cif.g08.bks.cpg/sg66_25_cif.got.tgz:48550.got - 2010.06.03 17:51:23.
