data_PCOD9497503
_publ_section_title
;
Structure prediction by ZEFSAII (Michael W. Deem and Ramdas Pophale) SiO2 
 PCOD9497503
Probable space group: C C C M
;
_chemical_formula_sum "Si O2"
_cell_formula_units_Z 112
_cell_length_a 13.542051
_cell_length_b 25.251247
_cell_length_c 16.577711
_cell_angle_alpha 90.000000
_cell_angle_beta 90.000000
_cell_angle_gamma 90.000000
_cell_volume 5668.809194
_symmetry_space_group_name_H-M "C C C M"
_symmetry_group_IT_number 66
_symmetry_cell_setting 'orthorhombic'
loop_
_space_group_symop_operation_xyz
x,y,z
-x,-y,z
x,-y,1/2-z
-x,y,1/2-z
-x,-y,-z
x,y,-z
-x,y,1/2+z
x,-y,1/2+z
1/2+x,1/2+y,z
1/2-x,1/2-y,z
1/2+x,1/2-y,1/2-z
1/2-x,1/2+y,1/2-z
1/2-x,1/2-y,-z
1/2+x,1/2+y,-z
1/2-x,1/2+y,1/2+z
1/2+x,1/2-y,1/2+z
loop_
_atom_site_type_symbol
_atom_site_label
_atom_site_fract_x
_atom_site_fract_y
_atom_site_fract_z
Si Si1 0.133505 0.874907 0.403059
Si Si2 0.000059 0.285212 0.904034
Si Si3 0.077070 0.826982 0.098044
Si Si4 0.797264 0.697519 0.819905
Si Si5 0.383453 0.507410 0.654524
Si Si6 0.089291 0.379310 0.301767
Si Si7 0.239814 0.910492 0.094338
O O1 0.137068 0.873793 0.500000
O O2 0.214114 0.834861 0.367980
O O3 0.149373 0.934300 0.371976
O O4 0.023060 0.857272 0.377398
O O5 0.113950 0.281852 0.877156
O O6 0.938523 0.233599 0.875319
O O7 0.957686 0.338069 0.864896
O O8 0.993787 0.287070 0.000000
O O9 0.173480 0.859971 0.122917
O O10 0.079371 0.826796 0.000000
O O11 0.750000 0.750000 0.781588
O O12 0.847146 0.657153 0.758253
O O13 0.500000 0.500000 0.638976
O O14 0.366681 0.500000 0.750000
O O15 0.326677 0.462083 0.606244
O O16 0.163579 0.415748 0.350972
O O17 0.000000 0.404082 0.250000
O O18 0.263869 0.902990 0.000000
#
# Coordination Sequence:
#
# PCOD9497503 Si02
#       7
#    16  16  16  16  16  16  16
#     4  11  21  37  60  89 125 163 204 253 307 368
#     4  10  20  38  59  84 119 162 213 259 304 363
#     4   9  19  32  54  90 125 159 199 250 302 358
#     4  11  22  36  57  87 122 162 203 252 313 375
#     4  11  23  39  59  94 132 167 200 252 317 379
#     4  10  24  41  57  87 124 163 210 262 315 362
#     4  11  22  40  66  91 123 169 214 254 310 375
#
# _framework density 19.757235999999999
#
# number of rings (size 3 to 8) (size 9 to 14) (size 15 to 20)
#    0.000    1.571    2.857    2.143    2.000    1.143 
#    0.000    2.143    0.000    9.857    0.000   14.000 
#    0.000    0.000    0.000    0.000    0.000    0.000 
#
# Total GULP energy -312883.644331 kJ/mol
# GULP energy per Si atom -5587.207934 kJ/mol
# Density = 1.971227 g / cm^3
# Si number density = 19.757236 Si / 1000 Ang^3
#
#
#
# Elastic Constant Matrix: (Units=GPa)
#
#
# Indices 1 2 3 4 5 6 
#
# 1 89.8107 11.9930 40.4620 0.0000 0.0000 0.0000
# 2 11.9930 43.5683 1.8551 0.0000 0.0000 0.0000
# 3 40.4620 1.8551 61.3648 0.0000 0.0000 0.0000
# 4 0.0000 0.0000 0.0000 3.2017 0.0000 0.0000
# 5 0.0000 0.0000 0.0000 0.0000 41.6246 0.0000
# 6 0.0000 0.0000 0.0000 0.0000 0.0000 24.3153
#
#
#
# Elastic Compliance Matrix: (Units=1/GPa)
#
#
# Indices 1 2 3 4 5 6 
#
# 1 0.016538 -0.004093 -0.010781 0.000000 0.000000 0.000000
# 2 -0.004093 0.023995 0.001974 0.000000 0.000000 0.000000
# 3 -0.010781 0.001974 0.023345 0.000000 0.000000 0.000000
# 4 0.000000 0.000000 0.000000 0.312338 0.000000 0.000000
# 5 0.000000 0.000000 0.000000 0.000000 0.024024 0.000000
# 6 0.000000 0.000000 0.000000 0.000000 0.000000 0.041126
#
#
# Mechanical properties :
#
#
# Convention : Reuss Voigt Hill
#
# Bulk Modulus (GPa) = 26.26265 33.70713 29.98489
# Shear Modulus (GPa) = 10.41969 23.19056 16.80512
#
# Velocity S-wave (km/s) = 2.29898 3.42976 2.91964
# Velocity P-wave (km/s) = 4.51316 5.72556 5.15512
#
# Compressibility (1/GPa) = 0.03807688
#
# Stress axis : x y z
#
# Youngs Moduli (GPa) = 60.46570 41.67498 42.83571
#
# Poissons Ratio (x) = 0.17059 0.46182
# Poissons Ratio (y) = 0.24751 -0.08454
# Poissons Ratio (z) = 0.65189 -0.08225
#
# Static dielectric constant tensor:
#      x y z
#    x 1.703020 0.000000 0.000000 
#    y 0.000000 1.684600 0.000000 
#    z 0.000000 0.000000 1.688510 
# 
# From -- ./inp_files/28744.got.cif
#   From: 2010.05.17/outbox.cif.g08.bks.cpg/sg66_15_cif.got.tgz:28744.got - 2010.06.03 17:51:23.
