data_PCOD9497203
_publ_section_title
;
Structure prediction by ZEFSAII (Michael W. Deem and Ramdas Pophale) SiO2 
 PCOD9497203
Probable space group: C C C M
;
_chemical_formula_sum "Si O2"
_cell_formula_units_Z 96
_cell_length_a 22.817976
_cell_length_b 9.300462
_cell_length_c 23.859949
_cell_angle_alpha 90.000000
_cell_angle_beta 90.000000
_cell_angle_gamma 90.000000
_cell_volume 5063.503945
_symmetry_space_group_name_H-M "C C C M"
_symmetry_group_IT_number 66
_symmetry_cell_setting 'orthorhombic'
loop_
_space_group_symop_operation_xyz
x,y,z
-x,-y,z
x,-y,1/2-z
-x,y,1/2-z
-x,-y,-z
x,y,-z
-x,y,1/2+z
x,-y,1/2+z
1/2+x,1/2+y,z
1/2-x,1/2-y,z
1/2+x,1/2-y,1/2-z
1/2-x,1/2+y,1/2-z
1/2-x,1/2-y,-z
1/2+x,1/2+y,-z
1/2-x,1/2+y,1/2+z
1/2+x,1/2-y,1/2+z
loop_
_atom_site_type_symbol
_atom_site_label
_atom_site_fract_x
_atom_site_fract_y
_atom_site_fract_z
Si Si1 0.890907 0.148742 0.875151
Si Si2 0.228750 0.089765 0.436462
Si Si3 0.588519 0.682455 0.129778
Si Si4 0.190630 0.341975 0.936729
Si Si5 0.067312 0.826848 0.246671
Si Si6 0.984290 0.668991 0.565457
O O1 0.825952 0.104867 0.895082
O O2 0.900291 0.205349 0.811641
O O3 0.921391 0.267371 0.915098
O O4 0.919708 0.989325 0.877487
O O5 0.211938 0.036012 0.500000
O O6 0.250000 0.250000 0.443038
O O7 0.283364 0.993504 0.415692
O O8 0.642578 0.753782 0.097025
O O9 0.596921 0.718105 0.195303
O O10 0.530092 0.751399 0.105236
O O11 0.250000 0.250000 0.938444
O O12 0.167805 0.364557 0.000000
O O13 0.000000 0.774072 0.250000
O O14 0.064945 0.000000 0.250000
O O15 0.992400 0.705196 0.500000
O O16 0.000000 0.500000 0.571242
#
# Coordination Sequence:
#
# PCOD9497203 Si02
#       6
#    16  16  16  16  16  16
#     4  11  21  39  64  86 116 160 208 245 295 368
#     4  10  22  38  60  86 120 162 195 240 308 368
#     4  11  21  38  64  87 116 158 204 251 302 357
#     4  10  20  36  58  88 119 149 197 252 298 353
#     4   9  18  36  60  87 115 155 196 245 300 350
#     4  11  25  38  55  89 126 154 190 250 310 363
#
# _framework density 18.959204
#
# number of rings (size 3 to 8) (size 9 to 14) (size 15 to 20)
#    0.000    1.667    3.333    1.500    2.333    2.667 
#    0.000    2.500    0.000    0.000    0.000    0.000 
#    0.000    0.000    0.000    0.000    0.000    0.000 
#
# Total GULP energy -267409.738214 kJ/mol
# GULP energy per Si atom -5571.036213 kJ/mol
# Density = 1.891605 g / cm^3
# Si number density = 18.959204 Si / 1000 Ang^3
#
#
#
# Elastic Constant Matrix: (Units=GPa)
#
#
# Indices 1 2 3 4 5 6 
#
# 1 63.1227 9.0619 38.0017 0.0000 0.0000 0.0000
# 2 9.0619 74.5705 22.6706 0.0000 0.0000 0.0000
# 3 38.0017 22.6706 119.3836 0.0000 0.0000 0.0000
# 4 0.0000 0.0000 0.0000 8.9375 0.0000 0.0000
# 5 0.0000 0.0000 0.0000 0.0000 25.3764 0.0000
# 6 0.0000 0.0000 0.0000 0.0000 0.0000 36.3332
#
#
#
# Elastic Compliance Matrix: (Units=1/GPa)
#
#
# Indices 1 2 3 4 5 6 
#
# 1 0.019616 -0.000515 -0.006146 0.000000 0.000000 0.000000
# 2 -0.000515 0.014245 -0.002541 0.000000 0.000000 0.000000
# 3 -0.006146 -0.002541 0.010815 0.000000 0.000000 0.000000
# 4 0.000000 0.000000 0.000000 0.111888 0.000000 0.000000
# 5 0.000000 0.000000 0.000000 0.000000 0.039407 0.000000
# 6 0.000000 0.000000 0.000000 0.000000 0.000000 0.027523
#
#
# Mechanical properties :
#
#
# Convention : Reuss Voigt Hill
#
# Bulk Modulus (GPa) = 38.06383 44.06058 41.06220
# Shear Modulus (GPa) = 19.94751 26.61891 23.28321
#
# Velocity S-wave (km/s) = 3.24717 3.75108 3.50818
# Velocity P-wave (km/s) = 5.84629 6.48467 6.17374
#
# Compressibility (1/GPa) = 0.02627166
#
# Stress axis : x y z
#
# Youngs Moduli (GPa) = 50.97765 70.19863 92.46066
#
# Poissons Ratio (x) = 0.03617 0.56830
# Poissons Ratio (y) = 0.02626 0.23496
# Poissons Ratio (z) = 0.31333 0.17839
#
# Static dielectric constant tensor:
#      x y z
#    x 1.701980 0.000000 0.000000 
#    y 0.000000 1.703820 0.000000 
#    z 0.000000 0.000000 1.687120 
# 
# From -- ./inp_files/55618.got.cif
#   From: 2010.05.17/outbox.cif.g08.bks.cpg/sg66_28_cif.got.tgz:55618.got - 2010.06.03 17:51:23.
