data_PCOD9497895
_publ_section_title
;
Structure prediction by ZEFSAII (Michael W. Deem and Ramdas Pophale) SiO2 
 PCOD9497895
Probable space group: C C C M
;
_chemical_formula_sum "Si O2"
_cell_formula_units_Z 72
_cell_length_a 13.841800
_cell_length_b 17.470382
_cell_length_c 15.707069
_cell_angle_alpha 90.000000
_cell_angle_beta 90.000000
_cell_angle_gamma 90.000000
_cell_volume 3798.307513
_symmetry_space_group_name_H-M "C C C M"
_symmetry_group_IT_number 66
_symmetry_cell_setting 'orthorhombic'
loop_
_space_group_symop_operation_xyz
x,y,z
-x,-y,z
x,-y,1/2-z
-x,y,1/2-z
-x,-y,-z
x,y,-z
-x,y,1/2+z
x,-y,1/2+z
1/2+x,1/2+y,z
1/2-x,1/2-y,z
1/2+x,1/2-y,1/2-z
1/2-x,1/2+y,1/2-z
1/2-x,1/2-y,-z
1/2+x,1/2+y,-z
1/2-x,1/2+y,1/2+z
1/2+x,1/2-y,1/2+z
loop_
_atom_site_type_symbol
_atom_site_label
_atom_site_fract_x
_atom_site_fract_y
_atom_site_fract_z
Si Si1 0.146834 0.710708 0.684227
Si Si2 0.559869 0.579191 0.097823
Si Si3 0.500000 0.687649 0.750000
Si Si4 0.856909 0.709525 0.000000
Si Si5 0.276323 0.955900 0.662215
Si Si6 0.613069 0.975632 0.000000
O O1 0.250000 0.750000 0.682695
O O2 0.099747 0.729144 0.591669
O O3 0.163745 0.620471 0.687093
O O4 0.088532 0.753599 0.756409
O O5 0.500000 0.500000 0.100980
O O6 0.514586 0.633918 0.168843
O O7 0.672112 0.566611 0.123254
O O8 0.556624 0.607146 0.000000
O O9 0.750000 0.750000 0.000000
O O10 0.861692 0.616291 0.000000
O O11 0.335189 0.000465 0.588125
O O12 0.260731 0.000000 0.750000
O O13 0.500000 0.000000 0.000000
#
# Coordination Sequence:
#
# PCOD9497895 Si02
#       6
#    16  16   8   8  16   8
#     4  10  21  36  60  93 122 162 214 266 320 387
#     4  11  24  42  67  97 126 169 225 276 328 394
#     4  12  23  36  67  98 126 158 224 266 329 388
#     4   8  18  36  62  82 116 165 215 256 314 386
#     4  11  22  41  68  90 135 176 218 274 336 393
#     4  10  22  38  61  96 127 172 226 267 320 404
#
# _framework density 18.955812000000002
#
# number of rings (size 3 to 8) (size 9 to 14) (size 15 to 20)
#    0.000    1.556    3.333    1.667    1.556    4.000 
#    0.000    0.000    2.444    0.667    0.000    0.000 
#    0.000    0.000    0.000    0.000    0.000    0.000 
#
# Total GULP energy -200565.640430 kJ/mol
# GULP energy per Si atom -5571.267790 kJ/mol
# Density = 1.891267 g / cm^3
# Si number density = 18.955812 Si / 1000 Ang^3
#
#
#
# Elastic Constant Matrix: (Units=GPa)
#
#
# Indices 1 2 3 4 5 6 
#
# 1 86.2451 26.2545 55.7899 0.0000 0.0000 0.0000
# 2 26.2545 69.5032 46.0543 0.0000 0.0000 0.0000
# 3 55.7899 46.0543 141.8325 0.0000 0.0000 0.0000
# 4 0.0000 0.0000 0.0000 43.2203 0.0000 0.0000
# 5 0.0000 0.0000 0.0000 0.0000 18.2759 0.0000
# 6 0.0000 0.0000 0.0000 0.0000 0.0000 38.0321
#
#
#
# Elastic Compliance Matrix: (Units=1/GPa)
#
#
# Indices 1 2 3 4 5 6 
#
# 1 0.015851 -0.002365 -0.005467 0.000000 0.000000 0.000000
# 2 -0.002365 0.018685 -0.005137 0.000000 0.000000 0.000000
# 3 -0.005467 -0.005137 0.010869 0.000000 0.000000 0.000000
# 4 0.000000 0.000000 0.000000 0.023137 0.000000 0.000000
# 5 0.000000 0.000000 0.000000 0.000000 0.054717 0.000000
# 6 0.000000 0.000000 0.000000 0.000000 0.000000 0.026294
#
#
# Mechanical properties :
#
#
# Convention : Reuss Voigt Hill
#
# Bulk Modulus (GPa) = 51.36852 61.53091 56.44971
# Shear Modulus (GPa) = 27.47543 31.20447 29.33995
#
# Velocity S-wave (km/s) = 3.81129 4.06170 3.93849
# Velocity P-wave (km/s) = 6.82098 7.38425 7.10820
#
# Compressibility (1/GPa) = 0.01946717
#
# Stress axis : x y z
#
# Youngs Moduli (GPa) = 63.08573 53.51878 92.00402
#
# Poissons Ratio (x) = 0.12658 0.50301
# Poissons Ratio (y) = 0.14920 0.47261
# Poissons Ratio (z) = 0.34490 0.27492
#
# Static dielectric constant tensor:
#      x y z
#    x 1.671300 0.000000 0.000000 
#    y 0.000000 1.906040 0.000000 
#    z 0.000000 0.000000 1.720270 
# 
# From -- ./inp_files/27990.got.cif
#   From: 2010.05.17/outbox.cif.g08.bks.cpg/sg66_14_cif.got.tgz:27990.got - 2010.06.03 17:51:23.
