data_PCOD9497533
_publ_section_title
;
Structure prediction by ZEFSAII (Michael W. Deem and Ramdas Pophale) SiO2 
 PCOD9497533
Probable space group: C C C M
;
_chemical_formula_sum "Si O2"
_cell_formula_units_Z 64
_cell_length_a 23.030674
_cell_length_b 7.857698
_cell_length_c 16.754478
_cell_angle_alpha 90.000000
_cell_angle_beta 90.000000
_cell_angle_gamma 90.000000
_cell_volume 3032.025732
_symmetry_space_group_name_H-M "C C C M"
_symmetry_group_IT_number 66
_symmetry_cell_setting 'orthorhombic'
loop_
_space_group_symop_operation_xyz
x,y,z
-x,-y,z
x,-y,1/2-z
-x,y,1/2-z
-x,-y,-z
x,y,-z
-x,y,1/2+z
x,-y,1/2+z
1/2+x,1/2+y,z
1/2-x,1/2-y,z
1/2+x,1/2-y,1/2-z
1/2-x,1/2+y,1/2-z
1/2-x,1/2-y,-z
1/2+x,1/2+y,-z
1/2-x,1/2+y,1/2+z
1/2+x,1/2-y,1/2+z
loop_
_atom_site_type_symbol
_atom_site_label
_atom_site_fract_x
_atom_site_fract_y
_atom_site_fract_z
Si Si1 0.213671 0.998180 0.408159
Si Si2 0.124394 0.824815 0.294822
Si Si3 0.665426 0.858707 0.638984
Si Si4 0.939821 0.595808 0.909055
O O1 0.220623 0.947189 0.500000
O O2 0.275835 0.032749 0.368116
O O3 0.180433 0.180298 0.404334
O O4 0.175616 0.869411 0.356740
O O5 0.147826 0.695615 0.228139
O O6 0.072839 0.741903 0.345019
O O7 0.108797 0.000000 0.250000
O O8 0.612766 0.961928 0.600736
O O9 0.000000 0.500000 0.894041
O O10 0.940117 0.661389 0.000000
#
# Coordination Sequence:
#
# PCOD9497533 Si02
#       4
#    16  16  16  16
#     4  10  20  38  62  90 125 162 205 254 308 363
#     4  10  23  39  61  94 129 162 203 254 309 367
#     4  10  21  37  60  91 125 164 205 252 306 362
#     4  11  24  43  65  88 119 162 210 254 301 363
#
# _framework density 21.108001000000002
#
# number of rings (size 3 to 8) (size 9 to 14) (size 15 to 20)
#    0.000    1.750    0.000    4.500    0.000   15.000 
#    0.000   11.250    0.000   13.500    0.000    0.000 
#    0.000    0.000    0.000    0.000    0.000    0.000 
#
# Total GULP energy -179099.615123 kJ/mol
# GULP energy per Si atom -5596.862973 kJ/mol
# Density = 2.105996 g / cm^3
# Si number density = 21.108001 Si / 1000 Ang^3
#
#
#
# Elastic Constant Matrix: (Units=GPa)
#
#
# Indices 1 2 3 4 5 6 
#
# 1 93.7812 33.9105 51.0878 0.0000 0.0000 0.0000
# 2 33.9105 85.3583 60.1126 0.0000 0.0000 0.0000
# 3 51.0878 60.1126 179.2606 0.0000 0.0000 0.0000
# 4 0.0000 0.0000 0.0000 -33.1711 0.0000 0.0000
# 5 0.0000 0.0000 0.0000 0.0000 13.7541 0.0000
# 6 0.0000 0.0000 0.0000 0.0000 0.0000 21.7617
#
#
#
# Elastic Compliance Matrix: (Units=1/GPa)
#
#
# Indices 1 2 3 4 5 6 
#
# 1 0.013350 -0.003436 -0.002653 0.000000 0.000000 0.000000
# 2 -0.003436 0.016221 -0.004461 0.000000 0.000000 0.000000
# 3 -0.002653 -0.004461 0.007830 0.000000 0.000000 0.000000
# 4 0.000000 0.000000 0.000000 -0.030147 0.000000 0.000000
# 5 0.000000 0.000000 0.000000 0.000000 0.072706 0.000000
# 6 0.000000 0.000000 0.000000 0.000000 0.000000 0.045952
#
#
# Mechanical properties :
#
#
# Convention : Reuss Voigt Hill
#
# Bulk Modulus (GPa) = 61.33278 72.06911 66.70094
# Shear Modulus (GPa) = 32.79852 14.68821 23.74337
#
# Velocity S-wave (km/s) = 3.94616 2.64078 3.35752
# Velocity P-wave (km/s) = 7.06276 6.59662 6.83367
#
# Compressibility (1/GPa) = 0.01630450
#
# Stress axis : x y z
#
# Youngs Moduli (GPa) = 74.90370 61.64660 127.70996
#
# Poissons Ratio (x) = 0.21180 0.33877
# Poissons Ratio (y) = 0.25734 0.56965
# Poissons Ratio (z) = 0.19870 0.27498
#
# Static dielectric constant tensor:
#      x y z
#    x 1.701340 0.000000 0.000000 
#    y 0.000000 1.781160 0.000000 
#    z 0.000000 0.000000 1.761590 
# 
# From -- ./inp_files/24161.got.cif
#   From: 2010.05.17/outbox.cif.g08.bks.cpg/sg66_13_cif.got.tgz:24161.got - 2010.06.03 17:51:23.
