data_PCOD9497641
_publ_section_title
;
Structure prediction by ZEFSAII (Michael W. Deem and Ramdas Pophale) SiO2 
 PCOD9497641
Probable space group: C C C M
;
_chemical_formula_sum "Si O2"
_cell_formula_units_Z 60
_cell_length_a 5.200824
_cell_length_b 22.877262
_cell_length_c 23.352519
_cell_angle_alpha 90.000000
_cell_angle_beta 90.000000
_cell_angle_gamma 90.000000
_cell_volume 2778.497032
_symmetry_space_group_name_H-M "C C C M"
_symmetry_group_IT_number 66
_symmetry_cell_setting 'orthorhombic'
loop_
_space_group_symop_operation_xyz
x,y,z
-x,-y,z
x,-y,1/2-z
-x,y,1/2-z
-x,-y,-z
x,y,-z
-x,y,1/2+z
x,-y,1/2+z
1/2+x,1/2+y,z
1/2-x,1/2-y,z
1/2+x,1/2-y,1/2-z
1/2-x,1/2+y,1/2-z
1/2-x,1/2-y,-z
1/2+x,1/2+y,-z
1/2-x,1/2+y,1/2+z
1/2+x,1/2-y,1/2+z
loop_
_atom_site_type_symbol
_atom_site_label
_atom_site_fract_x
_atom_site_fract_y
_atom_site_fract_z
Si Si1 0.500000 0.305585 0.750000
Si Si2 0.750000 0.250000 0.854208
Si Si3 0.748897 0.041679 0.000000
Si Si4 0.000000 0.000000 0.750000
Si Si5 0.734486 0.378093 0.887971
Si Si6 0.228164 0.399385 0.184537
O O1 0.537261 0.267560 0.806757
O O2 0.272091 0.350044 0.766785
O O3 0.791827 0.308307 0.890966
O O4 0.746421 0.084088 0.054996
O O5 0.500000 0.000000 0.000000
O O6 0.000000 0.000000 0.000000
O O7 0.817540 0.040278 0.711814
O O8 0.448039 0.385056 0.862657
O O9 0.950456 0.400770 0.843756
#
# Coordination Sequence:
#
# PCOD9497641 Si02
#       6
#     8   8   8   4  16  16
#     4   9  18  35  62 100 141 174 207 254 342 398
#     4  10  20  39  70  96 140 171 220 274 324 422
#     4  12  28  49  72  93 130 178 230 293 341 392
#     4  10  24  38  64  96 148 182 214 282 314 420
#     4  11  25  43  68  98 127 177 226 278 336 388
#     4  10  23  39  63 101 135 177 220 263 334 401
#
# _framework density 21.594408999999999
#
# number of rings (size 3 to 8) (size 9 to 14) (size 15 to 20)
#    0.000    1.600    0.000    3.200    5.600   13.333 
#    0.000    0.000    0.000    9.600    0.000    0.000 
#    0.000    0.000    0.000    0.000    0.000    0.000 
#
# Total GULP energy -167669.815449 kJ/mol
# GULP energy per Si atom -5588.993848 kJ/mol
# Density = 2.154526 g / cm^3
# Si number density = 21.594409 Si / 1000 Ang^3
#
#
#
# Elastic Constant Matrix: (Units=GPa)
#
#
# Indices 1 2 3 4 5 6 
#
# 1 100.1839 27.7907 44.0130 0.0000 0.0000 0.0000
# 2 27.7907 187.7004 75.3889 0.0000 0.0000 0.0000
# 3 44.0130 75.3889 125.7701 0.0000 0.0000 0.0000
# 4 0.0000 0.0000 0.0000 54.2628 0.0000 0.0000
# 5 0.0000 0.0000 0.0000 0.0000 26.7886 0.0000
# 6 0.0000 0.0000 0.0000 0.0000 0.0000 21.2036
#
#
#
# Elastic Compliance Matrix: (Units=1/GPa)
#
#
# Indices 1 2 3 4 5 6 
#
# 1 0.011797 -0.000117 -0.004058 0.000000 0.000000 0.000000
# 2 -0.000117 0.007018 -0.004166 0.000000 0.000000 0.000000
# 3 -0.004058 -0.004166 0.011868 0.000000 0.000000 0.000000
# 4 0.000000 0.000000 0.000000 0.018429 0.000000 0.000000
# 5 0.000000 0.000000 0.000000 0.000000 0.037329 0.000000
# 6 0.000000 0.000000 0.000000 0.000000 0.000000 0.047162
#
#
# Mechanical properties :
#
#
# Convention : Reuss Voigt Hill
#
# Bulk Modulus (GPa) = 71.42105 78.67106 75.04605
# Shear Modulus (GPa) = 32.26790 38.21511 35.24151
#
# Velocity S-wave (km/s) = 3.86977 4.21132 4.04415
# Velocity P-wave (km/s) = 7.28783 7.75611 7.52561
#
# Compressibility (1/GPa) = 0.01400148
#
# Stress axis : x y z
#
# Youngs Moduli (GPa) = 84.76772 142.48742 84.25705
#
# Poissons Ratio (x) = 0.01661 0.34195
# Poissons Ratio (y) = 0.00988 0.35102
# Poissons Ratio (z) = 0.34402 0.59361
#
# Static dielectric constant tensor:
#      x y z
#    x 1.779390 0.000000 0.000000 
#    y 0.000000 1.832040 0.000000 
#    z 0.000000 0.000000 1.772400 
# 
# From -- ./inp_files/54029.got.cif
#   From: 2010.05.17/outbox.cif.g08.bks.cpg/sg66_28_cif.got.tgz:54029.got - 2010.06.03 17:51:23.
