data_PCOD9497901
_publ_section_title
;
Structure prediction by ZEFSAII (Michael W. Deem and Ramdas Pophale) SiO2 
 PCOD9497901
Probable space group: C C C M
;
_chemical_formula_sum "Si O2"
_cell_formula_units_Z 64
_cell_length_a 11.176037
_cell_length_b 9.203955
_cell_length_c 27.108847
_cell_angle_alpha 90.000000
_cell_angle_beta 90.000000
_cell_angle_gamma 90.000000
_cell_volume 2788.517434
_symmetry_space_group_name_H-M "C C C M"
_symmetry_group_IT_number 66
_symmetry_cell_setting 'orthorhombic'
loop_
_space_group_symop_operation_xyz
x,y,z
-x,-y,z
x,-y,1/2-z
-x,y,1/2-z
-x,-y,-z
x,y,-z
-x,y,1/2+z
x,-y,1/2+z
1/2+x,1/2+y,z
1/2-x,1/2-y,z
1/2+x,1/2-y,1/2-z
1/2-x,1/2+y,1/2-z
1/2-x,1/2-y,-z
1/2+x,1/2+y,-z
1/2-x,1/2+y,1/2+z
1/2+x,1/2-y,1/2+z
loop_
_atom_site_type_symbol
_atom_site_label
_atom_site_fract_x
_atom_site_fract_y
_atom_site_fract_z
Si Si1 0.944210 0.861804 0.368582
Si Si2 0.258787 0.423550 0.554469
Si Si3 0.886591 0.686361 0.942689
Si Si4 0.633650 0.668867 0.265976
O O1 0.859766 0.948669 0.406216
O O2 0.871693 0.791003 0.324467
O O3 0.028389 0.758370 0.401632
O O4 0.000000 0.000000 0.340653
O O5 0.298238 0.469462 0.500000
O O6 0.250000 0.250000 0.554557
O O7 0.139194 0.514119 0.564562
O O8 0.750000 0.750000 0.939088
O O9 0.928643 0.708576 0.000000
O O10 0.648776 0.500000 0.250000
O O11 0.500000 0.716160 0.250000
O O12 0.750000 0.750000 0.244349
#
# Coordination Sequence:
#
# PCOD9497901 Si02
#       4
#    16  16  16  16
#     4  12  22  39  68  97 131 180 232 297 350 422
#     4  10  22  39  59  93 141 185 230 287 339 402
#     4  10  21  36  61  97 136 188 241 281 337 409
#     4  11  26  50  76 105 139 179 233 299 373 440
#
# _framework density 22.951263000000001
#
# number of rings (size 3 to 8) (size 9 to 14) (size 15 to 20)
#    0.000    1.250    5.000    1.500    0.000    5.500 
#    0.000    6.250    0.000    0.000    0.000    0.000 
#    0.000    0.000    0.000    0.000    0.000    0.000 
#
# Total GULP energy -178367.721343 kJ/mol
# GULP energy per Si atom -5573.991292 kJ/mol
# Density = 2.289902 g / cm^3
# Si number density = 22.951263 Si / 1000 Ang^3
#
#
#
# Elastic Constant Matrix: (Units=GPa)
#
#
# Indices 1 2 3 4 5 6 
#
# 1 138.7021 53.7524 55.9475 0.0000 0.0000 0.0000
# 2 53.7524 116.5024 40.3015 0.0000 0.0000 0.0000
# 3 55.9475 40.3015 110.3264 0.0000 0.0000 0.0000
# 4 0.0000 0.0000 0.0000 7.4185 0.0000 0.0000
# 5 0.0000 0.0000 0.0000 0.0000 36.3128 0.0000
# 6 0.0000 0.0000 0.0000 0.0000 0.0000 39.0500
#
#
#
# Elastic Compliance Matrix: (Units=1/GPa)
#
#
# Indices 1 2 3 4 5 6 
#
# 1 0.010058 -0.003292 -0.003898 0.000000 0.000000 0.000000
# 2 -0.003292 0.010903 -0.002313 0.000000 0.000000 0.000000
# 3 -0.003898 -0.002313 0.011886 0.000000 0.000000 0.000000
# 4 0.000000 0.000000 0.000000 0.134799 0.000000 0.000000
# 5 0.000000 0.000000 0.000000 0.000000 0.027538 0.000000
# 6 0.000000 0.000000 0.000000 0.000000 0.000000 0.025608
#
#
# Mechanical properties :
#
#
# Convention : Reuss Voigt Hill
#
# Bulk Modulus (GPa) = 72.25542 73.94819 73.10180
# Shear Modulus (GPa) = 20.45734 30.92488 25.69111
#
# Velocity S-wave (km/s) = 2.98877 3.67470 3.34934
# Velocity P-wave (km/s) = 6.59248 7.09184 6.84671
#
# Compressibility (1/GPa) = 0.01383979
#
# Stress axis : x y z
#
# Youngs Moduli (GPa) = 99.42579 91.72078 84.13537
#
# Poissons Ratio (x) = 0.30196 0.32794
# Poissons Ratio (y) = 0.32732 0.19462
# Poissons Ratio (z) = 0.38754 0.21217
#
# Static dielectric constant tensor:
#      x y z
#    x 2.016400 0.000000 0.000000 
#    y 0.000000 2.776110 0.000000 
#    z 0.000000 0.000000 1.833930 
# 
# From -- ./inp_files/68587.got.cif
#   From: 2010.05.17/outbox.cif.g08.bks.cpg/sg66_35_cif.got.tgz:68587.got - 2010.06.03 17:51:23.
