data_PCOD9497296
_publ_section_title
;
Structure prediction by ZEFSAII (Michael W. Deem and Ramdas Pophale) SiO2 
 PCOD9497296
Probable space group: C C C M
;
_chemical_formula_sum "Si O2"
_cell_formula_units_Z 64
_cell_length_a 17.703398
_cell_length_b 11.177286
_cell_length_c 15.438092
_cell_angle_alpha 90.000000
_cell_angle_beta 90.000000
_cell_angle_gamma 90.000000
_cell_volume 3054.827007
_symmetry_space_group_name_H-M "C C C M"
_symmetry_group_IT_number 66
_symmetry_cell_setting 'orthorhombic'
loop_
_space_group_symop_operation_xyz
x,y,z
-x,-y,z
x,-y,1/2-z
-x,y,1/2-z
-x,-y,-z
x,y,-z
-x,y,1/2+z
x,-y,1/2+z
1/2+x,1/2+y,z
1/2-x,1/2-y,z
1/2+x,1/2-y,1/2-z
1/2-x,1/2+y,1/2-z
1/2-x,1/2-y,-z
1/2+x,1/2+y,-z
1/2-x,1/2+y,1/2+z
1/2+x,1/2-y,1/2+z
loop_
_atom_site_type_symbol
_atom_site_label
_atom_site_fract_x
_atom_site_fract_y
_atom_site_fract_z
Si Si1 0.160932 0.097442 0.000000
Si Si2 0.869451 0.932650 0.661625
Si Si3 0.841716 0.380372 0.500000
Si Si4 0.500000 0.298227 0.250000
Si Si5 0.750000 0.750000 0.287042
Si Si6 0.619912 0.110523 0.689112
O O1 0.141152 0.237655 0.000000
O O2 0.252052 0.098035 0.000000
O O3 0.132549 0.025453 0.916294
O O4 0.950713 0.875365 0.682910
O O5 0.806845 0.828463 0.654841
O O6 0.848290 0.000000 0.750000
O O7 0.872833 0.429597 0.590168
O O8 0.558578 0.214279 0.300206
O O9 0.698151 0.832623 0.224996
O O10 0.600082 0.000000 0.750000
#
# Coordination Sequence:
#
# PCOD9497296 Si02
#       6
#     8  16   8   8   8  16
#     4  11  22  38  65  97 128 163 207 261 316 368
#     4  11  22  39  61  89 126 165 209 264 317 368
#     4  11  22  37  64  99 125 160 212 256 311 381
#     4  10  24  42  60  88 128 172 214 252 310 380
#     4  10  20  36  62  90 122 164 210 260 316 380
#     4  11  22  41  64  89 127 168 209 261 316 372
#
# _framework density 20.950448999999999
#
# number of rings (size 3 to 8) (size 9 to 14) (size 15 to 20)
#    0.000    1.250    0.000    9.000    0.000    1.500 
#    0.000   11.250    0.000    0.000    0.000    0.000 
#    0.000    0.000    0.000    0.000    0.000    0.000 
#
# Total GULP energy -179051.667867 kJ/mol
# GULP energy per Si atom -5595.364621 kJ/mol
# Density = 2.090277 g / cm^3
# Si number density = 20.950449 Si / 1000 Ang^3
#
#
#
# Elastic Constant Matrix: (Units=GPa)
#
#
# Indices 1 2 3 4 5 6 
#
# 1 112.2008 49.7847 25.2496 0.0000 0.0000 0.0000
# 2 49.7847 105.3811 52.9021 0.0000 0.0000 0.0000
# 3 25.2496 52.9021 145.1664 0.0000 0.0000 0.0000
# 4 0.0000 0.0000 0.0000 37.9985 0.0000 0.0000
# 5 0.0000 0.0000 0.0000 0.0000 5.0751 0.0000
# 6 0.0000 0.0000 0.0000 0.0000 0.0000 37.5992
#
#
#
# Elastic Compliance Matrix: (Units=1/GPa)
#
#
# Indices 1 2 3 4 5 6 
#
# 1 0.011276 -0.005315 -0.000024 0.000000 0.000000 0.000000
# 2 -0.005315 0.014119 -0.004221 0.000000 0.000000 0.000000
# 3 -0.000024 -0.004221 0.008431 0.000000 0.000000 0.000000
# 4 0.000000 0.000000 0.000000 0.026317 0.000000 0.000000
# 5 0.000000 0.000000 0.000000 0.000000 0.197040 0.000000
# 6 0.000000 0.000000 0.000000 0.000000 0.000000 0.026596
#
#
# Mechanical properties :
#
#
# Convention : Reuss Voigt Hill
#
# Bulk Modulus (GPa) = 67.99939 68.73570 68.36755
# Shear Modulus (GPa) = 16.24420 31.78869 24.01645
#
# Velocity S-wave (km/s) = 2.78755 3.89951 3.38945
# Velocity P-wave (km/s) = 6.54892 7.29074 6.92976
#
# Compressibility (1/GPa) = 0.01470601
#
# Stress axis : x y z
#
# Youngs Moduli (GPa) = 88.68073 70.82536 118.60841
#
# Poissons Ratio (x) = 0.37644 0.00290
# Poissons Ratio (y) = 0.47134 0.50064
# Poissons Ratio (z) = 0.00217 0.29895
#
# Static dielectric constant tensor:
#      x y z
#    x 1.776950 0.000000 0.000000 
#    y 0.000000 1.779220 0.000000 
#    z 0.000000 0.000000 1.660730 
# 
# From -- ./inp_files/25884.got.cif
#   From: 2010.05.17/outbox.cif.g08.bks.cpg/sg66_13_cif.got.tgz:25884.got - 2010.06.03 17:51:23.
