data_PCOD9497752
_publ_section_title
;
Structure prediction by ZEFSAII (Michael W. Deem and Ramdas Pophale) SiO2 
 PCOD9497752
Probable space group: C C C M
;
_chemical_formula_sum "Si O2"
_cell_formula_units_Z 56
_cell_length_a 5.263870
_cell_length_b 33.535047
_cell_length_c 14.509789
_cell_angle_alpha 90.000000
_cell_angle_beta 90.000000
_cell_angle_gamma 90.000000
_cell_volume 2561.327849
_symmetry_space_group_name_H-M "C C C M"
_symmetry_group_IT_number 66
_symmetry_cell_setting 'orthorhombic'
loop_
_space_group_symop_operation_xyz
x,y,z
-x,-y,z
x,-y,1/2-z
-x,y,1/2-z
-x,-y,-z
x,y,-z
-x,y,1/2+z
x,-y,1/2+z
1/2+x,1/2+y,z
1/2-x,1/2-y,z
1/2+x,1/2-y,1/2-z
1/2-x,1/2+y,1/2-z
1/2-x,1/2-y,-z
1/2+x,1/2+y,-z
1/2-x,1/2+y,1/2+z
1/2+x,1/2-y,1/2+z
loop_
_atom_site_type_symbol
_atom_site_label
_atom_site_fract_x
_atom_site_fract_y
_atom_site_fract_z
Si Si1 0.168286 0.340814 0.609022
Si Si2 0.000000 0.274302 0.750000
Si Si3 0.158121 0.107856 0.109150
Si Si4 0.246973 0.982184 0.647266
O O1 0.204252 0.331686 0.500000
O O2 0.409720 0.367473 0.640264
O O3 0.119953 0.301892 0.669851
O O4 0.910772 0.366084 0.619532
O O5 0.750000 0.250000 0.715903
O O6 0.215166 0.065090 0.152891
O O7 0.119311 0.100197 0.000000
O O8 0.500000 0.000000 0.603447
O O9 0.249446 0.000000 0.750000
O O10 0.000000 0.000000 0.600535
#
# Coordination Sequence:
#
# PCOD9497752 Si02
#       4
#    16   8  16  16
#     4  10  23  43  66  91 122 162 205 251 304 365
#     4  12  26  42  66 100 129 158 197 248 314 384
#     4  10  21  39  61  85 118 163 211 256 302 360
#     4  10  21  34  51  81 117 155 203 254 309 354
#
# _framework density 21.863662000000001
#
# number of rings (size 3 to 8) (size 9 to 14) (size 15 to 20)
#    0.000    1.714    0.000    3.429    0.000    9.143 
#    0.000    0.000    0.000    0.000    0.000    0.000 
#    0.000    0.000    0.000    0.000    0.000    0.000 
#
# Total GULP energy -156451.105376 kJ/mol
# GULP energy per Si atom -5587.539478 kJ/mol
# Density = 2.181390 g / cm^3
# Si number density = 21.863662 Si / 1000 Ang^3
#
#
#
# Elastic Constant Matrix: (Units=GPa)
#
#
# Indices 1 2 3 4 5 6 
#
# 1 209.1516 65.0129 41.2886 0.0000 0.0000 0.0000
# 2 65.0129 140.4135 56.9580 0.0000 0.0000 0.0000
# 3 41.2886 56.9580 86.5734 0.0000 0.0000 0.0000
# 4 0.0000 0.0000 0.0000 15.4764 0.0000 0.0000
# 5 0.0000 0.0000 0.0000 0.0000 2.4633 0.0000
# 6 0.0000 0.0000 0.0000 0.0000 0.0000 -78.2904
#
#
#
# Elastic Compliance Matrix: (Units=1/GPa)
#
#
# Indices 1 2 3 4 5 6 
#
# 1 0.005697 -0.002094 -0.001339 0.000000 0.000000 0.000000
# 2 -0.002094 0.010484 -0.005899 0.000000 0.000000 0.000000
# 3 -0.001339 -0.005899 0.016070 0.000000 0.000000 0.000000
# 4 0.000000 0.000000 0.000000 0.064615 0.000000 0.000000
# 5 0.000000 0.000000 0.000000 0.000000 0.405959 0.000000
# 6 0.000000 0.000000 0.000000 0.000000 0.000000 -0.012773
#
#
# Mechanical properties :
#
#
# Convention : Reuss Voigt Hill
#
# Bulk Modulus (GPa) = 73.60037 84.73974 79.17005
# Shear Modulus (GPa) = 9.74191 6.12179 7.93185
#
# Velocity S-wave (km/s) = 2.11316 1.67513 1.90676
# Velocity P-wave (km/s) = 6.30003 6.52563 6.41382
#
# Compressibility (1/GPa) = 0.01358689
#
# Stress axis : x y z
#
# Youngs Moduli (GPa) = 175.54431 95.37893 62.22604
#
# Poissons Ratio (x) = 0.19977 0.08331
# Poissons Ratio (y) = 0.36768 0.36707
# Poissons Ratio (z) = 0.23502 0.56264
#
# Static dielectric constant tensor:
#      x y z
#    x 1.785260 0.000000 0.000000 
#    y 0.000000 1.791540 0.000000 
#    z 0.000000 0.000000 1.796030 
# 
# From -- ./inp_files/22470.got.cif
#   From: 2010.05.17/outbox.cif.g08.bks.cpg/sg66_12_cif.got.tgz:22470.got - 2010.06.03 17:51:23.
