data_PCOD9497512
_publ_section_title
;
Structure prediction by ZEFSAII (Michael W. Deem and Ramdas Pophale) SiO2 
 PCOD9497512
Probable space group: C C C M
;
_chemical_formula_sum "Si O2"
_cell_formula_units_Z 72
_cell_length_a 16.670506
_cell_length_b 11.865669
_cell_length_c 19.917146
_cell_angle_alpha 90.000000
_cell_angle_beta 90.000000
_cell_angle_gamma 90.000000
_cell_volume 3939.745048
_symmetry_space_group_name_H-M "C C C M"
_symmetry_group_IT_number 66
_symmetry_cell_setting 'orthorhombic'
loop_
_space_group_symop_operation_xyz
x,y,z
-x,-y,z
x,-y,1/2-z
-x,y,1/2-z
-x,-y,-z
x,y,-z
-x,y,1/2+z
x,-y,1/2+z
1/2+x,1/2+y,z
1/2-x,1/2-y,z
1/2+x,1/2-y,1/2-z
1/2-x,1/2+y,1/2-z
1/2-x,1/2-y,-z
1/2+x,1/2+y,-z
1/2-x,1/2+y,1/2+z
1/2+x,1/2-y,1/2+z
loop_
_atom_site_type_symbol
_atom_site_label
_atom_site_fract_x
_atom_site_fract_y
_atom_site_fract_z
Si Si1 0.146491 0.611580 0.786079
Si Si2 0.343023 0.216533 0.423534
Si Si3 0.077664 0.823008 0.294932
Si Si4 0.803816 0.000000 0.750000
Si Si5 0.492307 0.632578 0.076956
O O1 0.111402 0.500000 0.750000
O O2 0.129009 0.634056 0.863955
O O3 0.119290 0.718013 0.742163
O O4 0.242229 0.587795 0.783492
O O5 0.352598 0.173037 0.500000
O O6 0.250000 0.250000 0.414928
O O7 0.400966 0.324895 0.417069
O O8 0.139032 0.926805 0.296817
O O9 0.000000 0.853253 0.250000
O O10 0.045249 0.800760 0.369204
O O11 0.500000 0.500000 0.091782
O O12 0.517703 0.650905 0.000000
#
# Coordination Sequence:
#
# PCOD9497512 Si02
#       5
#    16  16  16   8  16
#     4  10  24  39  59  86 125 157 204 249 298 360
#     4  10  20  38  60  86 122 163 204 246 303 367
#     4  12  21  37  62  90 117 153 203 250 309 352
#     4  10  23  38  61  86 116 154 204 254 297 358
#     4  10  22  37  57  91 125 156 201 259 308 356
#
# _framework density 18.275293999999999
#
# number of rings (size 3 to 8) (size 9 to 14) (size 15 to 20)
#    0.667    0.889    2.222    3.667    3.111    0.444 
#    0.000    1.111    0.000    4.000    0.000    0.000 
#    0.000    0.000    0.000    0.000    0.000    0.000 
#
# Total GULP energy -200582.211873 kJ/mol
# GULP energy per Si atom -5571.728108 kJ/mol
# Density = 1.823370 g / cm^3
# Si number density = 18.275294 Si / 1000 Ang^3
#
#
#
# Elastic Constant Matrix: (Units=GPa)
#
#
# Indices 1 2 3 4 5 6 
#
# 1 88.6577 45.1305 39.4902 0.0000 0.0000 0.0000
# 2 45.1305 64.7401 62.0391 0.0000 0.0000 0.0000
# 3 39.4902 62.0391 150.6531 0.0000 0.0000 0.0000
# 4 0.0000 0.0000 0.0000 24.5602 0.0000 0.0000
# 5 0.0000 0.0000 0.0000 0.0000 26.8475 0.0000
# 6 0.0000 0.0000 0.0000 0.0000 0.0000 31.7355
#
#
#
# Elastic Compliance Matrix: (Units=1/GPa)
#
#
# Indices 1 2 3 4 5 6 
#
# 1 0.017531 -0.012913 0.000722 0.000000 0.000000 0.000000
# 2 -0.012913 0.035027 -0.011039 0.000000 0.000000 0.000000
# 3 0.000722 -0.011039 0.010994 0.000000 0.000000 0.000000
# 4 0.000000 0.000000 0.000000 0.040716 0.000000 0.000000
# 5 0.000000 0.000000 0.000000 0.000000 0.037247 0.000000
# 6 0.000000 0.000000 0.000000 0.000000 0.000000 0.031510
#
#
# Mechanical properties :
#
#
# Convention : Reuss Voigt Hill
#
# Bulk Modulus (GPa) = 58.50631 66.37451 62.44041
# Shear Modulus (GPa) = 22.20414 27.12137 24.66275
#
# Velocity S-wave (km/s) = 3.48944 3.85651 3.67756
# Velocity P-wave (km/s) = 6.95114 7.49856 7.23003
#
# Compressibility (1/GPa) = 0.01709217
#
# Stress axis : x y z
#
# Youngs Moduli (GPa) = 57.04234 28.54967 90.95537
#
# Poissons Ratio (x) = 0.36866 -0.06569
# Poissons Ratio (y) = 0.73658 1.00408
# Poissons Ratio (z) = -0.04120 0.31517
#
# Static dielectric constant tensor:
#      x y z
#    x 1.642300 0.000000 0.000000 
#    y 0.000000 1.628860 0.000000 
#    z 0.000000 0.000000 1.643230 
# 
# From -- ./inp_files/51723.got.cif
#   From: 2010.05.17/outbox.cif.g08.bks.cpg/sg66_26_cif.got.tgz:51723.got - 2010.06.03 17:51:23.
