data_PCOD9497315
_publ_section_title
;
Structure prediction by ZEFSAII (Michael W. Deem and Ramdas Pophale) SiO2 
 PCOD9497315
Probable space group: C C C M
;
_chemical_formula_sum "Si O2"
_cell_formula_units_Z 112
_cell_length_a 10.696000
_cell_length_b 16.230018
_cell_length_c 26.657535
_cell_angle_alpha 90.000000
_cell_angle_beta 90.000000
_cell_angle_gamma 90.000000
_cell_volume 4627.648711
_symmetry_space_group_name_H-M "C C C M"
_symmetry_group_IT_number 66
_symmetry_cell_setting 'orthorhombic'
loop_
_space_group_symop_operation_xyz
x,y,z
-x,-y,z
x,-y,1/2-z
-x,y,1/2-z
-x,-y,-z
x,y,-z
-x,y,1/2+z
x,-y,1/2+z
1/2+x,1/2+y,z
1/2-x,1/2-y,z
1/2+x,1/2-y,1/2-z
1/2-x,1/2+y,1/2-z
1/2-x,1/2-y,-z
1/2+x,1/2+y,-z
1/2-x,1/2+y,1/2+z
1/2+x,1/2-y,1/2+z
loop_
_atom_site_type_symbol
_atom_site_label
_atom_site_fract_x
_atom_site_fract_y
_atom_site_fract_z
Si Si1 0.314816 0.555588 0.704212
Si Si2 0.147010 0.317005 0.255943
Si Si3 0.362120 0.191661 0.373205
Si Si4 0.766718 0.398164 0.556768
Si Si5 0.114923 0.937021 0.947015
Si Si6 0.369073 0.991325 0.874194
Si Si7 0.954684 0.164116 0.374824
O O1 0.363730 0.500000 0.750000
O O2 0.195768 0.603926 0.726662
O O3 0.253939 0.502912 0.659674
O O4 0.411743 0.618047 0.676374
O O5 0.250000 0.250000 0.238713
O O6 0.167944 0.326359 0.315054
O O7 0.000000 0.297702 0.250000
O O8 0.250000 0.250000 0.393256
O O9 0.363063 0.101223 0.396937
O O10 0.491184 0.244020 0.371717
O O11 0.787369 0.368774 0.500000
O O12 0.720156 0.493693 0.554327
O O13 0.879649 0.424259 0.592215
O O14 0.663051 0.345559 0.586824
O O15 0.070573 0.884030 0.900239
O O16 0.123478 0.889119 0.000000
O O17 0.000000 0.000000 0.950933
O O18 0.500000 0.000000 0.844111
#
# Coordination Sequence:
#
# PCOD9497315 Si02
#       7
#    16  16  16  16  16  16  16
#     4  11  23  40  63  92 125 175 229 279 332 413
#     4  11  23  41  65  89 130 174 227 282 349 405
#     4  11  23  40  64  90 131 171 214 281 340 403
#     4   9  19  38  64  94 133 174 220 275 341 419
#     4   8  14  30  59  90 124 167 209 262 331 402
#     4  11  23  40  66  94 124 174 225 275 334 408
#     4  10  20  36  63  94 128 169 225 274 339 405
#
# _framework density 24.202356000000002
#
# number of rings (size 3 to 8) (size 9 to 14) (size 15 to 20)
#    0.000    1.857    1.429    3.857    0.000    1.429 
#    0.000    3.571   15.714    4.714    0.000    0.000 
#    0.000    0.000    0.000    0.000    0.000    0.429 
#
# Total GULP energy -311922.288025 kJ/mol
# GULP energy per Si atom -5570.040858 kJ/mol
# Density = 2.414727 g / cm^3
# Si number density = 24.202356 Si / 1000 Ang^3
#
#
#
# Elastic Constant Matrix: (Units=GPa)
#
#
# Indices 1 2 3 4 5 6 
#
# 1 114.6475 52.7058 13.0444 0.0000 0.0000 0.0000
# 2 52.7058 114.7588 27.0946 0.0000 0.0000 0.0000
# 3 13.0444 27.0946 98.0429 0.0000 0.0000 0.0000
# 4 0.0000 0.0000 0.0000 13.3901 0.0000 0.0000
# 5 0.0000 0.0000 0.0000 0.0000 5.0540 0.0000
# 6 0.0000 0.0000 0.0000 0.0000 0.0000 43.5510
#
#
#
# Elastic Compliance Matrix: (Units=1/GPa)
#
#
# Indices 1 2 3 4 5 6 
#
# 1 0.011057 -0.005061 -0.000072 0.000000 0.000000 0.000000
# 2 -0.005061 0.011639 -0.002543 0.000000 0.000000 0.000000
# 3 -0.000072 -0.002543 0.010912 0.000000 0.000000 0.000000
# 4 0.000000 0.000000 0.000000 0.074682 0.000000 0.000000
# 5 0.000000 0.000000 0.000000 0.000000 0.197863 0.000000
# 6 0.000000 0.000000 0.000000 0.000000 0.000000 0.022962
#
#
# Mechanical properties :
#
#
# Convention : Reuss Voigt Hill
#
# Bulk Modulus (GPa) = 54.78034 57.01541 55.89787
# Shear Modulus (GPa) = 14.26319 28.03931 21.15125
#
# Velocity S-wave (km/s) = 2.43025 3.40742 2.95944
# Velocity P-wave (km/s) = 5.52795 6.25217 5.90118
#
# Compressibility (1/GPa) = 0.01825473
#
# Stress axis : x y z
#
# Youngs Moduli (GPa) = 90.43714 85.91900 91.64186
#
# Poissons Ratio (x) = 0.43486 0.00664
# Poissons Ratio (y) = 0.45773 0.23305
# Poissons Ratio (z) = 0.00655 0.21850
#
# Static dielectric constant tensor:
#      x y z
#    x 5.704040 0.000000 0.000000 
#    y 0.000000 1.586170 0.000000 
#    z 0.000000 0.000000 2.132600 
# 
# From -- ./inp_files/69071.got.cif
#   From: 2010.05.17/outbox.cif.g08.bks.cpg/sg66_35_cif.got.tgz:69071.got - 2010.06.03 17:51:23.
