data_PCOD9497569
_publ_section_title
;
Structure prediction by ZEFSAII (Michael W. Deem and Ramdas Pophale) SiO2 
 PCOD9497569
Probable space group: C C C M
;
_chemical_formula_sum "Si O2"
_cell_formula_units_Z 88
_cell_length_a 12.747445
_cell_length_b 24.242546
_cell_length_c 14.670876
_cell_angle_alpha 90.000000
_cell_angle_beta 90.000000
_cell_angle_gamma 90.000000
_cell_volume 4533.748465
_symmetry_space_group_name_H-M "C C C M"
_symmetry_group_IT_number 66
_symmetry_cell_setting 'orthorhombic'
loop_
_space_group_symop_operation_xyz
x,y,z
-x,-y,z
x,-y,1/2-z
-x,y,1/2-z
-x,-y,-z
x,y,-z
-x,y,1/2+z
x,-y,1/2+z
1/2+x,1/2+y,z
1/2-x,1/2-y,z
1/2+x,1/2-y,1/2-z
1/2-x,1/2+y,1/2-z
1/2-x,1/2-y,-z
1/2+x,1/2+y,-z
1/2-x,1/2+y,1/2+z
1/2+x,1/2-y,1/2+z
loop_
_atom_site_type_symbol
_atom_site_label
_atom_site_fract_x
_atom_site_fract_y
_atom_site_fract_z
Si Si1 0.506239 0.148188 0.000000
Si Si2 0.464953 0.438319 0.106750
Si Si3 0.593144 0.337249 0.177953
Si Si4 0.734805 0.814826 0.000000
Si Si5 0.128049 0.762060 0.000000
Si Si6 0.232701 0.115312 0.175493
Si Si7 0.962451 0.438380 0.352271
O O1 0.387380 0.170098 0.000000
O O2 0.517270 0.107717 0.085946
O O3 0.574559 0.202392 0.000000
O O4 0.500000 0.500000 0.120939
O O5 0.552412 0.394594 0.135571
O O6 0.362424 0.426851 0.165436
O O7 0.440283 0.430745 0.000000
O O8 0.500000 0.320465 0.250000
O O9 0.701820 0.350130 0.233083
O O10 0.601140 0.295455 0.093006
O O11 0.750000 0.750000 0.000000
O O12 0.779568 0.842094 0.091484
O O13 0.250000 0.750000 0.000000
O O14 0.339777 0.080856 0.156517
O O15 0.000000 0.500000 0.384048
O O16 0.000000 0.434854 0.250000
#
# Coordination Sequence:
#
# PCOD9497569 Si02
#       7
#     8  16  16   8   8  16  16
#     4  10  25  44  66  92 134 168 218 267 333 396
#     4  10  20  38  65  95 130 166 206 263 323 383
#     4  10  24  42  69  95 135 172 220 269 328 392
#     4  10  22  39  69  92 119 169 221 274 309 373
#     4  12  28  47  63  96 139 180 213 277 338 391
#     4  10  22  41  65  99 125 164 223 261 323 394
#     4  10  23  44  69  96 129 169 216 277 325 391
#
# _framework density 19.409987999999998
#
# number of rings (size 3 to 8) (size 9 to 14) (size 15 to 20)
#    0.000    1.818    1.818    0.273    7.636    7.636 
#    0.000    0.000    0.000    0.000    0.000    0.000 
#    0.000    0.000    0.000    0.000    0.000    0.000 
#
# Total GULP energy -245230.035138 kJ/mol
# GULP energy per Si atom -5573.409889 kJ/mol
# Density = 1.936581 g / cm^3
# Si number density = 19.409988 Si / 1000 Ang^3
#
#
#
# Elastic Constant Matrix: (Units=GPa)
#
#
# Indices 1 2 3 4 5 6 
#
# 1 54.5027 53.4208 27.2034 0.0000 0.0000 0.0000
# 2 53.4208 168.5071 83.5307 0.0000 0.0000 0.0000
# 3 27.2034 83.5307 118.8462 0.0000 0.0000 0.0000
# 4 0.0000 0.0000 0.0000 40.4246 0.0000 0.0000
# 5 0.0000 0.0000 0.0000 0.0000 18.3083 0.0000
# 6 0.0000 0.0000 0.0000 0.0000 0.0000 27.0052
#
#
#
# Elastic Compliance Matrix: (Units=1/GPa)
#
#
# Indices 1 2 3 4 5 6 
#
# 1 0.026624 -0.008317 -0.000248 0.000000 0.000000 0.000000
# 2 -0.008317 0.011706 -0.006324 0.000000 0.000000 0.000000
# 3 -0.000248 -0.006324 0.012916 0.000000 0.000000 0.000000
# 4 0.000000 0.000000 0.000000 0.024737 0.000000 0.000000
# 5 0.000000 0.000000 0.000000 0.000000 0.054620 0.000000
# 6 0.000000 0.000000 0.000000 0.000000 0.000000 0.037030
#
#
# Mechanical properties :
#
#
# Convention : Reuss Voigt Hill
#
# Bulk Modulus (GPa) = 46.58342 74.46286 60.52314
# Shear Modulus (GPa) = 24.44185 28.99436 26.71811
#
# Velocity S-wave (km/s) = 3.55243 3.86915 3.71416
# Velocity P-wave (km/s) = 6.39360 7.64244 7.04574
#
# Compressibility (1/GPa) = 0.02146687
#
# Stress axis : x y z
#
# Youngs Moduli (GPa) = 37.56031 85.42630 77.42531
#
# Poissons Ratio (x) = 0.71052 0.01922
# Poissons Ratio (y) = 0.31240 0.48962
# Poissons Ratio (z) = 0.00933 0.54021
#
# Static dielectric constant tensor:
#      x y z
#    x 1.645570 0.000000 0.000000 
#    y 0.000000 1.634270 0.000000 
#    z 0.000000 0.000000 1.690960 
# 
# From -- ./inp_files/26591.got.cif
#   From: 2010.05.17/outbox.cif.g08.bks.cpg/sg66_14_cif.got.tgz:26591.got - 2010.06.03 17:51:23.
