data_PCOD9497631
_publ_section_title
;
Structure prediction by ZEFSAII (Michael W. Deem and Ramdas Pophale) SiO2 
 PCOD9497631
Probable space group: C C C M
;
_chemical_formula_sum "Si O2"
_cell_formula_units_Z 112
_cell_length_a 17.548998
_cell_length_b 23.041107
_cell_length_c 14.524232
_cell_angle_alpha 90.000000
_cell_angle_beta 90.000000
_cell_angle_gamma 90.000000
_cell_volume 5872.849109
_symmetry_space_group_name_H-M "C C C M"
_symmetry_group_IT_number 66
_symmetry_cell_setting 'orthorhombic'
loop_
_space_group_symop_operation_xyz
x,y,z
-x,-y,z
x,-y,1/2-z
-x,y,1/2-z
-x,-y,-z
x,y,-z
-x,y,1/2+z
x,-y,1/2+z
1/2+x,1/2+y,z
1/2-x,1/2-y,z
1/2+x,1/2-y,1/2-z
1/2-x,1/2+y,1/2-z
1/2-x,1/2-y,-z
1/2+x,1/2+y,-z
1/2-x,1/2+y,1/2+z
1/2+x,1/2-y,1/2+z
loop_
_atom_site_type_symbol
_atom_site_label
_atom_site_fract_x
_atom_site_fract_y
_atom_site_fract_z
Si Si1 0.278102 0.929946 0.754061
Si Si2 0.836488 0.120398 0.389239
Si Si3 0.164172 0.749124 0.892708
Si Si4 0.909773 0.661594 0.255055
Si Si5 0.841729 0.748553 0.106975
Si Si6 0.492049 0.568202 0.395425
Si Si7 0.148889 0.114586 0.608369
O O1 0.236712 0.903699 0.663389
O O2 0.358354 0.896274 0.763545
O O3 0.220997 0.909611 0.835934
O O4 0.283925 0.000000 0.750000
O O5 0.823920 0.119190 0.500000
O O6 0.860718 0.185869 0.363310
O O7 0.908652 0.082275 0.360661
O O8 0.250000 0.750000 0.852660
O O9 0.111427 0.704464 0.839385
O O10 0.141290 0.816064 0.887314
O O11 0.168865 0.731897 0.000000
O O12 0.880062 0.699241 0.167878
O O13 0.000000 0.650847 0.250000
O O14 0.750000 0.750000 0.113452
O O15 0.862334 0.740725 0.000000
O O16 0.500000 0.500000 0.399556
O O17 0.492131 0.593003 0.500000
O O18 0.569337 0.591148 0.351979
O O19 0.156771 0.097994 0.500000
#
# Coordination Sequence:
#
# PCOD9497631 Si02
#       7
#    16  16  16  16  16  16  16
#     4  12  25  41  62  84 112 162 219 255 297 357
#     4  10  21  38  61  90 122 156 196 244 299 363
#     4  10  20  39  66  91 118 152 195 249 308 368
#     4  12  26  41  60  90 126 160 203 261 311 357
#     4  10  20  39  66  91 118 152 195 249 308 368
#     4   9  18  33  53  83 124 159 185 225 284 351
#     4  10  21  38  61  90 122 156 196 244 299 363
#
# _framework density 19.070812
#
# number of rings (size 3 to 8) (size 9 to 14) (size 15 to 20)
#    0.000    1.571    2.857    2.143    2.000    3.143 
#    0.000    1.429    0.000    0.000    0.000    4.000 
#    0.000    0.000    0.000    0.000    0.000    0.000 
#
# Total GULP energy -312593.465678 kJ/mol
# GULP energy per Si atom -5582.026173 kJ/mol
# Density = 1.902741 g / cm^3
# Si number density = 19.070812 Si / 1000 Ang^3
#
#
#
# Elastic Constant Matrix: (Units=GPa)
#
#
# Indices 1 2 3 4 5 6 
#
# 1 128.1387 33.9680 11.7799 0.0000 0.0000 0.0000
# 2 33.9680 83.5183 15.6743 0.0000 0.0000 0.0000
# 3 11.7799 15.6743 69.6349 0.0000 0.0000 0.0000
# 4 0.0000 0.0000 0.0000 -10.3038 0.0000 0.0000
# 5 0.0000 0.0000 0.0000 0.0000 -26.5348 0.0000
# 6 0.0000 0.0000 0.0000 0.0000 0.0000 35.0383
#
#
#
# Elastic Compliance Matrix: (Units=1/GPa)
#
#
# Indices 1 2 3 4 5 6 
#
# 1 0.008781 -0.003438 -0.000712 0.000000 0.000000 0.000000
# 2 -0.003438 0.013847 -0.002535 0.000000 0.000000 0.000000
# 3 -0.000712 -0.002535 0.015052 0.000000 0.000000 0.000000
# 4 0.000000 0.000000 0.000000 -0.097051 0.000000 0.000000
# 5 0.000000 0.000000 0.000000 0.000000 -0.037686 0.000000
# 6 0.000000 0.000000 0.000000 0.000000 0.000000 0.028540
#
#
# Mechanical properties :
#
#
# Convention : Reuss Voigt Hill
#
# Bulk Modulus (GPa) = 41.13459 44.90403 43.01931
# Shear Modulus (GPa) = -106.28143 14.29793 -45.99175
#
# Velocity S-wave (km/s) = -7.47334 2.74109 -4.91616
# Velocity P-wave (km/s) = 7.26991 5.79786 3.10133
#
# Compressibility (1/GPa) = 0.02431044
#
# Stress axis : x y z
#
# Youngs Moduli (GPa) = 113.88548 72.21562 66.43766
#
# Poissons Ratio (x) = 0.24826 0.04728
# Poissons Ratio (y) = 0.39150 0.16845
# Poissons Ratio (z) = 0.08104 0.18310
#
# Static dielectric constant tensor:
#      x y z
#    x 1.674720 0.000000 0.000000 
#    y 0.000000 1.762570 0.000000 
#    z 0.000000 0.000000 1.734190 
# 
# From -- ./inp_files/28708.got.cif
#   From: 2010.05.17/outbox.cif.g08.bks.cpg/sg66_15_cif.got.tgz:28708.got - 2010.06.03 17:51:23.
