data_PCOD9497779
_publ_section_title
;
Structure prediction by ZEFSAII (Michael W. Deem and Ramdas Pophale) SiO2 
 PCOD9497779
Probable space group: C C C M
;
_chemical_formula_sum "Si O2"
_cell_formula_units_Z 80
_cell_length_a 10.730885
_cell_length_b 26.755273
_cell_length_c 14.151239
_cell_angle_alpha 90.000000
_cell_angle_beta 90.000000
_cell_angle_gamma 90.000000
_cell_volume 4062.930498
_symmetry_space_group_name_H-M "C C C M"
_symmetry_group_IT_number 66
_symmetry_cell_setting 'orthorhombic'
loop_
_space_group_symop_operation_xyz
x,y,z
-x,-y,z
x,-y,1/2-z
-x,y,1/2-z
-x,-y,-z
x,y,-z
-x,y,1/2+z
x,-y,1/2+z
1/2+x,1/2+y,z
1/2-x,1/2-y,z
1/2+x,1/2-y,1/2-z
1/2-x,1/2+y,1/2-z
1/2-x,1/2-y,-z
1/2+x,1/2+y,-z
1/2-x,1/2+y,1/2+z
1/2+x,1/2-y,1/2+z
loop_
_atom_site_type_symbol
_atom_site_label
_atom_site_fract_x
_atom_site_fract_y
_atom_site_fract_z
Si Si1 0.986046 0.576822 0.609553
Si Si2 0.449250 0.295349 0.611015
Si Si3 0.188598 0.836798 0.716152
Si Si4 0.715801 0.054073 0.257483
Si Si5 0.065151 0.689919 0.390326
O O1 0.989584 0.564060 0.500000
O O2 0.859578 0.561897 0.660452
O O3 0.104755 0.553825 0.664152
O O4 0.998302 0.636763 0.620607
O O5 0.425337 0.303152 0.500000
O O6 0.575692 0.322573 0.646171
O O7 0.343869 0.315348 0.680909
O O8 0.477068 0.236815 0.628185
O O9 0.204507 0.896674 0.721831
O O10 0.314331 0.812673 0.675565
O O11 0.779031 0.000000 0.250000
O O12 0.106617 0.694120 0.500000
#
# Coordination Sequence:
#
# PCOD9497779 Si02
#       5
#    16  16  16  16  16
#     4   9  18  33  54  82 111 135 165 211 266 322
#     4  10  21  37  56  80 109 140 174 212 254 307
#     4  10  21  35  56  78 103 139 177 216 259 308
#     4  10  21  35  52  77 106 138 178 221 263 305
#     4   9  18  34  57  82 108 137 168 206 258 319
#
# _framework density 19.690221999999999
#
# number of rings (size 3 to 8) (size 9 to 14) (size 15 to 20)
#    0.000    2.400    0.000    2.400    0.000   12.800 
#    0.000    2.000    0.000   15.600    0.000    0.000 
#    0.000    0.000    0.000    0.000    0.000    0.000 
#
# Total GULP energy -223551.179552 kJ/mol
# GULP energy per Si atom -5588.779489 kJ/mol
# Density = 1.964541 g / cm^3
# Si number density = 19.690222 Si / 1000 Ang^3
#
#
#
# Elastic Constant Matrix: (Units=GPa)
#
#
# Indices 1 2 3 4 5 6 
#
# 1 30.5049 25.1982 26.8326 0.0000 0.0000 0.0000
# 2 25.1982 114.8212 31.2471 0.0000 0.0000 0.0000
# 3 26.8326 31.2471 114.7449 0.0000 0.0000 0.0000
# 4 0.0000 0.0000 0.0000 17.0724 0.0000 0.0000
# 5 0.0000 0.0000 0.0000 0.0000 22.9382 0.0000
# 6 0.0000 0.0000 0.0000 0.0000 0.0000 20.3298
#
#
#
# Elastic Compliance Matrix: (Units=1/GPa)
#
#
# Indices 1 2 3 4 5 6 
#
# 1 0.047127 -0.007931 -0.008861 0.000000 0.000000 0.000000
# 2 -0.007931 0.010741 -0.001070 0.000000 0.000000 0.000000
# 3 -0.008861 -0.001070 0.011078 0.000000 0.000000 0.000000
# 4 0.000000 0.000000 0.000000 0.058574 0.000000 0.000000
# 5 0.000000 0.000000 0.000000 0.000000 0.043595 0.000000
# 6 0.000000 0.000000 0.000000 0.000000 0.000000 0.049189
#
#
# Mechanical properties :
#
#
# Convention : Reuss Voigt Hill
#
# Bulk Modulus (GPa) = 30.10020 47.40300 38.75160
# Shear Modulus (GPa) = 18.71938 23.85428 21.28683
#
# Velocity S-wave (km/s) = 3.08668 3.48441 3.29156
# Velocity P-wave (km/s) = 5.29372 6.34939 5.84544
#
# Compressibility (1/GPa) = 0.03322237
#
# Stress axis : x y z
#
# Youngs Moduli (GPa) = 21.21934 93.10160 90.26500
#
# Poissons Ratio (x) = 0.73838 0.79981
# Poissons Ratio (y) = 0.16829 0.09661
# Poissons Ratio (z) = 0.18802 0.09965
#
# Static dielectric constant tensor:
#      x y z
#    x 1.674360 0.000000 0.000000 
#    y 0.000000 1.720210 0.000000 
#    z 0.000000 0.000000 1.697220 
# 
# From -- ./inp_files/26695.got.cif
#   From: 2010.05.17/outbox.cif.g08.bks.cpg/sg66_14_cif.got.tgz:26695.got - 2010.06.03 17:51:23.
