data_PCOD9497321
_publ_section_title
;
Structure prediction by ZEFSAII (Michael W. Deem and Ramdas Pophale) SiO2 
 PCOD9497321
Probable space group: C C C M
;
_chemical_formula_sum "Si O2"
_cell_formula_units_Z 52
_cell_length_a 4.963522
_cell_length_b 17.570160
_cell_length_c 26.677822
_cell_angle_alpha 90.000000
_cell_angle_beta 90.000000
_cell_angle_gamma 90.000000
_cell_volume 2326.569541
_symmetry_space_group_name_H-M "C C C M"
_symmetry_group_IT_number 66
_symmetry_cell_setting 'orthorhombic'
loop_
_space_group_symop_operation_xyz
x,y,z
-x,-y,z
x,-y,1/2-z
-x,y,1/2-z
-x,-y,-z
x,y,-z
-x,y,1/2+z
x,-y,1/2+z
1/2+x,1/2+y,z
1/2-x,1/2-y,z
1/2+x,1/2-y,1/2-z
1/2-x,1/2+y,1/2-z
1/2-x,1/2-y,-z
1/2+x,1/2+y,-z
1/2-x,1/2+y,1/2+z
1/2+x,1/2-y,1/2+z
loop_
_atom_site_type_symbol
_atom_site_label
_atom_site_fract_x
_atom_site_fract_y
_atom_site_fract_z
Si Si1 0.750000 0.750000 0.275214
Si Si2 0.827200 0.611870 0.665521
Si Si3 0.809394 0.158008 0.605847
Si Si4 0.500000 0.000000 0.250000
Si Si5 0.004678 0.192360 0.000000
O O1 0.500000 0.706786 0.250000
O O2 0.914872 0.689156 0.306765
O O3 0.533599 0.629174 0.644466
O O4 0.835627 0.550311 0.709649
O O5 0.041926 0.609774 0.619761
O O6 0.750000 0.250000 0.608758
O O7 0.947806 0.146620 0.551305
O O8 0.250000 0.250000 0.000000
O O9 0.750000 0.250000 0.000000
#
# Coordination Sequence:
#
# PCOD9497321 Si02
#       5
#     8  16  16   4   8
#     4  12  22  40  64  91 124 177 228 286 330 398
#     4  12  25  41  64  92 137 179 227 270 343 402
#     4  11  21  40  68  99 131 170 219 284 343 405
#     4  12  32  46  64 100 144 196 232 290 336 412
#     4  10  20  36  64 107 138 159 214 292 360 406
#
# _framework density 22.350503
#
# number of rings (size 3 to 8) (size 9 to 14) (size 15 to 20)
#    0.000    0.615    4.615    5.538    0.000    2.462 
#    0.000    0.000    0.000    5.538    0.000    0.000 
#    0.000    0.000    0.000    0.000    0.000    0.000 
#
# Total GULP energy -144819.297535 kJ/mol
# GULP energy per Si atom -5569.972982 kJ/mol
# Density = 2.229963 g / cm^3
# Si number density = 22.350503 Si / 1000 Ang^3
#
#
#
# Elastic Constant Matrix: (Units=GPa)
#
#
# Indices 1 2 3 4 5 6 
#
# 1 137.6826 8.7591 32.7721 0.0000 0.0000 0.0000
# 2 8.7591 60.6385 44.2521 0.0000 0.0000 0.0000
# 3 32.7721 44.2521 145.4386 0.0000 0.0000 0.0000
# 4 0.0000 0.0000 0.0000 69.0799 0.0000 0.0000
# 5 0.0000 0.0000 0.0000 0.0000 32.0264 0.0000
# 6 0.0000 0.0000 0.0000 0.0000 0.0000 16.1195
#
#
#
# Elastic Compliance Matrix: (Units=1/GPa)
#
#
# Indices 1 2 3 4 5 6 
#
# 1 0.007677 0.000197 -0.001790 0.000000 0.000000 0.000000
# 2 0.000197 0.021203 -0.006496 0.000000 0.000000 0.000000
# 3 -0.001790 -0.006496 0.009256 0.000000 0.000000 0.000000
# 4 0.000000 0.000000 0.000000 0.014476 0.000000 0.000000
# 5 0.000000 0.000000 0.000000 0.000000 0.031224 0.000000
# 6 0.000000 0.000000 0.000000 0.000000 0.000000 0.062037
#
#
# Mechanical properties :
#
#
# Convention : Reuss Voigt Hill
#
# Bulk Modulus (GPa) = 45.54053 57.25848 51.39951
# Shear Modulus (GPa) = 29.52146 40.64359 35.08253
#
# Velocity S-wave (km/s) = 3.63828 4.26897 3.96618
# Velocity P-wave (km/s) = 6.17003 7.06915 6.63484
#
# Compressibility (1/GPa) = 0.02195846
#
# Stress axis : x y z
#
# Youngs Moduli (GPa) = 130.26679 47.16280 108.04354
#
# Poissons Ratio (x) = -0.00930 0.19338
# Poissons Ratio (y) = -0.02570 0.70184
# Poissons Ratio (z) = 0.23315 0.30636
#
# Static dielectric constant tensor:
#      x y z
#    x 1.669990 0.000000 0.000000 
#    y 0.000000 1.906670 0.000000 
#    z 0.000000 0.000000 2.105400 
# 
# From -- ./inp_files/61030.got.cif
#   From: 2010.05.17/outbox.cif.g08.bks.cpg/sg66_31_cif.got.tgz:61030.got - 2010.06.03 17:51:23.
