data_PCOD9497623
_publ_section_title
;
Structure prediction by ZEFSAII (Michael W. Deem and Ramdas Pophale) SiO2 
 PCOD9497623
Probable space group: C C C M
;
_chemical_formula_sum "Si O2"
_cell_formula_units_Z 64
_cell_length_a 12.903925
_cell_length_b 8.451782
_cell_length_c 26.035291
_cell_angle_alpha 90.000000
_cell_angle_beta 90.000000
_cell_angle_gamma 90.000000
_cell_volume 2839.439065
_symmetry_space_group_name_H-M "C C C M"
_symmetry_group_IT_number 66
_symmetry_cell_setting 'orthorhombic'
loop_
_space_group_symop_operation_xyz
x,y,z
-x,-y,z
x,-y,1/2-z
-x,y,1/2-z
-x,-y,-z
x,y,-z
-x,y,1/2+z
x,-y,1/2+z
1/2+x,1/2+y,z
1/2-x,1/2-y,z
1/2+x,1/2-y,1/2-z
1/2-x,1/2+y,1/2-z
1/2-x,1/2-y,-z
1/2+x,1/2+y,-z
1/2-x,1/2+y,1/2+z
1/2+x,1/2-y,1/2+z
loop_
_atom_site_type_symbol
_atom_site_label
_atom_site_fract_x
_atom_site_fract_y
_atom_site_fract_z
Si Si1 0.630250 0.193038 0.057568
Si Si2 0.336931 0.544751 0.193410
Si Si3 0.501257 0.724865 0.156138
Si Si4 0.319260 0.090308 0.118879
O O1 0.750000 0.250000 0.059792
O O2 0.556910 0.275558 0.100424
O O3 0.639551 0.005843 0.070136
O O4 0.591549 0.222342 0.000000
O O5 0.302265 0.500000 0.250000
O O6 0.404974 0.704099 0.194532
O O7 0.418102 0.413835 0.171861
O O8 0.247158 0.532494 0.152259
O O9 0.580577 0.867437 0.152432
O O10 0.250000 0.250000 0.109168
#
# Coordination Sequence:
#
# PCOD9497623 Si02
#       4
#    16  16  16  16
#     4  11  23  42  67  96 135 177 214 276 344 386
#     4  10  21  43  64  93 135 174 214 276 340 391
#     4  10  20  39  65  91 126 167 215 268 319 398
#     4  10  22  41  65  93 129 165 220 273 322 399
#
# _framework density 22.539662
#
# number of rings (size 3 to 8) (size 9 to 14) (size 15 to 20)
#    0.000    1.750    2.500    2.250    0.000    2.500 
#   18.000    6.250    0.000    0.000    0.000    0.000 
#    0.000    0.000    0.000    0.000    0.000    0.000 
#
# Total GULP energy -178207.238551 kJ/mol
# GULP energy per Si atom -5568.976205 kJ/mol
# Density = 2.248836 g / cm^3
# Si number density = 22.539662 Si / 1000 Ang^3
#
#
#
# Elastic Constant Matrix: (Units=GPa)
#
#
# Indices 1 2 3 4 5 6 
#
# 1 47.7126 1.9703 -5.6759 0.0000 0.0000 0.0000
# 2 1.9703 57.4636 -10.7024 0.0000 0.0000 0.0000
# 3 -5.6759 -10.7024 92.9567 0.0000 0.0000 0.0000
# 4 0.0000 0.0000 0.0000 14.8493 0.0000 0.0000
# 5 0.0000 0.0000 0.0000 0.0000 21.8037 0.0000
# 6 0.0000 0.0000 0.0000 0.0000 0.0000 49.6752
#
#
#
# Elastic Compliance Matrix: (Units=1/GPa)
#
#
# Indices 1 2 3 4 5 6 
#
# 1 0.021126 -0.000495 0.001233 0.000000 0.000000 0.000000
# 2 -0.000495 0.017795 0.002019 0.000000 0.000000 0.000000
# 3 0.001233 0.002019 0.011065 0.000000 0.000000 0.000000
# 4 0.000000 0.000000 0.000000 0.067343 0.000000 0.000000
# 5 0.000000 0.000000 0.000000 0.000000 0.045864 0.000000
# 6 0.000000 0.000000 0.000000 0.000000 0.000000 0.020131
#
#
# Mechanical properties :
#
#
# Convention : Reuss Voigt Hill
#
# Bulk Modulus (GPa) = 18.01792 18.81300 18.41546
# Shear Modulus (GPa) = 25.46980 31.43501 28.45241
#
# Velocity S-wave (km/s) = 3.36519 3.73856 3.55678
# Velocity P-wave (km/s) = 4.80735 5.19620 5.00555
#
# Compressibility (1/GPa) = 0.05550029
#
# Stress axis : x y z
#
# Youngs Moduli (GPa) = 47.33516 56.19478 90.37183
#
# Poissons Ratio (x) = 0.02780 -0.11143
# Poissons Ratio (y) = 0.02342 -0.18243
# Poissons Ratio (z) = -0.05836 -0.11344
#
# Static dielectric constant tensor:
#      x y z
#    x 1.864720 0.000000 0.000000 
#    y 0.000000 278.480070 0.000000 
#    z 0.000000 0.000000 1.766370 
# 
# From -- ./inp_files/57660.got.cif
#   From: 2010.05.17/outbox.cif.g08.bks.cpg/sg66_29_cif.got.tgz:57660.got - 2010.06.03 17:51:23.
