data_PCOD9497364
_publ_section_title
;
Structure prediction by ZEFSAII (Michael W. Deem and Ramdas Pophale) SiO2 
 PCOD9497364
Probable space group: C C C M
;
_chemical_formula_sum "Si O2"
_cell_formula_units_Z 120
_cell_length_a 11.814517
_cell_length_b 20.083893
_cell_length_c 25.252234
_cell_angle_alpha 90.000000
_cell_angle_beta 90.000000
_cell_angle_gamma 90.000000
_cell_volume 5991.887843
_symmetry_space_group_name_H-M "C C C M"
_symmetry_group_IT_number 66
_symmetry_cell_setting 'orthorhombic'
loop_
_space_group_symop_operation_xyz
x,y,z
-x,-y,z
x,-y,1/2-z
-x,y,1/2-z
-x,-y,-z
x,y,-z
-x,y,1/2+z
x,-y,1/2+z
1/2+x,1/2+y,z
1/2-x,1/2-y,z
1/2+x,1/2-y,1/2-z
1/2-x,1/2+y,1/2-z
1/2-x,1/2-y,-z
1/2+x,1/2+y,-z
1/2-x,1/2+y,1/2+z
1/2+x,1/2-y,1/2+z
loop_
_atom_site_type_symbol
_atom_site_label
_atom_site_fract_x
_atom_site_fract_y
_atom_site_fract_z
Si Si1 0.370240 0.500584 0.585414
Si Si2 0.839132 0.804218 0.330001
Si Si3 0.750000 0.250000 0.361487
Si Si4 0.945602 0.564251 0.691040
Si Si5 0.124382 0.851398 0.560720
Si Si6 0.526870 0.795620 0.187644
Si Si7 0.322837 0.548392 0.798426
Si Si8 0.650770 0.357333 0.058118
O O1 0.500000 0.500000 0.566648
O O2 0.329097 0.574186 0.572408
O O3 0.367391 0.485251 0.647950
O O4 0.314998 0.435258 0.560213
O O5 0.750000 0.750000 0.307510
O O6 0.856345 0.873196 0.297846
O O7 0.799424 0.824562 0.389074
O O8 0.956690 0.765828 0.335005
O O9 0.818594 0.199180 0.398716
O O10 0.658029 0.211829 0.325762
O O11 0.813102 0.552927 0.697314
O O12 0.000000 0.500000 0.663665
O O13 0.000000 0.567244 0.750000
O O14 0.977239 0.634840 0.666125
O O15 0.150000 0.833403 0.500000
O O16 0.986716 0.853835 0.565003
O O17 0.500000 0.793489 0.250000
O O18 0.353719 0.500000 0.750000
O O19 0.678747 0.329892 0.000000
#
# Coordination Sequence:
#
# PCOD9497364 Si02
#       8
#    16  16   8  16  16  16  16  16
#     4   9  20  35  56  87 119 156 201 252 319 382
#     4  11  22  41  60  90 125 161 209 253 312 374
#     4  12  25  40  62  94 126 162 213 252 314 384
#     4  10  20  37  59  84 110 158 216 243 287 360
#     4  10  20  37  61  87 121 158 205 265 319 372
#     4  11  26  41  61  89 126 169 203 254 305 372
#     4  11  22  37  61  87 123 165 206 260 306 369
#     4   9  18  37  61  87 118 155 204 259 316 374
#
# _framework density 20.027077999999999
#
# number of rings (size 3 to 8) (size 9 to 14) (size 15 to 20)
#    0.000    1.733    4.000    0.600    2.800    3.200 
#    0.000    0.000    0.000    0.000    0.000    0.933 
#    0.000    0.000    0.000    0.000    0.000    0.000 
#
# Total GULP energy -334699.455279 kJ/mol
# GULP energy per Si atom -5578.324255 kJ/mol
# Density = 1.998150 g / cm^3
# Si number density = 20.027078 Si / 1000 Ang^3
#
#
#
# Elastic Constant Matrix: (Units=GPa)
#
#
# Indices 1 2 3 4 5 6 
#
# 1 53.3673 20.2703 2.3578 0.0000 0.0000 0.0000
# 2 20.2703 130.5277 41.6586 0.0000 0.0000 0.0000
# 3 2.3578 41.6586 84.4715 0.0000 0.0000 0.0000
# 4 0.0000 0.0000 0.0000 8.4233 0.0000 0.0000
# 5 0.0000 0.0000 0.0000 0.0000 7.1703 0.0000
# 6 0.0000 0.0000 0.0000 0.0000 0.0000 24.2530
#
#
#
# Elastic Compliance Matrix: (Units=1/GPa)
#
#
# Indices 1 2 3 4 5 6 
#
# 1 0.020007 -0.003476 0.001156 0.000000 0.000000 0.000000
# 2 -0.003476 0.009696 -0.004685 0.000000 0.000000 0.000000
# 3 0.001156 -0.004685 0.014116 0.000000 0.000000 0.000000
# 4 0.000000 0.000000 0.000000 0.118718 0.000000 0.000000
# 5 0.000000 0.000000 0.000000 0.000000 0.139464 0.000000
# 6 0.000000 0.000000 0.000000 0.000000 0.000000 0.041232
#
#
# Mechanical properties :
#
#
# Convention : Reuss Voigt Hill
#
# Bulk Modulus (GPa) = 33.54586 44.10445 38.82515
# Shear Modulus (GPa) = 13.61727 21.57464 17.59596
#
# Velocity S-wave (km/s) = 2.61040 3.28575 2.96735
# Velocity P-wave (km/s) = 5.08647 6.03863 5.58289
#
# Compressibility (1/GPa) = 0.02980994
#
# Stress axis : x y z
#
# Youngs Moduli (GPa) = 49.98194 103.13335 70.83932
#
# Poissons Ratio (x) = 0.35848 -0.08187
# Poissons Ratio (y) = 0.17373 0.33187
# Poissons Ratio (z) = -0.05777 0.48316
#
# Static dielectric constant tensor:
#      x y z
#    x 1.698450 0.000000 0.000000 
#    y 0.000000 1.774750 0.000000 
#    z 0.000000 0.000000 1.725450 
# 
# From -- ./inp_files/63954.got.cif
#   From: 2010.05.17/outbox.cif.g08.bks.cpg/sg66_32_cif.got.tgz:63954.got - 2010.06.03 17:51:23.
