data_PCOD9497493
_publ_section_title
;
Structure prediction by ZEFSAII (Michael W. Deem and Ramdas Pophale) SiO2 
 PCOD9497493
Probable space group: C C C M
;
_chemical_formula_sum "Si O2"
_cell_formula_units_Z 96
_cell_length_a 8.520221
_cell_length_b 21.032732
_cell_length_c 26.645115
_cell_angle_alpha 90.000000
_cell_angle_beta 90.000000
_cell_angle_gamma 90.000000
_cell_volume 4774.898529
_symmetry_space_group_name_H-M "C C C M"
_symmetry_group_IT_number 66
_symmetry_cell_setting 'orthorhombic'
loop_
_space_group_symop_operation_xyz
x,y,z
-x,-y,z
x,-y,1/2-z
-x,y,1/2-z
-x,-y,-z
x,y,-z
-x,y,1/2+z
x,-y,1/2+z
1/2+x,1/2+y,z
1/2-x,1/2-y,z
1/2+x,1/2-y,1/2-z
1/2-x,1/2+y,1/2-z
1/2-x,1/2-y,-z
1/2+x,1/2+y,-z
1/2-x,1/2+y,1/2+z
1/2+x,1/2-y,1/2+z
loop_
_atom_site_type_symbol
_atom_site_label
_atom_site_fract_x
_atom_site_fract_y
_atom_site_fract_z
Si Si1 0.610579 0.205281 0.384218
Si Si2 0.470720 0.423528 0.693175
Si Si3 0.304999 0.140636 0.365064
Si Si4 0.426778 0.692609 0.943917
Si Si5 0.326346 0.028474 0.556205
Si Si6 0.839149 0.095796 0.593821
O O1 0.750000 0.250000 0.361258
O O2 0.464203 0.178568 0.351413
O O3 0.537745 0.248879 0.428151
O O4 0.692211 0.143050 0.406852
O O5 0.500000 0.500000 0.692502
O O6 0.500000 0.402243 0.750000
O O7 0.301860 0.394657 0.676589
O O8 0.591216 0.401179 0.650165
O O9 0.195946 0.185879 0.398880
O O10 0.339820 0.085188 0.404858
O O11 0.528946 0.628056 0.940357
O O12 0.365184 0.699205 0.000000
O O13 0.278830 0.048158 0.500000
O O14 0.500000 0.000000 0.553105
O O15 0.209657 0.974280 0.577164
#
# Coordination Sequence:
#
# PCOD9497493 Si02
#       6
#    16  16  16  16  16  16
#     4  10  22  38  58  81 118 164 206 247 295 350
#     4  10  21  39  65  93 121 154 196 254 324 388
#     4  11  21  38  60  86 126 158 200 260 309 365
#     4  10  22  36  57  86 119 164 213 250 297 365
#     4  11  21  32  54  88 126 165 199 242 310 374
#     4  10  20  38  58  85 123 157 200 256 307 368
#
# _framework density 20.105139000000001
#
# number of rings (size 3 to 8) (size 9 to 14) (size 15 to 20)
#    0.000    1.667    3.333    1.500    0.000    5.667 
#    0.000    3.333    0.000   33.000    0.000    0.000 
#    0.000    0.000    0.000    0.000    0.000    0.000 
#
# Total GULP energy -267625.714291 kJ/mol
# GULP energy per Si atom -5575.535714 kJ/mol
# Density = 2.005938 g / cm^3
# Si number density = 20.105139 Si / 1000 Ang^3
#
#
#
# Elastic Constant Matrix: (Units=GPa)
#
#
# Indices 1 2 3 4 5 6 
#
# 1 114.1469 40.5849 37.6975 0.0000 0.0000 0.0000
# 2 40.5849 95.0737 28.0362 0.0000 0.0000 0.0000
# 3 37.6975 28.0362 123.0079 0.0000 0.0000 0.0000
# 4 0.0000 0.0000 0.0000 11.7256 0.0000 0.0000
# 5 0.0000 0.0000 0.0000 0.0000 6.4783 0.0000
# 6 0.0000 0.0000 0.0000 0.0000 0.0000 54.4585
#
#
#
# Elastic Compliance Matrix: (Units=1/GPa)
#
#
# Indices 1 2 3 4 5 6 
#
# 1 0.010983 -0.003962 -0.002463 0.000000 0.000000 0.000000
# 2 -0.003962 0.012705 -0.001682 0.000000 0.000000 0.000000
# 3 -0.002463 -0.001682 0.009268 0.000000 0.000000 0.000000
# 4 0.000000 0.000000 0.000000 0.085283 0.000000 0.000000
# 5 0.000000 0.000000 0.000000 0.000000 0.154363 0.000000
# 6 0.000000 0.000000 0.000000 0.000000 0.000000 0.018363
#
#
# Mechanical properties :
#
#
# Convention : Reuss Voigt Hill
#
# Bulk Modulus (GPa) = 59.72710 60.54061 60.13386
# Shear Modulus (GPa) = 15.98681 29.59313 22.78997
#
# Velocity S-wave (km/s) = 2.82292 3.84072 3.37046
# Velocity P-wave (km/s) = 6.35587 7.06014 6.71724
#
# Compressibility (1/GPa) = 0.01674282
#
# Stress axis : x y z
#
# Youngs Moduli (GPa) = 91.05248 78.70702 107.90300
#
# Poissons Ratio (x) = 0.31184 0.26574
# Poissons Ratio (y) = 0.36075 0.18145
# Poissons Ratio (z) = 0.22424 0.13235
#
# Static dielectric constant tensor:
#      x y z
#    x 1.801120 0.000000 0.000000 
#    y 0.000000 1.747140 0.000000 
#    z 0.000000 0.000000 1.653790 
# 
# From -- ./inp_files/55623.got.cif
#   From: 2010.05.17/outbox.cif.g08.bks.cpg/sg66_28_cif.got.tgz:55623.got - 2010.06.03 17:51:23.
