data_PCOD9497660
_publ_section_title
;
Structure prediction by ZEFSAII (Michael W. Deem and Ramdas Pophale) SiO2 
 PCOD9497660
Probable space group: C C C M
;
_chemical_formula_sum "Si O2"
_cell_formula_units_Z 60
_cell_length_a 11.584205
_cell_length_b 17.596977
_cell_length_c 14.440999
_cell_angle_alpha 90.000000
_cell_angle_beta 90.000000
_cell_angle_gamma 90.000000
_cell_volume 2943.754164
_symmetry_space_group_name_H-M "C C C M"
_symmetry_group_IT_number 66
_symmetry_cell_setting 'orthorhombic'
loop_
_space_group_symop_operation_xyz
x,y,z
-x,-y,z
x,-y,1/2-z
-x,y,1/2-z
-x,-y,-z
x,y,-z
-x,y,1/2+z
x,-y,1/2+z
1/2+x,1/2+y,z
1/2-x,1/2-y,z
1/2+x,1/2-y,1/2-z
1/2-x,1/2+y,1/2-z
1/2-x,1/2-y,-z
1/2+x,1/2+y,-z
1/2-x,1/2+y,1/2+z
1/2+x,1/2-y,1/2+z
loop_
_atom_site_type_symbol
_atom_site_label
_atom_site_fract_x
_atom_site_fract_y
_atom_site_fract_z
Si Si1 0.698859 0.670748 0.851661
Si Si2 0.799336 0.836697 0.500000
Si Si3 0.450598 0.413029 0.000000
Si Si4 0.500000 0.000000 0.250000
Si Si5 0.345942 0.875158 0.823010
Si Si6 0.500000 0.755195 0.250000
O O1 0.750000 0.750000 0.894967
O O2 0.635265 0.609592 0.915806
O O3 0.790017 0.636453 0.779036
O O4 0.598799 0.703227 0.787930
O O5 0.750000 0.750000 0.500000
O O6 0.744133 0.871367 0.593923
O O7 0.936223 0.856934 0.500000
O O8 0.500000 0.500000 0.000000
O O9 0.418827 0.950801 0.184088
O O10 0.440467 0.807593 0.828016
#
# Coordination Sequence:
#
# PCOD9497660 Si02
#       6
#    16   8   8   4  16   8
#     4  10  20  40  65  87 127 171 217 267 317 382
#     4  12  24  42  69  97 129 169 223 267 316 390
#     4  12  27  39  59 102 133 168 220 265 335 383
#     4  10  24  42  60  90 126 174 210 250 342 386
#     4  10  22  39  66  92 128 166 215 266 317 384
#     4   9  18  39  65  98 115 168 220 262 315 378
#
# _framework density 20.382135999999999
#
# number of rings (size 3 to 8) (size 9 to 14) (size 15 to 20)
#    0.000    1.600    0.000    6.000    3.733    0.533 
#    0.000    9.333    0.000    0.000    0.000    0.000 
#    0.000    0.000    0.000    0.000    0.000    0.000 
#
# Total GULP energy -167178.154758 kJ/mol
# GULP energy per Si atom -5572.605159 kJ/mol
# Density = 2.033575 g / cm^3
# Si number density = 20.382136 Si / 1000 Ang^3
#
#
#
# Elastic Constant Matrix: (Units=GPa)
#
#
# Indices 1 2 3 4 5 6 
#
# 1 107.6637 40.1861 28.3068 0.0000 0.0000 0.0000
# 2 40.1861 115.7925 38.3646 0.0000 0.0000 0.0000
# 3 28.3068 38.3646 79.3935 0.0000 0.0000 0.0000
# 4 0.0000 0.0000 0.0000 0.0254 0.0000 0.0000
# 5 0.0000 0.0000 0.0000 0.0000 12.1187 0.0000
# 6 0.0000 0.0000 0.0000 0.0000 0.0000 -0.7288
#
#
#
# Elastic Compliance Matrix: (Units=1/GPa)
#
#
# Indices 1 2 3 4 5 6 
#
# 1 0.011069 -0.003017 -0.002489 0.000000 0.000000 0.000000
# 2 -0.003017 0.011105 -0.004290 0.000000 0.000000 0.000000
# 3 -0.002489 -0.004290 0.015556 0.000000 0.000000 0.000000
# 4 0.000000 0.000000 0.000000 39.340395 0.000000 0.000000
# 5 0.000000 0.000000 0.000000 0.000000 0.082517 0.000000
# 6 0.000000 0.000000 0.000000 0.000000 0.000000 -1.372144
#
#
# Mechanical properties :
#
#
# Convention : Reuss Voigt Hill
#
# Bulk Modulus (GPa) = 55.13418 57.39610 56.26514
# Shear Modulus (GPa) = 0.13118 15.34922 7.74020
#
# Velocity S-wave (km/s) = 0.25397 2.74719 1.95084
# Velocity P-wave (km/s) = 5.21488 6.18740 5.72184
#
# Compressibility (1/GPa) = 0.01813757
#
# Stress axis : x y z
#
# Youngs Moduli (GPa) = 90.34625 90.05245 64.28411
#
# Poissons Ratio (x) = 0.27168 0.15997
# Poissons Ratio (y) = 0.27256 0.27580
# Poissons Ratio (z) = 0.22483 0.38636
#
# Static dielectric constant tensor:
#      x y z
#    x 1.789560 0.000000 0.000000 
#    y 0.000000 1.768580 0.000000 
#    z 0.000000 0.000000 1.739890 
# 
# From -- ./inp_files/25713.got.cif
#   From: 2010.05.17/outbox.cif.g08.bks.cpg/sg66_13_cif.got.tgz:25713.got - 2010.06.03 17:51:23.
