data_PCOD9497826
_publ_section_title
;
Structure prediction by ZEFSAII (Michael W. Deem and Ramdas Pophale) SiO2 
 PCOD9497826
Probable space group: C C C M
;
_chemical_formula_sum "Si O2"
_cell_formula_units_Z 116
_cell_length_a 26.601795
_cell_length_b 27.621915
_cell_length_c 9.116788
_cell_angle_alpha 90.000000
_cell_angle_beta 90.000000
_cell_angle_gamma 90.000000
_cell_volume 6698.947632
_symmetry_space_group_name_H-M "C C C M"
_symmetry_group_IT_number 66
_symmetry_cell_setting 'orthorhombic'
loop_
_space_group_symop_operation_xyz
x,y,z
-x,-y,z
x,-y,1/2-z
-x,y,1/2-z
-x,-y,-z
x,y,-z
-x,y,1/2+z
x,-y,1/2+z
1/2+x,1/2+y,z
1/2-x,1/2-y,z
1/2+x,1/2-y,1/2-z
1/2-x,1/2+y,1/2-z
1/2-x,1/2-y,-z
1/2+x,1/2+y,-z
1/2-x,1/2+y,1/2+z
1/2+x,1/2-y,1/2+z
loop_
_atom_site_type_symbol
_atom_site_label
_atom_site_fract_x
_atom_site_fract_y
_atom_site_fract_z
Si Si1 0.074528 0.416825 0.833218
Si Si2 0.050870 0.220585 0.175244
Si Si3 0.760663 0.138276 0.326406
Si Si4 0.573532 0.820931 0.331207
Si Si5 0.150198 0.184757 0.328142
Si Si6 0.000000 0.500000 0.750000
Si Si7 0.812695 0.550859 0.176081
Si Si8 0.689115 0.206436 0.164453
O O1 0.057778 0.373000 0.729200
O O2 0.130355 0.433310 0.785163
O O3 0.037455 0.462733 0.830712
O O4 0.078089 0.398220 0.000000
O O5 0.056588 0.276188 0.231180
O O6 0.098994 0.192148 0.238274
O O7 0.000000 0.201817 0.250000
O O8 0.048881 0.218916 0.000000
O O9 0.769653 0.137166 0.500000
O O10 0.812420 0.145503 0.239946
O O11 0.727897 0.091516 0.282602
O O12 0.725026 0.183370 0.283802
O O13 0.557420 0.813271 0.500000
O O14 0.634349 0.818422 0.328431
O O15 0.139755 0.176668 0.500000
O O16 0.178495 0.236809 0.317668
O O17 0.801506 0.500000 0.250000
O O18 0.811844 0.546097 0.000000
O O19 0.710077 0.198072 0.000000
#
# Coordination Sequence:
#
# PCOD9497826 Si02
#       8
#    16  16  16  16  16   4  16  16
#     4  11  23  40  56  73  98 133 179 239 297 344
#     4  11  22  38  58  80 110 146 182 220 263 313
#     4  11  21  33  52  79 106 138 178 222 277 334
#     4  10  21  36  55  77 102 137 180 225 275 333
#     4  10  21  36  53  79 112 143 180 219 263 323
#     4  12  26  40  56  74  98 132 192 250 304 344
#     4  10  22  39  57  77 102 137 181 230 286 344
#     4   9  18  32  50  74 104 138 174 214 265 327
#
# _framework density 17.316153
#
# number of rings (size 3 to 8) (size 9 to 14) (size 15 to 20)
#    0.000    1.655    2.069    3.931    0.966    7.172 
#    0.000    0.000    0.000    0.000    0.000    0.000 
#    0.000    0.552    0.000    5.793    0.000    3.172 
#
# Total GULP energy -323953.673682 kJ/mol
# GULP energy per Si atom -5585.408167 kJ/mol
# Density = 1.727674 g / cm^3
# Si number density = 17.316153 Si / 1000 Ang^3
#
#
#
# Elastic Constant Matrix: (Units=GPa)
#
#
# Indices 1 2 3 4 5 6 
#
# 1 114.0662 54.1142 60.0103 0.0000 0.0000 0.0000
# 2 54.1142 57.3173 34.0487 0.0000 0.0000 0.0000
# 3 60.0103 34.0487 104.2858 0.0000 0.0000 0.0000
# 4 0.0000 0.0000 0.0000 20.4004 0.0000 0.0000
# 5 0.0000 0.0000 0.0000 0.0000 22.3265 0.0000
# 6 0.0000 0.0000 0.0000 0.0000 0.0000 20.0934
#
#
#
# Elastic Compliance Matrix: (Units=1/GPa)
#
#
# Indices 1 2 3 4 5 6 
#
# 1 0.018608 -0.013904 -0.006168 0.000000 0.000000 0.000000
# 2 -0.013904 0.032034 -0.002458 0.000000 0.000000 0.000000
# 3 -0.006168 -0.002458 0.013941 0.000000 0.000000 0.000000
# 4 0.000000 0.000000 0.000000 0.049019 0.000000 0.000000
# 5 0.000000 0.000000 0.000000 0.000000 0.044790 0.000000
# 6 0.000000 0.000000 0.000000 0.000000 0.000000 0.049768
#
#
# Mechanical properties :
#
#
# Convention : Reuss Voigt Hill
#
# Bulk Modulus (GPa) = 51.22287 63.55731 57.39009
# Shear Modulus (GPa) = 19.25092 21.06379 20.15736
#
# Velocity S-wave (km/s) = 3.33788 3.49151 3.41556
# Velocity P-wave (km/s) = 6.67087 7.28272 6.98350
#
# Compressibility (1/GPa) = 0.01952253
#
# Stress axis : x y z
#
# Youngs Moduli (GPa) = 53.73941 31.21680 71.73071
#
# Poissons Ratio (x) = 0.43404 0.44246
# Poissons Ratio (y) = 0.74720 0.17631
# Poissons Ratio (z) = 0.33148 0.07673
#
# Static dielectric constant tensor:
#      x y z
#    x 1.626460 0.000000 0.000000 
#    y 0.000000 1.566580 0.000000 
#    z 0.000000 0.000000 1.593960 
# 
# From -- ./inp_files/10605.got.cif
#   From: 2010.05.17/outbox.cif.g08.bks.cpg/sg66_6_cif.got.tgz:10605.got - 2010.06.03 17:51:23.
