data_PCOD9497922
_publ_section_title
;
Structure prediction by ZEFSAII (Michael W. Deem and Ramdas Pophale) SiO2 
 PCOD9497922
Probable space group: C C C M
;
_chemical_formula_sum "Si O2"
_cell_formula_units_Z 96
_cell_length_a 24.635761
_cell_length_b 23.666147
_cell_length_c 8.707684
_cell_angle_alpha 90.000000
_cell_angle_beta 90.000000
_cell_angle_gamma 90.000000
_cell_volume 5076.871839
_symmetry_space_group_name_H-M "C C C M"
_symmetry_group_IT_number 66
_symmetry_cell_setting 'orthorhombic'
loop_
_space_group_symop_operation_xyz
x,y,z
-x,-y,z
x,-y,1/2-z
-x,y,1/2-z
-x,-y,-z
x,y,-z
-x,y,1/2+z
x,-y,1/2+z
1/2+x,1/2+y,z
1/2-x,1/2-y,z
1/2+x,1/2-y,1/2-z
1/2-x,1/2+y,1/2-z
1/2-x,1/2-y,-z
1/2+x,1/2+y,-z
1/2-x,1/2+y,1/2+z
1/2+x,1/2-y,1/2+z
loop_
_atom_site_type_symbol
_atom_site_label
_atom_site_fract_x
_atom_site_fract_y
_atom_site_fract_z
Si Si1 0.843361 0.363288 0.683245
Si Si2 0.556779 0.667804 0.317373
Si Si3 0.121941 0.061876 0.315385
Si Si4 0.335103 0.262093 0.684023
Si Si5 0.778002 0.868903 0.816122
Si Si6 0.058816 0.563090 0.816055
O O1 0.851602 0.365146 0.500000
O O2 0.837849 0.298756 0.738825
O O3 0.783412 0.387815 0.718319
O O4 0.892554 0.396021 0.763700
O O5 0.500000 0.686268 0.250000
O O6 0.551707 0.666038 0.500000
O O7 0.575005 0.605436 0.264210
O O8 0.607043 0.708361 0.282041
O O9 0.123305 0.060923 0.500000
O O10 0.178014 0.088979 0.255530
O O11 0.114025 0.000000 0.250000
O O12 0.328322 0.257206 0.500000
O O13 0.291068 0.306581 0.748375
O O14 0.784419 0.866384 0.000000
O O15 0.068568 0.500000 0.750000
O O16 0.000000 0.581535 0.750000
O O17 0.055882 0.560693 0.000000
#
# Coordination Sequence:
#
# PCOD9497922 Si02
#       6
#    16  16  16  16  16  16
#     4  11  23  38  59  88 116 147 190 231 274 334
#     4   9  20  36  54  78 108 144 185 229 277 328
#     4  10  21  37  56  80 110 145 187 232 281 335
#     4  10  21  37  56  82 116 151 188 232 284 336
#     4  10  21  37  57  82 114 150 187 232 283 333
#     4  11  23  42  65  87 115 149 185 229 282 334
#
# _framework density 18.909281
#
# number of rings (size 3 to 8) (size 9 to 14) (size 15 to 20)
#    0.000    1.833    0.000    5.500    0.000   10.333 
#    0.000    3.333    0.000    0.000    0.000    0.000 
#    0.000    0.000    0.000    0.000    0.000    0.000 
#
# Total GULP energy -268101.717318 kJ/mol
# GULP energy per Si atom -5585.452444 kJ/mol
# Density = 1.886624 g / cm^3
# Si number density = 18.909281 Si / 1000 Ang^3
#
#
#
# Elastic Constant Matrix: (Units=GPa)
#
#
# Indices 1 2 3 4 5 6 
#
# 1 112.1392 9.3586 42.0021 0.0000 0.0000 0.0000
# 2 9.3586 20.5314 4.8401 0.0000 0.0000 0.0000
# 3 42.0021 4.8401 75.9466 0.0000 0.0000 0.0000
# 4 0.0000 0.0000 0.0000 35.5452 0.0000 0.0000
# 5 0.0000 0.0000 0.0000 0.0000 30.4443 0.0000
# 6 0.0000 0.0000 0.0000 0.0000 0.0000 18.8405
#
#
#
# Elastic Compliance Matrix: (Units=1/GPa)
#
#
# Indices 1 2 3 4 5 6 
#
# 1 0.011534 -0.003811 -0.006136 0.000000 0.000000 0.000000
# 2 -0.003811 0.050708 -0.001124 0.000000 0.000000 0.000000
# 3 -0.006136 -0.001124 0.016632 0.000000 0.000000 0.000000
# 4 0.000000 0.000000 0.000000 0.028133 0.000000 0.000000
# 5 0.000000 0.000000 0.000000 0.000000 0.032847 0.000000
# 6 0.000000 0.000000 0.000000 0.000000 0.000000 0.053077
#
#
# Mechanical properties :
#
#
# Convention : Reuss Voigt Hill
#
# Bulk Modulus (GPa) = 17.62662 35.66876 26.64769
# Shear Modulus (GPa) = 21.36905 27.12709 24.24807
#
# Velocity S-wave (km/s) = 3.36532 3.79171 3.58486
# Velocity P-wave (km/s) = 4.94393 6.17037 5.59088
#
# Compressibility (1/GPa) = 0.05673237
#
# Stress axis : x y z
#
# Youngs Moduli (GPa) = 86.70238 19.72080 60.12442
#
# Poissons Ratio (x) = 0.07515 0.36891
# Poissons Ratio (y) = 0.33041 0.06758
# Poissons Ratio (z) = 0.53199 0.02217
#
# Static dielectric constant tensor:
#      x y z
#    x 1.797960 0.000000 0.000000 
#    y 0.000000 1.637950 0.000000 
#    z 0.000000 0.000000 1.633390 
# 
# From -- ./inp_files/9126.got.cif
#   From: 2010.05.17/outbox.cif.g08.bks.cpg/sg66_5_cif.got.tgz:9126.got - 2010.06.03 17:51:23.
