data_PCOD9497771
_publ_section_title
;
Structure prediction by ZEFSAII (Michael W. Deem and Ramdas Pophale) SiO2 
 PCOD9497771
Probable space group: C C C M
;
_chemical_formula_sum "Si O2"
_cell_formula_units_Z 92
_cell_length_a 21.318820
_cell_length_b 7.816190
_cell_length_c 26.616576
_cell_angle_alpha 90.000000
_cell_angle_beta 90.000000
_cell_angle_gamma 90.000000
_cell_volume 4435.171900
_symmetry_space_group_name_H-M "C C C M"
_symmetry_group_IT_number 66
_symmetry_cell_setting 'orthorhombic'
loop_
_space_group_symop_operation_xyz
x,y,z
-x,-y,z
x,-y,1/2-z
-x,y,1/2-z
-x,-y,-z
x,y,-z
-x,y,1/2+z
x,-y,1/2+z
1/2+x,1/2+y,z
1/2-x,1/2-y,z
1/2+x,1/2-y,1/2-z
1/2-x,1/2+y,1/2-z
1/2-x,1/2-y,-z
1/2+x,1/2+y,-z
1/2-x,1/2+y,1/2+z
1/2+x,1/2-y,1/2+z
loop_
_atom_site_type_symbol
_atom_site_label
_atom_site_fract_x
_atom_site_fract_y
_atom_site_fract_z
Si Si1 0.750000 0.250000 0.120783
Si Si2 0.903035 0.590404 0.142088
Si Si3 0.017615 0.722361 0.100157
Si Si4 0.218066 0.434536 0.194525
Si Si5 0.176101 0.725641 0.554124
Si Si6 0.500000 0.000000 0.000000
Si Si7 0.867217 0.885690 0.557654
O O1 0.760801 0.416527 0.155892
O O2 0.810728 0.210874 0.086290
O O3 0.939782 0.416373 0.130343
O O4 0.857444 0.588568 0.189416
O O5 0.854237 0.615992 0.096942
O O6 0.955628 0.736821 0.134221
O O7 0.066917 0.866974 0.086154
O O8 0.996949 0.645223 0.045799
O O9 0.234546 0.500000 0.250000
O O10 0.250000 0.250000 0.184377
O O11 0.162116 0.644454 0.500000
O O12 0.250000 0.750000 0.559244
O O13 0.149225 0.915566 0.555545
O O14 0.872183 0.820802 0.500000
#
# Coordination Sequence:
#
# PCOD9497771 Si02
#       7
#     8  16  16  16  16   4  16
#     4  12  23  42  66  94 138 166 217 276 326 400
#     4  10  21  39  60  85 122 163 211 262 320 385
#     4  10  21  34  60  88 120 172 215 255 309 383
#     4  12  25  45  71  97 122 165 218 279 349 398
#     4  10  22  36  54  87 131 173 212 258 321 386
#     4   8  16  32  48  80 118 160 216 240 286 372
#     4  11  22  37  59  96 134 176 219 256 322 395
#
# _framework density 20.743276999999999
#
# number of rings (size 3 to 8) (size 9 to 14) (size 15 to 20)
#    0.000    1.565    3.478    2.870    4.870    0.696 
#    0.000    3.478    0.000    0.522    0.000    1.217 
#    0.000    0.000    0.000    0.000    0.000    0.000 
#
# Total GULP energy -256293.035860 kJ/mol
# GULP energy per Si atom -5571.587736 kJ/mol
# Density = 2.069606 g / cm^3
# Si number density = 20.743277 Si / 1000 Ang^3
#
#
#
# Elastic Constant Matrix: (Units=GPa)
#
#
# Indices 1 2 3 4 5 6 
#
# 1 93.0840 30.1743 20.0777 0.0000 0.0000 0.0000
# 2 30.1743 82.0955 28.5638 0.0000 0.0000 0.0000
# 3 20.0777 28.5638 65.9600 0.0000 0.0000 0.0000
# 4 0.0000 0.0000 0.0000 24.9487 0.0000 0.0000
# 5 0.0000 0.0000 0.0000 0.0000 16.0709 0.0000
# 6 0.0000 0.0000 0.0000 0.0000 0.0000 36.2040
#
#
#
# Elastic Compliance Matrix: (Units=1/GPa)
#
#
# Indices 1 2 3 4 5 6 
#
# 1 0.012445 -0.003834 -0.002128 0.000000 0.000000 0.000000
# 2 -0.003834 0.015523 -0.005555 0.000000 0.000000 0.000000
# 3 -0.002128 -0.005555 0.018214 0.000000 0.000000 0.000000
# 4 0.000000 0.000000 0.000000 0.040082 0.000000 0.000000
# 5 0.000000 0.000000 0.000000 0.000000 0.062224 0.000000
# 6 0.000000 0.000000 0.000000 0.000000 0.000000 0.027621
#
#
# Mechanical properties :
#
#
# Convention : Reuss Voigt Hill
#
# Bulk Modulus (GPa) = 43.20014 44.30790 43.75402
# Shear Modulus (GPa) = 24.17107 26.26631 25.21869
#
# Velocity S-wave (km/s) = 3.41728 3.56231 3.49055
# Velocity P-wave (km/s) = 6.03669 6.19085 6.11426
#
# Compressibility (1/GPa) = 0.02314808
#
# Stress axis : x y z
#
# Youngs Moduli (GPa) = 80.35554 64.42122 54.90267
#
# Poissons Ratio (x) = 0.24697 0.11683
# Poissons Ratio (y) = 0.30806 0.30499
# Poissons Ratio (z) = 0.17099 0.35787
#
# Static dielectric constant tensor:
#      x y z
#    x 1.809630 0.000000 0.000000 
#    y 0.000000 1.799180 0.000000 
#    z 0.000000 0.000000 1.680550 
# 
# From -- ./inp_files/65688.got.cif
#   From: 2010.05.17/outbox.cif.g08.bks.cpg/sg66_33_cif.got.tgz:65688.got - 2010.06.03 17:51:23.
