data_PCOD9497705
_publ_section_title
;
Structure prediction by ZEFSAII (Michael W. Deem and Ramdas Pophale) SiO2 
 PCOD9497705
Probable space group: C C C M
;
_chemical_formula_sum "Si O2"
_cell_formula_units_Z 112
_cell_length_a 12.160116
_cell_length_b 30.152740
_cell_length_c 14.277884
_cell_angle_alpha 90.000000
_cell_angle_beta 90.000000
_cell_angle_gamma 90.000000
_cell_volume 5235.140600
_symmetry_space_group_name_H-M "C C C M"
_symmetry_group_IT_number 66
_symmetry_cell_setting 'orthorhombic'
loop_
_space_group_symop_operation_xyz
x,y,z
-x,-y,z
x,-y,1/2-z
-x,y,1/2-z
-x,-y,-z
x,y,-z
-x,y,1/2+z
x,-y,1/2+z
1/2+x,1/2+y,z
1/2-x,1/2-y,z
1/2+x,1/2-y,1/2-z
1/2-x,1/2+y,1/2-z
1/2-x,1/2-y,-z
1/2+x,1/2+y,-z
1/2-x,1/2+y,1/2+z
1/2+x,1/2-y,1/2+z
loop_
_atom_site_type_symbol
_atom_site_label
_atom_site_fract_x
_atom_site_fract_y
_atom_site_fract_z
Si Si1 0.598214 0.602549 0.606692
Si Si2 0.218132 0.678869 0.104267
Si Si3 0.717553 0.798932 0.180098
Si Si4 0.658938 0.382115 0.389137
Si Si5 0.746399 0.552051 0.261203
Si Si6 0.548980 0.951357 0.606074
Si Si7 0.516619 0.859581 0.139767
O O1 0.608072 0.587385 0.500000
O O2 0.680367 0.644622 0.616281
O O3 0.471308 0.612225 0.625030
O O4 0.644664 0.565871 0.674675
O O5 0.207928 0.702834 0.205731
O O6 0.100012 0.654892 0.098198
O O7 0.234572 0.699878 0.000000
O O8 0.750000 0.750000 0.147029
O O9 0.809469 0.834641 0.153328
O O10 0.610260 0.821839 0.131595
O O11 0.682026 0.383839 0.500000
O O12 0.726945 0.419006 0.331615
O O13 0.746611 0.500000 0.250000
O O14 0.857620 0.561628 0.319378
O O15 0.594308 0.954594 0.500000
O O16 0.464190 0.910101 0.606663
O O17 0.500000 0.000000 0.628713
O O18 0.500000 0.862289 0.250000
#
# Coordination Sequence:
#
# PCOD9497705 Si02
#       7
#    16  16  16  16  16  16  16
#     4  10  21  43  73 100 133 178 235 292 347 416
#     4  10  20  41  73 104 130 170 227 296 360 416
#     4  11  25  46  71 102 144 190 235 294 361 439
#     4  11  26  46  68 100 141 191 242 290 349 427
#     4  12  25  42  70 101 140 185 233 288 362 431
#     4  11  25  41  68 107 142 180 231 297 363 427
#     4  10  21  40  66  97 137 180 228 282 354 425
#
# _framework density 21.393885999999998
#
# number of rings (size 3 to 8) (size 9 to 14) (size 15 to 20)
#    0.000    1.286    2.857    2.143    4.000    4.000 
#    7.714    1.429    0.000    0.429    0.000    0.000 
#    0.000    0.000    0.000    0.000    0.000    0.000 
#
# Total GULP energy -312584.465036 kJ/mol
# GULP energy per Si atom -5581.865447 kJ/mol
# Density = 2.134519 g / cm^3
# Si number density = 21.393886 Si / 1000 Ang^3
#
#
#
# Elastic Constant Matrix: (Units=GPa)
#
#
# Indices 1 2 3 4 5 6 
#
# 1 117.8706 56.3833 67.0538 0.0000 0.0000 0.0000
# 2 56.3833 163.9651 54.6375 0.0000 0.0000 0.0000
# 3 67.0538 54.6375 109.0492 0.0000 0.0000 0.0000
# 4 0.0000 0.0000 0.0000 1.9158 0.0000 0.0000
# 5 0.0000 0.0000 0.0000 0.0000 15.9012 0.0000
# 6 0.0000 0.0000 0.0000 0.0000 0.0000 21.0703
#
#
#
# Elastic Compliance Matrix: (Units=1/GPa)
#
#
# Indices 1 2 3 4 5 6 
#
# 1 0.013729 -0.002290 -0.007294 0.000000 0.000000 0.000000
# 2 -0.002290 0.007703 -0.002451 0.000000 0.000000 0.000000
# 3 -0.007294 -0.002451 0.014884 0.000000 0.000000 0.000000
# 4 0.000000 0.000000 0.000000 0.521978 0.000000 0.000000
# 5 0.000000 0.000000 0.000000 0.000000 0.062888 0.000000
# 6 0.000000 0.000000 0.000000 0.000000 0.000000 0.047460
#
#
# Mechanical properties :
#
#
# Convention : Reuss Voigt Hill
#
# Bulk Modulus (GPa) = 81.67323 83.00381 82.33852
# Shear Modulus (GPa) = 7.17570 21.96481 14.57025
#
# Velocity S-wave (km/s) = 1.83340 3.20767 2.61252
# Velocity P-wave (km/s) = 6.53763 7.25266 6.90441
#
# Compressibility (1/GPa) = 0.01224391
#
# Stress axis : x y z
#
# Youngs Moduli (GPa) = 72.83807 129.81460 67.18795
#
# Poissons Ratio (x) = 0.29733 0.49009
# Poissons Ratio (y) = 0.16683 0.16470
# Poissons Ratio (z) = 0.53131 0.31821
#
# Static dielectric constant tensor:
#      x y z
#    x 1.791780 0.000000 0.000000 
#    y 0.000000 1.764520 0.000000 
#    z 0.000000 0.000000 1.816860 
# 
# From -- ./inp_files/26998.got.cif
#   From: 2010.05.17/outbox.cif.g08.bks.cpg/sg66_14_cif.got.tgz:26998.got - 2010.06.03 17:51:23.
