data_PCOD9497241
_publ_section_title
;
Structure prediction by ZEFSAII (Michael W. Deem and Ramdas Pophale) SiO2 
 PCOD9497241
Probable space group: C C C M
;
_chemical_formula_sum "Si O2"
_cell_formula_units_Z 72
_cell_length_a 8.071375
_cell_length_b 18.650226
_cell_length_c 20.647821
_cell_angle_alpha 90.000000
_cell_angle_beta 90.000000
_cell_angle_gamma 90.000000
_cell_volume 3108.177775
_symmetry_space_group_name_H-M "C C C M"
_symmetry_group_IT_number 66
_symmetry_cell_setting 'orthorhombic'
loop_
_space_group_symop_operation_xyz
x,y,z
-x,-y,z
x,-y,1/2-z
-x,y,1/2-z
-x,-y,-z
x,y,-z
-x,y,1/2+z
x,-y,1/2+z
1/2+x,1/2+y,z
1/2-x,1/2-y,z
1/2+x,1/2-y,1/2-z
1/2-x,1/2+y,1/2-z
1/2-x,1/2-y,-z
1/2+x,1/2+y,-z
1/2-x,1/2+y,1/2+z
1/2+x,1/2-y,1/2+z
loop_
_atom_site_type_symbol
_atom_site_label
_atom_site_fract_x
_atom_site_fract_y
_atom_site_fract_z
Si Si1 0.474528 0.673858 0.682738
Si Si2 0.780452 0.835714 0.572826
Si Si3 0.250000 0.250000 0.908289
Si Si4 0.586953 0.899453 0.068274
Si Si5 0.836122 0.427292 0.288312
O O1 0.500000 0.713859 0.750000
O O2 0.616818 0.640327 0.636828
O O3 0.405890 0.733059 0.635067
O O4 0.329658 0.620070 0.706456
O O5 0.858182 0.846957 0.500000
O O6 0.750000 0.750000 0.578040
O O7 0.603086 0.873973 0.571524
O O8 0.299838 0.172874 0.935901
O O9 0.624207 0.938031 0.135629
O O10 0.617704 0.938646 0.000000
O O11 0.799641 0.500000 0.250000
O O12 0.000000 0.397539 0.250000
#
# Coordination Sequence:
#
# PCOD9497241 Si02
#       5
#    16  16   8  16  16
#     4  11  23  35  59  92 128 177 219 263 326 402
#     4  10  20  36  59  94 143 179 204 256 327 404
#     4  10  21  32  54  94 137 168 206 262 319 402
#     4  10  20  37  64  95 128 171 214 260 329 406
#     4  10  23  44  64  87 123 170 229 294 335 377
#
# _framework density 23.164698999999999
#
# number of rings (size 3 to 8) (size 9 to 14) (size 15 to 20)
#    0.000    1.778    2.222    1.667    1.556    7.556 
#    0.000    3.333    0.000    1.333    0.000   20.222 
#    0.000    0.000    0.000    0.000    0.000    0.000 
#
# Total GULP energy -200456.236561 kJ/mol
# GULP energy per Si atom -5568.228793 kJ/mol
# Density = 2.311197 g / cm^3
# Si number density = 23.164699 Si / 1000 Ang^3
#
#
#
# Elastic Constant Matrix: (Units=GPa)
#
#
# Indices 1 2 3 4 5 6 
#
# 1 49.6202 -7.5184 29.3455 0.0000 0.0000 0.0000
# 2 -7.5184 65.3914 28.7266 0.0000 0.0000 0.0000
# 3 29.3455 28.7266 217.0641 0.0000 0.0000 0.0000
# 4 0.0000 0.0000 0.0000-5247.4765 0.0000 0.0000
# 5 0.0000 0.0000 0.0000 0.0000 -114.5896 0.0000
# 6 0.0000 0.0000 0.0000 0.0000 0.0000 22.5175
#
#
#
# Elastic Compliance Matrix: (Units=1/GPa)
#
#
# Indices 1 2 3 4 5 6 
#
# 1 0.022966 0.004252 -0.003668 0.000000 0.000000 0.000000
# 2 0.004252 0.017024 -0.002828 0.000000 0.000000 0.000000
# 3 -0.003668 -0.002828 0.005477 0.000000 0.000000 0.000000
# 4 0.000000 0.000000 0.000000 -0.000191 0.000000 0.000000
# 5 0.000000 0.000000 0.000000 0.000000 -0.008727 0.000000
# 6 0.000000 0.000000 0.000000 0.000000 0.000000 0.044410
#
#
# Mechanical properties :
#
#
# Convention : Reuss Voigt Hill
#
# Bulk Modulus (GPa) = 24.40227 48.13143 36.26685
# Shear Modulus (GPa) = 50.45075 -1049.14160 -499.34543
#
# Velocity S-wave (km/s) = 4.67188 -21.30466 -14.69800
# Velocity P-wave (km/s) = 6.29754 24.17357 16.50307
#
# Compressibility (1/GPa) = 0.04097979
#
# Stress axis : x y z
#
# Youngs Moduli (GPa) = 43.54205 58.74195 182.58210
#
# Poissons Ratio (x) = -0.24976 0.66963
# Poissons Ratio (y) = -0.18513 0.51629
# Poissons Ratio (z) = 0.15969 0.16611
#
# Static dielectric constant tensor:
#      x y z
#    x 1.822350 0.000000 0.000000 
#    y 0.000000 1.900070 0.000000 
#    z 0.000000 0.000000 1.978360 
# 
# From -- ./inp_files/36753.got.cif
#   From: 2010.05.17/outbox.cif.g08.bks.cpg/sg66_19_cif.got.tgz:36753.got - 2010.06.03 17:51:23.
