data_PCOD9497312
_publ_section_title
;
Structure prediction by ZEFSAII (Michael W. Deem and Ramdas Pophale) SiO2 
 PCOD9497312
Probable space group: C C C M
;
_chemical_formula_sum "Si O2"
_cell_formula_units_Z 48
_cell_length_a 4.913816
_cell_length_b 16.282626
_cell_length_c 27.374807
_cell_angle_alpha 90.000000
_cell_angle_beta 90.000000
_cell_angle_gamma 90.000000
_cell_volume 2190.253604
_symmetry_space_group_name_H-M "C C C M"
_symmetry_group_IT_number 66
_symmetry_cell_setting 'orthorhombic'
loop_
_space_group_symop_operation_xyz
x,y,z
-x,-y,z
x,-y,1/2-z
-x,y,1/2-z
-x,-y,-z
x,y,-z
-x,y,1/2+z
x,-y,1/2+z
1/2+x,1/2+y,z
1/2-x,1/2-y,z
1/2+x,1/2-y,1/2-z
1/2-x,1/2+y,1/2-z
1/2-x,1/2-y,-z
1/2+x,1/2+y,-z
1/2-x,1/2+y,1/2+z
1/2+x,1/2-y,1/2+z
loop_
_atom_site_type_symbol
_atom_site_label
_atom_site_fract_x
_atom_site_fract_y
_atom_site_fract_z
Si Si1 0.330076 0.653020 0.104134
Si Si2 0.000000 0.693935 0.250000
Si Si3 0.147365 0.586004 0.656619
Si Si4 0.500881 0.311721 0.000000
O O1 0.250000 0.750000 0.112256
O O2 0.541233 0.607446 0.141187
O O3 0.464165 0.641746 0.050997
O O4 0.036840 0.612763 0.110662
O O5 0.250000 0.750000 0.233943
O O6 0.093395 0.641528 0.296137
O O7 0.000000 0.500000 0.669624
O O8 0.750000 0.250000 0.000000
O O9 0.250000 0.250000 0.000000
#
# Coordination Sequence:
#
# PCOD9497312 Si02
#       4
#    16   8  16   8
#     4  11  22  41  66  92 123 166 215 258 305 373
#     4  12  25  42  67  92 118 162 216 260 305 376
#     4  12  25  42  62  93 131 165 201 260 325 377
#     4  10  20  36  63  94 121 158 211 264 303 352
#
# _framework density 21.915272000000002
#
# number of rings (size 3 to 8) (size 9 to 14) (size 15 to 20)
#    0.000    0.667    0.000   11.500    0.000    0.000 
#    0.000   10.000    0.000    0.000    0.000    0.000 
#    0.000    0.000    0.000    0.000    0.000    0.000 
#
# Total GULP energy -133773.430278 kJ/mol
# GULP energy per Si atom -5573.892928 kJ/mol
# Density = 2.186539 g / cm^3
# Si number density = 21.915272 Si / 1000 Ang^3
#
#
#
# Elastic Constant Matrix: (Units=GPa)
#
#
# Indices 1 2 3 4 5 6 
#
# 1 131.4923 3.6672 6.1396 0.0000 0.0000 0.0000
# 2 3.6672 68.3508 4.4332 0.0000 0.0000 0.0000
# 3 6.1396 4.4332 107.5615 0.0000 0.0000 0.0000
# 4 0.0000 0.0000 0.0000 -322.2047 0.0000 0.0000
# 5 0.0000 0.0000 0.0000 0.0000 35.9961 0.0000
# 6 0.0000 0.0000 0.0000 0.0000 0.0000 31.5178
#
#
#
# Elastic Compliance Matrix: (Units=1/GPa)
#
#
# Indices 1 2 3 4 5 6 
#
# 1 0.007635 -0.000382 -0.000420 0.000000 0.000000 0.000000
# 2 -0.000382 0.014689 -0.000584 0.000000 0.000000 0.000000
# 3 -0.000420 -0.000584 0.009345 0.000000 0.000000 0.000000
# 4 0.000000 0.000000 0.000000 -0.003104 0.000000 0.000000
# 5 0.000000 0.000000 0.000000 0.000000 0.027781 0.000000
# 6 0.000000 0.000000 0.000000 0.000000 0.000000 0.031728
#
#
# Mechanical properties :
#
#
# Convention : Reuss Voigt Hill
#
# Bulk Modulus (GPa) = 34.60567 37.32052 35.96309
# Shear Modulus (GPa) = 49.76175 -31.39384 9.18395
#
# Velocity S-wave (km/s) = 4.77030 -3.78896 2.04933
# Velocity P-wave (km/s) = 6.79455 1.44054 4.69525
#
# Compressibility (1/GPa) = 0.02889700
#
# Stress axis : x y z
#
# Youngs Moduli (GPa) = 130.97080 68.07918 107.00872
#
# Poissons Ratio (x) = 0.02603 0.04495
# Poissons Ratio (y) = 0.05009 0.06245
# Poissons Ratio (z) = 0.05502 0.03973
#
# Static dielectric constant tensor:
#      x y z
#    x 2.373550 0.000000 0.000000 
#    y 0.000000 1.898620 0.000000 
#    z 0.000000 0.000000 1.889130 
# 
# From -- ./inp_files/60908.got.cif
#   From: 2010.05.17/outbox.cif.g08.bks.cpg/sg66_31_cif.got.tgz:60908.got - 2010.06.03 17:51:23.
