data_PCOD9497250
_publ_section_title
;
Structure prediction by ZEFSAII (Michael W. Deem and Ramdas Pophale) SiO2 
 PCOD9497250
Probable space group: C C C M
;
_chemical_formula_sum "Si O2"
_cell_formula_units_Z 104
_cell_length_a 27.508098
_cell_length_b 21.558368
_cell_length_c 9.456536
_cell_angle_alpha 90.000000
_cell_angle_beta 90.000000
_cell_angle_gamma 90.000000
_cell_volume 5608.006704
_symmetry_space_group_name_H-M "C C C M"
_symmetry_group_IT_number 66
_symmetry_cell_setting 'orthorhombic'
loop_
_space_group_symop_operation_xyz
x,y,z
-x,-y,z
x,-y,1/2-z
-x,y,1/2-z
-x,-y,-z
x,y,-z
-x,y,1/2+z
x,-y,1/2+z
1/2+x,1/2+y,z
1/2-x,1/2-y,z
1/2+x,1/2-y,1/2-z
1/2-x,1/2+y,1/2-z
1/2-x,1/2-y,-z
1/2+x,1/2+y,-z
1/2-x,1/2+y,1/2+z
1/2+x,1/2-y,1/2+z
loop_
_atom_site_type_symbol
_atom_site_label
_atom_site_fract_x
_atom_site_fract_y
_atom_site_fract_z
Si Si1 0.767968 0.318338 0.830892
Si Si2 0.595071 0.301785 0.334523
Si Si3 0.118717 0.319316 0.666942
Si Si4 0.045370 0.090318 0.660901
Si Si5 0.449701 0.062439 0.330618
Si Si6 0.628052 0.500000 0.750000
Si Si7 0.690430 0.384897 0.657251
O O1 0.750000 0.250000 0.782764
O O2 0.824508 0.327090 0.795602
O O3 0.732815 0.370016 0.766232
O O4 0.763335 0.319971 0.000000
O O5 0.581197 0.300257 0.500000
O O6 0.596801 0.234898 0.263021
O O7 0.562044 0.348030 0.243287
O O8 0.648711 0.332647 0.326200
O O9 0.116535 0.301292 0.500000
O O10 0.088744 0.382359 0.684428
O O11 0.031219 0.102727 0.500000
O O12 0.000000 0.065926 0.750000
O O13 0.090675 0.042713 0.661858
O O14 0.500000 0.078998 0.250000
O O15 0.457282 0.052307 0.500000
O O16 0.433032 0.000000 0.250000
O O17 0.662691 0.450230 0.674419
O O18 0.710841 0.380515 0.500000
#
# Coordination Sequence:
#
# PCOD9497250 Si02
#       7
#    16  16  16  16  16   8  16
#     4  10  20  36  60  86 116 154 194 234 287 349
#     4  10  21  36  57  85 117 151 194 244 294 349
#     4  10  21  38  60  88 119 154 194 238 291 352
#     4  11  23  39  60  84 117 157 200 251 302 351
#     4  10  21  39  63  87 116 149 188 232 286 353
#     4  10  23  40  60  84 114 158 205 248 296 354
#     4  10  21  37  57  84 115 151 199 247 292 343
#
# _framework density 18.544913000000001
#
# number of rings (size 3 to 8) (size 9 to 14) (size 15 to 20)
#    0.000    1.846    1.538    2.538    0.000    8.308 
#    1.385    1.538    0.000    0.000    0.000    0.000 
#    0.000    0.000    0.000    0.000    0.000    0.000 
#
# Total GULP energy -290158.116700 kJ/mol
# GULP energy per Si atom -5579.963783 kJ/mol
# Density = 1.850270 g / cm^3
# Si number density = 18.544913 Si / 1000 Ang^3
#
#
#
# Elastic Constant Matrix: (Units=GPa)
#
#
# Indices 1 2 3 4 5 6 
#
# 1 83.9237 69.7613 58.2220 0.0000 0.0000 0.0000
# 2 69.7613 117.2289 63.4187 0.0000 0.0000 0.0000
# 3 58.2220 63.4187 122.9745 0.0000 0.0000 0.0000
# 4 0.0000 0.0000 0.0000 41.9660 0.0000 0.0000
# 5 0.0000 0.0000 0.0000 0.0000 15.3661 0.0000
# 6 0.0000 0.0000 0.0000 0.0000 0.0000 25.2058
#
#
#
# Elastic Compliance Matrix: (Units=1/GPa)
#
#
# Indices 1 2 3 4 5 6 
#
# 1 0.026541 -0.012477 -0.006131 0.000000 0.000000 0.000000
# 2 -0.012477 0.017697 -0.003219 0.000000 0.000000 0.000000
# 3 -0.006131 -0.003219 0.012695 0.000000 0.000000 0.000000
# 4 0.000000 0.000000 0.000000 0.023829 0.000000 0.000000
# 5 0.000000 0.000000 0.000000 0.000000 0.065078 0.000000
# 6 0.000000 0.000000 0.000000 0.000000 0.000000 0.039673
#
#
# Mechanical properties :
#
#
# Convention : Reuss Voigt Hill
#
# Bulk Modulus (GPa) = 75.31574 78.54792 76.93183
# Shear Modulus (GPa) = 21.40477 25.35592 23.38034
#
# Velocity S-wave (km/s) = 3.40106 3.70167 3.55454
# Velocity P-wave (km/s) = 7.49157 7.79213 7.64333
#
# Compressibility (1/GPa) = 0.01327744
#
# Stress axis : x y z
#
# Youngs Moduli (GPa) = 37.67816 56.50756 78.77381
#
# Poissons Ratio (x) = 0.70505 0.48296
# Poissons Ratio (y) = 0.47012 0.25358
# Poissons Ratio (z) = 0.23101 0.18190
#
# Static dielectric constant tensor:
#      x y z
#    x 1.640640 0.000000 0.000000 
#    y 0.000000 1.631850 0.000000 
#    z 0.000000 0.000000 1.630830 
# 
# From -- ./inp_files/10363.got.cif
#   From: 2010.05.17/outbox.cif.g08.bks.cpg/sg66_6_cif.got.tgz:10363.got - 2010.06.03 17:51:23.
