data_PCOD9497840
_publ_section_title
;
Structure prediction by ZEFSAII (Michael W. Deem and Ramdas Pophale) SiO2 
 PCOD9497840
Probable space group: C C C M
;
_chemical_formula_sum "Si O2"
_cell_formula_units_Z 64
_cell_length_a 4.886432
_cell_length_b 20.164596
_cell_length_c 25.449352
_cell_angle_alpha 90.000000
_cell_angle_beta 90.000000
_cell_angle_gamma 90.000000
_cell_volume 2507.599147
_symmetry_space_group_name_H-M "C C C M"
_symmetry_group_IT_number 66
_symmetry_cell_setting 'orthorhombic'
loop_
_space_group_symop_operation_xyz
x,y,z
-x,-y,z
x,-y,1/2-z
-x,y,1/2-z
-x,-y,-z
x,y,-z
-x,y,1/2+z
x,-y,1/2+z
1/2+x,1/2+y,z
1/2-x,1/2-y,z
1/2+x,1/2-y,1/2-z
1/2-x,1/2+y,1/2-z
1/2-x,1/2-y,-z
1/2+x,1/2+y,-z
1/2-x,1/2+y,1/2+z
1/2+x,1/2-y,1/2+z
loop_
_atom_site_type_symbol
_atom_site_label
_atom_site_fract_x
_atom_site_fract_y
_atom_site_fract_z
Si Si1 0.065294 0.689432 0.080289
Si Si2 0.392453 0.154813 0.303066
Si Si3 0.928921 0.105944 0.557310
Si Si4 0.122552 0.930946 0.673513
O O1 0.250000 0.750000 0.061127
O O2 0.042874 0.694253 0.143551
O O3 0.256673 0.626880 0.065443
O O4 0.765920 0.671481 0.059878
O O5 0.500000 0.189251 0.250000
O O6 0.582657 0.089282 0.306029
O O7 0.083790 0.128293 0.309088
O O8 0.888836 0.075417 0.500000
O O9 0.852738 0.067419 0.610084
O O10 0.000000 0.000000 0.691264
#
# Coordination Sequence:
#
# PCOD9497840 Si02
#       4
#    16  16  16  16
#     4  10  21  37  55  79 109 140 179 223 267 319
#     4  10  21  37  55  79 109 140 179 224 269 321
#     4  10  21  36  55  80 109 141 179 222 267 319
#     4  10  21  36  55  80 109 141 179 222 268 322
#
# _framework density 25.522423
#
# number of rings (size 3 to 8) (size 9 to 14) (size 15 to 20)
#    0.000    2.000    0.000    3.000    0.000    6.500 
#    0.000    7.500    0.000    9.000    0.000    0.000 
#    0.000    0.000    0.000    0.000    0.000    0.000 
#
# Total GULP energy -178909.068308 kJ/mol
# GULP energy per Si atom -5590.908385 kJ/mol
# Density = 2.546433 g / cm^3
# Si number density = 25.522423 Si / 1000 Ang^3
#
#
#
# Elastic Constant Matrix: (Units=GPa)
#
#
# Indices 1 2 3 4 5 6 
#
# 1 125.5371 6.4177 12.5300 0.0000 0.0000 0.0000
# 2 6.4177 46.5433 -4.0503 0.0000 0.0000 0.0000
# 3 12.5300 -4.0503 227.7266 0.0000 0.0000 0.0000
# 4 0.0000 0.0000 0.0000 -54.9572 0.0000 0.0000
# 5 0.0000 0.0000 0.0000 0.0000 26.6695 0.0000
# 6 0.0000 0.0000 0.0000 0.0000 0.0000 34.0831
#
#
#
# Elastic Compliance Matrix: (Units=1/GPa)
#
#
# Indices 1 2 3 4 5 6 
#
# 1 0.008071 -0.001153 -0.000465 0.000000 0.000000 0.000000
# 2 -0.001153 0.021683 0.000449 0.000000 0.000000 0.000000
# 3 -0.000465 0.000449 0.004425 0.000000 0.000000 0.000000
# 4 0.000000 0.000000 0.000000 -0.018196 0.000000 0.000000
# 5 0.000000 0.000000 0.000000 0.000000 0.037496 0.000000
# 6 0.000000 0.000000 0.000000 0.000000 0.000000 0.029340
#
#
# Mechanical properties :
#
#
# Convention : Reuss Voigt Hill
#
# Bulk Modulus (GPa) = 31.40532 47.73352 39.56942
# Shear Modulus (GPa) = 52.20789 26.81973 39.51381
#
# Velocity S-wave (km/s) = 4.52770 3.24517 3.93899
# Velocity P-wave (km/s) = 6.29803 5.72579 6.01871
#
# Compressibility (1/GPa) = 0.03184174
#
# Stress axis : x y z
#
# Youngs Moduli (GPa) = 123.89881 46.11808 225.99984
#
# Poissons Ratio (x) = 0.05319 0.10500
# Poissons Ratio (y) = 0.14290 -0.10150
# Poissons Ratio (z) = 0.05756 -0.02071
#
# Static dielectric constant tensor:
#      x y z
#    x 1.909720 0.000000 0.000000 
#    y 0.000000 2.080810 0.000000 
#    z 0.000000 0.000000 2.071460 
# 
# From -- ./inp_files/54102.got.cif
#   From: 2010.05.17/outbox.cif.g08.bks.cpg/sg66_28_cif.got.tgz:54102.got - 2010.06.03 17:51:23.
