data_PCOD9497174
_publ_section_title
;
Structure prediction by ZEFSAII (Michael W. Deem and Ramdas Pophale) SiO2 
 PCOD9497174
Probable space group: C C C M
;
_chemical_formula_sum "Si O2"
_cell_formula_units_Z 88
_cell_length_a 8.989215
_cell_length_b 21.608224
_cell_length_c 26.641754
_cell_angle_alpha 90.000000
_cell_angle_beta 90.000000
_cell_angle_gamma 90.000000
_cell_volume 5174.920174
_symmetry_space_group_name_H-M "C C C M"
_symmetry_group_IT_number 66
_symmetry_cell_setting 'orthorhombic'
loop_
_space_group_symop_operation_xyz
x,y,z
-x,-y,z
x,-y,1/2-z
-x,y,1/2-z
-x,-y,-z
x,y,-z
-x,y,1/2+z
x,-y,1/2+z
1/2+x,1/2+y,z
1/2-x,1/2-y,z
1/2+x,1/2-y,1/2-z
1/2-x,1/2+y,1/2-z
1/2-x,1/2-y,-z
1/2+x,1/2+y,-z
1/2-x,1/2+y,1/2+z
1/2+x,1/2-y,1/2+z
loop_
_atom_site_type_symbol
_atom_site_label
_atom_site_fract_x
_atom_site_fract_y
_atom_site_fract_z
Si Si1 0.933490 0.117968 0.305654
Si Si2 0.000000 0.000000 0.128840
Si Si3 0.832223 0.315512 0.647047
Si Si4 0.232948 0.534148 0.057754
Si Si5 0.930313 0.401018 0.557803
Si Si6 0.923751 0.759357 0.695330
O O1 0.767903 0.147145 0.312205
O O2 0.000000 0.106539 0.250000
O O3 0.036398 0.173440 0.327706
O O4 0.938211 0.055115 0.336698
O O5 0.871999 0.029917 0.094381
O O6 0.750000 0.250000 0.638094
O O7 0.854021 0.355533 0.597198
O O8 0.993458 0.295777 0.666983
O O9 0.155256 0.466606 0.059139
O O10 0.102217 0.582796 0.070747
O O11 0.278698 0.545740 0.000000
O O12 0.925411 0.378789 0.500000
O O13 0.750000 0.750000 0.699336
O O14 0.000000 0.761204 0.750000
#
# Coordination Sequence:
#
# PCOD9497174 Si02
#       6
#    16   8  16  16  16  16
#     4  10  21  36  51  80 113 146 178 222 274 317
#     4  12  20  32  58  82 112 144 176 230 270 326
#     4  10  20  36  57  81 111 145 186 219 270 332
#     4   9  19  34  55  79 107 143 184 227 268 322
#     4   9  18  36  56  78 109 143 183 229 275 323
#     4  10  20  36  58  79 105 144 186 225 263 322
#
# _framework density 17.005092999999999
#
# number of rings (size 3 to 8) (size 9 to 14) (size 15 to 20)
#    0.000    2.182    1.818    4.364    2.545    0.364 
#    0.000    0.000    0.000    0.545    0.000    0.000 
#    0.000    0.000    0.000    0.000    0.000    0.000 
#
# Total GULP energy -245101.963459 kJ/mol
# GULP energy per Si atom -5570.499170 kJ/mol
# Density = 1.696639 g / cm^3
# Si number density = 17.005093 Si / 1000 Ang^3
#
#
#
# Elastic Constant Matrix: (Units=GPa)
#
#
# Indices 1 2 3 4 5 6 
#
# 1 111.0336 21.1108 36.4495 0.0000 0.0000 0.0000
# 2 21.1108 63.3444 27.5518 0.0000 0.0000 0.0000
# 3 36.4495 27.5518 77.8592 0.0000 0.0000 0.0000
# 4 0.0000 0.0000 0.0000 39.0232 0.0000 0.0000
# 5 0.0000 0.0000 0.0000 0.0000 26.6500 0.0000
# 6 0.0000 0.0000 0.0000 0.0000 0.0000 11.7516
#
#
#
# Elastic Compliance Matrix: (Units=1/GPa)
#
#
# Indices 1 2 3 4 5 6 
#
# 1 0.010786 -0.001653 -0.004465 0.000000 0.000000 0.000000
# 2 -0.001653 0.018912 -0.005919 0.000000 0.000000 0.000000
# 3 -0.004465 -0.005919 0.017028 0.000000 0.000000 0.000000
# 4 0.000000 0.000000 0.000000 0.025626 0.000000 0.000000
# 5 0.000000 0.000000 0.000000 0.000000 0.037523 0.000000
# 6 0.000000 0.000000 0.000000 0.000000 0.000000 0.085095
#
#
# Mechanical properties :
#
#
# Convention : Reuss Voigt Hill
#
# Bulk Modulus (GPa) = 44.14185 46.94016 45.54101
# Shear Modulus (GPa) = 22.06596 26.62665 24.34630
#
# Velocity S-wave (km/s) = 3.60614 3.96132 3.78789
# Velocity P-wave (km/s) = 6.58433 6.97038 6.78010
#
# Compressibility (1/GPa) = 0.02265424
#
# Stress axis : x y z
#
# Youngs Moduli (GPa) = 92.71144 52.87698 58.72625
#
# Poissons Ratio (x) = 0.08740 0.26219
# Poissons Ratio (y) = 0.15323 0.34757
# Poissons Ratio (z) = 0.41392 0.31295
#
# Static dielectric constant tensor:
#      x y z
#    x 1.588320 0.000000 0.000000 
#    y 0.000000 1.577450 0.000000 
#    z 0.000000 0.000000 1.577480 
# 
# From -- ./inp_files/55468.got.cif
#   From: 2010.05.17/outbox.cif.g08.bks.cpg/sg66_28_cif.got.tgz:55468.got - 2010.06.03 17:51:23.
