data_PCOD9497917
_publ_section_title
;
Structure prediction by ZEFSAII (Michael W. Deem and Ramdas Pophale) SiO2 
 PCOD9497917
Probable space group: C C C M
;
_chemical_formula_sum "Si O2"
_cell_formula_units_Z 116
_cell_length_a 8.875014
_cell_length_b 24.317719
_cell_length_c 27.926916
_cell_angle_alpha 90.000000
_cell_angle_beta 90.000000
_cell_angle_gamma 90.000000
_cell_volume 6027.189708
_symmetry_space_group_name_H-M "C C C M"
_symmetry_group_IT_number 66
_symmetry_cell_setting 'orthorhombic'
loop_
_space_group_symop_operation_xyz
x,y,z
-x,-y,z
x,-y,1/2-z
-x,y,1/2-z
-x,-y,-z
x,y,-z
-x,y,1/2+z
x,-y,1/2+z
1/2+x,1/2+y,z
1/2-x,1/2-y,z
1/2+x,1/2-y,1/2-z
1/2-x,1/2+y,1/2-z
1/2-x,1/2-y,-z
1/2+x,1/2+y,-z
1/2-x,1/2+y,1/2+z
1/2+x,1/2-y,1/2+z
loop_
_atom_site_type_symbol
_atom_site_label
_atom_site_fract_x
_atom_site_fract_y
_atom_site_fract_z
Si Si1 0.636697 0.532470 0.867341
Si Si2 0.921011 0.771212 0.363309
Si Si3 0.000000 0.500000 0.250000
Si Si4 0.037150 0.119777 0.694615
Si Si5 0.867851 0.376846 0.371490
Si Si6 0.086914 0.721328 0.445104
Si Si7 0.338838 0.934023 0.829263
Si Si8 0.624161 0.204075 0.290220
O O1 0.500000 0.500000 0.893107
O O2 0.553305 0.565226 0.823198
O O3 0.739835 0.580691 0.888442
O O4 0.753280 0.484048 0.855130
O O5 0.750000 0.750000 0.356562
O O6 0.970795 0.830561 0.343435
O O7 0.969866 0.760997 0.417821
O O8 0.025425 0.732903 0.330925
O O9 0.096299 0.538674 0.217409
O O10 0.214408 0.107802 0.689302
O O11 0.000000 0.133788 0.750000
O O12 0.898633 0.333249 0.413091
O O13 0.814410 0.347894 0.320872
O O14 0.024736 0.407093 0.358497
O O15 0.045835 0.710639 0.500000
O O16 0.250000 0.750000 0.443661
O O17 0.500000 0.189515 0.250000
O O18 0.750000 0.250000 0.274723
#
# Coordination Sequence:
#
# PCOD9497917 Si02
#       8
#    16  16   4  16  16  16  16  16
#     4  10  21  37  55  80 113 156 195 243 284 330
#     4  11  22  38  57  87 122 150 191 244 294 352
#     4  12  20  36  50  76 114 156 206 240 268 316
#     4  11  22  35  54  81 120 166 202 236 282 335
#     4  11  21  38  59  83 112 151 194 239 290 351
#     4  10  22  42  67  90 113 147 191 241 302 369
#     4  11  23  35  54  81 117 158 204 244 280 329
#     4  11  23  36  53  80 117 159 199 237 284 344
#
# _framework density 19.246117000000002
#
# number of rings (size 3 to 8) (size 9 to 14) (size 15 to 20)
#    0.000    1.241    1.379    6.621    0.966    4.414 
#    0.000    0.690    0.000    2.069    0.000    1.931 
#    0.000    0.000    0.000    0.000    0.000    0.000 
#
# Total GULP energy -323389.951599 kJ/mol
# GULP energy per Si atom -5575.688821 kJ/mol
# Density = 1.920231 g / cm^3
# Si number density = 19.246117 Si / 1000 Ang^3
#
#
#
# Elastic Constant Matrix: (Units=GPa)
#
#
# Indices 1 2 3 4 5 6 
#
# 1 99.1320 44.7053 26.1668 0.0000 0.0000 0.0000
# 2 44.7053 104.9810 49.5828 0.0000 0.0000 0.0000
# 3 26.1668 49.5828 101.8259 0.0000 0.0000 0.0000
# 4 0.0000 0.0000 0.0000 20.9503 0.0000 0.0000
# 5 0.0000 0.0000 0.0000 0.0000 21.8882 0.0000
# 6 0.0000 0.0000 0.0000 0.0000 0.0000 41.2107
#
#
#
# Elastic Compliance Matrix: (Units=1/GPa)
#
#
# Indices 1 2 3 4 5 6 
#
# 1 0.012536 -0.004957 -0.000808 0.000000 0.000000 0.000000
# 2 -0.004957 0.014331 -0.005704 0.000000 0.000000 0.000000
# 3 -0.000808 -0.005704 0.012806 0.000000 0.000000 0.000000
# 4 0.000000 0.000000 0.000000 0.047732 0.000000 0.000000
# 5 0.000000 0.000000 0.000000 0.000000 0.045687 0.000000
# 6 0.000000 0.000000 0.000000 0.000000 0.000000 0.024266
#
#
# Mechanical properties :
#
#
# Convention : Reuss Voigt Hill
#
# Bulk Modulus (GPa) = 59.75616 60.76097 60.25857
# Shear Modulus (GPa) = 26.90009 29.17544 28.03776
#
# Velocity S-wave (km/s) = 3.74262 3.89770 3.82095
# Velocity P-wave (km/s) = 7.05635 7.20382 7.13047
#
# Compressibility (1/GPa) = 0.01673468
#
# Stress axis : x y z
#
# Youngs Moduli (GPa) = 79.76902 69.78101 78.08905
#
# Poissons Ratio (x) = 0.34590 0.06308
# Poissons Ratio (y) = 0.39541 0.44544
# Poissons Ratio (z) = 0.06444 0.39805
#
# Static dielectric constant tensor:
#      x y z
#    x 1.691540 0.000000 0.000000 
#    y 0.000000 1.648720 0.000000 
#    z 0.000000 0.000000 1.650880 
# 
# From -- ./inp_files/62884.got.cif
#   From: 2010.05.17/outbox.cif.g08.bks.cpg/sg66_32_cif.got.tgz:62884.got - 2010.06.03 17:51:23.
