data_PCOD9497390
_publ_section_title
;
Structure prediction by ZEFSAII (Michael W. Deem and Ramdas Pophale) SiO2 
 PCOD9497390
Probable space group: C C C M
;
_chemical_formula_sum "Si O2"
_cell_formula_units_Z 72
_cell_length_a 8.425849
_cell_length_b 17.365336
_cell_length_c 25.983224
_cell_angle_alpha 90.000000
_cell_angle_beta 90.000000
_cell_angle_gamma 90.000000
_cell_volume 3801.805548
_symmetry_space_group_name_H-M "C C C M"
_symmetry_group_IT_number 66
_symmetry_cell_setting 'orthorhombic'
loop_
_space_group_symop_operation_xyz
x,y,z
-x,-y,z
x,-y,1/2-z
-x,y,1/2-z
-x,-y,-z
x,y,-z
-x,y,1/2+z
x,-y,1/2+z
1/2+x,1/2+y,z
1/2-x,1/2-y,z
1/2+x,1/2-y,1/2-z
1/2-x,1/2+y,1/2-z
1/2-x,1/2-y,-z
1/2+x,1/2+y,-z
1/2-x,1/2+y,1/2+z
1/2+x,1/2-y,1/2+z
loop_
_atom_site_type_symbol
_atom_site_label
_atom_site_fract_x
_atom_site_fract_y
_atom_site_fract_z
Si Si1 0.250000 0.250000 0.175489
Si Si2 0.000000 0.666333 0.750000
Si Si3 0.160744 0.366100 0.649219
Si Si4 0.254388 0.980386 0.500000
Si Si5 0.547936 0.369488 0.000000
Si Si6 0.527419 0.299831 0.112592
Si Si7 0.000000 0.500000 0.585658
O O1 0.120579 0.286466 0.213770
O O2 0.352239 0.304893 0.137473
O O3 0.889453 0.624760 0.708455
O O4 0.348376 0.356044 0.641167
O O5 0.087145 0.286921 0.625367
O O6 0.085255 0.435866 0.618949
O O7 0.364549 0.965514 0.451031
O O8 0.104483 0.925079 0.500000
O O9 0.195508 0.069974 0.500000
O O10 0.541317 0.319541 0.947783
#
# Coordination Sequence:
#
# PCOD9497390 Si02
#       7
#     8   8  16   8   8  16   8
#     4  10  20  37  60  94 126 153 202 266 316 354
#     4  10  20  37  62  88 118 161 204 248 312 357
#     4  10  22  39  62  90 123 162 204 257 301 368
#     4  10  24  38  62  84 125 169 194 251 311 377
#     4  11  22  40  60  92 121 161 202 251 314 372
#     4  10  22  38  62  93 121 159 204 257 301 370
#     4  11  22  43  60  88 122 167 206 243 312 380
#
# _framework density 18.938369999999999
#
# number of rings (size 3 to 8) (size 9 to 14) (size 15 to 20)
#    0.000    1.778    2.222    2.667    6.222    4.444 
#    0.000    0.000    0.000    0.000    0.000    0.000 
#    0.000    0.000    0.000    0.000    0.000    0.000 
#
# Total GULP energy -200714.650311 kJ/mol
# GULP energy per Si atom -5575.406953 kJ/mol
# Density = 1.889527 g / cm^3
# Si number density = 18.938370 Si / 1000 Ang^3
#
#
#
# Elastic Constant Matrix: (Units=GPa)
#
#
# Indices 1 2 3 4 5 6 
#
# 1 124.7454 22.0754 55.1218 0.0000 0.0000 0.0000
# 2 22.0754 52.3639 26.1573 0.0000 0.0000 0.0000
# 3 55.1218 26.1573 156.6174 0.0000 0.0000 0.0000
# 4 0.0000 0.0000 0.0000 -4.1935 0.0000 0.0000
# 5 0.0000 0.0000 0.0000 0.0000 49.5192 0.0000
# 6 0.0000 0.0000 0.0000 0.0000 0.0000 23.5616
#
#
#
# Elastic Compliance Matrix: (Units=1/GPa)
#
#
# Indices 1 2 3 4 5 6 
#
# 1 0.009814 -0.002632 -0.003015 0.000000 0.000000 0.000000
# 2 -0.002632 0.021541 -0.002671 0.000000 0.000000 0.000000
# 3 -0.003015 -0.002671 0.007892 0.000000 0.000000 0.000000
# 4 0.000000 0.000000 0.000000 -0.238464 0.000000 0.000000
# 5 0.000000 0.000000 0.000000 0.000000 0.020194 0.000000
# 6 0.000000 0.000000 0.000000 0.000000 0.000000 0.042442
#
#
# Mechanical properties :
#
#
# Convention : Reuss Voigt Hill
#
# Bulk Modulus (GPa) = 44.22418 60.04841 52.13630
# Shear Modulus (GPa) = -44.48081 29.13561 -7.67260
#
# Velocity S-wave (km/s) = -4.85161 3.92655 -2.01498
# Velocity P-wave (km/s) = 2.82522 7.23417 4.70911
#
# Compressibility (1/GPa) = 0.02261206
#
# Stress axis : x y z
#
# Youngs Moduli (GPa) = 101.89443 46.42308 126.70820
#
# Poissons Ratio (x) = 0.12216 0.38197
# Poissons Ratio (y) = 0.26814 0.33850
# Poissons Ratio (z) = 0.30717 0.12402
#
# Static dielectric constant tensor:
#      x y z
#    x 1.714240 0.000000 0.000000 
#    y 0.000000 1.640090 0.000000 
#    z 0.000000 0.000000 1.667140 
# 
# From -- ./inp_files/55301.got.cif
#   From: 2010.05.17/outbox.cif.g08.bks.cpg/sg66_28_cif.got.tgz:55301.got - 2010.06.03 17:51:23.
