data_PCOD9497291
_publ_section_title
;
Structure prediction by ZEFSAII (Michael W. Deem and Ramdas Pophale) SiO2 
 PCOD9497291
Probable space group: C C C M
;
_chemical_formula_sum "Si O2"
_cell_formula_units_Z 96
_cell_length_a 15.646329
_cell_length_b 12.339870
_cell_length_c 26.164223
_cell_angle_alpha 90.000000
_cell_angle_beta 90.000000
_cell_angle_gamma 90.000000
_cell_volume 5051.622448
_symmetry_space_group_name_H-M "C C C M"
_symmetry_group_IT_number 66
_symmetry_cell_setting 'orthorhombic'
loop_
_space_group_symop_operation_xyz
x,y,z
-x,-y,z
x,-y,1/2-z
-x,y,1/2-z
-x,-y,-z
x,y,-z
-x,y,1/2+z
x,-y,1/2+z
1/2+x,1/2+y,z
1/2-x,1/2-y,z
1/2+x,1/2-y,1/2-z
1/2-x,1/2+y,1/2-z
1/2-x,1/2-y,-z
1/2+x,1/2+y,-z
1/2-x,1/2+y,1/2+z
1/2+x,1/2-y,1/2+z
loop_
_atom_site_type_symbol
_atom_site_label
_atom_site_fract_x
_atom_site_fract_y
_atom_site_fract_z
Si Si1 0.012256 0.369060 0.871568
Si Si2 0.149897 0.252897 0.667807
Si Si3 0.174223 0.656643 0.441866
Si Si4 0.239793 0.120524 0.848133
Si Si5 0.400125 0.511198 0.191098
Si Si6 0.118448 0.387098 0.228971
O O1 0.081702 0.325140 0.913697
O O2 0.055836 0.345688 0.815876
O O3 0.000000 0.500000 0.877191
O O4 0.918566 0.314709 0.868363
O O5 0.250000 0.250000 0.653723
O O6 0.124932 0.128127 0.671366
O O7 0.137998 0.306410 0.724546
O O8 0.159988 0.621601 0.500000
O O9 0.250000 0.750000 0.444926
O O10 0.218865 0.578191 0.400554
O O11 0.250000 0.250000 0.845389
O O12 0.295605 0.080454 0.801077
O O13 0.144849 0.081991 0.841298
O O14 0.500000 0.500000 0.188597
O O15 0.373853 0.500000 0.250000
O O16 0.085520 0.500000 0.250000
#
# Coordination Sequence:
#
# PCOD9497291 Si02
#       6
#    16  16  16  16  16  16
#     4  11  24  39  64  94 120 164 213 260 310 368
#     4  12  25  38  56  85 133 172 205 253 301 365
#     4   9  21  41  70  95 116 151 207 269 325 378
#     4  10  20  36  62  84 119 159 203 253 305 368
#     4  11  25  36  53  89 129 168 211 247 303 368
#     4  11  20  35  58  86 121 166 213 245 286 363
#
# _framework density 19.003796000000001
#
# number of rings (size 3 to 8) (size 9 to 14) (size 15 to 20)
#    0.000    1.333    1.667    4.500   14.000    1.000 
#    0.000    0.000    0.000    2.000    0.000    0.000 
#    0.000    0.000    0.000    0.000    0.000    0.000 
#
# Total GULP energy -267509.430808 kJ/mol
# GULP energy per Si atom -5573.113142 kJ/mol
# Density = 1.896054 g / cm^3
# Si number density = 19.003796 Si / 1000 Ang^3
#
#
#
# Elastic Constant Matrix: (Units=GPa)
#
#
# Indices 1 2 3 4 5 6 
#
# 1 154.3810 41.3674 58.5926 0.0000 0.0000 0.0000
# 2 41.3674 95.2354 20.1416 0.0000 0.0000 0.0000
# 3 58.5926 20.1416 111.4269 0.0000 0.0000 0.0000
# 4 0.0000 0.0000 0.0000 4.3803 0.0000 0.0000
# 5 0.0000 0.0000 0.0000 0.0000 22.3337 0.0000
# 6 0.0000 0.0000 0.0000 0.0000 0.0000 28.9949
#
#
#
# Elastic Compliance Matrix: (Units=1/GPa)
#
#
# Indices 1 2 3 4 5 6 
#
# 1 0.008832 -0.002967 -0.004108 0.000000 0.000000 0.000000
# 2 -0.002967 0.011915 -0.000593 0.000000 0.000000 0.000000
# 3 -0.004108 -0.000593 0.011242 0.000000 0.000000 0.000000
# 4 0.000000 0.000000 0.000000 0.228296 0.000000 0.000000
# 5 0.000000 0.000000 0.000000 0.000000 0.044775 0.000000
# 6 0.000000 0.000000 0.000000 0.000000 0.000000 0.034489
#
#
# Mechanical properties :
#
#
# Convention : Reuss Voigt Hill
#
# Bulk Modulus (GPa) = 60.05541 66.80517 63.43029
# Shear Modulus (GPa) = 13.87212 27.20455 20.53834
#
# Velocity S-wave (km/s) = 2.70472 3.78766 3.29104
# Velocity P-wave (km/s) = 6.43618 7.37282 6.92036
#
# Compressibility (1/GPa) = 0.01665129
#
# Stress axis : x y z
#
# Youngs Moduli (GPa) = 113.22972 83.92959 88.95462
#
# Poissons Ratio (x) = 0.24906 0.36539
# Poissons Ratio (y) = 0.33600 0.05278
# Poissons Ratio (z) = 0.46510 0.04980
#
# Static dielectric constant tensor:
#      x y z
#    x 1.787730 0.000000 0.000000 
#    y 0.000000 1.683610 0.000000 
#    z 0.000000 0.000000 1.706680 
# 
# From -- ./inp_files/58757.got.cif
#   From: 2010.05.17/outbox.cif.g08.bks.cpg/sg66_30_cif.got.tgz:58757.got - 2010.06.03 17:51:23.
