data_PCOD9497109
_publ_section_title
;
Structure prediction by ZEFSAII (Michael W. Deem and Ramdas Pophale) SiO2 
 PCOD9497109
Probable space group: C C C M
;
_chemical_formula_sum "Si O2"
_cell_formula_units_Z 96
_cell_length_a 8.139487
_cell_length_b 19.389513
_cell_length_c 29.227541
_cell_angle_alpha 90.000000
_cell_angle_beta 90.000000
_cell_angle_gamma 90.000000
_cell_volume 4612.710658
_symmetry_space_group_name_H-M "C C C M"
_symmetry_group_IT_number 66
_symmetry_cell_setting 'orthorhombic'
loop_
_space_group_symop_operation_xyz
x,y,z
-x,-y,z
x,-y,1/2-z
-x,y,1/2-z
-x,-y,-z
x,y,-z
-x,y,1/2+z
x,-y,1/2+z
1/2+x,1/2+y,z
1/2-x,1/2-y,z
1/2+x,1/2-y,1/2-z
1/2-x,1/2+y,1/2-z
1/2-x,1/2-y,-z
1/2+x,1/2+y,-z
1/2-x,1/2+y,1/2+z
1/2+x,1/2-y,1/2+z
loop_
_atom_site_type_symbol
_atom_site_label
_atom_site_fract_x
_atom_site_fract_y
_atom_site_fract_z
Si Si1 0.399262 0.802001 0.705697
Si Si2 0.930948 0.284496 0.891040
Si Si3 0.676538 0.962173 0.205642
Si Si4 0.691855 0.092194 0.052175
Si Si5 0.318509 0.532529 0.395128
Si Si6 0.939515 0.159984 0.552925
O O1 0.500000 0.778861 0.750000
O O2 0.250000 0.750000 0.699393
O O3 0.504492 0.798577 0.659515
O O4 0.345714 0.880942 0.714469
O O5 0.750000 0.250000 0.888151
O O6 0.914862 0.355546 0.918286
O O7 0.040970 0.231254 0.919983
O O8 0.769399 0.967853 0.157748
O O9 0.500000 0.000000 0.200007
O O10 0.753775 0.000000 0.250000
O O11 0.876836 0.125541 0.051724
O O12 0.704189 0.018357 0.075915
O O13 0.636581 0.087702 0.000000
O O14 0.500000 0.500000 0.398462
O O15 0.328073 0.607430 0.418228
O O16 0.888291 0.168004 0.500000
#
# Coordination Sequence:
#
# PCOD9497109 Si02
#       6
#    16  16  16  16  16  16
#     4  12  25  44  65  91 121 161 209 263 322 378
#     4  10  20  36  61  90 122 158 207 256 305 368
#     4  11  23  44  65  84 121 170 208 250 325 394
#     4   9  17  30  56  90 124 161 203 250 300 363
#     4  10  20  35  59  90 120 155 208 265 304 356
#     4   9  17  32  56  90 127 160 199 252 312 359
#
# _framework density 20.812055999999998
#
# number of rings (size 3 to 8) (size 9 to 14) (size 15 to 20)
#    0.000    1.833    1.667    3.500    0.000    4.333 
#    6.000    0.000    0.000   20.000    0.000    0.000 
#    0.000    0.000    0.000    0.000    0.000    0.000 
#
# Total GULP energy -268440.867255 kJ/mol
# GULP energy per Si atom -5592.518068 kJ/mol
# Density = 2.076469 g / cm^3
# Si number density = 20.812056 Si / 1000 Ang^3
#
#
#
# Elastic Constant Matrix: (Units=GPa)
#
#
# Indices 1 2 3 4 5 6 
#
# 1 47.6411 46.5685 48.0440 0.0000 0.0000 0.0000
# 2 46.5685 141.5658 76.3800 0.0000 0.0000 0.0000
# 3 48.0440 76.3800 233.2729 0.0000 0.0000 0.0000
# 4 0.0000 0.0000 0.0000 33.2899 0.0000 0.0000
# 5 0.0000 0.0000 0.0000 0.0000 32.2201 0.0000
# 6 0.0000 0.0000 0.0000 0.0000 0.0000 18.8483
#
#
#
# Elastic Compliance Matrix: (Units=1/GPa)
#
#
# Indices 1 2 3 4 5 6 
#
# 1 0.033798 -0.008942 -0.004033 0.000000 0.000000 0.000000
# 2 -0.008942 0.010945 -0.001742 0.000000 0.000000 0.000000
# 3 -0.004033 -0.001742 0.005688 0.000000 0.000000 0.000000
# 4 0.000000 0.000000 0.000000 0.030039 0.000000 0.000000
# 5 0.000000 0.000000 0.000000 0.000000 0.031037 0.000000
# 6 0.000000 0.000000 0.000000 0.000000 0.000000 0.053055
#
#
# Mechanical properties :
#
#
# Convention : Reuss Voigt Hill
#
# Bulk Modulus (GPa) = 47.62606 84.94052 66.28329
# Shear Modulus (GPa) = 24.87616 33.63748 29.25682
#
# Velocity S-wave (km/s) = 3.46103 4.02462 3.75342
# Velocity P-wave (km/s) = 6.23740 7.90560 7.12052
#
# Compressibility (1/GPa) = 0.02099691
#
# Stress axis : x y z
#
# Youngs Moduli (GPa) = 29.58740 91.36347 175.81235
#
# Poissons Ratio (x) = 0.81697 0.70907
# Poissons Ratio (y) = 0.26457 0.30629
# Poissons Ratio (z) = 0.11933 0.15917
#
# Static dielectric constant tensor:
#      x y z
#    x 1.756480 0.000000 0.000000 
#    y 0.000000 1.660520 0.000000 
#    z 0.000000 0.000000 1.717140 
# 
# From -- ./inp_files/62625.got.cif
#   From: 2010.05.17/outbox.cif.g08.bks.cpg/sg66_32_cif.got.tgz:62625.got - 2010.06.03 17:51:23.
