data_PCOD9497867
_publ_section_title
;
Structure prediction by ZEFSAII (Michael W. Deem and Ramdas Pophale) SiO2 
 PCOD9497867
Probable space group: C C C M
;
_chemical_formula_sum "Si O2"
_cell_formula_units_Z 88
_cell_length_a 23.439288
_cell_length_b 8.889146
_cell_length_c 21.294472
_cell_angle_alpha 90.000000
_cell_angle_beta 90.000000
_cell_angle_gamma 90.000000
_cell_volume 4436.815105
_symmetry_space_group_name_H-M "C C C M"
_symmetry_group_IT_number 66
_symmetry_cell_setting 'orthorhombic'
loop_
_space_group_symop_operation_xyz
x,y,z
-x,-y,z
x,-y,1/2-z
-x,y,1/2-z
-x,-y,-z
x,y,-z
-x,y,1/2+z
x,-y,1/2+z
1/2+x,1/2+y,z
1/2-x,1/2-y,z
1/2+x,1/2-y,1/2-z
1/2-x,1/2+y,1/2-z
1/2-x,1/2-y,-z
1/2+x,1/2+y,-z
1/2-x,1/2+y,1/2+z
1/2+x,1/2-y,1/2+z
loop_
_atom_site_type_symbol
_atom_site_label
_atom_site_fract_x
_atom_site_fract_y
_atom_site_fract_z
Si Si1 0.041048 0.143857 0.571880
Si Si2 0.944564 0.413301 0.164719
Si Si3 0.378307 0.129999 0.070689
Si Si4 0.730648 0.922458 0.132453
Si Si5 0.343155 0.532055 0.572962
Si Si6 0.349368 0.000000 0.750000
O O1 0.030390 0.198601 0.500000
O O2 0.035858 0.268650 0.625262
O O3 0.106158 0.086567 0.575069
O O4 0.000000 0.000000 0.581313
O O5 0.916302 0.531196 0.116087
O O6 0.895113 0.386012 0.217063
O O7 0.000000 0.500000 0.188015
O O8 0.314706 0.061815 0.076391
O O9 0.370526 0.304818 0.089892
O O10 0.399814 0.125745 0.000000
O O11 0.750000 0.750000 0.134464
O O12 0.789358 0.007174 0.116749
O O13 0.693568 0.952592 0.194537
O O14 0.324003 0.548057 0.500000
#
# Coordination Sequence:
#
# PCOD9497867 Si02
#       6
#    16  16  16  16  16   8
#     4  10  21  36  57  89 121 145 177 227 289 352
#     4  11  22  37  57  77 108 150 191 233 280 327
#     4   9  17  31  54  83 110 141 181 220 267 332
#     4   9  18  33  54  78 105 142 184 223 269 324
#     4   9  17  32  55  83 116 145 172 217 276 336
#     4  10  23  38  54  76 105 144 192 240 270 314
#
# _framework density 19.834047000000002
#
# number of rings (size 3 to 8) (size 9 to 14) (size 15 to 20)
#    0.000    2.364    0.000    2.455    0.000    6.545 
#    0.000    2.727    0.000   25.091    0.000    0.000 
#    0.000    0.000    0.000    0.000    0.000    0.000 
#
# Total GULP energy -245105.974025 kJ/mol
# GULP energy per Si atom -5570.590319 kJ/mol
# Density = 1.978890 g / cm^3
# Si number density = 19.834047 Si / 1000 Ang^3
#
#
#
# Elastic Constant Matrix: (Units=GPa)
#
#
# Indices 1 2 3 4 5 6 
#
# 1 125.3247 25.4173 47.6767 0.0000 0.0000 0.0000
# 2 25.4173 37.5527 35.6497 0.0000 0.0000 0.0000
# 3 47.6767 35.6497 92.3183 0.0000 0.0000 0.0000
# 4 0.0000 0.0000 0.0000 8.3298 0.0000 0.0000
# 5 0.0000 0.0000 0.0000 0.0000 22.0502 0.0000
# 6 0.0000 0.0000 0.0000 0.0000 0.0000 24.5668
#
#
#
# Elastic Compliance Matrix: (Units=1/GPa)
#
#
# Indices 1 2 3 4 5 6 
#
# 1 0.010138 -0.002986 -0.004082 0.000000 0.000000 0.000000
# 2 -0.002986 0.042921 -0.015032 0.000000 0.000000 0.000000
# 3 -0.004082 -0.015032 0.018745 0.000000 0.000000 0.000000
# 4 0.000000 0.000000 0.000000 0.120051 0.000000 0.000000
# 5 0.000000 0.000000 0.000000 0.000000 0.045351 0.000000
# 6 0.000000 0.000000 0.000000 0.000000 0.000000 0.040705
#
#
# Mechanical properties :
#
#
# Convention : Reuss Voigt Hill
#
# Bulk Modulus (GPa) = 36.22872 52.52033 44.37453
# Shear Modulus (GPa) = 15.09143 20.75283 17.92213
#
# Velocity S-wave (km/s) = 2.76141 3.23820 3.00926
# Velocity P-wave (km/s) = 5.33599 6.36543 5.87330
#
# Compressibility (1/GPa) = 0.02760241
#
# Stress axis : x y z
#
# Youngs Moduli (GPa) = 98.63877 23.29869 53.34681
#
# Poissons Ratio (x) = 0.06958 0.21779
# Poissons Ratio (y) = 0.29456 0.80192
# Poissons Ratio (z) = 0.40269 0.35023
#
# Static dielectric constant tensor:
#      x y z
#    x 1.744630 0.000000 0.000000 
#    y 0.000000 1.690430 0.000000 
#    z 0.000000 0.000000 1.842530 
# 
# From -- ./inp_files/52413.got.cif
#   From: 2010.05.17/outbox.cif.g08.bks.cpg/sg66_27_cif.got.tgz:52413.got - 2010.06.03 17:51:23.
