data_PCOD9497942
_publ_section_title
;
Structure prediction by ZEFSAII (Michael W. Deem and Ramdas Pophale) SiO2 
 PCOD9497942
Probable space group: C C C M
;
_chemical_formula_sum "Si O2"
_cell_formula_units_Z 80
_cell_length_a 8.956000
_cell_length_b 26.633014
_cell_length_c 15.193202
_cell_angle_alpha 90.000000
_cell_angle_beta 90.000000
_cell_angle_gamma 90.000000
_cell_volume 3623.962661
_symmetry_space_group_name_H-M "C C C M"
_symmetry_group_IT_number 66
_symmetry_cell_setting 'orthorhombic'
loop_
_space_group_symop_operation_xyz
x,y,z
-x,-y,z
x,-y,1/2-z
-x,y,1/2-z
-x,-y,-z
x,y,-z
-x,y,1/2+z
x,-y,1/2+z
1/2+x,1/2+y,z
1/2-x,1/2-y,z
1/2+x,1/2-y,1/2-z
1/2-x,1/2+y,1/2-z
1/2-x,1/2-y,-z
1/2+x,1/2+y,-z
1/2-x,1/2+y,1/2+z
1/2+x,1/2-y,1/2+z
loop_
_atom_site_type_symbol
_atom_site_label
_atom_site_fract_x
_atom_site_fract_y
_atom_site_fract_z
Si Si1 0.167142 0.195935 0.107054
Si Si2 0.821247 0.797723 0.395858
Si Si3 0.832978 0.091767 0.288635
Si Si4 0.118848 0.539064 0.600319
Si Si5 0.091769 0.621147 0.833557
O O1 0.250000 0.250000 0.123672
O O2 0.203730 0.145836 0.164112
O O3 0.991887 0.198674 0.131377
O O4 0.184085 0.186798 0.000000
O O5 0.834789 0.790578 0.500000
O O6 0.750000 0.750000 0.349927
O O7 0.699115 0.840349 0.381735
O O8 0.778853 0.049041 0.355804
O O9 0.714092 0.084838 0.210500
O O10 0.000000 0.090581 0.250000
O O11 0.143624 0.524265 0.500000
O O12 0.000000 0.500000 0.640550
O O13 0.025063 0.591115 0.607590
O O14 0.000000 0.642868 0.750000
#
# Coordination Sequence:
#
# PCOD9497942 Si02
#       5
#    16  16  16  16  16
#     4  10  22  39  61  91 132 181 226 269 319 381
#     4  10  21  37  57  84 124 174 223 265 314 377
#     4  11  22  41  64  98 134 168 214 271 340 396
#     4  10  23  45  72  97 125 169 222 270 329 402
#     4  10  22  38  61  91 130 173 212 267 331 392
#
# _framework density 22.075282000000001
#
# number of rings (size 3 to 8) (size 9 to 14) (size 15 to 20)
#    0.000    1.800    2.000    1.200    5.600    4.400 
#    0.000    2.000    0.000    2.400    0.000    0.000 
#    0.000    0.000    0.000    0.000    0.000    0.000 
#
# Total GULP energy -222680.097962 kJ/mol
# GULP energy per Si atom -5567.002449 kJ/mol
# Density = 2.202504 g / cm^3
# Si number density = 22.075282 Si / 1000 Ang^3
#
#
#
# Elastic Constant Matrix: (Units=GPa)
#
#
# Indices 1 2 3 4 5 6 
#
# 1 166.0996 45.4758 26.8735 0.0000 0.0000 0.0000
# 2 45.4758 73.4422 9.1874 0.0000 0.0000 0.0000
# 3 26.8735 9.1874 42.5510 0.0000 0.0000 0.0000
# 4 0.0000 0.0000 0.0000 98.3657 0.0000 0.0000
# 5 0.0000 0.0000 0.0000 0.0000 33.2723 0.0000
# 6 0.0000 0.0000 0.0000 0.0000 0.0000 -37.6981
#
#
#
# Elastic Compliance Matrix: (Units=1/GPa)
#
#
# Indices 1 2 3 4 5 6 
#
# 1 0.007868 -0.004368 -0.004026 0.000000 0.000000 0.000000
# 2 -0.004368 0.016419 -0.000786 0.000000 0.000000 0.000000
# 3 -0.004026 -0.000786 0.026214 0.000000 0.000000 0.000000
# 4 0.000000 0.000000 0.000000 0.010166 0.000000 0.000000
# 5 0.000000 0.000000 0.000000 0.000000 0.030055 0.000000
# 6 0.000000 0.000000 0.000000 0.000000 0.000000 -0.026527
#
#
# Mechanical properties :
#
#
# Convention : Reuss Voigt Hill
#
# Bulk Modulus (GPa) = 31.11401 49.46289 40.28845
# Shear Modulus (GPa) = 53.60819 32.15838 42.88329
#
# Velocity S-wave (km/s) = 4.93325 3.82089 4.41227
# Velocity P-wave (km/s) = 6.82454 6.47462 6.65188
#
# Compressibility (1/GPa) = 0.03213986
#
# Stress axis : x y z
#
# Youngs Moduli (GPa) = 127.10094 60.90393 38.14819
#
# Poissons Ratio (x) = 0.26604 0.15358
# Poissons Ratio (y) = 0.55519 0.03000
# Poissons Ratio (z) = 0.51168 0.04790
#
# Static dielectric constant tensor:
#      x y z
#    x 1.532090 0.000000 0.000000 
#    y 0.000000 2.022520 0.000000 
#    z 0.000000 0.000000 1.883440 
# 
# From -- ./inp_files/36942.got.cif
#   From: 2010.05.17/outbox.cif.g08.bks.cpg/sg66_19_cif.got.tgz:36942.got - 2010.06.03 17:51:23.
