data_PCOD9497006
_publ_section_title
;
Structure prediction by ZEFSAII (Michael W. Deem and Ramdas Pophale) SiO2 
 PCOD9497006
Probable space group: C C C M
;
_chemical_formula_sum "Si O2"
_cell_formula_units_Z 96
_cell_length_a 21.091571
_cell_length_b 27.207821
_cell_length_c 8.300068
_cell_angle_alpha 90.000000
_cell_angle_beta 90.000000
_cell_angle_gamma 90.000000
_cell_volume 4763.041236
_symmetry_space_group_name_H-M "C C C M"
_symmetry_group_IT_number 66
_symmetry_cell_setting 'orthorhombic'
loop_
_space_group_symop_operation_xyz
x,y,z
-x,-y,z
x,-y,1/2-z
-x,y,1/2-z
-x,-y,-z
x,y,-z
-x,y,1/2+z
x,-y,1/2+z
1/2+x,1/2+y,z
1/2-x,1/2-y,z
1/2+x,1/2-y,1/2-z
1/2-x,1/2+y,1/2-z
1/2-x,1/2-y,-z
1/2+x,1/2+y,-z
1/2-x,1/2+y,1/2+z
1/2+x,1/2-y,1/2+z
loop_
_atom_site_type_symbol
_atom_site_label
_atom_site_fract_x
_atom_site_fract_y
_atom_site_fract_z
Si Si1 0.798767 0.616718 0.806881
Si Si2 0.687455 0.445317 0.191640
Si Si3 0.931335 0.337073 0.305121
Si Si4 0.290648 0.701806 0.177602
Si Si5 0.566161 0.617339 0.806136
Si Si6 0.584022 0.725412 0.817467
O O1 0.757681 0.569373 0.755626
O O2 0.870961 0.629713 0.753944
O O3 0.755170 0.659103 0.732679
O O4 0.798360 0.619033 0.000000
O O5 0.671925 0.500000 0.250000
O O6 0.630822 0.409205 0.251082
O O7 0.688823 0.443050 0.000000
O O8 0.929423 0.335055 0.500000
O O9 0.926235 0.279817 0.245098
O O10 0.000000 0.355760 0.250000
O O11 0.250000 0.750000 0.159789
O O12 0.341376 0.715573 0.311754
O O13 0.318873 0.690500 0.000000
O O14 0.500000 0.593099 0.750000
O O15 0.563499 0.673660 0.740065
O O16 0.567803 0.619325 0.000000
O O17 0.559163 0.727378 0.000000
#
# Coordination Sequence:
#
# PCOD9497006 Si02
#       6
#    16  16  16  16  16  16
#     4  11  22  39  62  87 119 159 200 247 305 364
#     4  12  26  45  68  93 118 149 196 252 310 367
#     4  10  22  37  57  87 124 167 206 244 293 352
#     4  11  21  31  51  85 118 156 203 249 292 345
#     4  11  23  39  61  89 125 167 208 250 297 350
#     4  10  20  35  55  82 121 168 207 243 287 342
#
# _framework density 20.155189
#
# number of rings (size 3 to 8) (size 9 to 14) (size 15 to 20)
#    0.000    1.167    3.333    3.500    0.000    3.667 
#    0.000    1.667    0.000    0.500    0.000    3.500 
#    0.000    0.000    0.000    0.000    0.000    0.000 
#
# Total GULP energy -267534.599403 kJ/mol
# GULP energy per Si atom -5573.637488 kJ/mol
# Density = 2.010931 g / cm^3
# Si number density = 20.155189 Si / 1000 Ang^3
#
#
#
# Elastic Constant Matrix: (Units=GPa)
#
#
# Indices 1 2 3 4 5 6 
#
# 1 143.0134 41.7716 23.2754 0.0000 0.0000 0.0000
# 2 41.7716 67.2733 16.6494 0.0000 0.0000 0.0000
# 3 23.2754 16.6494 72.4813 0.0000 0.0000 0.0000
# 4 0.0000 0.0000 0.0000 26.0674 0.0000 0.0000
# 5 0.0000 0.0000 0.0000 0.0000 31.0477 0.0000
# 6 0.0000 0.0000 0.0000 0.0000 0.0000 4.4642
#
#
#
# Elastic Compliance Matrix: (Units=1/GPa)
#
#
# Indices 1 2 3 4 5 6 
#
# 1 0.008724 -0.005008 -0.001651 0.000000 0.000000 0.000000
# 2 -0.005008 0.018636 -0.002673 0.000000 0.000000 0.000000
# 3 -0.001651 -0.002673 0.014941 0.000000 0.000000 0.000000
# 4 0.000000 0.000000 0.000000 0.038362 0.000000 0.000000
# 5 0.000000 0.000000 0.000000 0.000000 0.032208 0.000000
# 6 0.000000 0.000000 0.000000 0.000000 0.000000 0.224004
#
#
# Mechanical properties :
#
#
# Convention : Reuss Voigt Hill
#
# Bulk Modulus (GPa) = 42.30665 49.57344 45.94004
# Shear Modulus (GPa) = 13.75828 25.72064 19.73946
#
# Velocity S-wave (km/s) = 2.61553 3.57617 3.13289
# Velocity P-wave (km/s) = 5.49157 6.45765 5.99411
#
# Compressibility (1/GPa) = 0.02363695
#
# Stress axis : x y z
#
# Youngs Moduli (GPa) = 114.62796 53.65982 66.93110
#
# Poissons Ratio (x) = 0.26874 0.11050
# Poissons Ratio (y) = 0.57409 0.17887
# Poissons Ratio (z) = 0.18925 0.14341
#
# Static dielectric constant tensor:
#      x y z
#    x 1.747200 0.000000 0.000000 
#    y 0.000000 1.641610 0.000000 
#    z 0.000000 0.000000 1.766380 
# 
# From -- ./inp_files/8014.got.cif
#   From: 2010.05.17/outbox.cif.g08.bks.cpg/sg66_5_cif.got.tgz:8014.got - 2010.06.03 17:51:23.
