data_PCOD9497377
_publ_section_title
;
Structure prediction by ZEFSAII (Michael W. Deem and Ramdas Pophale) SiO2 
 PCOD9497377
Probable space group: C C C M
;
_chemical_formula_sum "Si O2"
_cell_formula_units_Z 64
_cell_length_a 17.881117
_cell_length_b 19.738877
_cell_length_c 7.924428
_cell_angle_alpha 90.000000
_cell_angle_beta 90.000000
_cell_angle_gamma 90.000000
_cell_volume 2796.951976
_symmetry_space_group_name_H-M "C C C M"
_symmetry_group_IT_number 66
_symmetry_cell_setting 'orthorhombic'
loop_
_space_group_symop_operation_xyz
x,y,z
-x,-y,z
x,-y,1/2-z
-x,y,1/2-z
-x,-y,-z
x,y,-z
-x,y,1/2+z
x,-y,1/2+z
1/2+x,1/2+y,z
1/2-x,1/2-y,z
1/2+x,1/2-y,1/2-z
1/2-x,1/2+y,1/2-z
1/2-x,1/2-y,-z
1/2+x,1/2+y,-z
1/2-x,1/2+y,1/2+z
1/2+x,1/2-y,1/2+z
loop_
_atom_site_type_symbol
_atom_site_label
_atom_site_fract_x
_atom_site_fract_y
_atom_site_fract_z
Si Si1 0.188312 0.179146 0.307318
Si Si2 0.182181 0.579234 0.796875
Si Si3 0.414574 0.570812 0.301459
Si Si4 0.414046 0.200687 0.702828
O O1 0.211588 0.191106 0.500000
O O2 0.249844 0.127437 0.230328
O O3 0.116475 0.131942 0.304112
O O4 0.153420 0.248928 0.234152
O O5 0.182652 0.500000 0.750000
O O6 0.109213 0.623919 0.748639
O O7 0.187753 0.579580 0.000000
O O8 0.376764 0.500000 0.250000
O O9 0.500000 0.565747 0.250000
O O10 0.406345 0.581995 0.500000
O O11 0.500000 0.217054 0.750000
O O12 0.410387 0.206125 0.500000
#
# Coordination Sequence:
#
# PCOD9497377 Si02
#       4
#    16  16  16  16
#     4  10  20  37  60  85 115 150 191 240 295 353
#     4  10  22  40  62  88 119 157 199 244 296 353
#     4  11  21  33  50  76 112 153 196 239 287 345
#     4  10  22  40  62  88 119 157 199 244 296 353
#
# _framework density 22.882052999999999
#
# number of rings (size 3 to 8) (size 9 to 14) (size 15 to 20)
#    0.000    1.750    0.000    5.250    0.000   10.500 
#    0.000    2.500    0.000    4.500    0.000    0.000 
#    0.000    0.000    0.000    0.000    0.000    0.000 
#
# Total GULP energy -178304.673166 kJ/mol
# GULP energy per Si atom -5572.021036 kJ/mol
# Density = 2.282997 g / cm^3
# Si number density = 22.882053 Si / 1000 Ang^3
#
#
#
# Elastic Constant Matrix: (Units=GPa)
#
#
# Indices 1 2 3 4 5 6 
#
# 1 46.0328 46.7171 5.2807 0.0000 0.0000 0.0000
# 2 46.7171 208.9325 17.0930 0.0000 0.0000 0.0000
# 3 5.2807 17.0930 63.2240 0.0000 0.0000 0.0000
# 4 0.0000 0.0000 0.0000 17.4525 0.0000 0.0000
# 5 0.0000 0.0000 0.0000 0.0000 12.4512 0.0000
# 6 0.0000 0.0000 0.0000 0.0000 0.0000 18.6995
#
#
#
# Elastic Compliance Matrix: (Units=1/GPa)
#
#
# Indices 1 2 3 4 5 6 
#
# 1 0.028127 -0.006235 -0.000664 0.000000 0.000000 0.000000
# 2 -0.006235 0.006277 -0.001176 0.000000 0.000000 0.000000
# 3 -0.000664 -0.001176 0.016190 0.000000 0.000000 0.000000
# 4 0.000000 0.000000 0.000000 0.057299 0.000000 0.000000
# 5 0.000000 0.000000 0.000000 0.000000 0.080314 0.000000
# 6 0.000000 0.000000 0.000000 0.000000 0.000000 0.053477
#
#
# Mechanical properties :
#
#
# Convention : Reuss Voigt Hill
#
# Bulk Modulus (GPa) = 29.03208 50.70790 39.86999
# Shear Modulus (GPa) = 18.56563 26.32719 22.44641
#
# Velocity S-wave (km/s) = 2.85153 3.39567 3.13543
# Velocity P-wave (km/s) = 4.85354 6.13048 5.52900
#
# Compressibility (1/GPa) = 0.03444466
#
# Stress axis : x y z
#
# Youngs Moduli (GPa) = 35.55251 159.32219 61.76580
#
# Poissons Ratio (x) = 0.99337 0.04099
# Poissons Ratio (y) = 0.22167 0.07265
# Poissons Ratio (z) = 0.02359 0.18739
#
# Static dielectric constant tensor:
#      x y z
#    x 1.885870 0.000000 0.000000 
#    y 0.000000 1.917390 0.000000 
#    z 0.000000 0.000000 1.839630 
# 
# From -- ./inp_files/6176.got.cif
#   From: 2010.05.17/outbox.cif.g08.bks.cpg/sg66_4_cif.got.tgz:6176.got - 2010.06.03 17:51:23.
