data_PCOD9497794
_publ_section_title
;
Structure prediction by ZEFSAII (Michael W. Deem and Ramdas Pophale) SiO2 
 PCOD9497794
Probable space group: C C C M
;
_chemical_formula_sum "Si O2"
_cell_formula_units_Z 84
_cell_length_a 16.414486
_cell_length_b 9.911862
_cell_length_c 27.576062
_cell_angle_alpha 90.000000
_cell_angle_beta 90.000000
_cell_angle_gamma 90.000000
_cell_volume 4486.573445
_symmetry_space_group_name_H-M "C C C M"
_symmetry_group_IT_number 66
_symmetry_cell_setting 'orthorhombic'
loop_
_space_group_symop_operation_xyz
x,y,z
-x,-y,z
x,-y,1/2-z
-x,y,1/2-z
-x,-y,-z
x,y,-z
-x,y,1/2+z
x,-y,1/2+z
1/2+x,1/2+y,z
1/2-x,1/2-y,z
1/2+x,1/2-y,1/2-z
1/2-x,1/2+y,1/2-z
1/2-x,1/2-y,-z
1/2+x,1/2+y,-z
1/2-x,1/2+y,1/2+z
1/2+x,1/2-y,1/2+z
loop_
_atom_site_type_symbol
_atom_site_label
_atom_site_fract_x
_atom_site_fract_y
_atom_site_fract_z
Si Si1 0.169864 0.936997 0.301794
Si Si2 0.500000 0.000000 0.250000
Si Si3 0.654934 0.083937 0.897519
Si Si4 0.640071 0.879332 0.815011
Si Si5 0.078960 0.410064 0.500000
Si Si6 0.422185 0.593568 0.000000
Si Si7 0.349560 0.611691 0.893316
O O1 0.269811 0.937554 0.300916
O O2 0.148681 0.781416 0.312468
O O3 0.143978 0.000000 0.250000
O O4 0.131404 0.020771 0.346512
O O5 0.436810 0.085062 0.218048
O O6 0.623060 0.233631 0.883310
O O7 0.751824 0.100273 0.894796
O O8 0.625576 0.959178 0.865247
O O9 0.630520 0.061141 0.952481
O O10 0.057207 0.252114 0.500000
O O11 0.000000 0.500000 0.500000
O O12 0.500000 0.500000 0.000000
O O13 0.377979 0.571572 0.947730
#
# Coordination Sequence:
#
# PCOD9497794 Si02
#       7
#    16   4  16  16   8   8  16
#     4  10  21  40  62  89 117 160 204 247 292 365
#     4  12  24  40  58  90 120 162 190 256 304 350
#     4   9  19  37  61  87 110 152 203 244 293 357
#     4  10  23  38  61  86 122 155 202 244 302 360
#     4  10  21  35  55  83 117 152 188 243 296 360
#     4  10  21  39  57  85 119 156 196 244 307 357
#     4   9  19  37  64  84 112 152 202 251 292 350
#
# _framework density 18.722529000000002
#
# number of rings (size 3 to 8) (size 9 to 14) (size 15 to 20)
#    0.000    2.286    0.952    0.571    4.000    5.333 
#    3.429    0.476    0.000    5.714    0.000    0.000 
#    0.000    0.000    0.000    0.000    0.000    0.000 
#
# Total GULP energy -233821.029505 kJ/mol
# GULP energy per Si atom -5567.167369 kJ/mol
# Density = 1.867992 g / cm^3
# Si number density = 18.722529 Si / 1000 Ang^3
#
#
#
# Elastic Constant Matrix: (Units=GPa)
#
#
# Indices 1 2 3 4 5 6 
#
# 1 41.2511 33.1720 32.7189 0.0000 0.0000 0.0000
# 2 33.1720 103.1958 113.8505 0.0000 0.0000 0.0000
# 3 32.7189 113.8505 175.7417 0.0000 0.0000 0.0000
# 4 0.0000 0.0000 0.0000 146.6856 0.0000 0.0000
# 5 0.0000 0.0000 0.0000 0.0000 13.9352 0.0000
# 6 0.0000 0.0000 0.0000 0.0000 0.0000 23.2390
#
#
#
# Elastic Compliance Matrix: (Units=1/GPa)
#
#
# Indices 1 2 3 4 5 6 
#
# 1 0.033016 -0.013431 0.002554 0.000000 0.000000 0.000000
# 2 -0.013431 0.039430 -0.023044 0.000000 0.000000 0.000000
# 3 0.002554 -0.023044 0.020143 0.000000 0.000000 0.000000
# 4 0.000000 0.000000 0.000000 0.006817 0.000000 0.000000
# 5 0.000000 0.000000 0.000000 0.000000 0.071761 0.000000
# 6 0.000000 0.000000 0.000000 0.000000 0.000000 0.043031
#
#
# Mechanical properties :
#
#
# Convention : Reuss Voigt Hill
#
# Bulk Modulus (GPa) = 40.40562 75.51905 57.96234
# Shear Modulus (GPa) = 17.22417 46.13510 31.67964
#
# Velocity S-wave (km/s) = 3.03639 4.96940 4.11793
# Velocity P-wave (km/s) = 5.82418 8.56447 7.32363
#
# Compressibility (1/GPa) = 0.02474903
#
# Stress axis : x y z
#
# Youngs Moduli (GPa) = 30.28804 25.36110 49.64482
#
# Poissons Ratio (x) = 0.34061 -0.12678
# Poissons Ratio (y) = 0.40678 1.14400
# Poissons Ratio (z) = -0.07735 0.58441
#
# Static dielectric constant tensor:
#      x y z
#    x 1.641150 0.000000 0.000000 
#    y 0.000000 1.648850 0.000000 
#    z 0.000000 0.000000 1.683160 
# 
# From -- ./inp_files/65637.got.cif
#   From: 2010.05.17/outbox.cif.g08.bks.cpg/sg66_33_cif.got.tgz:65637.got - 2010.06.03 17:51:23.
