data_PCOD9497410
_publ_section_title
;
Structure prediction by ZEFSAII (Michael W. Deem and Ramdas Pophale) SiO2 
 PCOD9497410
Probable space group: C C C M
;
_chemical_formula_sum "Si O2"
_cell_formula_units_Z 68
_cell_length_a 23.465914
_cell_length_b 16.771597
_cell_length_c 7.918998
_cell_angle_alpha 90.000000
_cell_angle_beta 90.000000
_cell_angle_gamma 90.000000
_cell_volume 3116.607607
_symmetry_space_group_name_H-M "C C C M"
_symmetry_group_IT_number 66
_symmetry_cell_setting 'orthorhombic'
loop_
_space_group_symop_operation_xyz
x,y,z
-x,-y,z
x,-y,1/2-z
-x,y,1/2-z
-x,-y,-z
x,y,-z
-x,y,1/2+z
x,-y,1/2+z
1/2+x,1/2+y,z
1/2-x,1/2-y,z
1/2+x,1/2-y,1/2-z
1/2-x,1/2+y,1/2-z
1/2-x,1/2-y,-z
1/2+x,1/2+y,-z
1/2-x,1/2+y,1/2+z
1/2+x,1/2-y,1/2+z
loop_
_atom_site_type_symbol
_atom_site_label
_atom_site_fract_x
_atom_site_fract_y
_atom_site_fract_z
Si Si1 0.918797 0.630652 0.192730
Si Si2 0.000000 0.500000 0.750000
Si Si3 0.169454 0.092846 0.296458
Si Si4 0.705718 0.906857 0.297920
Si Si5 0.560470 0.691181 0.702306
O O1 0.851288 0.629904 0.223222
O O2 0.938398 0.720345 0.222194
O O3 0.952888 0.566899 0.306845
O O4 0.930871 0.605347 0.000000
O O5 0.169903 0.097774 0.500000
O O6 0.231993 0.122602 0.238799
O O7 0.115337 0.142450 0.235202
O O8 0.164067 0.000000 0.250000
O O9 0.702804 0.898123 0.500000
O O10 0.704021 0.000000 0.250000
O O11 0.500000 0.652824 0.750000
O O12 0.563940 0.697960 0.500000
#
# Coordination Sequence:
#
# PCOD9497410 Si02
#       5
#    16   4  16  16  16
#     4  12  25  40  62  91 124 164 206 248 301 362
#     4  12  26  40  64  90 128 160 204 232 302 352
#     4   9  21  41  65  91 121 161 202 251 308 365
#     4  10  20  37  61  89 122 159 204 252 302 358
#     4  11  24  42  62  89 125 160 203 254 308 363
#
# _framework density 21.818594999999998
#
# number of rings (size 3 to 8) (size 9 to 14) (size 15 to 20)
#    0.000    1.412    2.353    2.471    0.000    6.118 
#    0.000    7.059    0.000    0.000    0.000    0.000 
#    0.000    0.000    0.000    0.000    0.000    0.000 
#
# Total GULP energy -189712.795083 kJ/mol
# GULP energy per Si atom -5579.788091 kJ/mol
# Density = 2.176893 g / cm^3
# Si number density = 21.818595 Si / 1000 Ang^3
#
#
#
# Elastic Constant Matrix: (Units=GPa)
#
#
# Indices 1 2 3 4 5 6 
#
# 1 234.8612 63.2244 22.4003 0.0000 0.0000 0.0000
# 2 63.2244 60.7835 3.5200 0.0000 0.0000 0.0000
# 3 22.4003 3.5200 71.3880 0.0000 0.0000 0.0000
# 4 0.0000 0.0000 0.0000 -90.0158 0.0000 0.0000
# 5 0.0000 0.0000 0.0000 0.0000 26.3961 0.0000
# 6 0.0000 0.0000 0.0000 0.0000 0.0000 43.2014
#
#
#
# Elastic Compliance Matrix: (Units=1/GPa)
#
#
# Indices 1 2 3 4 5 6 
#
# 1 0.006091 -0.006243 -0.001604 0.000000 0.000000 0.000000
# 2 -0.006243 0.022898 0.000830 0.000000 0.000000 0.000000
# 3 -0.001604 0.000830 0.014470 0.000000 0.000000 0.000000
# 4 0.000000 0.000000 0.000000 -0.011109 0.000000 0.000000
# 5 0.000000 0.000000 0.000000 0.000000 0.037884 0.000000
# 6 0.000000 0.000000 0.000000 0.000000 0.000000 0.023147
#
#
# Mechanical properties :
#
#
# Convention : Reuss Voigt Hill
#
# Bulk Modulus (GPa) = 33.98383 60.59134 47.28759
# Shear Modulus (GPa) = 42.65337 14.44220 28.54779
#
# Velocity S-wave (km/s) = 4.42623 2.57558 3.62113
# Velocity P-wave (km/s) = 6.45999 6.05604 6.26127
#
# Compressibility (1/GPa) = 0.02942576
#
# Stress axis : x y z
#
# Youngs Moduli (GPa) = 164.16485 43.67254 69.10752
#
# Poissons Ratio (x) = 0.27266 0.11082
# Poissons Ratio (y) = 1.02491 -0.05736
# Poissons Ratio (z) = 0.26325 -0.03625
#
# Static dielectric constant tensor:
#      x y z
#    x 1.843150 0.000000 0.000000 
#    y 0.000000 1.722020 0.000000 
#    z 0.000000 0.000000 1.851780 
# 
# From -- ./inp_files/6255.got.cif
#   From: 2010.05.17/outbox.cif.g08.bks.cpg/sg66_4_cif.got.tgz:6255.got - 2010.06.03 17:51:23.
