data_PCOD9497198
_publ_section_title
;
Structure prediction by ZEFSAII (Michael W. Deem and Ramdas Pophale) SiO2 
 PCOD9497198
Probable space group: C C C M
;
_chemical_formula_sum "Si O2"
_cell_formula_units_Z 116
_cell_length_a 17.484415
_cell_length_b 25.071703
_cell_length_c 13.947733
_cell_angle_alpha 90.000000
_cell_angle_beta 90.000000
_cell_angle_gamma 90.000000
_cell_volume 6114.184866
_symmetry_space_group_name_H-M "C C C M"
_symmetry_group_IT_number 66
_symmetry_cell_setting 'orthorhombic'
loop_
_space_group_symop_operation_xyz
x,y,z
-x,-y,z
x,-y,1/2-z
-x,y,1/2-z
-x,-y,-z
x,y,-z
-x,y,1/2+z
x,-y,1/2+z
1/2+x,1/2+y,z
1/2-x,1/2-y,z
1/2+x,1/2-y,1/2-z
1/2-x,1/2+y,1/2-z
1/2-x,1/2-y,-z
1/2+x,1/2+y,-z
1/2-x,1/2+y,1/2+z
1/2+x,1/2-y,1/2+z
loop_
_atom_site_type_symbol
_atom_site_label
_atom_site_fract_x
_atom_site_fract_y
_atom_site_fract_z
Si Si1 0.673927 0.228662 0.229698
Si Si2 0.955027 0.197841 0.848303
Si Si3 0.523897 0.087573 0.389768
Si Si4 0.444437 0.203125 0.104281
Si Si5 0.000000 0.000000 0.750000
Si Si6 0.091740 0.917737 0.889992
Si Si7 0.741624 0.870814 0.614508
Si Si8 0.121738 0.443252 0.718813
O O1 0.750000 0.250000 0.281763
O O2 0.627397 0.274863 0.172960
O O3 0.613676 0.207216 0.307512
O O4 0.709806 0.184133 0.160058
O O5 0.951382 0.139540 0.893366
O O6 0.000000 0.189262 0.750000
O O7 0.003853 0.244399 0.897260
O O8 0.538385 0.073615 0.500000
O O9 0.503083 0.150527 0.384336
O O10 0.455575 0.053797 0.344329
O O11 0.595821 0.083081 0.319093
O O12 0.405819 0.197130 0.000000
O O13 0.051679 0.039455 0.681567
O O14 0.176045 0.896626 0.857985
O O15 0.095917 0.938650 0.000000
O O16 0.742336 0.865433 0.500000
O O17 0.680453 0.912373 0.654182
O O18 0.152102 0.500000 0.750000
#
# Coordination Sequence:
#
# PCOD9497198 Si02
#       8
#    16  16  16  16   4  16  16  16
#     4  11  21  37  63  92 128 159 195 245 316 370
#     4  10  20  36  60  94 126 162 200 246 303 369
#     4  10  20  36  58  86 120 163 209 250 294 353
#     4  10  21  36  60  90 126 166 201 241 297 374
#     4  12  26  48  72  90 128 158 206 268 310 362
#     4  11  24  43  69  95 120 158 206 258 318 369
#     4  11  24  41  61  91 125 159 203 255 313 371
#     4  11  23  37  57  83 117 162 208 255 304 349
#
# _framework density 18.972276000000001
#
# number of rings (size 3 to 8) (size 9 to 14) (size 15 to 20)
#    0.000    1.379    3.448    2.690    4.828    4.414 
#    0.000    0.000    0.000    1.655    0.000    0.000 
#    0.000    0.000    0.000    0.000    0.000    0.000 
#
# Total GULP energy -323149.648126 kJ/mol
# GULP energy per Si atom -5571.545657 kJ/mol
# Density = 1.892909 g / cm^3
# Si number density = 18.972276 Si / 1000 Ang^3
#
#
#
# Elastic Constant Matrix: (Units=GPa)
#
#
# Indices 1 2 3 4 5 6 
#
# 1 94.1058 30.5922 34.3931 0.0000 0.0000 0.0000
# 2 30.5922 79.9428 20.5540 0.0000 0.0000 0.0000
# 3 34.3931 20.5540 97.3024 0.0000 0.0000 0.0000
# 4 0.0000 0.0000 0.0000 74.8965 0.0000 0.0000
# 5 0.0000 0.0000 0.0000 0.0000 13.0468 0.0000
# 6 0.0000 0.0000 0.0000 0.0000 0.0000 23.8341
#
#
#
# Elastic Compliance Matrix: (Units=1/GPa)
#
#
# Indices 1 2 3 4 5 6 
#
# 1 0.013378 -0.004128 -0.003857 0.000000 0.000000 0.000000
# 2 -0.004128 0.014501 -0.001604 0.000000 0.000000 0.000000
# 3 -0.003857 -0.001604 0.011979 0.000000 0.000000 0.000000
# 4 0.000000 0.000000 0.000000 0.013352 0.000000 0.000000
# 5 0.000000 0.000000 0.000000 0.000000 0.076647 0.000000
# 6 0.000000 0.000000 0.000000 0.000000 0.000000 0.041957
#
#
# Mechanical properties :
#
#
# Convention : Reuss Voigt Hill
#
# Bulk Modulus (GPa) = 48.35377 49.15886 48.75631
# Shear Modulus (GPa) = 25.26731 34.74292 30.00512
#
# Velocity S-wave (km/s) = 3.65335 4.28395 3.98115
# Velocity P-wave (km/s) = 6.58314 7.10189 6.84743
#
# Compressibility (1/GPa) = 0.02068091
#
# Stress axis : x y z
#
# Youngs Moduli (GPa) = 74.75134 68.96083 83.47754
#
# Poissons Ratio (x) = 0.28465 0.32194
# Poissons Ratio (y) = 0.30856 0.13391
# Poissons Ratio (z) = 0.28829 0.11062
#
# Static dielectric constant tensor:
#      x y z
#    x 1.670070 0.000000 0.000000 
#    y 0.000000 1.857930 0.000000 
#    z 0.000000 0.000000 1.675870 
# 
# From -- ./inp_files/30385.got.cif
#   From: 2010.05.17/outbox.cif.g08.bks.cpg/sg66_16_cif.got.tgz:30385.got - 2010.06.03 17:51:23.
