data_PCOD9497021
_publ_section_title
;
Structure prediction by ZEFSAII (Michael W. Deem and Ramdas Pophale) SiO2 
 PCOD9497021
Probable space group: C C C M
;
_chemical_formula_sum "Si O2"
_cell_formula_units_Z 116
_cell_length_a 29.856578
_cell_length_b 25.126548
_cell_length_c 7.921002
_cell_angle_alpha 90.000000
_cell_angle_beta 90.000000
_cell_angle_gamma 90.000000
_cell_volume 5942.278196
_symmetry_space_group_name_H-M "C C C M"
_symmetry_group_IT_number 66
_symmetry_cell_setting 'orthorhombic'
loop_
_space_group_symop_operation_xyz
x,y,z
-x,-y,z
x,-y,1/2-z
-x,y,1/2-z
-x,-y,-z
x,y,-z
-x,y,1/2+z
x,-y,1/2+z
1/2+x,1/2+y,z
1/2-x,1/2-y,z
1/2+x,1/2-y,1/2-z
1/2-x,1/2+y,1/2-z
1/2-x,1/2-y,-z
1/2+x,1/2+y,-z
1/2-x,1/2+y,1/2+z
1/2+x,1/2-y,1/2+z
loop_
_atom_site_type_symbol
_atom_site_label
_atom_site_fract_x
_atom_site_fract_y
_atom_site_fract_z
Si Si1 0.750000 0.250000 0.000000
Si Si2 0.617821 0.151995 0.700441
Si Si3 0.221311 0.335157 0.202716
Si Si4 0.549503 0.761210 0.795994
Si Si5 0.773621 0.940104 0.703450
Si Si6 0.949646 0.438408 0.801159
Si Si7 0.548939 0.359112 0.300296
Si Si8 0.624130 0.558403 0.300376
O O1 0.758580 0.295373 0.154442
O O2 0.619252 0.158896 0.500000
O O3 0.669214 0.155709 0.753408
O O4 0.587754 0.200150 0.771707
O O5 0.589930 0.098389 0.732189
O O6 0.245593 0.392199 0.218332
O O7 0.223842 0.318569 0.000000
O O8 0.500000 0.780854 0.750000
O O9 0.553804 0.700829 0.729692
O O10 0.552241 0.760051 0.000000
O O11 0.772457 0.935249 0.500000
O O12 0.825266 0.935043 0.766260
O O13 0.758539 0.000000 0.750000
O O14 0.944662 0.500000 0.750000
O O15 0.000000 0.421032 0.750000
O O16 0.947515 0.435102 0.000000
O O17 0.500000 0.380165 0.250000
O O18 0.548903 0.354389 0.500000
O O19 0.589516 0.396686 0.251704
O O20 0.607507 0.500000 0.250000
O O21 0.627823 0.559761 0.500000
#
# Coordination Sequence:
#
# PCOD9497021 Si02
#       8
#     4  16  16  16  16  16  16  16
#     4  12  26  48  68  94 140 166 234 264 348 422
#     4  10  22  40  61  91 125 161 213 264 321 383
#     4  11  25  45  70  98 134 179 220 282 343 403
#     4   9  19  36  56  83 117 158 202 247 298 359
#     4  10  21  41  67  97 130 166 216 273 328 397
#     4  11  22  37  60  89 128 174 217 268 325 388
#     4  10  20  35  56  82 116 154 196 245 297 362
#     4  10  21  37  59  88 119 154 197 249 306 369
#
# _framework density 19.521132999999999
#
# number of rings (size 3 to 8) (size 9 to 14) (size 15 to 20)
#    0.000    1.793    0.690    3.517    0.966    5.793 
#    0.000    2.759    0.000    0.000    0.000    0.000 
#    0.000    0.000    0.000    0.000    0.000    0.000 
#
# Total GULP energy -323058.754446 kJ/mol
# GULP energy per Si atom -5569.978525 kJ/mol
# Density = 1.947670 g / cm^3
# Si number density = 19.521133 Si / 1000 Ang^3
#
#
#
# Elastic Constant Matrix: (Units=GPa)
#
#
# Indices 1 2 3 4 5 6 
#
# 1 95.0522 82.2781 20.9759 0.0000 0.0000 0.0000
# 2 82.2781 124.7811 23.6590 0.0000 0.0000 0.0000
# 3 20.9759 23.6590 66.6891 0.0000 0.0000 0.0000
# 4 0.0000 0.0000 0.0000 26.2086 0.0000 0.0000
# 5 0.0000 0.0000 0.0000 0.0000 23.5619 0.0000
# 6 0.0000 0.0000 0.0000 0.0000 0.0000 52.5690
#
#
#
# Elastic Compliance Matrix: (Units=1/GPa)
#
#
# Indices 1 2 3 4 5 6 
#
# 1 0.024792 -0.015941 -0.002143 0.000000 0.000000 0.000000
# 2 -0.015941 0.018842 -0.001670 0.000000 0.000000 0.000000
# 3 -0.002143 -0.001670 0.016261 0.000000 0.000000 0.000000
# 4 0.000000 0.000000 0.000000 0.038155 0.000000 0.000000
# 5 0.000000 0.000000 0.000000 0.000000 0.042441 0.000000
# 6 0.000000 0.000000 0.000000 0.000000 0.000000 0.019023
#
#
# Mechanical properties :
#
#
# Convention : Reuss Voigt Hill
#
# Bulk Modulus (GPa) = 49.05032 60.03872 54.54452
# Shear Modulus (GPa) = 24.29310 31.10853 27.70081
#
# Velocity S-wave (km/s) = 3.53150 3.99630 3.77107
# Velocity P-wave (km/s) = 6.46607 7.21917 6.85297
#
# Compressibility (1/GPa) = 0.02038723
#
# Stress axis : x y z
#
# Youngs Moduli (GPa) = 40.33512 53.07252 61.49500
#
# Poissons Ratio (x) = 0.84605 0.13176
# Poissons Ratio (y) = 0.64299 0.10273
# Poissons Ratio (z) = 0.08642 0.08866
#
# Static dielectric constant tensor:
#      x y z
#    x 1.683230 0.000000 0.000000 
#    y 0.000000 1.661340 0.000000 
#    z 0.000000 0.000000 1.702210 
# 
# From -- ./inp_files/9461.got.cif
#   From: 2010.05.17/outbox.cif.g08.bks.cpg/sg66_5_cif.got.tgz:9461.got - 2010.06.03 17:51:23.
