data_PCOD9497522
_publ_section_title
;
Structure prediction by ZEFSAII (Michael W. Deem and Ramdas Pophale) SiO2 
 PCOD9497522
Probable space group: C C C M
;
_chemical_formula_sum "Si O2"
_cell_formula_units_Z 56
_cell_length_a 32.850470
_cell_length_b 5.057769
_cell_length_c 15.474414
_cell_angle_alpha 90.000000
_cell_angle_beta 90.000000
_cell_angle_gamma 90.000000
_cell_volume 2571.075260
_symmetry_space_group_name_H-M "C C C M"
_symmetry_group_IT_number 66
_symmetry_cell_setting 'orthorhombic'
loop_
_space_group_symop_operation_xyz
x,y,z
-x,-y,z
x,-y,1/2-z
-x,y,1/2-z
-x,-y,-z
x,y,-z
-x,y,1/2+z
x,-y,1/2+z
1/2+x,1/2+y,z
1/2-x,1/2-y,z
1/2+x,1/2-y,1/2-z
1/2-x,1/2+y,1/2-z
1/2-x,1/2-y,-z
1/2+x,1/2+y,-z
1/2-x,1/2+y,1/2+z
1/2+x,1/2-y,1/2+z
loop_
_atom_site_type_symbol
_atom_site_label
_atom_site_fract_x
_atom_site_fract_y
_atom_site_fract_z
Si Si1 0.250000 0.250000 0.812524
Si Si2 0.336828 0.391605 0.152682
Si Si3 0.473254 0.737993 0.897308
Si Si4 0.385095 0.115258 0.599012
O O1 0.240655 0.500000 0.750000
O O2 0.290215 0.315946 0.866893
O O3 0.336244 0.500000 0.250000
O O4 0.355589 0.632387 0.099479
O O5 0.364461 0.132240 0.145290
O O6 0.500000 0.500000 0.860196
O O7 0.428222 0.791499 0.861897
O O8 0.500000 0.000000 0.890536
O O9 0.467001 0.677611 0.000000
O O10 0.392470 0.027526 0.500000
#
# Coordination Sequence:
#
# PCOD9497522 Si02
#       4
#     8  16  16  16
#     4  10  20  38  61  84 109 150 204 240 270 346
#     4  11  22  39  61  85 114 155 198 237 287 350
#     4   9  17  31  53  80 111 150 192 229 269 330
#     4  11  22  37  59  90 122 149 191 247 295 337
#
# _framework density 21.78077
#
# number of rings (size 3 to 8) (size 9 to 14) (size 15 to 20)
#    0.000    1.714    0.000    6.857    0.000    4.571 
#    0.000    4.286    0.000   12.857    0.000    0.000 
#    0.000    0.000    0.000    0.000    0.000    0.286 
#
# Total GULP energy -156500.903293 kJ/mol
# GULP energy per Si atom -5589.317975 kJ/mol
# Density = 2.173120 g / cm^3
# Si number density = 21.780770 Si / 1000 Ang^3
#
#
#
# Elastic Constant Matrix: (Units=GPa)
#
#
# Indices 1 2 3 4 5 6 
#
# 1 176.4219 59.0530 22.9868 0.0000 0.0000 0.0000
# 2 59.0530 127.5708 9.2680 0.0000 0.0000 0.0000
# 3 22.9868 9.2680 27.0553 0.0000 0.0000 0.0000
# 4 0.0000 0.0000 0.0000 -19.7436 0.0000 0.0000
# 5 0.0000 0.0000 0.0000 0.0000 17.9604 0.0000
# 6 0.0000 0.0000 0.0000 0.0000 0.0000 31.7509
#
#
#
# Elastic Compliance Matrix: (Units=1/GPa)
#
#
# Indices 1 2 3 4 5 6 
#
# 1 0.007362 -0.003029 -0.005217 0.000000 0.000000 0.000000
# 2 -0.003029 0.009285 -0.000607 0.000000 0.000000 0.000000
# 3 -0.005217 -0.000607 0.041602 0.000000 0.000000 0.000000
# 4 0.000000 0.000000 0.000000 -0.050649 0.000000 0.000000
# 5 0.000000 0.000000 0.000000 0.000000 0.055678 0.000000
# 6 0.000000 0.000000 0.000000 0.000000 0.000000 0.031495
#
#
# Mechanical properties :
#
#
# Convention : Reuss Voigt Hill
#
# Bulk Modulus (GPa) = 24.66571 57.07374 40.86972
# Shear Modulus (GPa) = 39.68468 21.97623 30.83045
#
# Velocity S-wave (km/s) = 4.27313 3.17988 3.76638
# Velocity P-wave (km/s) = 5.97455 6.30419 6.14158
#
# Compressibility (1/GPa) = 0.04054212
#
# Stress axis : x y z
#
# Youngs Moduli (GPa) = 135.83600 107.70129 24.03733
#
# Poissons Ratio (x) = 0.32620 0.12541
# Poissons Ratio (y) = 0.41142 0.01460
# Poissons Ratio (z) = 0.70869 0.06541
#
# Static dielectric constant tensor:
#      x y z
#    x 1.822370 0.000000 0.000000 
#    y 0.000000 1.754550 0.000000 
#    z 0.000000 0.000000 1.824480 
# 
# From -- ./inp_files/33541.got.cif
#   From: 2010.05.17/outbox.cif.g08.bks.cpg/sg66_17_cif.got.tgz:33541.got - 2010.06.03 17:51:23.
