data_PCOD9497281
_publ_section_title
;
Structure prediction by ZEFSAII (Michael W. Deem and Ramdas Pophale) SiO2 
 PCOD9497281
Probable space group: C C C M
;
_chemical_formula_sum "Si O2"
_cell_formula_units_Z 96
_cell_length_a 20.094876
_cell_length_b 15.509053
_cell_length_c 14.513817
_cell_angle_alpha 90.000000
_cell_angle_beta 90.000000
_cell_angle_gamma 90.000000
_cell_volume 4523.267308
_symmetry_space_group_name_H-M "C C C M"
_symmetry_group_IT_number 66
_symmetry_cell_setting 'orthorhombic'
loop_
_space_group_symop_operation_xyz
x,y,z
-x,-y,z
x,-y,1/2-z
-x,y,1/2-z
-x,-y,-z
x,y,-z
-x,y,1/2+z
x,-y,1/2+z
1/2+x,1/2+y,z
1/2-x,1/2-y,z
1/2+x,1/2-y,1/2-z
1/2-x,1/2+y,1/2-z
1/2-x,1/2-y,-z
1/2+x,1/2+y,-z
1/2-x,1/2+y,1/2+z
1/2+x,1/2-y,1/2+z
loop_
_atom_site_type_symbol
_atom_site_label
_atom_site_fract_x
_atom_site_fract_y
_atom_site_fract_z
Si Si1 0.793941 0.822903 0.726758
Si Si2 0.918239 0.765049 0.388042
Si Si3 0.306123 0.963005 0.850107
Si Si4 0.544501 0.078998 0.894762
Si Si5 0.682256 0.566448 0.901239
Si Si6 0.937474 0.956361 0.350891
O O1 0.750000 0.750000 0.774541
O O2 0.846444 0.776398 0.660289
O O3 0.743182 0.882614 0.668979
O O4 0.827254 0.878073 0.808509
O O5 0.912800 0.763502 0.500000
O O6 0.954627 0.677029 0.356292
O O7 0.950531 0.854944 0.356150
O O8 0.376795 0.943935 0.895172
O O9 0.323290 0.000000 0.750000
O O10 0.257788 0.032181 0.897369
O O11 0.500000 0.000000 0.855338
O O12 0.520489 0.088221 0.000000
O O13 0.632388 0.484866 0.894457
O O14 0.669784 0.609887 0.000000
O O15 0.934749 0.000000 0.250000
O O16 0.000000 0.000000 0.398736
#
# Coordination Sequence:
#
# PCOD9497281 Si02
#       6
#    16  16  16  16  16  16
#     4  11  21  38  61  94 133 161 220 279 325 390
#     4  11  22  38  64  96 129 171 218 270 332 391
#     4  10  20  36  61  91 123 167 213 268 327 383
#     4  10  22  40  62  93 131 169 220 274 322 389
#     4  11  22  38  62  90 128 172 214 264 331 399
#     4  11  22  40  64  95 132 171 209 265 331 399
#
# _framework density 21.223597000000002
#
# number of rings (size 3 to 8) (size 9 to 14) (size 15 to 20)
#    0.000    1.333    5.000    1.500    0.000    3.000 
#    0.000    6.667    0.000    4.000    0.000    0.000 
#    0.000    0.667    0.000    0.000    0.000    0.000 
#
# Total GULP energy -267453.472399 kJ/mol
# GULP energy per Si atom -5571.947342 kJ/mol
# Density = 2.117529 g / cm^3
# Si number density = 21.223597 Si / 1000 Ang^3
#
#
#
# Elastic Constant Matrix: (Units=GPa)
#
#
# Indices 1 2 3 4 5 6 
#
# 1 84.7517 54.2465 15.8264 0.0000 0.0000 0.0000
# 2 54.2465 164.6559 34.5686 0.0000 0.0000 0.0000
# 3 15.8264 34.5686 104.1757 0.0000 0.0000 0.0000
# 4 0.0000 0.0000 0.0000 19.7986 0.0000 0.0000
# 5 0.0000 0.0000 0.0000 0.0000 29.7029 0.0000
# 6 0.0000 0.0000 0.0000 0.0000 0.0000 47.9226
#
#
#
# Elastic Compliance Matrix: (Units=1/GPa)
#
#
# Indices 1 2 3 4 5 6 
#
# 1 0.014998 -0.004797 -0.000687 0.000000 0.000000 0.000000
# 2 -0.004797 0.008062 -0.001947 0.000000 0.000000 0.000000
# 3 -0.000687 -0.001947 0.010349 0.000000 0.000000 0.000000
# 4 0.000000 0.000000 0.000000 0.050509 0.000000 0.000000
# 5 0.000000 0.000000 0.000000 0.000000 0.033667 0.000000
# 6 0.000000 0.000000 0.000000 0.000000 0.000000 0.020867
#
#
# Mechanical properties :
#
#
# Convention : Reuss Voigt Hill
#
# Bulk Modulus (GPa) = 53.91090 62.54071 58.22581
# Shear Modulus (GPa) = 31.34891 36.08095 33.71493
#
# Velocity S-wave (km/s) = 3.84745 4.12763 3.99000
# Velocity P-wave (km/s) = 6.72262 7.22827 6.98003
#
# Compressibility (1/GPa) = 0.01854912
#
# Stress axis : x y z
#
# Youngs Moduli (GPa) = 66.67675 124.03413 96.62378
#
# Poissons Ratio (x) = 0.59498 0.06635
# Poissons Ratio (y) = 0.31984 0.18808
# Poissons Ratio (z) = 0.04579 0.24144
#
# Static dielectric constant tensor:
#      x y z
#    x 1.785520 0.000000 0.000000 
#    y 0.000000 1.812550 0.000000 
#    z 0.000000 0.000000 1.908130 
# 
# From -- ./inp_files/31211.got.cif
#   From: 2010.05.17/outbox.cif.g08.bks.cpg/sg66_16_cif.got.tgz:31211.got - 2010.06.03 17:51:23.
