data_PCOD9497361
_publ_section_title
;
Structure prediction by ZEFSAII (Michael W. Deem and Ramdas Pophale) SiO2 
 PCOD9497361
Probable space group: C C C M
;
_chemical_formula_sum "Si O2"
_cell_formula_units_Z 80
_cell_length_a 11.119185
_cell_length_b 26.568030
_cell_length_c 13.903519
_cell_angle_alpha 90.000000
_cell_angle_beta 90.000000
_cell_angle_gamma 90.000000
_cell_volume 4107.305850
_symmetry_space_group_name_H-M "C C C M"
_symmetry_group_IT_number 66
_symmetry_cell_setting 'orthorhombic'
loop_
_space_group_symop_operation_xyz
x,y,z
-x,-y,z
x,-y,1/2-z
-x,y,1/2-z
-x,-y,-z
x,y,-z
-x,y,1/2+z
x,-y,1/2+z
1/2+x,1/2+y,z
1/2-x,1/2-y,z
1/2+x,1/2-y,1/2-z
1/2-x,1/2+y,1/2-z
1/2-x,1/2-y,-z
1/2+x,1/2+y,-z
1/2-x,1/2+y,1/2+z
1/2+x,1/2-y,1/2+z
loop_
_atom_site_type_symbol
_atom_site_label
_atom_site_fract_x
_atom_site_fract_y
_atom_site_fract_z
Si Si1 0.693878 0.304697 0.781856
Si Si2 0.969938 0.160388 0.610410
Si Si3 0.046732 0.557102 0.608000
Si Si4 0.313570 0.909431 0.207192
Si Si5 0.930956 0.948469 0.384850
O O1 0.750000 0.250000 0.787561
O O2 0.620008 0.313198 0.683463
O O3 0.599883 0.315447 0.867743
O O4 0.785972 0.350688 0.782802
O O5 0.935364 0.165641 0.500000
O O6 0.986102 0.100815 0.633412
O O7 0.090498 0.567383 0.500000
O O8 0.143109 0.567978 0.690896
O O9 0.000000 0.500000 0.613522
O O10 0.925417 0.586595 0.634616
O O11 0.195310 0.938204 0.168356
O O12 0.907160 0.949510 0.500000
O O13 0.000000 0.000000 0.360062
#
# Coordination Sequence:
#
# PCOD9497361 Si02
#       5
#    16  16  16  16  16
#     4  10  22  39  57  80 110 144 187 238 282 326
#     4   9  20  38  57  83 115 143 179 228 281 337
#     4  10  22  38  56  83 117 151 189 231 275 333
#     4  10  20  37  59  82 112 151 190 231 282 336
#     4   9  18  34  60  91 119 148 182 225 282 348
#
# _framework density 19.477488000000001
#
# number of rings (size 3 to 8) (size 9 to 14) (size 15 to 20)
#    0.000    2.400    0.000    1.800    0.000    8.800 
#    0.000   13.000    0.000    0.600    0.000    0.000 
#    0.000    0.000    0.000    0.000    0.000    0.000 
#
# Total GULP energy -223440.930360 kJ/mol
# GULP energy per Si atom -5586.023259 kJ/mol
# Density = 1.943316 g / cm^3
# Si number density = 19.477488 Si / 1000 Ang^3
#
#
#
# Elastic Constant Matrix: (Units=GPa)
#
#
# Indices 1 2 3 4 5 6 
#
# 1 58.4236 56.9101 16.2093 0.0000 0.0000 0.0000
# 2 56.9101 153.2903 36.8228 0.0000 0.0000 0.0000
# 3 16.2093 36.8228 82.9720 0.0000 0.0000 0.0000
# 4 0.0000 0.0000 0.0000 18.2714 0.0000 0.0000
# 5 0.0000 0.0000 0.0000 0.0000 122.7998 0.0000
# 6 0.0000 0.0000 0.0000 0.0000 0.0000 20.1858
#
#
#
# Elastic Compliance Matrix: (Units=1/GPa)
#
#
# Indices 1 2 3 4 5 6 
#
# 1 0.026876 -0.009757 -0.000920 0.000000 0.000000 0.000000
# 2 -0.009757 0.010844 -0.002906 0.000000 0.000000 0.000000
# 3 -0.000920 -0.002906 0.013522 0.000000 0.000000 0.000000
# 4 0.000000 0.000000 0.000000 0.054730 0.000000 0.000000
# 5 0.000000 0.000000 0.000000 0.000000 0.008143 0.000000
# 6 0.000000 0.000000 0.000000 0.000000 0.000000 0.049540
#
#
# Mechanical properties :
#
#
# Convention : Reuss Voigt Hill
#
# Bulk Modulus (GPa) = 41.53775 57.17448 49.35612
# Shear Modulus (GPa) = 25.14493 44.56764 34.85628
#
# Velocity S-wave (km/s) = 3.59691 4.78866 4.23492
# Velocity P-wave (km/s) = 6.21471 7.74551 7.02195
#
# Compressibility (1/GPa) = 0.02407449
#
# Stress axis : x y z
#
# Youngs Moduli (GPa) = 37.20835 92.21688 73.95381
#
# Poissons Ratio (x) = 0.89973 0.06807
# Poissons Ratio (y) = 0.36303 0.21495
# Poissons Ratio (z) = 0.03425 0.26803
#
# Static dielectric constant tensor:
#      x y z
#    x 1.683220 0.000000 0.000000 
#    y 0.000000 1.632710 0.000000 
#    z 0.000000 0.000000 1.701840 
# 
# From -- ./inp_files/26399.got.cif
#   From: 2010.05.17/outbox.cif.g08.bks.cpg/sg66_14_cif.got.tgz:26399.got - 2010.06.03 17:51:23.
