data_PCOD9497476
_publ_section_title
;
Structure prediction by ZEFSAII (Michael W. Deem and Ramdas Pophale) SiO2 
 PCOD9497476
Probable space group: C C C M
;
_chemical_formula_sum "Si O2"
_cell_formula_units_Z 64
_cell_length_a 10.019456
_cell_length_b 11.201804
_cell_length_c 25.785067
_cell_angle_alpha 90.000000
_cell_angle_beta 90.000000
_cell_angle_gamma 90.000000
_cell_volume 2894.012323
_symmetry_space_group_name_H-M "C C C M"
_symmetry_group_IT_number 66
_symmetry_cell_setting 'orthorhombic'
loop_
_space_group_symop_operation_xyz
x,y,z
-x,-y,z
x,-y,1/2-z
-x,y,1/2-z
-x,-y,-z
x,y,-z
-x,y,1/2+z
x,-y,1/2+z
1/2+x,1/2+y,z
1/2-x,1/2-y,z
1/2+x,1/2-y,1/2-z
1/2-x,1/2+y,1/2-z
1/2-x,1/2-y,-z
1/2+x,1/2+y,-z
1/2-x,1/2+y,1/2+z
1/2+x,1/2-y,1/2+z
loop_
_atom_site_type_symbol
_atom_site_label
_atom_site_fract_x
_atom_site_fract_y
_atom_site_fract_z
Si Si1 0.161403 0.099281 0.391211
Si Si2 0.847498 0.863936 0.268850
Si Si3 0.769241 0.609240 0.940488
Si Si4 0.056647 0.677264 0.938244
O O1 0.147537 0.127203 0.331146
O O2 0.063702 0.182907 0.424102
O O3 0.310819 0.130664 0.410833
O O4 0.166331 0.959825 0.404152
O O5 0.750000 0.750000 0.255103
O O6 0.000000 0.842608 0.250000
O O7 0.807808 0.000000 0.250000
O O8 0.750000 0.750000 0.942993
O O9 0.923015 0.609319 0.922036
O O10 0.757924 0.563218 0.000000
O O11 0.065426 0.665486 0.000000
#
# Coordination Sequence:
#
# PCOD9497476 Si02
#       4
#    16  16  16  16
#     4  11  21  41  66  91 128 176 226 277 351 411
#     4  11  27  51  74 103 140 184 249 316 372 429
#     4  10  22  37  59 100 143 178 216 268 342 427
#     4  10  20  37  67 100 134 172 220 271 334 430
#
# _framework density 22.114626000000001
#
# number of rings (size 3 to 8) (size 9 to 14) (size 15 to 20)
#    0.000    1.500    2.500    3.750    0.000   10.500 
#    4.500    3.750    0.000    0.000    0.000    0.000 
#    0.000    0.000    0.000    0.000    0.000    0.000 
#
# Total GULP energy -178563.446232 kJ/mol
# GULP energy per Si atom -5580.107695 kJ/mol
# Density = 2.206429 g / cm^3
# Si number density = 22.114626 Si / 1000 Ang^3
#
#
#
# Elastic Constant Matrix: (Units=GPa)
#
#
# Indices 1 2 3 4 5 6 
#
# 1 91.8642 60.0453 23.8006 0.0000 0.0000 0.0000
# 2 60.0453 161.4369 26.4874 0.0000 0.0000 0.0000
# 3 23.8006 26.4874 79.0012 0.0000 0.0000 0.0000
# 4 0.0000 0.0000 0.0000 10.1051 0.0000 0.0000
# 5 0.0000 0.0000 0.0000 0.0000 35.3783 0.0000
# 6 0.0000 0.0000 0.0000 0.0000 0.0000 47.2257
#
#
#
# Elastic Compliance Matrix: (Units=1/GPa)
#
#
# Indices 1 2 3 4 5 6 
#
# 1 0.014942 -0.005100 -0.002792 0.000000 0.000000 0.000000
# 2 -0.005100 0.008295 -0.001245 0.000000 0.000000 0.000000
# 3 -0.002792 -0.001245 0.013917 0.000000 0.000000 0.000000
# 4 0.000000 0.000000 0.000000 0.098960 0.000000 0.000000
# 5 0.000000 0.000000 0.000000 0.000000 0.028266 0.000000
# 6 0.000000 0.000000 0.000000 0.000000 0.000000 0.021175
#
#
# Mechanical properties :
#
#
# Convention : Reuss Voigt Hill
#
# Bulk Modulus (GPa) = 52.96206 61.44097 57.20152
# Shear Modulus (GPa) = 23.79574 33.33976 28.56775
#
# Velocity S-wave (km/s) = 3.28383 3.88698 3.59807
# Velocity P-wave (km/s) = 6.19507 6.92734 6.57142
#
# Compressibility (1/GPa) = 0.01888144
#
# Stress axis : x y z
#
# Youngs Moduli (GPa) = 66.92460 120.54906 71.85699
#
# Poissons Ratio (x) = 0.61475 0.20061
# Poissons Ratio (y) = 0.34129 0.08946
# Poissons Ratio (z) = 0.18684 0.15007
#
# Static dielectric constant tensor:
#      x y z
#    x 1.878370 0.000000 0.000000 
#    y 0.000000 2.199590 0.000000 
#    z 0.000000 0.000000 1.740940 
# 
# From -- ./inp_files/47999.got.cif
#   From: 2010.05.17/outbox.cif.g08.bks.cpg/sg66_24_cif.got.tgz:47999.got - 2010.06.03 17:51:23.
