data_PCOD9497222
_publ_section_title
;
Structure prediction by ZEFSAII (Michael W. Deem and Ramdas Pophale) SiO2 
 PCOD9497222
Probable space group: C C C M
;
_chemical_formula_sum "Si O2"
_cell_formula_units_Z 128
_cell_length_a 11.321507
_cell_length_b 22.130431
_cell_length_c 25.447795
_cell_angle_alpha 90.000000
_cell_angle_beta 90.000000
_cell_angle_gamma 90.000000
_cell_volume 6375.940698
_symmetry_space_group_name_H-M "C C C M"
_symmetry_group_IT_number 66
_symmetry_cell_setting 'orthorhombic'
loop_
_space_group_symop_operation_xyz
x,y,z
-x,-y,z
x,-y,1/2-z
-x,y,1/2-z
-x,-y,-z
x,y,-z
-x,y,1/2+z
x,-y,1/2+z
1/2+x,1/2+y,z
1/2-x,1/2-y,z
1/2+x,1/2-y,1/2-z
1/2-x,1/2+y,1/2-z
1/2-x,1/2-y,-z
1/2+x,1/2+y,-z
1/2-x,1/2+y,1/2+z
1/2+x,1/2-y,1/2+z
loop_
_atom_site_type_symbol
_atom_site_label
_atom_site_fract_x
_atom_site_fract_y
_atom_site_fract_z
Si Si1 0.866198 0.509696 0.865441
Si Si2 0.209412 0.627308 0.307717
Si Si3 0.526072 0.643580 0.810223
Si Si4 0.106619 0.748475 0.940772
Si Si5 0.141943 0.004114 0.440233
Si Si6 0.329019 0.878997 0.813603
Si Si7 0.980727 0.715396 0.837989
Si Si8 0.859902 0.871480 0.602799
O O1 0.861774 0.569309 0.829076
O O2 0.752011 0.518593 0.903982
O O3 0.847537 0.448231 0.831584
O O4 0.000000 0.500000 0.888468
O O5 0.342532 0.628395 0.327114
O O6 0.222149 0.623401 0.244740
O O7 0.147994 0.688723 0.327549
O O8 0.500000 0.628748 0.750000
O O9 0.504261 0.715952 0.817934
O O10 0.443985 0.607266 0.850071
O O11 0.250000 0.750000 0.935086
O O12 0.078702 0.818376 0.928972
O O13 0.028833 0.714067 0.897742
O O14 0.080904 0.729297 0.000000
O O15 0.151917 0.981146 0.500000
O O16 0.168723 0.075571 0.436510
O O17 0.000000 0.000000 0.426128
O O18 0.439167 0.834145 0.809029
O O19 0.250626 0.851695 0.861188
#
# Coordination Sequence:
#
# PCOD9497222 Si02
#       8
#    16  16  16  16  16  16  16  16
#     4  11  24  40  63  90 123 164 211 260 303 372
#     4  12  23  39  59  85 127 166 205 246 315 369
#     4  11  22  37  58  89 123 162 200 250 309 378
#     4  10  20  36  59  87 117 155 203 259 312 360
#     4  10  22  42  66  91 120 162 208 261 320 366
#     4  11  21  38  59  88 120 162 203 251 305 375
#     4  11  23  36  57  89 123 160 201 256 309 377
#     4  10  20  37  61  87 122 151 203 256 305 372
#
# _framework density 20.075468999999998
#
# number of rings (size 3 to 8) (size 9 to 14) (size 15 to 20)
#    0.000    1.250    3.750    3.000    0.000    0.750 
#    0.000    0.625    0.000    6.750    0.000    0.000 
#    0.000    0.000    0.000    0.000    0.000    0.000 
#
# Total GULP energy -356300.200190 kJ/mol
# GULP energy per Si atom -5567.190628 kJ/mol
# Density = 2.002978 g / cm^3
# Si number density = 20.075469 Si / 1000 Ang^3
#
#
#
# Elastic Constant Matrix: (Units=GPa)
#
#
# Indices 1 2 3 4 5 6 
#
# 1 86.9153 -11.5551 15.1534 0.0000 0.0000 0.0000
# 2 -11.5551 45.4806 15.1012 0.0000 0.0000 0.0000
# 3 15.1534 15.1012 81.9564 0.0000 0.0000 0.0000
# 4 0.0000 0.0000 0.0000 7.3422 0.0000 0.0000
# 5 0.0000 0.0000 0.0000 0.0000 18.6340 0.0000
# 6 0.0000 0.0000 0.0000 0.0000 0.0000 25.0455
#
#
#
# Elastic Compliance Matrix: (Units=1/GPa)
#
#
# Indices 1 2 3 4 5 6 
#
# 1 0.012612 0.004238 -0.003113 0.000000 0.000000 0.000000
# 2 0.004238 0.024844 -0.005361 0.000000 0.000000 0.000000
# 3 -0.003113 -0.005361 0.013765 0.000000 0.000000 0.000000
# 4 0.000000 0.000000 0.000000 0.136199 0.000000 0.000000
# 5 0.000000 0.000000 0.000000 0.000000 0.053665 0.000000
# 6 0.000000 0.000000 0.000000 0.000000 0.000000 0.039927
#
#
# Mechanical properties :
#
#
# Convention : Reuss Voigt Hill
#
# Bulk Modulus (GPa) = 23.39280 27.97237 25.68258
# Shear Modulus (GPa) = 16.46173 23.24785 19.85479
#
# Velocity S-wave (km/s) = 2.86666 3.40667 3.14826
# Velocity P-wave (km/s) = 4.75759 5.42565 5.10257
#
# Compressibility (1/GPa) = 0.04274820
#
# Stress axis : x y z
#
# Youngs Moduli (GPa) = 79.29260 40.25080 72.64807
#
# Poissons Ratio (x) = -0.17057 0.22613
# Poissons Ratio (y) = -0.33602 0.38949
# Poissons Ratio (z) = 0.24681 0.21580
#
# Static dielectric constant tensor:
#      x y z
#    x 1.817750 0.000000 0.000000 
#    y 0.000000 1.715600 0.000000 
#    z 0.000000 0.000000 1.696080 
# 
# From -- ./inp_files/57340.got.cif
#   From: 2010.05.17/outbox.cif.g08.bks.cpg/sg66_29_cif.got.tgz:57340.got - 2010.06.03 17:51:23.
