data_PCOD9497946
_publ_section_title
;
Structure prediction by ZEFSAII (Michael W. Deem and Ramdas Pophale) SiO2 
 PCOD9497946
Probable space group: C C C M
;
_chemical_formula_sum "Si O2"
_cell_formula_units_Z 120
_cell_length_a 24.386802
_cell_length_b 28.603171
_cell_length_c 9.273247
_cell_angle_alpha 90.000000
_cell_angle_beta 90.000000
_cell_angle_gamma 90.000000
_cell_volume 6468.459486
_symmetry_space_group_name_H-M "C C C M"
_symmetry_group_IT_number 66
_symmetry_cell_setting 'orthorhombic'
loop_
_space_group_symop_operation_xyz
x,y,z
-x,-y,z
x,-y,1/2-z
-x,y,1/2-z
-x,-y,-z
x,y,-z
-x,y,1/2+z
x,-y,1/2+z
1/2+x,1/2+y,z
1/2-x,1/2-y,z
1/2+x,1/2-y,1/2-z
1/2-x,1/2+y,1/2-z
1/2-x,1/2-y,-z
1/2+x,1/2+y,-z
1/2-x,1/2+y,1/2+z
1/2+x,1/2-y,1/2+z
loop_
_atom_site_type_symbol
_atom_site_label
_atom_site_fract_x
_atom_site_fract_y
_atom_site_fract_z
Si Si1 0.193345 0.865546 0.334523
Si Si2 0.652804 0.951758 0.827308
Si Si3 0.595724 0.210496 0.170315
Si Si4 0.774213 0.697800 0.663416
Si Si5 0.079663 0.183377 0.769974
Si Si6 0.231835 0.049225 0.326242
Si Si7 0.946900 0.620076 0.170130
Si Si8 0.983675 0.836868 0.500000
O O1 0.201945 0.880125 0.500000
O O2 0.243477 0.833869 0.278439
O O3 0.138149 0.835292 0.323119
O O4 0.191978 0.910423 0.230793
O O5 0.708328 0.938469 0.742081
O O6 0.605971 0.912969 0.811573
O O7 0.634990 0.000000 0.750000
O O8 0.663200 0.958478 0.000000
O O9 0.660714 0.200839 0.182710
O O10 0.583060 0.261495 0.232962
O O11 0.565267 0.169801 0.255936
O O12 0.581192 0.210364 0.000000
O O13 0.763052 0.680046 0.500000
O O14 0.750000 0.750000 0.671759
O O15 0.062928 0.157469 0.624861
O O16 0.031201 0.173772 0.879534
O O17 0.233968 0.045828 0.500000
O O18 0.217688 0.000000 0.250000
O O19 0.000000 0.599560 0.250000
O O20 0.957243 0.625515 0.000000
#
# Coordination Sequence:
#
# PCOD9497946 Si02
#       8
#    16  16  16  16  16  16  16   8
#     4  12  24  39  61  92 126 162 205 247 302 365
#     4  10  21  41  65  90 119 154 195 247 305 366
#     4  11  23  38  59  83 119 160 204 252 305 357
#     4  10  21  37  57  86 122 161 203 247 302 368
#     4  11  23  40  60  88 114 164 202 254 297 352
#     4  11  23  40  67  97 127 159 193 244 304 364
#     4  11  26  40  57  83 115 157 207 257 305 356
#     4  10  24  40  60  82 121 152 211 248 300 344
#
# _framework density 18.551556999999999
#
# number of rings (size 3 to 8) (size 9 to 14) (size 15 to 20)
#    0.000    1.200    2.667    4.000    4.667    5.333 
#    0.000    1.333    0.000    0.000    0.000    2.800 
#    0.000    0.000    0.000    0.000    0.000    0.000 
#
# Total GULP energy -334099.103262 kJ/mol
# GULP energy per Si atom -5568.318388 kJ/mol
# Density = 1.850933 g / cm^3
# Si number density = 18.551557 Si / 1000 Ang^3
#
#
#
# Elastic Constant Matrix: (Units=GPa)
#
#
# Indices 1 2 3 4 5 6 
#
# 1 23.4707 9.5012 14.3302 0.0000 0.0000 0.0000
# 2 9.5012 59.4270 28.5664 0.0000 0.0000 0.0000
# 3 14.3302 28.5664 150.1744 0.0000 0.0000 0.0000
# 4 0.0000 0.0000 0.0000 27.0296 0.0000 0.0000
# 5 0.0000 0.0000 0.0000 0.0000 33.0361 0.0000
# 6 0.0000 0.0000 0.0000 0.0000 0.0000 7.5340
#
#
#
# Elastic Compliance Matrix: (Units=1/GPa)
#
#
# Indices 1 2 3 4 5 6 
#
# 1 0.047052 -0.005904 -0.003367 0.000000 0.000000 0.000000
# 2 -0.005904 0.019262 -0.003101 0.000000 0.000000 0.000000
# 3 -0.003367 -0.003101 0.007570 0.000000 0.000000 0.000000
# 4 0.000000 0.000000 0.000000 0.036996 0.000000 0.000000
# 5 0.000000 0.000000 0.000000 0.000000 0.030270 0.000000
# 6 0.000000 0.000000 0.000000 0.000000 0.000000 0.132731
#
#
# Mechanical properties :
#
#
# Convention : Reuss Voigt Hill
#
# Bulk Modulus (GPa) = 20.34980 37.54086 28.94533
# Shear Modulus (GPa) = 15.87279 25.56490 20.71885
#
# Velocity S-wave (km/s) = 2.92824 3.71623 3.34552
# Velocity P-wave (km/s) = 4.73561 6.22043 5.52810
#
# Compressibility (1/GPa) = 0.04914053
#
# Stress axis : x y z
#
# Youngs Moduli (GPa) = 21.25307 51.91621 132.10051
#
# Poissons Ratio (x) = 0.30653 0.44475
# Poissons Ratio (y) = 0.12548 0.40959
# Poissons Ratio (z) = 0.07155 0.16097
#
# Static dielectric constant tensor:
#      x y z
#    x 1.643750 0.000000 0.000000 
#    y 0.000000 1.646700 0.000000 
#    z 0.000000 0.000000 1.635310 
# 
# From -- ./inp_files/10759.got.cif
#   From: 2010.05.17/outbox.cif.g08.bks.cpg/sg66_6_cif.got.tgz:10759.got - 2010.06.03 17:51:23.
