data_PCOD9497457
_publ_section_title
;
Structure prediction by ZEFSAII (Michael W. Deem and Ramdas Pophale) SiO2 
 PCOD9497457
Probable space group: C C C M
;
_chemical_formula_sum "Si O2"
_cell_formula_units_Z 68
_cell_length_a 18.642906
_cell_length_b 18.574847
_cell_length_c 10.548502
_cell_angle_alpha 90.000000
_cell_angle_beta 90.000000
_cell_angle_gamma 90.000000
_cell_volume 3652.831544
_symmetry_space_group_name_H-M "C C C M"
_symmetry_group_IT_number 66
_symmetry_cell_setting 'orthorhombic'
loop_
_space_group_symop_operation_xyz
x,y,z
-x,-y,z
x,-y,1/2-z
-x,y,1/2-z
-x,-y,-z
x,y,-z
-x,y,1/2+z
x,-y,1/2+z
1/2+x,1/2+y,z
1/2-x,1/2-y,z
1/2+x,1/2-y,1/2-z
1/2-x,1/2+y,1/2-z
1/2-x,1/2-y,-z
1/2+x,1/2+y,-z
1/2-x,1/2+y,1/2+z
1/2+x,1/2-y,1/2+z
loop_
_atom_site_type_symbol
_atom_site_label
_atom_site_fract_x
_atom_site_fract_y
_atom_site_fract_z
Si Si1 0.911769 0.661962 0.500000
Si Si2 0.413472 0.763460 0.259312
Si Si3 0.415469 0.142892 0.000000
Si Si4 0.121945 0.896023 0.650095
Si Si5 0.000000 0.000000 0.250000
Si Si6 0.259638 0.500000 0.250000
Si Si7 0.836942 0.491153 0.000000
O O1 0.888646 0.705572 0.375114
O O2 0.880701 0.582386 0.500000
O O3 0.998163 0.651267 0.500000
O O4 0.500000 0.763891 0.250000
O O5 0.390205 0.815779 0.373644
O O6 0.391432 0.682635 0.292899
O O7 0.387804 0.061453 0.000000
O O8 0.136303 0.891040 0.500000
O O9 0.187654 0.933217 0.722672
O O10 0.052538 0.947455 0.671082
O O11 0.211516 0.491736 0.374324
#
# Coordination Sequence:
#
# PCOD9497457 Si02
#       7
#     8  16   8  16   4   8   8
#     4  10  23  39  64  97 120 155 209 272 324 361
#     4  10  20  37  63  97 129 154 197 262 323 374
#     4  10  21  39  68  93 116 163 209 260 328 373
#     4  11  21  41  61  94 130 163 207 248 304 377
#     4  10  22  32  68  98 118 168 198 246 318 354
#     4  11  26  41  63  90 125 174 214 252 299 374
#     4  12  23  46  62  85 126 166 216 268 306 363
#
# _framework density 18.615694000000001
#
# number of rings (size 3 to 8) (size 9 to 14) (size 15 to 20)
#    0.000    1.412    3.529    2.118    0.000    0.941 
#    2.118   11.765    0.000    0.000    0.000    0.000 
#    0.000    0.000    0.000    0.000    0.000    0.000 
#
# Total GULP energy -189894.577202 kJ/mol
# GULP energy per Si atom -5585.134624 kJ/mol
# Density = 1.857332 g / cm^3
# Si number density = 18.615694 Si / 1000 Ang^3
#
#
#
# Elastic Constant Matrix: (Units=GPa)
#
#
# Indices 1 2 3 4 5 6 
#
# 1 31.3162 26.0090 37.6318 0.0000 0.0000 0.0000
# 2 26.0090 166.8769 80.8402 0.0000 0.0000 0.0000
# 3 37.6318 80.8402 177.6774 0.0000 0.0000 0.0000
# 4 0.0000 0.0000 0.0000 -13.1583 0.0000 0.0000
# 5 0.0000 0.0000 0.0000 0.0000 17.9988 0.0000
# 6 0.0000 0.0000 0.0000 0.0000 0.0000 39.8115
#
#
#
# Elastic Compliance Matrix: (Units=1/GPa)
#
#
# Indices 1 2 3 4 5 6 
#
# 1 0.043978 -0.003004 -0.007948 0.000000 0.000000 0.000000
# 2 -0.003004 0.007892 -0.002954 0.000000 0.000000 0.000000
# 3 -0.007948 -0.002954 0.008656 0.000000 0.000000 0.000000
# 4 0.000000 0.000000 0.000000 -0.075998 0.000000 0.000000
# 5 0.000000 0.000000 0.000000 0.000000 0.055559 0.000000
# 6 0.000000 0.000000 0.000000 0.000000 0.000000 0.025118
#
#
# Mechanical properties :
#
#
# Convention : Reuss Voigt Hill
#
# Bulk Modulus (GPa) = 30.56891 73.87028 52.21959
# Shear Modulus (GPa) = 48.11316 24.35639 36.23478
#
# Velocity S-wave (km/s) = 5.08936 3.62108 4.41666
# Velocity P-wave (km/s) = 7.14088 7.56643 7.35673
#
# Compressibility (1/GPa) = 0.03271298
#
# Stress axis : x y z
#
# Youngs Moduli (GPa) = 22.73877 126.71294 115.53160
#
# Poissons Ratio (x) = 0.38067 0.91819
# Poissons Ratio (y) = 0.06831 0.34132
# Poissons Ratio (z) = 0.18072 0.37436
#
# Static dielectric constant tensor:
#      x y z
#    x 1.636060 0.000000 0.000000 
#    y 0.000000 1.604030 0.000000 
#    z 0.000000 0.000000 1.626480 
# 
# From -- ./inp_files/7495.got.cif
#   From: 2010.05.17/outbox.cif.g08.bks.cpg/sg66_4_cif.got.tgz:7495.got - 2010.06.03 17:51:23.
