data_PCOD9497262
_publ_section_title
;
Structure prediction by ZEFSAII (Michael W. Deem and Ramdas Pophale) SiO2 
 PCOD9497262
Probable space group: C C C M
;
_chemical_formula_sum "Si O2"
_cell_formula_units_Z 116
_cell_length_a 10.769351
_cell_length_b 26.324335
_cell_length_c 19.622218
_cell_angle_alpha 90.000000
_cell_angle_beta 90.000000
_cell_angle_gamma 90.000000
_cell_volume 5562.820382
_symmetry_space_group_name_H-M "C C C M"
_symmetry_group_IT_number 66
_symmetry_cell_setting 'orthorhombic'
loop_
_space_group_symop_operation_xyz
x,y,z
-x,-y,z
x,-y,1/2-z
-x,y,1/2-z
-x,-y,-z
x,y,-z
-x,y,1/2+z
x,-y,1/2+z
1/2+x,1/2+y,z
1/2-x,1/2-y,z
1/2+x,1/2-y,1/2-z
1/2-x,1/2+y,1/2-z
1/2-x,1/2-y,-z
1/2+x,1/2+y,-z
1/2-x,1/2+y,1/2+z
1/2+x,1/2-y,1/2+z
loop_
_atom_site_type_symbol
_atom_site_label
_atom_site_fract_x
_atom_site_fract_y
_atom_site_fract_z
Si Si1 0.724759 0.351723 0.338120
Si Si2 0.867222 0.978239 0.673249
Si Si3 0.436672 0.896637 0.926216
Si Si4 0.000000 0.500000 0.250000
Si Si5 0.412485 0.208786 0.922639
Si Si6 0.022092 0.206153 0.671624
Si Si7 0.655536 0.955590 0.869042
Si Si8 0.268443 0.369369 0.683232
O O1 0.791873 0.307048 0.379449
O O2 0.580876 0.337972 0.336754
O O3 0.758847 0.405688 0.370130
O O4 0.771386 0.356657 0.260326
O O5 0.860333 0.917892 0.682222
O O6 0.848966 0.000000 0.750000
O O7 0.753000 0.998163 0.626390
O O8 0.000000 0.000000 0.649703
O O9 0.513363 0.844176 0.926898
O O10 0.537369 0.941582 0.915625
O O11 0.342775 0.887719 0.864452
O O12 0.374558 0.903132 0.000000
O O13 0.086872 0.465573 0.202866
O O14 0.491257 0.249670 0.880953
O O15 0.386610 0.225510 0.000000
O O16 0.000000 0.223980 0.750000
O O17 0.155555 0.180451 0.660676
#
# Coordination Sequence:
#
# PCOD9497262 Si02
#       8
#    16  16  16   4  16  16  16  16
#     4  10  20  36  60  90 122 159 202 265 322 379
#     4  11  21  35  62  94 129 163 202 260 329 389
#     4  10  24  42  62  87 124 171 214 264 322 377
#     4  12  20  32  56  96 116 156 208 252 316 376
#     4  10  23  42  63  89 121 167 214 264 324 385
#     4  10  23  37  58  89 128 160 209 259 326 383
#     4  11  19  35  59  87 122 155 205 258 311 384
#     4  11  22  39  60  93 129 167 207 267 323 382
#
# _framework density 20.852732
#
# number of rings (size 3 to 8) (size 9 to 14) (size 15 to 20)
#    0.000    1.517    2.069    2.897    5.793    3.310 
#    0.000    4.483    0.000    3.310    0.000    0.000 
#    0.000    0.552    0.000    0.000    0.000    0.000 
#
# Total GULP energy -323713.073939 kJ/mol
# GULP energy per Si atom -5581.259895 kJ/mol
# Density = 2.080527 g / cm^3
# Si number density = 20.852732 Si / 1000 Ang^3
#
#
#
# Elastic Constant Matrix: (Units=GPa)
#
#
# Indices 1 2 3 4 5 6 
#
# 1 76.4266 12.9259 36.8200 0.0000 0.0000 0.0000
# 2 12.9259 97.2065 40.3353 0.0000 0.0000 0.0000
# 3 36.8200 40.3353 86.8385 0.0000 0.0000 0.0000
# 4 0.0000 0.0000 0.0000 -5.0906 0.0000 0.0000
# 5 0.0000 0.0000 0.0000 0.0000 -39.0782 0.0000
# 6 0.0000 0.0000 0.0000 0.0000 0.0000 26.5673
#
#
#
# Elastic Compliance Matrix: (Units=1/GPa)
#
#
# Indices 1 2 3 4 5 6 
#
# 1 0.016504 0.000878 -0.007406 0.000000 0.000000 0.000000
# 2 0.000878 0.012790 -0.006313 0.000000 0.000000 0.000000
# 3 -0.007406 -0.006313 0.017588 0.000000 0.000000 0.000000
# 4 0.000000 0.000000 0.000000 -0.196441 0.000000 0.000000
# 5 0.000000 0.000000 0.000000 0.000000 -0.025590 0.000000
# 6 0.000000 0.000000 0.000000 0.000000 0.000000 0.037640
#
#
# Mechanical properties :
#
#
# Convention : Reuss Voigt Hill
#
# Bulk Modulus (GPa) = 47.16787 48.95931 48.06359
# Shear Modulus (GPa) = -47.72823 7.83906 -19.94459
#
# Velocity S-wave (km/s) = -4.78936 1.94098 -3.09601
# Velocity P-wave (km/s) = 2.81341 5.34348 3.21228
#
# Compressibility (1/GPa) = 0.02120087
#
# Stress axis : x y z
#
# Youngs Moduli (GPa) = 60.59243 78.18449 56.85659
#
# Poissons Ratio (x) = -0.06867 0.42106
# Poissons Ratio (y) = -0.05322 0.35895
# Poissons Ratio (z) = 0.44873 0.49360
#
# Static dielectric constant tensor:
#      x y z
#    x 1.776670 0.000000 0.000000 
#    y 0.000000 1.751440 0.000000 
#    z 0.000000 0.000000 1.762800 
# 
# From -- ./inp_files/39141.got.cif
#   From: 2010.05.17/outbox.cif.g08.bks.cpg/sg66_20_cif.got.tgz:39141.got - 2010.06.03 17:51:23.
