data_PCOD9497820
_publ_section_title
;
Structure prediction by ZEFSAII (Michael W. Deem and Ramdas Pophale) SiO2 
 PCOD9497820
Probable space group: C C C M
;
_chemical_formula_sum "Si O2"
_cell_formula_units_Z 80
_cell_length_a 22.254563
_cell_length_b 23.758830
_cell_length_c 9.758283
_cell_angle_alpha 90.000000
_cell_angle_beta 90.000000
_cell_angle_gamma 90.000000
_cell_volume 5159.617769
_symmetry_space_group_name_H-M "C C C M"
_symmetry_group_IT_number 66
_symmetry_cell_setting 'orthorhombic'
loop_
_space_group_symop_operation_xyz
x,y,z
-x,-y,z
x,-y,1/2-z
-x,y,1/2-z
-x,-y,-z
x,y,-z
-x,y,1/2+z
x,-y,1/2+z
1/2+x,1/2+y,z
1/2-x,1/2-y,z
1/2+x,1/2-y,1/2-z
1/2-x,1/2+y,1/2-z
1/2-x,1/2-y,-z
1/2+x,1/2+y,-z
1/2-x,1/2+y,1/2+z
1/2+x,1/2-y,1/2+z
loop_
_atom_site_type_symbol
_atom_site_label
_atom_site_fract_x
_atom_site_fract_y
_atom_site_fract_z
Si Si1 0.402781 0.477015 0.500000
Si Si2 0.287493 0.378797 0.161907
Si Si3 0.308441 0.790518 0.654002
Si Si4 0.000000 0.166602 0.750000
Si Si5 0.478169 0.408675 0.000000
Si Si6 0.180584 0.000000 0.750000
Si Si7 0.872343 0.795691 0.338010
O O1 0.436922 0.536731 0.500000
O O2 0.452942 0.429430 0.500000
O O3 0.361899 0.475431 0.632204
O O4 0.222368 0.350241 0.185179
O O5 0.285938 0.445204 0.192332
O O6 0.335607 0.345024 0.256451
O O7 0.302895 0.370341 0.000000
O O8 0.335058 0.790594 0.500000
O O9 0.250000 0.750000 0.648760
O O10 0.350486 0.762209 0.766707
O O11 0.969916 0.127655 0.634602
O O12 0.943916 0.198717 0.816299
O O13 0.858463 0.798195 0.500000
#
# Coordination Sequence:
#
# PCOD9497820 Si02
#       7
#     8  16  16   8   8   8  16
#     4  11  22  34  48  64  92 134 176 211 242 274
#     4  10  21  36  52  71  98 131 165 203 256 305
#     4   8  17  34  54  71  92 125 159 200 256 311
#     4  12  24  33  48  70  96 131 168 214 250 292
#     4  11  22  36  46  62  94 134 176 209 244 280
#     4  12  22  33  50  72  96 129 170 214 244 290
#     4  11  22  34  51  74  96 125 168 212 254 294
#
# _framework density 15.505025
#
# number of rings (size 3 to 8) (size 9 to 14) (size 15 to 20)
#    0.000    1.600    2.000    5.400    4.200    5.200 
#    0.000    0.000    0.000    0.000    0.000    0.000 
#    0.000    0.800    0.000    6.200    0.000    1.400 
#
# Total GULP energy -223108.514978 kJ/mol
# GULP energy per Si atom -5577.712874 kJ/mol
# Density = 1.546974 g / cm^3
# Si number density = 15.505025 Si / 1000 Ang^3
#
#
#
# Elastic Constant Matrix: (Units=GPa)
#
#
# Indices 1 2 3 4 5 6 
#
# 1 41.3459 34.9666 32.6358 0.0000 0.0000 0.0000
# 2 34.9666 79.4572 33.5111 0.0000 0.0000 0.0000
# 3 32.6358 33.5111 116.6118 0.0000 0.0000 0.0000
# 4 0.0000 0.0000 0.0000 23.4032 0.0000 0.0000
# 5 0.0000 0.0000 0.0000 0.0000 19.2981 0.0000
# 6 0.0000 0.0000 0.0000 0.0000 0.0000 11.0854
#
#
#
# Elastic Compliance Matrix: (Units=1/GPa)
#
#
# Indices 1 2 3 4 5 6 
#
# 1 0.043791 -0.016047 -0.007644 0.000000 0.000000 0.000000
# 2 -0.016047 0.020202 -0.001314 0.000000 0.000000 0.000000
# 3 -0.007644 -0.001314 0.011093 0.000000 0.000000 0.000000
# 4 0.000000 0.000000 0.000000 0.042729 0.000000 0.000000
# 5 0.000000 0.000000 0.000000 0.000000 0.051819 0.000000
# 6 0.000000 0.000000 0.000000 0.000000 0.000000 0.090208
#
#
# Mechanical properties :
#
#
# Convention : Reuss Voigt Hill
#
# Bulk Modulus (GPa) = 39.88200 48.84909 44.36554
# Shear Modulus (GPa) = 15.71283 19.84409 17.77846
#
# Velocity S-wave (km/s) = 3.18685 3.58138 3.38986
# Velocity P-wave (km/s) = 6.27050 6.97678 6.63305
#
# Compressibility (1/GPa) = 0.02507397
#
# Stress axis : x y z
#
# Youngs Moduli (GPa) = 22.83555 49.50112 90.15075
#
# Poissons Ratio (x) = 0.79436 0.68913
# Poissons Ratio (y) = 0.36645 0.11849
# Poissons Ratio (z) = 0.17456 0.06506
#
# Static dielectric constant tensor:
#      x y z
#    x 1.512970 0.000000 0.000000 
#    y 0.000000 1.541850 0.000000 
#    z 0.000000 0.000000 1.534750 
# 
# From -- ./inp_files/10223.got.cif
#   From: 2010.05.17/outbox.cif.g08.bks.cpg/sg66_6_cif.got.tgz:10223.got - 2010.06.03 17:51:23.
