data_PCOD9497726
_publ_section_title
;
Structure prediction by ZEFSAII (Michael W. Deem and Ramdas Pophale) SiO2 
 PCOD9497726
Probable space group: C C C M
;
_chemical_formula_sum "Si O2"
_cell_formula_units_Z 68
_cell_length_a 15.516632
_cell_length_b 10.416864
_cell_length_c 16.702277
_cell_angle_alpha 90.000000
_cell_angle_beta 90.000000
_cell_angle_gamma 90.000000
_cell_volume 2699.666618
_symmetry_space_group_name_H-M "C C C M"
_symmetry_group_IT_number 66
_symmetry_cell_setting 'orthorhombic'
loop_
_space_group_symop_operation_xyz
x,y,z
-x,-y,z
x,-y,1/2-z
-x,y,1/2-z
-x,-y,-z
x,y,-z
-x,y,1/2+z
x,-y,1/2+z
1/2+x,1/2+y,z
1/2-x,1/2-y,z
1/2+x,1/2-y,1/2-z
1/2-x,1/2+y,1/2-z
1/2-x,1/2-y,-z
1/2+x,1/2+y,-z
1/2-x,1/2+y,1/2+z
1/2+x,1/2-y,1/2+z
loop_
_atom_site_type_symbol
_atom_site_label
_atom_site_fract_x
_atom_site_fract_y
_atom_site_fract_z
Si Si1 0.413787 0.087232 0.000000
Si Si2 0.343819 0.597506 0.874281
Si Si3 0.593689 0.063436 0.672647
Si Si4 0.250000 0.250000 0.500000
Si Si5 0.338922 0.677654 0.690151
Si Si6 0.016841 0.152495 0.500000
O O1 0.368618 0.054729 0.916471
O O2 0.445042 0.236661 0.000000
O O3 0.500000 0.000000 0.000000
O O4 0.334023 0.638909 0.782887
O O5 0.355883 0.444089 0.866198
O O6 0.422118 0.667755 0.921604
O O7 0.266041 0.642097 0.929481
O O8 0.588043 0.214682 0.686451
O O9 0.500000 0.000000 0.669551
O O10 0.639994 0.000000 0.750000
O O11 0.250000 0.750000 0.668862
O O12 0.000000 0.000000 0.500000
#
# Coordination Sequence:
#
# PCOD9497726 Si02
#       6
#     8  16  16   4  16   8
#     4  10  23  44  64 104 140 183 244 310 371 447
#     4  10  24  42  70 100 144 189 248 306 384 459
#     4  10  24  43  72 101 146 191 253 307 383 451
#     4  10  20  48  70 100 138 196 242 304 390 456
#     4  11  24  45  69 105 147 195 248 310 376 464
#     4  11  23  43  71  94 139 182 239 315 378 454
#
# _framework density 25.188293999999999
#
# number of rings (size 3 to 8) (size 9 to 14) (size 15 to 20)
#    0.000    1.647    1.176    1.412   13.176    0.941 
#    8.471    5.294    0.000    0.000    0.000    0.000 
#    0.000    0.000    0.000    0.000    0.000    0.000 
#
# Total GULP energy -189505.252824 kJ/mol
# GULP energy per Si atom -5573.683907 kJ/mol
# Density = 2.513096 g / cm^3
# Si number density = 25.188294 Si / 1000 Ang^3
#
#
#
# Elastic Constant Matrix: (Units=GPa)
#
#
# Indices 1 2 3 4 5 6 
#
# 1 61.8259 52.0453 17.0053 0.0000 0.0000 0.0000
# 2 52.0453 185.9822 68.2948 0.0000 0.0000 0.0000
# 3 17.0053 68.2948 237.2283 0.0000 0.0000 0.0000
# 4 0.0000 0.0000 0.0000 77.1928 0.0000 0.0000
# 5 0.0000 0.0000 0.0000 0.0000 20.6097 0.0000
# 6 0.0000 0.0000 0.0000 0.0000 0.0000 36.7015
#
#
#
# Elastic Compliance Matrix: (Units=1/GPa)
#
#
# Indices 1 2 3 4 5 6 
#
# 1 0.021168 -0.006001 0.000210 0.000000 0.000000 0.000000
# 2 -0.006001 0.007714 -0.001790 0.000000 0.000000 0.000000
# 3 0.000210 -0.001790 0.004716 0.000000 0.000000 0.000000
# 4 0.000000 0.000000 0.000000 0.012955 0.000000 0.000000
# 5 0.000000 0.000000 0.000000 0.000000 0.048521 0.000000
# 6 0.000000 0.000000 0.000000 0.000000 0.000000 0.027247
#
#
# Mechanical properties :
#
#
# Convention : Reuss Voigt Hill
#
# Bulk Modulus (GPa) = 54.24412 84.41414 69.32913
# Shear Modulus (GPa) = 34.81230 50.08021 42.44625
#
# Velocity S-wave (km/s) = 3.72167 4.46380 4.10952
# Velocity P-wave (km/s) = 6.32850 7.75586 7.07825
#
# Compressibility (1/GPa) = 0.01843518
#
# Stress axis : x y z
#
# Youngs Moduli (GPa) = 47.24058 129.64043 212.05583
#
# Poissons Ratio (x) = 0.77796 -0.04457
# Poissons Ratio (y) = 0.28349 0.37968
# Poissons Ratio (z) = -0.00993 0.23212
#
# Static dielectric constant tensor:
#      x y z
#    x 2.079560 0.000000 0.000000 
#    y 0.000000 2.043530 0.000000 
#    z 0.000000 0.000000 2.000290 
# 
# From -- ./inp_files/36544.got.cif
#   From: 2010.05.17/outbox.cif.g08.bks.cpg/sg66_19_cif.got.tgz:36544.got - 2010.06.03 17:51:23.
