data_PCOD9497909
_publ_section_title
;
Structure prediction by ZEFSAII (Michael W. Deem and Ramdas Pophale) SiO2 
 PCOD9497909
Probable space group: C C C M
;
_chemical_formula_sum "Si O2"
_cell_formula_units_Z 60
_cell_length_a 15.208789
_cell_length_b 10.112531
_cell_length_c 18.733880
_cell_angle_alpha 90.000000
_cell_angle_beta 90.000000
_cell_angle_gamma 90.000000
_cell_volume 2881.258571
_symmetry_space_group_name_H-M "C C C M"
_symmetry_group_IT_number 66
_symmetry_cell_setting 'orthorhombic'
loop_
_space_group_symop_operation_xyz
x,y,z
-x,-y,z
x,-y,1/2-z
-x,y,1/2-z
-x,-y,-z
x,y,-z
-x,y,1/2+z
x,-y,1/2+z
1/2+x,1/2+y,z
1/2-x,1/2-y,z
1/2+x,1/2-y,1/2-z
1/2-x,1/2+y,1/2-z
1/2-x,1/2-y,-z
1/2+x,1/2+y,-z
1/2-x,1/2+y,1/2+z
1/2+x,1/2-y,1/2+z
loop_
_atom_site_type_symbol
_atom_site_label
_atom_site_fract_x
_atom_site_fract_y
_atom_site_fract_z
Si Si1 0.371649 0.927956 0.000000
Si Si2 0.937672 0.231364 0.651231
Si Si3 0.500000 0.000000 0.122965
Si Si4 0.311057 0.463652 0.000000
Si Si5 0.973942 0.841043 0.500000
Si Si6 0.750000 0.250000 0.384300
Si Si7 0.500000 0.500000 0.250000
O O1 0.416422 0.998177 0.068665
O O2 0.267442 0.930923 0.000000
O O3 0.406316 0.780590 0.000000
O O4 0.996622 0.362083 0.664821
O O5 0.837787 0.281563 0.658257
O O6 0.969740 0.186131 0.571801
O O7 0.947973 0.102372 0.699939
O O8 0.285563 0.369758 0.066600
O O9 0.407707 0.531881 0.000000
#
# Coordination Sequence:
#
# PCOD9497909 Si02
#       7
#     8  16   8   8   8   8   4
#     4   9  16  31  57  98 126 160 199 260 307 380
#     4  11  23  44  64  98 123 176 205 274 310 400
#     4   9  18  37  64  84 126 164 214 244 318 378
#     4  11  18  30  56 105 130 163 196 260 309 385
#     4  10  21  36  67  96 141 158 208 256 334 367
#     4  11  22  34  64  86 130 161 214 250 324 369
#     4  12  28  44  64  84 128 162 228 260 340 364
#
# _framework density 20.824231999999999
#
# number of rings (size 3 to 8) (size 9 to 14) (size 15 to 20)
#    0.000    1.600    2.667    4.400    0.000    2.133 
#    0.000    2.667    5.867    0.000    0.000    0.000 
#    0.000    0.000    0.000    0.000    0.000    0.000 
#
# Total GULP energy -167155.458518 kJ/mol
# GULP energy per Si atom -5571.848617 kJ/mol
# Density = 2.077684 g / cm^3
# Si number density = 20.824232 Si / 1000 Ang^3
#
#
#
# Elastic Constant Matrix: (Units=GPa)
#
#
# Indices 1 2 3 4 5 6 
#
# 1 155.8615 29.6146 26.1054 0.0000 0.0000 0.0000
# 2 29.6146 145.8485 34.0830 0.0000 0.0000 0.0000
# 3 26.1054 34.0830 68.4943 0.0000 0.0000 0.0000
# 4 0.0000 0.0000 0.0000 57.2491 0.0000 0.0000
# 5 0.0000 0.0000 0.0000 0.0000 -11.9421 0.0000
# 6 0.0000 0.0000 0.0000 0.0000 0.0000 40.4793
#
#
#
# Elastic Compliance Matrix: (Units=1/GPa)
#
#
# Indices 1 2 3 4 5 6 
#
# 1 0.006956 -0.000897 -0.002205 0.000000 0.000000 0.000000
# 2 -0.000897 0.007874 -0.003576 0.000000 0.000000 0.000000
# 3 -0.002205 -0.003576 0.017220 0.000000 0.000000 0.000000
# 4 0.000000 0.000000 0.000000 0.017468 0.000000 0.000000
# 5 0.000000 0.000000 0.000000 0.000000 -0.083737 0.000000
# 6 0.000000 0.000000 0.000000 0.000000 0.000000 0.024704
#
#
# Mechanical properties :
#
#
# Convention : Reuss Voigt Hill
#
# Bulk Modulus (GPa) = 53.49490 61.09004 57.29247
# Shear Modulus (GPa) = 496.46595 35.85068 266.15831
#
# Velocity S-wave (km/s) = 15.45721 4.15370 11.31765
# Velocity P-wave (km/s) = 18.55564 7.23906 14.08396
#
# Compressibility (1/GPa) = 0.01869337
#
# Stress axis : x y z
#
# Youngs Moduli (GPa) = 143.76762 126.99458 58.07335
#
# Poissons Ratio (x) = 0.11394 0.12803
# Poissons Ratio (y) = 0.12898 0.20769
# Poissons Ratio (z) = 0.31695 0.45418
#
# Static dielectric constant tensor:
#      x y z
#    x 1.760110 0.000000 0.000000 
#    y 0.000000 1.818570 0.000000 
#    z 0.000000 0.000000 1.787280 
# 
# From -- ./inp_files/37952.got.cif
#   From: 2010.05.17/outbox.cif.g08.bks.cpg/sg66_19_cif.got.tgz:37952.got - 2010.06.03 17:51:23.
