data_PCOD9497477
_publ_section_title
;
Structure prediction by ZEFSAII (Michael W. Deem and Ramdas Pophale) SiO2 
 PCOD9497477
Probable space group: C C C M
;
_chemical_formula_sum "Si O2"
_cell_formula_units_Z 88
_cell_length_a 13.046777
_cell_length_b 12.886446
_cell_length_c 21.353459
_cell_angle_alpha 90.000000
_cell_angle_beta 90.000000
_cell_angle_gamma 90.000000
_cell_volume 3590.084188
_symmetry_space_group_name_H-M "C C C M"
_symmetry_group_IT_number 66
_symmetry_cell_setting 'orthorhombic'
loop_
_space_group_symop_operation_xyz
x,y,z
-x,-y,z
x,-y,1/2-z
-x,y,1/2-z
-x,-y,-z
x,y,-z
-x,y,1/2+z
x,-y,1/2+z
1/2+x,1/2+y,z
1/2-x,1/2-y,z
1/2+x,1/2-y,1/2-z
1/2-x,1/2+y,1/2-z
1/2-x,1/2-y,-z
1/2+x,1/2+y,-z
1/2-x,1/2+y,1/2+z
1/2+x,1/2-y,1/2+z
loop_
_atom_site_type_symbol
_atom_site_label
_atom_site_fract_x
_atom_site_fract_y
_atom_site_fract_z
Si Si1 0.958738 0.115538 0.637684
Si Si2 0.266592 0.085384 0.860243
Si Si3 0.488481 0.831195 0.320555
Si Si4 0.018279 0.790489 0.500000
Si Si5 0.706404 0.858214 0.363952
Si Si6 0.170842 0.595444 0.500000
Si Si7 0.168323 0.633152 0.000000
O O1 0.841012 0.132745 0.658481
O O2 0.011726 0.208486 0.674779
O O3 0.972389 0.144032 0.563910
O O4 0.000000 0.000000 0.648669
O O5 0.375774 0.134404 0.842170
O O6 0.257336 0.966745 0.836443
O O7 0.265806 0.093282 0.935942
O O8 0.500000 0.867897 0.250000
O O9 0.582886 0.872144 0.361751
O O10 0.102973 0.698555 0.500000
O O11 0.913386 0.724895 0.500000
O O12 0.750000 0.750000 0.337474
O O13 0.734659 0.860698 0.437185
O O14 0.117854 0.481767 0.500000
#
# Coordination Sequence:
#
# PCOD9497477 Si02
#       7
#    16  16  16   8  16   8   8
#     4  12  26  45  69 107 144 185 228 284 362 432
#     4  11  24  43  72 103 146 181 231 288 349 430
#     4  12  27  47  70  97 131 183 247 298 351 412
#     4  12  21  38  73 103 150 179 224 283 347 438
#     4  11  23  43  69 102 140 181 229 290 351 422
#     4  10  20  37  67 111 140 182 227 282 356 419
#     4  10  20  37  67 104 142 181 224 279 353 420
#
# _framework density 24.511962
#
# number of rings (size 3 to 8) (size 9 to 14) (size 15 to 20)
#    0.000    0.727    3.636    3.545    0.000    6.909 
#    0.000    1.818    0.000    0.000    0.000    0.000 
#    0.000    0.000    0.000    0.000    0.000    0.000 
#
# Total GULP energy -245854.929375 kJ/mol
# GULP energy per Si atom -5587.612031 kJ/mol
# Density = 2.445617 g / cm^3
# Si number density = 24.511962 Si / 1000 Ang^3
#
#
#
# Elastic Constant Matrix: (Units=GPa)
#
#
# Indices 1 2 3 4 5 6 
#
# 1 88.7875 11.9711 -0.6989 0.0000 0.0000 0.0000
# 2 11.9711 127.6086 -7.9636 0.0000 0.0000 0.0000
# 3 -0.6989 -7.9636 61.3334 0.0000 0.0000 0.0000
# 4 0.0000 0.0000 0.0000 -42.8846 0.0000 0.0000
# 5 0.0000 0.0000 0.0000 0.0000 -25.2312 0.0000
# 6 0.0000 0.0000 0.0000 0.0000 0.0000 28.9822
#
#
#
# Elastic Compliance Matrix: (Units=1/GPa)
#
#
# Indices 1 2 3 4 5 6 
#
# 1 0.011407 -0.001071 -0.000009 0.000000 0.000000 0.000000
# 2 -0.001071 0.008001 0.001027 0.000000 0.000000 0.000000
# 3 -0.000009 0.001027 0.016438 0.000000 0.000000 0.000000
# 4 0.000000 0.000000 0.000000 -0.023318 0.000000 0.000000
# 5 0.000000 0.000000 0.000000 0.000000 -0.039634 0.000000
# 6 0.000000 0.000000 0.000000 0.000000 0.000000 0.034504
#
#
# Mechanical properties :
#
#
# Convention : Reuss Voigt Hill
#
# Bulk Modulus (GPa) = 27.98024 31.59409 29.78716
# Shear Modulus (GPa) = 257.50686 10.46801 133.98743
#
# Velocity S-wave (km/s) = 10.26068 2.06878 7.40140
# Velocity P-wave (km/s) = 12.32133 4.31552 9.23144
#
# Compressibility (1/GPa) = 0.03573951
#
# Stress axis : x y z
#
# Youngs Moduli (GPa) = 87.66443 124.98479 60.83637
#
# Poissons Ratio (x) = 0.13382 0.00055
# Poissons Ratio (y) = 0.09386 -0.06246
# Poissons Ratio (z) = 0.00079 -0.12832
#
# Static dielectric constant tensor:
#      x y z
#    x 1.942230 0.000000 0.000000 
#    y 0.000000 1.987300 0.000000 
#    z 0.000000 0.000000 1.958860 
# 
# From -- ./inp_files/58056.got.cif
#   From: 2010.05.17/outbox.cif.g08.bks.cpg/sg66_30_cif.got.tgz:58056.got - 2010.06.03 17:51:23.
