data_PCOD9497574
_publ_section_title
;
Structure prediction by ZEFSAII (Michael W. Deem and Ramdas Pophale) SiO2 
 PCOD9497574
Probable space group: C C C M
;
_chemical_formula_sum "Si O2"
_cell_formula_units_Z 56
_cell_length_a 16.406608
_cell_length_b 7.281437
_cell_length_c 20.276873
_cell_angle_alpha 90.000000
_cell_angle_beta 90.000000
_cell_angle_gamma 90.000000
_cell_volume 2422.349919
_symmetry_space_group_name_H-M "C C C M"
_symmetry_group_IT_number 66
_symmetry_cell_setting 'orthorhombic'
loop_
_space_group_symop_operation_xyz
x,y,z
-x,-y,z
x,-y,1/2-z
-x,y,1/2-z
-x,-y,-z
x,y,-z
-x,y,1/2+z
x,-y,1/2+z
1/2+x,1/2+y,z
1/2-x,1/2-y,z
1/2+x,1/2-y,1/2-z
1/2-x,1/2+y,1/2-z
1/2-x,1/2-y,-z
1/2+x,1/2+y,-z
1/2-x,1/2+y,1/2+z
1/2+x,1/2-y,1/2+z
loop_
_atom_site_type_symbol
_atom_site_label
_atom_site_fract_x
_atom_site_fract_y
_atom_site_fract_z
Si Si1 0.076429 0.800119 0.784494
Si Si2 0.613391 0.254140 0.927632
Si Si3 0.745452 0.956584 0.901035
Si Si4 0.750000 0.250000 0.270377
O O1 0.061255 0.794724 0.862692
O O2 0.166551 0.726378 0.769331
O O3 0.000000 0.704310 0.750000
O O4 0.079111 0.000000 0.750000
O O5 0.682877 0.411890 0.925492
O O6 0.661967 0.062380 0.916851
O O7 0.574127 0.254470 0.000000
O O8 0.750000 0.750000 0.928180
O O9 0.757920 0.918507 0.822843
#
# Coordination Sequence:
#
# PCOD9497574 Si02
#       4
#    16  16  16   8
#     4  11  23  42  69  99 133 178 229 278 339 401
#     4  11  22  37  63  98 133 171 225 280 334 404
#     4   9  19  36  63  99 135 175 215 273 332 396
#     4  10  20  38  66  94 128 178 224 270 312 400
#
# _framework density 23.118048000000002
#
# number of rings (size 3 to 8) (size 9 to 14) (size 15 to 20)
#    0.857    0.857    2.857    3.429    0.000    2.286 
#    0.000    5.714    0.000    1.714    0.000    0.000 
#    0.000    0.000    0.000    0.000    0.000    0.000 
#
# Total GULP energy -156290.077138 kJ/mol
# GULP energy per Si atom -5581.788469 kJ/mol
# Density = 2.306543 g / cm^3
# Si number density = 23.118048 Si / 1000 Ang^3
#
#
#
# Elastic Constant Matrix: (Units=GPa)
#
#
# Indices 1 2 3 4 5 6 
#
# 1 95.0670 9.8529 47.6329 0.0000 0.0000 0.0000
# 2 9.8529 151.6113 15.2194 0.0000 0.0000 0.0000
# 3 47.6329 15.2194 233.2869 0.0000 0.0000 0.0000
# 4 0.0000 0.0000 0.0000 14.0773 0.0000 0.0000
# 5 0.0000 0.0000 0.0000 0.0000 -57.7941 0.0000
# 6 0.0000 0.0000 0.0000 0.0000 0.0000 8.1584
#
#
#
# Elastic Compliance Matrix: (Units=1/GPa)
#
#
# Indices 1 2 3 4 5 6 
#
# 1 0.011759 -0.000527 -0.002367 0.000000 0.000000 0.000000
# 2 -0.000527 0.006663 -0.000327 0.000000 0.000000 0.000000
# 3 -0.002367 -0.000327 0.004791 0.000000 0.000000 0.000000
# 4 0.000000 0.000000 0.000000 0.071036 0.000000 0.000000
# 5 0.000000 0.000000 0.000000 0.000000 -0.017303 0.000000
# 6 0.000000 0.000000 0.000000 0.000000 0.000000 0.122572
#
#
# Mechanical properties :
#
#
# Convention : Reuss Voigt Hill
#
# Bulk Modulus (GPa) = 59.62179 69.48620 64.55400
# Shear Modulus (GPa) = 23.63497 20.03898 21.83698
#
# Velocity S-wave (km/s) = 3.20091 2.94736 3.07675
# Velocity P-wave (km/s) = 6.28548 6.45794 6.37229
#
# Compressibility (1/GPa) = 0.01677239
#
# Stress axis : x y z
#
# Youngs Moduli (GPa) = 85.03916 150.08520 208.71848
#
# Poissons Ratio (x) = 0.07904 0.49397
# Poissons Ratio (y) = 0.04478 0.06828
# Poissons Ratio (z) = 0.20126 0.04910
#
# Static dielectric constant tensor:
#      x y z
#    x 1.865960 0.000000 0.000000 
#    y 0.000000 1.945400 0.000000 
#    z 0.000000 0.000000 1.941890 
# 
# From -- ./inp_files/49430.got.cif
#   From: 2010.05.17/outbox.cif.g08.bks.cpg/sg66_25_cif.got.tgz:49430.got - 2010.06.03 17:51:23.
