data_PCOD9497540
_publ_section_title
;
Structure prediction by ZEFSAII (Michael W. Deem and Ramdas Pophale) SiO2 
 PCOD9497540
Probable space group: C C C M
;
_chemical_formula_sum "Si O2"
_cell_formula_units_Z 116
_cell_length_a 12.987565
_cell_length_b 14.657131
_cell_length_c 26.045048
_cell_angle_alpha 90.000000
_cell_angle_beta 90.000000
_cell_angle_gamma 90.000000
_cell_volume 4957.946838
_symmetry_space_group_name_H-M "C C C M"
_symmetry_group_IT_number 66
_symmetry_cell_setting 'orthorhombic'
loop_
_space_group_symop_operation_xyz
x,y,z
-x,-y,z
x,-y,1/2-z
-x,y,1/2-z
-x,-y,-z
x,y,-z
-x,y,1/2+z
x,-y,1/2+z
1/2+x,1/2+y,z
1/2-x,1/2-y,z
1/2+x,1/2-y,1/2-z
1/2-x,1/2+y,1/2-z
1/2-x,1/2-y,-z
1/2+x,1/2+y,-z
1/2-x,1/2+y,1/2+z
1/2+x,1/2-y,1/2+z
loop_
_atom_site_type_symbol
_atom_site_label
_atom_site_fract_x
_atom_site_fract_y
_atom_site_fract_z
Si Si1 0.250000 0.750000 0.500000
Si Si2 0.309520 0.364198 0.902381
Si Si3 0.807293 0.076449 0.060646
Si Si4 0.614273 0.344592 0.234961
Si Si5 0.976516 0.893445 0.632560
Si Si6 0.837230 0.367102 0.752120
Si Si7 0.597257 0.894465 0.856429
Si Si8 0.877997 0.397352 0.128333
O O1 0.307797 0.691125 0.545300
O O2 0.309894 0.471698 0.918501
O O3 0.411667 0.347795 0.868969
O O4 0.203154 0.346564 0.871989
O O5 0.918016 0.113870 0.078461
O O6 0.714045 0.127582 0.090303
O O7 0.792197 0.078094 0.000000
O O8 0.500000 0.376243 0.250000
O O9 0.604433 0.355295 0.173782
O O10 0.716574 0.390685 0.257225
O O11 0.633181 0.239747 0.249694
O O12 0.000000 0.000000 0.644375
O O13 0.902961 0.406968 0.705329
O O14 0.851344 0.390074 0.811642
O O15 0.490605 0.851852 0.876247
O O16 0.605099 0.994832 0.880548
#
# Coordination Sequence:
#
# PCOD9497540 Si02
#       8
#     4  16  16  16  16  16  16  16
#     4  12  24  40  58  90 130 160 202 264 312 400
#     4  10  23  39  62  92 122 161 208 259 324 375
#     4  10  20  40  68  93 121 157 212 268 321 371
#     4  11  23  38  58  92 127 169 208 256 322 375
#     4  10  22  41  66  92 124 163 212 268 311 380
#     4  11  22  38  63  87 129 169 208 258 311 383
#     4  10  21  38  60  91 125 164 212 257 310 376
#     4  10  20  38  62  94 121 162 210 263 306 374
#
# _framework density 23.39678
#
# number of rings (size 3 to 8) (size 9 to 14) (size 15 to 20)
#    0.000    1.655    2.069    2.483    0.966    5.517 
#    3.724    1.379    0.000    0.828    0.000    0.000 
#    0.000    0.000    0.000    0.000    0.000    0.000 
#
# Total GULP energy -323344.746499 kJ/mol
# GULP energy per Si atom -5574.909422 kJ/mol
# Density = 2.334353 g / cm^3
# Si number density = 23.396780 Si / 1000 Ang^3
#
#
#
# Elastic Constant Matrix: (Units=GPa)
#
#
# Indices 1 2 3 4 5 6 
#
# 1 167.9991 18.6498 29.6914 0.0000 0.0000 0.0000
# 2 18.6498 36.2378 -4.4685 0.0000 0.0000 0.0000
# 3 29.6914 -4.4685 87.5306 0.0000 0.0000 0.0000
# 4 0.0000 0.0000 0.0000 13.5250 0.0000 0.0000
# 5 0.0000 0.0000 0.0000 0.0000 -7.7830 0.0000
# 6 0.0000 0.0000 0.0000 0.0000 0.0000 19.2262
#
#
#
# Elastic Compliance Matrix: (Units=1/GPa)
#
#
# Indices 1 2 3 4 5 6 
#
# 1 0.006820 -0.003819 -0.002508 0.000000 0.000000 0.000000
# 2 -0.003819 0.029909 0.002822 0.000000 0.000000 0.000000
# 3 -0.002508 0.002822 0.012419 0.000000 0.000000 0.000000
# 4 0.000000 0.000000 0.000000 0.073937 0.000000 0.000000
# 5 0.000000 0.000000 0.000000 0.000000 -0.128484 0.000000
# 6 0.000000 0.000000 0.000000 0.000000 0.000000 0.052012
#
#
# Mechanical properties :
#
#
# Convention : Reuss Voigt Hill
#
# Bulk Modulus (GPa) = 23.73147 42.16812 32.94979
# Shear Modulus (GPa) = 73.88898 21.51995 47.70447
#
# Velocity S-wave (km/s) = 5.62578 3.03608 4.52035
# Velocity P-wave (km/s) = 7.23632 5.50932 6.43105
#
# Compressibility (1/GPa) = 0.04213814
#
# Stress axis : x y z
#
# Youngs Moduli (GPa) = 146.63463 33.43480 80.51855
#
# Poissons Ratio (x) = 0.12769 0.20196
# Poissons Ratio (y) = 0.56000 -0.22725
# Poissons Ratio (z) = 0.36780 -0.09436
#
# Static dielectric constant tensor:
#      x y z
#    x 1.939600 0.000000 0.000000 
#    y 0.000000 1.964740 0.000000 
#    z 0.000000 0.000000 1.856080 
# 
# From -- ./inp_files/63855.got.cif
#   From: 2010.05.17/outbox.cif.g08.bks.cpg/sg66_32_cif.got.tgz:63855.got - 2010.06.03 17:51:23.
