data_PCOD9497369
_publ_section_title
;
Structure prediction by ZEFSAII (Michael W. Deem and Ramdas Pophale) SiO2 
 PCOD9497369
Probable space group: C C C M
;
_chemical_formula_sum "Si O2"
_cell_formula_units_Z 88
_cell_length_a 21.244624
_cell_length_b 15.737376
_cell_length_c 11.266960
_cell_angle_alpha 90.000000
_cell_angle_beta 90.000000
_cell_angle_gamma 90.000000
_cell_volume 3766.934969
_symmetry_space_group_name_H-M "C C C M"
_symmetry_group_IT_number 66
_symmetry_cell_setting 'orthorhombic'
loop_
_space_group_symop_operation_xyz
x,y,z
-x,-y,z
x,-y,1/2-z
-x,y,1/2-z
-x,-y,-z
x,y,-z
-x,y,1/2+z
x,-y,1/2+z
1/2+x,1/2+y,z
1/2-x,1/2-y,z
1/2+x,1/2-y,1/2-z
1/2-x,1/2+y,1/2-z
1/2-x,1/2-y,-z
1/2+x,1/2+y,-z
1/2-x,1/2+y,1/2+z
1/2+x,1/2-y,1/2+z
loop_
_atom_site_type_symbol
_atom_site_label
_atom_site_fract_x
_atom_site_fract_y
_atom_site_fract_z
Si Si1 0.625376 0.295091 0.633289
Si Si2 0.250000 0.750000 0.773442
Si Si3 0.928857 0.654083 0.246616
Si Si4 0.077748 0.406953 0.000000
Si Si5 0.746050 0.440430 0.135847
Si Si6 0.604479 0.493881 0.374175
Si Si7 0.067876 0.608302 0.000000
O O1 0.617155 0.261728 0.500000
O O2 0.689994 0.264737 0.690212
O O3 0.572531 0.253547 0.715948
O O4 0.623732 0.395310 0.623864
O O5 0.242628 0.660148 0.842310
O O6 0.895482 0.613368 0.131526
O O7 0.902463 0.639397 0.377128
O O8 0.000000 0.618857 0.250000
O O9 0.070264 0.507659 0.000000
O O10 0.006597 0.366471 0.000000
O O11 0.767029 0.500000 0.250000
O O12 0.669964 0.453999 0.133335
O O13 0.767942 0.464403 0.000000
O O14 0.569310 0.500000 0.250000
O O15 0.573744 0.516373 0.500000
#
# Coordination Sequence:
#
# PCOD9497369 Si02
#       7
#    16   8  16   8  16  16   8
#     4  11  22  38  63  91 121 163 206 251 308 377
#     4  12  22  38  64  94 123 163 218 264 317 371
#     4  10  20  37  59  88 121 156 203 257 306 361
#     4   9  16  34  62  79 119 161 203 251 303 369
#     4  10  20  38  60  88 121 162 210 262 306 371
#     4   9  17  35  59  83 110 153 201 242 297 367
#     4   9  18  32  58  91 111 159 207 245 311 373
#
# _framework density 23.361167999999999
#
# number of rings (size 3 to 8) (size 9 to 14) (size 15 to 20)
#    0.000    2.000    4.545    1.091    0.000    2.909 
#    4.909    1.818    0.000    0.545    0.000    2.545 
#    0.000    0.000    0.000    0.000    0.000    0.000 
#
# Total GULP energy -245209.692660 kJ/mol
# GULP energy per Si atom -5572.947560 kJ/mol
# Density = 2.330800 g / cm^3
# Si number density = 23.361168 Si / 1000 Ang^3
#
#
#
# Elastic Constant Matrix: (Units=GPa)
#
#
# Indices 1 2 3 4 5 6 
#
# 1 60.9778 14.6112 24.9537 0.0000 0.0000 0.0000
# 2 14.6112 95.2662 57.5523 0.0000 0.0000 0.0000
# 3 24.9537 57.5523 261.5512 0.0000 0.0000 0.0000
# 4 0.0000 0.0000 0.0000 41.0359 0.0000 0.0000
# 5 0.0000 0.0000 0.0000 0.0000 9.5280 0.0000
# 6 0.0000 0.0000 0.0000 0.0000 0.0000 -15.9617
#
#
#
# Elastic Compliance Matrix: (Units=1/GPa)
#
#
# Indices 1 2 3 4 5 6 
#
# 1 0.017364 -0.001917 -0.001235 0.000000 0.000000 0.000000
# 2 -0.001917 0.012318 -0.002528 0.000000 0.000000 0.000000
# 3 -0.001235 -0.002528 0.004497 0.000000 0.000000 0.000000
# 4 0.000000 0.000000 0.000000 0.024369 0.000000 0.000000
# 5 0.000000 0.000000 0.000000 0.000000 0.104953 0.000000
# 6 0.000000 0.000000 0.000000 0.000000 0.000000 -0.062650
#
#
# Mechanical properties :
#
#
# Convention : Reuss Voigt Hill
#
# Bulk Modulus (GPa) = 43.82079 68.00332 55.91205
# Shear Modulus (GPa) = 41.73018 28.29899 35.01458
#
# Velocity S-wave (km/s) = 4.23106 3.48425 3.87568
# Velocity P-wave (km/s) = 6.53206 6.73494 6.63427
#
# Compressibility (1/GPa) = 0.02282022
#
# Stress axis : x y z
#
# Youngs Moduli (GPa) = 57.59008 81.18273 222.35488
#
# Poissons Ratio (x) = 0.15565 0.27456
# Poissons Ratio (y) = 0.11041 0.56201
# Poissons Ratio (z) = 0.07111 0.20519
#
# Static dielectric constant tensor:
#      x y z
#    x 1.955460 0.000000 0.000000 
#    y 0.000000 1.899730 0.000000 
#    z 0.000000 0.000000 2.009450 
# 
# From -- ./inp_files/19753.got.cif
#   From: 2010.05.17/outbox.cif.g08.bks.cpg/sg66_10_cif.got.tgz:19753.got - 2010.06.03 17:51:23.
