data_PCOD9497621
_publ_section_title
;
Structure prediction by ZEFSAII (Michael W. Deem and Ramdas Pophale) SiO2 
 PCOD9497621
Probable space group: C C C M
;
_chemical_formula_sum "Si O2"
_cell_formula_units_Z 80
_cell_length_a 8.928087
_cell_length_b 26.300862
_cell_length_c 16.075827
_cell_angle_alpha 90.000000
_cell_angle_beta 90.000000
_cell_angle_gamma 90.000000
_cell_volume 3774.867568
_symmetry_space_group_name_H-M "C C C M"
_symmetry_group_IT_number 66
_symmetry_cell_setting 'orthorhombic'
loop_
_space_group_symop_operation_xyz
x,y,z
-x,-y,z
x,-y,1/2-z
-x,y,1/2-z
-x,-y,-z
x,y,-z
-x,y,1/2+z
x,-y,1/2+z
1/2+x,1/2+y,z
1/2-x,1/2-y,z
1/2+x,1/2-y,1/2-z
1/2-x,1/2+y,1/2-z
1/2-x,1/2-y,-z
1/2+x,1/2+y,-z
1/2-x,1/2+y,1/2+z
1/2+x,1/2-y,1/2+z
loop_
_atom_site_type_symbol
_atom_site_label
_atom_site_fract_x
_atom_site_fract_y
_atom_site_fract_z
Si Si1 0.188970 0.692427 0.500000
Si Si2 0.304845 0.384710 0.136692
Si Si3 0.963211 0.556077 0.096560
Si Si4 0.865243 0.643110 0.300094
Si Si5 0.926222 0.750558 0.500000
Si Si6 0.064151 0.817592 0.841959
O O1 0.250000 0.750000 0.500000
O O2 0.238993 0.661095 0.419575
O O3 0.009774 0.696950 0.500000
O O4 0.215734 0.433070 0.102043
O O5 0.242736 0.380912 0.229859
O O6 0.480703 0.371608 0.137725
O O7 0.000000 0.500000 0.128952
O O8 0.053698 0.599460 0.146564
O O9 0.007003 0.558811 0.000000
O O10 0.744175 0.678110 0.344776
O O11 0.000000 0.670300 0.250000
O O12 0.750000 0.750000 0.500000
O O13 0.976628 0.779507 0.584055
O O14 0.000000 0.803130 0.750000
#
# Coordination Sequence:
#
# PCOD9497621 Si02
#       6
#     8  16  16  16   8  16
#     4  12  22  42  65  87 126 173 223 265 339 387
#     4  10  20  39  65  86 125 169 208 265 327 390
#     4  10  21  38  64  97 127 167 217 266 328 405
#     4   9  21  37  63  89 123 167 202 266 325 389
#     4  12  28  40  62  95 126 172 227 289 323 405
#     4  10  22  44  61  93 128 172 219 269 337 400
#
# _framework density 21.192798
#
# number of rings (size 3 to 8) (size 9 to 14) (size 15 to 20)
#    0.000    1.800    3.000    0.000    7.000    3.600 
#    7.200    1.000    0.000    8.400    0.000    0.000 
#    0.000    0.000    0.000    0.000    0.000    0.000 
#
# Total GULP energy -222946.096729 kJ/mol
# GULP energy per Si atom -5573.652418 kJ/mol
# Density = 2.114456 g / cm^3
# Si number density = 21.192798 Si / 1000 Ang^3
#
#
#
# Elastic Constant Matrix: (Units=GPa)
#
#
# Indices 1 2 3 4 5 6 
#
# 1 137.0921 24.6922 16.1764 0.0000 0.0000 0.0000
# 2 24.6922 71.2073 29.6581 0.0000 0.0000 0.0000
# 3 16.1764 29.6581 104.3620 0.0000 0.0000 0.0000
# 4 0.0000 0.0000 0.0000 1.1764 0.0000 0.0000
# 5 0.0000 0.0000 0.0000 0.0000 28.2542 0.0000
# 6 0.0000 0.0000 0.0000 0.0000 0.0000 30.9472
#
#
#
# Elastic Compliance Matrix: (Units=1/GPa)
#
#
# Indices 1 2 3 4 5 6 
#
# 1 0.007803 -0.002498 -0.000500 0.000000 0.000000 0.000000
# 2 -0.002498 0.016728 -0.004367 0.000000 0.000000 0.000000
# 3 -0.000500 -0.004367 0.010900 0.000000 0.000000 0.000000
# 4 0.000000 0.000000 0.000000 0.850025 0.000000 0.000000
# 5 0.000000 0.000000 0.000000 0.000000 0.035393 0.000000
# 6 0.000000 0.000000 0.000000 0.000000 0.000000 0.032313
#
#
# Mechanical properties :
#
#
# Convention : Reuss Voigt Hill
#
# Bulk Modulus (GPa) = 48.30079 50.41275 49.35677
# Shear Modulus (GPa) = 5.12930 28.21788 16.67359
#
# Velocity S-wave (km/s) = 1.55742 3.65291 2.80796
# Velocity P-wave (km/s) = 5.10634 6.45221 5.81832
#
# Compressibility (1/GPa) = 0.02070359
#
# Stress axis : x y z
#
# Youngs Moduli (GPa) = 128.15242 59.77847 91.73920
#
# Poissons Ratio (x) = 0.14931 0.04584
# Poissons Ratio (y) = 0.32009 0.40061
# Poissons Ratio (z) = 0.06404 0.26104
#
# Static dielectric constant tensor:
#      x y z
#    x 1.858150 0.000000 0.000000 
#    y 0.000000 1.775490 0.000000 
#    z 0.000000 0.000000 1.842340 
# 
# From -- ./inp_files/37031.got.cif
#   From: 2010.05.17/outbox.cif.g08.bks.cpg/sg66_19_cif.got.tgz:37031.got - 2010.06.03 17:51:23.
