data_PCOD9497934
_publ_section_title
;
Structure prediction by ZEFSAII (Michael W. Deem and Ramdas Pophale) SiO2 
 PCOD9497934
Probable space group: C C C M
;
_chemical_formula_sum "Si O2"
_cell_formula_units_Z 104
_cell_length_a 22.692246
_cell_length_b 27.972064
_cell_length_c 8.201992
_cell_angle_alpha 90.000000
_cell_angle_beta 90.000000
_cell_angle_gamma 90.000000
_cell_volume 5206.205871
_symmetry_space_group_name_H-M "C C C M"
_symmetry_group_IT_number 66
_symmetry_cell_setting 'orthorhombic'
loop_
_space_group_symop_operation_xyz
x,y,z
-x,-y,z
x,-y,1/2-z
-x,y,1/2-z
-x,-y,-z
x,y,-z
-x,y,1/2+z
x,-y,1/2+z
1/2+x,1/2+y,z
1/2-x,1/2-y,z
1/2+x,1/2-y,1/2-z
1/2-x,1/2+y,1/2-z
1/2-x,1/2-y,-z
1/2+x,1/2+y,-z
1/2-x,1/2+y,1/2+z
1/2+x,1/2-y,1/2+z
loop_
_atom_site_type_symbol
_atom_site_label
_atom_site_fract_x
_atom_site_fract_y
_atom_site_fract_z
Si Si1 0.110059 0.947547 0.694021
Si Si2 0.250000 0.250000 0.742353
Si Si3 0.066316 0.680150 0.308859
Si Si4 0.750794 0.053746 0.694355
Si Si5 0.306278 0.847510 0.808763
Si Si6 0.866482 0.225470 0.684186
Si Si7 0.936557 0.853437 0.685722
O O1 0.102345 0.941505 0.500000
O O2 0.179607 0.941482 0.733880
O O3 0.072988 0.909155 0.792108
O O4 0.092969 0.000000 0.750000
O O5 0.273093 0.195126 0.792590
O O6 0.185321 0.234399 0.687973
O O7 0.069486 0.668770 0.500000
O O8 0.123304 0.655844 0.224894
O O9 0.081384 0.736683 0.290263
O O10 0.000000 0.669806 0.250000
O O11 0.744271 0.055778 0.500000
O O12 0.717253 0.099556 0.767893
O O13 0.732487 0.000000 0.750000
O O14 0.294922 0.837219 0.000000
O O15 0.841988 0.233223 0.500000
O O16 0.889316 0.172682 0.702479
O O17 0.928919 0.838332 0.500000
O O18 0.000000 0.839398 0.750000
#
# Coordination Sequence:
#
# PCOD9497934 Si02
#       7
#    16   8  16  16  16  16  16
#     4  10  21  38  59  82 109 141 181 230 283 336
#     4  10  22  36  58  88 122 156 192 234 286 346
#     4  10  21  37  57  81 111 148 189 231 278 335
#     4  10  21  38  61  88 118 152 191 237 289 344
#     4  11  22  36  57  86 120 156 194 237 285 339
#     4  10  21  37  57  81 111 147 186 229 279 334
#     4  12  25  39  56  78 107 145 189 234 281 334
#
# _framework density 19.976161000000001
#
# number of rings (size 3 to 8) (size 9 to 14) (size 15 to 20)
#    0.000    1.538    0.000    5.077    0.000   11.385 
#    0.000    1.538    0.000    0.462    0.000    3.231 
#    0.000    0.000    0.000    0.000    0.000    0.000 
#
# Total GULP energy -289655.085817 kJ/mol
# GULP energy per Si atom -5570.290112 kJ/mol
# Density = 1.993069 g / cm^3
# Si number density = 19.976161 Si / 1000 Ang^3
#
#
#
# Elastic Constant Matrix: (Units=GPa)
#
#
# Indices 1 2 3 4 5 6 
#
# 1 71.3893 23.3859 22.7770 0.0000 0.0000 0.0000
# 2 23.3859 90.7361 18.6044 0.0000 0.0000 0.0000
# 3 22.7770 18.6044 78.8352 0.0000 0.0000 0.0000
# 4 0.0000 0.0000 0.0000 30.1400 0.0000 0.0000
# 5 0.0000 0.0000 0.0000 0.0000 1.6887 0.0000
# 6 0.0000 0.0000 0.0000 0.0000 0.0000 -12.6602
#
#
#
# Elastic Compliance Matrix: (Units=1/GPa)
#
#
# Indices 1 2 3 4 5 6 
#
# 1 0.016380 -0.003417 -0.003926 0.000000 0.000000 0.000000
# 2 -0.003417 0.012294 -0.001914 0.000000 0.000000 0.000000
# 3 -0.003926 -0.001914 0.014271 0.000000 0.000000 0.000000
# 4 0.000000 0.000000 0.000000 0.033179 0.000000 0.000000
# 5 0.000000 0.000000 0.000000 0.000000 0.592172 0.000000
# 6 0.000000 0.000000 0.000000 0.000000 0.000000 -0.078988
#
#
# Mechanical properties :
#
#
# Convention : Reuss Voigt Hill
#
# Bulk Modulus (GPa) = 40.93220 41.16613 41.04916
# Shear Modulus (GPa) = 8.11736 15.57992 11.84864
#
# Velocity S-wave (km/s) = 2.01800 2.79574 2.43809
# Velocity P-wave (km/s) = 5.09557 5.57440 5.34035
#
# Compressibility (1/GPa) = 0.02443064
#
# Stress axis : x y z
#
# Youngs Moduli (GPa) = 61.05180 81.34033 70.07353
#
# Poissons Ratio (x) = 0.27791 0.27511
# Poissons Ratio (y) = 0.20859 0.13413
# Poissons Ratio (z) = 0.23969 0.15570
#
# Static dielectric constant tensor:
#      x y z
#    x 1.680780 0.000000 0.000000 
#    y 0.000000 1.722400 0.000000 
#    z 0.000000 0.000000 1.827010 
# 
# From -- ./inp_files/8152.got.cif
#   From: 2010.05.17/outbox.cif.g08.bks.cpg/sg66_5_cif.got.tgz:8152.got - 2010.06.03 17:51:23.
