data_PCOD9497854
_publ_section_title
;
Structure prediction by ZEFSAII (Michael W. Deem and Ramdas Pophale) SiO2 
 PCOD9497854
Probable space group: C C C M
;
_chemical_formula_sum "Si O2"
_cell_formula_units_Z 112
_cell_length_a 12.014519
_cell_length_b 30.165121
_cell_length_c 14.775823
_cell_angle_alpha 90.000000
_cell_angle_beta 90.000000
_cell_angle_gamma 90.000000
_cell_volume 5355.045193
_symmetry_space_group_name_H-M "C C C M"
_symmetry_group_IT_number 66
_symmetry_cell_setting 'orthorhombic'
loop_
_space_group_symop_operation_xyz
x,y,z
-x,-y,z
x,-y,1/2-z
-x,y,1/2-z
-x,-y,-z
x,y,-z
-x,y,1/2+z
x,-y,1/2+z
1/2+x,1/2+y,z
1/2-x,1/2-y,z
1/2+x,1/2-y,1/2-z
1/2-x,1/2+y,1/2-z
1/2-x,1/2-y,-z
1/2+x,1/2+y,-z
1/2-x,1/2+y,1/2+z
1/2+x,1/2-y,1/2+z
loop_
_atom_site_type_symbol
_atom_site_label
_atom_site_fract_x
_atom_site_fract_y
_atom_site_fract_z
Si Si1 0.461936 0.949153 0.394810
Si Si2 0.720809 0.174541 0.323778
Si Si3 0.835487 0.886411 0.602426
Si Si4 0.715285 0.796652 0.361163
Si Si5 0.978635 0.268838 0.392942
Si Si6 0.842622 0.584836 0.267709
Si Si7 0.542715 0.667522 0.107223
O O1 0.442035 0.934345 0.500000
O O2 0.560598 0.922681 0.342473
O O3 0.363084 0.946046 0.320171
O O4 0.500000 0.000000 0.399355
O O5 0.767024 0.201627 0.238518
O O6 0.636698 0.205999 0.376351
O O7 0.657398 0.133152 0.279141
O O8 0.828153 0.157510 0.376688
O O9 0.845106 0.904744 0.500000
O O10 0.760637 0.841397 0.595439
O O11 0.771079 0.916908 0.674358
O O12 0.953130 0.868264 0.640241
O O13 0.750000 0.750000 0.403767
O O14 0.582580 0.794810 0.351540
O O15 0.998572 0.268361 0.500000
O O16 0.978015 0.217939 0.360794
O O17 0.522131 0.668551 0.000000
#
# Coordination Sequence:
#
# PCOD9497854 Si02
#       7
#    16  16  16  16  16  16  16
#     4  10  22  43  70  98 130 161 186 224 285 367
#     4  11  24  35  51  81 113 155 209 266 319 358
#     4  10  21  36  56  82 117 161 208 259 310 364
#     4  11  21  33  49  72 104 151 212 267 322 373
#     4  11  22  35  53  73 105 156 217 278 327 365
#     4  10  22  37  59  94 127 157 195 235 299 372
#     4  10  21  39  56  74 110 165 226 275 316 358
#
# _framework density 20.914857000000001
#
# number of rings (size 3 to 8) (size 9 to 14) (size 15 to 20)
#    0.000    1.571    1.429    3.857    8.000    5.143 
#    0.000    0.000    0.000    0.000    0.000    8.000 
#    0.000   18.286    0.000    0.000    0.000    0.000 
#
# Total GULP energy -312349.138577 kJ/mol
# GULP energy per Si atom -5577.663189 kJ/mol
# Density = 2.086725 g / cm^3
# Si number density = 20.914857 Si / 1000 Ang^3
#
#
#
# Elastic Constant Matrix: (Units=GPa)
#
#
# Indices 1 2 3 4 5 6 
#
# 1 126.3684 13.1389 36.5441 0.0000 0.0000 0.0000
# 2 13.1389 40.6142 19.4631 0.0000 0.0000 0.0000
# 3 36.5441 19.4631 113.7220 0.0000 0.0000 0.0000
# 4 0.0000 0.0000 0.0000 31.9179 0.0000 0.0000
# 5 0.0000 0.0000 0.0000 0.0000 19.5649 0.0000
# 6 0.0000 0.0000 0.0000 0.0000 0.0000 21.2011
#
#
#
# Elastic Compliance Matrix: (Units=1/GPa)
#
#
# Indices 1 2 3 4 5 6 
#
# 1 0.008822 -0.001629 -0.002556 0.000000 0.000000 0.000000
# 2 -0.001629 0.027123 -0.004118 0.000000 0.000000 0.000000
# 3 -0.002556 -0.004118 0.010320 0.000000 0.000000 0.000000
# 4 0.000000 0.000000 0.000000 0.031330 0.000000 0.000000
# 5 0.000000 0.000000 0.000000 0.000000 0.051112 0.000000
# 6 0.000000 0.000000 0.000000 0.000000 0.000000 0.047167
#
#
# Mechanical properties :
#
#
# Convention : Reuss Voigt Hill
#
# Bulk Modulus (GPa) = 33.71884 46.55520 40.13702
# Shear Modulus (GPa) = 24.70767 28.64070 26.67419
#
# Velocity S-wave (km/s) = 3.44080 3.70455 3.57511
# Velocity P-wave (km/s) = 5.65176 6.37228 6.02281
#
# Compressibility (1/GPa) = 0.02965701
#
# Stress axis : x y z
#
# Youngs Moduli (GPa) = 113.35387 36.86970 96.90279
#
# Poissons Ratio (x) = 0.06006 0.24769
# Poissons Ratio (y) = 0.18465 0.39909
# Poissons Ratio (z) = 0.28974 0.15185
#
# Static dielectric constant tensor:
#      x y z
#    x 1.836610 0.000000 0.000000 
#    y 0.000000 1.759200 0.000000 
#    z 0.000000 0.000000 1.819560 
# 
# From -- ./inp_files/26966.got.cif
#   From: 2010.05.17/outbox.cif.g08.bks.cpg/sg66_14_cif.got.tgz:26966.got - 2010.06.03 17:51:23.
