data_PCOD9497596
_publ_section_title
;
Structure prediction by ZEFSAII (Michael W. Deem and Ramdas Pophale) SiO2 
 PCOD9497596
Probable space group: C C C M
;
_chemical_formula_sum "Si O2"
_cell_formula_units_Z 96
_cell_length_a 15.611290
_cell_length_b 22.567974
_cell_length_c 14.134098
_cell_angle_alpha 90.000000
_cell_angle_beta 90.000000
_cell_angle_gamma 90.000000
_cell_volume 4979.657377
_symmetry_space_group_name_H-M "C C C M"
_symmetry_group_IT_number 66
_symmetry_cell_setting 'orthorhombic'
loop_
_space_group_symop_operation_xyz
x,y,z
-x,-y,z
x,-y,1/2-z
-x,y,1/2-z
-x,-y,-z
x,y,-z
-x,y,1/2+z
x,-y,1/2+z
1/2+x,1/2+y,z
1/2-x,1/2-y,z
1/2+x,1/2-y,1/2-z
1/2-x,1/2+y,1/2-z
1/2-x,1/2-y,-z
1/2+x,1/2+y,-z
1/2-x,1/2+y,1/2+z
1/2+x,1/2-y,1/2+z
loop_
_atom_site_type_symbol
_atom_site_label
_atom_site_fract_x
_atom_site_fract_y
_atom_site_fract_z
Si Si1 0.000000 0.620893 0.750000
Si Si2 0.599605 0.981468 0.500000
Si Si3 0.246187 0.425152 0.000000
Si Si4 0.440685 0.339785 0.839763
Si Si5 0.255843 0.845871 0.312168
Si Si6 0.664053 0.059351 0.799275
Si Si7 0.926224 0.291647 0.390306
Si Si8 0.561854 0.558498 0.000000
O O1 0.080410 0.578256 0.740715
O O2 0.006452 0.664399 0.660126
O O3 0.629627 0.948496 0.595222
O O4 0.500000 0.000000 0.500000
O O5 0.660026 0.038307 0.500000
O O6 0.244410 0.386552 0.094170
O O7 0.337085 0.460105 0.000000
O O8 0.500000 0.350314 0.750000
O O9 0.342692 0.328466 0.807626
O O10 0.460388 0.275501 0.884897
O O11 0.448281 0.395923 0.910857
O O12 0.274802 0.885491 0.220072
O O13 0.335532 0.801903 0.334028
O O14 0.699473 0.000000 0.750000
O O15 0.911829 0.306681 0.500000
O O16 0.500000 0.500000 0.000000
#
# Coordination Sequence:
#
# PCOD9497596 Si02
#       8
#     8   8   8  16  16  16  16   8
#     4  10  23  36  56  88 127 164 198 248 302 370
#     4  12  24  34  58  84 127 172 204 241 304 376
#     4  10  20  39  60  87 121 158 205 266 303 358
#     4  11  23  42  63  92 123 157 198 260 318 364
#     4  10  22  38  61  89 120 160 207 259 308 362
#     4  11  22  37  55  85 124 164 206 246 303 363
#     4  11  21  37  66  92 122 157 206 255 306 364
#     4  10  24  43  66  93 116 157 215 254 309 375
#
# _framework density 19.278435000000002
#
# number of rings (size 3 to 8) (size 9 to 14) (size 15 to 20)
#    0.000    1.333    4.167    1.750    3.500    2.333 
#    0.000    0.000    0.000    0.000    0.000    5.833 
#    0.000    0.000    0.000    0.000    0.000    0.000 
#
# Total GULP energy -267421.410575 kJ/mol
# GULP energy per Si atom -5571.279387 kJ/mol
# Density = 1.923456 g / cm^3
# Si number density = 19.278435 Si / 1000 Ang^3
#
#
#
# Elastic Constant Matrix: (Units=GPa)
#
#
# Indices 1 2 3 4 5 6 
#
# 1 69.2967 27.9869 24.6606 0.0000 0.0000 0.0000
# 2 27.9869 87.2879 37.6179 0.0000 0.0000 0.0000
# 3 24.6606 37.6179 117.7744 0.0000 0.0000 0.0000
# 4 0.0000 0.0000 0.0000 26.9521 0.0000 0.0000
# 5 0.0000 0.0000 0.0000 0.0000 30.6768 0.0000
# 6 0.0000 0.0000 0.0000 0.0000 0.0000 22.6471
#
#
#
# Elastic Compliance Matrix: (Units=1/GPa)
#
#
# Indices 1 2 3 4 5 6 
#
# 1 0.017018 -0.004547 -0.002111 0.000000 0.000000 0.000000
# 2 -0.004547 0.014500 -0.003679 0.000000 0.000000 0.000000
# 3 -0.002111 -0.003679 0.010108 0.000000 0.000000 0.000000
# 4 0.000000 0.000000 0.000000 0.037103 0.000000 0.000000
# 5 0.000000 0.000000 0.000000 0.000000 0.032598 0.000000
# 6 0.000000 0.000000 0.000000 0.000000 0.000000 0.044156
#
#
# Mechanical properties :
#
#
# Convention : Reuss Voigt Hill
#
# Bulk Modulus (GPa) = 47.72862 50.54328 49.13595
# Shear Modulus (GPa) = 27.30138 28.32810 27.81474
#
# Velocity S-wave (km/s) = 3.76727 3.83746 3.80253
# Velocity P-wave (km/s) = 6.61320 6.77564 6.69491
#
# Compressibility (1/GPa) = 0.02095179
#
# Stress axis : x y z
#
# Youngs Moduli (GPa) = 58.76033 68.96655 98.93089
#
# Poissons Ratio (x) = 0.31357 0.20886
# Poissons Ratio (y) = 0.26716 0.36400
# Poissons Ratio (z) = 0.12405 0.25375
#
# Static dielectric constant tensor:
#      x y z
#    x 1.702160 0.000000 0.000000 
#    y 0.000000 1.715420 0.000000 
#    z 0.000000 0.000000 1.669360 
# 
# From -- ./inp_files/28492.got.cif
#   From: 2010.05.17/outbox.cif.g08.bks.cpg/sg66_15_cif.got.tgz:28492.got - 2010.06.03 17:51:23.
