data_PCOD9497595
_publ_section_title
;
Structure prediction by ZEFSAII (Michael W. Deem and Ramdas Pophale) SiO2 
 PCOD9497595
Probable space group: C C C M
;
_chemical_formula_sum "Si O2"
_cell_formula_units_Z 96
_cell_length_a 21.298056
_cell_length_b 9.778119
_cell_length_c 24.559849
_cell_angle_alpha 90.000000
_cell_angle_beta 90.000000
_cell_angle_gamma 90.000000
_cell_volume 5114.709537
_symmetry_space_group_name_H-M "C C C M"
_symmetry_group_IT_number 66
_symmetry_cell_setting 'orthorhombic'
loop_
_space_group_symop_operation_xyz
x,y,z
-x,-y,z
x,-y,1/2-z
-x,y,1/2-z
-x,-y,-z
x,y,-z
-x,y,1/2+z
x,-y,1/2+z
1/2+x,1/2+y,z
1/2-x,1/2-y,z
1/2+x,1/2-y,1/2-z
1/2-x,1/2+y,1/2-z
1/2-x,1/2-y,-z
1/2+x,1/2+y,-z
1/2-x,1/2+y,1/2+z
1/2+x,1/2-y,1/2+z
loop_
_atom_site_type_symbol
_atom_site_label
_atom_site_fract_x
_atom_site_fract_y
_atom_site_fract_z
Si Si1 0.312251 0.545140 0.123400
Si Si2 0.665451 0.035745 0.124329
Si Si3 0.133148 0.240899 0.838133
Si Si4 0.990286 0.838220 0.336701
Si Si5 0.637648 0.748869 0.713336
Si Si6 0.905560 0.766615 0.562780
O O1 0.238839 0.550726 0.111743
O O2 0.337965 0.393402 0.133910
O O3 0.326958 0.632566 0.178190
O O4 0.351810 0.622052 0.076949
O O5 0.651942 0.110190 0.182225
O O6 0.623329 0.121599 0.082100
O O7 0.649710 0.877538 0.129748
O O8 0.156663 0.248769 0.775791
O O9 0.058093 0.228587 0.833350
O O10 0.936411 0.785329 0.295531
O O11 0.961393 0.806308 0.396172
O O12 0.000000 0.000000 0.328994
O O13 0.922729 0.767050 0.500000
#
# Coordination Sequence:
#
# PCOD9497595 Si02
#       6
#    16  16  16  16  16  16
#     4  10  21  37  58  88 115 152 198 238 275 339
#     4  10  23  38  54  87 124 149 195 236 279 344
#     4  12  21  35  57  87 123 156 183 235 290 331
#     4  10  20  39  58  89 115 144 197 246 279 341
#     4  10  21  34  58  83 118 166 194 220 275 345
#     4  10  22  43  67  82 104 152 197 242 300 348
#
# _framework density 18.769393999999998
#
# number of rings (size 3 to 8) (size 9 to 14) (size 15 to 20)
#    0.000    2.000    3.333    4.000    0.000    9.000 
#    0.000    5.833    0.000    2.000    0.000    0.000 
#    0.000    0.000    0.000    0.000    0.000    0.000 
#
# Total GULP energy -268081.008720 kJ/mol
# GULP energy per Si atom -5585.021015 kJ/mol
# Density = 1.872667 g / cm^3
# Si number density = 18.769394 Si / 1000 Ang^3
#
#
#
# Elastic Constant Matrix: (Units=GPa)
#
#
# Indices 1 2 3 4 5 6 
#
# 1 41.9202 -9.2789 -12.4219 0.0000 0.0000 0.0000
# 2 -9.2789 92.1861 0.0226 0.0000 0.0000 0.0000
# 3 -12.4219 0.0226 61.1051 0.0000 0.0000 0.0000
# 4 0.0000 0.0000 0.0000 2.3312 0.0000 0.0000
# 5 0.0000 0.0000 0.0000 0.0000 -0.4309 0.0000
# 6 0.0000 0.0000 0.0000 0.0000 0.0000 0.9488
#
#
#
# Elastic Compliance Matrix: (Units=1/GPa)
#
#
# Indices 1 2 3 4 5 6 
#
# 1 0.026000 0.002616 0.005284 0.000000 0.000000 0.000000
# 2 0.002616 0.011111 0.000528 0.000000 0.000000 0.000000
# 3 0.005284 0.000528 0.017439 0.000000 0.000000 0.000000
# 4 0.000000 0.000000 0.000000 0.428955 0.000000 0.000000
# 5 0.000000 0.000000 0.000000 0.000000 -2.320850 0.000000
# 6 0.000000 0.000000 0.000000 0.000000 0.000000 1.053997
#
#
# Mechanical properties :
#
#
# Convention : Reuss Voigt Hill
#
# Bulk Modulus (GPa) = 14.00455 16.87277 15.43866
# Shear Modulus (GPa) = -6.43996 15.02914 4.29459
#
# Velocity S-wave (km/s) = -1.85433 2.83278 1.51428
# Velocity P-wave (km/s) = 1.70084 4.43943 3.36165
#
# Compressibility (1/GPa) = 0.07140538
#
# Stress axis : x y z
#
# Youngs Moduli (GPa) = 38.46196 90.00274 57.34166
#
# Poissons Ratio (x) = -0.23542 -0.30302
# Poissons Ratio (y) = -0.10060 -0.03025
# Poissons Ratio (z) = -0.20325 -0.04749
#
# Static dielectric constant tensor:
#      x y z
#    x 1.675510 0.000000 0.000000 
#    y 0.000000 1.642570 0.000000 
#    z 0.000000 0.000000 1.630510 
# 
# From -- ./inp_files/65682.got.cif
#   From: 2010.05.17/outbox.cif.g08.bks.cpg/sg66_33_cif.got.tgz:65682.got - 2010.06.03 17:51:23.
