data_PCOD9497811
_publ_section_title
;
Structure prediction by ZEFSAII (Michael W. Deem and Ramdas Pophale) SiO2 
 PCOD9497811
Probable space group: C C C M
;
_chemical_formula_sum "Si O2"
_cell_formula_units_Z 96
_cell_length_a 16.395407
_cell_length_b 15.494231
_cell_length_c 19.482188
_cell_angle_alpha 90.000000
_cell_angle_beta 90.000000
_cell_angle_gamma 90.000000
_cell_volume 4949.142499
_symmetry_space_group_name_H-M "C C C M"
_symmetry_group_IT_number 66
_symmetry_cell_setting 'orthorhombic'
loop_
_space_group_symop_operation_xyz
x,y,z
-x,-y,z
x,-y,1/2-z
-x,y,1/2-z
-x,-y,-z
x,y,-z
-x,y,1/2+z
x,-y,1/2+z
1/2+x,1/2+y,z
1/2-x,1/2-y,z
1/2+x,1/2-y,1/2-z
1/2-x,1/2+y,1/2-z
1/2-x,1/2-y,-z
1/2+x,1/2+y,-z
1/2-x,1/2+y,1/2+z
1/2+x,1/2-y,1/2+z
loop_
_atom_site_type_symbol
_atom_site_label
_atom_site_fract_x
_atom_site_fract_y
_atom_site_fract_z
Si Si1 0.380579 0.804262 0.887189
Si Si2 0.928021 0.667578 0.885407
Si Si3 0.802002 0.021555 0.500000
Si Si4 0.193115 0.679135 0.261828
Si Si5 0.346241 0.005256 0.597549
Si Si6 0.796106 0.500000 0.750000
Si Si7 0.391705 0.663598 0.000000
Si Si8 0.587388 0.307560 0.500000
O O1 0.476988 0.815025 0.875480
O O2 0.335680 0.796573 0.814330
O O3 0.358868 0.895517 0.923283
O O4 0.364787 0.721238 0.934504
O O5 0.882469 0.667804 0.812582
O O6 0.908652 0.572798 0.917745
O O7 0.897742 0.744358 0.935030
O O8 0.740472 0.021847 0.565334
O O9 0.858034 0.106607 0.500000
O O10 0.853866 0.932223 0.500000
O O11 0.250000 0.750000 0.293391
O O12 0.245947 0.591235 0.258317
O O13 0.346493 0.011768 0.680334
O O14 0.491106 0.665343 0.000000
#
# Coordination Sequence:
#
# PCOD9497811 Si02
#       8
#    16  16   8  16  16   8   8   8
#     4  10  21  39  60  87 121 155 190 234 296 353
#     4  10  21  39  60  87 121 155 190 234 296 353
#     4  12  25  38  59  82 118 154 202 240 295 332
#     4  10  21  35  60  89 120 151 192 240 283 343
#     4  10  21  35  60  91 114 151 185 242 286 351
#     4   8  20  36  49  84 121 144 180 224 294 326
#     4  10  24  41  59  81 116 157 199 242 287 348
#     4  10  24  41  59  81 116 157 199 242 287 348
#
# _framework density 19.397299
#
# number of rings (size 3 to 8) (size 9 to 14) (size 15 to 20)
#    0.000    2.000    0.000    2.250    9.333    1.333 
#    0.000    8.333    0.000    0.000    0.000    7.000 
#    0.000    0.000    0.000    0.000    0.000    0.000 
#
# Total GULP energy -267383.253554 kJ/mol
# GULP energy per Si atom -5570.484449 kJ/mol
# Density = 1.935315 g / cm^3
# Si number density = 19.397299 Si / 1000 Ang^3
#
#
#
# Elastic Constant Matrix: (Units=GPa)
#
#
# Indices 1 2 3 4 5 6 
#
# 1 38.7033 21.3362 9.8461 0.0000 0.0000 0.0000
# 2 21.3362 117.5043 7.3183 0.0000 0.0000 0.0000
# 3 9.8461 7.3183 100.6970 0.0000 0.0000 0.0000
# 4 0.0000 0.0000 0.0000 20.3812 0.0000 0.0000
# 5 0.0000 0.0000 0.0000 0.0000 -79.1332 0.0000
# 6 0.0000 0.0000 0.0000 0.0000 0.0000 40.0171
#
#
#
# Elastic Compliance Matrix: (Units=1/GPa)
#
#
# Indices 1 2 3 4 5 6 
#
# 1 0.029321 -0.005169 -0.002491 0.000000 0.000000 0.000000
# 2 -0.005169 0.009460 -0.000182 0.000000 0.000000 0.000000
# 3 -0.002491 -0.000182 0.010188 0.000000 0.000000 0.000000
# 4 0.000000 0.000000 0.000000 0.049065 0.000000 0.000000
# 5 0.000000 0.000000 0.000000 0.000000 -0.012637 0.000000
# 6 0.000000 0.000000 0.000000 0.000000 0.000000 0.024989
#
#
# Mechanical properties :
#
#
# Convention : Reuss Voigt Hill
#
# Bulk Modulus (GPa) = 30.04443 37.10067 33.57255
# Shear Modulus (GPa) = 36.45243 10.81330 23.63287
#
# Velocity S-wave (km/s) = 4.33974 2.36363 3.49429
# Velocity P-wave (km/s) = 6.37446 5.15919 5.79875
#
# Compressibility (1/GPa) = 0.03328404
#
# Stress axis : x y z
#
# Youngs Moduli (GPa) = 34.10546 105.70576 98.15835
#
# Poissons Ratio (x) = 0.54638 0.24454
# Poissons Ratio (y) = 0.17629 0.01788
# Poissons Ratio (z) = 0.08497 0.01925
#
# Static dielectric constant tensor:
#      x y z
#    x 1.648210 0.000000 0.000000 
#    y 0.000000 1.728730 0.000000 
#    z 0.000000 0.000000 1.712280 
# 
# From -- ./inp_files/49943.got.cif
#   From: 2010.05.17/outbox.cif.g08.bks.cpg/sg66_25_cif.got.tgz:49943.got - 2010.06.03 17:51:23.
