data_PCOD9497977
_publ_section_title
;
Structure prediction by ZEFSAII (Michael W. Deem and Ramdas Pophale) SiO2 
 PCOD9497977
Probable space group: C C C M
;
_chemical_formula_sum "Si O2"
_cell_formula_units_Z 116
_cell_length_a 7.699061
_cell_length_b 24.294598
_cell_length_c 27.716020
_cell_angle_alpha 90.000000
_cell_angle_beta 90.000000
_cell_angle_gamma 90.000000
_cell_volume 5184.159368
_symmetry_space_group_name_H-M "C C C M"
_symmetry_group_IT_number 66
_symmetry_cell_setting 'orthorhombic'
loop_
_space_group_symop_operation_xyz
x,y,z
-x,-y,z
x,-y,1/2-z
-x,y,1/2-z
-x,-y,-z
x,y,-z
-x,y,1/2+z
x,-y,1/2+z
1/2+x,1/2+y,z
1/2-x,1/2-y,z
1/2+x,1/2-y,1/2-z
1/2-x,1/2+y,1/2-z
1/2-x,1/2-y,-z
1/2+x,1/2+y,-z
1/2-x,1/2+y,1/2+z
1/2+x,1/2-y,1/2+z
loop_
_atom_site_type_symbol
_atom_site_label
_atom_site_fract_x
_atom_site_fract_y
_atom_site_fract_z
Si Si1 0.997637 0.360867 0.093249
Si Si2 0.859655 0.401995 0.312626
Si Si3 0.172329 0.536639 0.447092
Si Si4 0.389165 0.362127 0.556723
Si Si5 0.000000 0.500000 0.250000
Si Si6 0.660189 0.696149 0.218556
Si Si7 0.458129 0.739245 0.876907
Si Si8 0.437200 0.448272 0.128102
O O1 0.817927 0.361720 0.064719
O O2 0.036943 0.297456 0.105220
O O3 0.997186 0.390574 0.145946
O O4 0.128003 0.399310 0.062945
O O5 0.896894 0.457205 0.283691
O O6 0.816947 0.347587 0.283094
O O7 0.676572 0.408614 0.339720
O O8 0.246152 0.529173 0.500000
O O9 0.304480 0.519120 0.406708
O O10 0.000000 0.500000 0.443432
O O11 0.430148 0.368553 0.500000
O O12 0.458634 0.305349 0.579985
O O13 0.455649 0.410362 0.591776
O O14 0.500000 0.674678 0.250000
O O15 0.750000 0.750000 0.240684
O O16 0.569987 0.716073 0.168038
O O17 0.250000 0.750000 0.865529
O O18 0.500000 0.500000 0.159314
#
# Coordination Sequence:
#
# PCOD9497977 Si02
#       8
#    16  16  16  16   4  16  16  16
#     4  10  22  40  68  91 138 183 224 278 352 415
#     4  11  27  48  71  99 140 179 228 293 356 435
#     4  10  21  37  59  91 127 177 235 280 329 407
#     4  11  23  39  66 104 141 186 239 288 344 418
#     4  12  32  48  78 108 134 180 250 298 372 444
#     4  12  25  45  75 107 139 181 236 292 362 436
#     4  10  22  42  66 100 142 182 230 286 351 416
#     4  11  24  40  65  92 132 178 222 284 351 412
#
# _framework density 22.375855000000001
#
# number of rings (size 3 to 8) (size 9 to 14) (size 15 to 20)
#    0.000    1.241    2.759    2.069    6.759    8.552 
#    0.000    0.000    0.000    2.897    0.000    0.000 
#    0.000    0.000    0.000    0.000    0.000    0.000 
#
# Total GULP energy -323671.229942 kJ/mol
# GULP energy per Si atom -5580.538447 kJ/mol
# Density = 2.232493 g / cm^3
# Si number density = 22.375855 Si / 1000 Ang^3
#
#
#
# Elastic Constant Matrix: (Units=GPa)
#
#
# Indices 1 2 3 4 5 6 
#
# 1 19.1358 7.9459 0.4199 0.0000 0.0000 0.0000
# 2 7.9459 141.1637 21.7658 0.0000 0.0000 0.0000
# 3 0.4199 21.7658 49.7611 0.0000 0.0000 0.0000
# 4 0.0000 0.0000 0.0000 21.0675 0.0000 0.0000
# 5 0.0000 0.0000 0.0000 0.0000 43.9268 0.0000
# 6 0.0000 0.0000 0.0000 0.0000 0.0000 30.0915
#
#
#
# Elastic Compliance Matrix: (Units=1/GPa)
#
#
# Indices 1 2 3 4 5 6 
#
# 1 0.053549 -0.003157 0.000929 0.000000 0.000000 0.000000
# 2 -0.003157 0.007782 -0.003377 0.000000 0.000000 0.000000
# 3 0.000929 -0.003377 0.021565 0.000000 0.000000 0.000000
# 4 0.000000 0.000000 0.000000 0.047466 0.000000 0.000000
# 5 0.000000 0.000000 0.000000 0.000000 0.022765 0.000000
# 6 0.000000 0.000000 0.000000 0.000000 0.000000 0.033232
#
#
# Mechanical properties :
#
#
# Convention : Reuss Voigt Hill
#
# Bulk Modulus (GPa) = 13.94985 30.03596 21.99290
# Shear Modulus (GPa) = 22.57676 31.01243 26.79460
#
# Velocity S-wave (km/s) = 3.17989 3.72691 3.46421
# Velocity P-wave (km/s) = 4.44186 5.65441 5.08441
#
# Compressibility (1/GPa) = 0.07168538
#
# Stress axis : x y z
#
# Youngs Moduli (GPa) = 18.67459 128.49400 46.37037
#
# Poissons Ratio (x) = 0.40571 -0.04309
# Poissons Ratio (y) = 0.05896 0.15661
# Poissons Ratio (z) = -0.01735 0.43398
#
# Static dielectric constant tensor:
#      x y z
#    x 1.901360 0.000000 0.000000 
#    y 0.000000 1.855050 0.000000 
#    z 0.000000 0.000000 1.803860 
# 
# From -- ./inp_files/62910.got.cif
#   From: 2010.05.17/outbox.cif.g08.bks.cpg/sg66_32_cif.got.tgz:62910.got - 2010.06.03 17:51:23.
