data_PCOD9497611
_publ_section_title
;
Structure prediction by ZEFSAII (Michael W. Deem and Ramdas Pophale) SiO2 
 PCOD9497611
Probable space group: C C C M
;
_chemical_formula_sum "Si O2"
_cell_formula_units_Z 80
_cell_length_a 24.266768
_cell_length_b 9.415548
_cell_length_c 18.745168
_cell_angle_alpha 90.000000
_cell_angle_beta 90.000000
_cell_angle_gamma 90.000000
_cell_volume 4282.988190
_symmetry_space_group_name_H-M "C C C M"
_symmetry_group_IT_number 66
_symmetry_cell_setting 'orthorhombic'
loop_
_space_group_symop_operation_xyz
x,y,z
-x,-y,z
x,-y,1/2-z
-x,y,1/2-z
-x,-y,-z
x,y,-z
-x,y,1/2+z
x,-y,1/2+z
1/2+x,1/2+y,z
1/2-x,1/2-y,z
1/2+x,1/2-y,1/2-z
1/2-x,1/2+y,1/2-z
1/2-x,1/2-y,-z
1/2+x,1/2+y,-z
1/2-x,1/2+y,1/2+z
1/2+x,1/2-y,1/2+z
loop_
_atom_site_type_symbol
_atom_site_label
_atom_site_fract_x
_atom_site_fract_y
_atom_site_fract_z
Si Si1 0.214953 0.391792 0.184722
Si Si2 0.700814 0.139457 0.084953
Si Si3 0.921143 0.648698 0.649922
Si Si4 0.086447 0.327820 0.814033
Si Si5 0.985109 0.835112 0.081560
O O1 0.226547 0.500000 0.250000
O O2 0.250000 0.250000 0.187132
O O3 0.220367 0.486394 0.113708
O O4 0.151839 0.343117 0.189372
O O5 0.750000 0.250000 0.101493
O O6 0.642467 0.169651 0.124832
O O7 0.691435 0.140164 0.000000
O O8 0.930901 0.692630 0.732151
O O9 0.932435 0.479461 0.653009
O O10 0.962408 0.737562 0.601333
O O11 0.063008 0.207309 0.864368
O O12 0.968608 0.807951 0.000000
O O13 0.000000 0.000000 0.088885
#
# Coordination Sequence:
#
# PCOD9497611 Si02
#       5
#    16  16  16  16  16
#     4  11  22  40  63  92 124 162 204 257 310 372
#     4  10  21  38  62  93 128 166 206 253 308 369
#     4  10  20  39  63  88 118 159 208 254 300 364
#     4  10  21  39  62  91 116 154 209 256 297 365
#     4  11  25  41  57  86 126 164 204 255 312 367
#
# _framework density 18.678546999999998
#
# number of rings (size 3 to 8) (size 9 to 14) (size 15 to 20)
#    0.000    1.600    4.000    2.400    0.000   10.000 
#    0.000    2.000    0.000    0.000    0.000    0.000 
#    0.000    0.000    0.000    0.000    0.000    0.000 
#
# Total GULP energy -223306.122768 kJ/mol
# GULP energy per Si atom -5582.653069 kJ/mol
# Density = 1.863603 g / cm^3
# Si number density = 18.678547 Si / 1000 Ang^3
#
#
#
# Elastic Constant Matrix: (Units=GPa)
#
#
# Indices 1 2 3 4 5 6 
#
# 1 26.8541 17.0495 8.8281 0.0000 0.0000 0.0000
# 2 17.0495 57.0602 40.2368 0.0000 0.0000 0.0000
# 3 8.8281 40.2368 96.0245 0.0000 0.0000 0.0000
# 4 0.0000 0.0000 0.0000 30.3075 0.0000 0.0000
# 5 0.0000 0.0000 0.0000 0.0000 26.2046 0.0000
# 6 0.0000 0.0000 0.0000 0.0000 0.0000 29.0394
#
#
#
# Elastic Compliance Matrix: (Units=1/GPa)
#
#
# Indices 1 2 3 4 5 6 
#
# 1 0.046277 -0.015369 0.002185 0.000000 0.000000 0.000000
# 2 -0.015369 0.029980 -0.011149 0.000000 0.000000 0.000000
# 3 0.002185 -0.011149 0.014885 0.000000 0.000000 0.000000
# 4 0.000000 0.000000 0.000000 0.032995 0.000000 0.000000
# 5 0.000000 0.000000 0.000000 0.000000 0.038161 0.000000
# 6 0.000000 0.000000 0.000000 0.000000 0.000000 0.034436
#
#
# Mechanical properties :
#
#
# Convention : Reuss Voigt Hill
#
# Bulk Modulus (GPa) = 23.54238 34.68531 29.11385
# Shear Modulus (GPa) = 19.26350 24.69859 21.98105
#
# Velocity S-wave (km/s) = 3.21490 3.64029 3.43418
# Velocity P-wave (km/s) = 5.13927 6.02319 5.59870
#
# Compressibility (1/GPa) = 0.04247658
#
# Stress axis : x y z
#
# Youngs Moduli (GPa) = 21.60889 33.35606 67.18192
#
# Poissons Ratio (x) = 0.51264 -0.14681
# Poissons Ratio (y) = 0.33210 0.74903
# Poissons Ratio (z) = -0.04722 0.37190
#
# Static dielectric constant tensor:
#      x y z
#    x 1.678240 0.000000 0.000000 
#    y 0.000000 1.616250 0.000000 
#    z 0.000000 0.000000 1.650780 
# 
# From -- ./inp_files/44086.got.cif
#   From: 2010.05.17/outbox.cif.g08.bks.cpg/sg66_23_cif.got.tgz:44086.got - 2010.06.03 17:51:23.
