data_PCOD9497355
_publ_section_title
;
Structure prediction by ZEFSAII (Michael W. Deem and Ramdas Pophale) SiO2 
 PCOD9497355
Probable space group: C C C M
;
_chemical_formula_sum "Si O2"
_cell_formula_units_Z 116
_cell_length_a 20.741114
_cell_length_b 27.869847
_cell_length_c 9.446277
_cell_angle_alpha 90.000000
_cell_angle_beta 90.000000
_cell_angle_gamma 90.000000
_cell_volume 5460.436231
_symmetry_space_group_name_H-M "C C C M"
_symmetry_group_IT_number 66
_symmetry_cell_setting 'orthorhombic'
loop_
_space_group_symop_operation_xyz
x,y,z
-x,-y,z
x,-y,1/2-z
-x,y,1/2-z
-x,-y,-z
x,y,-z
-x,y,1/2+z
x,-y,1/2+z
1/2+x,1/2+y,z
1/2-x,1/2-y,z
1/2+x,1/2-y,1/2-z
1/2-x,1/2+y,1/2-z
1/2-x,1/2-y,-z
1/2+x,1/2+y,-z
1/2-x,1/2+y,1/2+z
1/2+x,1/2-y,1/2+z
loop_
_atom_site_type_symbol
_atom_site_label
_atom_site_fract_x
_atom_site_fract_y
_atom_site_fract_z
Si Si1 0.877999 0.284758 0.830451
Si Si2 0.062428 0.624017 0.666851
Si Si3 0.500000 0.500000 0.750000
Si Si4 0.693545 0.076724 0.655906
Si Si5 0.907395 0.086863 0.341352
Si Si6 0.741826 0.186031 0.342724
Si Si7 0.397051 0.694314 0.660349
Si Si8 0.303567 0.545413 0.835896
O O1 0.912799 0.328742 0.749946
O O2 0.803797 0.288593 0.772830
O O3 0.909888 0.235364 0.775210
O O4 0.880331 0.289126 0.000000
O O5 0.051873 0.634711 0.500000
O O6 0.118063 0.583944 0.673782
O O7 0.000000 0.607394 0.750000
O O8 0.544921 0.459489 0.671481
O O9 0.708176 0.055472 0.500000
O O10 0.721431 0.130606 0.656766
O O11 0.731141 0.052914 0.783541
O O12 0.878515 0.084313 0.500000
O O13 0.931091 0.142105 0.327374
O O14 0.852924 0.084597 0.221567
O O15 0.722975 0.204106 0.500000
O O16 0.818859 0.187526 0.329070
O O17 0.410109 0.711944 0.500000
O O18 0.327429 0.500000 0.750000
O O19 0.308839 0.539790 0.000000
#
# Coordination Sequence:
#
# PCOD9497355 Si02
#       8
#    16  16   4  16  16  16  16  16
#     4  11  22  34  52  84 123 161 205 254 300 360
#     4  10  21  39  63  88 120 165 207 249 298 360
#     4  12  26  44  76  98 118 160 212 268 326 388
#     4   9  18  36  60  89 123 158 200 246 304 367
#     4  11  24  44  67  91 120 157 203 258 318 378
#     4   9  17  32  56  83 117 161 201 243 306 376
#     4  10  20  37  58  81 117 162 202 250 313 374
#     4  12  24  38  63  94 125 157 196 249 308 364
#
# _framework density 21.243725000000001
#
# number of rings (size 3 to 8) (size 9 to 14) (size 15 to 20)
#    0.000    1.655    2.069    4.345    0.000    6.069 
#    1.241    0.000    0.000    0.414    0.000    2.897 
#    0.000    0.000    0.000    0.000    0.000    0.000 
#
# Total GULP energy -323362.152388 kJ/mol
# GULP energy per Si atom -5575.209524 kJ/mol
# Density = 2.119537 g / cm^3
# Si number density = 21.243725 Si / 1000 Ang^3
#
#
#
# Elastic Constant Matrix: (Units=GPa)
#
#
# Indices 1 2 3 4 5 6 
#
# 1 68.0347 -2.4331 44.7324 0.0000 0.0000 0.0000
# 2 -2.4331 58.9183 38.6066 0.0000 0.0000 0.0000
# 3 44.7324 38.6066 194.2993 0.0000 0.0000 0.0000
# 4 0.0000 0.0000 0.0000 23.6019 0.0000 0.0000
# 5 0.0000 0.0000 0.0000 0.0000 -60.5843 0.0000
# 6 0.0000 0.0000 0.0000 0.0000 0.0000 15.0360
#
#
#
# Elastic Compliance Matrix: (Units=1/GPa)
#
#
# Indices 1 2 3 4 5 6 
#
# 1 0.018104 0.004000 -0.004963 0.000000 0.000000 0.000000
# 2 0.004000 0.020397 -0.004974 0.000000 0.000000 0.000000
# 3 -0.004963 -0.004974 0.007277 0.000000 0.000000 0.000000
# 4 0.000000 0.000000 0.000000 0.042369 0.000000 0.000000
# 5 0.000000 0.000000 0.000000 0.000000 -0.016506 0.000000
# 6 0.000000 0.000000 0.000000 0.000000 0.000000 0.066507
#
#
# Mechanical properties :
#
#
# Convention : Reuss Voigt Hill
#
# Bulk Modulus (GPa) = 29.49413 53.67381 41.58397
# Shear Modulus (GPa) = 30.99343 11.63381 21.31362
#
# Velocity S-wave (km/s) = 3.82376 2.34270 3.17091
# Velocity P-wave (km/s) = 5.78002 5.71299 5.74660
#
# Compressibility (1/GPa) = 0.03390505
#
# Stress axis : x y z
#
# Youngs Moduli (GPa) = 55.23516 49.02738 137.41028
#
# Poissons Ratio (x) = -0.19609 0.68194
# Poissons Ratio (y) = -0.22091 0.68342
# Poissons Ratio (z) = 0.27412 0.24384
#
# Static dielectric constant tensor:
#      x y z
#    x 1.830010 0.000000 0.000000 
#    y 0.000000 1.953420 0.000000 
#    z 0.000000 0.000000 1.767420 
# 
# From -- ./inp_files/9632.got.cif
#   From: 2010.05.17/outbox.cif.g08.bks.cpg/sg66_5_cif.got.tgz:9632.got - 2010.06.03 17:51:23.
