data_PCOD9497268
_publ_section_title
;
Structure prediction by ZEFSAII (Michael W. Deem and Ramdas Pophale) SiO2 
 PCOD9497268
Probable space group: C C C M
;
_chemical_formula_sum "Si O2"
_cell_formula_units_Z 80
_cell_length_a 16.647857
_cell_length_b 7.404815
_cell_length_c 29.696411
_cell_angle_alpha 90.000000
_cell_angle_beta 90.000000
_cell_angle_gamma 90.000000
_cell_volume 3660.804315
_symmetry_space_group_name_H-M "C C C M"
_symmetry_group_IT_number 66
_symmetry_cell_setting 'orthorhombic'
loop_
_space_group_symop_operation_xyz
x,y,z
-x,-y,z
x,-y,1/2-z
-x,y,1/2-z
-x,-y,-z
x,y,-z
-x,y,1/2+z
x,-y,1/2+z
1/2+x,1/2+y,z
1/2-x,1/2-y,z
1/2+x,1/2-y,1/2-z
1/2-x,1/2+y,1/2-z
1/2-x,1/2-y,-z
1/2+x,1/2+y,-z
1/2-x,1/2+y,1/2+z
1/2+x,1/2-y,1/2+z
loop_
_atom_site_type_symbol
_atom_site_label
_atom_site_fract_x
_atom_site_fract_y
_atom_site_fract_z
Si Si1 0.748032 0.472313 0.124781
Si Si2 0.465182 0.766499 0.949193
Si Si3 0.633731 0.391831 0.549765
Si Si4 0.417228 0.915169 0.851673
Si Si5 0.330600 0.632398 0.210626
O O1 0.750000 0.250000 0.116302
O O2 0.704852 0.572747 0.084397
O O3 0.836950 0.530807 0.139210
O O4 0.695138 0.493236 0.169048
O O5 0.561802 0.751119 0.943101
O O6 0.419152 0.575478 0.950455
O O7 0.434004 0.845934 0.902478
O O8 0.449654 0.841894 0.000000
O O9 0.666897 0.362837 0.500000
O O10 0.391720 0.769859 0.813628
O O11 0.500000 0.000000 0.836214
O O12 0.357932 0.500000 0.250000
O O13 0.250000 0.750000 0.223302
#
# Coordination Sequence:
#
# PCOD9497268 Si02
#       5
#    16  16  16  16  16
#     4   9  17  33  56  85 113 151 201 245 305 365
#     4   9  17  30  52  83 125 168 207 252 296 351
#     4   9  16  29  53  83 117 163 215 253 288 348
#     4  10  20  36  60  91 129 159 198 259 315 375
#     4   9  19  39  67  90 117 156 205 259 327 394
#
# _framework density 21.853121000000002
#
# number of rings (size 3 to 8) (size 9 to 14) (size 15 to 20)
#    0.000    3.200    4.000    1.200    0.000    1.600 
#    0.000    5.000    0.000   38.400    0.000    0.000 
#    0.000    0.800    0.000    0.000    0.000    0.200 
#
# Total GULP energy -222733.603489 kJ/mol
# GULP energy per Si atom -5568.340087 kJ/mol
# Density = 2.180338 g / cm^3
# Si number density = 21.853121 Si / 1000 Ang^3
#
#
#
# Elastic Constant Matrix: (Units=GPa)
#
#
# Indices 1 2 3 4 5 6 
#
# 1 157.2505 36.4166 76.2878 0.0000 0.0000 0.0000
# 2 36.4166 50.2476 44.2158 0.0000 0.0000 0.0000
# 3 76.2878 44.2158 154.5505 0.0000 0.0000 0.0000
# 4 0.0000 0.0000 0.0000 2.6298 0.0000 0.0000
# 5 0.0000 0.0000 0.0000 0.0000 15.4300 0.0000
# 6 0.0000 0.0000 0.0000 0.0000 0.0000 21.9419
#
#
#
# Elastic Compliance Matrix: (Units=1/GPa)
#
#
# Indices 1 2 3 4 5 6 
#
# 1 0.008777 -0.003406 -0.003358 0.000000 0.000000 0.000000
# 2 -0.003406 0.027919 -0.006306 0.000000 0.000000 0.000000
# 3 -0.003358 -0.006306 0.009932 0.000000 0.000000 0.000000
# 4 0.000000 0.000000 0.000000 0.380256 0.000000 0.000000
# 5 0.000000 0.000000 0.000000 0.000000 0.064809 0.000000
# 6 0.000000 0.000000 0.000000 0.000000 0.000000 0.045575
#
#
# Mechanical properties :
#
#
# Convention : Reuss Voigt Hill
#
# Bulk Modulus (GPa) = 48.80982 75.09878 61.95430
# Shear Modulus (GPa) = 8.76827 21.67558 15.22192
#
# Velocity S-wave (km/s) = 2.00526 3.15282 2.64210
# Velocity P-wave (km/s) = 5.26738 6.90605 6.14162
#
# Compressibility (1/GPa) = 0.02048768
#
# Stress axis : x y z
#
# Youngs Moduli (GPa) = 113.93136 35.81752 100.68410
#
# Poissons Ratio (x) = 0.12201 0.33810
# Poissons Ratio (y) = 0.38809 0.63492
# Poissons Ratio (z) = 0.38258 0.22587
#
# Static dielectric constant tensor:
#      x y z
#    x 1.838610 0.000000 0.000000 
#    y 0.000000 1.925780 0.000000 
#    z 0.000000 0.000000 1.771610 
# 
# From -- ./inp_files/69870.got.cif
#   From: 2010.05.17/outbox.cif.g08.bks.cpg/sg66_35_cif.got.tgz:69870.got - 2010.06.03 17:51:23.
