data_PCOD9497318
_publ_section_title
;
Structure prediction by ZEFSAII (Michael W. Deem and Ramdas Pophale) SiO2 
 PCOD9497318
Probable space group: C C C M
;
_chemical_formula_sum "Si O2"
_cell_formula_units_Z 96
_cell_length_a 15.763438
_cell_length_b 19.048215
_cell_length_c 14.062712
_cell_angle_alpha 90.000000
_cell_angle_beta 90.000000
_cell_angle_gamma 90.000000
_cell_volume 4222.545227
_symmetry_space_group_name_H-M "C C C M"
_symmetry_group_IT_number 66
_symmetry_cell_setting 'orthorhombic'
loop_
_space_group_symop_operation_xyz
x,y,z
-x,-y,z
x,-y,1/2-z
-x,y,1/2-z
-x,-y,-z
x,y,-z
-x,y,1/2+z
x,-y,1/2+z
1/2+x,1/2+y,z
1/2-x,1/2-y,z
1/2+x,1/2-y,1/2-z
1/2-x,1/2+y,1/2-z
1/2-x,1/2-y,-z
1/2+x,1/2+y,-z
1/2-x,1/2+y,1/2+z
1/2+x,1/2-y,1/2+z
loop_
_atom_site_type_symbol
_atom_site_label
_atom_site_fract_x
_atom_site_fract_y
_atom_site_fract_z
Si Si1 0.126275 0.302161 0.609046
Si Si2 0.578683 0.955187 0.386683
Si Si3 0.465855 0.714586 0.387876
Si Si4 0.182251 0.694963 0.309337
Si Si5 0.428165 0.444503 0.884156
Si Si6 0.235251 0.455925 0.115011
O O1 0.158838 0.305270 0.500000
O O2 0.070371 0.372424 0.626046
O O3 0.191208 0.306767 0.695164
O O4 0.064203 0.235988 0.618824
O O5 0.579726 0.966176 0.500000
O O6 0.500000 0.000000 0.349962
O O7 0.669877 0.983641 0.353736
O O8 0.443484 0.719227 0.500000
O O9 0.408341 0.771244 0.334028
O O10 0.448081 0.635516 0.354530
O O11 0.250000 0.750000 0.350088
O O12 0.197871 0.618485 0.351235
O O13 0.500000 0.500000 0.855191
O O14 0.332686 0.463836 0.853764
O O15 0.429069 0.443948 0.000000
O O16 0.237056 0.455160 0.000000
#
# Coordination Sequence:
#
# PCOD9497318 Si02
#       6
#    16  16  16  16  16  16
#     4  10  23  42  61  85 122 171 216 256 309 382
#     4   9  18  36  62  92 125 160 202 252 313 382
#     4  10  20  38  65  95 126 159 207 264 327 388
#     4  12  23  37  61  91 127 161 205 264 320 378
#     4   9  18  35  61  93 126 164 207 256 320 387
#     4  10  20  36  63  99 132 161 203 262 326 386
#
# _framework density 22.735102999999999
#
# number of rings (size 3 to 8) (size 9 to 14) (size 15 to 20)
#    0.000    2.000    1.667    2.000    0.000    4.333 
#    3.000    0.833    0.000    2.000    0.000    0.000 
#    0.000    0.667    0.000    0.000    0.000    0.000 
#
# Total GULP energy -268241.811654 kJ/mol
# GULP energy per Si atom -5588.371076 kJ/mol
# Density = 2.268336 g / cm^3
# Si number density = 22.735103 Si / 1000 Ang^3
#
#
#
# Elastic Constant Matrix: (Units=GPa)
#
#
# Indices 1 2 3 4 5 6 
#
# 1 93.7428 63.9059 5.2680 0.0000 0.0000 0.0000
# 2 63.9059 98.6873 7.3454 0.0000 0.0000 0.0000
# 3 5.2680 7.3454 89.1526 0.0000 0.0000 0.0000
# 4 0.0000 0.0000 0.0000 5.9469 0.0000 0.0000
# 5 0.0000 0.0000 0.0000 0.0000 -2.8560 0.0000
# 6 0.0000 0.0000 0.0000 0.0000 0.0000 43.0552
#
#
#
# Elastic Compliance Matrix: (Units=1/GPa)
#
#
# Indices 1 2 3 4 5 6 
#
# 1 0.019100 -0.012360 -0.000110 0.000000 0.000000 0.000000
# 2 -0.012360 0.018194 -0.000769 0.000000 0.000000 0.000000
# 3 -0.000110 -0.000769 0.011287 0.000000 0.000000 0.000000
# 4 0.000000 0.000000 0.000000 0.168156 0.000000 0.000000
# 5 0.000000 0.000000 0.000000 0.000000 -0.350136 0.000000
# 6 0.000000 0.000000 0.000000 0.000000 0.000000 0.023226
#
#
# Mechanical properties :
#
#
# Convention : Reuss Voigt Hill
#
# Bulk Modulus (GPa) = 45.24373 48.29125 46.76749
# Shear Modulus (GPa) = -65.50636 22.90010 -21.30313
#
# Velocity S-wave (km/s) = -5.37359 3.17718 -3.06439
# Velocity P-wave (km/s) = 4.30778 5.89459 2.84510
#
# Compressibility (1/GPa) = 0.02210251
#
# Stress axis : x y z
#
# Youngs Moduli (GPa) = 52.35690 54.96303 88.60085
#
# Poissons Ratio (x) = 0.67934 0.00977
# Poissons Ratio (y) = 0.64713 0.06811
# Poissons Ratio (z) = 0.00577 0.04225
#
# Static dielectric constant tensor:
#      x y z
#    x 1.843330 0.000000 0.000000 
#    y 0.000000 1.819280 0.000000 
#    z 0.000000 0.000000 1.863120 
# 
# From -- ./inp_files/28323.got.cif
#   From: 2010.05.17/outbox.cif.g08.bks.cpg/sg66_15_cif.got.tgz:28323.got - 2010.06.03 17:51:23.
