data_PCOD9497429
_publ_section_title
;
Structure prediction by ZEFSAII (Michael W. Deem and Ramdas Pophale) SiO2 
 PCOD9497429
Probable space group: C C C M
;
_chemical_formula_sum "Si O2"
_cell_formula_units_Z 80
_cell_length_a 14.656602
_cell_length_b 20.297817
_cell_length_c 14.094809
_cell_angle_alpha 90.000000
_cell_angle_beta 90.000000
_cell_angle_gamma 90.000000
_cell_volume 4193.163749
_symmetry_space_group_name_H-M "C C C M"
_symmetry_group_IT_number 66
_symmetry_cell_setting 'orthorhombic'
loop_
_space_group_symop_operation_xyz
x,y,z
-x,-y,z
x,-y,1/2-z
-x,y,1/2-z
-x,-y,-z
x,y,-z
-x,y,1/2+z
x,-y,1/2+z
1/2+x,1/2+y,z
1/2-x,1/2-y,z
1/2+x,1/2-y,1/2-z
1/2-x,1/2+y,1/2-z
1/2-x,1/2-y,-z
1/2+x,1/2+y,-z
1/2-x,1/2+y,1/2+z
1/2+x,1/2-y,1/2+z
loop_
_atom_site_type_symbol
_atom_site_label
_atom_site_fract_x
_atom_site_fract_y
_atom_site_fract_z
Si Si1 0.130838 0.420992 0.255956
Si Si2 0.162156 0.100890 0.723795
Si Si3 0.142680 0.769493 0.112415
Si Si4 0.512384 0.854789 0.610851
Si Si5 0.895946 0.977443 0.894547
O O1 0.126694 0.500000 0.250000
O O2 0.232437 0.394498 0.247964
O O3 0.092289 0.405199 0.360397
O O4 0.069468 0.380994 0.178572
O O5 0.126404 0.165771 0.673800
O O6 0.109921 0.080934 0.819059
O O7 0.156400 0.039273 0.651319
O O8 0.250000 0.750000 0.129601
O O9 0.065050 0.714304 0.132536
O O10 0.136917 0.783726 0.000000
O O11 0.488146 0.855745 0.500000
O O12 0.862977 0.961171 0.000000
O O13 0.000000 0.000000 0.899632
#
# Coordination Sequence:
#
# PCOD9497429 Si02
#       5
#    16  16  16  16  16
#     4  11  22  38  58  93 129 160 207 253 315 380
#     4  11  20  38  64  92 122 162 204 259 315 367
#     4  10  20  37  62  88 116 158 212 259 301 361
#     4  10  22  39  58  85 125 167 207 254 301 365
#     4  10  22  41  62  91 123 155 206 258 313 376
#
# _framework density 19.078672999999998
#
# number of rings (size 3 to 8) (size 9 to 14) (size 15 to 20)
#    0.000    1.600    4.000    3.000    0.000    3.200 
#    7.200    0.000    0.000    0.600    0.000    0.000 
#    0.000    0.000    0.000    0.000    0.000    0.000 
#
# Total GULP energy -222905.750111 kJ/mol
# GULP energy per Si atom -5572.643753 kJ/mol
# Density = 1.903525 g / cm^3
# Si number density = 19.078673 Si / 1000 Ang^3
#
#
#
# Elastic Constant Matrix: (Units=GPa)
#
#
# Indices 1 2 3 4 5 6 
#
# 1 80.5375 24.7531 26.6748 0.0000 0.0000 0.0000
# 2 24.7531 124.3320 59.9991 0.0000 0.0000 0.0000
# 3 26.6748 59.9991 105.8788 0.0000 0.0000 0.0000
# 4 0.0000 0.0000 0.0000 -50.6513 0.0000 0.0000
# 5 0.0000 0.0000 0.0000 0.0000 30.3899 0.0000
# 6 0.0000 0.0000 0.0000 0.0000 0.0000 -3.6937
#
#
#
# Elastic Compliance Matrix: (Units=1/GPa)
#
#
# Indices 1 2 3 4 5 6 
#
# 1 0.013738 -0.001466 -0.002631 0.000000 0.000000 0.000000
# 2 -0.001466 0.011227 -0.005993 0.000000 0.000000 0.000000
# 3 -0.002631 -0.005993 0.013503 0.000000 0.000000 0.000000
# 4 0.000000 0.000000 0.000000 -0.019743 0.000000 0.000000
# 5 0.000000 0.000000 0.000000 0.000000 0.032906 0.000000
# 6 0.000000 0.000000 0.000000 0.000000 0.000000 -0.270729
#
#
# Mechanical properties :
#
#
# Convention : Reuss Voigt Hill
#
# Bulk Modulus (GPa) = 54.67316 59.28915 56.98116
# Shear Modulus (GPa) = -25.93050 8.49703 -8.71673
#
# Velocity S-wave (km/s) = -3.69064 2.11266 -2.13980
# Velocity P-wave (km/s) = 3.24927 6.09054 4.88121
#
# Compressibility (1/GPa) = 0.01829051
#
# Stress axis : x y z
#
# Youngs Moduli (GPa) = 72.78897 89.07368 74.05535
#
# Poissons Ratio (x) = 0.13055 0.19481
# Poissons Ratio (y) = 0.10669 0.44379
# Poissons Ratio (z) = 0.19148 0.53379
#
# Static dielectric constant tensor:
#      x y z
#    x 1.770760 0.000000 0.000000 
#    y 0.000000 1.705560 0.000000 
#    z 0.000000 0.000000 1.683010 
# 
# From -- ./inp_files/28118.got.cif
#   From: 2010.05.17/outbox.cif.g08.bks.cpg/sg66_15_cif.got.tgz:28118.got - 2010.06.03 17:51:23.
