data_PCOD9497102
_publ_section_title
;
Structure prediction by ZEFSAII (Michael W. Deem and Ramdas Pophale) SiO2 
 PCOD9497102
Probable space group: C C C M
;
_chemical_formula_sum "Si O2"
_cell_formula_units_Z 88
_cell_length_a 12.112573
_cell_length_b 18.213624
_cell_length_c 22.082354
_cell_angle_alpha 90.000000
_cell_angle_beta 90.000000
_cell_angle_gamma 90.000000
_cell_volume 4871.673140
_symmetry_space_group_name_H-M "C C C M"
_symmetry_group_IT_number 66
_symmetry_cell_setting 'orthorhombic'
loop_
_space_group_symop_operation_xyz
x,y,z
-x,-y,z
x,-y,1/2-z
-x,y,1/2-z
-x,-y,-z
x,y,-z
-x,y,1/2+z
x,-y,1/2+z
1/2+x,1/2+y,z
1/2-x,1/2-y,z
1/2+x,1/2-y,1/2-z
1/2-x,1/2+y,1/2-z
1/2-x,1/2-y,-z
1/2+x,1/2+y,-z
1/2-x,1/2+y,1/2+z
1/2+x,1/2-y,1/2+z
loop_
_atom_site_type_symbol
_atom_site_label
_atom_site_fract_x
_atom_site_fract_y
_atom_site_fract_z
Si Si1 0.798955 0.101211 0.570875
Si Si2 0.134145 0.295014 0.570537
Si Si3 0.521347 0.419628 0.851452
Si Si4 0.488610 0.261439 0.183597
Si Si5 0.740936 0.558664 0.429176
Si Si6 0.750000 0.750000 0.130048
O O1 0.821044 0.104770 0.500000
O O2 0.741284 0.175758 0.591273
O O3 0.916025 0.093014 0.604747
O O4 0.730936 0.026439 0.583280
O O5 0.094652 0.284601 0.500000
O O6 0.250000 0.250000 0.574931
O O7 0.165872 0.380356 0.579957
O O8 0.053752 0.270157 0.624819
O O9 0.500000 0.500000 0.822878
O O10 0.527836 0.346230 0.812441
O O11 0.633515 0.423597 0.889779
O O12 0.500000 0.225988 0.250000
O O13 0.359698 0.258682 0.168793
O O14 0.709382 0.563968 0.500000
#
# Coordination Sequence:
#
# PCOD9497102 Si02
#       6
#    16  16  16  16  16   8
#     4   9  17  30  51  80 115 149 183 228 281 345
#     4  10  20  35  59  88 114 145 191 241 284 327
#     4   9  17  30  50  80 113 143 181 233 288 342
#     4  11  24  38  58  81 113 152 193 235 285 349
#     4   9  16  29  53  84 113 144 185 237 290 327
#     4  10  23  38  52  78 109 154 192 222 288 346
#
# _framework density 18.063609
#
# number of rings (size 3 to 8) (size 9 to 14) (size 15 to 20)
#    0.000    2.364    1.818    0.818    1.273    6.182 
#    0.000    0.909    0.000    5.455    0.000    0.000 
#    0.000    0.000    0.000    0.000    0.000    0.000 
#
# Total GULP energy -245029.566095 kJ/mol
# GULP energy per Si atom -5568.853775 kJ/mol
# Density = 1.802250 g / cm^3
# Si number density = 18.063609 Si / 1000 Ang^3
#
#
#
# Elastic Constant Matrix: (Units=GPa)
#
#
# Indices 1 2 3 4 5 6 
#
# 1 48.2539 22.2382 36.8757 0.0000 0.0000 0.0000
# 2 22.2382 116.7389 43.5346 0.0000 0.0000 0.0000
# 3 36.8757 43.5346 103.3761 0.0000 0.0000 0.0000
# 4 0.0000 0.0000 0.0000 2.0409 0.0000 0.0000
# 5 0.0000 0.0000 0.0000 0.0000 3.5847 0.0000
# 6 0.0000 0.0000 0.0000 0.0000 0.0000 21.2970
#
#
#
# Elastic Compliance Matrix: (Units=1/GPa)
#
#
# Indices 1 2 3 4 5 6 
#
# 1 0.028866 -0.001968 -0.009468 0.000000 0.000000 0.000000
# 2 -0.001968 0.010296 -0.003634 0.000000 0.000000 0.000000
# 3 -0.009468 -0.003634 0.014581 0.000000 0.000000 0.000000
# 4 0.000000 0.000000 0.000000 0.489973 0.000000 0.000000
# 5 0.000000 0.000000 0.000000 0.000000 0.278964 0.000000
# 6 0.000000 0.000000 0.000000 0.000000 0.000000 0.046955
#
#
# Mechanical properties :
#
#
# Convention : Reuss Voigt Hill
#
# Bulk Modulus (GPa) = 42.36695 52.62955 47.49825
# Shear Modulus (GPa) = 5.50877 16.43255 10.97066
#
# Velocity S-wave (km/s) = 1.74822 3.01940 2.46709
# Velocity P-wave (km/s) = 5.25169 6.43076 5.87090
#
# Compressibility (1/GPa) = 0.02360330
#
# Stress axis : x y z
#
# Youngs Moduli (GPa) = 34.64246 97.12295 68.58118
#
# Poissons Ratio (x) = 0.19114 0.64934
# Poissons Ratio (y) = 0.06818 0.24923
# Poissons Ratio (z) = 0.32800 0.35295
#
# Static dielectric constant tensor:
#      x y z
#    x 1.589580 0.000000 0.000000 
#    y 0.000000 1.702030 0.000000 
#    z 0.000000 0.000000 1.621790 
# 
# From -- ./inp_files/48546.got.cif
#   From: 2010.05.17/outbox.cif.g08.bks.cpg/sg66_25_cif.got.tgz:48546.got - 2010.06.03 17:51:23.
