data_PCOD9497646
_publ_section_title
;
Structure prediction by ZEFSAII (Michael W. Deem and Ramdas Pophale) SiO2 
 PCOD9497646
Probable space group: C C C M
;
_chemical_formula_sum "Si O2"
_cell_formula_units_Z 104
_cell_length_a 11.556705
_cell_length_b 29.331849
_cell_length_c 16.143307
_cell_angle_alpha 90.000000
_cell_angle_beta 90.000000
_cell_angle_gamma 90.000000
_cell_volume 5472.250555
_symmetry_space_group_name_H-M "C C C M"
_symmetry_group_IT_number 66
_symmetry_cell_setting 'orthorhombic'
loop_
_space_group_symop_operation_xyz
x,y,z
-x,-y,z
x,-y,1/2-z
-x,y,1/2-z
-x,-y,-z
x,y,-z
-x,y,1/2+z
x,-y,1/2+z
1/2+x,1/2+y,z
1/2-x,1/2-y,z
1/2+x,1/2-y,1/2-z
1/2-x,1/2+y,1/2-z
1/2-x,1/2-y,-z
1/2+x,1/2+y,-z
1/2-x,1/2+y,1/2+z
1/2+x,1/2-y,1/2+z
loop_
_atom_site_type_symbol
_atom_site_label
_atom_site_fract_x
_atom_site_fract_y
_atom_site_fract_z
Si Si1 0.657619 0.390681 0.407584
Si Si2 0.741919 0.552344 0.753072
Si Si3 0.737382 0.197257 0.845417
Si Si4 0.989424 0.649589 0.593243
Si Si5 0.923232 0.122784 0.166779
Si Si6 0.500000 0.917175 0.750000
Si Si7 0.711304 0.199130 0.647120
O O1 0.695490 0.401304 0.500000
O O2 0.711103 0.425132 0.341212
O O3 0.519055 0.391689 0.399038
O O4 0.701638 0.340019 0.383986
O O5 0.704576 0.500000 0.750000
O O6 0.671153 0.583958 0.688395
O O7 0.879659 0.556136 0.740884
O O8 0.750000 0.250000 0.868622
O O9 0.635068 0.172399 0.893793
O O10 0.854516 0.168434 0.855411
O O11 0.706167 0.195300 0.747166
O O12 0.999871 0.630959 0.500000
O O13 0.008891 0.613681 0.667257
O O14 0.088018 0.687317 0.608083
O O15 0.000000 0.130183 0.250000
O O16 0.750000 0.250000 0.626168
#
# Coordination Sequence:
#
# PCOD9497646 Si02
#       7
#    16  16  16  16  16   8  16
#     4  11  23  40  64  93 128 162 206 263 312 372
#     4  11  23  43  70  91 117 158 206 257 321 388
#     4  11  22  38  63  90 129 171 214 258 308 365
#     4  12  23  39  65  92 129 171 209 258 314 370
#     4  10  20  40  59  89 120 163 204 250 313 368
#     4  12  21  46  64  96 124 162 206 260 325 374
#     4  11  22  39  64  92 129 174 218 258 300 365
#
# _framework density 19.004978000000001
#
# number of rings (size 3 to 8) (size 9 to 14) (size 15 to 20)
#    0.000    0.923    7.692    0.692    2.154    4.923 
#    0.000    2.308    0.000    1.846    0.000    0.000 
#    0.000    0.000    0.000    0.000    0.000    0.000 
#
# Total GULP energy -290497.714731 kJ/mol
# GULP energy per Si atom -5586.494514 kJ/mol
# Density = 1.896172 g / cm^3
# Si number density = 19.004978 Si / 1000 Ang^3
#
#
#
# Elastic Constant Matrix: (Units=GPa)
#
#
# Indices 1 2 3 4 5 6 
#
# 1 111.5463 32.1871 1.9555 0.0000 0.0000 0.0000
# 2 32.1871 119.7066 21.6091 0.0000 0.0000 0.0000
# 3 1.9555 21.6091 81.4535 0.0000 0.0000 0.0000
# 4 0.0000 0.0000 0.0000 -10.2696 0.0000 0.0000
# 5 0.0000 0.0000 0.0000 0.0000 6.8011 0.0000
# 6 0.0000 0.0000 0.0000 0.0000 0.0000 2.1199
#
#
#
# Elastic Compliance Matrix: (Units=1/GPa)
#
#
# Indices 1 2 3 4 5 6 
#
# 1 0.009737 -0.002706 0.000484 0.000000 0.000000 0.000000
# 2 -0.002706 0.009526 -0.002462 0.000000 0.000000 0.000000
# 3 0.000484 -0.002462 0.012919 0.000000 0.000000 0.000000
# 4 0.000000 0.000000 0.000000 -0.097374 0.000000 0.000000
# 5 0.000000 0.000000 0.000000 0.000000 0.147034 0.000000
# 6 0.000000 0.000000 0.000000 0.000000 0.000000 0.471721
#
#
# Mechanical properties :
#
#
# Convention : Reuss Voigt Hill
#
# Bulk Modulus (GPa) = 43.83281 47.13442 45.48361
# Shear Modulus (GPa) = 8.76373 16.86059 12.81216
#
# Velocity S-wave (km/s) = 2.14972 2.98177 2.59925
# Velocity P-wave (km/s) = 5.41070 6.05884 5.74392
#
# Compressibility (1/GPa) = 0.02281396
#
# Stress axis : x y z
#
# Youngs Moduli (GPa) = 102.70008 104.97930 77.40823
#
# Poissons Ratio (x) = 0.28402 -0.03747
# Poissons Ratio (y) = 0.27786 0.19059
# Poissons Ratio (z) = -0.04971 0.25847
#
# Static dielectric constant tensor:
#      x y z
#    x 1.671910 0.000000 0.000000 
#    y 0.000000 1.636660 0.000000 
#    z 0.000000 0.000000 2.372410 
# 
# From -- ./inp_files/39064.got.cif
#   From: 2010.05.17/outbox.cif.g08.bks.cpg/sg66_20_cif.got.tgz:39064.got - 2010.06.03 17:51:23.
