data_PCOD9497465
_publ_section_title
;
Structure prediction by ZEFSAII (Michael W. Deem and Ramdas Pophale) SiO2 
 PCOD9497465
Probable space group: C C C M
;
_chemical_formula_sum "Si O2"
_cell_formula_units_Z 64
_cell_length_a 16.962975
_cell_length_b 9.802303
_cell_length_c 14.586742
_cell_angle_alpha 90.000000
_cell_angle_beta 90.000000
_cell_angle_gamma 90.000000
_cell_volume 2425.428333
_symmetry_space_group_name_H-M "C C C M"
_symmetry_group_IT_number 66
_symmetry_cell_setting 'orthorhombic'
loop_
_space_group_symop_operation_xyz
x,y,z
-x,-y,z
x,-y,1/2-z
-x,y,1/2-z
-x,-y,-z
x,y,-z
-x,y,1/2+z
x,-y,1/2+z
1/2+x,1/2+y,z
1/2-x,1/2-y,z
1/2+x,1/2-y,1/2-z
1/2-x,1/2+y,1/2-z
1/2-x,1/2-y,-z
1/2+x,1/2+y,-z
1/2-x,1/2+y,1/2+z
1/2+x,1/2-y,1/2+z
loop_
_atom_site_type_symbol
_atom_site_label
_atom_site_fract_x
_atom_site_fract_y
_atom_site_fract_z
Si Si1 0.000575 0.339842 0.389334
Si Si2 0.674889 0.835650 0.388213
Si Si3 0.247943 0.602631 0.395198
Si Si4 0.921795 0.931293 0.150628
O O1 0.990350 0.335812 0.500000
O O2 0.088144 0.287670 0.364122
O O3 0.000000 0.500000 0.363615
O O4 0.939647 0.230981 0.348988
O O5 0.676555 0.837749 0.500000
O O6 0.750000 0.750000 0.358403
O O7 0.690602 0.989572 0.355949
O O8 0.220497 0.623066 0.500000
O O9 0.250000 0.750000 0.349745
O O10 0.337349 0.547360 0.395890
O O11 0.915162 0.000000 0.250000
O O12 0.000000 0.000000 0.107045
#
# Coordination Sequence:
#
# PCOD9497465 Si02
#       4
#    16  16  16  16
#     4  10  20  37  65  96 123 158 210 273 329 373
#     4   9  17  30  53  88 121 148 189 251 320 375
#     4  10  20  37  64  95 124 158 209 273 329 378
#     4  11  24  41  58  89 134 178 220 257 317 399
#
# _framework density 26.387091000000002
#
# number of rings (size 3 to 8) (size 9 to 14) (size 15 to 20)
#    0.000    2.000    0.000    3.750    0.000    8.000 
#    0.000    8.750    0.000    0.000    0.000    0.000 
#    0.000    0.000    0.000    0.000    0.000    0.000 
#
# Total GULP energy -179192.359467 kJ/mol
# GULP energy per Si atom -5599.761233 kJ/mol
# Density = 2.632703 g / cm^3
# Si number density = 26.387091 Si / 1000 Ang^3
#
#
#
# Elastic Constant Matrix: (Units=GPa)
#
#
# Indices 1 2 3 4 5 6 
#
# 1 106.8683 4.4556 1.6312 0.0000 0.0000 0.0000
# 2 4.4556 137.1036 30.0388 0.0000 0.0000 0.0000
# 3 1.6312 30.0388 122.7364 0.0000 0.0000 0.0000
# 4 0.0000 0.0000 0.0000 18.9265 0.0000 0.0000
# 5 0.0000 0.0000 0.0000 0.0000 -52.6688 0.0000
# 6 0.0000 0.0000 0.0000 0.0000 0.0000 51.1545
#
#
#
# Elastic Compliance Matrix: (Units=1/GPa)
#
#
# Indices 1 2 3 4 5 6 
#
# 1 0.009370 -0.000293 -0.000053 0.000000 0.000000 0.000000
# 2 -0.000293 0.007716 -0.001885 0.000000 0.000000 0.000000
# 3 -0.000053 -0.001885 0.008609 0.000000 0.000000 0.000000
# 4 0.000000 0.000000 0.000000 0.052836 0.000000 0.000000
# 5 0.000000 0.000000 0.000000 0.000000 -0.018987 0.000000
# 6 0.000000 0.000000 0.000000 0.000000 0.000000 0.019549
#
#
# Mechanical properties :
#
#
# Convention : Reuss Voigt Hill
#
# Bulk Modulus (GPa) = 47.09148 48.77329 47.93238
# Shear Modulus (GPa) = 55.16739 25.52129 40.34434
#
# Velocity S-wave (km/s) = 4.57737 3.11334 3.91441
# Velocity P-wave (km/s) = 6.76917 5.60783 6.21568
#
# Compressibility (1/GPa) = 0.02123526
#
# Stress axis : x y z
#
# Youngs Moduli (GPa) = 106.71981 129.59787 116.15103
#
# Poissons Ratio (x) = 0.03796 0.00614
# Poissons Ratio (y) = 0.03126 0.21890
# Poissons Ratio (z) = 0.00564 0.24424
#
# Static dielectric constant tensor:
#      x y z
#    x 1.988840 0.000000 0.000000 
#    y 0.000000 2.111450 0.000000 
#    z 0.000000 0.000000 2.027300 
# 
# From -- ./inp_files/50503.got.cif
#   From: 2010.05.17/outbox.cif.g08.bks.cpg/sg66_26_cif.got.tgz:50503.got - 2010.06.03 17:51:23.
