data_PCOD9497256
_publ_section_title
;
Structure prediction by ZEFSAII (Michael W. Deem and Ramdas Pophale) SiO2 
 PCOD9497256
Probable space group: C C C M
;
_chemical_formula_sum "Si O2"
_cell_formula_units_Z 96
_cell_length_a 20.375309
_cell_length_b 14.276654
_cell_length_c 15.935704
_cell_angle_alpha 90.000000
_cell_angle_beta 90.000000
_cell_angle_gamma 90.000000
_cell_volume 4635.556645
_symmetry_space_group_name_H-M "C C C M"
_symmetry_group_IT_number 66
_symmetry_cell_setting 'orthorhombic'
loop_
_space_group_symop_operation_xyz
x,y,z
-x,-y,z
x,-y,1/2-z
-x,y,1/2-z
-x,-y,-z
x,y,-z
-x,y,1/2+z
x,-y,1/2+z
1/2+x,1/2+y,z
1/2-x,1/2-y,z
1/2+x,1/2-y,1/2-z
1/2-x,1/2+y,1/2-z
1/2-x,1/2-y,-z
1/2+x,1/2+y,-z
1/2-x,1/2+y,1/2+z
1/2+x,1/2-y,1/2+z
loop_
_atom_site_type_symbol
_atom_site_label
_atom_site_fract_x
_atom_site_fract_y
_atom_site_fract_z
Si Si1 0.508818 0.301675 0.601251
Si Si2 0.519955 0.901600 0.098405
Si Si3 0.397866 0.433850 0.327005
Si Si4 0.152675 0.422820 0.815990
Si Si5 0.145700 0.211805 0.799062
Si Si6 0.786633 0.935103 0.098081
O O1 0.520930 0.304658 0.500000
O O2 0.486134 0.195492 0.626067
O O3 0.457623 0.382492 0.625966
O O4 0.575159 0.306260 0.655586
O O5 0.597800 0.900341 0.113975
O O6 0.500000 0.000000 0.138056
O O7 0.505778 0.905251 0.000000
O O8 0.420737 0.500000 0.250000
O O9 0.355681 0.351904 0.283393
O O10 0.348097 0.496918 0.381169
O O11 0.129229 0.500000 0.750000
O O12 0.160610 0.318920 0.777972
O O13 0.219866 0.461798 0.854655
O O14 0.195185 0.166404 0.865210
O O15 0.775632 0.932388 0.000000
#
# Coordination Sequence:
#
# PCOD9497256 Si02
#       6
#    16  16  16  16  16  16
#     4  10  20  36  60  88 121 158 199 245 297 357
#     4   9  20  38  60  87 118 153 196 246 296 352
#     4  10  22  39  59  88 127 162 200 250 307 365
#     4  11  23  38  61  89 118 156 199 251 300 357
#     4  10  22  38  59  88 120 158 202 246 300 356
#     4  11  23  40  62  86 117 159 205 251 301 360
#
# _framework density 20.709485999999998
#
# number of rings (size 3 to 8) (size 9 to 14) (size 15 to 20)
#    0.000    1.833    0.000    4.000    2.333    7.667 
#    0.000    4.167    0.000    1.000    0.000    0.000 
#    0.000    0.000    0.000    0.000    0.000    0.000 
#
# Total GULP energy -267710.566064 kJ/mol
# GULP energy per Si atom -5577.303460 kJ/mol
# Density = 2.066235 g / cm^3
# Si number density = 20.709486 Si / 1000 Ang^3
#
#
#
# Elastic Constant Matrix: (Units=GPa)
#
#
# Indices 1 2 3 4 5 6 
#
# 1 64.8935 24.3263 -3.2519 0.0000 0.0000 0.0000
# 2 24.3263 128.7724 23.5814 0.0000 0.0000 0.0000
# 3 -3.2519 23.5814 52.0710 0.0000 0.0000 0.0000
# 4 0.0000 0.0000 0.0000 10.9733 0.0000 0.0000
# 5 0.0000 0.0000 0.0000 0.0000 23.4277 0.0000
# 6 0.0000 0.0000 0.0000 0.0000 0.0000 35.6333
#
#
#
# Elastic Compliance Matrix: (Units=1/GPa)
#
#
# Indices 1 2 3 4 5 6 
#
# 1 0.016934 -0.003699 0.002733 0.000000 0.000000 0.000000
# 2 -0.003699 0.009276 -0.004432 0.000000 0.000000 0.000000
# 3 0.002733 -0.004432 0.021382 0.000000 0.000000 0.000000
# 4 0.000000 0.000000 0.000000 0.091130 0.000000 0.000000
# 5 0.000000 0.000000 0.000000 0.000000 0.042685 0.000000
# 6 0.000000 0.000000 0.000000 0.000000 0.000000 0.028064
#
#
# Mechanical properties :
#
#
# Convention : Reuss Voigt Hill
#
# Bulk Modulus (GPa) = 27.17749 37.22761 32.20255
# Shear Modulus (GPa) = 21.50238 27.41226 24.45732
#
# Velocity S-wave (km/s) = 3.22574 3.64216 3.44026
# Velocity P-wave (km/s) = 5.19861 5.97513 5.60035
#
# Compressibility (1/GPa) = 0.03679515
#
# Stress axis : x y z
#
# Youngs Moduli (GPa) = 59.05429 107.80424 46.76766
#
# Poissons Ratio (x) = 0.39881 -0.12781
# Poissons Ratio (y) = 0.21846 0.20727
# Poissons Ratio (z) = -0.16139 0.47778
#
# Static dielectric constant tensor:
#      x y z
#    x 1.765220 0.000000 0.000000 
#    y 0.000000 1.809600 0.000000 
#    z 0.000000 0.000000 1.711940 
# 
# From -- ./inp_files/28301.got.cif
#   From: 2010.05.17/outbox.cif.g08.bks.cpg/sg66_15_cif.got.tgz:28301.got - 2010.06.03 17:51:23.
