data_PCOD9497348
_publ_section_title
;
Structure prediction by ZEFSAII (Michael W. Deem and Ramdas Pophale) SiO2 
 PCOD9497348
Probable space group: C C C M
;
_chemical_formula_sum "Si O2"
_cell_formula_units_Z 116
_cell_length_a 9.252729
_cell_length_b 25.627987
_cell_length_c 25.532009
_cell_angle_alpha 90.000000
_cell_angle_beta 90.000000
_cell_angle_gamma 90.000000
_cell_volume 6054.375129
_symmetry_space_group_name_H-M "C C C M"
_symmetry_group_IT_number 66
_symmetry_cell_setting 'orthorhombic'
loop_
_space_group_symop_operation_xyz
x,y,z
-x,-y,z
x,-y,1/2-z
-x,y,1/2-z
-x,-y,-z
x,y,-z
-x,y,1/2+z
x,-y,1/2+z
1/2+x,1/2+y,z
1/2-x,1/2-y,z
1/2+x,1/2-y,1/2-z
1/2-x,1/2+y,1/2-z
1/2-x,1/2-y,-z
1/2+x,1/2+y,-z
1/2-x,1/2+y,1/2+z
1/2+x,1/2-y,1/2+z
loop_
_atom_site_type_symbol
_atom_site_label
_atom_site_fract_x
_atom_site_fract_y
_atom_site_fract_z
Si Si1 0.475410 0.107072 0.688211
Si Si2 0.882908 0.711209 0.938558
Si Si3 0.518531 0.330221 0.310448
Si Si4 0.500000 0.500000 0.250000
Si Si5 0.004648 0.939032 0.058695
Si Si6 0.256268 0.885226 0.379600
Si Si7 0.832943 0.074635 0.163956
Si Si8 0.089878 0.274328 0.651740
O O1 0.500000 0.103565 0.750000
O O2 0.615435 0.089968 0.654641
O O3 0.336263 0.073342 0.673658
O O4 0.438006 0.167968 0.674472
O O5 0.750000 0.750000 0.925585
O O6 0.830890 0.654789 0.919374
O O7 0.026960 0.725202 0.906975
O O8 0.906721 0.713182 0.000000
O O9 0.500000 0.340167 0.250000
O O10 0.661109 0.353083 0.337296
O O11 0.388544 0.365511 0.332248
O O12 0.507730 0.268947 0.319689
O O13 0.412393 0.538000 0.208438
O O14 0.858309 0.919104 0.087504
O O15 0.126642 0.935489 0.103621
O O16 0.023435 0.914549 0.000000
O O17 0.000000 0.000000 0.050595
O O18 0.250000 0.250000 0.655176
#
# Coordination Sequence:
#
# PCOD9497348 Si02
#       8
#    16  16  16   4  16  16  16  16
#     4  11  24  39  60  95 139 166 203 261 321 380
#     4  10  20  37  57  81 117 163 210 250 302 367
#     4  11  20  36  61  85 122 164 209 248 301 372
#     4  12  24  44  72  92 128 168 222 254 316 390
#     4  10  22  43  70  94 118 159 219 273 320 380
#     4  10  22  38  62  88 124 164 208 256 317 382
#     4  11  23  41  65  96 122 167 212 262 314 373
#     4  11  22  37  55  90 126 164 210 252 300 370
#
# _framework density 19.159697999999999
#
# number of rings (size 3 to 8) (size 9 to 14) (size 15 to 20)
#    0.000    1.379    4.138    1.655    1.931    0.276 
#    0.000    5.862    0.000    1.655    0.000    0.000 
#    0.000    0.000    0.000    0.000    0.000    0.000 
#
# Total GULP energy -323142.722923 kJ/mol
# GULP energy per Si atom -5571.426257 kJ/mol
# Density = 1.911609 g / cm^3
# Si number density = 19.159698 Si / 1000 Ang^3
#
#
#
# Elastic Constant Matrix: (Units=GPa)
#
#
# Indices 1 2 3 4 5 6 
#
# 1 107.4548 8.9530 52.0808 0.0000 0.0000 0.0000
# 2 8.9530 46.5287 22.7467 0.0000 0.0000 0.0000
# 3 52.0808 22.7467 150.3459 0.0000 0.0000 0.0000
# 4 0.0000 0.0000 0.0000 7.3229 0.0000 0.0000
# 5 0.0000 0.0000 0.0000 0.0000 14.6825 0.0000
# 6 0.0000 0.0000 0.0000 0.0000 0.0000 20.4322
#
#
#
# Elastic Compliance Matrix: (Units=1/GPa)
#
#
# Indices 1 2 3 4 5 6 
#
# 1 0.011187 -0.000279 -0.003833 0.000000 0.000000 0.000000
# 2 -0.000279 0.023216 -0.003416 0.000000 0.000000 0.000000
# 3 -0.003833 -0.003416 0.008496 0.000000 0.000000 0.000000
# 4 0.000000 0.000000 0.000000 0.136558 0.000000 0.000000
# 5 0.000000 0.000000 0.000000 0.000000 0.068108 0.000000
# 6 0.000000 0.000000 0.000000 0.000000 0.000000 0.048942
#
#
# Mechanical properties :
#
#
# Convention : Reuss Voigt Hill
#
# Bulk Modulus (GPa) = 35.91514 52.43225 44.17369
# Shear Modulus (GPa) = 15.58386 23.19078 19.38732
#
# Velocity S-wave (km/s) = 2.85505 3.48285 3.18446
# Velocity P-wave (km/s) = 5.44557 6.60295 6.05199
#
# Compressibility (1/GPa) = 0.02784341
#
# Stress axis : x y z
#
# Youngs Moduli (GPa) = 89.38695 43.07434 117.70273
#
# Poissons Ratio (x) = 0.01201 0.45118
# Poissons Ratio (y) = 0.02491 0.40206
# Poissons Ratio (z) = 0.34264 0.14714
#
# Static dielectric constant tensor:
#      x y z
#    x 1.711240 0.000000 0.000000 
#    y 0.000000 1.721300 0.000000 
#    z 0.000000 0.000000 1.702050 
# 
# From -- ./inp_files/55915.got.cif
#   From: 2010.05.17/outbox.cif.g08.bks.cpg/sg66_28_cif.got.tgz:55915.got - 2010.06.03 17:51:23.
