data_PCOD9497115
_publ_section_title
;
Structure prediction by ZEFSAII (Michael W. Deem and Ramdas Pophale) SiO2 
 PCOD9497115
Probable space group: C C C M
;
_chemical_formula_sum "Si O2"
_cell_formula_units_Z 64
_cell_length_a 8.541761
_cell_length_b 14.350658
_cell_length_c 22.470130
_cell_angle_alpha 90.000000
_cell_angle_beta 90.000000
_cell_angle_gamma 90.000000
_cell_volume 2754.386082
_symmetry_space_group_name_H-M "C C C M"
_symmetry_group_IT_number 66
_symmetry_cell_setting 'orthorhombic'
loop_
_space_group_symop_operation_xyz
x,y,z
-x,-y,z
x,-y,1/2-z
-x,y,1/2-z
-x,-y,-z
x,y,-z
-x,y,1/2+z
x,-y,1/2+z
1/2+x,1/2+y,z
1/2-x,1/2-y,z
1/2+x,1/2-y,1/2-z
1/2-x,1/2+y,1/2-z
1/2-x,1/2-y,-z
1/2+x,1/2+y,-z
1/2-x,1/2+y,1/2+z
1/2+x,1/2-y,1/2+z
loop_
_atom_site_type_symbol
_atom_site_label
_atom_site_fract_x
_atom_site_fract_y
_atom_site_fract_z
Si Si1 0.192700 0.655045 0.106684
Si Si2 0.897544 0.402166 0.666058
Si Si3 0.828175 0.888952 0.734740
Si Si4 0.319388 0.471741 0.934806
O O1 0.250000 0.750000 0.078928
O O2 0.292517 0.633332 0.166577
O O3 0.218064 0.566513 0.065627
O O4 0.017563 0.662052 0.130900
O O5 0.820796 0.360376 0.725223
O O6 0.752515 0.419231 0.621443
O O7 0.000000 0.500000 0.675753
O O8 0.000000 0.852363 0.750000
O O9 0.831244 0.000000 0.750000
O O10 0.500000 0.500000 0.925687
O O11 0.305850 0.426219 0.000000
#
# Coordination Sequence:
#
# PCOD9497115 Si02
#       4
#    16  16  16  16
#     4  11  24  37  57  91 122 151 191 246 306 346
#     4  10  20  35  60  84 116 154 199 242 285 357
#     4  11  20  34  58  84 118 158 196 234 287 355
#     4  10  21  40  64  85 110 155 206 243 287 358
#
# _framework density 23.235669000000001
#
# number of rings (size 3 to 8) (size 9 to 14) (size 15 to 20)
#    0.000    1.500    5.000    2.250    0.000    7.000 
#    0.000    3.750    0.000    3.000    0.000    0.000 
#    0.000    0.000    0.000    0.000    0.000    0.000 
#
# Total GULP energy -178794.184771 kJ/mol
# GULP energy per Si atom -5587.318274 kJ/mol
# Density = 2.318278 g / cm^3
# Si number density = 23.235669 Si / 1000 Ang^3
#
#
#
# Elastic Constant Matrix: (Units=GPa)
#
#
# Indices 1 2 3 4 5 6 
#
# 1 119.1234 -18.2913 23.6457 0.0000 0.0000 0.0000
# 2 -18.2913 26.1702 -23.6647 0.0000 0.0000 0.0000
# 3 23.6457 -23.6647 107.8420 0.0000 0.0000 0.0000
# 4 0.0000 0.0000 0.0000 19.9212 0.0000 0.0000
# 5 0.0000 0.0000 0.0000 0.0000 -76.2447 0.0000
# 6 0.0000 0.0000 0.0000 0.0000 0.0000 20.0102
#
#
#
# Elastic Compliance Matrix: (Units=1/GPa)
#
#
# Indices 1 2 3 4 5 6 
#
# 1 0.009456 0.005906 -0.000777 0.000000 0.000000 0.000000
# 2 0.005906 0.051360 0.009975 0.000000 0.000000 0.000000
# 3 -0.000777 0.009975 0.011632 0.000000 0.000000 0.000000
# 4 0.000000 0.000000 0.000000 0.050198 0.000000 0.000000
# 5 0.000000 0.000000 0.000000 0.000000 -0.013116 0.000000
# 6 0.000000 0.000000 0.000000 0.000000 0.000000 0.049974
#
#
# Mechanical properties :
#
#
# Convention : Reuss Voigt Hill
#
# Bulk Modulus (GPa) = 9.74126 24.05724 16.89925
# Shear Modulus (GPa) = 30.57833 10.83374 20.70603
#
# Velocity S-wave (km/s) = 3.63162 2.16164 2.98842
# Velocity P-wave (km/s) = 4.66758 4.07508 4.38136
#
# Compressibility (1/GPa) = 0.10265611
#
# Stress axis : x y z
#
# Youngs Moduli (GPa) = 105.75487 19.47052 85.96815
#
# Poissons Ratio (x) = -0.11500 0.06682
# Poissons Ratio (y) = -0.62460 -0.85756
# Poissons Ratio (z) = 0.08220 -0.19422
#
# Static dielectric constant tensor:
#      x y z
#    x 1.884570 0.000000 0.000000 
#    y 0.000000 1.954820 0.000000 
#    z 0.000000 0.000000 1.856560 
# 
# From -- ./inp_files/46577.got.cif
#   From: 2010.05.17/outbox.cif.g08.bks.cpg/sg66_24_cif.got.tgz:46577.got - 2010.06.03 17:51:23.
