data_PCOD9497442
_publ_section_title
;
Structure prediction by ZEFSAII (Michael W. Deem and Ramdas Pophale) SiO2 
 PCOD9497442
Probable space group: C C C M
;
_chemical_formula_sum "Si O2"
_cell_formula_units_Z 116
_cell_length_a 23.707552
_cell_length_b 29.683876
_cell_length_c 8.499774
_cell_angle_alpha 90.000000
_cell_angle_beta 90.000000
_cell_angle_gamma 90.000000
_cell_volume 5981.563244
_symmetry_space_group_name_H-M "C C C M"
_symmetry_group_IT_number 66
_symmetry_cell_setting 'orthorhombic'
loop_
_space_group_symop_operation_xyz
x,y,z
-x,-y,z
x,-y,1/2-z
-x,y,1/2-z
-x,-y,-z
x,y,-z
-x,y,1/2+z
x,-y,1/2+z
1/2+x,1/2+y,z
1/2-x,1/2-y,z
1/2+x,1/2-y,1/2-z
1/2-x,1/2+y,1/2-z
1/2-x,1/2-y,-z
1/2+x,1/2+y,-z
1/2-x,1/2+y,1/2+z
1/2+x,1/2-y,1/2+z
loop_
_atom_site_type_symbol
_atom_site_label
_atom_site_fract_x
_atom_site_fract_y
_atom_site_fract_z
Si Si1 0.229464 0.452733 0.686701
Si Si2 0.061131 0.343490 0.186389
Si Si3 0.000000 0.500000 0.250000
Si Si4 0.398447 0.933421 0.189411
Si Si5 0.059125 0.146298 0.188457
Si Si6 0.693263 0.722507 0.822119
Si Si7 0.082940 0.245389 0.320568
Si Si8 0.317993 0.618355 0.685225
O O1 0.251549 0.500000 0.750000
O O2 0.226044 0.453452 0.500000
O O3 0.164368 0.447655 0.742519
O O4 0.273234 0.414270 0.735856
O O5 0.099696 0.380184 0.272614
O O6 0.068664 0.291268 0.231254
O O7 0.000000 0.356161 0.250000
O O8 0.066038 0.348844 0.000000
O O9 0.050533 0.538879 0.274050
O O10 0.406115 0.940920 0.000000
O O11 0.062573 0.198253 0.246670
O O12 0.116591 0.121077 0.242203
O O13 0.000000 0.127186 0.250000
O O14 0.059336 0.146506 0.000000
O O15 0.750000 0.750000 0.818414
O O16 0.650111 0.740734 0.694793
O O17 0.702917 0.669760 0.798691
O O18 0.668074 0.727409 0.000000
O O19 0.063229 0.248676 0.500000
O O20 0.319649 0.607271 0.500000
#
# Coordination Sequence:
#
# PCOD9497442 Si02
#       8
#    16  16   4  16  16  16  16  16
#     4  11  24  42  64  91 122 155 201 253 307 367
#     4  12  25  40  58  81 113 153 196 247 304 358
#     4  12  22  44  72  86 122 152 200 260 314 372
#     4  11  25  42  62  90 117 152 200 253 310 369
#     4  10  20  37  62  92 125 162 203 246 295 361
#     4   9  19  36  56  82 116 159 204 246 297 359
#     4  11  22  36  55  82 119 158 201 248 295 354
#     4   9  20  38  60  89 124 161 202 246 300 366
#
# _framework density 19.392924000000001
#
# number of rings (size 3 to 8) (size 9 to 14) (size 15 to 20)
#    0.000    1.517    1.379    4.759    1.931    4.690 
#    0.000    0.000    0.000    0.414    0.000    2.897 
#    0.000    0.000    0.000    0.000    0.000    0.000 
#
# Total GULP energy -323172.626627 kJ/mol
# GULP energy per Si atom -5571.941838 kJ/mol
# Density = 1.934878 g / cm^3
# Si number density = 19.392924 Si / 1000 Ang^3
#
#
#
# Elastic Constant Matrix: (Units=GPa)
#
#
# Indices 1 2 3 4 5 6 
#
# 1 128.4184 45.9027 18.5659 0.0000 0.0000 0.0000
# 2 45.9027 60.5639 12.0389 0.0000 0.0000 0.0000
# 3 18.5659 12.0389 36.3394 0.0000 0.0000 0.0000
# 4 0.0000 0.0000 0.0000 42.3169 0.0000 0.0000
# 5 0.0000 0.0000 0.0000 0.0000 24.9672 0.0000
# 6 0.0000 0.0000 0.0000 0.0000 0.0000 -534.9231
#
#
#
# Elastic Compliance Matrix: (Units=1/GPa)
#
#
# Indices 1 2 3 4 5 6 
#
# 1 0.010989 -0.007721 -0.003056 0.000000 0.000000 0.000000
# 2 -0.007721 0.023101 -0.003708 0.000000 0.000000 0.000000
# 3 -0.003056 -0.003708 0.030308 0.000000 0.000000 0.000000
# 4 0.000000 0.000000 0.000000 0.023631 0.000000 0.000000
# 5 0.000000 0.000000 0.000000 0.000000 0.040053 0.000000
# 6 0.000000 0.000000 0.000000 0.000000 0.000000 -0.001869
#
#
# Mechanical properties :
#
#
# Convention : Reuss Voigt Hill
#
# Bulk Modulus (GPa) = 28.22753 42.03740 35.13247
# Shear Modulus (GPa) = 29.94153 -83.60686 -26.83267
#
# Velocity S-wave (km/s) = 3.93356 -6.57310 -3.72376
# Velocity P-wave (km/s) = 5.93445 5.99031 0.57708
#
# Compressibility (1/GPa) = 0.03542640
#
# Stress axis : x y z
#
# Youngs Moduli (GPa) = 91.00183 43.28889 32.99427
#
# Poissons Ratio (x) = 0.33424 0.10084
# Poissons Ratio (y) = 0.70264 0.12235
# Poissons Ratio (z) = 0.27813 0.16053
#
# Static dielectric constant tensor:
#      x y z
#    x 1.702280 0.000000 0.000000 
#    y 0.000000 1.657130 0.000000 
#    z 0.000000 0.000000 1.703580 
# 
# From -- ./inp_files/9621.got.cif
#   From: 2010.05.17/outbox.cif.g08.bks.cpg/sg66_5_cif.got.tgz:9621.got - 2010.06.03 17:51:23.
