data_PCOD9497872
_publ_section_title
;
Structure prediction by ZEFSAII (Michael W. Deem and Ramdas Pophale) SiO2 
 PCOD9497872
Probable space group: C C C M
;
_chemical_formula_sum "Si O2"
_cell_formula_units_Z 88
_cell_length_a 21.972114
_cell_length_b 7.015219
_cell_length_c 24.430662
_cell_angle_alpha 90.000000
_cell_angle_beta 90.000000
_cell_angle_gamma 90.000000
_cell_volume 3765.722491
_symmetry_space_group_name_H-M "C C C M"
_symmetry_group_IT_number 66
_symmetry_cell_setting 'orthorhombic'
loop_
_space_group_symop_operation_xyz
x,y,z
-x,-y,z
x,-y,1/2-z
-x,y,1/2-z
-x,-y,-z
x,y,-z
-x,y,1/2+z
x,-y,1/2+z
1/2+x,1/2+y,z
1/2-x,1/2-y,z
1/2+x,1/2-y,1/2-z
1/2-x,1/2+y,1/2-z
1/2-x,1/2-y,-z
1/2+x,1/2+y,-z
1/2-x,1/2+y,1/2+z
1/2+x,1/2-y,1/2+z
loop_
_atom_site_type_symbol
_atom_site_label
_atom_site_fract_x
_atom_site_fract_y
_atom_site_fract_z
Si Si1 0.415220 0.760614 0.408719
Si Si2 0.008132 0.727592 0.000000
Si Si3 0.262413 0.025607 0.689517
Si Si4 0.148762 0.281442 0.500000
Si Si5 0.875806 0.009624 0.686558
Si Si6 0.141244 0.356945 0.385428
Si Si7 0.322115 0.769955 0.500000
O O1 0.472638 0.707568 0.445884
O O2 0.412314 0.655721 0.351051
O O3 0.357115 0.696791 0.446144
O O4 0.410753 0.991408 0.402015
O O5 0.078437 0.777233 0.000000
O O6 0.000000 0.500000 0.000000
O O7 0.250000 0.250000 0.685512
O O8 0.196338 0.929629 0.686541
O O9 0.309022 0.999928 0.640684
O O10 0.289452 0.000000 0.750000
O O11 0.169000 0.242205 0.437710
O O12 0.161301 0.507509 0.500000
O O13 0.879002 0.801685 0.657963
O O14 0.893918 0.000000 0.750000
O O15 0.250000 0.750000 0.500000
#
# Coordination Sequence:
#
# PCOD9497872 Si02
#       7
#    16   8  16   8  16  16   8
#     4  10  22  35  66  84 121 170 195 272 308 378
#     4  11  18  45  63  97 114 151 236 246 327 384
#     4   9  20  34  52  83 122 166 207 245 291 388
#     4  10  21  39  66  88 125 162 203 279 301 398
#     4  10  23  39  54  91 127 159 214 251 303 392
#     4  10  21  36  58  89 119 160 208 247 316 364
#     4   9  19  33  52  97 124 156 206 246 322 389
#
# _framework density 23.368690999999998
#
# number of rings (size 3 to 8) (size 9 to 14) (size 15 to 20)
#    0.000    2.182    3.636    0.000   12.727    1.455 
#    0.000    5.909    0.000    2.182    4.727    0.000 
#    0.000    0.000    0.000    0.000    0.000    0.000 
#
# Total GULP energy -245608.330225 kJ/mol
# GULP energy per Si atom -5582.007505 kJ/mol
# Density = 2.331550 g / cm^3
# Si number density = 23.368691 Si / 1000 Ang^3
#
#
#
# Elastic Constant Matrix: (Units=GPa)
#
#
# Indices 1 2 3 4 5 6 
#
# 1 81.5581 -0.2648 32.3105 0.0000 0.0000 0.0000
# 2 -0.2648 88.8013 35.5489 0.0000 0.0000 0.0000
# 3 32.3105 35.5489 198.6666 0.0000 0.0000 0.0000
# 4 0.0000 0.0000 0.0000 8.3305 0.0000 0.0000
# 5 0.0000 0.0000 0.0000 0.0000 31.6622 0.0000
# 6 0.0000 0.0000 0.0000 0.0000 0.0000 14.9694
#
#
#
# Elastic Compliance Matrix: (Units=1/GPa)
#
#
# Indices 1 2 3 4 5 6 
#
# 1 0.013182 0.000967 -0.002317 0.000000 0.000000 0.000000
# 2 0.000967 0.012201 -0.002340 0.000000 0.000000 0.000000
# 3 -0.002317 -0.002340 0.005829 0.000000 0.000000 0.000000
# 4 0.000000 0.000000 0.000000 0.120041 0.000000 0.000000
# 5 0.000000 0.000000 0.000000 0.000000 0.031583 0.000000
# 6 0.000000 0.000000 0.000000 0.000000 0.000000 0.066803
#
#
# Mechanical properties :
#
#
# Convention : Reuss Voigt Hill
#
# Bulk Modulus (GPa) = 41.96180 56.02393 48.99286
# Shear Modulus (GPa) = 18.87049 31.08785 24.97917
#
# Velocity S-wave (km/s) = 2.84476 3.65131 3.27298
# Velocity P-wave (km/s) = 5.36522 6.46545 5.94086
#
# Compressibility (1/GPa) = 0.02383120
#
# Stress axis : x y z
#
# Youngs Moduli (GPa) = 75.85977 81.96118 171.55114
#
# Poissons Ratio (x) = -0.07924 0.39747
# Poissons Ratio (y) = -0.07334 0.40150
# Poissons Ratio (z) = 0.17576 0.19183
#
# Static dielectric constant tensor:
#      x y z
#    x 1.946240 0.000000 0.000000 
#    y 0.000000 1.930230 0.000000 
#    z 0.000000 0.000000 2.050480 
# 
# From -- ./inp_files/52448.got.cif
#   From: 2010.05.17/outbox.cif.g08.bks.cpg/sg66_27_cif.got.tgz:52448.got - 2010.06.03 17:51:23.
