data_PCOD9497582
_publ_section_title
;
Structure prediction by ZEFSAII (Michael W. Deem and Ramdas Pophale) SiO2 
 PCOD9497582
Probable space group: C C C M
;
_chemical_formula_sum "Si O2"
_cell_formula_units_Z 72
_cell_length_a 7.919893
_cell_length_b 21.518289
_cell_length_c 18.667304
_cell_angle_alpha 90.000000
_cell_angle_beta 90.000000
_cell_angle_gamma 90.000000
_cell_volume 3181.329483
_symmetry_space_group_name_H-M "C C C M"
_symmetry_group_IT_number 66
_symmetry_cell_setting 'orthorhombic'
loop_
_space_group_symop_operation_xyz
x,y,z
-x,-y,z
x,-y,1/2-z
-x,y,1/2-z
-x,-y,-z
x,y,-z
-x,y,1/2+z
x,-y,1/2+z
1/2+x,1/2+y,z
1/2-x,1/2-y,z
1/2+x,1/2-y,1/2-z
1/2-x,1/2+y,1/2-z
1/2-x,1/2-y,-z
1/2+x,1/2+y,-z
1/2-x,1/2+y,1/2+z
1/2+x,1/2-y,1/2+z
loop_
_atom_site_type_symbol
_atom_site_label
_atom_site_fract_x
_atom_site_fract_y
_atom_site_fract_z
Si Si1 0.712092 0.055096 0.579726
Si Si2 0.000000 0.648963 0.250000
Si Si3 0.875921 0.191874 0.081000
Si Si4 0.836272 0.424845 0.878372
Si Si5 0.794678 0.813160 0.853469
O O1 0.776279 0.043687 0.500000
O O2 0.510140 0.065335 0.578809
O O3 0.777909 0.119842 0.609861
O O4 0.745188 0.993124 0.625822
O O5 0.099959 0.604570 0.195523
O O6 0.150740 0.685495 0.291417
O O7 0.750000 0.250000 0.087947
O O8 0.778144 0.126917 0.085483
O O9 0.003315 0.193138 0.148379
O O10 0.951460 0.196183 0.000000
O O11 0.750000 0.750000 0.896232
#
# Coordination Sequence:
#
# PCOD9497582 Si02
#       5
#    16   8  16  16  16
#     4  10  20  38  67  96 129 174 221 279 343 397
#     4  10  24  43  66  90 130 183 234 274 322 403
#     4  11  23  40  65  98 135 173 222 284 346 405
#     4  10  21  38  62  95 131 173 224 274 330 397
#     4  11  25  42  64  94 130 176 225 278 332 398
#
# _framework density 22.632047
#
# number of rings (size 3 to 8) (size 9 to 14) (size 15 to 20)
#    0.000    1.556    0.000    6.000    0.000   15.111 
#    0.000    2.222    0.000   10.667    0.000    0.000 
#    0.000    0.000    0.000    0.000    0.000    0.000 
#
# Total GULP energy -200618.599067 kJ/mol
# GULP energy per Si atom -5572.738863 kJ/mol
# Density = 2.258054 g / cm^3
# Si number density = 22.632047 Si / 1000 Ang^3
#
#
#
# Elastic Constant Matrix: (Units=GPa)
#
#
# Indices 1 2 3 4 5 6 
#
# 1 87.9805 51.6958 41.9108 0.0000 0.0000 0.0000
# 2 51.6958 183.1929 35.9081 0.0000 0.0000 0.0000
# 3 41.9108 35.9081 98.9734 0.0000 0.0000 0.0000
# 4 0.0000 0.0000 0.0000 17.3298 0.0000 0.0000
# 5 0.0000 0.0000 0.0000 0.0000 20.8603 0.0000
# 6 0.0000 0.0000 0.0000 0.0000 0.0000 35.9317
#
#
#
# Elastic Compliance Matrix: (Units=1/GPa)
#
#
# Indices 1 2 3 4 5 6 
#
# 1 0.016024 -0.003436 -0.005539 0.000000 0.000000 0.000000
# 2 -0.003436 0.006613 -0.000944 0.000000 0.000000 0.000000
# 3 -0.005539 -0.000944 0.012792 0.000000 0.000000 0.000000
# 4 0.000000 0.000000 0.000000 0.057704 0.000000 0.000000
# 5 0.000000 0.000000 0.000000 0.000000 0.047938 0.000000
# 6 0.000000 0.000000 0.000000 0.000000 0.000000 0.027831
#
#
# Mechanical properties :
#
#
# Convention : Reuss Voigt Hill
#
# Bulk Modulus (GPa) = 64.14143 69.90848 67.02496
# Shear Modulus (GPa) = 25.78165 30.86650 28.32407
#
# Velocity S-wave (km/s) = 3.37881 3.69703 3.54150
# Velocity P-wave (km/s) = 6.60487 7.01286 6.81192
#
# Compressibility (1/GPa) = 0.01559055
#
# Stress axis : x y z
#
# Youngs Moduli (GPa) = 62.40814 151.20630 78.17562
#
# Poissons Ratio (x) = 0.51956 0.43299
# Poissons Ratio (y) = 0.21444 0.07383
# Poissons Ratio (z) = 0.34566 0.14279
#
# Static dielectric constant tensor:
#      x y z
#    x 1.939520 0.000000 0.000000 
#    y 0.000000 1.864840 0.000000 
#    z 0.000000 0.000000 1.978540 
# 
# From -- ./inp_files/46918.got.cif
#   From: 2010.05.17/outbox.cif.g08.bks.cpg/sg66_24_cif.got.tgz:46918.got - 2010.06.03 17:51:23.
