data_PCOD9497411
_publ_section_title
;
Structure prediction by ZEFSAII (Michael W. Deem and Ramdas Pophale) SiO2 
 PCOD9497411
Probable space group: C C C M
;
_chemical_formula_sum "Si O2"
_cell_formula_units_Z 88
_cell_length_a 20.572858
_cell_length_b 6.380668
_cell_length_c 29.924246
_cell_angle_alpha 90.000000
_cell_angle_beta 90.000000
_cell_angle_gamma 90.000000
_cell_volume 3928.113182
_symmetry_space_group_name_H-M "C C C M"
_symmetry_group_IT_number 66
_symmetry_cell_setting 'orthorhombic'
loop_
_space_group_symop_operation_xyz
x,y,z
-x,-y,z
x,-y,1/2-z
-x,y,1/2-z
-x,-y,-z
x,y,-z
-x,y,1/2+z
x,-y,1/2+z
1/2+x,1/2+y,z
1/2-x,1/2-y,z
1/2+x,1/2-y,1/2-z
1/2-x,1/2+y,1/2-z
1/2-x,1/2-y,-z
1/2+x,1/2+y,-z
1/2-x,1/2+y,1/2+z
1/2+x,1/2-y,1/2+z
loop_
_atom_site_type_symbol
_atom_site_label
_atom_site_fract_x
_atom_site_fract_y
_atom_site_fract_z
Si Si1 0.817566 0.129930 0.138652
Si Si2 0.000000 0.000000 0.179102
Si Si3 0.051236 0.703191 0.549648
Si Si4 0.387991 0.229384 0.863781
Si Si5 0.403867 0.857266 0.794301
Si Si6 0.405858 0.687458 0.949102
O O1 0.750000 0.250000 0.133914
O O2 0.846515 0.209710 0.186407
O O3 0.858728 0.190350 0.093876
O O4 0.824330 0.875390 0.140520
O O5 0.964383 0.192560 0.205095
O O6 0.054279 0.106852 0.148211
O O7 0.064129 0.627665 0.500000
O O8 0.101697 0.637108 0.587342
O O9 0.026027 0.310471 0.559305
O O10 0.068802 0.949729 0.548335
O O11 0.402481 0.037765 0.831470
O O12 0.398310 0.000000 0.750000
O O13 0.379969 0.729781 0.000000
#
# Coordination Sequence:
#
# PCOD9497411 Si02
#       6
#    16   8  16  16  16  16
#     4  10  22  40  59  88 125 169 226 276 317 376
#     4  10  22  39  63  92 126 152 193 254 324 411
#     4   8  13  26  53  89 124 164 205 252 320 403
#     4  10  20  37  61  89 128 166 204 259 325 389
#     4  11  25  43  63  94 120 162 210 264 340 405
#     4   8  14  28  54  86 124 166 212 261 320 388
#
# _framework density 22.402612999999999
#
# number of rings (size 3 to 8) (size 9 to 14) (size 15 to 20)
#    0.000    2.545    0.000    4.909    0.000    6.182 
#    3.273    0.909    0.000    5.455    0.000    6.364 
#    0.000    0.000    0.000    0.000    0.000    0.364 
#
# Total GULP energy -245092.846435 kJ/mol
# GULP energy per Si atom -5570.291964 kJ/mol
# Density = 2.235162 g / cm^3
# Si number density = 22.402613 Si / 1000 Ang^3
#
#
#
# Elastic Constant Matrix: (Units=GPa)
#
#
# Indices 1 2 3 4 5 6 
#
# 1 100.3993 36.6568 47.0966 0.0000 0.0000 0.0000
# 2 36.6568 130.0001 43.1698 0.0000 0.0000 0.0000
# 3 47.0966 43.1698 148.9620 0.0000 0.0000 0.0000
# 4 0.0000 0.0000 0.0000 30.0305 0.0000 0.0000
# 5 0.0000 0.0000 0.0000 0.0000 18.4115 0.0000
# 6 0.0000 0.0000 0.0000 0.0000 0.0000 30.8109
#
#
#
# Elastic Compliance Matrix: (Units=1/GPa)
#
#
# Indices 1 2 3 4 5 6 
#
# 1 0.012345 -0.002418 -0.003202 0.000000 0.000000 0.000000
# 2 -0.002418 0.008985 -0.001839 0.000000 0.000000 0.000000
# 3 -0.003202 -0.001839 0.008259 0.000000 0.000000 0.000000
# 4 0.000000 0.000000 0.000000 0.033300 0.000000 0.000000
# 5 0.000000 0.000000 0.000000 0.000000 0.054314 0.000000
# 6 0.000000 0.000000 0.000000 0.000000 0.000000 0.032456
#
#
# Mechanical properties :
#
#
# Convention : Reuss Voigt Hill
#
# Bulk Modulus (GPa) = 68.16801 70.35645 69.26223
# Shear Modulus (GPa) = 29.50423 32.67978 31.09201
#
# Velocity S-wave (km/s) = 3.63299 3.82350 3.72946
# Velocity P-wave (km/s) = 6.93490 7.13904 7.03771
#
# Compressibility (1/GPa) = 0.01466964
#
# Stress axis : x y z
#
# Youngs Moduli (GPa) = 81.00332 111.29853 121.08395
#
# Poissons Ratio (x) = 0.26907 0.38777
# Poissons Ratio (y) = 0.19583 0.22273
# Poissons Ratio (z) = 0.25941 0.20473
#
# Static dielectric constant tensor:
#      x y z
#    x 1.820950 0.000000 0.000000 
#    y 0.000000 2.057800 0.000000 
#    z 0.000000 0.000000 1.849940 
# 
# From -- ./inp_files/70388.got.cif
#   From: 2010.05.17/outbox.cif.g08.bks.cpg/sg66_36_cif.got.tgz:70388.got - 2010.06.03 17:51:23.
