data_PCOD9497748
_publ_section_title
;
Structure prediction by ZEFSAII (Michael W. Deem and Ramdas Pophale) SiO2 
 PCOD9497748
Probable space group: C C C M
;
_chemical_formula_sum "Si O2"
_cell_formula_units_Z 68
_cell_length_a 8.090543
_cell_length_b 20.292459
_cell_length_c 23.138522
_cell_angle_alpha 90.000000
_cell_angle_beta 90.000000
_cell_angle_gamma 90.000000
_cell_volume 3798.813407
_symmetry_space_group_name_H-M "C C C M"
_symmetry_group_IT_number 66
_symmetry_cell_setting 'orthorhombic'
loop_
_space_group_symop_operation_xyz
x,y,z
-x,-y,z
x,-y,1/2-z
-x,y,1/2-z
-x,-y,-z
x,y,-z
-x,y,1/2+z
x,-y,1/2+z
1/2+x,1/2+y,z
1/2-x,1/2-y,z
1/2+x,1/2-y,1/2-z
1/2-x,1/2+y,1/2-z
1/2-x,1/2-y,-z
1/2+x,1/2+y,-z
1/2-x,1/2+y,1/2+z
1/2+x,1/2-y,1/2+z
loop_
_atom_site_type_symbol
_atom_site_label
_atom_site_fract_x
_atom_site_fract_y
_atom_site_fract_z
Si Si1 0.240922 0.391160 0.216227
Si Si2 0.000000 0.500000 0.250000
Si Si3 0.580581 0.220195 0.353917
Si Si4 0.422894 0.640831 0.834307
Si Si5 0.805480 0.326934 0.934491
O O1 0.120477 0.452989 0.213765
O O2 0.140968 0.326954 0.196822
O O3 0.403194 0.396097 0.175688
O O4 0.307181 0.380039 0.281172
O O5 0.750000 0.250000 0.380221
O O6 0.472488 0.281514 0.331020
O O7 0.476517 0.178031 0.399533
O O8 0.326798 0.634953 0.894614
O O9 0.750000 0.250000 0.937395
O O10 0.818631 0.351341 0.000000
#
# Coordination Sequence:
#
# PCOD9497748 Si02
#       5
#    16   4  16  16  16
#     4  10  21  34  50  76 102 131 167 207 258 309
#     4  12  24  34  48  72 106 134 160 210 268 312
#     4   9  18  31  51  78 105 133 166 208 254 301
#     4   9  19  33  53  76 102 133 166 206 251 306
#     4   9  17  29  46  73 108 139 165 198 248 304
#
# _framework density 17.900324999999999
#
# number of rings (size 3 to 8) (size 9 to 14) (size 15 to 20)
#    0.000    2.588    0.000    1.412    0.000   24.000 
#    0.000    3.529    0.000    0.000    0.000   27.176 
#    0.000    0.000    0.000    0.000    0.000    0.000 
#
# Total GULP energy -189529.623148 kJ/mol
# GULP energy per Si atom -5574.400681 kJ/mol
# Density = 1.785958 g / cm^3
# Si number density = 17.900325 Si / 1000 Ang^3
#
#
#
# Elastic Constant Matrix: (Units=GPa)
#
#
# Indices 1 2 3 4 5 6 
#
# 1 119.7214 44.5494 62.9927 0.0000 0.0000 0.0000
# 2 44.5494 43.0572 20.6421 0.0000 0.0000 0.0000
# 3 62.9927 20.6421 85.9628 0.0000 0.0000 0.0000
# 4 0.0000 0.0000 0.0000 -4.4959 0.0000 0.0000
# 5 0.0000 0.0000 0.0000 0.0000 11.5878 0.0000
# 6 0.0000 0.0000 0.0000 0.0000 0.0000 37.5878
#
#
#
# Elastic Compliance Matrix: (Units=1/GPa)
#
#
# Indices 1 2 3 4 5 6 
#
# 1 0.019670 -0.015190 -0.010766 0.000000 0.000000 0.000000
# 2 -0.015190 0.037977 0.002012 0.000000 0.000000 0.000000
# 3 -0.010766 0.002012 0.019039 0.000000 0.000000 0.000000
# 4 0.000000 0.000000 0.000000 -0.222424 0.000000 0.000000
# 5 0.000000 0.000000 0.000000 0.000000 0.086298 0.000000
# 6 0.000000 0.000000 0.000000 0.000000 0.000000 0.026604
#
#
# Mechanical properties :
#
#
# Convention : Reuss Voigt Hill
#
# Bulk Modulus (GPa) = 34.72593 56.12330 45.42461
# Shear Modulus (GPa) = 202.82138 16.97308 109.89723
#
# Velocity S-wave (km/s) = 10.65608 3.08263 7.84393
# Velocity P-wave (km/s) = 13.07074 6.64014 10.36667
#
# Compressibility (1/GPa) = 0.02879693
#
# Stress axis : x y z
#
# Youngs Moduli (GPa) = 50.83906 26.33179 52.52288
#
# Poissons Ratio (x) = 0.39998 0.56548
# Poissons Ratio (y) = 0.77225 -0.10567
# Poissons Ratio (z) = 0.54735 -0.05297
#
# Static dielectric constant tensor:
#      x y z
#    x 1.669650 0.000000 0.000000 
#    y 0.000000 1.616060 0.000000 
#    z 0.000000 0.000000 1.599620 
# 
# From -- ./inp_files/46717.got.cif
#   From: 2010.05.17/outbox.cif.g08.bks.cpg/sg66_24_cif.got.tgz:46717.got - 2010.06.03 17:51:23.
