data_PCOD9497763
_publ_section_title
;
Structure prediction by ZEFSAII (Michael W. Deem and Ramdas Pophale) SiO2 
 PCOD9497763
Probable space group: C C C M
;
_chemical_formula_sum "Si O2"
_cell_formula_units_Z 80
_cell_length_a 16.995555
_cell_length_b 26.147526
_cell_length_c 9.830268
_cell_angle_alpha 90.000000
_cell_angle_beta 90.000000
_cell_angle_gamma 90.000000
_cell_volume 4368.489668
_symmetry_space_group_name_H-M "C C C M"
_symmetry_group_IT_number 66
_symmetry_cell_setting 'orthorhombic'
loop_
_space_group_symop_operation_xyz
x,y,z
-x,-y,z
x,-y,1/2-z
-x,y,1/2-z
-x,-y,-z
x,y,-z
-x,y,1/2+z
x,-y,1/2+z
1/2+x,1/2+y,z
1/2-x,1/2-y,z
1/2+x,1/2-y,1/2-z
1/2-x,1/2+y,1/2-z
1/2-x,1/2-y,-z
1/2+x,1/2+y,-z
1/2-x,1/2+y,1/2+z
1/2+x,1/2-y,1/2+z
loop_
_atom_site_type_symbol
_atom_site_label
_atom_site_fract_x
_atom_site_fract_y
_atom_site_fract_z
Si Si1 0.279433 0.692026 0.342387
Si Si2 0.923382 0.156722 0.161752
Si Si3 0.151899 0.047478 0.654582
Si Si4 0.073777 0.574856 0.000000
Si Si5 0.895031 0.453473 0.500000
Si Si6 0.316524 0.903072 0.756327
O O1 0.302675 0.680606 0.500000
O O2 0.250000 0.750000 0.336797
O O3 0.350199 0.683762 0.236499
O O4 0.212130 0.651722 0.298833
O O5 0.905028 0.096012 0.172838
O O6 0.000000 0.169089 0.250000
O O7 0.929184 0.168698 0.000000
O O8 0.147744 0.029771 0.500000
O O9 0.239436 0.069396 0.682387
O O10 0.134517 0.000000 0.750000
O O11 0.115306 0.599165 0.868745
O O12 0.093281 0.514232 0.000000
O O13 0.979457 0.575186 0.000000
O O14 0.847911 0.436674 0.632395
#
# Coordination Sequence:
#
# PCOD9497763 Si02
#       6
#    16  16  16   8   8  16
#     4  10  22  42  67  88 114 154 200 247 300 356
#     4  10  22  40  61  89 121 153 192 239 293 350
#     4  10  21  34  55  84 116 156 198 238 285 345
#     4  11  22  36  55  82 125 157 200 247 294 362
#     4  11  22  36  55  82 117 169 200 237 302 352
#     4  11  21  37  57  85 114 156 199 248 292 355
#
# _framework density 18.312965999999999
#
# number of rings (size 3 to 8) (size 9 to 14) (size 15 to 20)
#    0.000    1.600    2.000    3.000    2.800    4.000 
#    0.000    4.000    0.000    0.000    0.000    0.000 
#    0.000    0.000    0.000    0.000    0.000    0.000 
#
# Total GULP energy -223411.776549 kJ/mol
# GULP energy per Si atom -5585.294414 kJ/mol
# Density = 1.827128 g / cm^3
# Si number density = 18.312966 Si / 1000 Ang^3
#
#
#
# Elastic Constant Matrix: (Units=GPa)
#
#
# Indices 1 2 3 4 5 6 
#
# 1 72.8524 14.2162 36.7483 0.0000 0.0000 0.0000
# 2 14.2162 68.5777 44.9680 0.0000 0.0000 0.0000
# 3 36.7483 44.9680 142.4326 0.0000 0.0000 0.0000
# 4 0.0000 0.0000 0.0000 39.7370 0.0000 0.0000
# 5 0.0000 0.0000 0.0000 0.0000 4.4431 0.0000
# 6 0.0000 0.0000 0.0000 0.0000 0.0000 11.9620
#
#
#
# Elastic Compliance Matrix: (Units=1/GPa)
#
#
# Indices 1 2 3 4 5 6 
#
# 1 0.015811 -0.000760 -0.003839 0.000000 0.000000 0.000000
# 2 -0.000760 0.018425 -0.005621 0.000000 0.000000 0.000000
# 3 -0.003839 -0.005621 0.009786 0.000000 0.000000 0.000000
# 4 0.000000 0.000000 0.000000 0.025165 0.000000 0.000000
# 5 0.000000 0.000000 0.000000 0.000000 0.225066 0.000000
# 6 0.000000 0.000000 0.000000 0.000000 0.000000 0.083598
#
#
# Mechanical properties :
#
#
# Convention : Reuss Voigt Hill
#
# Bulk Modulus (GPa) = 42.40573 52.85865 47.63219
# Shear Modulus (GPa) = 12.31058 23.75711 18.03385
#
# Velocity S-wave (km/s) = 2.59556 3.60569 3.14149
# Velocity P-wave (km/s) = 5.67353 6.80157 6.26300
#
# Compressibility (1/GPa) = 0.02358172
#
# Stress axis : x y z
#
# Youngs Moduli (GPa) = 63.24548 54.27282 102.18569
#
# Poissons Ratio (x) = 0.04125 0.39234
# Poissons Ratio (y) = 0.04807 0.57439
# Poissons Ratio (z) = 0.24283 0.30507
#
# Static dielectric constant tensor:
#      x y z
#    x 1.623960 0.000000 0.000000 
#    y 0.000000 1.601720 0.000000 
#    z 0.000000 0.000000 1.655860 
# 
# From -- ./inp_files/6743.got.cif
#   From: 2010.05.17/outbox.cif.g08.bks.cpg/sg66_4_cif.got.tgz:6743.got - 2010.06.03 17:51:23.
