data_PCOD9497618
_publ_section_title
;
Structure prediction by ZEFSAII (Michael W. Deem and Ramdas Pophale) SiO2 
 PCOD9497618
Probable space group: C C C M
;
_chemical_formula_sum "Si O2"
_cell_formula_units_Z 80
_cell_length_a 18.168022
_cell_length_b 9.071015
_cell_length_c 26.815625
_cell_angle_alpha 90.000000
_cell_angle_beta 90.000000
_cell_angle_gamma 90.000000
_cell_volume 4419.279360
_symmetry_space_group_name_H-M "C C C M"
_symmetry_group_IT_number 66
_symmetry_cell_setting 'orthorhombic'
loop_
_space_group_symop_operation_xyz
x,y,z
-x,-y,z
x,-y,1/2-z
-x,y,1/2-z
-x,-y,-z
x,y,-z
-x,y,1/2+z
x,-y,1/2+z
1/2+x,1/2+y,z
1/2-x,1/2-y,z
1/2+x,1/2-y,1/2-z
1/2-x,1/2+y,1/2-z
1/2-x,1/2-y,-z
1/2+x,1/2+y,-z
1/2-x,1/2+y,1/2+z
1/2+x,1/2-y,1/2+z
loop_
_atom_site_type_symbol
_atom_site_label
_atom_site_fract_x
_atom_site_fract_y
_atom_site_fract_z
Si Si1 0.038952 0.656630 0.200048
Si Si2 0.226706 0.078643 0.000000
Si Si3 0.572983 0.403959 0.000000
Si Si4 0.063370 0.875717 0.109029
Si Si5 0.733211 0.576445 0.397462
Si Si6 0.708735 0.904764 0.704696
O O1 0.041517 0.760310 0.151618
O O2 0.123388 0.625575 0.212974
O O3 0.000000 0.500000 0.189558
O O4 0.000000 0.719760 0.250000
O O5 0.250000 0.250000 0.000000
O O6 0.253304 0.007923 0.947981
O O7 0.141138 0.020422 0.000000
O O8 0.500000 0.500000 0.000000
O O9 0.571523 0.316047 0.052022
O O10 0.146514 0.936827 0.117120
O O11 0.000000 0.000000 0.109095
O O12 0.750000 0.750000 0.405638
O O13 0.779058 0.524379 0.349553
O O14 0.750000 0.750000 0.702934
O O15 0.738704 0.000000 0.750000
#
# Coordination Sequence:
#
# PCOD9497618 Si02
#       6
#    16   8   8  16  16  16
#     4  11  22  41  60  85 123 160 196 250 305 354
#     4  10  21  37  62  95 123 154 205 256 300 357
#     4   8  18  39  59  83 125 154 188 248 302 343
#     4  10  20  39  64  90 118 161 202 246 297 363
#     4  10  20  40  63  86 125 164 201 243 308 369
#     4  11  22  41  62  88 122 159 203 250 304 355
#
# _framework density 18.102498000000001
#
# number of rings (size 3 to 8) (size 9 to 14) (size 15 to 20)
#    0.000    1.800    6.000    0.300    0.000    2.800 
#   10.800    0.500    0.000    0.000    0.000    0.000 
#    0.000    0.000    0.000    0.000    0.000    0.000 
#
# Total GULP energy -222710.950801 kJ/mol
# GULP energy per Si atom -5567.773770 kJ/mol
# Density = 1.806130 g / cm^3
# Si number density = 18.102498 Si / 1000 Ang^3
#
#
#
# Elastic Constant Matrix: (Units=GPa)
#
#
# Indices 1 2 3 4 5 6 
#
# 1 89.7501 10.9469 27.3406 0.0000 0.0000 0.0000
# 2 10.9469 73.5394 62.7579 0.0000 0.0000 0.0000
# 3 27.3406 62.7579 200.9417 0.0000 0.0000 0.0000
# 4 0.0000 0.0000 0.0000 21.3866 0.0000 0.0000
# 5 0.0000 0.0000 0.0000 0.0000 136.5930 0.0000
# 6 0.0000 0.0000 0.0000 0.0000 0.0000 22.2587
#
#
#
# Elastic Compliance Matrix: (Units=1/GPa)
#
#
# Indices 1 2 3 4 5 6 
#
# 1 0.011638 -0.000520 -0.001421 0.000000 0.000000 0.000000
# 2 -0.000520 0.018563 -0.005727 0.000000 0.000000 0.000000
# 3 -0.001421 -0.005727 0.006959 0.000000 0.000000 0.000000
# 4 0.000000 0.000000 0.000000 0.046758 0.000000 0.000000
# 5 0.000000 0.000000 0.000000 0.000000 0.007321 0.000000
# 6 0.000000 0.000000 0.000000 0.000000 0.000000 0.044926
#
#
# Mechanical properties :
#
#
# Convention : Reuss Voigt Hill
#
# Bulk Modulus (GPa) = 45.82037 62.92467 54.37252
# Shear Modulus (GPa) = 31.49104 53.59337 42.54221
#
# Velocity S-wave (km/s) = 4.17537 5.44700 4.85302
# Velocity P-wave (km/s) = 6.97220 8.62528 7.84241
#
# Compressibility (1/GPa) = 0.02182435
#
# Stress axis : x y z
#
# Youngs Moduli (GPa) = 85.92262 53.87147 143.70838
#
# Poissons Ratio (x) = 0.02799 0.20425
# Poissons Ratio (y) = 0.04464 0.82299
# Poissons Ratio (z) = 0.12212 0.30851
#
# Static dielectric constant tensor:
#      x y z
#    x 1.634500 0.000000 0.000000 
#    y 0.000000 1.591900 0.000000 
#    z 0.000000 0.000000 1.701880 
# 
# From -- ./inp_files/62473.got.cif
#   From: 2010.05.17/outbox.cif.g08.bks.cpg/sg66_32_cif.got.tgz:62473.got - 2010.06.03 17:51:23.
