data_PCOD9497997
_publ_section_title
;
Structure prediction by ZEFSAII (Michael W. Deem and Ramdas Pophale) SiO2 
 PCOD9497997
Probable space group: C C C M
;
_chemical_formula_sum "Si O2"
_cell_formula_units_Z 112
_cell_length_a 14.875951
_cell_length_b 24.658003
_cell_length_c 14.077313
_cell_angle_alpha 90.000000
_cell_angle_beta 90.000000
_cell_angle_gamma 90.000000
_cell_volume 5163.716699
_symmetry_space_group_name_H-M "C C C M"
_symmetry_group_IT_number 66
_symmetry_cell_setting 'orthorhombic'
loop_
_space_group_symop_operation_xyz
x,y,z
-x,-y,z
x,-y,1/2-z
-x,y,1/2-z
-x,-y,-z
x,y,-z
-x,y,1/2+z
x,-y,1/2+z
1/2+x,1/2+y,z
1/2-x,1/2-y,z
1/2+x,1/2-y,1/2-z
1/2-x,1/2+y,1/2-z
1/2-x,1/2-y,-z
1/2+x,1/2+y,-z
1/2-x,1/2+y,1/2+z
1/2+x,1/2-y,1/2+z
loop_
_atom_site_type_symbol
_atom_site_label
_atom_site_fract_x
_atom_site_fract_y
_atom_site_fract_z
Si Si1 0.315224 0.125851 0.262546
Si Si2 0.838025 0.179877 0.888735
Si Si3 0.447423 0.662074 0.610793
Si Si4 0.105510 0.739301 0.260628
Si Si5 0.936642 0.954748 0.893858
Si Si6 0.424142 0.044092 0.392770
Si Si7 0.243039 0.473040 0.148482
O O1 0.231823 0.140697 0.333323
O O2 0.347628 0.182691 0.219352
O O3 0.393081 0.093106 0.322622
O O4 0.287433 0.087219 0.175800
O O5 0.847053 0.237147 0.833798
O O6 0.943840 0.163546 0.883564
O O7 0.813564 0.183721 0.000000
O O8 0.421377 0.665296 0.500000
O O9 0.398163 0.710620 0.665649
O O10 0.425818 0.603448 0.654282
O O11 0.000000 0.727048 0.250000
O O12 0.836871 0.976476 0.902486
O O13 0.974655 0.943579 0.000000
O O14 0.000000 0.000000 0.850839
O O15 0.447809 0.063203 0.500000
O O16 0.500000 0.000000 0.361116
O O17 0.335517 0.007071 0.397739
O O18 0.259372 0.500000 0.250000
#
# Coordination Sequence:
#
# PCOD9497997 Si02
#       7
#    16  16  16  16  16  16  16
#     4  11  23  37  64  90 122 167 215 264 320 393
#     4  10  21  38  61  92 127 163 209 271 327 383
#     4   9  20  40  63  90 131 170 210 266 328 390
#     4  10  22  39  62  90 126 169 212 267 329 386
#     4  10  21  37  61  89 123 164 206 253 313 382
#     4  10  23  42  63  88 123 166 212 269 328 385
#     4  10  23  38  56  89 124 159 203 261 315 385
#
# _framework density 21.689803999999999
#
# number of rings (size 3 to 8) (size 9 to 14) (size 15 to 20)
#    0.000    2.000    0.000    2.143    6.000    4.000 
#    0.000    1.429    0.000    3.429    0.000    0.000 
#    0.000    0.000    0.000    0.000    0.000    0.000 
#
# Total GULP energy -312312.501896 kJ/mol
# GULP energy per Si atom -5577.008962 kJ/mol
# Density = 2.164044 g / cm^3
# Si number density = 21.689804 Si / 1000 Ang^3
#
#
#
# Elastic Constant Matrix: (Units=GPa)
#
#
# Indices 1 2 3 4 5 6 
#
# 1 83.9955 38.1344 13.4628 0.0000 0.0000 0.0000
# 2 38.1344 135.3341 22.3985 0.0000 0.0000 0.0000
# 3 13.4628 22.3985 83.9712 0.0000 0.0000 0.0000
# 4 0.0000 0.0000 0.0000 -16.2280 0.0000 0.0000
# 5 0.0000 0.0000 0.0000 0.0000 13.2615 0.0000
# 6 0.0000 0.0000 0.0000 0.0000 0.0000 27.8179
#
#
#
# Elastic Compliance Matrix: (Units=1/GPa)
#
#
# Indices 1 2 3 4 5 6 
#
# 1 0.013772 -0.003678 -0.001227 0.000000 0.000000 0.000000
# 2 -0.003678 0.008712 -0.001734 0.000000 0.000000 0.000000
# 3 -0.001227 -0.001734 0.012568 0.000000 0.000000 0.000000
# 4 0.000000 0.000000 0.000000 -0.061622 0.000000 0.000000
# 5 0.000000 0.000000 0.000000 0.000000 0.075406 0.000000
# 6 0.000000 0.000000 0.000000 0.000000 0.000000 0.035948
#
#
# Mechanical properties :
#
#
# Convention : Reuss Voigt Hill
#
# Bulk Modulus (GPa) = 45.92525 50.14361 48.03443
# Shear Modulus (GPa) = 47.47415 20.25729 33.86572
#
# Velocity S-wave (km/s) = 4.68351 3.05938 3.95570
# Velocity P-wave (km/s) = 7.10399 5.97063 6.56183
#
# Compressibility (1/GPa) = 0.02177451
#
# Stress axis : x y z
#
# Youngs Moduli (GPa) = 72.61279 114.77881 79.56594
#
# Poissons Ratio (x) = 0.42210 0.09763
# Poissons Ratio (y) = 0.26703 0.13800
# Poissons Ratio (z) = 0.08910 0.19907
#
# Static dielectric constant tensor:
#      x y z
#    x 1.828460 0.000000 0.000000 
#    y 0.000000 1.819350 0.000000 
#    z 0.000000 0.000000 1.973060 
# 
# From -- ./inp_files/28714.got.cif
#   From: 2010.05.17/outbox.cif.g08.bks.cpg/sg66_15_cif.got.tgz:28714.got - 2010.06.03 17:51:23.
