data_PCOD9497440
_publ_section_title
;
Structure prediction by ZEFSAII (Michael W. Deem and Ramdas Pophale) SiO2 
 PCOD9497440
Probable space group: C C C M
;
_chemical_formula_sum "Si O2"
_cell_formula_units_Z 112
_cell_length_a 17.908671
_cell_length_b 12.197322
_cell_length_c 24.160752
_cell_angle_alpha 90.000000
_cell_angle_beta 90.000000
_cell_angle_gamma 90.000000
_cell_volume 5277.622160
_symmetry_space_group_name_H-M "C C C M"
_symmetry_group_IT_number 66
_symmetry_cell_setting 'orthorhombic'
loop_
_space_group_symop_operation_xyz
x,y,z
-x,-y,z
x,-y,1/2-z
-x,y,1/2-z
-x,-y,-z
x,y,-z
-x,y,1/2+z
x,-y,1/2+z
1/2+x,1/2+y,z
1/2-x,1/2-y,z
1/2+x,1/2-y,1/2-z
1/2-x,1/2+y,1/2-z
1/2-x,1/2-y,-z
1/2+x,1/2+y,-z
1/2-x,1/2+y,1/2+z
1/2+x,1/2-y,1/2+z
loop_
_atom_site_type_symbol
_atom_site_label
_atom_site_fract_x
_atom_site_fract_y
_atom_site_fract_z
Si Si1 0.913975 0.522163 0.691004
Si Si2 0.088087 0.131427 0.245376
Si Si3 0.213913 0.613150 0.059258
Si Si4 0.321954 0.889337 0.396315
Si Si5 0.391536 0.567766 0.063657
Si Si6 0.352584 0.652088 0.377914
Si Si7 0.877097 0.246614 0.853840
O O1 0.877093 0.500000 0.750000
O O2 0.873319 0.439203 0.650806
O O3 0.914577 0.646598 0.671197
O O4 0.000000 0.500000 0.694382
O O5 0.118378 0.164832 0.184905
O O6 0.136214 0.176848 0.297644
O O7 0.000000 0.164032 0.250000
O O8 0.090821 0.000000 0.250000
O O9 0.179958 0.490760 0.061472
O O10 0.302405 0.593767 0.062684
O O11 0.184124 0.689273 0.108440
O O12 0.193222 0.663304 0.000000
O O13 0.352716 0.768665 0.409954
O O14 0.235804 0.877593 0.376760
O O15 0.395874 0.447253 0.091417
O O16 0.420242 0.663312 0.104808
O O17 0.418093 0.570106 0.000000
#
# Coordination Sequence:
#
# PCOD9497440 Si02
#       7
#    16  16  16  16  16  16  16
#     4  10  22  38  57  86 118 160 203 242 302 375
#     4  11  24  40  59  86 119 168 206 247 312 380
#     4   9  19  37  61  90 124 157 201 251 310 373
#     4   9  20  36  58  90 123 159 198 254 310 358
#     4  10  20  37  62  92 123 159 204 254 310 366
#     4  10  20  39  59  91 128 159 204 259 309 368
#     4  11  21  36  60  88 115 157 199 253 298 365
#
# _framework density 21.221679000000002
#
# number of rings (size 3 to 8) (size 9 to 14) (size 15 to 20)
#    0.000    2.000    1.429    1.714    4.000    2.286 
#   10.286    2.857    0.000   13.286    0.000    0.000 
#    0.000    0.000    0.000    0.000    0.000    0.000 
#
# Total GULP energy -311955.665712 kJ/mol
# GULP energy per Si atom -5570.636888 kJ/mol
# Density = 2.117338 g / cm^3
# Si number density = 21.221679 Si / 1000 Ang^3
#
#
#
# Elastic Constant Matrix: (Units=GPa)
#
#
# Indices 1 2 3 4 5 6 
#
# 1 16.0035 22.6232 20.1311 0.0000 0.0000 0.0000
# 2 22.6232 173.7609 55.6487 0.0000 0.0000 0.0000
# 3 20.1311 55.6487 139.8889 0.0000 0.0000 0.0000
# 4 0.0000 0.0000 0.0000 49.8925 0.0000 0.0000
# 5 0.0000 0.0000 0.0000 0.0000 5.3082 0.0000
# 6 0.0000 0.0000 0.0000 0.0000 0.0000 41.9721
#
#
#
# Elastic Compliance Matrix: (Units=1/GPa)
#
#
# Indices 1 2 3 4 5 6 
#
# 1 0.085487 -0.008240 -0.009024 0.000000 0.000000 0.000000
# 2 -0.008240 0.007390 -0.001754 0.000000 0.000000 0.000000
# 3 -0.009024 -0.001754 0.009145 0.000000 0.000000 0.000000
# 4 0.000000 0.000000 0.000000 0.020043 0.000000 0.000000
# 5 0.000000 0.000000 0.000000 0.000000 0.188388 0.000000
# 6 0.000000 0.000000 0.000000 0.000000 0.000000 0.023825
#
#
# Mechanical properties :
#
#
# Convention : Reuss Voigt Hill
#
# Bulk Modulus (GPa) = 15.62866 58.49549 37.06207
# Shear Modulus (GPa) = 12.70190 34.85125 23.77657
#
# Velocity S-wave (km/s) = 2.44915 4.05686 3.35086
# Velocity P-wave (km/s) = 3.92151 7.04046 5.69852
#
# Compressibility (1/GPa) = 0.06398501
#
# Stress axis : x y z
#
# Youngs Moduli (GPa) = 11.69770 135.32645 109.35090
#
# Poissons Ratio (x) = 1.11509 0.98682
# Poissons Ratio (y) = 0.09639 0.19178
# Poissons Ratio (z) = 0.10556 0.23734
#
# Static dielectric constant tensor:
#      x y z
#    x 1.763360 0.000000 0.000000 
#    y 0.000000 1.759880 0.000000 
#    z 0.000000 0.000000 1.750170 
# 
# From -- ./inp_files/52615.got.cif
#   From: 2010.05.17/outbox.cif.g08.bks.cpg/sg66_27_cif.got.tgz:52615.got - 2010.06.03 17:51:23.
