data_PCOD9497449
_publ_section_title
;
Structure prediction by ZEFSAII (Michael W. Deem and Ramdas Pophale) SiO2 
 PCOD9497449
Probable space group: C C C M
;
_chemical_formula_sum "Si O2"
_cell_formula_units_Z 64
_cell_length_a 13.317066
_cell_length_b 13.768118
_cell_length_c 14.127022
_cell_angle_alpha 90.000000
_cell_angle_beta 90.000000
_cell_angle_gamma 90.000000
_cell_volume 2590.202708
_symmetry_space_group_name_H-M "C C C M"
_symmetry_group_IT_number 66
_symmetry_cell_setting 'orthorhombic'
loop_
_space_group_symop_operation_xyz
x,y,z
-x,-y,z
x,-y,1/2-z
-x,y,1/2-z
-x,-y,-z
x,y,-z
-x,y,1/2+z
x,-y,1/2+z
1/2+x,1/2+y,z
1/2-x,1/2-y,z
1/2+x,1/2-y,1/2-z
1/2-x,1/2+y,1/2-z
1/2-x,1/2-y,-z
1/2+x,1/2+y,-z
1/2-x,1/2+y,1/2+z
1/2+x,1/2-y,1/2+z
loop_
_atom_site_type_symbol
_atom_site_label
_atom_site_fract_x
_atom_site_fract_y
_atom_site_fract_z
Si Si1 0.438696 0.768254 0.111581
Si Si2 0.168774 0.672890 0.387426
Si Si3 0.902257 0.054252 0.848987
Si Si4 0.176236 0.541473 0.106542
O O1 0.556656 0.787822 0.117605
O O2 0.420181 0.667967 0.163942
O O3 0.375058 0.861054 0.146053
O O4 0.412770 0.752431 0.000000
O O5 0.195256 0.660855 0.500000
O O6 0.250000 0.750000 0.348722
O O7 0.163616 0.563896 0.346691
O O8 0.795901 0.050001 0.899882
O O9 0.888545 0.000000 0.750000
O O10 0.000000 0.000000 0.892599
O O11 0.131229 0.535135 0.000000
#
# Coordination Sequence:
#
# PCOD9497449 Si02
#       4
#    16  16  16  16
#     4  10  20  37  63  92 122 155 197 253 310 367
#     4   9  17  31  57  94 127 153 187 237 297 359
#     4  11  24  40  55  81 119 161 205 248 304 369
#     4  10  20  37  64  94 119 150 198 253 309 366
#
# _framework density 24.708490999999999
#
# number of rings (size 3 to 8) (size 9 to 14) (size 15 to 20)
#    0.000    2.000    0.000    3.750    0.000    9.000 
#    0.000   12.500    0.000    1.500    0.000    0.000 
#    0.000    0.000    0.000    0.000    0.000    0.500 
#
# Total GULP energy -178960.987842 kJ/mol
# GULP energy per Si atom -5592.530870 kJ/mol
# Density = 2.465225 g / cm^3
# Si number density = 24.708491 Si / 1000 Ang^3
#
#
#
# Elastic Constant Matrix: (Units=GPa)
#
#
# Indices 1 2 3 4 5 6 
#
# 1 91.6288 61.2246 33.7600 0.0000 0.0000 0.0000
# 2 61.2246 274.7480 61.9333 0.0000 0.0000 0.0000
# 3 33.7600 61.9333 79.7057 0.0000 0.0000 0.0000
# 4 0.0000 0.0000 0.0000 60.9938 0.0000 0.0000
# 5 0.0000 0.0000 0.0000 0.0000 13.9503 0.0000
# 6 0.0000 0.0000 0.0000 0.0000 0.0000 38.2840
#
#
#
# Elastic Compliance Matrix: (Units=1/GPa)
#
#
# Indices 1 2 3 4 5 6 
#
# 1 0.013903 -0.002147 -0.004221 0.000000 0.000000 0.000000
# 2 -0.002147 0.004744 -0.002777 0.000000 0.000000 0.000000
# 3 -0.004221 -0.002777 0.016492 0.000000 0.000000 0.000000
# 4 0.000000 0.000000 0.000000 0.016395 0.000000 0.000000
# 5 0.000000 0.000000 0.000000 0.000000 0.071683 0.000000
# 6 0.000000 0.000000 0.000000 0.000000 0.000000 0.026121
#
#
# Mechanical properties :
#
#
# Convention : Reuss Voigt Hill
#
# Bulk Modulus (GPa) = 59.34731 84.43539 71.89135
# Shear Modulus (GPa) = 28.86115 41.92325 35.39220
#
# Velocity S-wave (km/s) = 3.42141 4.12359 3.78880
# Velocity P-wave (km/s) = 6.29914 7.54445 6.94975
#
# Compressibility (1/GPa) = 0.01684996
#
# Stress axis : x y z
#
# Youngs Moduli (GPa) = 71.92646 210.78994 60.63669
#
# Poissons Ratio (x) = 0.45251 0.25593
# Poissons Ratio (y) = 0.15441 0.16839
# Poissons Ratio (z) = 0.30358 0.58536
#
# Static dielectric constant tensor:
#      x y z
#    x 1.945200 0.000000 0.000000 
#    y 0.000000 1.941250 0.000000 
#    z 0.000000 0.000000 2.098170 
# 
# From -- ./inp_files/38012.got.cif
#   From: 2010.05.17/outbox.cif.g08.bks.cpg/sg66_20_cif.got.tgz:38012.got - 2010.06.03 17:51:23.
