data_PCOD9497458
_publ_section_title
;
Structure prediction by ZEFSAII (Michael W. Deem and Ramdas Pophale) SiO2 
 PCOD9497458
Probable space group: C C C M
;
_chemical_formula_sum "Si O2"
_cell_formula_units_Z 72
_cell_length_a 29.950814
_cell_length_b 13.171076
_cell_length_c 7.596411
_cell_angle_alpha 90.000000
_cell_angle_beta 90.000000
_cell_angle_gamma 90.000000
_cell_volume 2996.665996
_symmetry_space_group_name_H-M "C C C M"
_symmetry_group_IT_number 66
_symmetry_cell_setting 'orthorhombic'
loop_
_space_group_symop_operation_xyz
x,y,z
-x,-y,z
x,-y,1/2-z
-x,y,1/2-z
-x,-y,-z
x,y,-z
-x,y,1/2+z
x,-y,1/2+z
1/2+x,1/2+y,z
1/2-x,1/2-y,z
1/2+x,1/2-y,1/2-z
1/2-x,1/2+y,1/2-z
1/2-x,1/2-y,-z
1/2+x,1/2+y,-z
1/2-x,1/2+y,1/2+z
1/2+x,1/2-y,1/2+z
loop_
_atom_site_type_symbol
_atom_site_label
_atom_site_fract_x
_atom_site_fract_y
_atom_site_fract_z
Si Si1 0.178041 0.380335 0.298991
Si Si2 0.723371 0.379324 0.710395
Si Si3 0.450185 0.779038 0.802911
Si Si4 0.606267 0.849487 0.000000
Si Si5 0.875743 0.119848 0.287697
O O1 0.179595 0.500000 0.250000
O O2 0.162671 0.369849 0.500000
O O3 0.228998 0.342538 0.281860
O O4 0.144882 0.339536 0.153504
O O5 0.723688 0.500000 0.750000
O O6 0.723945 0.364287 0.500000
O O7 0.674054 0.349069 0.777280
O O8 0.500000 0.746613 0.750000
O O9 0.431657 0.854413 0.655852
O O10 0.416289 0.683060 0.791760
O O11 0.449566 0.820042 0.000000
O O12 0.878444 0.136974 0.500000
O O13 0.880353 0.000000 0.250000
#
# Coordination Sequence:
#
# PCOD9497458 Si02
#       5
#    16  16  16   8  16
#     4  11  20  37  66  99 133 169 208 253 313 387
#     4   9  16  30  55  90 135 172 205 251 307 371
#     4  12  25  46  69  90 124 171 215 264 331 386
#     4  12  24  44  67  98 128 168 212 263 325 386
#     4  10  20  37  63  97 132 171 221 267 303 363
#
# _framework density 24.026702
#
# number of rings (size 3 to 8) (size 9 to 14) (size 15 to 20)
#    0.000    1.333    4.444    3.333    0.000    3.111 
#    0.000    4.444    0.000    4.667    0.000    0.000 
#    0.000    0.000    0.000    0.000    0.000    0.000 
#
# Total GULP energy -200492.316375 kJ/mol
# GULP energy per Si atom -5569.231010 kJ/mol
# Density = 2.397202 g / cm^3
# Si number density = 24.026702 Si / 1000 Ang^3
#
#
#
# Elastic Constant Matrix: (Units=GPa)
#
#
# Indices 1 2 3 4 5 6 
#
# 1 198.0342 19.7406 67.9788 0.0000 0.0000 0.0000
# 2 19.7406 44.1000 14.8663 0.0000 0.0000 0.0000
# 3 67.9788 14.8663 250.7956 0.0000 0.0000 0.0000
# 4 0.0000 0.0000 0.0000 27.6328 0.0000 0.0000
# 5 0.0000 0.0000 0.0000 0.0000 38.6680 0.0000
# 6 0.0000 0.0000 0.0000 0.0000 0.0000 36.7127
#
#
#
# Elastic Compliance Matrix: (Units=1/GPa)
#
#
# Indices 1 2 3 4 5 6 
#
# 1 0.005751 -0.002090 -0.001435 0.000000 0.000000 0.000000
# 2 -0.002090 0.023898 -0.000850 0.000000 0.000000 0.000000
# 3 -0.001435 -0.000850 0.004427 0.000000 0.000000 0.000000
# 4 0.000000 0.000000 0.000000 0.036189 0.000000 0.000000
# 5 0.000000 0.000000 0.000000 0.000000 0.025861 0.000000
# 6 0.000000 0.000000 0.000000 0.000000 0.000000 0.027239
#
#
# Mechanical properties :
#
#
# Convention : Reuss Voigt Hill
#
# Bulk Modulus (GPa) = 39.48706 77.56679 58.52692
# Shear Modulus (GPa) = 35.57308 46.62565 41.09936
#
# Velocity S-wave (km/s) = 3.85198 4.40998 4.14039
# Velocity P-wave (km/s) = 6.02113 7.63441 6.87525
#
# Compressibility (1/GPa) = 0.02532475
#
# Stress axis : x y z
#
# Youngs Moduli (GPa) = 173.89702 41.84444 225.90728
#
# Poissons Ratio (x) = 0.08747 0.32413
# Poissons Ratio (y) = 0.36352 0.19201
# Poissons Ratio (z) = 0.24950 0.03557
#
# Static dielectric constant tensor:
#      x y z
#    x 1.878790 0.000000 0.000000 
#    y 0.000000 2.084410 0.000000 
#    z 0.000000 0.000000 1.843840 
# 
# From -- ./inp_files/8842.got.cif
#   From: 2010.05.17/outbox.cif.g08.bks.cpg/sg66_5_cif.got.tgz:8842.got - 2010.06.03 17:51:23.
