data_PCOD9497776
_publ_section_title
;
Structure prediction by ZEFSAII (Michael W. Deem and Ramdas Pophale) SiO2 
 PCOD9497776
Probable space group: C C C M
;
_chemical_formula_sum "Si O2"
_cell_formula_units_Z 80
_cell_length_a 27.633161
_cell_length_b 8.369860
_cell_length_c 16.159733
_cell_angle_alpha 90.000000
_cell_angle_beta 90.000000
_cell_angle_gamma 90.000000
_cell_volume 3737.514980
_symmetry_space_group_name_H-M "C C C M"
_symmetry_group_IT_number 66
_symmetry_cell_setting 'orthorhombic'
loop_
_space_group_symop_operation_xyz
x,y,z
-x,-y,z
x,-y,1/2-z
-x,y,1/2-z
-x,-y,-z
x,y,-z
-x,y,1/2+z
x,-y,1/2+z
1/2+x,1/2+y,z
1/2-x,1/2-y,z
1/2+x,1/2-y,1/2-z
1/2-x,1/2+y,1/2-z
1/2-x,1/2-y,-z
1/2+x,1/2+y,-z
1/2-x,1/2+y,1/2+z
1/2+x,1/2-y,1/2+z
loop_
_atom_site_type_symbol
_atom_site_label
_atom_site_fract_x
_atom_site_fract_y
_atom_site_fract_z
Si Si1 0.618561 0.595553 0.163369
Si Si2 0.476567 0.773288 0.339783
Si Si3 0.338050 0.706224 0.907492
Si Si4 0.699318 0.810617 0.237091
Si Si5 0.566511 0.084962 0.907106
O O1 0.614929 0.500000 0.250000
O O2 0.564791 0.647648 0.139836
O O3 0.642076 0.473507 0.099358
O O4 0.654466 0.742994 0.183570
O O5 0.500000 0.746188 0.250000
O O6 0.522358 0.790457 0.399593
O O7 0.448133 0.942974 0.345695
O O8 0.304386 0.732535 0.828593
O O9 0.383518 0.825266 0.892025
O O10 0.319042 0.737170 0.000000
O O11 0.750000 0.750000 0.199803
O O12 0.698066 0.000000 0.250000
O O13 0.567537 0.017397 0.000000
#
# Coordination Sequence:
#
# PCOD9497776 Si02
#       5
#    16  16  16  16  16
#     4  10  22  37  55  83 113 147 190 235 287 342
#     4  11  20  32  53  79 109 150 199 242 277 331
#     4  10  22  39  59  86 120 154 192 241 292 345
#     4  11  22  41  66  88 114 149 189 236 292 352
#     4  10  21  35  51  77 113 152 190 230 284 338
#
# _framework density 21.404596000000002
#
# number of rings (size 3 to 8) (size 9 to 14) (size 15 to 20)
#    0.000    1.600    0.000    7.800    0.000    6.400 
#    0.000    3.000    0.000    2.400    0.000    0.000 
#    0.000    0.000    0.000    0.000    0.000    0.000 
#
# Total GULP energy -223429.856033 kJ/mol
# GULP energy per Si atom -5585.746401 kJ/mol
# Density = 2.135588 g / cm^3
# Si number density = 21.404596 Si / 1000 Ang^3
#
#
#
# Elastic Constant Matrix: (Units=GPa)
#
#
# Indices 1 2 3 4 5 6 
#
# 1 67.2318 -3.5639 -12.2699 0.0000 0.0000 0.0000
# 2 -3.5639 62.9291 -19.3193 0.0000 0.0000 0.0000
# 3 -12.2699 -19.3193 43.4360 0.0000 0.0000 0.0000
# 4 0.0000 0.0000 0.0000 8.1787 0.0000 0.0000
# 5 0.0000 0.0000 0.0000 0.0000 16.8664 0.0000
# 6 0.0000 0.0000 0.0000 0.0000 0.0000 24.1069
#
#
#
# Elastic Compliance Matrix: (Units=1/GPa)
#
#
# Indices 1 2 3 4 5 6 
#
# 1 0.016060 0.002666 0.005722 0.000000 0.000000 0.000000
# 2 0.002666 0.018847 0.009136 0.000000 0.000000 0.000000
# 3 0.005722 0.009136 0.028702 0.000000 0.000000 0.000000
# 4 0.000000 0.000000 0.000000 0.122269 0.000000 0.000000
# 5 0.000000 0.000000 0.000000 0.000000 0.059289 0.000000
# 6 0.000000 0.000000 0.000000 0.000000 0.000000 0.041482
#
#
# Mechanical properties :
#
#
# Convention : Reuss Voigt Hill
#
# Bulk Modulus (GPa) = 10.13610 11.47675 10.80642
# Shear Modulus (GPa) = 17.57557 23.74707 20.66132
#
# Velocity S-wave (km/s) = 2.86861 3.33444 3.11026
# Velocity P-wave (km/s) = 3.96455 4.49423 4.23767
#
# Compressibility (1/GPa) = 0.09865730
#
# Stress axis : x y z
#
# Youngs Moduli (GPa) = 62.26804 53.06012 34.84051
#
# Poissons Ratio (x) = -0.14148 -0.19937
# Poissons Ratio (y) = -0.16603 -0.31829
# Poissons Ratio (z) = -0.35633 -0.48474
#
# Static dielectric constant tensor:
#      x y z
#    x 1.766090 0.000000 0.000000 
#    y 0.000000 1.816310 0.000000 
#    z 0.000000 0.000000 1.770960 
# 
# From -- ./inp_files/44600.got.cif
#   From: 2010.05.17/outbox.cif.g08.bks.cpg/sg66_23_cif.got.tgz:44600.got - 2010.06.03 17:51:23.
