data_PCOD9497570
_publ_section_title
;
Structure prediction by ZEFSAII (Michael W. Deem and Ramdas Pophale) SiO2 
 PCOD9497570
Probable space group: C C C M
;
_chemical_formula_sum "Si O2"
_cell_formula_units_Z 68
_cell_length_a 10.282050
_cell_length_b 19.935936
_cell_length_c 14.813420
_cell_angle_alpha 90.000000
_cell_angle_beta 90.000000
_cell_angle_gamma 90.000000
_cell_volume 3036.488765
_symmetry_space_group_name_H-M "C C C M"
_symmetry_group_IT_number 66
_symmetry_cell_setting 'orthorhombic'
loop_
_space_group_symop_operation_xyz
x,y,z
-x,-y,z
x,-y,1/2-z
-x,y,1/2-z
-x,-y,-z
x,y,-z
-x,y,1/2+z
x,-y,1/2+z
1/2+x,1/2+y,z
1/2-x,1/2-y,z
1/2+x,1/2-y,1/2-z
1/2-x,1/2+y,1/2-z
1/2-x,1/2-y,-z
1/2+x,1/2+y,-z
1/2-x,1/2+y,1/2+z
1/2+x,1/2-y,1/2+z
loop_
_atom_site_type_symbol
_atom_site_label
_atom_site_fract_x
_atom_site_fract_y
_atom_site_fract_z
Si Si1 0.612078 0.952655 0.601573
Si Si2 0.859858 0.698477 0.648764
Si Si3 0.177765 0.934379 0.600924
Si Si4 0.349910 0.803492 0.363712
Si Si5 0.500000 0.500000 0.250000
O O1 0.563398 0.937533 0.500000
O O2 0.655436 0.881845 0.640981
O O3 0.500000 0.000000 0.644764
O O4 0.737636 0.998467 0.597398
O O5 0.750000 0.750000 0.613344
O O6 0.861318 0.708456 0.756364
O O7 0.002478 0.708041 0.605759
O O8 0.119378 0.923411 0.500000
O O9 0.282301 0.875120 0.619077
O O10 0.079734 0.950111 0.682772
O O11 0.250000 0.750000 0.401207
#
# Coordination Sequence:
#
# PCOD9497570 Si02
#       5
#    16  16  16  16   4
#     4  10  20  38  65  95 131 172 229 296 354 420
#     4  10  21  38  62  97 135 184 238 294 350 426
#     4  11  24  43  68  98 134 181 237 294 363 430
#     4  10  22  39  61  92 136 185 232 289 355 425
#     4  12  26  44  66  98 136 184 230 308 360 438
#
# _framework density 22.394286000000001
#
# number of rings (size 3 to 8) (size 9 to 14) (size 15 to 20)
#    0.000    1.647    2.353    1.765    0.000    6.588 
#    0.000    0.000    0.000    0.000    0.000    0.000 
#    0.000    0.000    0.000    0.000    0.000    0.000 
#
# Total GULP energy -189549.582695 kJ/mol
# GULP energy per Si atom -5574.987726 kJ/mol
# Density = 2.234332 g / cm^3
# Si number density = 22.394286 Si / 1000 Ang^3
#
#
#
# Elastic Constant Matrix: (Units=GPa)
#
#
# Indices 1 2 3 4 5 6 
#
# 1 152.3781 99.2057 64.4036 0.0000 0.0000 0.0000
# 2 99.2057 153.0709 14.0243 0.0000 0.0000 0.0000
# 3 64.4036 14.0243 124.2254 0.0000 0.0000 0.0000
# 4 0.0000 0.0000 0.0000 13.9684 0.0000 0.0000
# 5 0.0000 0.0000 0.0000 0.0000 4.4954 0.0000
# 6 0.0000 0.0000 0.0000 0.0000 0.0000 47.8257
#
#
#
# Elastic Compliance Matrix: (Units=1/GPa)
#
#
# Indices 1 2 3 4 5 6 
#
# 1 0.015824 -0.009603 -0.007120 0.000000 0.000000 0.000000
# 2 -0.009603 0.012429 0.003576 0.000000 0.000000 0.000000
# 3 -0.007120 0.003576 0.011337 0.000000 0.000000 0.000000
# 4 0.000000 0.000000 0.000000 0.071590 0.000000 0.000000
# 5 0.000000 0.000000 0.000000 0.000000 0.222450 0.000000
# 6 0.000000 0.000000 0.000000 0.000000 0.000000 0.020909
#
#
# Mechanical properties :
#
#
# Convention : Reuss Voigt Hill
#
# Bulk Modulus (GPa) = 75.21167 87.21575 81.21371
# Shear Modulus (GPa) = 12.97802 30.06062 21.51932
#
# Velocity S-wave (km/s) = 2.40994 3.66776 3.10325
# Velocity P-wave (km/s) = 6.43443 7.54763 7.01315
#
# Compressibility (1/GPa) = 0.01329581
#
# Stress axis : x y z
#
# Youngs Moduli (GPa) = 63.19510 80.45543 88.20392
#
# Poissons Ratio (x) = 0.77264 0.62798
# Poissons Ratio (y) = 0.60688 -0.31538
# Poissons Ratio (z) = 0.44993 -0.28767
#
# Static dielectric constant tensor:
#      x y z
#    x 1.869680 0.000000 0.000000 
#    y 0.000000 1.890190 0.000000 
#    z 0.000000 0.000000 1.907960 
# 
# From -- ./inp_files/36469.got.cif
#   From: 2010.05.17/outbox.cif.g08.bks.cpg/sg66_19_cif.got.tgz:36469.got - 2010.06.03 17:51:23.
