data_PCOD9497425
_publ_section_title
;
Structure prediction by ZEFSAII (Michael W. Deem and Ramdas Pophale) SiO2 
 PCOD9497425
Probable space group: C C C M
;
_chemical_formula_sum "Si O2"
_cell_formula_units_Z 112
_cell_length_a 23.208728
_cell_length_b 9.336901
_cell_length_c 24.823807
_cell_angle_alpha 90.000000
_cell_angle_beta 90.000000
_cell_angle_gamma 90.000000
_cell_volume 5379.259292
_symmetry_space_group_name_H-M "C C C M"
_symmetry_group_IT_number 66
_symmetry_cell_setting 'orthorhombic'
loop_
_space_group_symop_operation_xyz
x,y,z
-x,-y,z
x,-y,1/2-z
-x,y,1/2-z
-x,-y,-z
x,y,-z
-x,y,1/2+z
x,-y,1/2+z
1/2+x,1/2+y,z
1/2-x,1/2-y,z
1/2+x,1/2-y,1/2-z
1/2-x,1/2+y,1/2-z
1/2-x,1/2-y,-z
1/2+x,1/2+y,-z
1/2-x,1/2+y,1/2+z
1/2+x,1/2-y,1/2+z
loop_
_atom_site_type_symbol
_atom_site_label
_atom_site_fract_x
_atom_site_fract_y
_atom_site_fract_z
Si Si1 0.774101 0.900839 0.115348
Si Si2 0.898138 0.860028 0.156576
Si Si3 0.019369 0.168186 0.060788
Si Si4 0.918237 0.808402 0.364853
Si Si5 0.779404 0.596689 0.297656
Si Si6 0.410114 0.841866 0.758815
Si Si7 0.311543 0.672945 0.939711
O O1 0.750000 0.750000 0.096176
O O2 0.829114 0.863723 0.152512
O O3 0.728775 0.995747 0.150056
O O4 0.798778 0.005272 0.069712
O O5 0.927478 0.806367 0.101100
O O6 0.914333 0.763317 0.207740
O O7 0.918017 0.026206 0.155626
O O8 0.963288 0.231749 0.089013
O O9 0.030840 0.214199 0.000000
O O10 0.000000 0.000000 0.058977
O O11 0.936189 0.724290 0.312178
O O12 0.855802 0.784060 0.392492
O O13 0.751992 0.500000 0.250000
O O14 0.750000 0.750000 0.305813
O O15 0.843145 0.634535 0.276752
O O16 0.433250 0.000000 0.750000
O O17 0.250000 0.750000 0.935981
O O18 0.335263 0.696737 0.000000
#
# Coordination Sequence:
#
# PCOD9497425 Si02
#       7
#    16  16  16  16  16  16  16
#     4  11  21  34  54  81 115 152 190 235 292 354
#     4  10  21  36  58  88 116 147 194 244 289 341
#     4   9  19  38  64  89 111 144 194 249 297 343
#     4  10  20  37  62  85 114 151 192 242 296 353
#     4  11  20  32  52  79 114 154 192 230 282 354
#     4  11  22  35  54  83 119 152 185 230 286 344
#     4  10  21  36  56  84 116 152 195 241 290 352
#
# _framework density 20.820709999999998
#
# number of rings (size 3 to 8) (size 9 to 14) (size 15 to 20)
#    0.000    1.714    0.000    6.857    0.000    4.286 
#    0.000    3.571    0.000    2.571    0.000    0.000 
#    0.000    0.000    0.000    0.000    0.000    0.000 
#
# Total GULP energy -312402.217269 kJ/mol
# GULP energy per Si atom -5578.611023 kJ/mol
# Density = 2.077332 g / cm^3
# Si number density = 20.820710 Si / 1000 Ang^3
#
#
#
# Elastic Constant Matrix: (Units=GPa)
#
#
# Indices 1 2 3 4 5 6 
#
# 1 64.8152 16.1548 30.3318 0.0000 0.0000 0.0000
# 2 16.1548 59.6924 28.5679 0.0000 0.0000 0.0000
# 3 30.3318 28.5679 157.3213 0.0000 0.0000 0.0000
# 4 0.0000 0.0000 0.0000 15.1545 0.0000 0.0000
# 5 0.0000 0.0000 0.0000 0.0000 16.7115 0.0000
# 6 0.0000 0.0000 0.0000 0.0000 0.0000 6.1884
#
#
#
# Elastic Compliance Matrix: (Units=1/GPa)
#
#
# Indices 1 2 3 4 5 6 
#
# 1 0.017579 -0.003434 -0.002766 0.000000 0.000000 0.000000
# 2 -0.003434 0.019018 -0.002791 0.000000 0.000000 0.000000
# 3 -0.002766 -0.002791 0.007397 0.000000 0.000000 0.000000
# 4 0.000000 0.000000 0.000000 0.065987 0.000000 0.000000
# 5 0.000000 0.000000 0.000000 0.000000 0.059839 0.000000
# 6 0.000000 0.000000 0.000000 0.000000 0.000000 0.161593
#
#
# Mechanical properties :
#
#
# Convention : Reuss Voigt Hill
#
# Bulk Modulus (GPa) = 38.44488 47.99310 43.21899
# Shear Modulus (GPa) = 13.96401 21.39586 17.67993
#
# Velocity S-wave (km/s) = 2.59256 3.20913 2.91718
# Velocity P-wave (km/s) = 5.24086 6.06895 5.67004
#
# Compressibility (1/GPa) = 0.02601127
#
# Stress axis : x y z
#
# Youngs Moduli (GPa) = 56.88745 52.58244 135.19864
#
# Poissons Ratio (x) = 0.18056 0.37391
# Poissons Ratio (y) = 0.19534 0.37739
# Poissons Ratio (z) = 0.15733 0.14678
#
# Static dielectric constant tensor:
#      x y z
#    x 1.795840 0.000000 0.000000 
#    y 0.000000 1.737910 0.000000 
#    z 0.000000 0.000000 1.761300 
# 
# From -- ./inp_files/59889.got.cif
#   From: 2010.05.17/outbox.cif.g08.bks.cpg/sg66_30_cif.got.tgz:59889.got - 2010.06.03 17:51:23.
