data_PCOD9497723
_publ_section_title
;
Structure prediction by ZEFSAII (Michael W. Deem and Ramdas Pophale) SiO2 
 PCOD9497723
Probable space group: C C C M
;
_chemical_formula_sum "Si O2"
_cell_formula_units_Z 48
_cell_length_a 13.243745
_cell_length_b 6.309501
_cell_length_c 28.752113
_cell_angle_alpha 90.000000
_cell_angle_beta 90.000000
_cell_angle_gamma 90.000000
_cell_volume 2402.567457
_symmetry_space_group_name_H-M "C C C M"
_symmetry_group_IT_number 66
_symmetry_cell_setting 'orthorhombic'
loop_
_space_group_symop_operation_xyz
x,y,z
-x,-y,z
x,-y,1/2-z
-x,y,1/2-z
-x,-y,-z
x,y,-z
-x,y,1/2+z
x,-y,1/2+z
1/2+x,1/2+y,z
1/2-x,1/2-y,z
1/2+x,1/2-y,1/2-z
1/2-x,1/2+y,1/2-z
1/2-x,1/2-y,-z
1/2+x,1/2+y,-z
1/2-x,1/2+y,1/2+z
1/2+x,1/2-y,1/2+z
loop_
_atom_site_type_symbol
_atom_site_label
_atom_site_fract_x
_atom_site_fract_y
_atom_site_fract_z
Si Si1 0.750000 0.250000 0.500000
Si Si2 0.000000 0.500000 0.250000
Si Si3 0.354819 0.133867 0.826832
Si Si4 0.108428 0.097694 0.917342
Si Si5 0.750000 0.750000 0.629079
O O1 0.836779 0.216179 0.540744
O O2 0.930140 0.636694 0.215948
O O3 0.250000 0.250000 0.815530
O O4 0.399173 0.248249 0.872580
O O5 0.324339 0.894228 0.840204
O O6 0.183584 0.908063 0.901991
O O7 0.000000 0.000000 0.929181
#
# Coordination Sequence:
#
# PCOD9497723 Si02
#       5
#     4   4  16  16   8
#     4  12  22  46  64 106 140 174 228 278 342 404
#     4  12  24  40  74  96 124 178 224 264 362 392
#     4  10  23  44  64  99 132 171 223 282 329 407
#     4  11  23  44  68  95 136 176 224 277 333 404
#     4  10  20  45  69  86 140 173 212 281 330 390
#
# _framework density 19.978628
#
# number of rings (size 3 to 8) (size 9 to 14) (size 15 to 20)
#    0.000    1.333    5.000    2.500    2.333    0.667 
#    0.000    8.333    0.000    0.000    0.000    0.000 
#    0.000    0.000    0.000    0.000    0.000    0.000 
#
# Total GULP energy -133606.008080 kJ/mol
# GULP energy per Si atom -5566.917003 kJ/mol
# Density = 1.993316 g / cm^3
# Si number density = 19.978628 Si / 1000 Ang^3
#
#
#
# Elastic Constant Matrix: (Units=GPa)
#
#
# Indices 1 2 3 4 5 6 
#
# 1 131.6785 7.0053 83.6607 0.0000 0.0000 0.0000
# 2 7.0053 54.5721 33.1265 0.0000 0.0000 0.0000
# 3 83.6607 33.1265 176.8342 0.0000 0.0000 0.0000
# 4 0.0000 0.0000 0.0000 -8.6964 0.0000 0.0000
# 5 0.0000 0.0000 0.0000 0.0000 -58.1924 0.0000
# 6 0.0000 0.0000 0.0000 0.0000 0.0000 24.8982
#
#
#
# Elastic Compliance Matrix: (Units=1/GPa)
#
#
# Indices 1 2 3 4 5 6 
#
# 1 0.011044 0.001979 -0.005596 0.000000 0.000000 0.000000
# 2 0.001979 0.021030 -0.004876 0.000000 0.000000 0.000000
# 3 -0.005596 -0.004876 0.009216 0.000000 0.000000 0.000000
# 4 0.000000 0.000000 0.000000 -0.114990 0.000000 0.000000
# 5 0.000000 0.000000 0.000000 0.000000 -0.017184 0.000000
# 6 0.000000 0.000000 0.000000 0.000000 0.000000 0.040164
#
#
# Mechanical properties :
#
#
# Convention : Reuss Voigt Hill
#
# Bulk Modulus (GPa) = 41.14400 67.85218 54.49809
# Shear Modulus (GPa) = -195.05666 7.55470 -93.75098
#
# Velocity S-wave (km/s) = -9.89164 1.94669 -6.85766
# Velocity P-wave (km/s) = 10.47954 6.25211 5.94693
#
# Compressibility (1/GPa) = 0.02430488
#
# Stress axis : x y z
#
# Youngs Moduli (GPa) = 90.54540 47.55088 108.50953
#
# Poissons Ratio (x) = -0.09410 0.60719
# Poissons Ratio (y) = -0.17919 0.52908
# Poissons Ratio (z) = 0.50667 0.23185
#
# Static dielectric constant tensor:
#      x y z
#    x 1.699950 0.000000 0.000000 
#    y 0.000000 1.730450 0.000000 
#    z 0.000000 0.000000 1.680290 
# 
# From -- ./inp_files/64139.got.cif
#   From: 2010.05.17/outbox.cif.g08.bks.cpg/sg66_33_cif.got.tgz:64139.got - 2010.06.03 17:51:23.
