data_PCOD9497576
_publ_section_title
;
Structure prediction by ZEFSAII (Michael W. Deem and Ramdas Pophale) SiO2 
 PCOD9497576
Probable space group: C C C M
;
_chemical_formula_sum "Si O2"
_cell_formula_units_Z 72
_cell_length_a 7.409507
_cell_length_b 15.822577
_cell_length_c 28.864569
_cell_angle_alpha 90.000000
_cell_angle_beta 90.000000
_cell_angle_gamma 90.000000
_cell_volume 3384.009765
_symmetry_space_group_name_H-M "C C C M"
_symmetry_group_IT_number 66
_symmetry_cell_setting 'orthorhombic'
loop_
_space_group_symop_operation_xyz
x,y,z
-x,-y,z
x,-y,1/2-z
-x,y,1/2-z
-x,-y,-z
x,y,-z
-x,y,1/2+z
x,-y,1/2+z
1/2+x,1/2+y,z
1/2-x,1/2-y,z
1/2+x,1/2-y,1/2-z
1/2-x,1/2+y,1/2-z
1/2-x,1/2-y,-z
1/2+x,1/2+y,-z
1/2-x,1/2+y,1/2+z
1/2+x,1/2-y,1/2+z
loop_
_atom_site_type_symbol
_atom_site_label
_atom_site_fract_x
_atom_site_fract_y
_atom_site_fract_z
Si Si1 0.338089 0.419242 0.639293
Si Si2 0.757140 0.906672 0.825090
Si Si3 0.500000 0.168359 0.250000
Si Si4 0.750000 0.250000 0.180705
Si Si5 0.750000 0.250000 0.607974
Si Si6 0.091967 0.821023 0.053726
O O1 0.222161 0.499460 0.654769
O O2 0.522821 0.411176 0.670054
O O3 0.243645 0.332493 0.650566
O O4 0.378113 0.405815 0.584972
O O5 0.654410 0.886897 0.776632
O O6 0.706315 0.830150 0.859301
O O7 0.583260 0.233271 0.213680
O O8 0.582147 0.277260 0.576733
O O9 0.250000 0.750000 0.055577
O O10 0.064347 0.842156 0.000000
#
# Coordination Sequence:
#
# PCOD9497576 Si02
#       6
#    16  16   8   8   8  16
#     4  10  22  42  62  91 125 175 203 275 324 395
#     4  10  23  41  64  87 128 163 224 256 335 381
#     4  12  24  41  60  95 116 174 214 283 308 403
#     4  12  23  38  61  85 126 157 213 264 333 368
#     4  10  20  42  64  95 130 181 208 274 330 402
#     4  10  20  38  66  99 131 170 218 267 326 398
#
# _framework density 21.276534999999999
#
# number of rings (size 3 to 8) (size 9 to 14) (size 15 to 20)
#    0.000    1.556    1.111    5.000    0.000    2.667 
#    0.000   12.222    0.000    2.667    0.000    0.000 
#    0.000    0.000    0.000    0.000    0.000    0.000 
#
# Total GULP energy -200641.604478 kJ/mol
# GULP energy per Si atom -5573.377902 kJ/mol
# Density = 2.122811 g / cm^3
# Si number density = 21.276535 Si / 1000 Ang^3
#
#
#
# Elastic Constant Matrix: (Units=GPa)
#
#
# Indices 1 2 3 4 5 6 
#
# 1 75.8580 10.1595 39.7078 0.0000 0.0000 0.0000
# 2 10.1595 160.2930 59.2471 0.0000 0.0000 0.0000
# 3 39.7078 59.2471 134.8022 0.0000 0.0000 0.0000
# 4 0.0000 0.0000 0.0000 -19.2985 0.0000 0.0000
# 5 0.0000 0.0000 0.0000 0.0000 56.5720 0.0000
# 6 0.0000 0.0000 0.0000 0.0000 0.0000 28.1735
#
#
#
# Elastic Compliance Matrix: (Units=1/GPa)
#
#
# Indices 1 2 3 4 5 6 
#
# 1 0.015682 0.000852 -0.004994 0.000000 0.000000 0.000000
# 2 0.000852 0.007495 -0.003545 0.000000 0.000000 0.000000
# 3 -0.004994 -0.003545 0.010447 0.000000 0.000000 0.000000
# 4 0.000000 0.000000 0.000000 -0.051818 0.000000 0.000000
# 5 0.000000 0.000000 0.000000 0.000000 0.017677 0.000000
# 6 0.000000 0.000000 0.000000 0.000000 0.000000 0.035494
#
#
# Mechanical properties :
#
#
# Convention : Reuss Voigt Hill
#
# Bulk Modulus (GPa) = 54.79257 65.46468 60.12862
# Shear Modulus (GPa) = 88.59638 30.54532 59.57085
#
# Velocity S-wave (km/s) = 6.45994 3.79309 5.29709
# Velocity P-wave (km/s) = 9.02494 7.07238 8.10766
#
# Compressibility (1/GPa) = 0.01825065
#
# Stress axis : x y z
#
# Youngs Moduli (GPa) = 63.76543 133.42432 95.71793
#
# Poissons Ratio (x) = -0.11366 0.47800
# Poissons Ratio (y) = -0.05432 0.33932
# Poissons Ratio (z) = 0.31844 0.47299
#
# Static dielectric constant tensor:
#      x y z
#    x 1.509800 0.000000 0.000000 
#    y 0.000000 6.064430 0.000000 
#    z 0.000000 0.000000 1.874720 
# 
# From -- ./inp_files/68047.got.cif
#   From: 2010.05.17/outbox.cif.g08.bks.cpg/sg66_35_cif.got.tgz:68047.got - 2010.06.03 17:51:23.
