data_PCOD9497703
_publ_section_title
;
Structure prediction by ZEFSAII (Michael W. Deem and Ramdas Pophale) SiO2 
 PCOD9497703
Probable space group: C C C M
;
_chemical_formula_sum "Si O2"
_cell_formula_units_Z 112
_cell_length_a 11.529025
_cell_length_b 16.238946
_cell_length_c 27.627074
_cell_angle_alpha 90.000000
_cell_angle_beta 90.000000
_cell_angle_gamma 90.000000
_cell_volume 5172.319091
_symmetry_space_group_name_H-M "C C C M"
_symmetry_group_IT_number 66
_symmetry_cell_setting 'orthorhombic'
loop_
_space_group_symop_operation_xyz
x,y,z
-x,-y,z
x,-y,1/2-z
-x,y,1/2-z
-x,-y,-z
x,y,-z
-x,y,1/2+z
x,-y,1/2+z
1/2+x,1/2+y,z
1/2-x,1/2-y,z
1/2+x,1/2-y,1/2-z
1/2-x,1/2+y,1/2-z
1/2-x,1/2-y,-z
1/2+x,1/2+y,-z
1/2-x,1/2+y,1/2+z
1/2+x,1/2-y,1/2+z
loop_
_atom_site_type_symbol
_atom_site_label
_atom_site_fract_x
_atom_site_fract_y
_atom_site_fract_z
Si Si1 0.616975 0.777457 0.444228
Si Si2 0.207381 0.662402 0.685241
Si Si3 0.471580 0.910915 0.192327
Si Si4 0.187719 0.963125 0.384051
Si Si5 0.224053 0.158966 0.297771
Si Si6 0.372649 0.963419 0.945937
Si Si7 0.051520 0.869817 0.875120
O O1 0.569025 0.774790 0.500000
O O2 0.750000 0.750000 0.447537
O O3 0.614922 0.871124 0.424817
O O4 0.563867 0.711716 0.407071
O O5 0.250000 0.750000 0.664137
O O6 0.068046 0.656794 0.678609
O O7 0.253913 0.577439 0.662917
O O8 0.258694 0.660535 0.739924
O O9 0.500000 0.916141 0.250000
O O10 0.335920 0.893445 0.185538
O O11 0.500000 0.000000 0.170321
O O12 0.074185 0.906269 0.386548
O O13 0.290247 0.968479 0.422415
O O14 0.139935 0.056117 0.387929
O O15 0.250000 0.250000 0.316623
O O16 0.096328 0.140837 0.319261
O O17 0.500000 0.000000 0.947897
O O18 0.326378 0.947890 0.000000
#
# Coordination Sequence:
#
# PCOD9497703 Si02
#       7
#    16  16  16  16  16  16  16
#     4  10  20  41  72  99 127 167 218 268 321 402
#     4  10  23  41  58  88 129 171 221 271 339 391
#     4   9  18  36  61  86 111 154 218 272 322 387
#     4  11  25  40  60  96 134 171 216 275 334 402
#     4  10  22  38  64  88 120 173 224 277 322 391
#     4  10  23  45  72 102 135 172 218 276 347 414
#     4  11  24  40  62  96 131 171 225 269 331 401
#
# _framework density 21.653728999999998
#
# number of rings (size 3 to 8) (size 9 to 14) (size 15 to 20)
#    0.000    1.857    1.429    1.286    2.000    5.714 
#    0.000    2.857    0.000    3.000    0.000    0.000 
#    0.000    0.000    0.000    0.000    0.000    0.000 
#
# Total GULP energy -311904.738483 kJ/mol
# GULP energy per Si atom -5569.727473 kJ/mol
# Density = 2.160444 g / cm^3
# Si number density = 21.653729 Si / 1000 Ang^3
#
#
#
# Elastic Constant Matrix: (Units=GPa)
#
#
# Indices 1 2 3 4 5 6 
#
# 1 98.0820 44.0055 25.1698 0.0000 0.0000 0.0000
# 2 44.0055 127.7012 28.3328 0.0000 0.0000 0.0000
# 3 25.1698 28.3328 79.6243 0.0000 0.0000 0.0000
# 4 0.0000 0.0000 0.0000 25.4535 0.0000 0.0000
# 5 0.0000 0.0000 0.0000 0.0000 30.7363 0.0000
# 6 0.0000 0.0000 0.0000 0.0000 0.0000 30.0764
#
#
#
# Elastic Compliance Matrix: (Units=1/GPa)
#
#
# Indices 1 2 3 4 5 6 
#
# 1 0.012550 -0.003740 -0.002636 0.000000 0.000000 0.000000
# 2 -0.003740 0.009616 -0.002240 0.000000 0.000000 0.000000
# 3 -0.002636 -0.002240 0.014189 0.000000 0.000000 0.000000
# 4 0.000000 0.000000 0.000000 0.039287 0.000000 0.000000
# 5 0.000000 0.000000 0.000000 0.000000 0.032535 0.000000
# 6 0.000000 0.000000 0.000000 0.000000 0.000000 0.033249
#
#
# Mechanical properties :
#
#
# Convention : Reuss Voigt Hill
#
# Bulk Modulus (GPa) = 52.29021 55.60265 53.94643
# Shear Modulus (GPa) = 30.29703 31.11323 30.70513
#
# Velocity S-wave (km/s) = 3.74459 3.79470 3.76973
# Velocity P-wave (km/s) = 6.54956 6.70324 6.62685
#
# Compressibility (1/GPa) = 0.01912404
#
# Stress axis : x y z
#
# Youngs Moduli (GPa) = 79.68138 103.98906 70.47562
#
# Poissons Ratio (x) = 0.38889 0.18580
# Poissons Ratio (y) = 0.29799 0.15784
# Poissons Ratio (z) = 0.21007 0.23290
#
# Static dielectric constant tensor:
#      x y z
#    x 1.832590 0.000000 0.000000 
#    y 0.000000 1.814810 0.000000 
#    z 0.000000 0.000000 1.872170 
# 
# From -- ./inp_files/69093.got.cif
#   From: 2010.05.17/outbox.cif.g08.bks.cpg/sg66_35_cif.got.tgz:69093.got - 2010.06.03 17:51:23.
