data_PCOD9497386
_publ_section_title
;
Structure prediction by ZEFSAII (Michael W. Deem and Ramdas Pophale) SiO2 
 PCOD9497386
Probable space group: C C C M
;
_chemical_formula_sum "Si O2"
_cell_formula_units_Z 112
_cell_length_a 14.211443
_cell_length_b 24.246642
_cell_length_c 15.473105
_cell_angle_alpha 90.000000
_cell_angle_beta 90.000000
_cell_angle_gamma 90.000000
_cell_volume 5331.718973
_symmetry_space_group_name_H-M "C C C M"
_symmetry_group_IT_number 66
_symmetry_cell_setting 'orthorhombic'
loop_
_space_group_symop_operation_xyz
x,y,z
-x,-y,z
x,-y,1/2-z
-x,y,1/2-z
-x,-y,-z
x,y,-z
-x,y,1/2+z
x,-y,1/2+z
1/2+x,1/2+y,z
1/2-x,1/2-y,z
1/2+x,1/2-y,1/2-z
1/2-x,1/2+y,1/2-z
1/2-x,1/2-y,-z
1/2+x,1/2+y,-z
1/2-x,1/2+y,1/2+z
1/2+x,1/2-y,1/2+z
loop_
_atom_site_type_symbol
_atom_site_label
_atom_site_fract_x
_atom_site_fract_y
_atom_site_fract_z
Si Si1 0.607197 0.144959 0.344600
Si Si2 0.545962 0.055563 0.896987
Si Si3 0.405019 0.735174 0.722280
Si Si4 0.155350 0.717358 0.908699
Si Si5 0.187992 0.854422 0.401616
Si Si6 0.111321 0.934520 0.262524
Si Si7 0.288710 0.105951 0.670556
O O1 0.517835 0.107561 0.367471
O O2 0.577739 0.208597 0.331711
O O3 0.698632 0.142086 0.405312
O O4 0.654641 0.122927 0.256673
O O5 0.653583 0.055003 0.866280
O O6 0.500000 0.000000 0.863096
O O7 0.543364 0.055927 0.000000
O O8 0.500000 0.703990 0.750000
O O9 0.374936 0.758035 0.816083
O O10 0.339194 0.695752 0.664733
O O11 0.250000 0.750000 0.920673
O O12 0.187215 0.654620 0.895133
O O13 0.099004 0.722376 0.000000
O O14 0.152828 0.846389 0.500000
O O15 0.144739 0.908408 0.354202
O O16 0.180814 0.904210 0.194018
O O17 0.000000 0.925700 0.250000
O O18 0.128540 0.000000 0.250000
#
# Coordination Sequence:
#
# PCOD9497386 Si02
#       7
#    16  16  16  16  16  16  16
#     4  10  21  39  61  88 131 178 222 271 337 406
#     4  11  24  38  57  92 133 172 221 277 335 405
#     4  11  22  38  62  94 132 177 226 283 341 413
#     4  10  20  37  60  88 123 165 212 268 333 396
#     4  11  24  41  66  97 133 176 228 285 346 411
#     4  10  23  45  69  92 124 170 221 280 340 406
#     4  10  21  37  62  91 120 165 216 269 327 403
#
# _framework density 21.006359
#
# number of rings (size 3 to 8) (size 9 to 14) (size 15 to 20)
#    0.000    1.571    0.000    6.429    4.000    2.857 
#    0.000    5.000    0.000    0.857    0.000    0.000 
#    0.000    0.000    0.000    0.000    0.000    0.000 
#
# Total GULP energy -312063.720361 kJ/mol
# GULP energy per Si atom -5572.566435 kJ/mol
# Density = 2.095855 g / cm^3
# Si number density = 21.006359 Si / 1000 Ang^3
#
#
#
# Elastic Constant Matrix: (Units=GPa)
#
#
# Indices 1 2 3 4 5 6 
#
# 1 120.1958 24.1772 35.3468 0.0000 0.0000 0.0000
# 2 24.1772 92.4741 42.1797 0.0000 0.0000 0.0000
# 3 35.3468 42.1797 132.5178 0.0000 0.0000 0.0000
# 4 0.0000 0.0000 0.0000 23.0481 0.0000 0.0000
# 5 0.0000 0.0000 0.0000 0.0000 19.2841 0.0000
# 6 0.0000 0.0000 0.0000 0.0000 0.0000 30.5059
#
#
#
# Elastic Compliance Matrix: (Units=1/GPa)
#
#
# Indices 1 2 3 4 5 6 
#
# 1 0.009204 -0.001505 -0.001976 0.000000 0.000000 0.000000
# 2 -0.001505 0.012897 -0.003703 0.000000 0.000000 0.000000
# 3 -0.001976 -0.003703 0.009252 0.000000 0.000000 0.000000
# 4 0.000000 0.000000 0.000000 0.043388 0.000000 0.000000
# 5 0.000000 0.000000 0.000000 0.000000 0.051856 0.000000
# 6 0.000000 0.000000 0.000000 0.000000 0.000000 0.032781
#
#
# Mechanical properties :
#
#
# Convention : Reuss Voigt Hill
#
# Bulk Modulus (GPa) = 58.88098 60.95502 59.91800
# Shear Modulus (GPa) = 27.86973 30.79989 29.33481
#
# Velocity S-wave (km/s) = 3.64638 3.83328 3.74100
# Velocity P-wave (km/s) = 6.76898 6.97656 6.87355
#
# Compressibility (1/GPa) = 0.01698341
#
# Stress axis : x y z
#
# Youngs Moduli (GPa) = 108.65382 77.54006 108.08510
#
# Poissons Ratio (x) = 0.11670 0.21356
# Poissons Ratio (y) = 0.16353 0.40029
# Poissons Ratio (z) = 0.21468 0.28717
#
# Static dielectric constant tensor:
#      x y z
#    x 1.782150 0.000000 0.000000 
#    y 0.000000 1.657290 0.000000 
#    z 0.000000 0.000000 1.937020 
# 
# From -- ./inp_files/28727.got.cif
#   From: 2010.05.17/outbox.cif.g08.bks.cpg/sg66_15_cif.got.tgz:28727.got - 2010.06.03 17:51:23.
