data_PCOD9497947
_publ_section_title
;
Structure prediction by ZEFSAII (Michael W. Deem and Ramdas Pophale) SiO2 
 PCOD9497947
Probable space group: C C C M
;
_chemical_formula_sum "Si O2"
_cell_formula_units_Z 88
_cell_length_a 24.620438
_cell_length_b 5.544632
_cell_length_c 30.789508
_cell_angle_alpha 90.000000
_cell_angle_beta 90.000000
_cell_angle_gamma 90.000000
_cell_volume 4203.114790
_symmetry_space_group_name_H-M "C C C M"
_symmetry_group_IT_number 66
_symmetry_cell_setting 'orthorhombic'
loop_
_space_group_symop_operation_xyz
x,y,z
-x,-y,z
x,-y,1/2-z
-x,y,1/2-z
-x,-y,-z
x,y,-z
-x,y,1/2+z
x,-y,1/2+z
1/2+x,1/2+y,z
1/2-x,1/2-y,z
1/2+x,1/2-y,1/2-z
1/2-x,1/2+y,1/2-z
1/2-x,1/2-y,-z
1/2+x,1/2+y,-z
1/2-x,1/2+y,1/2+z
1/2+x,1/2-y,1/2+z
loop_
_atom_site_type_symbol
_atom_site_label
_atom_site_fract_x
_atom_site_fract_y
_atom_site_fract_z
Si Si1 0.652767 0.704582 0.163532
Si Si2 0.340380 0.500000 0.250000
Si Si3 0.875262 0.267777 0.951282
Si Si4 0.580210 0.109885 0.792730
Si Si5 0.188221 0.237187 0.068153
Si Si6 0.054530 0.866869 0.127972
O O1 0.685580 0.604136 0.205707
O O2 0.687126 0.750238 0.120713
O O3 0.603939 0.532220 0.146061
O O4 0.620453 0.935075 0.180962
O O5 0.379883 0.697976 0.229581
O O6 0.842405 0.519637 0.947263
O O7 0.919859 0.269386 0.913035
O O8 0.839687 0.019914 0.944694
O O9 0.898150 0.254771 0.000000
O O10 0.540670 0.215262 0.828931
O O11 0.554353 0.000000 0.750000
O O12 0.250000 0.250000 0.052698
O O13 0.000000 0.000000 0.114244
#
# Coordination Sequence:
#
# PCOD9497947 Si02
#       6
#    16   8  16  16  16  16
#     4   9  18  35  57  82 120 161 206 259 312 374
#     4   8  16  30  57  80 116 162 202 256 313 360
#     4  11  24  43  65  94 128 163 212 269 324 391
#     4   9  16  33  55  81 115 161 203 260 313 369
#     4  11  23  41  68  94 125 165 208 266 333 390
#     4  10  21  37  57  86 124 168 213 258 322 379
#
# _framework density 20.936851999999998
#
# number of rings (size 3 to 8) (size 9 to 14) (size 15 to 20)
#    0.000    2.182    1.818    1.091    0.000    3.273 
#    0.000   20.909    6.000    3.273    0.000    0.000 
#    0.000    0.000    0.000    0.000    0.000    0.000 
#
# Total GULP energy -245052.119039 kJ/mol
# GULP energy per Si atom -5569.366342 kJ/mol
# Density = 2.088920 g / cm^3
# Si number density = 20.936852 Si / 1000 Ang^3
#
#
#
# Elastic Constant Matrix: (Units=GPa)
#
#
# Indices 1 2 3 4 5 6 
#
# 1 60.6250 14.5925 27.3600 0.0000 0.0000 0.0000
# 2 14.5925 88.1003 31.6099 0.0000 0.0000 0.0000
# 3 27.3600 31.6099 174.4276 0.0000 0.0000 0.0000
# 4 0.0000 0.0000 0.0000 24.8219 0.0000 0.0000
# 5 0.0000 0.0000 0.0000 0.0000 -12.6848 0.0000
# 6 0.0000 0.0000 0.0000 0.0000 0.0000 19.9573
#
#
#
# Elastic Compliance Matrix: (Units=1/GPa)
#
#
# Indices 1 2 3 4 5 6 
#
# 1 0.018114 -0.002119 -0.002457 0.000000 0.000000 0.000000
# 2 -0.002119 0.012388 -0.001913 0.000000 0.000000 0.000000
# 3 -0.002457 -0.001913 0.006465 0.000000 0.000000 0.000000
# 4 0.000000 0.000000 0.000000 0.040287 0.000000 0.000000
# 5 0.000000 0.000000 0.000000 0.000000 -0.078835 0.000000
# 6 0.000000 0.000000 0.000000 0.000000 0.000000 0.050107
#
#
# Mechanical properties :
#
#
# Convention : Reuss Voigt Hill
#
# Bulk Modulus (GPa) = 41.68466 52.25306 46.96886
# Shear Modulus (GPa) = 71.94286 23.05826 47.50056
#
# Velocity S-wave (km/s) = 5.86826 3.32222 4.76831
# Velocity P-wave (km/s) = 8.11592 6.30300 7.26622
#
# Compressibility (1/GPa) = 0.02398964
#
# Stress axis : x y z
#
# Youngs Moduli (GPa) = 55.20655 80.72428 154.67696
#
# Poissons Ratio (x) = 0.17102 0.38009
# Poissons Ratio (y) = 0.11696 0.29584
# Poissons Ratio (z) = 0.13566 0.15439
#
# Static dielectric constant tensor:
#      x y z
#    x 1.699200 0.000000 0.000000 
#    y 0.000000 1.863960 0.000000 
#    z 0.000000 0.000000 1.720890 
# 
# From -- ./inp_files/70368.got.cif
#   From: 2010.05.17/outbox.cif.g08.bks.cpg/sg66_36_cif.got.tgz:70368.got - 2010.06.03 17:51:23.
