data_PCOD9497372
_publ_section_title
;
Structure prediction by ZEFSAII (Michael W. Deem and Ramdas Pophale) SiO2 
 PCOD9497372
Probable space group: C C C M
;
_chemical_formula_sum "Si O2"
_cell_formula_units_Z 64
_cell_length_a 5.133685
_cell_length_b 23.411915
_cell_length_c 22.326524
_cell_angle_alpha 90.000000
_cell_angle_beta 90.000000
_cell_angle_gamma 90.000000
_cell_volume 2683.411453
_symmetry_space_group_name_H-M "C C C M"
_symmetry_group_IT_number 66
_symmetry_cell_setting 'orthorhombic'
loop_
_space_group_symop_operation_xyz
x,y,z
-x,-y,z
x,-y,1/2-z
-x,y,1/2-z
-x,-y,-z
x,y,-z
-x,y,1/2+z
x,-y,1/2+z
1/2+x,1/2+y,z
1/2-x,1/2-y,z
1/2+x,1/2-y,1/2-z
1/2-x,1/2+y,1/2-z
1/2-x,1/2-y,-z
1/2+x,1/2+y,-z
1/2-x,1/2+y,1/2+z
1/2+x,1/2-y,1/2+z
loop_
_atom_site_type_symbol
_atom_site_label
_atom_site_fract_x
_atom_site_fract_y
_atom_site_fract_z
Si Si1 0.144448 0.055975 0.083637
Si Si2 0.856163 0.365063 0.932953
Si Si3 0.098083 0.306270 0.181197
Si Si4 0.755334 0.070969 0.289434
O O1 0.409597 0.087730 0.063289
O O2 0.232389 0.036798 0.149855
O O3 0.915831 0.102981 0.079121
O O4 0.000000 0.000000 0.058607
O O5 0.912725 0.325277 0.874485
O O6 0.846225 0.338064 0.000000
O O7 0.250000 0.250000 0.162659
O O8 0.269781 0.362845 0.190404
O O9 0.000000 0.295584 0.250000
O O10 0.500000 0.064300 0.250000
O O11 0.000000 0.059030 0.250000
#
# Coordination Sequence:
#
# PCOD9497372 Si02
#       4
#    16  16  16  16
#     4  11  23  41  65  94 131 176 226 276 335 404
#     4  11  25  43  65  97 135 175 225 282 338 404
#     4  10  21  39  67  95 128 170 220 275 339 406
#     4  10  20  37  59  89 127 164 208 265 327 393
#
# _framework density 23.850238999999998
#
# number of rings (size 3 to 8) (size 9 to 14) (size 15 to 20)
#    0.000    1.500    0.000    6.750    0.000    6.000 
#    0.000    5.000    0.000    8.250    0.000    0.000 
#    0.000    0.000    0.000    0.000    0.000    0.000 
#
# Total GULP energy -178570.190308 kJ/mol
# GULP energy per Si atom -5580.318447 kJ/mol
# Density = 2.379596 g / cm^3
# Si number density = 23.850239 Si / 1000 Ang^3
#
#
#
# Elastic Constant Matrix: (Units=GPa)
#
#
# Indices 1 2 3 4 5 6 
#
# 1 155.3079 15.6229 54.9935 0.0000 0.0000 0.0000
# 2 15.6229 87.0562 12.5879 0.0000 0.0000 0.0000
# 3 54.9935 12.5879 225.7416 0.0000 0.0000 0.0000
# 4 0.0000 0.0000 0.0000 -30.4972 0.0000 0.0000
# 5 0.0000 0.0000 0.0000 0.0000 123.3668 0.0000
# 6 0.0000 0.0000 0.0000 0.0000 0.0000 29.8285
#
#
#
# Elastic Compliance Matrix: (Units=1/GPa)
#
#
# Indices 1 2 3 4 5 6 
#
# 1 0.007139 -0.001038 -0.001681 0.000000 0.000000 0.000000
# 2 -0.001038 0.011731 -0.000401 0.000000 0.000000 0.000000
# 3 -0.001681 -0.000401 0.004862 0.000000 0.000000 0.000000
# 4 0.000000 0.000000 0.000000 -0.032790 0.000000 0.000000
# 5 0.000000 0.000000 0.000000 0.000000 0.008106 0.000000
# 6 0.000000 0.000000 0.000000 0.000000 0.000000 0.033525
#
#
# Mechanical properties :
#
#
# Convention : Reuss Voigt Hill
#
# Bulk Modulus (GPa) = 57.17363 70.50157 63.83760
# Shear Modulus (GPa) = 111.99862 50.19972 81.09917
#
# Velocity S-wave (km/s) = 6.86011 4.59278 5.83758
# Velocity P-wave (km/s) = 9.31515 7.59928 8.50062
#
# Compressibility (1/GPa) = 0.01749058
#
# Stress axis : x y z
#
# Youngs Moduli (GPa) = 140.08504 85.24333 205.68633
#
# Poissons Ratio (x) = 0.08848 0.34579
# Poissons Ratio (y) = 0.14540 0.08254
# Poissons Ratio (z) = 0.23550 0.03421
#
# Static dielectric constant tensor:
#      x y z
#    x 1.866820 0.000000 0.000000 
#    y 0.000000 1.899150 0.000000 
#    z 0.000000 0.000000 2.023130 
# 
# From -- ./inp_files/45535.got.cif
#   From: 2010.05.17/outbox.cif.g08.bks.cpg/sg66_23_cif.got.tgz:45535.got - 2010.06.03 17:51:23.
