data_PCOD9497149
_publ_section_title
;
Structure prediction by ZEFSAII (Michael W. Deem and Ramdas Pophale) SiO2 
 PCOD9497149
Probable space group: C C C M
;
_chemical_formula_sum "Si O2"
_cell_formula_units_Z 104
_cell_length_a 31.410303
_cell_length_b 19.869541
_cell_length_c 9.640669
_cell_angle_alpha 90.000000
_cell_angle_beta 90.000000
_cell_angle_gamma 90.000000
_cell_volume 6016.821572
_symmetry_space_group_name_H-M "C C C M"
_symmetry_group_IT_number 66
_symmetry_cell_setting 'orthorhombic'
loop_
_space_group_symop_operation_xyz
x,y,z
-x,-y,z
x,-y,1/2-z
-x,y,1/2-z
-x,-y,-z
x,y,-z
-x,y,1/2+z
x,-y,1/2+z
1/2+x,1/2+y,z
1/2-x,1/2-y,z
1/2+x,1/2-y,1/2-z
1/2-x,1/2+y,1/2-z
1/2-x,1/2-y,-z
1/2+x,1/2+y,-z
1/2-x,1/2+y,1/2+z
1/2+x,1/2-y,1/2+z
loop_
_atom_site_type_symbol
_atom_site_label
_atom_site_fract_x
_atom_site_fract_y
_atom_site_fract_z
Si Si1 0.164583 0.113670 0.349416
Si Si2 0.543033 0.757315 0.165032
Si Si3 0.608816 0.500000 0.750000
Si Si4 0.372985 0.241324 0.336199
Si Si5 0.537321 0.596453 0.848704
Si Si6 0.709466 0.798382 0.162246
Si Si7 0.739116 0.567800 0.838165
O O1 0.186177 0.122076 0.500000
O O2 0.134033 0.177649 0.330965
O O3 0.197972 0.104927 0.226339
O O4 0.138002 0.045221 0.347245
O O5 0.500000 0.776567 0.250000
O O6 0.585357 0.779662 0.248390
O O7 0.545243 0.675805 0.169597
O O8 0.542009 0.775981 0.000000
O O9 0.579085 0.552829 0.828032
O O10 0.376311 0.223421 0.500000
O O11 0.330222 0.214313 0.262654
O O12 0.500000 0.574939 0.750000
O O13 0.519650 0.586488 0.000000
O O14 0.750000 0.750000 0.196088
O O15 0.724346 0.875814 0.172301
O O16 0.698506 0.784099 0.000000
O O17 0.746355 0.500000 0.750000
O O18 0.732623 0.551468 0.000000
#
# Coordination Sequence:
#
# PCOD9497149 Si02
#       7
#    16  16   8  16  16  16  16
#     4  11  23  34  49  73 102 136 178 226 274 322
#     4  10  20  36  54  74 100 135 177 225 279 333
#     4  12  21  34  48  68  94 130 178 222 273 320
#     4  11  22  36  55  80 106 137 180 231 276 324
#     4  10  22  35  48  64  88 127 172 221 273 320
#     4  10  21  38  58  81 109 146 186 226 272 330
#     4  11  23  38  57  79 110 144 180 224 273 325
#
# _framework density 17.284872
#
# number of rings (size 3 to 8) (size 9 to 14) (size 15 to 20)
#    0.000    1.385    3.846    2.077    0.000    5.231 
#    0.000    0.000    0.000    0.000    0.000    0.000 
#    0.000    0.615    0.000    6.462    0.000    3.538 
#
# Total GULP energy -290055.787941 kJ/mol
# GULP energy per Si atom -5577.995922 kJ/mol
# Density = 1.724553 g / cm^3
# Si number density = 17.284872 Si / 1000 Ang^3
#
#
#
# Elastic Constant Matrix: (Units=GPa)
#
#
# Indices 1 2 3 4 5 6 
#
# 1 107.5207 12.1388 80.6856 0.0000 0.0000 0.0000
# 2 12.1388 26.2423 25.4856 0.0000 0.0000 0.0000
# 3 80.6856 25.4856 154.8994 0.0000 0.0000 0.0000
# 4 0.0000 0.0000 0.0000 10.2302 0.0000 0.0000
# 5 0.0000 0.0000 0.0000 0.0000 26.8033 0.0000
# 6 0.0000 0.0000 0.0000 0.0000 0.0000 24.7697
#
#
#
# Elastic Compliance Matrix: (Units=1/GPa)
#
#
# Indices 1 2 3 4 5 6 
#
# 1 0.015283 0.000788 -0.008090 0.000000 0.000000 0.000000
# 2 0.000788 0.045394 -0.007879 0.000000 0.000000 0.000000
# 3 -0.008090 -0.007879 0.011966 0.000000 0.000000 0.000000
# 4 0.000000 0.000000 0.000000 0.097750 0.000000 0.000000
# 5 0.000000 0.000000 0.000000 0.000000 0.037309 0.000000
# 6 0.000000 0.000000 0.000000 0.000000 0.000000 0.040372
#
#
# Mechanical properties :
#
#
# Convention : Reuss Voigt Hill
#
# Bulk Modulus (GPa) = 23.65200 58.36471 41.00835
# Shear Modulus (GPa) = 17.09232 23.71747 20.40489
#
# Velocity S-wave (km/s) = 3.14803 3.70828 3.43958
# Velocity P-wave (km/s) = 5.18910 7.22321 6.28894
#
# Compressibility (1/GPa) = 0.04227973
#
# Stress axis : x y z
#
# Youngs Moduli (GPa) = 65.43373 22.02949 83.56857
#
# Poissons Ratio (x) = -0.01735 0.67608
# Poissons Ratio (y) = -0.05154 0.65843
# Poissons Ratio (z) = 0.52937 0.17357
#
# Static dielectric constant tensor:
#      x y z
#    x 1.592520 0.000000 0.000000 
#    y 0.000000 1.584520 0.000000 
#    z 0.000000 0.000000 1.612830 
# 
# From -- ./inp_files/11561.got.cif
#   From: 2010.05.17/outbox.cif.g08.bks.cpg/sg66_6_cif.got.tgz:11561.got - 2010.06.03 17:51:23.
