data_PCOD9497199
_publ_section_title
;
Structure prediction by ZEFSAII (Michael W. Deem and Ramdas Pophale) SiO2 
 PCOD9497199
Probable space group: C C C M
;
_chemical_formula_sum "Si O2"
_cell_formula_units_Z 96
_cell_length_a 11.106674
_cell_length_b 17.095319
_cell_length_c 25.918350
_cell_angle_alpha 90.000000
_cell_angle_beta 90.000000
_cell_angle_gamma 90.000000
_cell_volume 4921.172452
_symmetry_space_group_name_H-M "C C C M"
_symmetry_group_IT_number 66
_symmetry_cell_setting 'orthorhombic'
loop_
_space_group_symop_operation_xyz
x,y,z
-x,-y,z
x,-y,1/2-z
-x,y,1/2-z
-x,-y,-z
x,y,-z
-x,y,1/2+z
x,-y,1/2+z
1/2+x,1/2+y,z
1/2-x,1/2-y,z
1/2+x,1/2-y,1/2-z
1/2-x,1/2+y,1/2-z
1/2-x,1/2-y,-z
1/2+x,1/2+y,-z
1/2-x,1/2+y,1/2+z
1/2+x,1/2-y,1/2+z
loop_
_atom_site_type_symbol
_atom_site_label
_atom_site_fract_x
_atom_site_fract_y
_atom_site_fract_z
Si Si1 0.839022 0.603147 0.940704
Si Si2 0.406402 0.649095 0.866079
Si Si3 0.145116 0.908402 0.243019
Si Si4 0.738077 0.561450 0.442967
Si Si5 0.080953 0.295331 0.558714
Si Si6 0.190019 0.834512 0.653206
O O1 0.835003 0.508687 0.936951
O O2 0.745881 0.624921 0.896644
O O3 0.959856 0.653523 0.931310
O O4 0.803017 0.621834 0.000000
O O5 0.335342 0.633518 0.812335
O O6 0.365437 0.575149 0.900993
O O7 0.392424 0.728419 0.899667
O O8 0.547341 0.655232 0.853339
O O9 0.214105 0.867930 0.289971
O O10 0.000000 0.903474 0.250000
O O11 0.174656 0.000000 0.250000
O O12 0.684558 0.551312 0.500000
O O13 0.813806 0.641118 0.441205
O O14 0.071684 0.262442 0.500000
O O15 0.250000 0.750000 0.652037
#
# Coordination Sequence:
#
# PCOD9497199 Si02
#       6
#    16  16  16  16  16  16
#     4  10  21  37  58  84 118 162 197 238 302 365
#     4  11  21  36  59  88 114 153 198 246 301 356
#     4   9  20  38  59  80 108 148 194 242 292 355
#     4  10  21  36  57  85 118 156 203 249 293 352
#     4  10  20  36  58  86 121 156 198 247 300 356
#     4  11  22  38  57  84 118 152 191 244 302 365
#
# _framework density 19.507546000000001
#
# number of rings (size 3 to 8) (size 9 to 14) (size 15 to 20)
#    0.000    1.833    1.667    2.500    0.000    8.333 
#    0.000    1.667    0.000    0.000    0.000    3.500 
#    0.000    0.000    0.000    0.000    0.000    0.000 
#
# Total GULP energy -267242.413732 kJ/mol
# GULP energy per Si atom -5567.550286 kJ/mol
# Density = 1.946315 g / cm^3
# Si number density = 19.507546 Si / 1000 Ang^3
#
#
#
# Elastic Constant Matrix: (Units=GPa)
#
#
# Indices 1 2 3 4 5 6 
#
# 1 55.9953 18.9259 38.6387 0.0000 0.0000 0.0000
# 2 18.9259 90.5822 69.6268 0.0000 0.0000 0.0000
# 3 38.6387 69.6268 138.7099 0.0000 0.0000 0.0000
# 4 0.0000 0.0000 0.0000 16.9719 0.0000 0.0000
# 5 0.0000 0.0000 0.0000 0.0000 47.5193 0.0000
# 6 0.0000 0.0000 0.0000 0.0000 0.0000 13.7217
#
#
#
# Elastic Compliance Matrix: (Units=1/GPa)
#
#
# Indices 1 2 3 4 5 6 
#
# 1 0.022110 0.000186 -0.006253 0.000000 0.000000 0.000000
# 2 0.000186 0.017977 -0.009076 0.000000 0.000000 0.000000
# 3 -0.006253 -0.009076 0.013507 0.000000 0.000000 0.000000
# 4 0.000000 0.000000 0.000000 0.058921 0.000000 0.000000
# 5 0.000000 0.000000 0.000000 0.000000 0.021044 0.000000
# 6 0.000000 0.000000 0.000000 0.000000 0.000000 0.072877
#
#
# Mechanical properties :
#
#
# Convention : Reuss Voigt Hill
#
# Bulk Modulus (GPa) = 42.89981 59.96336 51.43159
# Shear Modulus (GPa) = 20.45084 26.18232 23.31658
#
# Velocity S-wave (km/s) = 3.24134 3.66753 3.46100
# Velocity P-wave (km/s) = 6.00396 6.98138 6.51104
#
# Compressibility (1/GPa) = 0.02331013
#
# Stress axis : x y z
#
# Youngs Moduli (GPa) = 45.22829 55.62752 74.03826
#
# Poissons Ratio (x) = -0.01037 0.46293
# Poissons Ratio (y) = -0.00843 0.67194
# Poissons Ratio (z) = 0.28279 0.50485
#
# Static dielectric constant tensor:
#      x y z
#    x 1.695150 0.000000 0.000000 
#    y 0.000000 1.841810 0.000000 
#    z 0.000000 0.000000 1.766120 
# 
# From -- ./inp_files/56919.got.cif
#   From: 2010.05.17/outbox.cif.g08.bks.cpg/sg66_29_cif.got.tgz:56919.got - 2010.06.03 17:51:23.
