data_PCOD9497308
_publ_section_title
;
Structure prediction by ZEFSAII (Michael W. Deem and Ramdas Pophale) SiO2 
 PCOD9497308
Probable space group: C C C M
;
_chemical_formula_sum "Si O2"
_cell_formula_units_Z 80
_cell_length_a 14.948310
_cell_length_b 11.405857
_cell_length_c 26.257600
_cell_angle_alpha 90.000000
_cell_angle_beta 90.000000
_cell_angle_gamma 90.000000
_cell_volume 4476.875801
_symmetry_space_group_name_H-M "C C C M"
_symmetry_group_IT_number 66
_symmetry_cell_setting 'orthorhombic'
loop_
_space_group_symop_operation_xyz
x,y,z
-x,-y,z
x,-y,1/2-z
-x,y,1/2-z
-x,-y,-z
x,y,-z
-x,y,1/2+z
x,-y,1/2+z
1/2+x,1/2+y,z
1/2-x,1/2-y,z
1/2+x,1/2-y,1/2-z
1/2-x,1/2+y,1/2-z
1/2-x,1/2-y,-z
1/2+x,1/2+y,-z
1/2-x,1/2+y,1/2+z
1/2+x,1/2-y,1/2+z
loop_
_atom_site_type_symbol
_atom_site_label
_atom_site_fract_x
_atom_site_fract_y
_atom_site_fract_z
Si Si1 0.227784 0.885455 0.000000
Si Si2 0.017061 0.862654 0.000000
Si Si3 0.096578 0.772347 0.406800
Si Si4 0.767696 0.442062 0.407842
Si Si5 0.496207 0.804188 0.693750
Si Si6 0.850546 0.484469 0.194657
O O1 0.250000 0.750000 0.000000
O O2 0.261331 0.959758 0.951236
O O3 0.122216 0.869351 0.000000
O O4 0.972327 0.801259 0.048619
O O5 0.000000 0.000000 0.000000
O O6 0.149892 0.649632 0.415938
O O7 0.175685 0.868453 0.407410
O O8 0.041933 0.768236 0.353699
O O9 0.785650 0.495606 0.352353
O O10 0.500000 0.747401 0.750000
O O11 0.592749 0.865545 0.686141
O O12 0.425174 0.911969 0.696718
O O13 0.805783 0.500000 0.250000
#
# Coordination Sequence:
#
# PCOD9497308 Si02
#       6
#     8   8  16  16  16  16
#     4  12  27  41  55  81 120 149 185 242 295 332
#     4  12  23  41  57  77 112 152 183 222 292 343
#     4  10  20  36  63  83 107 150 193 229 271 340
#     4  10  20  38  59  84 112 145 195 233 272 335
#     4   8  15  30  54  84 110 141 185 230 275 324
#     4   8  15  30  54  81 113 145 181 232 278 319
#
# _framework density 17.869605
#
# number of rings (size 3 to 8) (size 9 to 14) (size 15 to 20)
#    0.000    2.400    2.000    1.800    2.800    1.600 
#    0.000    3.000    4.400    0.000    0.000    0.000 
#    0.000    0.000    0.000    0.000    0.000    0.000 
#
# Total GULP energy -222717.855294 kJ/mol
# GULP energy per Si atom -5567.946382 kJ/mol
# Density = 1.782893 g / cm^3
# Si number density = 17.869605 Si / 1000 Ang^3
#
#
#
# Elastic Constant Matrix: (Units=GPa)
#
#
# Indices 1 2 3 4 5 6 
#
# 1 60.8908 29.2523 50.3598 0.0000 0.0000 0.0000
# 2 29.2523 84.5825 67.5260 0.0000 0.0000 0.0000
# 3 50.3598 67.5260 187.0687 0.0000 0.0000 0.0000
# 4 0.0000 0.0000 0.0000 -308.8170 0.0000 0.0000
# 5 0.0000 0.0000 0.0000 0.0000 40.8354 0.0000
# 6 0.0000 0.0000 0.0000 0.0000 0.0000 14.3979
#
#
#
# Elastic Compliance Matrix: (Units=1/GPa)
#
#
# Indices 1 2 3 4 5 6 
#
# 1 0.022077 -0.004061 -0.004477 0.000000 0.000000 0.000000
# 2 -0.004061 0.017356 -0.005172 0.000000 0.000000 0.000000
# 3 -0.004477 -0.005172 0.008418 0.000000 0.000000 0.000000
# 4 0.000000 0.000000 0.000000 -0.003238 0.000000 0.000000
# 5 0.000000 0.000000 0.000000 0.000000 0.024489 0.000000
# 6 0.000000 0.000000 0.000000 0.000000 0.000000 0.069455
#
#
# Mechanical properties :
#
#
# Convention : Reuss Voigt Hill
#
# Bulk Modulus (GPa) = 48.94558 69.64646 59.29602
# Shear Modulus (GPa) = 28.93763 -38.35648 -4.70943
#
# Velocity S-wave (km/s) = 4.02851 -4.63802 -1.62516
# Velocity P-wave (km/s) = 7.00631 3.22145 5.45281
#
# Compressibility (1/GPa) = 0.02043085
#
# Stress axis : x y z
#
# Youngs Moduli (GPa) = 45.29681 57.61686 118.79518
#
# Poissons Ratio (x) = 0.23396 0.53189
# Poissons Ratio (y) = 0.18393 0.61439
# Poissons Ratio (z) = 0.20281 0.29799
#
# Static dielectric constant tensor:
#      x y z
#    x 1.573360 0.000000 0.000000 
#    y 0.000000 1.606130 0.000000 
#    z 0.000000 0.000000 1.632060 
# 
# From -- ./inp_files/57948.got.cif
#   From: 2010.05.17/outbox.cif.g08.bks.cpg/sg66_29_cif.got.tgz:57948.got - 2010.06.03 17:51:23.
