data_PCOD9497941
_publ_section_title
;
Structure prediction by ZEFSAII (Michael W. Deem and Ramdas Pophale) SiO2 
 PCOD9497941
Probable space group: C C C M
;
_chemical_formula_sum "Si O2"
_cell_formula_units_Z 56
_cell_length_a 5.191799
_cell_length_b 15.244395
_cell_length_c 32.384381
_cell_angle_alpha 90.000000
_cell_angle_beta 90.000000
_cell_angle_gamma 90.000000
_cell_volume 2563.088866
_symmetry_space_group_name_H-M "C C C M"
_symmetry_group_IT_number 66
_symmetry_cell_setting 'orthorhombic'
loop_
_space_group_symop_operation_xyz
x,y,z
-x,-y,z
x,-y,1/2-z
-x,y,1/2-z
-x,-y,-z
x,y,-z
-x,y,1/2+z
x,-y,1/2+z
1/2+x,1/2+y,z
1/2-x,1/2-y,z
1/2+x,1/2-y,1/2-z
1/2-x,1/2+y,1/2-z
1/2-x,1/2-y,-z
1/2+x,1/2+y,-z
1/2-x,1/2+y,1/2+z
1/2+x,1/2-y,1/2+z
loop_
_atom_site_type_symbol
_atom_site_label
_atom_site_fract_x
_atom_site_fract_y
_atom_site_fract_z
Si Si1 0.256621 0.355671 0.225586
Si Si2 0.010426 0.394303 0.588836
Si Si3 0.505522 0.811077 0.500000
Si Si4 0.477357 0.605295 0.635090
O O1 0.500000 0.391412 0.250000
O O2 0.250000 0.250000 0.228823
O O3 0.336315 0.374456 0.178479
O O4 0.000000 0.386848 0.250000
O O5 0.035902 0.367790 0.541519
O O6 0.239249 0.363288 0.620100
O O7 0.000000 0.500000 0.591912
O O8 0.731096 0.361176 0.602597
O O9 0.750000 0.750000 0.500000
O O10 0.250000 0.750000 0.500000
O O11 0.500000 0.500000 0.633945
#
# Coordination Sequence:
#
# PCOD9497941 Si02
#       4
#    16  16   8  16
#     4  10  21  37  57  84 118 155 193 238 297 356
#     4  10  22  41  62  85 120 160 197 243 302 358
#     4  12  25  40  61  94 124 154 204 252 299 358
#     4  10  21  38  61  88 115 153 203 247 292 351
#
# _framework density 21.848637
#
# number of rings (size 3 to 8) (size 9 to 14) (size 15 to 20)
#    0.000    1.714    0.000    3.857    0.000    4.000 
#    0.000    7.143    0.000    0.000    0.000    0.000 
#    0.000    0.000    0.000    0.000    0.000    0.000 
#
# Total GULP energy -156080.334524 kJ/mol
# GULP energy per Si atom -5574.297662 kJ/mol
# Density = 2.179891 g / cm^3
# Si number density = 21.848637 Si / 1000 Ang^3
#
#
#
# Elastic Constant Matrix: (Units=GPa)
#
#
# Indices 1 2 3 4 5 6 
#
# 1 200.9720 31.3034 60.5775 0.0000 0.0000 0.0000
# 2 31.3034 42.5127 6.6619 0.0000 0.0000 0.0000
# 3 60.5775 6.6619 151.1629 0.0000 0.0000 0.0000
# 4 0.0000 0.0000 0.0000 44.1637 0.0000 0.0000
# 5 0.0000 0.0000 0.0000 0.0000 41.6661 0.0000
# 6 0.0000 0.0000 0.0000 0.0000 0.0000 -3.5124
#
#
#
# Elastic Compliance Matrix: (Units=1/GPa)
#
#
# Indices 1 2 3 4 5 6 
#
# 1 0.006358 -0.004312 -0.002358 0.000000 0.000000 0.000000
# 2 -0.004312 0.026611 0.000555 0.000000 0.000000 0.000000
# 3 -0.002358 0.000555 0.007536 0.000000 0.000000 0.000000
# 4 0.000000 0.000000 0.000000 0.022643 0.000000 0.000000
# 5 0.000000 0.000000 0.000000 0.000000 0.024000 0.000000
# 6 0.000000 0.000000 0.000000 0.000000 0.000000 -0.284705
#
#
# Mechanical properties :
#
#
# Convention : Reuss Voigt Hill
#
# Bulk Modulus (GPa) = 35.36699 65.74813 50.55756
# Shear Modulus (GPa) = -28.42493 36.20379 3.88943
#
# Velocity S-wave (km/s) = -3.61084 4.07508 1.33568
# Velocity P-wave (km/s) = 1.07788 7.23184 5.05657
#
# Compressibility (1/GPa) = 0.02827495
#
# Stress axis : x y z
#
# Youngs Moduli (GPa) = 157.27610 37.57896 132.69902
#
# Poissons Ratio (x) = 0.16205 0.31290
# Poissons Ratio (y) = 0.67822 -0.07370
# Poissons Ratio (z) = 0.37085 -0.02087
#
# Static dielectric constant tensor:
#      x y z
#    x 1.811550 0.000000 0.000000 
#    y 0.000000 1.773370 0.000000 
#    z 0.000000 0.000000 2.375770 
# 
# From -- ./inp_files/64896.got.cif
#   From: 2010.05.17/outbox.cif.g08.bks.cpg/sg66_33_cif.got.tgz:64896.got - 2010.06.03 17:51:23.
