data_PCOD9497606
_publ_section_title
;
Structure prediction by ZEFSAII (Michael W. Deem and Ramdas Pophale) SiO2 
 PCOD9497606
Probable space group: C C C M
;
_chemical_formula_sum "Si O2"
_cell_formula_units_Z 64
_cell_length_a 30.850065
_cell_length_b 5.202577
_cell_length_c 20.017679
_cell_angle_alpha 90.000000
_cell_angle_beta 90.000000
_cell_angle_gamma 90.000000
_cell_volume 3212.834249
_symmetry_space_group_name_H-M "C C C M"
_symmetry_group_IT_number 66
_symmetry_cell_setting 'orthorhombic'
loop_
_space_group_symop_operation_xyz
x,y,z
-x,-y,z
x,-y,1/2-z
-x,y,1/2-z
-x,-y,-z
x,y,-z
-x,y,1/2+z
x,-y,1/2+z
1/2+x,1/2+y,z
1/2-x,1/2-y,z
1/2+x,1/2-y,1/2-z
1/2-x,1/2+y,1/2-z
1/2-x,1/2-y,-z
1/2+x,1/2+y,-z
1/2-x,1/2+y,1/2+z
1/2+x,1/2-y,1/2+z
loop_
_atom_site_type_symbol
_atom_site_label
_atom_site_fract_x
_atom_site_fract_y
_atom_site_fract_z
Si Si1 0.750000 0.250000 0.708423
Si Si2 0.625035 0.596915 0.577717
Si Si3 0.839800 0.616110 0.143601
Si Si4 0.952262 0.895342 0.324493
Si Si5 0.592211 0.000000 0.250000
O O1 0.734388 0.500000 0.750000
O O2 0.790777 0.357834 0.667679
O O3 0.619543 0.654049 0.500000
O O4 0.651690 0.337477 0.589881
O O5 0.579490 0.545303 0.614984
O O6 0.648002 0.836346 0.614911
O O7 0.872551 0.661814 0.206414
O O8 0.940955 0.599911 0.307174
O O9 0.940763 0.000000 0.250000
O O10 0.000000 0.000000 0.337686
#
# Coordination Sequence:
#
# PCOD9497606 Si02
#       5
#     8  16  16  16   8
#     4  12  24  38  67 106 139 162 218 282 336 390
#     4  11  24  44  65  90 131 182 221 262 323 398
#     4  11  23  41  65  96 130 171 215 273 327 391
#     4  10  21  37  61  95 123 163 212 277 329 383
#     4  10  20  39  62  92 134 162 212 270 343 382
#
# _framework density 19.920106000000001
#
# number of rings (size 3 to 8) (size 9 to 14) (size 15 to 20)
#    0.000    1.250    3.750    2.250    3.500    2.500 
#    0.000    3.750    0.000    4.500    0.000    0.000 
#    0.000    0.000    0.000    0.000    0.000    0.000 
#
# Total GULP energy -178224.661972 kJ/mol
# GULP energy per Si atom -5569.520687 kJ/mol
# Density = 1.987477 g / cm^3
# Si number density = 19.920106 Si / 1000 Ang^3
#
#
#
# Elastic Constant Matrix: (Units=GPa)
#
#
# Indices 1 2 3 4 5 6 
#
# 1 165.2028 39.1048 60.6690 0.0000 0.0000 0.0000
# 2 39.1048 69.2106 18.7331 0.0000 0.0000 0.0000
# 3 60.6690 18.7331 95.0685 0.0000 0.0000 0.0000
# 4 0.0000 0.0000 0.0000 24.6111 0.0000 0.0000
# 5 0.0000 0.0000 0.0000 0.0000 11.7827 0.0000
# 6 0.0000 0.0000 0.0000 0.0000 0.0000 25.4030
#
#
#
# Elastic Compliance Matrix: (Units=1/GPa)
#
#
# Indices 1 2 3 4 5 6 
#
# 1 0.008678 -0.003596 -0.004829 0.000000 0.000000 0.000000
# 2 -0.003596 0.016753 -0.001006 0.000000 0.000000 0.000000
# 3 -0.004829 -0.001006 0.013799 0.000000 0.000000 0.000000
# 4 0.000000 0.000000 0.000000 0.040632 0.000000 0.000000
# 5 0.000000 0.000000 0.000000 0.000000 0.084870 0.000000
# 6 0.000000 0.000000 0.000000 0.000000 0.000000 0.039365
#
#
# Mechanical properties :
#
#
# Convention : Reuss Voigt Hill
#
# Bulk Modulus (GPa) = 49.10043 62.94397 56.02220
# Shear Modulus (GPa) = 21.76285 26.42435 24.09360
#
# Velocity S-wave (km/s) = 3.30889 3.64609 3.48158
# Velocity P-wave (km/s) = 6.26902 7.02795 6.65930
#
# Compressibility (1/GPa) = 0.02036642
#
# Stress axis : x y z
#
# Youngs Moduli (GPa) = 115.23558 59.69156 72.46954
#
# Poissons Ratio (x) = 0.21465 0.34998
# Poissons Ratio (y) = 0.41438 0.07293
# Poissons Ratio (z) = 0.55651 0.06007
#
# Static dielectric constant tensor:
#      x y z
#    x 1.688340 0.000000 0.000000 
#    y 0.000000 2.169510 0.000000 
#    z 0.000000 0.000000 1.694830 
# 
# From -- ./inp_files/44512.got.cif
#   From: 2010.05.17/outbox.cif.g08.bks.cpg/sg66_23_cif.got.tgz:44512.got - 2010.06.03 17:51:23.
