data_PCOD9497828
_publ_section_title
;
Structure prediction by ZEFSAII (Michael W. Deem and Ramdas Pophale) SiO2 
 PCOD9497828
Probable space group: C C C M
;
_chemical_formula_sum "Si O2"
_cell_formula_units_Z 80
_cell_length_a 25.009658
_cell_length_b 8.313959
_cell_length_c 15.038002
_cell_angle_alpha 90.000000
_cell_angle_beta 90.000000
_cell_angle_gamma 90.000000
_cell_volume 3126.840796
_symmetry_space_group_name_H-M "C C C M"
_symmetry_group_IT_number 66
_symmetry_cell_setting 'orthorhombic'
loop_
_space_group_symop_operation_xyz
x,y,z
-x,-y,z
x,-y,1/2-z
-x,y,1/2-z
-x,-y,-z
x,y,-z
-x,y,1/2+z
x,-y,1/2+z
1/2+x,1/2+y,z
1/2-x,1/2-y,z
1/2+x,1/2-y,1/2-z
1/2-x,1/2+y,1/2-z
1/2-x,1/2-y,-z
1/2+x,1/2+y,-z
1/2-x,1/2+y,1/2+z
1/2+x,1/2-y,1/2+z
loop_
_atom_site_type_symbol
_atom_site_label
_atom_site_fract_x
_atom_site_fract_y
_atom_site_fract_z
Si Si1 0.420118 0.595256 0.895171
Si Si2 0.128290 0.615158 0.609670
Si Si3 0.784039 0.392426 0.899922
Si Si4 0.978639 0.747518 0.106139
Si Si5 0.312225 0.555501 0.345012
O O1 0.462189 0.723042 0.855309
O O2 0.448695 0.420632 0.885391
O O3 0.360459 0.571181 0.862273
O O4 0.416182 0.626367 0.000000
O O5 0.129609 0.621996 0.500000
O O6 0.161607 0.460372 0.639545
O O7 0.066267 0.623284 0.637303
O O8 0.160259 0.771984 0.643728
O O9 0.750000 0.250000 0.857078
O O10 0.740057 0.534252 0.904530
O O11 0.797595 0.337939 0.000000
O O12 0.985468 0.717994 0.000000
O O13 0.291856 0.500000 0.250000
#
# Coordination Sequence:
#
# PCOD9497828 Si02
#       5
#    16  16  16  16  16
#     4   8  13  25  45  69 101 135 171 217 266 316
#     4   9  17  33  56  77 101 136 179 224 276 337
#     4  10  21  36  54  75 101 137 182 234 288 343
#     4   7  11  22  45  74  98 127 167 216 270 319
#     4  11  21  31  47  76 108 143 183 224 275 335
#
# _framework density 25.584928999999999
#
# number of rings (size 3 to 8) (size 9 to 14) (size 15 to 20)
#    0.000    3.000    0.000    4.800    0.000    3.200 
#    0.000    8.000    0.000    1.200    0.000    7.000 
#    0.000   12.800    0.000    0.800    0.000    0.000 
#
# Total GULP energy -223258.790454 kJ/mol
# GULP energy per Si atom -5581.469761 kJ/mol
# Density = 2.552670 g / cm^3
# Si number density = 25.584929 Si / 1000 Ang^3
#
#
#
# Elastic Constant Matrix: (Units=GPa)
#
#
# Indices 1 2 3 4 5 6 
#
# 1 146.9352 48.6544 1.6864 0.0000 0.0000 0.0000
# 2 48.6544 95.1337 9.1299 0.0000 0.0000 0.0000
# 3 1.6864 9.1299 52.0046 0.0000 0.0000 0.0000
# 4 0.0000 0.0000 0.0000 35.4637 0.0000 0.0000
# 5 0.0000 0.0000 0.0000 0.0000 55.6984 0.0000
# 6 0.0000 0.0000 0.0000 0.0000 0.0000 60.0091
#
#
#
# Elastic Compliance Matrix: (Units=1/GPa)
#
#
# Indices 1 2 3 4 5 6 
#
# 1 0.008205 -0.004242 0.000479 0.000000 0.000000 0.000000
# 2 -0.004242 0.012885 -0.002125 0.000000 0.000000 0.000000
# 3 0.000479 -0.002125 0.019587 0.000000 0.000000 0.000000
# 4 0.000000 0.000000 0.000000 0.028198 0.000000 0.000000
# 5 0.000000 0.000000 0.000000 0.000000 0.017954 0.000000
# 6 0.000000 0.000000 0.000000 0.000000 0.000000 0.016664
#
#
# Mechanical properties :
#
#
# Convention : Reuss Voigt Hill
#
# Bulk Modulus (GPa) = 34.60159 45.89053 40.24606
# Shear Modulus (GPa) = 40.03145 45.87444 42.95295
#
# Velocity S-wave (km/s) = 3.95986 4.23901 4.10181
# Velocity P-wave (km/s) = 5.87034 6.47568 6.18042
#
# Compressibility (1/GPa) = 0.02890041
#
# Stress axis : x y z
#
# Youngs Moduli (GPa) = 121.87784 77.60959 51.05555
#
# Poissons Ratio (x) = 0.32924 -0.02444
# Poissons Ratio (y) = 0.51703 0.10847
# Poissons Ratio (z) = -0.05834 0.16488
#
# Static dielectric constant tensor:
#      x y z
#    x 1.963740 0.000000 0.000000 
#    y 0.000000 2.077740 0.000000 
#    z 0.000000 0.000000 1.978860 
# 
# From -- ./inp_files/44083.got.cif
#   From: 2010.05.17/outbox.cif.g08.bks.cpg/sg66_23_cif.got.tgz:44083.got - 2010.06.03 17:51:23.
