data_PCOD9497421
_publ_section_title
;
Structure prediction by ZEFSAII (Michael W. Deem and Ramdas Pophale) SiO2 
 PCOD9497421
Probable space group: C C C M
;
_chemical_formula_sum "Si O2"
_cell_formula_units_Z 88
_cell_length_a 18.385973
_cell_length_b 15.101390
_cell_length_c 15.939486
_cell_angle_alpha 90.000000
_cell_angle_beta 90.000000
_cell_angle_gamma 90.000000
_cell_volume 4425.658042
_symmetry_space_group_name_H-M "C C C M"
_symmetry_group_IT_number 66
_symmetry_cell_setting 'orthorhombic'
loop_
_space_group_symop_operation_xyz
x,y,z
-x,-y,z
x,-y,1/2-z
-x,y,1/2-z
-x,-y,-z
x,y,-z
-x,y,1/2+z
x,-y,1/2+z
1/2+x,1/2+y,z
1/2-x,1/2-y,z
1/2+x,1/2-y,1/2-z
1/2-x,1/2+y,1/2-z
1/2-x,1/2-y,-z
1/2+x,1/2+y,-z
1/2-x,1/2+y,1/2+z
1/2+x,1/2-y,1/2+z
loop_
_atom_site_type_symbol
_atom_site_label
_atom_site_fract_x
_atom_site_fract_y
_atom_site_fract_z
Si Si1 0.167721 0.785043 0.500000
Si Si2 0.685201 0.508460 0.000000
Si Si3 0.198311 0.507071 0.851107
Si Si4 0.110974 0.667276 0.647735
Si Si5 0.963942 0.094710 0.000000
Si Si6 0.979763 0.215721 0.157136
Si Si7 0.672735 0.795329 0.671337
O O1 0.250000 0.750000 0.500000
O O2 0.158211 0.889846 0.500000
O O3 0.133764 0.737979 0.579464
O O4 0.734846 0.503630 0.915566
O O5 0.622448 0.433057 0.000000
O O6 0.216543 0.500000 0.750000
O O7 0.137448 0.432247 0.870776
O O8 0.170329 0.606300 0.865573
O O9 0.156430 0.692253 0.730203
O O10 0.025966 0.691968 0.656488
O O11 0.991825 0.148267 0.081438
O O12 0.000000 0.000000 0.000000
O O13 0.895314 0.237656 0.144191
O O14 0.000000 0.178609 0.250000
O O15 0.750000 0.750000 0.656092
#
# Coordination Sequence:
#
# PCOD9497421 Si02
#       7
#     8   8  16  16   8  16  16
#     4  12  20  36  63  92 121 161 210 277 323 372
#     4  12  24  40  64  95 132 167 212 270 324 379
#     4  10  22  38  61  97 129 162 214 268 317 380
#     4  10  20  37  61  92 125 162 218 264 322 378
#     4  12  26  46  59  93 127 164 220 258 316 395
#     4  10  23  43  66  89 127 175 209 263 325 383
#     4  10  21  38  61  91 127 171 213 253 324 391
#
# _framework density 19.884048
#
# number of rings (size 3 to 8) (size 9 to 14) (size 15 to 20)
#    0.000    1.455    1.818    3.273    2.545    1.818 
#    3.273    5.455    0.000    3.273    0.000    0.000 
#    0.000    0.000    0.000    0.000    0.000    0.000 
#
# Total GULP energy -245184.843161 kJ/mol
# GULP energy per Si atom -5572.382799 kJ/mol
# Density = 1.983879 g / cm^3
# Si number density = 19.884048 Si / 1000 Ang^3
#
#
#
# Elastic Constant Matrix: (Units=GPa)
#
#
# Indices 1 2 3 4 5 6 
#
# 1 132.2639 50.0972 34.3008 0.0000 0.0000 0.0000
# 2 50.0972 144.5077 67.0045 0.0000 0.0000 0.0000
# 3 34.3008 67.0045 80.5450 0.0000 0.0000 0.0000
# 4 0.0000 0.0000 0.0000 18.4708 0.0000 0.0000
# 5 0.0000 0.0000 0.0000 0.0000 23.5442 0.0000
# 6 0.0000 0.0000 0.0000 0.0000 0.0000 32.8234
#
#
#
# Elastic Compliance Matrix: (Units=1/GPa)
#
#
# Indices 1 2 3 4 5 6 
#
# 1 0.008895 -0.002161 -0.001991 0.000000 0.000000 0.000000
# 2 -0.002161 0.011790 -0.008888 0.000000 0.000000 0.000000
# 3 -0.001991 -0.008888 0.020657 0.000000 0.000000 0.000000
# 4 0.000000 0.000000 0.000000 0.054139 0.000000 0.000000
# 5 0.000000 0.000000 0.000000 0.000000 0.042473 0.000000
# 6 0.000000 0.000000 0.000000 0.000000 0.000000 0.030466
#
#
# Mechanical properties :
#
#
# Convention : Reuss Voigt Hill
#
# Bulk Modulus (GPa) = 65.51471 73.34685 69.43078
# Shear Modulus (GPa) = 25.05157 28.69527 26.87342
#
# Velocity S-wave (km/s) = 3.55333 3.80298 3.68027
# Velocity P-wave (km/s) = 7.06079 7.50006 7.28374
#
# Compressibility (1/GPa) = 0.01526375
#
# Stress axis : x y z
#
# Youngs Moduli (GPa) = 112.41869 84.81556 48.40972
#
# Poissons Ratio (x) = 0.18327 0.09637
# Poissons Ratio (y) = 0.24291 0.43027
# Poissons Ratio (z) = 0.22378 0.75384
#
# Static dielectric constant tensor:
#      x y z
#    x 1.819060 0.000000 0.000000 
#    y 0.000000 1.683990 0.000000 
#    z 0.000000 0.000000 1.719140 
# 
# From -- ./inp_files/41608.got.cif
#   From: 2010.05.17/outbox.cif.g08.bks.cpg/sg66_21_cif.got.tgz:41608.got - 2010.06.03 17:51:23.
