data_PCOD9497950
_publ_section_title
;
Structure prediction by ZEFSAII (Michael W. Deem and Ramdas Pophale) SiO2 
 PCOD9497950
Probable space group: C C C M
;
_chemical_formula_sum "Si O2"
_cell_formula_units_Z 88
_cell_length_a 21.800969
_cell_length_b 8.593962
_cell_length_c 27.067320
_cell_angle_alpha 90.000000
_cell_angle_beta 90.000000
_cell_angle_gamma 90.000000
_cell_volume 5071.243730
_symmetry_space_group_name_H-M "C C C M"
_symmetry_group_IT_number 66
_symmetry_cell_setting 'orthorhombic'
loop_
_space_group_symop_operation_xyz
x,y,z
-x,-y,z
x,-y,1/2-z
-x,y,1/2-z
-x,-y,-z
x,y,-z
-x,y,1/2+z
x,-y,1/2+z
1/2+x,1/2+y,z
1/2-x,1/2-y,z
1/2+x,1/2-y,1/2-z
1/2-x,1/2+y,1/2-z
1/2-x,1/2-y,-z
1/2+x,1/2+y,-z
1/2-x,1/2+y,1/2+z
1/2+x,1/2-y,1/2+z
loop_
_atom_site_type_symbol
_atom_site_label
_atom_site_fract_x
_atom_site_fract_y
_atom_site_fract_z
Si Si1 0.149383 0.175059 0.557171
Si Si2 0.842546 0.891556 0.790789
Si Si3 0.250000 0.250000 0.131475
Si Si4 0.563254 0.597514 0.646988
Si Si5 0.934516 0.679600 0.267383
Si Si6 0.780947 0.506113 0.442874
O O1 0.129636 0.164329 0.500000
O O2 0.097991 0.121230 0.595251
O O3 0.172584 0.351600 0.566481
O O4 0.211678 0.073468 0.562146
O O5 0.796919 0.835650 0.832520
O O6 0.877598 0.756911 0.760997
O O7 0.810201 0.000000 0.750000
O O8 0.894685 0.993281 0.817161
O O9 0.213964 0.368262 0.095903
O O10 0.500000 0.500000 0.641803
O O11 0.563641 0.765537 0.675351
O O12 0.934013 0.500000 0.250000
O O13 0.000000 0.747578 0.250000
O O14 0.788658 0.456169 0.500000
#
# Coordination Sequence:
#
# PCOD9497950 Si02
#       6
#    16  16   8  16  16  16
#     4   9  19  37  57  83 113 147 190 235 286 340
#     4  10  23  38  51  82 115 151 185 229 286 336
#     4  12  21  36  58  86 118 142 189 242 294 326
#     4  11  20  37  61  82 113 153 189 232 280 340
#     4  10  21  37  58  81 106 146 197 233 269 334
#     4   9  19  36  59  82 110 148 192 235 283 344
#
# _framework density 17.352744999999999
#
# number of rings (size 3 to 8) (size 9 to 14) (size 15 to 20)
#    0.000    2.000    3.636    1.364    2.545    1.091 
#    3.273    0.000    0.000    0.000    0.000    5.091 
#    0.000    0.000    0.000    0.000    0.000    0.000 
#
# Total GULP energy -245085.857157 kJ/mol
# GULP energy per Si atom -5570.133117 kJ/mol
# Density = 1.731325 g / cm^3
# Si number density = 17.352745 Si / 1000 Ang^3
#
#
#
# Elastic Constant Matrix: (Units=GPa)
#
#
# Indices 1 2 3 4 5 6 
#
# 1 50.3034 22.1560 42.1673 0.0000 0.0000 0.0000
# 2 22.1560 75.7152 56.7013 0.0000 0.0000 0.0000
# 3 42.1673 56.7013 124.5229 0.0000 0.0000 0.0000
# 4 0.0000 0.0000 0.0000 33.1004 0.0000 0.0000
# 5 0.0000 0.0000 0.0000 0.0000 18.9265 0.0000
# 6 0.0000 0.0000 0.0000 0.0000 0.0000 14.8225
#
#
#
# Elastic Compliance Matrix: (Units=1/GPa)
#
#
# Indices 1 2 3 4 5 6 
#
# 1 0.027895 -0.001652 -0.008694 0.000000 0.000000 0.000000
# 2 -0.001652 0.020139 -0.008611 0.000000 0.000000 0.000000
# 3 -0.008694 -0.008611 0.014896 0.000000 0.000000 0.000000
# 4 0.000000 0.000000 0.000000 0.030211 0.000000 0.000000
# 5 0.000000 0.000000 0.000000 0.000000 0.052836 0.000000
# 6 0.000000 0.000000 0.000000 0.000000 0.000000 0.067465
#
#
# Mechanical properties :
#
#
# Convention : Reuss Voigt Hill
#
# Bulk Modulus (GPa) = 39.97435 54.73229 47.35332
# Shear Modulus (GPa) = 19.25345 22.00434 20.62890
#
# Velocity S-wave (km/s) = 3.33458 3.56485 3.45163
# Velocity P-wave (km/s) = 6.15729 6.96805 6.57518
#
# Compressibility (1/GPa) = 0.02501604
#
# Stress axis : x y z
#
# Youngs Moduli (GPa) = 35.84925 49.65395 67.13390
#
# Poissons Ratio (x) = 0.08203 0.58364
# Poissons Ratio (y) = 0.05923 0.57809
# Poissons Ratio (z) = 0.31166 0.42757
#
# Static dielectric constant tensor:
#      x y z
#    x 1.564590 0.000000 0.000000 
#    y 0.000000 1.629780 0.000000 
#    z 0.000000 0.000000 1.589620 
# 
# From -- ./inp_files/59399.got.cif
#   From: 2010.05.17/outbox.cif.g08.bks.cpg/sg66_30_cif.got.tgz:59399.got - 2010.06.03 17:51:23.
