data_PCOD9497729
_publ_section_title
;
Structure prediction by ZEFSAII (Michael W. Deem and Ramdas Pophale) SiO2 
 PCOD9497729
Probable space group: C C C M
;
_chemical_formula_sum "Si O2"
_cell_formula_units_Z 64
_cell_length_a 28.430171
_cell_length_b 11.062250
_cell_length_c 9.718804
_cell_angle_alpha 90.000000
_cell_angle_beta 90.000000
_cell_angle_gamma 90.000000
_cell_volume 3056.579983
_symmetry_space_group_name_H-M "C C C M"
_symmetry_group_IT_number 66
_symmetry_cell_setting 'orthorhombic'
loop_
_space_group_symop_operation_xyz
x,y,z
-x,-y,z
x,-y,1/2-z
-x,y,1/2-z
-x,-y,-z
x,y,-z
-x,y,1/2+z
x,-y,1/2+z
1/2+x,1/2+y,z
1/2-x,1/2-y,z
1/2+x,1/2-y,1/2-z
1/2-x,1/2+y,1/2-z
1/2-x,1/2-y,-z
1/2+x,1/2+y,-z
1/2-x,1/2+y,1/2+z
1/2+x,1/2-y,1/2+z
loop_
_atom_site_type_symbol
_atom_site_label
_atom_site_fract_x
_atom_site_fract_y
_atom_site_fract_z
Si Si1 0.345819 0.783911 0.000000
Si Si2 0.500000 0.809771 0.250000
Si Si3 0.064555 0.286318 0.000000
Si Si4 0.767610 0.495166 0.000000
Si Si5 0.942893 0.576697 0.500000
Si Si6 0.790074 0.850800 0.285416
Si Si7 0.676503 0.745291 0.000000
O O1 0.395683 0.846052 0.000000
O O2 0.334480 0.697559 0.127483
O O3 0.309450 0.896446 0.000000
O O4 0.536452 0.746587 0.140179
O O5 0.530586 0.885250 0.360014
O O6 0.063714 0.433315 0.000000
O O7 0.120064 0.258201 0.000000
O O8 0.734631 0.460031 0.870348
O O9 0.794103 0.625720 0.000000
O O10 0.750000 0.750000 0.301261
O O11 0.807735 0.830101 0.131593
#
# Coordination Sequence:
#
# PCOD9497729 Si02
#       7
#     8   8   8   8   8  16   8
#     4   9  17  32  49  67  96 138 183 226 272 324
#     4  10  21  30  42  64 112 134 170 253 257 288
#     4  11  20  31  47  73  98 142 197 219 261 325
#     4   9  20  39  50  74 107 139 184 247 294 316
#     4  11  17  30  43  65  96 138 180 224 264 309
#     4   9  20  35  51  74 109 131 184 257 282 311
#     4  12  21  34  59  81  99 155 210 223 269 354
#
# _framework density 20.938435999999999
#
# number of rings (size 3 to 8) (size 9 to 14) (size 15 to 20)
#    0.000    2.000    1.250    6.375    0.000    4.000 
#    0.000    2.500    0.000    0.000    0.000    0.000 
#    0.000    0.000    0.000    0.000    0.000 2555.000 
#
# Total GULP energy -178197.061349 kJ/mol
# GULP energy per Si atom -5568.658167 kJ/mol
# Density = 2.089078 g / cm^3
# Si number density = 20.938436 Si / 1000 Ang^3
#
#
#
# Elastic Constant Matrix: (Units=GPa)
#
#
# Indices 1 2 3 4 5 6 
#
# 1 174.7864 63.9531 74.5582 0.0000 0.0000 0.0000
# 2 63.9531 64.4520 59.3080 0.0000 0.0000 0.0000
# 3 74.5582 59.3080 229.6203 0.0000 0.0000 0.0000
# 4 0.0000 0.0000 0.0000 -23.4813 0.0000 0.0000
# 5 0.0000 0.0000 0.0000 0.0000 79.8501 0.0000
# 6 0.0000 0.0000 0.0000 0.0000 0.0000 -28.8609
#
#
#
# Elastic Compliance Matrix: (Units=1/GPa)
#
#
# Indices 1 2 3 4 5 6 
#
# 1 0.009098 -0.008276 -0.000816 0.000000 0.000000 0.000000
# 2 -0.008276 0.027881 -0.004514 0.000000 0.000000 0.000000
# 3 -0.000816 -0.004514 0.005786 0.000000 0.000000 0.000000
# 4 0.000000 0.000000 0.000000 -0.042587 0.000000 0.000000
# 5 0.000000 0.000000 0.000000 0.000000 0.012523 0.000000
# 6 0.000000 0.000000 0.000000 0.000000 0.000000 -0.034649
#
#
# Mechanical properties :
#
#
# Convention : Reuss Voigt Hill
#
# Bulk Modulus (GPa) = 64.30114 96.05525 80.17820
# Shear Modulus (GPa) = 478.50150 23.57088 251.03619
#
# Velocity S-wave (km/s) = 15.13354 3.35882 10.96142
# Velocity P-wave (km/s) = 18.33416 7.81133 14.09181
#
# Compressibility (1/GPa) = 0.01555182
#
# Stress axis : x y z
#
# Youngs Moduli (GPa) = 109.91854 35.86649 172.82899
#
# Poissons Ratio (x) = 0.29683 0.14111
# Poissons Ratio (y) = 0.90968 0.78018
# Poissons Ratio (z) = 0.08974 0.16191
#
# Static dielectric constant tensor:
#      x y z
#    x 1.772410 0.000000 0.000000 
#    y 0.000000 1.769260 0.000000 
#    z 0.000000 0.000000 1.820210 
# 
# From -- ./inp_files/11234.got.cif
#   From: 2010.05.17/outbox.cif.g08.bks.cpg/sg66_6_cif.got.tgz:11234.got - 2010.06.03 17:51:23.
