data_PCOD9497152
_publ_section_title
;
Structure prediction by ZEFSAII (Michael W. Deem and Ramdas Pophale) SiO2 
 PCOD9497152
Probable space group: C C C M
;
_chemical_formula_sum "Si O2"
_cell_formula_units_Z 72
_cell_length_a 14.102491
_cell_length_b 12.661320
_cell_length_c 22.704537
_cell_angle_alpha 90.000000
_cell_angle_beta 90.000000
_cell_angle_gamma 90.000000
_cell_volume 4054.034745
_symmetry_space_group_name_H-M "C C C M"
_symmetry_group_IT_number 66
_symmetry_cell_setting 'orthorhombic'
loop_
_space_group_symop_operation_xyz
x,y,z
-x,-y,z
x,-y,1/2-z
-x,y,1/2-z
-x,-y,-z
x,y,-z
-x,y,1/2+z
x,-y,1/2+z
1/2+x,1/2+y,z
1/2-x,1/2-y,z
1/2+x,1/2-y,1/2-z
1/2-x,1/2+y,1/2-z
1/2-x,1/2-y,-z
1/2+x,1/2+y,-z
1/2-x,1/2+y,1/2+z
1/2+x,1/2-y,1/2+z
loop_
_atom_site_type_symbol
_atom_site_label
_atom_site_fract_x
_atom_site_fract_y
_atom_site_fract_z
Si Si1 0.500000 0.805499 0.250000
Si Si2 0.796430 0.946962 0.658962
Si Si3 0.639452 0.287190 0.932893
Si Si4 0.328128 0.333938 0.783971
Si Si5 0.078392 0.413955 0.364269
O O1 0.574878 0.729454 0.218924
O O2 0.551512 0.876281 0.298568
O O3 0.858468 0.887885 0.609872
O O4 0.801336 0.874759 0.718018
O O5 0.686583 0.955393 0.638871
O O6 0.832071 0.062272 0.676439
O O7 0.750000 0.250000 0.932743
O O8 0.581409 0.189946 0.905195
O O9 0.611917 0.309382 0.000000
O O10 0.250000 0.250000 0.803798
O O11 0.000000 0.500000 0.382568
#
# Coordination Sequence:
#
# PCOD9497152 Si02
#       5
#     8  16  16  16  16
#     4  12  21  33  54  78 116 150 180 226 286 344
#     4  10  20  36  54  79 114 147 186 233 281 337
#     4   9  18  37  59  78 108 150 192 234 279 334
#     4  11  20  34  53  81 116 146 182 232 283 345
#     4  11  21  33  54  85 113 145 186 233 289 339
#
# _framework density 17.760086000000001
#
# number of rings (size 3 to 8) (size 9 to 14) (size 15 to 20)
#    0.000    1.556    4.444    2.333    3.111    2.222 
#    0.000    0.000    0.000    3.333    0.000    0.000 
#    0.000    0.000    0.000    0.000    0.000    0.000 
#
# Total GULP energy -200968.751759 kJ/mol
# GULP energy per Si atom -5582.465327 kJ/mol
# Density = 1.771966 g / cm^3
# Si number density = 17.760086 Si / 1000 Ang^3
#
#
#
# Elastic Constant Matrix: (Units=GPa)
#
#
# Indices 1 2 3 4 5 6 
#
# 1 63.0161 32.7935 8.1483 0.0000 0.0000 0.0000
# 2 32.7935 118.4739 53.9649 0.0000 0.0000 0.0000
# 3 8.1483 53.9649 104.7047 0.0000 0.0000 0.0000
# 4 0.0000 0.0000 0.0000 17.0701 0.0000 0.0000
# 5 0.0000 0.0000 0.0000 0.0000 12.4973 0.0000
# 6 0.0000 0.0000 0.0000 0.0000 0.0000 10.7811
#
#
#
# Elastic Compliance Matrix: (Units=1/GPa)
#
#
# Indices 1 2 3 4 5 6 
#
# 1 0.018739 -0.005910 0.001588 0.000000 0.000000 0.000000
# 2 -0.005910 0.012894 -0.006186 0.000000 0.000000 0.000000
# 3 0.001588 -0.006186 0.012615 0.000000 0.000000 0.000000
# 4 0.000000 0.000000 0.000000 0.058582 0.000000 0.000000
# 5 0.000000 0.000000 0.000000 0.000000 0.080017 0.000000
# 6 0.000000 0.000000 0.000000 0.000000 0.000000 0.092755
#
#
# Mechanical properties :
#
#
# Convention : Reuss Voigt Hill
#
# Bulk Modulus (GPa) = 43.04330 52.88979 47.96655
# Shear Modulus (GPa) = 16.42772 20.82223 18.62498
#
# Velocity S-wave (km/s) = 3.04465 3.42777 3.24187
# Velocity P-wave (km/s) = 6.05379 6.74618 6.40934
#
# Compressibility (1/GPa) = 0.02323242
#
# Stress axis : x y z
#
# Youngs Moduli (GPa) = 53.36359 77.55381 79.26914
#
# Poissons Ratio (x) = 0.45837 -0.12587
# Poissons Ratio (y) = 0.31540 0.49034
# Poissons Ratio (z) = -0.08473 0.47973
#
# Static dielectric constant tensor:
#      x y z
#    x 1.597460 0.000000 0.000000 
#    y 0.000000 1.595900 0.000000 
#    z 0.000000 0.000000 1.604290 
# 
# From -- ./inp_files/57810.got.cif
#   From: 2010.05.17/outbox.cif.g08.bks.cpg/sg66_29_cif.got.tgz:57810.got - 2010.06.03 17:51:23.
