data_PCOD9497896
_publ_section_title
;
Structure prediction by ZEFSAII (Michael W. Deem and Ramdas Pophale) SiO2 
 PCOD9497896
Probable space group: C C C M
;
_chemical_formula_sum "Si O2"
_cell_formula_units_Z 52
_cell_length_a 5.214011
_cell_length_b 14.157190
_cell_length_c 32.339632
_cell_angle_alpha 90.000000
_cell_angle_beta 90.000000
_cell_angle_gamma 90.000000
_cell_volume 2387.174009
_symmetry_space_group_name_H-M "C C C M"
_symmetry_group_IT_number 66
_symmetry_cell_setting 'orthorhombic'
loop_
_space_group_symop_operation_xyz
x,y,z
-x,-y,z
x,-y,1/2-z
-x,y,1/2-z
-x,-y,-z
x,y,-z
-x,y,1/2+z
x,-y,1/2+z
1/2+x,1/2+y,z
1/2-x,1/2-y,z
1/2+x,1/2-y,1/2-z
1/2-x,1/2+y,1/2-z
1/2-x,1/2-y,-z
1/2+x,1/2+y,-z
1/2-x,1/2+y,1/2+z
1/2+x,1/2-y,1/2+z
loop_
_atom_site_type_symbol
_atom_site_label
_atom_site_fract_x
_atom_site_fract_y
_atom_site_fract_z
Si Si1 0.500000 0.000000 0.250000
Si Si2 0.251053 0.565286 0.544490
Si Si3 0.266597 0.634838 0.814683
Si Si4 0.731756 0.861050 0.135810
O O1 0.320858 0.928872 0.223627
O O2 0.500000 0.500000 0.543207
O O3 0.240563 0.618186 0.500000
O O4 0.268664 0.618521 0.587689
O O5 0.000000 0.500000 0.546258
O O6 0.250000 0.750000 0.806322
O O7 0.540946 0.606495 0.833713
O O8 0.050608 0.611634 0.849153
O O9 0.750000 0.750000 0.140649
#
# Coordination Sequence:
#
# PCOD9497896 Si02
#       4
#     4  16  16  16
#     4  12  28  46  76  96 126 190 212 278 364 396
#     4  10  21  36  60  94 129 165 212 261 304 376
#     4  10  25  44  66  99 131 164 222 275 322 401
#     4  10  22  42  64  91 130 168 207 267 322 378
#
# _framework density 21.783080000000002
#
# number of rings (size 3 to 8) (size 9 to 14) (size 15 to 20)
#    0.000    1.846    0.000    1.846    6.462    6.769 
#    0.000    0.000    0.000   11.077    0.000    0.000 
#    0.000    0.000    0.000    0.000    0.000    0.000 
#
# Total GULP energy -145192.627069 kJ/mol
# GULP energy per Si atom -5584.331810 kJ/mol
# Density = 2.173350 g / cm^3
# Si number density = 21.783080 Si / 1000 Ang^3
#
#
#
# Elastic Constant Matrix: (Units=GPa)
#
#
# Indices 1 2 3 4 5 6 
#
# 1 124.4679 14.1939 30.0252 0.0000 0.0000 0.0000
# 2 14.1939 89.9391 42.1550 0.0000 0.0000 0.0000
# 3 30.0252 42.1550 153.1370 0.0000 0.0000 0.0000
# 4 0.0000 0.0000 0.0000 -707.8940 0.0000 0.0000
# 5 0.0000 0.0000 0.0000 0.0000 84.3612 0.0000
# 6 0.0000 0.0000 0.0000 0.0000 0.0000 10.5141
#
#
#
# Elastic Compliance Matrix: (Units=1/GPa)
#
#
# Indices 1 2 3 4 5 6 
#
# 1 0.008465 -0.000641 -0.001483 0.000000 0.000000 0.000000
# 2 -0.000641 0.012814 -0.003402 0.000000 0.000000 0.000000
# 3 -0.001483 -0.003402 0.007757 0.000000 0.000000 0.000000
# 4 0.000000 0.000000 0.000000 -0.001413 0.000000 0.000000
# 5 0.000000 0.000000 0.000000 0.000000 0.011854 0.000000
# 6 0.000000 0.000000 0.000000 0.000000 0.000000 0.095110
#
#
# Mechanical properties :
#
#
# Convention : Reuss Voigt Hill
#
# Bulk Modulus (GPa) = 55.60209 60.03247 57.81728
# Shear Modulus (GPa) = 32.97399 -103.85905 -35.44253
#
# Velocity S-wave (km/s) = 3.89491 -6.91247 -4.03807
# Velocity P-wave (km/s) = 6.76815 6.00755 2.20422
#
# Compressibility (1/GPa) = 0.01798493
#
# Stress axis : x y z
#
# Youngs Moduli (GPa) = 118.13228 78.03848 128.90949
#
# Poissons Ratio (x) = 0.05000 0.19122
# Poissons Ratio (y) = 0.07568 0.43853
# Poissons Ratio (z) = 0.17523 0.26547
#
# Static dielectric constant tensor:
#      x y z
#    x 1.858150 0.000000 0.000000 
#    y 0.000000 1.807550 0.000000 
#    z 0.000000 0.000000 1.837020 
# 
# From -- ./inp_files/64831.got.cif
#   From: 2010.05.17/outbox.cif.g08.bks.cpg/sg66_33_cif.got.tgz:64831.got - 2010.06.03 17:51:23.
