data_PCOD9497624
_publ_section_title
;
Structure prediction by ZEFSAII (Michael W. Deem and Ramdas Pophale) SiO2 
 PCOD9497624
Probable space group: C C C M
;
_chemical_formula_sum "Si O2"
_cell_formula_units_Z 112
_cell_length_a 14.314780
_cell_length_b 23.613206
_cell_length_c 15.756457
_cell_angle_alpha 90.000000
_cell_angle_beta 90.000000
_cell_angle_gamma 90.000000
_cell_volume 5325.963703
_symmetry_space_group_name_H-M "C C C M"
_symmetry_group_IT_number 66
_symmetry_cell_setting 'orthorhombic'
loop_
_space_group_symop_operation_xyz
x,y,z
-x,-y,z
x,-y,1/2-z
-x,y,1/2-z
-x,-y,-z
x,y,-z
-x,y,1/2+z
x,-y,1/2+z
1/2+x,1/2+y,z
1/2-x,1/2-y,z
1/2+x,1/2-y,1/2-z
1/2-x,1/2+y,1/2-z
1/2-x,1/2-y,-z
1/2+x,1/2+y,-z
1/2-x,1/2+y,1/2+z
1/2+x,1/2-y,1/2+z
loop_
_atom_site_type_symbol
_atom_site_label
_atom_site_fract_x
_atom_site_fract_y
_atom_site_fract_z
Si Si1 0.029611 0.091300 0.149308
Si Si2 0.579221 0.954949 0.099621
Si Si3 0.570647 0.163416 0.672322
Si Si4 0.738477 0.312841 0.229051
Si Si5 0.717016 0.519672 0.845587
Si Si6 0.438519 0.713912 0.664157
Si Si7 0.832124 0.904807 0.592573
O O1 0.128606 0.060580 0.133410
O O2 0.031120 0.156784 0.118763
O O3 0.000000 0.089540 0.250000
O O4 0.936535 0.069731 0.104764
O O5 0.550000 0.890056 0.114015
O O6 0.679106 0.955850 0.147098
O O7 0.500000 0.000000 0.129532
O O8 0.594436 0.965918 0.000000
O O9 0.500000 0.159887 0.750000
O O10 0.669652 0.166615 0.721946
O O11 0.559046 0.223945 0.625165
O O12 0.750000 0.250000 0.187725
O O13 0.663782 0.300970 0.302408
O O14 0.697801 0.359888 0.164798
O O15 0.697610 0.500000 0.750000
O O16 0.725967 0.462167 0.899225
O O17 0.500000 0.717920 0.750000
O O18 0.822048 0.878733 0.500000
#
# Coordination Sequence:
#
# PCOD9497624 Si02
#       7
#    16  16  16  16  16  16  16
#     4  11  20  39  66  94 127 164 200 251 310 381
#     4  11  27  46  61  87 130 168 207 270 326 362
#     4  10  22  38  66  94 114 159 218 260 300 371
#     4  10  20  39  65  93 122 164 210 261 311 375
#     4  12  24  40  68  92 118 169 216 255 306 379
#     4   9  16  35  65  92 119 153 207 251 300 360
#     4  12  25  38  59  97 132 162 199 253 321 386
#
# _framework density 21.029059
#
# number of rings (size 3 to 8) (size 9 to 14) (size 15 to 20)
#    0.000    1.286    4.286    2.571    4.000    2.000 
#    0.000    0.714    0.000    8.143    0.000    0.000 
#    0.000    0.000    0.000    0.000    0.000    0.000 
#
# Total GULP energy -312105.657829 kJ/mol
# GULP energy per Si atom -5573.315318 kJ/mol
# Density = 2.098120 g / cm^3
# Si number density = 21.029059 Si / 1000 Ang^3
#
#
#
# Elastic Constant Matrix: (Units=GPa)
#
#
# Indices 1 2 3 4 5 6 
#
# 1 88.7232 18.5628 -13.0513 0.0000 0.0000 0.0000
# 2 18.5628 140.4480 6.9519 0.0000 0.0000 0.0000
# 3 -13.0513 6.9519 25.5332 0.0000 0.0000 0.0000
# 4 0.0000 0.0000 0.0000 6.0641 0.0000 0.0000
# 5 0.0000 0.0000 0.0000 0.0000 3.2571 0.0000
# 6 0.0000 0.0000 0.0000 0.0000 0.0000 31.4734
#
#
#
# Elastic Compliance Matrix: (Units=1/GPa)
#
#
# Indices 1 2 3 4 5 6 
#
# 1 0.012735 -0.002033 0.007063 0.000000 0.000000 0.000000
# 2 -0.002033 0.007542 -0.003092 0.000000 0.000000 0.000000
# 3 0.007063 -0.003092 0.043617 0.000000 0.000000 0.000000
# 4 0.000000 0.000000 0.000000 0.164904 0.000000 0.000000
# 5 0.000000 0.000000 0.000000 0.000000 0.307026 0.000000
# 6 0.000000 0.000000 0.000000 0.000000 0.000000 0.031773
#
#
# Mechanical properties :
#
#
# Convention : Reuss Voigt Hill
#
# Bulk Modulus (GPa) = 14.75583 31.07014 22.91298
# Shear Modulus (GPa) = 8.52790 24.30832 16.41811
#
# Velocity S-wave (km/s) = 2.01596 3.40360 2.79719
# Velocity P-wave (km/s) = 3.52858 5.50027 4.62081
#
# Compressibility (1/GPa) = 0.06776984
#
# Stress axis : x y z
#
# Youngs Moduli (GPa) = 78.52178 132.59395 22.92682
#
# Poissons Ratio (x) = 0.26954 -0.16194
# Poissons Ratio (y) = 0.15962 0.07090
# Poissons Ratio (z) = -0.55461 0.41005
#
# Static dielectric constant tensor:
#      x y z
#    x 1.754330 0.000000 0.000000 
#    y 0.000000 1.851220 0.000000 
#    z 0.000000 0.000000 1.740160 
# 
# From -- ./inp_files/28693.got.cif
#   From: 2010.05.17/outbox.cif.g08.bks.cpg/sg66_15_cif.got.tgz:28693.got - 2010.06.03 17:51:23.
