data_PCOD9497532
_publ_section_title
;
Structure prediction by ZEFSAII (Michael W. Deem and Ramdas Pophale) SiO2 
 PCOD9497532
Probable space group: C C C M
;
_chemical_formula_sum "Si O2"
_cell_formula_units_Z 116
_cell_length_a 12.700919
_cell_length_b 25.761346
_cell_length_c 18.474198
_cell_angle_alpha 90.000000
_cell_angle_beta 90.000000
_cell_angle_gamma 90.000000
_cell_volume 6044.623996
_symmetry_space_group_name_H-M "C C C M"
_symmetry_group_IT_number 66
_symmetry_cell_setting 'orthorhombic'
loop_
_space_group_symop_operation_xyz
x,y,z
-x,-y,z
x,-y,1/2-z
-x,y,1/2-z
-x,-y,-z
x,y,-z
-x,y,1/2+z
x,-y,1/2+z
1/2+x,1/2+y,z
1/2-x,1/2-y,z
1/2+x,1/2-y,1/2-z
1/2-x,1/2+y,1/2-z
1/2-x,1/2-y,-z
1/2+x,1/2+y,-z
1/2-x,1/2+y,1/2+z
1/2+x,1/2-y,1/2+z
loop_
_atom_site_type_symbol
_atom_site_label
_atom_site_fract_x
_atom_site_fract_y
_atom_site_fract_z
Si Si1 0.691056 0.039138 0.087113
Si Si2 0.601578 0.794054 0.705594
Si Si3 0.886278 0.105340 0.914764
Si Si4 0.165620 0.175353 0.283338
Si Si5 0.039907 0.367460 0.413177
Si Si6 0.500000 0.500000 0.250000
Si Si7 0.823348 0.422405 0.587488
Si Si8 0.396884 0.592330 0.664366
O O1 0.811945 0.055444 0.102081
O O2 0.615878 0.085544 0.112286
O O3 0.657920 0.982120 0.111853
O O4 0.680491 0.038287 0.000000
O O5 0.500000 0.811050 0.750000
O O6 0.710772 0.818162 0.733399
O O7 0.615594 0.732333 0.712515
O O8 0.578448 0.815405 0.625449
O O9 0.843435 0.149949 0.862457
O O10 0.006771 0.098993 0.891287
O O11 0.875950 0.115987 0.000000
O O12 0.112043 0.137588 0.224734
O O13 0.047597 0.363113 0.500000
O O14 0.921162 0.385229 0.394833
O O15 0.574438 0.461309 0.295444
O O16 0.813716 0.422400 0.500000
O O17 0.713223 0.407440 0.622907
#
# Coordination Sequence:
#
# PCOD9497532 Si02
#       8
#    16  16  16  16  16   4  16  16
#     4   9  18  34  57  88 123 157 195 243 305 363
#     4  11  23  40  64  89 114 166 206 254 306 367
#     4  11  21  38  62  86 118 157 199 251 302 362
#     4  11  24  42  62  85 126 155 206 257 310 358
#     4  10  20  38  62  89 123 156 202 257 303 363
#     4  12  24  36  66  84 126 164 210 248 298 358
#     4  10  21  36  60  91 124 165 201 245 307 369
#     4  12  23  40  57  88 124 162 199 255 299 367
#
# _framework density 19.190607
#
# number of rings (size 3 to 8) (size 9 to 14) (size 15 to 20)
#    0.000    1.379    2.759    3.310    0.000    2.207 
#    0.000    4.138    0.000    0.828    0.000    8.690 
#    0.000    0.000    0.000    0.000    0.000    0.000 
#
# Total GULP energy -323742.874150 kJ/mol
# GULP energy per Si atom -5581.773692 kJ/mol
# Density = 1.914693 g / cm^3
# Si number density = 19.190607 Si / 1000 Ang^3
#
#
#
# Elastic Constant Matrix: (Units=GPa)
#
#
# Indices 1 2 3 4 5 6 
#
# 1 120.2562 23.8513 20.2444 0.0000 0.0000 0.0000
# 2 23.8513 57.4006 12.1112 0.0000 0.0000 0.0000
# 3 20.2444 12.1112 43.4385 0.0000 0.0000 0.0000
# 4 0.0000 0.0000 0.0000 21.3291 0.0000 0.0000
# 5 0.0000 0.0000 0.0000 0.0000 34.5818 0.0000
# 6 0.0000 0.0000 0.0000 0.0000 0.0000 21.2779
#
#
#
# Elastic Compliance Matrix: (Units=1/GPa)
#
#
# Indices 1 2 3 4 5 6 
#
# 1 0.009552 -0.003219 -0.003554 0.000000 0.000000 0.000000
# 2 -0.003219 0.019595 -0.003963 0.000000 0.000000 0.000000
# 3 -0.003554 -0.003963 0.025783 0.000000 0.000000 0.000000
# 4 0.000000 0.000000 0.000000 0.046884 0.000000 0.000000
# 5 0.000000 0.000000 0.000000 0.000000 0.028917 0.000000
# 6 0.000000 0.000000 0.000000 0.000000 0.000000 0.046997
#
#
# Mechanical properties :
#
#
# Convention : Reuss Voigt Hill
#
# Bulk Modulus (GPa) = 29.88922 37.05654 33.47288
# Shear Modulus (GPa) = 23.76942 26.43032 25.09987
#
# Velocity S-wave (km/s) = 3.52319 3.71516 3.62045
# Velocity P-wave (km/s) = 5.67091 6.14450 5.91245
#
# Compressibility (1/GPa) = 0.03345687
#
# Stress axis : x y z
#
# Youngs Moduli (GPa) = 104.68531 51.03259 38.78598
#
# Poissons Ratio (x) = 0.16429 0.13786
# Poissons Ratio (y) = 0.33702 0.15371
# Poissons Ratio (z) = 0.37208 0.20225
#
# Static dielectric constant tensor:
#      x y z
#    x 1.689340 0.000000 0.000000 
#    y 0.000000 1.663460 0.000000 
#    z 0.000000 0.000000 1.660380 
# 
# From -- ./inp_files/39129.got.cif
#   From: 2010.05.17/outbox.cif.g08.bks.cpg/sg66_20_cif.got.tgz:39129.got - 2010.06.03 17:51:23.
