data_PCOD9497314
_publ_section_title
;
Structure prediction by ZEFSAII (Michael W. Deem and Ramdas Pophale) SiO2 
 PCOD9497314
Probable space group: C C C M
;
_chemical_formula_sum "Si O2"
_cell_formula_units_Z 116
_cell_length_a 25.254702
_cell_length_b 7.995513
_cell_length_c 27.626038
_cell_angle_alpha 90.000000
_cell_angle_beta 90.000000
_cell_angle_gamma 90.000000
_cell_volume 5578.368334
_symmetry_space_group_name_H-M "C C C M"
_symmetry_group_IT_number 66
_symmetry_cell_setting 'orthorhombic'
loop_
_space_group_symop_operation_xyz
x,y,z
-x,-y,z
x,-y,1/2-z
-x,y,1/2-z
-x,-y,-z
x,y,-z
-x,y,1/2+z
x,-y,1/2+z
1/2+x,1/2+y,z
1/2-x,1/2-y,z
1/2+x,1/2-y,1/2-z
1/2-x,1/2+y,1/2-z
1/2-x,1/2-y,-z
1/2+x,1/2+y,-z
1/2-x,1/2+y,1/2+z
1/2+x,1/2-y,1/2+z
loop_
_atom_site_type_symbol
_atom_site_label
_atom_site_fract_x
_atom_site_fract_y
_atom_site_fract_z
Si Si1 0.881448 0.299189 0.947693
Si Si2 0.526625 0.323715 0.684981
Si Si3 0.003231 0.297517 0.417618
Si Si4 0.689181 0.692536 0.357036
Si Si5 0.386328 0.201205 0.052704
Si Si6 0.000000 0.500000 0.750000
Si Si7 0.145872 0.159113 0.846157
Si Si8 0.189222 0.695086 0.246983
O O1 0.942287 0.241624 0.941881
O O2 0.846053 0.248975 0.902226
O O3 0.884532 0.500292 0.948347
O O4 0.860552 0.241586 0.000000
O O5 0.500000 0.500000 0.701964
O O6 0.495470 0.265685 0.637268
O O7 0.584945 0.377251 0.667570
O O8 0.529279 0.146660 0.716703
O O9 0.000000 0.500000 0.417870
O O10 0.947740 0.243092 0.441257
O O11 0.750000 0.750000 0.361711
O O12 0.684592 0.494815 0.354416
O O13 0.665863 0.750360 0.304888
O O14 0.356815 0.249679 0.102082
O O15 0.366552 0.261872 0.000000
O O16 0.165397 0.242010 0.796841
O O17 0.186114 0.500000 0.250000
O O18 0.250000 0.750000 0.245207
#
# Coordination Sequence:
#
# PCOD9497314 Si02
#       8
#    16  16  16  16  16   4  16  16
#     4  10  20  36  63  94 126 171 217 264 327 391
#     4  11  24  41  61  93 134 179 222 270 323 402
#     4   9  17  35  61  89 128 169 213 268 322 388
#     4  11  24  42  63  89 125 164 215 277 329 389
#     4   9  19  36  60  94 128 164 212 264 323 391
#     4  12  26  40  60  90 142 180 218 268 336 400
#     4  11  24  41  66  94 126 171 217 269 330 391
#     4  11  23  42  67  93 121 158 210 269 325 389
#
# _framework density 20.794609999999999
#
# number of rings (size 3 to 8) (size 9 to 14) (size 15 to 20)
#    0.000    1.655    0.690    4.345    0.966    5.793 
#    0.000    0.000    0.000    6.621    0.000    0.000 
#    0.000    0.000    0.000    0.000    0.000    0.000 
#
# Total GULP energy -323131.529721 kJ/mol
# GULP energy per Si atom -5571.233271 kJ/mol
# Density = 2.074728 g / cm^3
# Si number density = 20.794610 Si / 1000 Ang^3
#
#
#
# Elastic Constant Matrix: (Units=GPa)
#
#
# Indices 1 2 3 4 5 6 
#
# 1 53.8593 22.5690 49.1879 0.0000 0.0000 0.0000
# 2 22.5690 70.9222 38.5515 0.0000 0.0000 0.0000
# 3 49.1879 38.5515 209.9614 0.0000 0.0000 0.0000
# 4 0.0000 0.0000 0.0000 40.3997 0.0000 0.0000
# 5 0.0000 0.0000 0.0000 0.0000 22.7597 0.0000
# 6 0.0000 0.0000 0.0000 0.0000 0.0000 21.3963
#
#
#
# Elastic Compliance Matrix: (Units=1/GPa)
#
#
# Indices 1 2 3 4 5 6 
#
# 1 0.025339 -0.005373 -0.004950 0.000000 0.000000 0.000000
# 2 -0.005373 0.016803 -0.001826 0.000000 0.000000 0.000000
# 3 -0.004950 -0.001826 0.006258 0.000000 0.000000 0.000000
# 4 0.000000 0.000000 0.000000 0.024753 0.000000 0.000000
# 5 0.000000 0.000000 0.000000 0.000000 0.043937 0.000000
# 6 0.000000 0.000000 0.000000 0.000000 0.000000 0.046737
#
#
# Mechanical properties :
#
#
# Convention : Reuss Voigt Hill
#
# Bulk Modulus (GPa) = 41.49189 61.70661 51.59925
# Shear Modulus (GPa) = 25.48975 31.87344 28.68160
#
# Velocity S-wave (km/s) = 3.50492 3.91931 3.71790
# Velocity P-wave (km/s) = 6.03124 7.08661 6.58012
#
# Compressibility (1/GPa) = 0.02410110
#
# Stress axis : x y z
#
# Youngs Moduli (GPa) = 39.46546 59.51485 159.80353
#
# Poissons Ratio (x) = 0.31976 0.79096
# Poissons Ratio (y) = 0.21204 0.29187
# Poissons Ratio (z) = 0.19534 0.10870
#
# Static dielectric constant tensor:
#      x y z
#    x 1.745430 0.000000 0.000000 
#    y 0.000000 1.752720 0.000000 
#    z 0.000000 0.000000 1.686350 
# 
# From -- ./inp_files/66143.got.cif
#   From: 2010.05.17/outbox.cif.g08.bks.cpg/sg66_34_cif.got.tgz:66143.got - 2010.06.03 17:51:23.
