data_PCOD9497694
_publ_section_title
;
Structure prediction by ZEFSAII (Michael W. Deem and Ramdas Pophale) SiO2 
 PCOD9497694
Probable space group: C C C M
;
_chemical_formula_sum "Si O2"
_cell_formula_units_Z 96
_cell_length_a 11.686651
_cell_length_b 14.290888
_cell_length_c 32.411037
_cell_angle_alpha 90.000000
_cell_angle_beta 90.000000
_cell_angle_gamma 90.000000
_cell_volume 5413.052224
_symmetry_space_group_name_H-M "C C C M"
_symmetry_group_IT_number 66
_symmetry_cell_setting 'orthorhombic'
loop_
_space_group_symop_operation_xyz
x,y,z
-x,-y,z
x,-y,1/2-z
-x,y,1/2-z
-x,-y,-z
x,y,-z
-x,y,1/2+z
x,-y,1/2+z
1/2+x,1/2+y,z
1/2-x,1/2-y,z
1/2+x,1/2-y,1/2-z
1/2-x,1/2+y,1/2-z
1/2-x,1/2-y,-z
1/2+x,1/2+y,-z
1/2-x,1/2+y,1/2+z
1/2+x,1/2-y,1/2+z
loop_
_atom_site_type_symbol
_atom_site_label
_atom_site_fract_x
_atom_site_fract_y
_atom_site_fract_z
Si Si1 0.793290 0.855230 0.629493
Si Si2 0.635711 0.010032 0.588227
Si Si3 0.387472 0.938024 0.500000
Si Si4 0.227947 0.141579 0.141440
Si Si5 0.863043 0.003994 0.201261
Si Si6 0.021440 0.109265 0.077950
Si Si7 0.612346 0.726553 0.000000
O O1 0.750000 0.750000 0.636046
O O2 0.699664 0.918927 0.605584
O O3 0.905932 0.855483 0.600396
O O4 0.820570 0.909428 0.672588
O O5 0.500000 0.000000 0.586761
O O6 0.677958 0.037971 0.542230
O O7 0.665267 0.094308 0.618795
O O8 0.432301 0.832326 0.500000
O O9 0.500000 0.000000 0.500000
O O10 0.250000 0.250000 0.146604
O O11 0.198167 0.087063 0.182743
O O12 0.121648 0.117901 0.111606
O O13 0.841086 0.000000 0.250000
O O14 0.000000 0.000000 0.195183
O O15 0.065814 0.170364 0.039502
O O16 0.000000 0.000000 0.067197
O O17 0.750000 0.750000 0.000000
#
# Coordination Sequence:
#
# PCOD9497694 Si02
#       7
#    16  16   8  16  16  16   8
#     4  11  24  39  64  90 124 161 203 257 305 371
#     4  10  22  38  58  84 120 166 204 251 304 363
#     4  10  22  38  54  78 121 160 209 242 295 356
#     4  11  21  37  64  88 119 159 204 249 305 373
#     4  10  20  41  66  92 123 155 198 255 313 374
#     4  12  22  43  60  91 121 163 212 257 313 360
#     4  12  27  38  62  92 123 165 212 273 306 358
#
# _framework density 17.734911
#
# number of rings (size 3 to 8) (size 9 to 14) (size 15 to 20)
#    0.000    1.167    5.000    2.750    7.000    1.333 
#    0.000    0.833    0.000    8.000    0.000    0.000 
#    0.000    0.000    0.000    0.000    0.000    0.000 
#
# Total GULP energy -267855.603655 kJ/mol
# GULP energy per Si atom -5580.325076 kJ/mol
# Density = 1.769455 g / cm^3
# Si number density = 17.734911 Si / 1000 Ang^3
#
#
#
# Elastic Constant Matrix: (Units=GPa)
#
#
# Indices 1 2 3 4 5 6 
#
# 1 93.9033 49.4470 52.7211 0.0000 0.0000 0.0000
# 2 49.4470 191.5841 83.9064 0.0000 0.0000 0.0000
# 3 52.7211 83.9064 163.2454 0.0000 0.0000 0.0000
# 4 0.0000 0.0000 0.0000 2.6446 0.0000 0.0000
# 5 0.0000 0.0000 0.0000 0.0000 15.9517 0.0000
# 6 0.0000 0.0000 0.0000 0.0000 0.0000 19.7121
#
#
#
# Elastic Compliance Matrix: (Units=1/GPa)
#
#
# Indices 1 2 3 4 5 6 
#
# 1 0.013603 -0.002048 -0.003341 0.000000 0.000000 0.000000
# 2 -0.002048 0.007044 -0.002959 0.000000 0.000000 0.000000
# 3 -0.003341 -0.002959 0.008726 0.000000 0.000000 0.000000
# 4 0.000000 0.000000 0.000000 0.378124 0.000000 0.000000
# 5 0.000000 0.000000 0.000000 0.000000 0.062689 0.000000
# 6 0.000000 0.000000 0.000000 0.000000 0.000000 0.050730
#
#
# Mechanical properties :
#
#
# Convention : Reuss Voigt Hill
#
# Bulk Modulus (GPa) = 78.87997 91.20911 85.04454
# Shear Modulus (GPa) = 9.22785 25.17222 17.20004
#
# Velocity S-wave (km/s) = 2.28353 3.77153 3.11760
# Velocity P-wave (km/s) = 7.17819 8.39682 7.81131
#
# Compressibility (1/GPa) = 0.01267749
#
# Stress axis : x y z
#
# Youngs Moduli (GPa) = 73.51227 141.96000 114.60417
#
# Poissons Ratio (x) = 0.29071 0.38285
# Poissons Ratio (y) = 0.15054 0.33915
# Poissons Ratio (z) = 0.24558 0.42010
#
# Static dielectric constant tensor:
#      x y z
#    x 1.610330 0.000000 0.000000 
#    y 0.000000 1.599190 0.000000 
#    z 0.000000 0.000000 1.625960 
# 
# From -- ./inp_files/69037.got.cif
#   From: 2010.05.17/outbox.cif.g08.bks.cpg/sg66_35_cif.got.tgz:69037.got - 2010.06.03 17:51:23.
