data_PCOD9497407
_publ_section_title
;
Structure prediction by ZEFSAII (Michael W. Deem and Ramdas Pophale) SiO2 
 PCOD9497407
Probable space group: C C C M
;
_chemical_formula_sum "Si O2"
_cell_formula_units_Z 80
_cell_length_a 14.249384
_cell_length_b 10.312637
_cell_length_c 27.057995
_cell_angle_alpha 90.000000
_cell_angle_beta 90.000000
_cell_angle_gamma 90.000000
_cell_volume 3976.137857
_symmetry_space_group_name_H-M "C C C M"
_symmetry_group_IT_number 66
_symmetry_cell_setting 'orthorhombic'
loop_
_space_group_symop_operation_xyz
x,y,z
-x,-y,z
x,-y,1/2-z
-x,y,1/2-z
-x,-y,-z
x,y,-z
-x,y,1/2+z
x,-y,1/2+z
1/2+x,1/2+y,z
1/2-x,1/2-y,z
1/2+x,1/2-y,1/2-z
1/2-x,1/2+y,1/2-z
1/2-x,1/2-y,-z
1/2+x,1/2+y,-z
1/2-x,1/2+y,1/2+z
1/2+x,1/2-y,1/2+z
loop_
_atom_site_type_symbol
_atom_site_label
_atom_site_fract_x
_atom_site_fract_y
_atom_site_fract_z
Si Si1 0.112073 0.498515 0.620366
Si Si2 0.266638 0.595381 0.943341
Si Si3 0.114880 0.730235 0.308613
Si Si4 0.886823 0.991533 0.648905
Si Si5 0.887402 0.275911 0.801712
O O1 0.169266 0.474632 0.570773
O O2 0.139886 0.628498 0.649136
O O3 0.139319 0.381225 0.657447
O O4 0.000000 0.500000 0.613039
O O5 0.250000 0.750000 0.936922
O O6 0.340563 0.539314 0.903888
O O7 0.294135 0.573038 0.000000
O O8 0.146735 0.694057 0.253439
O O9 0.001271 0.724209 0.303674
O O10 0.142239 0.873928 0.325607
O O11 0.860777 0.869195 0.683018
O O12 0.000000 0.000000 0.643971
#
# Coordination Sequence:
#
# PCOD9497407 Si02
#       5
#    16  16  16  16  16
#     4  10  20  37  61  88 120 156 196 240 290 352
#     4  11  24  43  64  84 113 156 205 253 302 356
#     4   9  18  31  57  90 125 155 188 236 292 340
#     4  10  20  37  61  88 120 156 196 240 290 352
#     4   9  16  33  57  88 123 163 192 222 282 364
#
# _framework density 20.120027
#
# number of rings (size 3 to 8) (size 9 to 14) (size 15 to 20)
#    0.000    2.200    2.000    1.200    0.000    6.400 
#    0.000    8.000    0.000    0.000    0.000    0.000 
#    0.000    0.000    0.000    0.000    0.000    0.000 
#
# Total GULP energy -223419.005348 kJ/mol
# GULP energy per Si atom -5585.475134 kJ/mol
# Density = 2.007423 g / cm^3
# Si number density = 20.120027 Si / 1000 Ang^3
#
#
#
# Elastic Constant Matrix: (Units=GPa)
#
#
# Indices 1 2 3 4 5 6 
#
# 1 66.0527 -23.4555 -12.4915 0.0000 0.0000 0.0000
# 2 -23.4555 81.4627 -6.2577 0.0000 0.0000 0.0000
# 3 -12.4915 -6.2577 72.9184 0.0000 0.0000 0.0000
# 4 0.0000 0.0000 0.0000 23.1349 0.0000 0.0000
# 5 0.0000 0.0000 0.0000 0.0000 28.8311 0.0000
# 6 0.0000 0.0000 0.0000 0.0000 0.0000 7.5714
#
#
#
# Elastic Compliance Matrix: (Units=1/GPa)
#
#
# Indices 1 2 3 4 5 6 
#
# 1 0.017706 0.005366 0.003494 0.000000 0.000000 0.000000
# 2 0.005366 0.013983 0.002119 0.000000 0.000000 0.000000
# 3 0.003494 0.002119 0.014494 0.000000 0.000000 0.000000
# 4 0.000000 0.000000 0.000000 0.043225 0.000000 0.000000
# 5 0.000000 0.000000 0.000000 0.000000 0.034685 0.000000
# 6 0.000000 0.000000 0.000000 0.000000 0.000000 0.132075
#
#
# Mechanical properties :
#
#
# Convention : Reuss Voigt Hill
#
# Bulk Modulus (GPa) = 14.67518 15.11383 14.89450
# Shear Modulus (GPa) = 19.46104 29.41672 24.43888
#
# Velocity S-wave (km/s) = 3.11343 3.82784 3.48897
# Velocity P-wave (km/s) = 4.49825 5.20237 4.86307
#
# Compressibility (1/GPa) = 0.06814228
#
# Stress axis : x y z
#
# Youngs Moduli (GPa) = 56.47882 71.51289 68.99254
#
# Poissons Ratio (x) = -0.38377 -0.24104
# Poissons Ratio (y) = -0.30309 -0.14622
# Poissons Ratio (z) = -0.19732 -0.15156
#
# Static dielectric constant tensor:
#      x y z
#    x 1.778690 0.000000 0.000000 
#    y 0.000000 1.691040 0.000000 
#    z 0.000000 0.000000 1.656000 
# 
# From -- ./inp_files/57912.got.cif
#   From: 2010.05.17/outbox.cif.g08.bks.cpg/sg66_29_cif.got.tgz:57912.got - 2010.06.03 17:51:23.
