data_PCOD9497259
_publ_section_title
;
Structure prediction by ZEFSAII (Michael W. Deem and Ramdas Pophale) SiO2 
 PCOD9497259
Probable space group: C C C M
;
_chemical_formula_sum "Si O2"
_cell_formula_units_Z 88
_cell_length_a 26.466308
_cell_length_b 10.741472
_cell_length_c 16.970595
_cell_angle_alpha 90.000000
_cell_angle_beta 90.000000
_cell_angle_gamma 90.000000
_cell_volume 4824.521345
_symmetry_space_group_name_H-M "C C C M"
_symmetry_group_IT_number 66
_symmetry_cell_setting 'orthorhombic'
loop_
_space_group_symop_operation_xyz
x,y,z
-x,-y,z
x,-y,1/2-z
-x,y,1/2-z
-x,-y,-z
x,y,-z
-x,y,1/2+z
x,-y,1/2+z
1/2+x,1/2+y,z
1/2-x,1/2-y,z
1/2+x,1/2-y,1/2-z
1/2-x,1/2+y,1/2-z
1/2-x,1/2-y,-z
1/2+x,1/2+y,-z
1/2-x,1/2+y,1/2+z
1/2+x,1/2-y,1/2+z
loop_
_atom_site_type_symbol
_atom_site_label
_atom_site_fract_x
_atom_site_fract_y
_atom_site_fract_z
Si Si1 0.603849 0.000000 0.250000
Si Si2 0.757358 0.106589 0.314829
Si Si3 0.941846 0.233313 0.228858
Si Si4 0.158586 0.412377 0.909929
Si Si5 0.129135 0.137814 0.134896
Si Si6 0.551952 0.435618 0.912051
O O1 0.570953 0.877462 0.262556
O O2 0.634613 0.980175 0.167545
O O3 0.750000 0.250000 0.284402
O O4 0.717752 0.094470 0.386601
O O5 0.814866 0.093296 0.343157
O O6 0.746931 0.000000 0.250000
O O7 0.903684 0.162296 0.286724
O O8 0.933678 0.178202 0.142894
O O9 0.000000 0.211833 0.250000
O O10 0.136244 0.271903 0.906189
O O11 0.151266 0.459826 0.000000
O O12 0.096444 0.036852 0.089028
O O13 0.500000 0.500000 0.882970
O O14 0.541518 0.392127 0.000000
#
# Coordination Sequence:
#
# PCOD9497259 Si02
#       6
#     8  16  16  16  16  16
#     4  10  23  40  60  86 116 158 199 244 296 346
#     4  10  20  36  60  89 120 156 199 245 297 356
#     4  11  21  38  60  81 113 156 199 237 287 354
#     4  10  21  39  63  88 118 154 198 248 296 357
#     4  10  21  36  60  87 116 155 193 242 293 350
#     4  11  22  35  55  85 120 149 187 242 296 347
#
# _framework density 18.240151000000001
#
# number of rings (size 3 to 8) (size 9 to 14) (size 15 to 20)
#    0.000    1.636    2.727    2.455    0.000    4.727 
#    0.000    0.000    0.000    3.818    0.000    0.000 
#    0.000    0.000    0.000    0.000    0.000    0.000 
#
# Total GULP energy -245314.183787 kJ/mol
# GULP energy per Si atom -5575.322359 kJ/mol
# Density = 1.819864 g / cm^3
# Si number density = 18.240151 Si / 1000 Ang^3
#
#
#
# Elastic Constant Matrix: (Units=GPa)
#
#
# Indices 1 2 3 4 5 6 
#
# 1 111.5005 11.7293 31.2398 0.0000 0.0000 0.0000
# 2 11.7293 52.1906 44.3457 0.0000 0.0000 0.0000
# 3 31.2398 44.3457 123.7012 0.0000 0.0000 0.0000
# 4 0.0000 0.0000 0.0000 18.8992 0.0000 0.0000
# 5 0.0000 0.0000 0.0000 0.0000 0.5772 0.0000
# 6 0.0000 0.0000 0.0000 0.0000 0.0000 13.4109
#
#
#
# Elastic Compliance Matrix: (Units=1/GPa)
#
#
# Indices 1 2 3 4 5 6 
#
# 1 0.009652 -0.000141 -0.002387 0.000000 0.000000 0.000000
# 2 -0.000141 0.027556 -0.009843 0.000000 0.000000 0.000000
# 3 -0.002387 -0.009843 0.012215 0.000000 0.000000 0.000000
# 4 0.000000 0.000000 0.000000 0.052912 0.000000 0.000000
# 5 0.000000 0.000000 0.000000 0.000000 1.732493 0.000000
# 6 0.000000 0.000000 0.000000 0.000000 0.000000 0.074566
#
#
# Mechanical properties :
#
#
# Convention : Reuss Voigt Hill
#
# Bulk Modulus (GPa) = 40.51628 51.33577 45.92602
# Shear Modulus (GPa) = 2.57418 19.91598 11.24508
#
# Velocity S-wave (km/s) = 1.18926 3.30794 2.48564
# Velocity P-wave (km/s) = 4.91393 6.54182 5.78542
#
# Compressibility (1/GPa) = 0.02468144
#
# Stress axis : x y z
#
# Youngs Moduli (GPa) = 103.60343 36.29038 81.86406
#
# Poissons Ratio (x) = 0.00512 0.19541
# Poissons Ratio (y) = 0.01461 0.80577
# Poissons Ratio (z) = 0.24731 0.35720
#
# Static dielectric constant tensor:
#      x y z
#    x 1.623710 0.000000 0.000000 
#    y 0.000000 1.626270 0.000000 
#    z 0.000000 0.000000 1.639330 
# 
# From -- ./inp_files/33172.got.cif
#   From: 2010.05.17/outbox.cif.g08.bks.cpg/sg66_17_cif.got.tgz:33172.got - 2010.06.03 17:51:23.
