data_PCOD9497266
_publ_section_title
;
Structure prediction by ZEFSAII (Michael W. Deem and Ramdas Pophale) SiO2 
 PCOD9497266
Probable space group: C C C M
;
_chemical_formula_sum "Si O2"
_cell_formula_units_Z 104
_cell_length_a 20.723543
_cell_length_b 25.223845
_cell_length_c 10.192827
_cell_angle_alpha 90.000000
_cell_angle_beta 90.000000
_cell_angle_gamma 90.000000
_cell_volume 5328.070328
_symmetry_space_group_name_H-M "C C C M"
_symmetry_group_IT_number 66
_symmetry_cell_setting 'orthorhombic'
loop_
_space_group_symop_operation_xyz
x,y,z
-x,-y,z
x,-y,1/2-z
-x,y,1/2-z
-x,-y,-z
x,y,-z
-x,y,1/2+z
x,-y,1/2+z
1/2+x,1/2+y,z
1/2-x,1/2-y,z
1/2+x,1/2-y,1/2-z
1/2-x,1/2+y,1/2-z
1/2-x,1/2-y,-z
1/2+x,1/2+y,-z
1/2-x,1/2+y,1/2+z
1/2+x,1/2-y,1/2+z
loop_
_atom_site_type_symbol
_atom_site_label
_atom_site_fract_x
_atom_site_fract_y
_atom_site_fract_z
Si Si1 0.625334 0.115145 0.746785
Si Si2 0.061452 0.277135 0.153828
Si Si3 0.093606 0.546518 0.500000
Si Si4 0.052363 0.933744 0.358831
Si Si5 0.334482 0.500000 0.750000
Si Si6 0.442055 0.927291 0.000000
Si Si7 0.863572 0.168548 0.349610
Si Si8 0.770625 0.892321 0.345717
O O1 0.602082 0.170057 0.683725
O O2 0.622837 0.071334 0.631778
O O3 0.696488 0.115924 0.807149
O O4 0.577428 0.102018 0.866829
O O5 0.107052 0.226157 0.175802
O O6 0.000000 0.275033 0.250000
O O7 0.041696 0.277121 0.000000
O O8 0.095855 0.483192 0.500000
O O9 0.017996 0.561887 0.500000
O O10 0.021287 0.940082 0.500000
O O11 0.078488 0.874071 0.344729
O O12 0.000000 0.944343 0.250000
O O13 0.115576 0.970427 0.347031
O O14 0.292874 0.452706 0.687354
O O15 0.837668 0.166959 0.500000
O O16 0.812569 0.147368 0.244266
O O17 0.780729 0.882936 0.500000
#
# Coordination Sequence:
#
# PCOD9497266 Si02
#       8
#    16  16   8  16   8   8  16  16
#     4  12  25  41  65  99 127 168 211 264 317 386
#     4  11  24  43  69  98 128 166 214 266 323 382
#     4  11  24  42  68  93 128 172 208 264 331 385
#     4  10  20  36  60  91 124 159 204 255 309 364
#     4  10  23  40  62  86 123 170 214 260 310 376
#     4  11  24  44  64  95 132 162 214 270 323 385
#     4   9  22  43  65  92 126 171 213 259 315 377
#     4  11  25  43  63  92 129 169 220 264 314 382
#
# _framework density 19.519262000000001
#
# number of rings (size 3 to 8) (size 9 to 14) (size 15 to 20)
#    0.000    1.385    1.538    3.000    4.308    6.769 
#    0.000    2.308    0.000    0.000    0.000    0.000 
#    0.000    0.000    0.000    0.000    0.000    0.000 
#
# Total GULP energy -290650.169642 kJ/mol
# GULP energy per Si atom -5589.426339 kJ/mol
# Density = 1.947484 g / cm^3
# Si number density = 19.519262 Si / 1000 Ang^3
#
#
#
# Elastic Constant Matrix: (Units=GPa)
#
#
# Indices 1 2 3 4 5 6 
#
# 1 67.4640 19.5367 47.5597 0.0000 0.0000 0.0000
# 2 19.5367 114.0022 38.2449 0.0000 0.0000 0.0000
# 3 47.5597 38.2449 151.8998 0.0000 0.0000 0.0000
# 4 0.0000 0.0000 0.0000 15.5641 0.0000 0.0000
# 5 0.0000 0.0000 0.0000 0.0000 27.4213 0.0000
# 6 0.0000 0.0000 0.0000 0.0000 0.0000 10.2310
#
#
#
# Elastic Compliance Matrix: (Units=1/GPa)
#
#
# Indices 1 2 3 4 5 6 
#
# 1 0.019221 -0.001393 -0.005668 0.000000 0.000000 0.000000
# 2 -0.001393 0.009682 -0.002002 0.000000 0.000000 0.000000
# 3 -0.005668 -0.002002 0.008862 0.000000 0.000000 0.000000
# 4 0.000000 0.000000 0.000000 0.064250 0.000000 0.000000
# 5 0.000000 0.000000 0.000000 0.000000 0.036468 0.000000
# 6 0.000000 0.000000 0.000000 0.000000 0.000000 0.097743
#
#
# Mechanical properties :
#
#
# Convention : Reuss Voigt Hill
#
# Bulk Modulus (GPa) = 50.91296 60.44983 55.68140
# Shear Modulus (GPa) = 19.16466 25.84493 22.50480
#
# Velocity S-wave (km/s) = 3.13682 3.64273 3.39920
# Velocity P-wave (km/s) = 6.26575 6.98063 6.63283
#
# Compressibility (1/GPa) = 0.01964136
#
# Stress axis : x y z
#
# Youngs Moduli (GPa) = 52.02524 103.28521 112.84432
#
# Poissons Ratio (x) = 0.14384 0.63955
# Poissons Ratio (y) = 0.07245 0.22587
# Poissons Ratio (z) = 0.29486 0.20674
#
# Static dielectric constant tensor:
#      x y z
#    x 1.652960 0.000000 0.000000 
#    y 0.000000 1.685540 0.000000 
#    z 0.000000 0.000000 1.687450 
# 
# From -- ./inp_files/8195.got.cif
#   From: 2010.05.17/outbox.cif.g08.bks.cpg/sg66_5_cif.got.tgz:8195.got - 2010.06.03 17:51:23.
