data_PCOD9497498
_publ_section_title
;
Structure prediction by ZEFSAII (Michael W. Deem and Ramdas Pophale) SiO2 
 PCOD9497498
Probable space group: C C C M
;
_chemical_formula_sum "Si O2"
_cell_formula_units_Z 80
_cell_length_a 25.131512
_cell_length_b 9.394392
_cell_length_c 18.912295
_cell_angle_alpha 90.000000
_cell_angle_beta 90.000000
_cell_angle_gamma 90.000000
_cell_volume 4465.103494
_symmetry_space_group_name_H-M "C C C M"
_symmetry_group_IT_number 66
_symmetry_cell_setting 'orthorhombic'
loop_
_space_group_symop_operation_xyz
x,y,z
-x,-y,z
x,-y,1/2-z
-x,y,1/2-z
-x,-y,-z
x,y,-z
-x,y,1/2+z
x,-y,1/2+z
1/2+x,1/2+y,z
1/2-x,1/2-y,z
1/2+x,1/2-y,1/2-z
1/2-x,1/2+y,1/2-z
1/2-x,1/2-y,-z
1/2+x,1/2+y,-z
1/2-x,1/2+y,1/2+z
1/2+x,1/2-y,1/2+z
loop_
_atom_site_type_symbol
_atom_site_label
_atom_site_fract_x
_atom_site_fract_y
_atom_site_fract_z
Si Si1 0.086418 0.838242 0.415984
Si Si2 0.787181 0.111820 0.811403
Si Si3 0.292577 0.362360 0.084086
Si Si4 0.002772 0.661753 0.834523
Si Si5 0.911532 0.899500 0.681922
O O1 0.076621 0.830201 0.500000
O O2 0.148301 0.803308 0.401213
O O3 0.045810 0.743508 0.371535
O O4 0.082604 0.996966 0.385156
O O5 0.750000 0.250000 0.811687
O O6 0.850349 0.143397 0.802582
O O7 0.772174 0.000000 0.750000
O O8 0.784191 0.016243 0.881841
O O9 0.250000 0.250000 0.112076
O O10 0.287247 0.374043 0.000000
O O11 0.054693 0.761560 0.839452
O O12 0.000000 0.500000 0.862178
O O13 0.000000 0.652594 0.750000
O O14 0.928619 0.000000 0.750000
#
# Coordination Sequence:
#
# PCOD9497498 Si02
#       5
#    16  16  16  16  16
#     4  10  21  37  61  87 112 151 198 236 273 338
#     4  10  21  36  55  84 114 147 189 237 281 331
#     4   9  19  37  60  85 116 152 189 229 283 342
#     4  11  23  37  55  83 115 150 190 235 291 340
#     4  10  20  38  59  79 111 153 191 231 282 345
#
# _framework density 17.916719000000001
#
# number of rings (size 3 to 8) (size 9 to 14) (size 15 to 20)
#    0.000    2.000    2.000    1.200    0.000    4.000 
#    3.600    0.000    0.000    0.000    0.000    0.000 
#    0.000    0.000    0.000    0.000    0.000    0.000 
#
# Total GULP energy -222798.842217 kJ/mol
# GULP energy per Si atom -5569.971055 kJ/mol
# Density = 1.787594 g / cm^3
# Si number density = 17.916719 Si / 1000 Ang^3
#
#
#
# Elastic Constant Matrix: (Units=GPa)
#
#
# Indices 1 2 3 4 5 6 
#
# 1 116.1380 102.0242 52.9967 0.0000 0.0000 0.0000
# 2 102.0242 131.2959 37.7692 0.0000 0.0000 0.0000
# 3 52.9967 37.7692 60.1878 0.0000 0.0000 0.0000
# 4 0.0000 0.0000 0.0000 6.8914 0.0000 0.0000
# 5 0.0000 0.0000 0.0000 0.0000 24.6156 0.0000
# 6 0.0000 0.0000 0.0000 0.0000 0.0000 47.7798
#
#
#
# Elastic Compliance Matrix: (Units=1/GPa)
#
#
# Indices 1 2 3 4 5 6 
#
# 1 0.039183 -0.025043 -0.018786 0.000000 0.000000 0.000000
# 2 -0.025043 0.025300 0.006175 0.000000 0.000000 0.000000
# 3 -0.018786 0.006175 0.029282 0.000000 0.000000 0.000000
# 4 0.000000 0.000000 0.000000 0.145108 0.000000 0.000000
# 5 0.000000 0.000000 0.000000 0.000000 0.040625 0.000000
# 6 0.000000 0.000000 0.000000 0.000000 0.000000 0.020929
#
#
# Mechanical properties :
#
#
# Convention : Reuss Voigt Hill
#
# Bulk Modulus (GPa) = 54.18553 77.02242 65.60397
# Shear Modulus (GPa) = 13.09288 23.51280 18.30284
#
# Velocity S-wave (km/s) = 2.70620 3.62655 3.19964
# Velocity P-wave (km/s) = 6.33035 7.78577 7.09548
#
# Compressibility (1/GPa) = 0.01845511
#
# Stress axis : x y z
#
# Youngs Moduli (GPa) = 25.52154 39.52580 34.15122
#
# Poissons Ratio (x) = 0.98984 0.64157
# Poissons Ratio (y) = 0.63913 -0.21087
# Poissons Ratio (z) = 0.47945 -0.24405
#
# Static dielectric constant tensor:
#      x y z
#    x 1.649190 0.000000 0.000000 
#    y 0.000000 1.612010 0.000000 
#    z 0.000000 0.000000 1.643530 
# 
# From -- ./inp_files/44122.got.cif
#   From: 2010.05.17/outbox.cif.g08.bks.cpg/sg66_23_cif.got.tgz:44122.got - 2010.06.03 17:51:23.
