data_PCOD9497159
_publ_section_title
;
Structure prediction by ZEFSAII (Michael W. Deem and Ramdas Pophale) SiO2 
 PCOD9497159
Probable space group: C C C M
;
_chemical_formula_sum "Si O2"
_cell_formula_units_Z 104
_cell_length_a 10.022047
_cell_length_b 18.839115
_cell_length_c 25.373713
_cell_angle_alpha 90.000000
_cell_angle_beta 90.000000
_cell_angle_gamma 90.000000
_cell_volume 4790.721841
_symmetry_space_group_name_H-M "C C C M"
_symmetry_group_IT_number 66
_symmetry_cell_setting 'orthorhombic'
loop_
_space_group_symop_operation_xyz
x,y,z
-x,-y,z
x,-y,1/2-z
-x,y,1/2-z
-x,-y,-z
x,y,-z
-x,y,1/2+z
x,-y,1/2+z
1/2+x,1/2+y,z
1/2-x,1/2-y,z
1/2+x,1/2-y,1/2-z
1/2-x,1/2+y,1/2-z
1/2-x,1/2-y,-z
1/2+x,1/2+y,-z
1/2-x,1/2+y,1/2+z
1/2+x,1/2-y,1/2+z
loop_
_atom_site_type_symbol
_atom_site_label
_atom_site_fract_x
_atom_site_fract_y
_atom_site_fract_z
Si Si1 0.500000 0.000000 0.652099
Si Si2 0.032588 0.405438 0.058794
Si Si3 0.053538 0.880602 0.941533
Si Si4 0.641610 0.804334 0.220912
Si Si5 0.816028 0.021359 0.415125
Si Si6 0.405886 0.244148 0.100520
Si Si7 0.231396 0.955923 0.297477
O O1 0.533129 0.936206 0.611803
O O2 0.373213 0.990731 0.688110
O O3 0.177437 0.443959 0.065646
O O4 0.040351 0.321886 0.067208
O O5 0.980977 0.421161 0.000000
O O6 0.928011 0.933731 0.944272
O O7 0.997164 0.813533 0.908681
O O8 0.089524 0.855077 0.000000
O O9 0.166504 0.936701 0.922475
O O10 0.500000 0.813154 0.250000
O O11 0.750000 0.750000 0.245016
O O12 0.604094 0.777188 0.162083
O O13 0.726291 0.876522 0.216587
O O14 0.840859 0.039768 0.353519
O O15 0.250000 0.250000 0.083701
O O16 0.168473 0.000000 0.250000
#
# Coordination Sequence:
#
# PCOD9497159 Si02
#       7
#     8  16  16  16  16  16  16
#     4  10  20  36  56  88 112 150 208 272 308 384
#     4  11  20  34  58  86 119 161 211 271 328 384
#     4  11  21  35  58  87 127 168 205 260 336 405
#     4  11  23  42  67  98 133 176 224 281 342 407
#     4  10  20  36  55  88 122 160 213 262 319 397
#     4  11  21  37  59  91 128 164 219 273 329 410
#     4  11  22  40  66  86 119 168 219 268 329 398
#
# _framework density 21.708628000000001
#
# number of rings (size 3 to 8) (size 9 to 14) (size 15 to 20)
#    0.000    1.231    4.615    4.615    0.000    1.846 
#    0.000    1.538    0.000    0.000    0.000    9.692 
#    0.000    0.000    0.000    0.000    0.000    0.000 
#
# Total GULP energy -290000.844756 kJ/mol
# GULP energy per Si atom -5576.939322 kJ/mol
# Density = 2.165922 g / cm^3
# Si number density = 21.708628 Si / 1000 Ang^3
#
#
#
# Elastic Constant Matrix: (Units=GPa)
#
#
# Indices 1 2 3 4 5 6 
#
# 1 40.1216 15.4672 -3.0845 0.0000 0.0000 0.0000
# 2 15.4672 156.6659 38.0535 0.0000 0.0000 0.0000
# 3 -3.0845 38.0535 112.0702 0.0000 0.0000 0.0000
# 4 0.0000 0.0000 0.0000 23.3467 0.0000 0.0000
# 5 0.0000 0.0000 0.0000 0.0000 22.1021 0.0000
# 6 0.0000 0.0000 0.0000 0.0000 0.0000 23.0374
#
#
#
# Elastic Compliance Matrix: (Units=1/GPa)
#
#
# Indices 1 2 3 4 5 6 
#
# 1 0.026220 -0.003012 0.001744 0.000000 0.000000 0.000000
# 2 -0.003012 0.007303 -0.002563 0.000000 0.000000 0.000000
# 3 0.001744 -0.002563 0.009841 0.000000 0.000000 0.000000
# 4 0.000000 0.000000 0.000000 0.042833 0.000000 0.000000
# 5 0.000000 0.000000 0.000000 0.000000 0.045245 0.000000
# 6 0.000000 0.000000 0.000000 0.000000 0.000000 0.043408
#
#
# Mechanical properties :
#
#
# Convention : Reuss Voigt Hill
#
# Bulk Modulus (GPa) = 28.00907 45.52555 36.76731
# Shear Modulus (GPa) = 25.71878 30.92532 28.32205
#
# Velocity S-wave (km/s) = 3.44572 3.77843 3.61591
# Velocity P-wave (km/s) = 5.36292 6.32867 5.86571
#
# Compressibility (1/GPa) = 0.03570272
#
# Stress axis : x y z
#
# Youngs Moduli (GPa) = 38.13937 136.93282 101.61443
#
# Poissons Ratio (x) = 0.41248 -0.17726
# Poissons Ratio (y) = 0.11489 0.26040
# Poissons Ratio (z) = -0.06653 0.35090
#
# Static dielectric constant tensor:
#      x y z
#    x 1.979190 0.000000 0.000000 
#    y 0.000000 1.857060 0.000000 
#    z 0.000000 0.000000 1.833400 
# 
# From -- ./inp_files/63784.got.cif
#   From: 2010.05.17/outbox.cif.g08.bks.cpg/sg66_32_cif.got.tgz:63784.got - 2010.06.03 17:51:23.
