data_PCOD9497182
_publ_section_title
;
Structure prediction by ZEFSAII (Michael W. Deem and Ramdas Pophale) SiO2 
 PCOD9497182
Probable space group: C C C M
;
_chemical_formula_sum "Si O2"
_cell_formula_units_Z 96
_cell_length_a 24.146496
_cell_length_b 25.900331
_cell_length_c 8.622690
_cell_angle_alpha 90.000000
_cell_angle_beta 90.000000
_cell_angle_gamma 90.000000
_cell_volume 5392.649631
_symmetry_space_group_name_H-M "C C C M"
_symmetry_group_IT_number 66
_symmetry_cell_setting 'orthorhombic'
loop_
_space_group_symop_operation_xyz
x,y,z
-x,-y,z
x,-y,1/2-z
-x,y,1/2-z
-x,-y,-z
x,y,-z
-x,y,1/2+z
x,-y,1/2+z
1/2+x,1/2+y,z
1/2-x,1/2-y,z
1/2+x,1/2-y,1/2-z
1/2-x,1/2+y,1/2-z
1/2-x,1/2-y,-z
1/2+x,1/2+y,-z
1/2-x,1/2+y,1/2+z
1/2+x,1/2-y,1/2+z
loop_
_atom_site_type_symbol
_atom_site_label
_atom_site_fract_x
_atom_site_fract_y
_atom_site_fract_z
Si Si1 0.939203 0.056994 0.814800
Si Si2 0.061724 0.249947 0.313457
Si Si3 0.372707 0.651692 0.313543
Si Si4 0.938945 0.556969 0.313289
Si Si5 0.862959 0.347915 0.186725
Si Si6 0.748361 0.309816 0.313067
O O1 0.895454 0.098876 0.757163
O O2 0.000000 0.071574 0.750000
O O3 0.926757 0.000000 0.750000
O O4 0.941592 0.055468 0.000000
O O5 0.060483 0.246802 0.500000
O O6 0.088946 0.198368 0.245399
O O7 0.099581 0.298738 0.267436
O O8 0.000000 0.256461 0.250000
O O9 0.375340 0.649305 0.500000
O O10 0.309745 0.664712 0.266333
O O11 0.925642 0.500000 0.250000
O O12 0.941454 0.555392 0.500000
O O13 0.894384 0.599900 0.264782
O O14 0.000000 0.570815 0.250000
O O15 0.801868 0.339734 0.252443
O O16 0.859899 0.348255 0.000000
O O17 0.750267 0.309172 0.500000
O O18 0.750000 0.250000 0.259393
#
# Coordination Sequence:
#
# PCOD9497182 Si02
#       6
#    16  16  16  16  16  16
#     4  11  22  39  62  88 117 151 190 232 285 338
#     4  11  22  35  53  81 113 147 183 230 285 339
#     4  11  22  38  58  83 115 149 190 234 280 337
#     4  10  20  36  57  84 113 148 188 231 283 337
#     4  10  22  37  56  82 113 147 189 233 282 339
#     4  10  21  38  59  83 111 150 192 232 282 335
#
# _framework density 17.802009999999999
#
# number of rings (size 3 to 8) (size 9 to 14) (size 15 to 20)
#    0.000    1.500    1.667    5.000    0.000    3.667 
#    0.000    0.833    0.000    2.000    0.000    0.000 
#    0.000    0.000    0.000    0.000    0.000    0.000 
#
# Total GULP energy -268257.446601 kJ/mol
# GULP energy per Si atom -5588.696804 kJ/mol
# Density = 1.776149 g / cm^3
# Si number density = 17.802010 Si / 1000 Ang^3
#
#
#
# Elastic Constant Matrix: (Units=GPa)
#
#
# Indices 1 2 3 4 5 6 
#
# 1 138.5508 84.6566 42.7997 0.0000 0.0000 0.0000
# 2 84.6566 117.0219 40.0909 0.0000 0.0000 0.0000
# 3 42.7997 40.0909 71.7176 0.0000 0.0000 0.0000
# 4 0.0000 0.0000 0.0000 24.0606 0.0000 0.0000
# 5 0.0000 0.0000 0.0000 0.0000 31.8644 0.0000
# 6 0.0000 0.0000 0.0000 0.0000 0.0000 18.5766
#
#
#
# Elastic Compliance Matrix: (Units=1/GPa)
#
#
# Indices 1 2 3 4 5 6 
#
# 1 0.013509 -0.008671 -0.003214 0.000000 0.000000 0.000000
# 2 -0.008671 0.016136 -0.003845 0.000000 0.000000 0.000000
# 3 -0.003214 -0.003845 0.018011 0.000000 0.000000 0.000000
# 4 0.000000 0.000000 0.000000 0.041562 0.000000 0.000000
# 5 0.000000 0.000000 0.000000 0.000000 0.031383 0.000000
# 6 0.000000 0.000000 0.000000 0.000000 0.000000 0.053831
#
#
# Mechanical properties :
#
#
# Convention : Reuss Voigt Hill
#
# Bulk Modulus (GPa) = 61.75100 73.59832 67.67466
# Shear Modulus (GPa) = 23.66391 25.54987 24.60689
#
# Velocity S-wave (km/s) = 3.64989 3.79254 3.72190
# Velocity P-wave (km/s) = 7.24743 7.78526 7.52115
#
# Compressibility (1/GPa) = 0.01619407
#
# Stress axis : x y z
#
# Youngs Moduli (GPa) = 74.02515 61.97363 55.52043
#
# Poissons Ratio (x) = 0.53740 0.17847
# Poissons Ratio (y) = 0.64191 0.21349
# Poissons Ratio (z) = 0.23795 0.23830
#
# Static dielectric constant tensor:
#      x y z
#    x 1.581560 0.000000 0.000000 
#    y 0.000000 1.591900 0.000000 
#    z 0.000000 0.000000 1.601970 
# 
# From -- ./inp_files/9112.got.cif
#   From: 2010.05.17/outbox.cif.g08.bks.cpg/sg66_5_cif.got.tgz:9112.got - 2010.06.03 17:51:23.
