data_PCOD9497604
_publ_section_title
;
Structure prediction by ZEFSAII (Michael W. Deem and Ramdas Pophale) SiO2 
 PCOD9497604
Probable space group: C C C M
;
_chemical_formula_sum "Si O2"
_cell_formula_units_Z 108
_cell_length_a 13.268476
_cell_length_b 15.256226
_cell_length_c 23.307092
_cell_angle_alpha 90.000000
_cell_angle_beta 90.000000
_cell_angle_gamma 90.000000
_cell_volume 4717.981648
_symmetry_space_group_name_H-M "C C C M"
_symmetry_group_IT_number 66
_symmetry_cell_setting 'orthorhombic'
loop_
_space_group_symop_operation_xyz
x,y,z
-x,-y,z
x,-y,1/2-z
-x,y,1/2-z
-x,-y,-z
x,y,-z
-x,y,1/2+z
x,-y,1/2+z
1/2+x,1/2+y,z
1/2-x,1/2-y,z
1/2+x,1/2-y,1/2-z
1/2-x,1/2+y,1/2-z
1/2-x,1/2-y,-z
1/2+x,1/2+y,-z
1/2-x,1/2+y,1/2+z
1/2+x,1/2-y,1/2+z
loop_
_atom_site_type_symbol
_atom_site_label
_atom_site_fract_x
_atom_site_fract_y
_atom_site_fract_z
Si Si1 0.000000 0.500000 0.750000
Si Si2 0.884938 0.384417 0.682101
Si Si3 0.568404 0.205410 0.561836
Si Si4 0.565367 0.650970 0.692607
Si Si5 0.239867 0.964660 0.843112
Si Si6 0.750000 0.250000 0.302243
Si Si7 0.121768 0.120902 0.882808
Si Si8 0.650232 0.797446 0.391839
O O1 0.010089 0.577495 0.701279
O O2 0.890389 0.346350 0.617651
O O3 0.814785 0.469370 0.688578
O O4 0.838656 0.308875 0.722787
O O5 0.601692 0.170901 0.500000
O O6 0.603722 0.307035 0.567833
O O7 0.447640 0.199566 0.568046
O O8 0.500000 0.663496 0.750000
O O9 0.658857 0.584148 0.697503
O O10 0.485910 0.610465 0.647452
O O11 0.610688 0.736697 0.661254
O O12 0.307226 0.891380 0.873337
O O13 0.177450 0.027947 0.887111
O O14 0.809322 0.177239 0.338758
O O15 0.750000 0.750000 0.416306
#
# Coordination Sequence:
#
# PCOD9497604 Si02
#       8
#     4  16  16  16  16   8  16  16
#     4  12  24  40  66  88 138 170 224 274 336 412
#     4  10  22  41  64  93 127 176 214 276 336 403
#     4  10  21  43  69  93 128 173 226 280 343 412
#     4  10  21  38  62  89 129 177 225 267 328 402
#     4  10  20  39  62  90 133 166 223 278 330 402
#     4   8  18  40  57  82 126 160 211 250 324 390
#     4   9  19  37  60  90 122 165 209 273 327 395
#     4   9  20  40  62  94 130 178 222 276 340 410
#
# _framework density 22.891144000000001
#
# number of rings (size 3 to 8) (size 9 to 14) (size 15 to 20)
#    0.000    2.370    0.000    1.333    0.000    3.852 
#   25.333   17.407    1.630   15.111    0.000    0.000 
#    0.000    0.000    0.000    0.000    0.000    0.000 
#
# Total GULP energy -300648.654565 kJ/mol
# GULP energy per Si atom -5567.567677 kJ/mol
# Density = 2.283904 g / cm^3
# Si number density = 22.891144 Si / 1000 Ang^3
#
#
#
# Elastic Constant Matrix: (Units=GPa)
#
#
# Indices 1 2 3 4 5 6 
#
# 1 77.5559 33.5039 8.4392 0.0000 0.0000 0.0000
# 2 33.5039 143.4543 27.2795 0.0000 0.0000 0.0000
# 3 8.4392 27.2795 93.1536 0.0000 0.0000 0.0000
# 4 0.0000 0.0000 0.0000 -7.1143 0.0000 0.0000
# 5 0.0000 0.0000 0.0000 0.0000 0.8724 0.0000
# 6 0.0000 0.0000 0.0000 0.0000 0.0000 61.2570
#
#
#
# Elastic Compliance Matrix: (Units=1/GPa)
#
#
# Indices 1 2 3 4 5 6 
#
# 1 0.014351 -0.003287 -0.000337 0.000000 0.000000 0.000000
# 2 -0.003287 0.008135 -0.002084 0.000000 0.000000 0.000000
# 3 -0.000337 -0.002084 0.011376 0.000000 0.000000 0.000000
# 4 0.000000 0.000000 0.000000 -0.140561 0.000000 0.000000
# 5 0.000000 0.000000 0.000000 0.000000 1.146224 0.000000
# 6 0.000000 0.000000 0.000000 0.000000 0.000000 0.016325
#
#
# Mechanical properties :
#
#
# Convention : Reuss Voigt Hill
#
# Bulk Modulus (GPa) = 44.55710 50.28990 47.42350
# Shear Modulus (GPa) = 4.65225 27.33245 15.99235
#
# Velocity S-wave (km/s) = 1.42715 3.45921 2.64602
# Velocity P-wave (km/s) = 4.71410 6.16211 5.48609
#
# Compressibility (1/GPa) = 0.02244311
#
# Stress axis : x y z
#
# Youngs Moduli (GPa) = 69.68244 122.92498 87.90479
#
# Poissons Ratio (x) = 0.40411 0.02966
# Poissons Ratio (y) = 0.22908 0.18323
# Poissons Ratio (z) = 0.02351 0.25623
#
# Static dielectric constant tensor:
#      x y z
#    x 2.182460 0.000000 0.000000 
#    y 0.000000 1.858330 0.000000 
#    z 0.000000 0.000000 1.867280 
# 
# From -- ./inp_files/58271.got.cif
#   From: 2010.05.17/outbox.cif.g08.bks.cpg/sg66_30_cif.got.tgz:58271.got - 2010.06.03 17:51:23.
