data_PCOD9497214
_publ_section_title
;
Structure prediction by ZEFSAII (Michael W. Deem and Ramdas Pophale) SiO2 
 PCOD9497214
Probable space group: C C C M
;
_chemical_formula_sum "Si O2"
_cell_formula_units_Z 88
_cell_length_a 20.146263
_cell_length_b 19.105496
_cell_length_c 10.073523
_cell_angle_alpha 90.000000
_cell_angle_beta 90.000000
_cell_angle_gamma 90.000000
_cell_volume 3877.342794
_symmetry_space_group_name_H-M "C C C M"
_symmetry_group_IT_number 66
_symmetry_cell_setting 'orthorhombic'
loop_
_space_group_symop_operation_xyz
x,y,z
-x,-y,z
x,-y,1/2-z
-x,y,1/2-z
-x,-y,-z
x,y,-z
-x,y,1/2+z
x,-y,1/2+z
1/2+x,1/2+y,z
1/2-x,1/2-y,z
1/2+x,1/2-y,1/2-z
1/2-x,1/2+y,1/2-z
1/2-x,1/2-y,-z
1/2+x,1/2+y,-z
1/2-x,1/2+y,1/2+z
1/2+x,1/2-y,1/2+z
loop_
_atom_site_type_symbol
_atom_site_label
_atom_site_fract_x
_atom_site_fract_y
_atom_site_fract_z
Si Si1 0.140389 0.381034 0.155295
Si Si2 0.500000 0.153670 0.250000
Si Si3 0.364972 0.500000 0.750000
Si Si4 0.255288 0.605143 0.153079
Si Si5 0.845550 0.773855 0.746351
Si Si6 0.442469 0.764746 0.000000
Si Si7 0.554337 0.620239 0.139628
O O1 0.067265 0.389409 0.219480
O O2 0.196560 0.416105 0.247131
O O3 0.158008 0.298586 0.174377
O O4 0.142785 0.400342 0.000000
O O5 0.489085 0.200671 0.381028
O O6 0.317407 0.552899 0.828725
O O7 0.412582 0.455522 0.845541
O O8 0.282789 0.681087 0.197520
O O9 0.233140 0.607048 0.000000
O O10 0.889493 0.759635 0.616306
O O11 0.886595 0.826246 0.839898
O O12 0.500000 0.629078 0.250000
O O13 0.519598 0.633907 0.000000
#
# Coordination Sequence:
#
# PCOD9497214 Si02
#       7
#    16   8   8  16  16   8  16
#     4  11  24  39  62  94 132 171 206 255 324 387
#     4  10  22  38  58  89 130 167 200 252 304 386
#     4  10  25  48  64  85 122 164 224 274 320 373
#     4  11  24  42  66  91 120 166 218 271 319 372
#     4  10  23  37  62  92 133 169 213 253 308 385
#     4  10  20  36  59  84 130 173 206 247 303 374
#     4  11  25  39  63  92 127 172 216 265 314 369
#
# _framework density 22.695955999999999
#
# number of rings (size 3 to 8) (size 9 to 14) (size 15 to 20)
#    0.000    1.455    1.818    1.909   11.455    8.000 
#    0.000    0.000    0.000    0.545    0.000    2.545 
#    0.000    0.000    0.000    0.000    0.000    0.000 
#
# Total GULP energy -245042.768982 kJ/mol
# GULP energy per Si atom -5569.153841 kJ/mol
# Density = 2.264430 g / cm^3
# Si number density = 22.695956 Si / 1000 Ang^3
#
#
#
# Elastic Constant Matrix: (Units=GPa)
#
#
# Indices 1 2 3 4 5 6 
#
# 1 60.7780 -14.2859 29.4698 0.0000 0.0000 0.0000
# 2 -14.2859 36.2851 -4.9801 0.0000 0.0000 0.0000
# 3 29.4698 -4.9801 194.9632 0.0000 0.0000 0.0000
# 4 0.0000 0.0000 0.0000 0.8362 0.0000 0.0000
# 5 0.0000 0.0000 0.0000 0.0000 26.9301 0.0000
# 6 0.0000 0.0000 0.0000 0.0000 0.0000 269.9844
#
#
#
# Elastic Compliance Matrix: (Units=1/GPa)
#
#
# Indices 1 2 3 4 5 6 
#
# 1 0.019509 0.007302 -0.002762 0.000000 0.000000 0.000000
# 2 0.007302 0.030389 -0.000327 0.000000 0.000000 0.000000
# 3 -0.002762 -0.000327 0.005538 0.000000 0.000000 0.000000
# 4 0.000000 0.000000 0.000000 1.195920 0.000000 0.000000
# 5 0.000000 0.000000 0.000000 0.000000 0.037133 0.000000
# 6 0.000000 0.000000 0.000000 0.000000 0.000000 0.003704
#
#
# Mechanical properties :
#
#
# Convention : Reuss Voigt Hill
#
# Bulk Modulus (GPa) = 15.65907 34.71487 25.18697
# Shear Modulus (GPa) = 3.83125 78.33831 41.08478
#
# Velocity S-wave (km/s) = 1.30067 5.88144 4.25929
# Velocity P-wave (km/s) = 3.02822 7.83904 5.94225
#
# Compressibility (1/GPa) = 0.06386077
#
# Stress axis : x y z
#
# Youngs Moduli (GPa) = 51.25828 32.90619 180.55888
#
# Poissons Ratio (x) = -0.24027 0.49877
# Poissons Ratio (y) = -0.37428 0.05912
# Poissons Ratio (z) = 0.14160 0.01078
#
# Static dielectric constant tensor:
#      x y z
#    x 1.923520 0.000000 0.000000 
#    y 0.000000 1.930680 0.000000 
#    z 0.000000 0.000000 1.813940 
# 
# From -- ./inp_files/7814.got.cif
#   From: 2010.05.17/outbox.cif.g08.bks.cpg/sg66_4_cif.got.tgz:7814.got - 2010.06.03 17:51:23.
