data_PCOD9497966
_publ_section_title
;
Structure prediction by ZEFSAII (Michael W. Deem and Ramdas Pophale) SiO2 
 PCOD9497966
Probable space group: C C C M
;
_chemical_formula_sum "Si O2"
_cell_formula_units_Z 80
_cell_length_a 14.034324
_cell_length_b 15.721879
_cell_length_c 18.206432
_cell_angle_alpha 90.000000
_cell_angle_beta 90.000000
_cell_angle_gamma 90.000000
_cell_volume 4017.175371
_symmetry_space_group_name_H-M "C C C M"
_symmetry_group_IT_number 66
_symmetry_cell_setting 'orthorhombic'
loop_
_space_group_symop_operation_xyz
x,y,z
-x,-y,z
x,-y,1/2-z
-x,y,1/2-z
-x,-y,-z
x,y,-z
-x,y,1/2+z
x,-y,1/2+z
1/2+x,1/2+y,z
1/2-x,1/2-y,z
1/2+x,1/2-y,1/2-z
1/2-x,1/2+y,1/2-z
1/2-x,1/2-y,-z
1/2+x,1/2+y,-z
1/2-x,1/2+y,1/2+z
1/2+x,1/2-y,1/2+z
loop_
_atom_site_type_symbol
_atom_site_label
_atom_site_fract_x
_atom_site_fract_y
_atom_site_fract_z
Si Si1 0.265189 0.509540 0.166328
Si Si2 0.010393 0.728448 0.084270
Si Si3 0.060506 0.918627 0.087591
Si Si4 0.689559 0.832497 0.863337
Si Si5 0.599903 0.875286 0.288806
O O1 0.302546 0.500000 0.250000
O O2 0.336268 0.571942 0.124404
O O3 0.249189 0.419256 0.126169
O O4 0.159721 0.547854 0.177294
O O5 0.909871 0.679957 0.094264
O O6 0.007409 0.829391 0.101390
O O7 0.078611 0.688451 0.145191
O O8 0.042662 0.719073 0.000000
O O9 0.072003 0.925596 0.000000
O O10 0.000000 0.000000 0.113491
O O11 0.750000 0.750000 0.881057
O O12 0.661930 0.835030 0.776816
O O13 0.500000 0.898774 0.250000
#
# Coordination Sequence:
#
# PCOD9497966 Si02
#       5
#    16  16  16  16  16
#     4  10  22  37  61  87 115 155 203 248 303 358
#     4  10  22  38  59  85 118 158 193 243 305 359
#     4  10  22  40  58  85 125 160 195 248 305 359
#     4  10  21  37  59  85 113 153 201 245 295 357
#     4   9  21  39  59  82 119 151 194 250 304 353
#
# _framework density 19.914490000000001
#
# number of rings (size 3 to 8) (size 9 to 14) (size 15 to 20)
#    0.000    2.200    0.000    1.200    5.600   11.600 
#    3.600    3.000    0.000    0.000    0.000    0.000 
#    0.000    0.000    0.000    0.000    0.000    0.000 
#
# Total GULP energy -223133.823070 kJ/mol
# GULP energy per Si atom -5578.345577 kJ/mol
# Density = 1.986916 g / cm^3
# Si number density = 19.914490 Si / 1000 Ang^3
#
#
#
# Elastic Constant Matrix: (Units=GPa)
#
#
# Indices 1 2 3 4 5 6 
#
# 1 37.1937 -0.3400 -1.6005 0.0000 0.0000 0.0000
# 2 -0.3400 74.3183 20.0318 0.0000 0.0000 0.0000
# 3 -1.6005 20.0318 43.3536 0.0000 0.0000 0.0000
# 4 0.0000 0.0000 0.0000 26.1298 0.0000 0.0000
# 5 0.0000 0.0000 0.0000 0.0000 8.5154 0.0000
# 6 0.0000 0.0000 0.0000 0.0000 0.0000 37.7176
#
#
#
# Elastic Compliance Matrix: (Units=1/GPa)
#
#
# Indices 1 2 3 4 5 6 
#
# 1 0.026931 -0.000165 0.001071 0.000000 0.000000 0.000000
# 2 -0.000165 0.015371 -0.007108 0.000000 0.000000 0.000000
# 3 0.001071 -0.007108 0.026390 0.000000 0.000000 0.000000
# 4 0.000000 0.000000 0.000000 0.038270 0.000000 0.000000
# 5 0.000000 0.000000 0.000000 0.000000 0.117435 0.000000
# 6 0.000000 0.000000 0.000000 0.000000 0.000000 0.026513
#
#
# Mechanical properties :
#
#
# Convention : Reuss Voigt Hill
#
# Bulk Modulus (GPa) = 17.76650 21.22758 19.49704
# Shear Modulus (GPa) = 17.72562 23.59086 20.65824
#
# Velocity S-wave (km/s) = 2.98667 3.44555 3.22428
# Velocity P-wave (km/s) = 4.56447 5.14894 4.86549
#
# Compressibility (1/GPa) = 0.05628569
#
# Stress axis : x y z
#
# Youngs Moduli (GPa) = 37.13215 65.05822 37.89303
#
# Poissons Ratio (x) = 0.01076 -0.04057
# Poissons Ratio (y) = 0.00614 0.26935
# Poissons Ratio (z) = -0.03975 0.46245
#
# Static dielectric constant tensor:
#      x y z
#    x 1.714370 0.000000 0.000000 
#    y 0.000000 1.728420 0.000000 
#    z 0.000000 0.000000 1.690910 
# 
# From -- ./inp_files/49770.got.cif
#   From: 2010.05.17/outbox.cif.g08.bks.cpg/sg66_25_cif.got.tgz:49770.got - 2010.06.03 17:51:23.
