data_PCOD9497058
_publ_section_title
;
Structure prediction by ZEFSAII (Michael W. Deem and Ramdas Pophale) SiO2 
 PCOD9497058
Probable space group: C C C M
;
_chemical_formula_sum "Si O2"
_cell_formula_units_Z 84
_cell_length_a 9.532736
_cell_length_b 24.187914
_cell_length_c 15.830145
_cell_angle_alpha 90.000000
_cell_angle_beta 90.000000
_cell_angle_gamma 90.000000
_cell_volume 3650.067321
_symmetry_space_group_name_H-M "C C C M"
_symmetry_group_IT_number 66
_symmetry_cell_setting 'orthorhombic'
loop_
_space_group_symop_operation_xyz
x,y,z
-x,-y,z
x,-y,1/2-z
-x,y,1/2-z
-x,-y,-z
x,y,-z
-x,y,1/2+z
x,-y,1/2+z
1/2+x,1/2+y,z
1/2-x,1/2-y,z
1/2+x,1/2-y,1/2-z
1/2-x,1/2+y,1/2-z
1/2-x,1/2-y,-z
1/2+x,1/2+y,-z
1/2-x,1/2+y,1/2+z
1/2+x,1/2-y,1/2+z
loop_
_atom_site_type_symbol
_atom_site_label
_atom_site_fract_x
_atom_site_fract_y
_atom_site_fract_z
Si Si1 0.000000 0.500000 0.750000
Si Si2 0.473599 0.409419 0.655530
Si Si3 0.500387 0.070925 0.095747
Si Si4 0.119784 0.192133 0.095308
Si Si5 0.203556 0.995074 0.597189
Si Si6 0.576947 0.811836 0.840269
O O1 0.064548 0.543891 0.817837
O O2 0.500000 0.389821 0.750000
O O3 0.504924 0.355781 0.600510
O O4 0.597395 0.453405 0.641424
O O5 0.334347 0.444355 0.635347
O O6 0.349363 0.039668 0.096622
O O7 0.482195 0.135633 0.109254
O O8 0.559946 0.061203 0.000000
O O9 0.252817 0.181154 0.157203
O O10 0.057390 0.251864 0.117569
O O11 0.178170 0.192124 0.000000
O O12 0.162604 0.000187 0.500000
O O13 0.500000 0.811847 0.750000
#
# Coordination Sequence:
#
# PCOD9497058 Si02
#       6
#     4  16  16  16  16  16
#     4  12  26  40  64  88 120 172 218 282 330 390
#     4  11  21  33  56  95 128 163 204 263 328 400
#     4  11  23  41  63  92 126 170 224 273 330 398
#     4  11  22  40  68  97 128 172 223 274 334 407
#     4  10  20  35  57  85 125 166 205 262 327 394
#     4  11  22  40  62  97 126 170 219 275 321 385
#
# _framework density 23.013273000000002
#
# number of rings (size 3 to 8) (size 9 to 14) (size 15 to 20)
#    0.000    1.143    2.857    6.571    2.667    0.000 
#    0.000    0.000    0.000    0.000    0.000   20.000 
#    0.000    0.000    0.000    0.000    0.000    0.000 
#
# Total GULP energy -234041.200101 kJ/mol
# GULP energy per Si atom -5572.409526 kJ/mol
# Density = 2.296089 g / cm^3
# Si number density = 23.013273 Si / 1000 Ang^3
#
#
#
# Elastic Constant Matrix: (Units=GPa)
#
#
# Indices 1 2 3 4 5 6 
#
# 1 57.7682 12.7466 28.9768 0.0000 0.0000 0.0000
# 2 12.7466 171.0329 23.0990 0.0000 0.0000 0.0000
# 3 28.9768 23.0990 133.5397 0.0000 0.0000 0.0000
# 4 0.0000 0.0000 0.0000 16.6716 0.0000 0.0000
# 5 0.0000 0.0000 0.0000 0.0000 22.3063 0.0000
# 6 0.0000 0.0000 0.0000 0.0000 0.0000 -42.3644
#
#
#
# Elastic Compliance Matrix: (Units=1/GPa)
#
#
# Indices 1 2 3 4 5 6 
#
# 1 0.019561 -0.000906 -0.004088 0.000000 0.000000 0.000000
# 2 -0.000906 0.006029 -0.000846 0.000000 0.000000 0.000000
# 3 -0.004088 -0.000846 0.008522 0.000000 0.000000 0.000000
# 4 0.000000 0.000000 0.000000 0.059982 0.000000 0.000000
# 5 0.000000 0.000000 0.000000 0.000000 0.044830 0.000000
# 6 0.000000 0.000000 0.000000 0.000000 0.000000 -0.023605
#
#
# Mechanical properties :
#
#
# Convention : Reuss Voigt Hill
#
# Bulk Modulus (GPa) = 44.57990 54.66507 49.62249
# Shear Modulus (GPa) = 37.18130 19.15726 28.16928
#
# Velocity S-wave (km/s) = 4.02387 2.88834 3.50243
# Velocity P-wave (km/s) = 6.40329 5.91004 6.16161
#
# Compressibility (1/GPa) = 0.02243163
#
# Stress axis : x y z
#
# Youngs Moduli (GPa) = 51.12242 165.87540 117.34579
#
# Poissons Ratio (x) = 0.15024 0.47969
# Poissons Ratio (y) = 0.04630 0.09931
# Poissons Ratio (z) = 0.20898 0.14037
#
# Static dielectric constant tensor:
#      x y z
#    x 1.982730 0.000000 0.000000 
#    y 0.000000 1.955470 0.000000 
#    z 0.000000 0.000000 1.895800 
# 
# From -- ./inp_files/26545.got.cif
#   From: 2010.05.17/outbox.cif.g08.bks.cpg/sg66_14_cif.got.tgz:26545.got - 2010.06.03 17:51:23.
