data_PCOD9497739
_publ_section_title
;
Structure prediction by ZEFSAII (Michael W. Deem and Ramdas Pophale) SiO2 
 PCOD9497739
Probable space group: C C C M
;
_chemical_formula_sum "Si O2"
_cell_formula_units_Z 112
_cell_length_a 21.499700
_cell_length_b 14.014398
_cell_length_c 20.755354
_cell_angle_alpha 90.000000
_cell_angle_beta 90.000000
_cell_angle_gamma 90.000000
_cell_volume 6253.699257
_symmetry_space_group_name_H-M "C C C M"
_symmetry_group_IT_number 66
_symmetry_cell_setting 'orthorhombic'
loop_
_space_group_symop_operation_xyz
x,y,z
-x,-y,z
x,-y,1/2-z
-x,y,1/2-z
-x,-y,-z
x,y,-z
-x,y,1/2+z
x,-y,1/2+z
1/2+x,1/2+y,z
1/2-x,1/2-y,z
1/2+x,1/2-y,1/2-z
1/2-x,1/2+y,1/2-z
1/2-x,1/2-y,-z
1/2+x,1/2+y,-z
1/2-x,1/2+y,1/2+z
1/2+x,1/2-y,1/2+z
loop_
_atom_site_type_symbol
_atom_site_label
_atom_site_fract_x
_atom_site_fract_y
_atom_site_fract_z
Si Si1 0.946730 0.424386 0.350308
Si Si2 0.642753 0.942121 0.428684
Si Si3 0.104674 0.299261 0.734010
Si Si4 0.364678 0.413668 0.295475
Si Si5 0.554852 0.422225 0.926137
Si Si6 0.960876 0.704916 0.599265
Si Si7 0.730454 0.858474 0.334058
O O1 0.891659 0.485561 0.381025
O O2 0.921552 0.356355 0.294339
O O3 0.000000 0.500000 0.328917
O O4 0.978837 0.360808 0.406062
O O5 0.648507 0.981334 0.500000
O O6 0.598551 0.848062 0.430727
O O7 0.707343 0.911209 0.397708
O O8 0.117489 0.186233 0.739181
O O9 0.055892 0.300536 0.675244
O O10 0.169324 0.348312 0.711013
O O11 0.383845 0.500000 0.250000
O O12 0.396518 0.424054 0.366247
O O13 0.290269 0.408923 0.304377
O O14 0.500000 0.500000 0.915817
O O15 0.530680 0.312728 0.922651
O O16 0.578751 0.437080 0.000000
O O17 0.750000 0.750000 0.349343
#
# Coordination Sequence:
#
# PCOD9497739 Si02
#       7
#    16  16  16  16  16  16  16
#     4  10  21  33  54  84 117 152 182 226 287 346
#     4  10  21  34  53  83 113 148 189 230 282 341
#     4   9  19  35  53  81 113 141 186 235 285 340
#     4  10  22  37  59  85 109 147 195 242 286 328
#     4  10  22  39  58  82 113 151 189 232 286 340
#     4   9  19  33  54  80 111 147 186 229 281 338
#     4   9  20  36  54  80 108 140 184 237 290 335
#
# _framework density 17.909400000000002
#
# number of rings (size 3 to 8) (size 9 to 14) (size 15 to 20)
#    0.000    2.429    0.000    1.714    4.000   11.714 
#    0.000    0.000    0.000    0.000    0.000    1.000 
#    0.000    0.000    0.000    0.000    0.000    0.000 
#
# Total GULP energy -312119.380176 kJ/mol
# GULP energy per Si atom -5573.560360 kJ/mol
# Density = 1.786864 g / cm^3
# Si number density = 17.909400 Si / 1000 Ang^3
#
#
#
# Elastic Constant Matrix: (Units=GPa)
#
#
# Indices 1 2 3 4 5 6 
#
# 1 67.5975 32.7820 30.1502 0.0000 0.0000 0.0000
# 2 32.7820 95.7611 47.5594 0.0000 0.0000 0.0000
# 3 30.1502 47.5594 100.8835 0.0000 0.0000 0.0000
# 4 0.0000 0.0000 0.0000 3.6811 0.0000 0.0000
# 5 0.0000 0.0000 0.0000 0.0000 -25.1743 0.0000
# 6 0.0000 0.0000 0.0000 0.0000 0.0000 22.2814
#
#
#
# Elastic Compliance Matrix: (Units=1/GPa)
#
#
# Indices 1 2 3 4 5 6 
#
# 1 0.018558 -0.004698 -0.003331 0.000000 0.000000 0.000000
# 2 -0.004698 0.014825 -0.005585 0.000000 0.000000 0.000000
# 3 -0.003331 -0.005585 0.013541 0.000000 0.000000 0.000000
# 4 0.000000 0.000000 0.000000 0.271661 0.000000 0.000000
# 5 0.000000 0.000000 0.000000 0.000000 -0.039723 0.000000
# 6 0.000000 0.000000 0.000000 0.000000 0.000000 0.044880
#
#
# Mechanical properties :
#
#
# Convention : Reuss Voigt Hill
#
# Bulk Modulus (GPa) = 50.77521 53.91391 52.34456
# Shear Modulus (GPa) = 13.98462 10.40766 12.19614
#
# Velocity S-wave (km/s) = 2.79741 2.41328 2.61241
# Velocity P-wave (km/s) = 6.23271 6.15908 6.19600
#
# Compressibility (1/GPa) = 0.01969465
#
# Stress axis : x y z
#
# Youngs Moduli (GPa) = 53.88566 67.45527 73.85124
#
# Poissons Ratio (x) = 0.31694 0.24602
# Poissons Ratio (y) = 0.25318 0.41243
# Poissons Ratio (z) = 0.17951 0.37671
#
# Static dielectric constant tensor:
#      x y z
#    x 1.614960 0.000000 0.000000 
#    y 0.000000 1.636340 0.000000 
#    z 0.000000 0.000000 1.634640 
# 
# From -- ./inp_files/52588.got.cif
#   From: 2010.05.17/outbox.cif.g08.bks.cpg/sg66_27_cif.got.tgz:52588.got - 2010.06.03 17:51:23.
