data_PCOD9497747
_publ_section_title
;
Structure prediction by ZEFSAII (Michael W. Deem and Ramdas Pophale) SiO2 
 PCOD9497747
Probable space group: C C C M
;
_chemical_formula_sum "Si O2"
_cell_formula_units_Z 80
_cell_length_a 12.143846
_cell_length_b 23.705597
_cell_length_c 13.427918
_cell_angle_alpha 90.000000
_cell_angle_beta 90.000000
_cell_angle_gamma 90.000000
_cell_volume 3865.590352
_symmetry_space_group_name_H-M "C C C M"
_symmetry_group_IT_number 66
_symmetry_cell_setting 'orthorhombic'
loop_
_space_group_symop_operation_xyz
x,y,z
-x,-y,z
x,-y,1/2-z
-x,y,1/2-z
-x,-y,-z
x,y,-z
-x,y,1/2+z
x,-y,1/2+z
1/2+x,1/2+y,z
1/2-x,1/2-y,z
1/2+x,1/2-y,1/2-z
1/2-x,1/2+y,1/2-z
1/2-x,1/2-y,-z
1/2+x,1/2+y,-z
1/2-x,1/2+y,1/2+z
1/2+x,1/2-y,1/2+z
loop_
_atom_site_type_symbol
_atom_site_label
_atom_site_fract_x
_atom_site_fract_y
_atom_site_fract_z
Si Si1 0.576023 0.232173 0.615950
Si Si2 0.687141 0.598427 0.379409
Si Si3 0.442348 0.638601 0.620794
Si Si4 0.833127 0.300682 0.185286
Si Si5 0.626942 0.520705 0.118492
O O1 0.605892 0.225790 0.500000
O O2 0.586692 0.297825 0.648156
O O3 0.647493 0.198739 0.695856
O O4 0.449658 0.213588 0.633626
O O5 0.685136 0.597060 0.500000
O O6 0.568343 0.624806 0.350118
O O7 0.782183 0.640412 0.347366
O O8 0.695198 0.533242 0.345231
O O9 0.440682 0.638386 0.500000
O O10 0.368343 0.585362 0.653798
O O11 0.750000 0.250000 0.159262
O O12 0.500000 0.500000 0.132312
O O13 0.645313 0.523842 0.000000
#
# Coordination Sequence:
#
# PCOD9497747 Si02
#       5
#    16  16  16  16  16
#     4  10  21  34  49  73 108 151 194 242 293 343
#     4   9  15  25  46  75 107 142 182 229 281 341
#     4   8  13  25  46  71 102 139 177 222 285 347
#     4  11  21  32  49  74 107 151 200 240 282 351
#     4   7  11  20  39  71 103 132 170 217 273 339
#
# _framework density 20.695416000000002
#
# number of rings (size 3 to 8) (size 9 to 14) (size 15 to 20)
#    0.000    3.000    2.000    3.000    0.000    1.200 
#    0.000    0.000    0.000    1.200    0.000    0.000 
#    0.000   28.000    0.000   48.000    0.000    0.000 
#
# Total GULP energy -223437.367036 kJ/mol
# GULP energy per Si atom -5585.934176 kJ/mol
# Density = 2.064831 g / cm^3
# Si number density = 20.695416 Si / 1000 Ang^3
#
#
#
# Elastic Constant Matrix: (Units=GPa)
#
#
# Indices 1 2 3 4 5 6 
#
# 1 57.7360 45.3115 0.1841 0.0000 0.0000 0.0000
# 2 45.3115 149.7050 32.5674 0.0000 0.0000 0.0000
# 3 0.1841 32.5674 96.1394 0.0000 0.0000 0.0000
# 4 0.0000 0.0000 0.0000 31.4441 0.0000 0.0000
# 5 0.0000 0.0000 0.0000 0.0000 15.5685 0.0000
# 6 0.0000 0.0000 0.0000 0.0000 0.0000 33.8540
#
#
#
# Elastic Compliance Matrix: (Units=1/GPa)
#
#
# Indices 1 2 3 4 5 6 
#
# 1 0.023272 -0.007594 0.002528 0.000000 0.000000 0.000000
# 2 -0.007594 0.009689 -0.003268 0.000000 0.000000 0.000000
# 3 0.002528 -0.003268 0.011504 0.000000 0.000000 0.000000
# 4 0.000000 0.000000 0.000000 0.031802 0.000000 0.000000
# 5 0.000000 0.000000 0.000000 0.000000 0.064232 0.000000
# 6 0.000000 0.000000 0.000000 0.000000 0.000000 0.029539
#
#
# Mechanical properties :
#
#
# Convention : Reuss Voigt Hill
#
# Bulk Modulus (GPa) = 35.97458 51.07852 43.52655
# Shear Modulus (GPa) = 25.51406 31.20780 28.36093
#
# Velocity S-wave (km/s) = 3.51499 3.88746 3.70590
# Velocity P-wave (km/s) = 5.82186 6.69958 6.27609
#
# Compressibility (1/GPa) = 0.02779741
#
# Stress axis : x y z
#
# Youngs Moduli (GPa) = 42.97077 103.20958 86.92903
#
# Poissons Ratio (x) = 0.78373 -0.21974
# Poissons Ratio (y) = 0.32630 0.28405
# Poissons Ratio (z) = -0.10862 0.33725
#
# Static dielectric constant tensor:
#      x y z
#    x 1.697720 0.000000 0.000000 
#    y 0.000000 1.741780 0.000000 
#    z 0.000000 0.000000 1.838410 
# 
# From -- ./inp_files/26408.got.cif
#   From: 2010.05.17/outbox.cif.g08.bks.cpg/sg66_14_cif.got.tgz:26408.got - 2010.06.03 17:51:23.
