data_PCOD9497119
_publ_section_title
;
Structure prediction by ZEFSAII (Michael W. Deem and Ramdas Pophale) SiO2 
 PCOD9497119
Probable space group: C C C M
;
_chemical_formula_sum "Si O2"
_cell_formula_units_Z 72
_cell_length_a 5.614795
_cell_length_b 23.358111
_cell_length_c 25.822213
_cell_angle_alpha 90.000000
_cell_angle_beta 90.000000
_cell_angle_gamma 90.000000
_cell_volume 3386.609182
_symmetry_space_group_name_H-M "C C C M"
_symmetry_group_IT_number 66
_symmetry_cell_setting 'orthorhombic'
loop_
_space_group_symop_operation_xyz
x,y,z
-x,-y,z
x,-y,1/2-z
-x,y,1/2-z
-x,-y,-z
x,y,-z
-x,y,1/2+z
x,-y,1/2+z
1/2+x,1/2+y,z
1/2-x,1/2-y,z
1/2+x,1/2-y,1/2-z
1/2-x,1/2+y,1/2-z
1/2-x,1/2-y,-z
1/2+x,1/2+y,-z
1/2-x,1/2+y,1/2+z
1/2+x,1/2-y,1/2+z
loop_
_atom_site_type_symbol
_atom_site_label
_atom_site_fract_x
_atom_site_fract_y
_atom_site_fract_z
Si Si1 0.203926 0.887897 0.387479
Si Si2 0.199942 0.811469 0.843059
Si Si3 0.104821 0.425161 0.694314
Si Si4 0.000000 0.000000 0.140406
Si Si5 0.949197 0.699861 0.943066
O O1 0.402975 0.912011 0.348343
O O2 0.047711 0.944209 0.394360
O O3 0.314507 0.860532 0.438052
O O4 0.056473 0.834898 0.362151
O O5 0.250000 0.750000 0.817569
O O6 0.268704 0.863187 0.805248
O O7 0.365256 0.804837 0.895240
O O8 0.286799 0.474650 0.676181
O O9 0.000000 0.436886 0.750000
O O10 0.750000 0.750000 0.937788
O O11 0.058898 0.705582 0.000000
#
# Coordination Sequence:
#
# PCOD9497119 Si02
#       5
#    16  16  16   8  16
#     4  10  21  38  60  86 123 155 201 254 312 362
#     4  10  20  37  57  88 128 163 197 250 312 378
#     4  10  23  40  60  93 117 160 207 258 307 371
#     4  10  22  39  63  84 116 158 205 252 308 373
#     4  10  20  35  60  89 120 160 208 256 305 370
#
# _framework density 21.260203000000001
#
# number of rings (size 3 to 8) (size 9 to 14) (size 15 to 20)
#    0.000    2.000    2.222    0.667    0.000    7.556 
#    4.000    0.556    0.000   17.333    0.000    0.000 
#    0.000    0.000    0.000    0.000    0.000    0.000 
#
# Total GULP energy -200421.431184 kJ/mol
# GULP energy per Si atom -5567.261977 kJ/mol
# Density = 2.121181 g / cm^3
# Si number density = 21.260203 Si / 1000 Ang^3
#
#
#
# Elastic Constant Matrix: (Units=GPa)
#
#
# Indices 1 2 3 4 5 6 
#
# 1 80.1559 34.1425 31.5874 0.0000 0.0000 0.0000
# 2 34.1425 173.9345 39.9870 0.0000 0.0000 0.0000
# 3 31.5874 39.9870 78.9310 0.0000 0.0000 0.0000
# 4 0.0000 0.0000 0.0000 -3.6484 0.0000 0.0000
# 5 0.0000 0.0000 0.0000 0.0000 13.0447 0.0000
# 6 0.0000 0.0000 0.0000 0.0000 0.0000 55.1005
#
#
#
# Elastic Compliance Matrix: (Units=1/GPa)
#
#
# Indices 1 2 3 4 5 6 
#
# 1 0.015297 -0.001806 -0.005207 0.000000 0.000000 0.000000
# 2 -0.001806 0.006720 -0.002682 0.000000 0.000000 0.000000
# 3 -0.005207 -0.002682 0.016112 0.000000 0.000000 0.000000
# 4 0.000000 0.000000 0.000000 -0.274094 0.000000 0.000000
# 5 0.000000 0.000000 0.000000 0.000000 0.076660 0.000000
# 6 0.000000 0.000000 0.000000 0.000000 0.000000 0.018149
#
#
# Mechanical properties :
#
#
# Convention : Reuss Voigt Hill
#
# Bulk Modulus (GPa) = 53.36221 60.49502 56.92861
# Shear Modulus (GPa) = -43.28190 28.05298 -7.61446
#
# Velocity S-wave (km/s) = -4.51690 3.63644 -1.89455
# Velocity P-wave (km/s) = 1.43147 6.79323 4.69568
#
# Compressibility (1/GPa) = 0.01873985
#
# Stress axis : x y z
#
# Youngs Moduli (GPa) = 65.37367 148.80284 62.06662
#
# Poissons Ratio (x) = 0.26868 0.32317
# Poissons Ratio (y) = 0.11804 0.16646
# Poissons Ratio (z) = 0.34039 0.39908
#
# Static dielectric constant tensor:
#      x y z
#    x 1.950490 0.000000 0.000000 
#    y 0.000000 1.848580 0.000000 
#    z 0.000000 0.000000 1.702480 
# 
# From -- ./inp_files/61454.got.cif
#   From: 2010.05.17/outbox.cif.g08.bks.cpg/sg66_31_cif.got.tgz:61454.got - 2010.06.03 17:51:23.
