data_PCOD9497255
_publ_section_title
;
Structure prediction by ZEFSAII (Michael W. Deem and Ramdas Pophale) SiO2 
 PCOD9497255
Probable space group: C C C M
;
_chemical_formula_sum "Si O2"
_cell_formula_units_Z 72
_cell_length_a 7.205155
_cell_length_b 17.706379
_cell_length_c 24.672607
_cell_angle_alpha 90.000000
_cell_angle_beta 90.000000
_cell_angle_gamma 90.000000
_cell_volume 3147.662246
_symmetry_space_group_name_H-M "C C C M"
_symmetry_group_IT_number 66
_symmetry_cell_setting 'orthorhombic'
loop_
_space_group_symop_operation_xyz
x,y,z
-x,-y,z
x,-y,1/2-z
-x,y,1/2-z
-x,-y,-z
x,y,-z
-x,y,1/2+z
x,-y,1/2+z
1/2+x,1/2+y,z
1/2-x,1/2-y,z
1/2+x,1/2-y,1/2-z
1/2-x,1/2+y,1/2-z
1/2-x,1/2-y,-z
1/2+x,1/2+y,-z
1/2-x,1/2+y,1/2+z
1/2+x,1/2-y,1/2+z
loop_
_atom_site_type_symbol
_atom_site_label
_atom_site_fract_x
_atom_site_fract_y
_atom_site_fract_z
Si Si1 0.378605 0.924459 0.060790
Si Si2 0.206802 0.931603 0.176743
Si Si3 0.231933 0.099197 0.794555
Si Si4 0.750000 0.750000 0.145729
Si Si5 0.970042 0.740599 0.558852
O O1 0.251940 0.914515 0.114253
O O2 0.504616 0.849396 0.060466
O O3 0.500000 0.000000 0.065134
O O4 0.287848 0.925434 0.000000
O O5 0.283033 0.892218 0.231089
O O6 0.988916 0.914122 0.190233
O O7 0.288206 0.016692 0.184460
O O8 0.301551 0.175483 0.821522
O O9 0.582145 0.724910 0.107344
O O10 0.025928 0.770612 0.500000
O O11 0.750000 0.750000 0.563836
#
# Coordination Sequence:
#
# PCOD9497255 Si02
#       5
#    16  16  16   8  16
#     4  10  20  36  60  88 118 158 210 258 304 374
#     4   9  18  41  59  81 122 168 195 253 317 384
#     4   9  20  36  62  85 119 162 208 248 319 366
#     4  12  21  38  60  98 117 150 216 274 284 368
#     4  10  22  39  59  86 127 168 196 247 324 372
#
# _framework density 22.874120999999999
#
# number of rings (size 3 to 8) (size 9 to 14) (size 15 to 20)
#    0.000    2.222    0.000    4.333    0.000    0.000 
#   10.000   11.111    0.000    0.000    0.000    0.000 
#    0.000    0.000    0.000    0.000    0.000    0.000 
#
# Total GULP energy -200403.097268 kJ/mol
# GULP energy per Si atom -5566.752702 kJ/mol
# Density = 2.282206 g / cm^3
# Si number density = 22.874121 Si / 1000 Ang^3
#
#
#
# Elastic Constant Matrix: (Units=GPa)
#
#
# Indices 1 2 3 4 5 6 
#
# 1 61.2108 5.4760 48.2522 0.0000 0.0000 0.0000
# 2 5.4760 76.0032 39.6140 0.0000 0.0000 0.0000
# 3 48.2522 39.6140 252.1492 0.0000 0.0000 0.0000
# 4 0.0000 0.0000 0.0000 82.2196 0.0000 0.0000
# 5 0.0000 0.0000 0.0000 0.0000 32.0450 0.0000
# 6 0.0000 0.0000 0.0000 0.0000 0.0000 17.1937
#
#
#
# Elastic Compliance Matrix: (Units=1/GPa)
#
#
# Indices 1 2 3 4 5 6 
#
# 1 0.019263 0.000581 -0.003777 0.000000 0.000000 0.000000
# 2 0.000581 0.014348 -0.002365 0.000000 0.000000 0.000000
# 3 -0.003777 -0.002365 0.005060 0.000000 0.000000 0.000000
# 4 0.000000 0.000000 0.000000 0.012163 0.000000 0.000000
# 5 0.000000 0.000000 0.000000 0.000000 0.031206 0.000000
# 6 0.000000 0.000000 0.000000 0.000000 0.000000 0.058161
#
#
# Mechanical properties :
#
#
# Convention : Reuss Voigt Hill
#
# Bulk Modulus (GPa) = 36.30052 64.00527 50.15290
# Shear Modulus (GPa) = 31.15120 46.02638 38.58879
#
# Velocity S-wave (km/s) = 3.69433 4.49058 4.11177
# Velocity P-wave (km/s) = 5.83966 7.41143 6.67199
#
# Compressibility (1/GPa) = 0.02754781
#
# Stress axis : x y z
#
# Youngs Moduli (GPa) = 51.91360 69.69441 197.61312
#
# Poissons Ratio (x) = -0.04049 0.74648
# Poissons Ratio (y) = -0.03016 0.46743
# Poissons Ratio (z) = 0.19610 0.16485
#
# Static dielectric constant tensor:
#      x y z
#    x 1.942420 0.000000 0.000000 
#    y 0.000000 1.836610 0.000000 
#    z 0.000000 0.000000 1.893500 
# 
# From -- ./inp_files/55231.got.cif
#   From: 2010.05.17/outbox.cif.g08.bks.cpg/sg66_28_cif.got.tgz:55231.got - 2010.06.03 17:51:23.
