data_PCOD9497866
_publ_section_title
;
Structure prediction by ZEFSAII (Michael W. Deem and Ramdas Pophale) SiO2 
 PCOD9497866
Probable space group: C C C M
;
_chemical_formula_sum "Si O2"
_cell_formula_units_Z 116
_cell_length_a 26.629481
_cell_length_b 25.036913
_cell_length_c 9.240518
_cell_angle_alpha 90.000000
_cell_angle_beta 90.000000
_cell_angle_gamma 90.000000
_cell_volume 6160.838152
_symmetry_space_group_name_H-M "C C C M"
_symmetry_group_IT_number 66
_symmetry_cell_setting 'orthorhombic'
loop_
_space_group_symop_operation_xyz
x,y,z
-x,-y,z
x,-y,1/2-z
-x,y,1/2-z
-x,-y,-z
x,y,-z
-x,y,1/2+z
x,-y,1/2+z
1/2+x,1/2+y,z
1/2-x,1/2-y,z
1/2+x,1/2-y,1/2-z
1/2-x,1/2+y,1/2-z
1/2-x,1/2-y,-z
1/2+x,1/2+y,-z
1/2-x,1/2+y,1/2+z
1/2+x,1/2-y,1/2+z
loop_
_atom_site_type_symbol
_atom_site_label
_atom_site_fract_x
_atom_site_fract_y
_atom_site_fract_z
Si Si1 0.689993 0.756364 0.167779
Si Si2 0.451594 0.806567 0.831686
Si Si3 0.500000 0.500000 0.250000
Si Si4 0.411573 0.700806 0.327740
Si Si5 0.075716 0.904901 0.831470
Si Si6 0.324914 0.443122 0.827479
Si Si7 0.285847 0.943438 0.329754
Si Si8 0.347407 0.141716 0.334441
O O1 0.750000 0.750000 0.180276
O O2 0.649671 0.707951 0.192616
O O3 0.675302 0.802817 0.277454
O O4 0.680393 0.772795 0.000000
O O5 0.500000 0.827570 0.750000
O O6 0.434221 0.753623 0.745602
O O7 0.406712 0.848921 0.826928
O O8 0.461207 0.793331 0.000000
O O9 0.461594 0.543600 0.178750
O O10 0.420300 0.698815 0.500000
O O11 0.437320 0.649621 0.252848
O O12 0.127980 0.918249 0.752546
O O13 0.082752 0.893286 0.000000
O O14 0.319994 0.500000 0.750000
O O15 0.269843 0.417666 0.808380
O O16 0.334688 0.447552 0.000000
O O17 0.291502 0.951976 0.500000
O O18 0.327071 0.904591 0.266142
O O19 0.287957 0.000000 0.250000
O O20 0.332503 0.131651 0.500000
#
# Coordination Sequence:
#
# PCOD9497866 Si02
#       8
#    16  16   4  16  16  16  16  16
#     4   9  19  36  57  84 119 159 196 236 293 361
#     4  10  21  39  62  88 119 154 198 245 294 352
#     4  12  30  48  64  82 114 160 210 264 326 376
#     4  10  22  39  60  86 118 154 196 246 302 363
#     4  12  26  43  63  84 112 150 199 254 313 371
#     4  10  21  38  59  83 112 147 192 239 290 351
#     4  10  21  37  60  89 123 161 199 241 289 351
#     4  10  21  36  57  88 122 156 196 243 294 354
#
# _framework density 18.828607000000002
#
# number of rings (size 3 to 8) (size 9 to 14) (size 15 to 20)
#    0.000    1.793    0.690    2.690    2.897    5.793 
#    0.000    0.000    0.000    0.414    0.000    2.897 
#    0.000    0.000    0.000    0.000    0.000    0.000 
#
# Total GULP energy -323348.144886 kJ/mol
# GULP energy per Si atom -5574.968015 kJ/mol
# Density = 1.878575 g / cm^3
# Si number density = 18.828607 Si / 1000 Ang^3
#
#
#
# Elastic Constant Matrix: (Units=GPa)
#
#
# Indices 1 2 3 4 5 6 
#
# 1 84.7362 28.8877 66.8263 0.0000 0.0000 0.0000
# 2 28.8877 63.8208 42.3409 0.0000 0.0000 0.0000
# 3 66.8263 42.3409 141.9834 0.0000 0.0000 0.0000
# 4 0.0000 0.0000 0.0000 29.5858 0.0000 0.0000
# 5 0.0000 0.0000 0.0000 0.0000 17.0645 0.0000
# 6 0.0000 0.0000 0.0000 0.0000 0.0000 11.8135
#
#
#
# Elastic Compliance Matrix: (Units=1/GPa)
#
#
# Indices 1 2 3 4 5 6 
#
# 1 0.019337 -0.003384 -0.008092 0.000000 0.000000 0.000000
# 2 -0.003384 0.020126 -0.004409 0.000000 0.000000 0.000000
# 3 -0.008092 -0.004409 0.012166 0.000000 0.000000 0.000000
# 4 0.000000 0.000000 0.000000 0.033800 0.000000 0.000000
# 5 0.000000 0.000000 0.000000 0.000000 0.058601 0.000000
# 6 0.000000 0.000000 0.000000 0.000000 0.000000 0.084649
#
#
# Mechanical properties :
#
#
# Convention : Reuss Voigt Hill
#
# Bulk Modulus (GPa) = 50.35509 62.96114 56.65811
# Shear Modulus (GPa) = 18.72183 21.85846 20.29014
#
# Velocity S-wave (km/s) = 3.15672 3.41092 3.28628
# Velocity P-wave (km/s) = 6.33155 7.00173 6.67505
#
# Compressibility (1/GPa) = 0.01985896
#
# Stress axis : x y z
#
# Youngs Moduli (GPa) = 51.71557 49.68781 82.19364
#
# Poissons Ratio (x) = 0.16815 0.66510
# Poissons Ratio (y) = 0.17501 0.36239
# Poissons Ratio (z) = 0.41847 0.21907
#
# Static dielectric constant tensor:
#      x y z
#    x 1.715410 0.000000 0.000000 
#    y 0.000000 1.645360 0.000000 
#    z 0.000000 0.000000 1.625610 
# 
# From -- ./inp_files/10582.got.cif
#   From: 2010.05.17/outbox.cif.g08.bks.cpg/sg66_6_cif.got.tgz:10582.got - 2010.06.03 17:51:23.
