data_PCOD9497333
_publ_section_title
;
Structure prediction by ZEFSAII (Michael W. Deem and Ramdas Pophale) SiO2 
 PCOD9497333
Probable space group: C C C M
;
_chemical_formula_sum "Si O2"
_cell_formula_units_Z 64
_cell_length_a 11.650801
_cell_length_b 9.598554
_cell_length_c 23.480066
_cell_angle_alpha 90.000000
_cell_angle_beta 90.000000
_cell_angle_gamma 90.000000
_cell_volume 2625.795564
_symmetry_space_group_name_H-M "C C C M"
_symmetry_group_IT_number 66
_symmetry_cell_setting 'orthorhombic'
loop_
_space_group_symop_operation_xyz
x,y,z
-x,-y,z
x,-y,1/2-z
-x,y,1/2-z
-x,-y,-z
x,y,-z
-x,y,1/2+z
x,-y,1/2+z
1/2+x,1/2+y,z
1/2-x,1/2-y,z
1/2+x,1/2-y,1/2-z
1/2-x,1/2+y,1/2-z
1/2-x,1/2-y,-z
1/2+x,1/2+y,-z
1/2-x,1/2+y,1/2+z
1/2+x,1/2-y,1/2+z
loop_
_atom_site_type_symbol
_atom_site_label
_atom_site_fract_x
_atom_site_fract_y
_atom_site_fract_z
Si Si1 0.603584 0.805908 0.114928
Si Si2 0.302334 0.452951 0.064602
Si Si3 0.114580 0.764702 0.067047
Si Si4 0.636035 0.665620 0.236564
O O1 0.634501 0.694542 0.065757
O O2 0.690174 0.931849 0.103552
O O3 0.469283 0.825238 0.105968
O O4 0.632362 0.719983 0.171426
O O5 0.390660 0.571870 0.082595
O O6 0.266078 0.486151 0.000000
O O7 0.250000 0.750000 0.076019
O O8 0.091046 0.741160 0.000000
O O9 0.653019 0.500000 0.250000
O O10 0.500000 0.695217 0.250000
O O11 0.750000 0.750000 0.260853
#
# Coordination Sequence:
#
# PCOD9497333 Si02
#       4
#    16  16  16  16
#     4  11  21  40  65  89 127 171 221 273 337 405
#     4  10  20  36  66  97 129 170 214 262 329 416
#     4  10  22  37  59  99 141 174 213 265 336 419
#     4  11  27  49  74 102 137 184 245 308 366 423
#
# _framework density 24.373567000000001
#
# number of rings (size 3 to 8) (size 9 to 14) (size 15 to 20)
#    0.000    1.500    2.500    3.750    7.000    4.500 
#    0.000    6.250    0.000    0.000    0.000    0.000 
#    0.000    0.000    0.000    0.000    0.000    0.000 
#
# Total GULP energy -178219.707445 kJ/mol
# GULP energy per Si atom -5569.365858 kJ/mol
# Density = 2.431809 g / cm^3
# Si number density = 24.373567 Si / 1000 Ang^3
#
#
#
# Elastic Constant Matrix: (Units=GPa)
#
#
# Indices 1 2 3 4 5 6 
#
# 1 222.8673 55.6882 41.6194 0.0000 0.0000 0.0000
# 2 55.6882 71.8684 16.3192 0.0000 0.0000 0.0000
# 3 41.6194 16.3192 79.9888 0.0000 0.0000 0.0000
# 4 0.0000 0.0000 0.0000 -17.6847 0.0000 0.0000
# 5 0.0000 0.0000 0.0000 0.0000 48.4535 0.0000
# 6 0.0000 0.0000 0.0000 0.0000 0.0000 50.9365
#
#
#
# Elastic Compliance Matrix: (Units=1/GPa)
#
#
# Indices 1 2 3 4 5 6 
#
# 1 0.005927 -0.004082 -0.002251 0.000000 0.000000 0.000000
# 2 -0.004082 0.017401 -0.001426 0.000000 0.000000 0.000000
# 3 -0.002251 -0.001426 0.013964 0.000000 0.000000 0.000000
# 4 0.000000 0.000000 0.000000 -0.056546 0.000000 0.000000
# 5 0.000000 0.000000 0.000000 0.000000 0.020638 0.000000
# 6 0.000000 0.000000 0.000000 0.000000 0.000000 0.019632
#
#
# Mechanical properties :
#
#
# Convention : Reuss Voigt Hill
#
# Bulk Modulus (GPa) = 45.92698 66.88645 56.40672
# Shear Modulus (GPa) = 114.17207 33.74756 73.95982
#
# Velocity S-wave (km/s) = 6.85159 3.72505 5.51454
# Velocity P-wave (km/s) = 9.02642 6.78256 7.98371
#
# Compressibility (1/GPa) = 0.02177369
#
# Stress axis : x y z
#
# Youngs Moduli (GPa) = 168.71145 57.46826 71.61187
#
# Poissons Ratio (x) = 0.23456 0.16122
# Poissons Ratio (y) = 0.68862 0.10215
# Poissons Ratio (z) = 0.37983 0.08197
#
# Static dielectric constant tensor:
#      x y z
#    x 2.193960 0.000000 0.000000 
#    y 0.000000 2.166500 0.000000 
#    z 0.000000 0.000000 1.969290 
# 
# From -- ./inp_files/56308.got.cif
#   From: 2010.05.17/outbox.cif.g08.bks.cpg/sg66_29_cif.got.tgz:56308.got - 2010.06.03 17:51:23.
