data_PCOD9497777
_publ_section_title
;
Structure prediction by ZEFSAII (Michael W. Deem and Ramdas Pophale) SiO2 
 PCOD9497777
Probable space group: C C C M
;
_chemical_formula_sum "Si O2"
_cell_formula_units_Z 88
_cell_length_a 23.062974
_cell_length_b 11.814124
_cell_length_c 19.043531
_cell_angle_alpha 90.000000
_cell_angle_beta 90.000000
_cell_angle_gamma 90.000000
_cell_volume 5188.768699
_symmetry_space_group_name_H-M "C C C M"
_symmetry_group_IT_number 66
_symmetry_cell_setting 'orthorhombic'
loop_
_space_group_symop_operation_xyz
x,y,z
-x,-y,z
x,-y,1/2-z
-x,y,1/2-z
-x,-y,-z
x,y,-z
-x,y,1/2+z
x,-y,1/2+z
1/2+x,1/2+y,z
1/2-x,1/2-y,z
1/2+x,1/2-y,1/2-z
1/2-x,1/2+y,1/2-z
1/2-x,1/2-y,-z
1/2+x,1/2+y,-z
1/2-x,1/2+y,1/2+z
1/2+x,1/2-y,1/2+z
loop_
_atom_site_type_symbol
_atom_site_label
_atom_site_fract_x
_atom_site_fract_y
_atom_site_fract_z
Si Si1 0.064012 0.189715 0.743080
Si Si2 0.159921 0.376761 0.724585
Si Si3 0.812015 0.922279 0.920173
Si Si4 0.250000 0.750000 0.681954
Si Si5 0.434808 0.503970 0.367683
Si Si6 0.279102 0.873648 0.079950
O O1 0.112327 0.284003 0.743204
O O2 0.065850 0.099872 0.806821
O O3 0.000000 0.240994 0.750000
O O4 0.071917 0.114877 0.672908
O O5 0.142153 0.500000 0.750000
O O6 0.216712 0.337569 0.767754
O O7 0.174617 0.380296 0.642120
O O8 0.793672 0.822979 0.866662
O O9 0.878013 0.966147 0.911992
O O10 0.769092 0.028920 0.908079
O O11 0.803362 0.882573 0.000000
O O12 0.500000 0.500000 0.399779
O O13 0.250000 0.750000 0.084059
O O14 0.301486 0.887929 0.000000
#
# Coordination Sequence:
#
# PCOD9497777 Si02
#       6
#    16  16  16   8  16  16
#     4   9  19  35  56  82 111 139 182 243 283 319
#     4  12  22  34  58  83 105 147 189 231 275 338
#     4  11  22  36  54  80 118 154 183 228 286 340
#     4  12  23  36  55  84 114 140 198 234 279 338
#     4   9  18  34  57  82 110 145 184 229 284 328
#     4  10  21  35  51  80 115 144 176 224 279 333
#
# _framework density 16.959707999999999
#
# number of rings (size 3 to 8) (size 9 to 14) (size 15 to 20)
#    0.000    1.636    4.545    2.455    0.000    0.727 
#    0.000    0.000    0.000    1.091    0.000    1.273 
#    0.000    0.000    0.000    0.000    0.000    0.000 
#
# Total GULP energy -245329.646768 kJ/mol
# GULP energy per Si atom -5575.673790 kJ/mol
# Density = 1.692111 g / cm^3
# Si number density = 16.959708 Si / 1000 Ang^3
#
#
#
# Elastic Constant Matrix: (Units=GPa)
#
#
# Indices 1 2 3 4 5 6 
#
# 1 81.6903 25.6431 28.7941 0.0000 0.0000 0.0000
# 2 25.6431 75.5130 23.7283 0.0000 0.0000 0.0000
# 3 28.7941 23.7283 76.6999 0.0000 0.0000 0.0000
# 4 0.0000 0.0000 0.0000 7.4426 0.0000 0.0000
# 5 0.0000 0.0000 0.0000 0.0000 13.0048 0.0000
# 6 0.0000 0.0000 0.0000 0.0000 0.0000 27.6152
#
#
#
# Elastic Compliance Matrix: (Units=1/GPa)
#
#
# Indices 1 2 3 4 5 6 
#
# 1 0.014976 -0.003676 -0.004485 0.000000 0.000000 0.000000
# 2 -0.003676 0.015571 -0.003437 0.000000 0.000000 0.000000
# 3 -0.004485 -0.003437 0.015785 0.000000 0.000000 0.000000
# 4 0.000000 0.000000 0.000000 0.134362 0.000000 0.000000
# 5 0.000000 0.000000 0.000000 0.000000 0.076895 0.000000
# 6 0.000000 0.000000 0.000000 0.000000 0.000000 0.036212
#
#
# Mechanical properties :
#
#
# Convention : Reuss Voigt Hill
#
# Bulk Modulus (GPa) = 43.22349 43.35935 43.29142
# Shear Modulus (GPa) = 15.39836 19.99503 17.69670
#
# Velocity S-wave (km/s) = 3.01647 3.43734 3.23376
# Velocity P-wave (km/s) = 6.13787 6.43237 6.28684
#
# Compressibility (1/GPa) = 0.02313557
#
# Stress axis : x y z
#
# Youngs Moduli (GPa) = 66.77242 64.22102 63.35206
#
# Poissons Ratio (x) = 0.23610 0.28413
# Poissons Ratio (y) = 0.24548 0.21774
# Poissons Ratio (z) = 0.29947 0.22073
#
# Static dielectric constant tensor:
#      x y z
#    x 1.584330 0.000000 0.000000 
#    y 0.000000 1.543200 0.000000 
#    z 0.000000 0.000000 1.580210 
# 
# From -- ./inp_files/42756.got.cif
#   From: 2010.05.17/outbox.cif.g08.bks.cpg/sg66_22_cif.got.tgz:42756.got - 2010.06.03 17:51:23.
