data_PCOD9497755
_publ_section_title
;
Structure prediction by ZEFSAII (Michael W. Deem and Ramdas Pophale) SiO2 
 PCOD9497755
Probable space group: C C C M
;
_chemical_formula_sum "Si O2"
_cell_formula_units_Z 72
_cell_length_a 17.547915
_cell_length_b 21.933667
_cell_length_c 9.712856
_cell_angle_alpha 90.000000
_cell_angle_beta 90.000000
_cell_angle_gamma 90.000000
_cell_volume 3738.382352
_symmetry_space_group_name_H-M "C C C M"
_symmetry_group_IT_number 66
_symmetry_cell_setting 'orthorhombic'
loop_
_space_group_symop_operation_xyz
x,y,z
-x,-y,z
x,-y,1/2-z
-x,y,1/2-z
-x,-y,-z
x,y,-z
-x,y,1/2+z
x,-y,1/2+z
1/2+x,1/2+y,z
1/2-x,1/2-y,z
1/2+x,1/2-y,1/2-z
1/2-x,1/2+y,1/2-z
1/2-x,1/2-y,-z
1/2+x,1/2+y,-z
1/2-x,1/2+y,1/2+z
1/2+x,1/2-y,1/2+z
loop_
_atom_site_type_symbol
_atom_site_label
_atom_site_fract_x
_atom_site_fract_y
_atom_site_fract_z
Si Si1 0.344657 0.199156 0.837625
Si Si2 0.773393 0.875350 0.657906
Si Si3 0.065068 0.424076 0.854699
Si Si4 0.077039 0.193387 0.336370
Si Si5 0.700400 0.000000 0.750000
O O1 0.270913 0.168804 0.764732
O O2 0.405809 0.144554 0.835822
O O3 0.378468 0.252065 0.741923
O O4 0.332484 0.215441 0.000000
O O5 0.750875 0.859674 0.500000
O O6 0.863194 0.862516 0.670040
O O7 0.749539 0.945237 0.686110
O O8 0.140317 0.465388 0.847941
O O9 0.000000 0.438140 0.750000
O O10 0.026511 0.429897 0.000000
O O11 0.062851 0.206508 0.500000
O O12 0.000000 0.182958 0.250000
#
# Coordination Sequence:
#
# PCOD9497755 Si02
#       5
#    16  16  16  16   8
#     4  10  21  37  59  88 120 153 188 229 283 347
#     4  10  22  40  61  85 114 151 194 239 289 344
#     4  10  21  34  52  81 114 148 183 221 270 329
#     4  11  23  39  60  86 116 150 190 239 294 348
#     4  10  21  38  59  78 108 148 194 240 283 336
#
# _framework density 19.259665999999999
#
# number of rings (size 3 to 8) (size 9 to 14) (size 15 to 20)
#    0.000    1.778    0.000    3.667    0.000   13.333 
#    0.000    0.556    0.000    2.667    0.000    0.000 
#    0.000    0.000    0.000    0.000    0.000    0.000 
#
# Total GULP energy -200762.668402 kJ/mol
# GULP energy per Si atom -5576.740789 kJ/mol
# Density = 1.921583 g / cm^3
# Si number density = 19.259666 Si / 1000 Ang^3
#
#
#
# Elastic Constant Matrix: (Units=GPa)
#
#
# Indices 1 2 3 4 5 6 
#
# 1 117.3134 58.0875 77.4460 0.0000 0.0000 0.0000
# 2 58.0875 85.5974 51.1592 0.0000 0.0000 0.0000
# 3 77.4460 51.1592 175.3493 0.0000 0.0000 0.0000
# 4 0.0000 0.0000 0.0000 4.4047 0.0000 0.0000
# 5 0.0000 0.0000 0.0000 0.0000 29.4702 0.0000
# 6 0.0000 0.0000 0.0000 0.0000 0.0000 9.4105
#
#
#
# Elastic Compliance Matrix: (Units=1/GPa)
#
#
# Indices 1 2 3 4 5 6 
#
# 1 0.015318 -0.007693 -0.004521 0.000000 0.000000 0.000000
# 2 -0.007693 0.018013 -0.001858 0.000000 0.000000 0.000000
# 3 -0.004521 -0.001858 0.008242 0.000000 0.000000 0.000000
# 4 0.000000 0.000000 0.000000 0.227032 0.000000 0.000000
# 5 0.000000 0.000000 0.000000 0.000000 0.033933 0.000000
# 6 0.000000 0.000000 0.000000 0.000000 0.000000 0.106265
#
#
# Mechanical properties :
#
#
# Convention : Reuss Voigt Hill
#
# Bulk Modulus (GPa) = 74.46189 83.51618 78.98904
# Shear Modulus (GPa) = 11.32703 21.42821 16.37762
#
# Velocity S-wave (km/s) = 2.42775 3.33918 2.91925
# Velocity P-wave (km/s) = 6.82676 7.63703 7.24323
#
# Compressibility (1/GPa) = 0.01342969
#
# Stress axis : x y z
#
# Youngs Moduli (GPa) = 65.28332 55.51406 121.33419
#
# Poissons Ratio (x) = 0.42706 0.54855
# Poissons Ratio (y) = 0.50221 0.22542
# Poissons Ratio (z) = 0.29514 0.10314
#
# Static dielectric constant tensor:
#      x y z
#    x 1.652950 0.000000 0.000000 
#    y 0.000000 1.691270 0.000000 
#    z 0.000000 0.000000 1.693400 
# 
# From -- ./inp_files/6471.got.cif
#   From: 2010.05.17/outbox.cif.g08.bks.cpg/sg66_4_cif.got.tgz:6471.got - 2010.06.03 17:51:23.
