data_PCOD9497856
_publ_section_title
;
Structure prediction by ZEFSAII (Michael W. Deem and Ramdas Pophale) SiO2 
 PCOD9497856
Probable space group: C C C M
;
_chemical_formula_sum "Si O2"
_cell_formula_units_Z 80
_cell_length_a 11.477664
_cell_length_b 25.399310
_cell_length_c 15.053222
_cell_angle_alpha 90.000000
_cell_angle_beta 90.000000
_cell_angle_gamma 90.000000
_cell_volume 4388.386720
_symmetry_space_group_name_H-M "C C C M"
_symmetry_group_IT_number 66
_symmetry_cell_setting 'orthorhombic'
loop_
_space_group_symop_operation_xyz
x,y,z
-x,-y,z
x,-y,1/2-z
-x,y,1/2-z
-x,-y,-z
x,y,-z
-x,y,1/2+z
x,-y,1/2+z
1/2+x,1/2+y,z
1/2-x,1/2-y,z
1/2+x,1/2-y,1/2-z
1/2-x,1/2+y,1/2-z
1/2-x,1/2-y,-z
1/2+x,1/2+y,-z
1/2-x,1/2+y,1/2+z
1/2+x,1/2-y,1/2+z
loop_
_atom_site_type_symbol
_atom_site_label
_atom_site_fract_x
_atom_site_fract_y
_atom_site_fract_z
Si Si1 0.530275 0.384036 0.853761
Si Si2 0.134174 0.394278 0.273078
Si Si3 0.752730 0.811663 0.395386
Si Si4 0.777744 0.093063 0.402310
Si Si5 0.779227 0.967800 0.602336
O O1 0.500000 0.384674 0.750000
O O2 0.620756 0.337688 0.876599
O O3 0.406146 0.382171 0.900622
O O4 0.600558 0.436986 0.879239
O O5 0.162753 0.344548 0.335716
O O6 0.203778 0.387535 0.180985
O O7 0.187656 0.443401 0.328258
O O8 0.000000 0.401184 0.250000
O O9 0.727637 0.818346 0.500000
O O10 0.750000 0.750000 0.374455
O O11 0.724306 0.101560 0.500000
O O12 0.791930 0.030131 0.388853
O O13 0.744756 0.956451 0.500000
#
# Coordination Sequence:
#
# PCOD9497856 Si02
#       5
#    16  16  16  16  16
#     4  11  19  34  61  88 119 150 186 246 300 348
#     4  11  23  39  57  82 118 159 201 248 288 348
#     4  10  22  42  66  87 110 148 196 246 305 364
#     4  11  22  35  56  88 123 157 192 238 292 343
#     4  10  21  36  56  84 120 161 199 233 284 353
#
# _framework density 18.229934
#
# number of rings (size 3 to 8) (size 9 to 14) (size 15 to 20)
#    0.000    1.400    4.000    4.800    0.000    6.400 
#    0.000    2.000    0.000    0.600    0.000    0.000 
#    0.000    0.000    0.000    0.000    0.000    0.000 
#
# Total GULP energy -223356.062463 kJ/mol
# GULP energy per Si atom -5583.901562 kJ/mol
# Density = 1.818844 g / cm^3
# Si number density = 18.229934 Si / 1000 Ang^3
#
#
#
# Elastic Constant Matrix: (Units=GPa)
#
#
# Indices 1 2 3 4 5 6 
#
# 1 102.0185 -11.1632 30.5881 0.0000 0.0000 0.0000
# 2 -11.1632 35.1361 11.7862 0.0000 0.0000 0.0000
# 3 30.5881 11.7862 130.9238 0.0000 0.0000 0.0000
# 4 0.0000 0.0000 0.0000 52.3600 0.0000 0.0000
# 5 0.0000 0.0000 0.0000 0.0000 2.1555 0.0000
# 6 0.0000 0.0000 0.0000 0.0000 0.0000 5.2457
#
#
#
# Elastic Compliance Matrix: (Units=1/GPa)
#
#
# Indices 1 2 3 4 5 6 
#
# 1 0.011212 0.004579 -0.003032 0.000000 0.000000 0.000000
# 2 0.004579 0.031217 -0.003880 0.000000 0.000000 0.000000
# 3 -0.003032 -0.003880 0.008696 0.000000 0.000000 0.000000
# 4 0.000000 0.000000 0.000000 0.019099 0.000000 0.000000
# 5 0.000000 0.000000 0.000000 0.000000 0.463929 0.000000
# 6 0.000000 0.000000 0.000000 0.000000 0.000000 0.190632
#
#
# Mechanical properties :
#
#
# Convention : Reuss Voigt Hill
#
# Bulk Modulus (GPa) = 21.52397 36.72227 29.12312
# Shear Modulus (GPa) = 6.71198 27.74341 17.22770
#
# Velocity S-wave (km/s) = 1.92090 3.90533 3.07746
# Velocity P-wave (km/s) = 4.09296 6.36578 5.35143
#
# Compressibility (1/GPa) = 0.04645982
#
# Stress axis : x y z
#
# Youngs Moduli (GPa) = 89.18819 32.03360 114.99989
#
# Poissons Ratio (x) = -0.14669 0.34866
# Poissons Ratio (y) = -0.40842 0.44622
# Poissons Ratio (z) = 0.27040 0.12429
#
# Static dielectric constant tensor:
#      x y z
#    x 1.607690 0.000000 0.000000 
#    y 0.000000 1.613730 0.000000 
#    z 0.000000 0.000000 1.811890 
# 
# From -- ./inp_files/26360.got.cif
#   From: 2010.05.17/outbox.cif.g08.bks.cpg/sg66_14_cif.got.tgz:26360.got - 2010.06.03 17:51:23.
