data_PCOD9497789
_publ_section_title
;
Structure prediction by ZEFSAII (Michael W. Deem and Ramdas Pophale) SiO2 
 PCOD9497789
Probable space group: C C C M
;
_chemical_formula_sum "Si O2"
_cell_formula_units_Z 120
_cell_length_a 12.034514
_cell_length_b 19.630544
_cell_length_c 25.454110
_cell_angle_alpha 90.000000
_cell_angle_beta 90.000000
_cell_angle_gamma 90.000000
_cell_volume 6013.382203
_symmetry_space_group_name_H-M "C C C M"
_symmetry_group_IT_number 66
_symmetry_cell_setting 'orthorhombic'
loop_
_space_group_symop_operation_xyz
x,y,z
-x,-y,z
x,-y,1/2-z
-x,y,1/2-z
-x,-y,-z
x,y,-z
-x,y,1/2+z
x,-y,1/2+z
1/2+x,1/2+y,z
1/2-x,1/2-y,z
1/2+x,1/2-y,1/2-z
1/2-x,1/2+y,1/2-z
1/2-x,1/2-y,-z
1/2+x,1/2+y,-z
1/2-x,1/2+y,1/2+z
1/2+x,1/2-y,1/2+z
loop_
_atom_site_type_symbol
_atom_site_label
_atom_site_fract_x
_atom_site_fract_y
_atom_site_fract_z
Si Si1 0.960750 0.150662 0.357801
Si Si2 0.632793 0.995468 0.339635
Si Si3 0.285302 0.146328 0.697985
Si Si4 0.729100 0.537665 0.440845
Si Si5 0.495836 0.782860 0.690986
Si Si6 0.327228 0.684382 0.094631
Si Si7 0.721785 0.856147 0.819613
Si Si8 0.500000 0.500000 0.886226
O O1 0.984882 0.202440 0.310415
O O2 0.826479 0.153384 0.357637
O O3 0.036847 0.184007 0.404635
O O4 0.990151 0.070683 0.354248
O O5 0.676149 0.931604 0.305973
O O6 0.677505 0.982351 0.398610
O O7 0.500000 0.000000 0.336975
O O8 0.686860 0.065222 0.320269
O O9 0.386105 0.190301 0.672379
O O10 0.191985 0.160666 0.655260
O O11 0.256013 0.164067 0.758150
O O12 0.753301 0.515930 0.500000
O O13 0.713337 0.619451 0.438295
O O14 0.611575 0.506917 0.420768
O O15 0.500000 0.810474 0.750000
O O16 0.387657 0.814142 0.664002
O O17 0.250000 0.750000 0.082662
#
# Coordination Sequence:
#
# PCOD9497789 Si02
#       8
#    16  16  16  16  16  16  16   8
#     4  11  22  37  56  82 119 153 204 245 290 348
#     4  11  21  38  61  85 119 155 197 250 301 356
#     4  10  21  35  55  84 117 163 199 235 290 346
#     4  10  22  40  63  90 116 147 197 256 315 372
#     4  10  21  35  54  81 115 162 204 237 280 344
#     4  10  21  37  60  84 118 158 196 246 304 358
#     4  11  22  35  56  87 121 159 205 241 282 350
#     4  10  21  42  63  86 114 156 197 248 315 362
#
# _framework density 19.955490999999999
#
# number of rings (size 3 to 8) (size 9 to 14) (size 15 to 20)
#    0.000    1.600    4.000    1.000    1.867    1.067 
#    0.000    0.333    0.000    0.000    0.000    2.800 
#    0.000    0.000    0.000    0.000    0.000    0.000 
#
# Total GULP energy -334261.242074 kJ/mol
# GULP energy per Si atom -5571.020701 kJ/mol
# Density = 1.991007 g / cm^3
# Si number density = 19.955491 Si / 1000 Ang^3
#
#
#
# Elastic Constant Matrix: (Units=GPa)
#
#
# Indices 1 2 3 4 5 6 
#
# 1 105.3483 31.3892 8.3770 0.0000 0.0000 0.0000
# 2 31.3892 130.4376 10.0368 0.0000 0.0000 0.0000
# 3 8.3770 10.0368 47.8568 0.0000 0.0000 0.0000
# 4 0.0000 0.0000 0.0000 8.5889 0.0000 0.0000
# 5 0.0000 0.0000 0.0000 0.0000 11.9468 0.0000
# 6 0.0000 0.0000 0.0000 0.0000 0.0000 31.2111
#
#
#
# Elastic Compliance Matrix: (Units=1/GPa)
#
#
# Indices 1 2 3 4 5 6 
#
# 1 0.010305 -0.002379 -0.001305 0.000000 0.000000 0.000000
# 2 -0.002379 0.008342 -0.001333 0.000000 0.000000 0.000000
# 3 -0.001305 -0.001333 0.021404 0.000000 0.000000 0.000000
# 4 0.000000 0.000000 0.000000 0.116429 0.000000 0.000000
# 5 0.000000 0.000000 0.000000 0.000000 0.083704 0.000000
# 6 0.000000 0.000000 0.000000 0.000000 0.000000 0.032040
#
#
# Mechanical properties :
#
#
# Convention : Reuss Voigt Hill
#
# Bulk Modulus (GPa) = 33.31565 42.58320 37.94942
# Shear Modulus (GPa) = 17.10787 25.93868 21.52327
#
# Velocity S-wave (km/s) = 2.93115 3.60922 3.28771
# Velocity P-wave (km/s) = 5.30912 6.22528 5.78536
#
# Compressibility (1/GPa) = 0.03001592
#
# Stress axis : x y z
#
# Youngs Moduli (GPa) = 97.03981 119.88000 46.72105
#
# Poissons Ratio (x) = 0.28525 0.06096
# Poissons Ratio (y) = 0.23090 0.06228
# Poissons Ratio (z) = 0.12662 0.15979
#
# Static dielectric constant tensor:
#      x y z
#    x 1.819570 0.000000 0.000000 
#    y 0.000000 1.729060 0.000000 
#    z 0.000000 0.000000 1.677920 
# 
# From -- ./inp_files/63966.got.cif
#   From: 2010.05.17/outbox.cif.g08.bks.cpg/sg66_32_cif.got.tgz:63966.got - 2010.06.03 17:51:23.
