data_PCOD9497599
_publ_section_title
;
Structure prediction by ZEFSAII (Michael W. Deem and Ramdas Pophale) SiO2 
 PCOD9497599
Probable space group: C C C M
;
_chemical_formula_sum "Si O2"
_cell_formula_units_Z 96
_cell_length_a 8.738909
_cell_length_b 21.521692
_cell_length_c 24.711343
_cell_angle_alpha 90.000000
_cell_angle_beta 90.000000
_cell_angle_gamma 90.000000
_cell_volume 4647.613213
_symmetry_space_group_name_H-M "C C C M"
_symmetry_group_IT_number 66
_symmetry_cell_setting 'orthorhombic'
loop_
_space_group_symop_operation_xyz
x,y,z
-x,-y,z
x,-y,1/2-z
-x,y,1/2-z
-x,-y,-z
x,y,-z
-x,y,1/2+z
x,-y,1/2+z
1/2+x,1/2+y,z
1/2-x,1/2-y,z
1/2+x,1/2-y,1/2-z
1/2-x,1/2+y,1/2-z
1/2-x,1/2-y,-z
1/2+x,1/2+y,-z
1/2-x,1/2+y,1/2+z
1/2+x,1/2-y,1/2+z
loop_
_atom_site_type_symbol
_atom_site_label
_atom_site_fract_x
_atom_site_fract_y
_atom_site_fract_z
Si Si1 0.069936 0.315200 0.150007
Si Si2 0.894445 0.210775 0.096375
Si Si3 0.171550 0.598381 0.265861
Si Si4 0.667171 0.470493 0.634830
Si Si5 0.714099 0.097963 0.144914
Si Si6 0.309028 0.350461 0.939036
O O1 0.147342 0.333307 0.207007
O O2 0.191638 0.317849 0.102022
O O3 0.968542 0.253645 0.143840
O O4 0.954089 0.372743 0.140408
O O5 0.750000 0.250000 0.073656
O O6 0.826055 0.146770 0.117650
O O7 0.036466 0.190258 0.060181
O O8 0.259988 0.559491 0.311119
O O9 0.255021 0.597081 0.208639
O O10 0.000000 0.575265 0.250000
O O11 0.500000 0.500000 0.644159
O O12 0.771912 0.529710 0.620797
O O13 0.661061 0.417447 0.589077
O O14 0.249957 0.356628 0.000000
#
# Coordination Sequence:
#
# PCOD9497599 Si02
#       6
#    16  16  16  16  16  16
#     4   9  21  40  62  90 124 161 208 255 302 365
#     4  10  21  41  63  88 124 161 203 259 313 369
#     4   9  20  37  61  91 125 169 204 239 298 365
#     4  11  22  40  63  93 128 162 207 261 305 369
#     4  10  20  39  61  90 130 165 198 247 306 372
#     4  11  24  43  66  89 116 159 210 266 322 370
#
# _framework density 20.655764000000001
#
# number of rings (size 3 to 8) (size 9 to 14) (size 15 to 20)
#    0.000    2.000    1.667    1.000    0.000   11.333 
#    0.000   29.167    0.000    0.000    0.000    0.000 
#    0.000    0.000    0.000    0.000    0.000    0.000 
#
# Total GULP energy -267756.465807 kJ/mol
# GULP energy per Si atom -5578.259704 kJ/mol
# Density = 2.060875 g / cm^3
# Si number density = 20.655764 Si / 1000 Ang^3
#
#
#
# Elastic Constant Matrix: (Units=GPa)
#
#
# Indices 1 2 3 4 5 6 
#
# 1 44.0115 13.4727 13.0552 0.0000 0.0000 0.0000
# 2 13.4727 95.5065 20.2940 0.0000 0.0000 0.0000
# 3 13.0552 20.2940 62.7998 0.0000 0.0000 0.0000
# 4 0.0000 0.0000 0.0000 -29.8302 0.0000 0.0000
# 5 0.0000 0.0000 0.0000 0.0000 -31.9802 0.0000
# 6 0.0000 0.0000 0.0000 0.0000 0.0000 31.6088
#
#
#
# Elastic Compliance Matrix: (Units=1/GPa)
#
#
# Indices 1 2 3 4 5 6 
#
# 1 0.024793 -0.002579 -0.004321 0.000000 0.000000 0.000000
# 2 -0.002579 0.011511 -0.003184 0.000000 0.000000 0.000000
# 3 -0.004321 -0.003184 0.017851 0.000000 0.000000 0.000000
# 4 0.000000 0.000000 0.000000 -0.033523 0.000000 0.000000
# 5 0.000000 0.000000 0.000000 0.000000 -0.031269 0.000000
# 6 0.000000 0.000000 0.000000 0.000000 0.000000 0.031637
#
#
# Mechanical properties :
#
#
# Convention : Reuss Voigt Hill
#
# Bulk Modulus (GPa) = 29.42291 32.88463 31.15377
# Shear Modulus (GPa) = 95.24897 4.32608 49.78752
#
# Velocity S-wave (km/s) = 6.79799 1.44876 4.91485
# Velocity P-wave (km/s) = 8.71161 4.33052 6.87916
#
# Compressibility (1/GPa) = 0.03398712
#
# Stress axis : x y z
#
# Youngs Moduli (GPa) = 40.33477 86.87486 56.02063
#
# Poissons Ratio (x) = 0.22408 0.24204
# Poissons Ratio (y) = 0.10404 0.17834
# Poissons Ratio (z) = 0.17427 0.27657
#
# Static dielectric constant tensor:
#      x y z
#    x 1.798010 0.000000 0.000000 
#    y 0.000000 1.767590 0.000000 
#    z 0.000000 0.000000 1.701700 
# 
# From -- ./inp_files/55589.got.cif
#   From: 2010.05.17/outbox.cif.g08.bks.cpg/sg66_28_cif.got.tgz:55589.got - 2010.06.03 17:51:23.
