data_PCOD9497689
_publ_section_title
;
Structure prediction by ZEFSAII (Michael W. Deem and Ramdas Pophale) SiO2 
 PCOD9497689
Probable space group: C C C M
;
_chemical_formula_sum "Si O2"
_cell_formula_units_Z 116
_cell_length_a 29.303221
_cell_length_b 8.678588
_cell_length_c 26.969303
_cell_angle_alpha 90.000000
_cell_angle_beta 90.000000
_cell_angle_gamma 90.000000
_cell_volume 6858.579146
_symmetry_space_group_name_H-M "C C C M"
_symmetry_group_IT_number 66
_symmetry_cell_setting 'orthorhombic'
loop_
_space_group_symop_operation_xyz
x,y,z
-x,-y,z
x,-y,1/2-z
-x,y,1/2-z
-x,-y,-z
x,y,-z
-x,y,1/2+z
x,-y,1/2+z
1/2+x,1/2+y,z
1/2-x,1/2-y,z
1/2+x,1/2-y,1/2-z
1/2-x,1/2+y,1/2-z
1/2-x,1/2-y,-z
1/2+x,1/2+y,-z
1/2-x,1/2+y,1/2+z
1/2+x,1/2-y,1/2+z
loop_
_atom_site_type_symbol
_atom_site_label
_atom_site_fract_x
_atom_site_fract_y
_atom_site_fract_z
Si Si1 0.634429 0.259357 0.144867
Si Si2 0.153054 0.443763 0.799323
Si Si3 0.800140 0.326094 0.057641
Si Si4 0.051417 0.945443 0.173336
Si Si5 0.000000 0.500000 0.750000
Si Si6 0.275243 0.899377 0.622927
Si Si7 0.432433 0.252501 0.774082
Si Si8 0.217983 0.900451 0.799447
O O1 0.662440 0.249576 0.093679
O O2 0.585937 0.345386 0.139974
O O3 0.667790 0.350070 0.182536
O O4 0.632404 0.087630 0.169236
O O5 0.179735 0.500000 0.750000
O O6 0.185308 0.357227 0.837737
O O7 0.114957 0.336401 0.775325
O O8 0.750000 0.250000 0.063787
O O9 0.794706 0.498177 0.078768
O O10 0.812319 0.319196 0.000000
O O11 0.052067 0.840220 0.223636
O O12 0.072242 0.111064 0.186748
O O13 0.000000 0.000000 0.159143
O O14 0.968715 0.615073 0.781996
O O15 0.250000 0.750000 0.604373
O O16 0.241650 0.004262 0.656204
O O17 0.250000 0.750000 0.792498
O O18 0.214482 0.000000 0.750000
#
# Coordination Sequence:
#
# PCOD9497689 Si02
#       8
#    16  16  16  16   4  16  16  16
#     4  11  22  37  55  81 112 144 203 230 289 348
#     4  11  21  33  48  74 107 156 186 226 269 342
#     4  10  20  41  65  83 109 148 193 247 299 349
#     4  11  22  36  50  76 110 149 195 242 278 328
#     4  12  16  34  48  64 104 138 206 228 256 330
#     4  11  23  35  53  81 116 147 194 231 285 350
#     4  11  21  32  50  72 106 153 191 227 275 323
#     4  12  23  36  50  77 118 161 191 230 269 342
#
# _framework density 16.913124
#
# number of rings (size 3 to 8) (size 9 to 14) (size 15 to 20)
#    0.000    0.966    7.586    1.241    5.793    0.276 
#    0.000    0.000    0.000    0.414    0.000    0.000 
#    0.000    4.414    0.000    0.000    0.000    2.207 
#
# Total GULP energy -323391.288684 kJ/mol
# GULP energy per Si atom -5575.711874 kJ/mol
# Density = 1.687463 g / cm^3
# Si number density = 16.913124 Si / 1000 Ang^3
#
#
#
# Elastic Constant Matrix: (Units=GPa)
#
#
# Indices 1 2 3 4 5 6 
#
# 1 95.0648 33.8775 31.8479 0.0000 0.0000 0.0000
# 2 33.8775 79.6758 27.6589 0.0000 0.0000 0.0000
# 3 31.8479 27.6589 91.0003 0.0000 0.0000 0.0000
# 4 0.0000 0.0000 0.0000 13.9024 0.0000 0.0000
# 5 0.0000 0.0000 0.0000 0.0000 13.7207 0.0000
# 6 0.0000 0.0000 0.0000 0.0000 0.0000 32.7054
#
#
#
# Elastic Compliance Matrix: (Units=1/GPa)
#
#
# Indices 1 2 3 4 5 6 
#
# 1 0.013209 -0.004485 -0.003260 0.000000 0.000000 0.000000
# 2 -0.004485 0.015554 -0.003158 0.000000 0.000000 0.000000
# 3 -0.003260 -0.003158 0.013090 0.000000 0.000000 0.000000
# 4 0.000000 0.000000 0.000000 0.071930 0.000000 0.000000
# 5 0.000000 0.000000 0.000000 0.000000 0.072883 0.000000
# 6 0.000000 0.000000 0.000000 0.000000 0.000000 0.030576
#
#
# Mechanical properties :
#
#
# Convention : Reuss Voigt Hill
#
# Bulk Modulus (GPa) = 49.88073 50.27884 50.07979
# Shear Modulus (GPa) = 20.34757 23.55616 21.95187
#
# Velocity S-wave (km/s) = 3.47228 3.73604 3.60657
# Velocity P-wave (km/s) = 6.75515 6.95722 6.85693
#
# Compressibility (1/GPa) = 0.02004782
#
# Stress axis : x y z
#
# Youngs Moduli (GPa) = 75.70320 64.29189 76.39609
#
# Poissons Ratio (x) = 0.28834 0.24904
# Poissons Ratio (y) = 0.33952 0.24125
# Poissons Ratio (z) = 0.24678 0.20303
#
# Static dielectric constant tensor:
#      x y z
#    x 1.630920 0.000000 0.000000 
#    y 0.000000 1.608530 0.000000 
#    z 0.000000 0.000000 1.544290 
# 
# From -- ./inp_files/62994.got.cif
#   From: 2010.05.17/outbox.cif.g08.bks.cpg/sg66_32_cif.got.tgz:62994.got - 2010.06.03 17:51:23.
