data_PCOD9497424
_publ_section_title
;
Structure prediction by ZEFSAII (Michael W. Deem and Ramdas Pophale) SiO2 
 PCOD9497424
Probable space group: C C C M
;
_chemical_formula_sum "Si O2"
_cell_formula_units_Z 88
_cell_length_a 10.326038
_cell_length_b 20.263840
_cell_length_c 20.280503
_cell_angle_alpha 90.000000
_cell_angle_beta 90.000000
_cell_angle_gamma 90.000000
_cell_volume 4243.597539
_symmetry_space_group_name_H-M "C C C M"
_symmetry_group_IT_number 66
_symmetry_cell_setting 'orthorhombic'
loop_
_space_group_symop_operation_xyz
x,y,z
-x,-y,z
x,-y,1/2-z
-x,y,1/2-z
-x,-y,-z
x,y,-z
-x,y,1/2+z
x,-y,1/2+z
1/2+x,1/2+y,z
1/2-x,1/2-y,z
1/2+x,1/2-y,1/2-z
1/2-x,1/2+y,1/2-z
1/2-x,1/2-y,-z
1/2+x,1/2+y,-z
1/2-x,1/2+y,1/2+z
1/2+x,1/2-y,1/2+z
loop_
_atom_site_type_symbol
_atom_site_label
_atom_site_fract_x
_atom_site_fract_y
_atom_site_fract_z
Si Si1 0.336319 0.928273 0.608390
Si Si2 0.886285 0.179306 0.422839
Si Si3 0.351972 0.877183 0.749516
Si Si4 0.826090 0.809623 0.427069
Si Si5 0.362643 0.078046 0.602643
Si Si6 0.750000 0.250000 0.685368
O O1 0.222508 0.878026 0.587280
O O2 0.336974 0.926699 0.688231
O O3 0.484520 0.909099 0.589968
O O4 0.324714 0.003414 0.584818
O O5 0.873782 0.198778 0.500000
O O6 0.862025 0.236453 0.368635
O O7 0.035047 0.161234 0.406367
O O8 0.500000 0.852706 0.750000
O O9 0.333113 0.910454 0.819661
O O10 0.266874 0.814060 0.730108
O O11 0.857537 0.782512 0.500000
O O12 0.750000 0.750000 0.390574
O O13 0.725461 0.868286 0.430897
#
# Coordination Sequence:
#
# PCOD9497424 Si02
#       6
#    16  16  16  16  16   8
#     4   9  20  38  59  89 114 152 199 234 287 349
#     4  10  22  39  58  82 118 157 193 244 294 340
#     4   9  19  33  55  85 117 150 186 234 288 343
#     4  10  24  40  57  84 116 154 195 237 297 352
#     4  10  20  37  62  84 118 154 192 241 286 343
#     4  10  21  34  56  90 117 148 204 230 286 354
#
# _framework density 20.737121999999999
#
# number of rings (size 3 to 8) (size 9 to 14) (size 15 to 20)
#    0.000    2.364    0.000    0.818    8.909    4.364 
#    0.000    6.364    0.000    4.364    0.000    0.000 
#    0.000    0.000    0.000    0.000    0.000    0.000 
#
# Total GULP energy -244968.273891 kJ/mol
# GULP energy per Si atom -5567.460770 kJ/mol
# Density = 2.068992 g / cm^3
# Si number density = 20.737122 Si / 1000 Ang^3
#
#
#
# Elastic Constant Matrix: (Units=GPa)
#
#
# Indices 1 2 3 4 5 6 
#
# 1 124.5681 61.3810 18.4720 0.0000 0.0000 0.0000
# 2 61.3810 92.8697 -2.3012 0.0000 0.0000 0.0000
# 3 18.4720 -2.3012 58.8042 0.0000 0.0000 0.0000
# 4 0.0000 0.0000 0.0000 15.1749 0.0000 0.0000
# 5 0.0000 0.0000 0.0000 0.0000 20.8713 0.0000
# 6 0.0000 0.0000 0.0000 0.0000 0.0000 29.3262
#
#
#
# Elastic Compliance Matrix: (Units=1/GPa)
#
#
# Indices 1 2 3 4 5 6 
#
# 1 0.012954 -0.008671 -0.004409 0.000000 0.000000 0.000000
# 2 -0.008671 0.016582 0.003373 0.000000 0.000000 0.000000
# 3 -0.004409 0.003373 0.018522 0.000000 0.000000 0.000000
# 4 0.000000 0.000000 0.000000 0.065898 0.000000 0.000000
# 5 0.000000 0.000000 0.000000 0.000000 0.047913 0.000000
# 6 0.000000 0.000000 0.000000 0.000000 0.000000 0.034099
#
#
# Mechanical properties :
#
#
# Convention : Reuss Voigt Hill
#
# Bulk Modulus (GPa) = 34.90997 47.92728 41.41862
# Shear Modulus (GPa) = 22.22900 26.32050 24.27475
#
# Velocity S-wave (km/s) = 3.27760 3.56651 3.42511
# Velocity P-wave (km/s) = 5.58522 6.33419 5.97146
#
# Compressibility (1/GPa) = 0.02864511
#
# Stress axis : x y z
#
# Youngs Moduli (GPa) = 77.19509 60.30480 53.98858
#
# Poissons Ratio (x) = 0.52291 0.23801
# Poissons Ratio (y) = 0.66937 -0.18209
# Poissons Ratio (z) = 0.34032 -0.20339
#
# Static dielectric constant tensor:
#      x y z
#    x 1.780900 0.000000 0.000000 
#    y 0.000000 1.725450 0.000000 
#    z 0.000000 0.000000 1.797260 
# 
# From -- ./inp_files/55475.got.cif
#   From: 2010.05.17/outbox.cif.g08.bks.cpg/sg66_28_cif.got.tgz:55475.got - 2010.06.03 17:51:23.
