data_PCOD9497344
_publ_section_title
;
Structure prediction by ZEFSAII (Michael W. Deem and Ramdas Pophale) SiO2 
 PCOD9497344
Probable space group: C C C M
;
_chemical_formula_sum "Si O2"
_cell_formula_units_Z 96
_cell_length_a 18.216632
_cell_length_b 11.535591
_cell_length_c 23.464712
_cell_angle_alpha 90.000000
_cell_angle_beta 90.000000
_cell_angle_gamma 90.000000
_cell_volume 4930.865573
_symmetry_space_group_name_H-M "C C C M"
_symmetry_group_IT_number 66
_symmetry_cell_setting 'orthorhombic'
loop_
_space_group_symop_operation_xyz
x,y,z
-x,-y,z
x,-y,1/2-z
-x,y,1/2-z
-x,-y,-z
x,y,-z
-x,y,1/2+z
x,-y,1/2+z
1/2+x,1/2+y,z
1/2-x,1/2-y,z
1/2+x,1/2-y,1/2-z
1/2-x,1/2+y,1/2-z
1/2-x,1/2-y,-z
1/2+x,1/2+y,-z
1/2-x,1/2+y,1/2+z
1/2+x,1/2-y,1/2+z
loop_
_atom_site_type_symbol
_atom_site_label
_atom_site_fract_x
_atom_site_fract_y
_atom_site_fract_z
Si Si1 0.174722 0.321760 0.673115
Si Si2 0.892368 0.773363 0.565809
Si Si3 0.767706 0.572737 0.824015
Si Si4 0.034832 0.875173 0.621530
Si Si5 0.179054 0.972392 0.434620
Si Si6 0.365897 0.284666 0.784659
O O1 0.250000 0.250000 0.672489
O O2 0.140144 0.316653 0.610755
O O3 0.195406 0.450950 0.691524
O O4 0.124919 0.255066 0.719564
O O5 0.890206 0.737709 0.500000
O O6 0.974114 0.805534 0.586294
O O7 0.844829 0.892443 0.571331
O O8 0.741074 0.558837 0.889211
O O9 0.693159 0.610462 0.790795
O O10 0.824329 0.676695 0.814490
O O11 0.106637 0.900216 0.583148
O O12 0.063001 0.816292 0.679303
O O13 0.000000 0.000000 0.635377
O O14 0.198995 0.951458 0.500000
#
# Coordination Sequence:
#
# PCOD9497344 Si02
#       6
#    16  16  16  16  16  16
#     4  12  22  35  59  88 122 155 187 234 290 346
#     4  10  21  36  57  85 116 153 199 240 285 338
#     4  10  20  37  56  88 120 152 190 232 290 350
#     4   9  19  39  59  84 114 151 196 244 288 336
#     4   9  17  32  58  86 117 153 193 241 286 336
#     4  10  22  38  62  86 116 155 189 237 296 341
#
# _framework density 19.469199
#
# number of rings (size 3 to 8) (size 9 to 14) (size 15 to 20)
#    0.000    2.000    3.333    1.000    0.000    3.667 
#    0.000   10.833    0.000    3.000    0.000    0.000 
#    0.000    0.000    0.000    0.000    0.000    0.000 
#
# Total GULP energy -268068.289300 kJ/mol
# GULP energy per Si atom -5584.756027 kJ/mol
# Density = 1.942489 g / cm^3
# Si number density = 19.469199 Si / 1000 Ang^3
#
#
#
# Elastic Constant Matrix: (Units=GPa)
#
#
# Indices 1 2 3 4 5 6 
#
# 1 30.6278 12.6995 42.3405 0.0000 0.0000 0.0000
# 2 12.6995 75.8814 42.2030 0.0000 0.0000 0.0000
# 3 42.3405 42.2030 158.2654 0.0000 0.0000 0.0000
# 4 0.0000 0.0000 0.0000 26.6211 0.0000 0.0000
# 5 0.0000 0.0000 0.0000 0.0000 26.4977 0.0000
# 6 0.0000 0.0000 0.0000 0.0000 0.0000 10.6920
#
#
#
# Elastic Compliance Matrix: (Units=1/GPa)
#
#
# Indices 1 2 3 4 5 6 
#
# 1 0.051895 -0.001131 -0.013582 0.000000 0.000000 0.000000
# 2 -0.001131 0.015498 -0.003830 0.000000 0.000000 0.000000
# 3 -0.013582 -0.003830 0.010973 0.000000 0.000000 0.000000
# 4 0.000000 0.000000 0.000000 0.037564 0.000000 0.000000
# 5 0.000000 0.000000 0.000000 0.000000 0.037739 0.000000
# 6 0.000000 0.000000 0.000000 0.000000 0.000000 0.093528
#
#
# Mechanical properties :
#
#
# Convention : Reuss Voigt Hill
#
# Bulk Modulus (GPa) = 24.22486 51.02893 37.62690
# Shear Modulus (GPa) = 16.77611 23.93094 20.35353
#
# Velocity S-wave (km/s) = 2.93861 3.50975 3.23681
# Velocity P-wave (km/s) = 4.89731 6.53387 5.77387
#
# Compressibility (1/GPa) = 0.04127991
#
# Stress axis : x y z
#
# Youngs Moduli (GPa) = 19.26981 64.52468 91.13049
#
# Poissons Ratio (x) = 0.07300 1.23770
# Poissons Ratio (y) = 0.02180 0.34903
# Poissons Ratio (z) = 0.26171 0.24713
#
# Static dielectric constant tensor:
#      x y z
#    x 1.672640 0.000000 0.000000 
#    y 0.000000 1.676560 0.000000 
#    z 0.000000 0.000000 1.704860 
# 
# From -- ./inp_files/58759.got.cif
#   From: 2010.05.17/outbox.cif.g08.bks.cpg/sg66_30_cif.got.tgz:58759.got - 2010.06.03 17:51:23.
