data_PCOD9497401
_publ_section_title
;
Structure prediction by ZEFSAII (Michael W. Deem and Ramdas Pophale) SiO2 
 PCOD9497401
Probable space group: C C C M
;
_chemical_formula_sum "Si O2"
_cell_formula_units_Z 104
_cell_length_a 8.689617
_cell_length_b 20.136337
_cell_length_c 31.811330
_cell_angle_alpha 90.000000
_cell_angle_beta 90.000000
_cell_angle_gamma 90.000000
_cell_volume 5566.252881
_symmetry_space_group_name_H-M "C C C M"
_symmetry_group_IT_number 66
_symmetry_cell_setting 'orthorhombic'
loop_
_space_group_symop_operation_xyz
x,y,z
-x,-y,z
x,-y,1/2-z
-x,y,1/2-z
-x,-y,-z
x,y,-z
-x,y,1/2+z
x,-y,1/2+z
1/2+x,1/2+y,z
1/2-x,1/2-y,z
1/2+x,1/2-y,1/2-z
1/2-x,1/2+y,1/2-z
1/2-x,1/2-y,-z
1/2+x,1/2+y,-z
1/2-x,1/2+y,1/2+z
1/2+x,1/2-y,1/2+z
loop_
_atom_site_type_symbol
_atom_site_label
_atom_site_fract_x
_atom_site_fract_y
_atom_site_fract_z
Si Si1 0.242215 0.047765 0.421631
Si Si2 0.742715 0.330280 0.500000
Si Si3 0.500000 0.000000 0.857464
Si Si4 0.926105 0.386582 0.704768
Si Si5 0.446842 0.077627 0.500000
Si Si6 0.330217 0.678479 0.338265
Si Si7 0.397790 0.401655 0.079323
Si Si8 0.572484 0.754547 0.703620
O O1 0.368665 0.035939 0.385124
O O2 0.337410 0.081855 0.459220
O O3 0.081169 0.086495 0.414439
O O4 0.182380 0.972533 0.430836
O O5 0.750000 0.250000 0.500000
O O6 0.648204 0.354509 0.459179
O O7 0.908544 0.370742 0.500000
O O8 0.424309 0.052571 0.826307
O O9 0.756826 0.354310 0.701655
O O10 0.000000 0.402515 0.750000
O O11 0.028777 0.326930 0.686126
O O12 0.500000 0.000000 0.500000
O O13 0.250000 0.750000 0.346865
O O14 0.330056 0.630839 0.378245
O O15 0.500946 0.697439 0.324631
O O16 0.500000 0.751995 0.750000
O O17 0.750000 0.750000 0.707622
#
# Coordination Sequence:
#
# PCOD9497401 Si02
#       8
#    16   8   8  16   8  16  16  16
#     4  11  23  39  68  91 123 167 216 262 289 388
#     4  12  25  43  71  98 136 170 199 266 335 379
#     4  12  21  37  60  90 124 158 206 257 317 358
#     4  10  21  37  58  85 120 163 205 257 317 372
#     4  12  21  43  69  95 119 167 225 243 302 380
#     4  10  21  39  61  88 127 163 205 260 318 380
#     4  11  22  42  62  96 128 164 210 257 325 366
#     4  10  20  37  61  87 115 162 217 257 312 384
#
# _framework density 18.684023
#
# number of rings (size 3 to 8) (size 9 to 14) (size 15 to 20)
#    0.000    1.231    3.846    3.462    2.154    1.231 
#    0.000    1.538    0.000    0.000    0.000    0.000 
#    0.000    0.000    0.000    0.000    0.000    0.000 
#
# Total GULP energy -289825.962559 kJ/mol
# GULP energy per Si atom -5573.576203 kJ/mol
# Density = 1.864150 g / cm^3
# Si number density = 18.684023 Si / 1000 Ang^3
#
#
#
# Elastic Constant Matrix: (Units=GPa)
#
#
# Indices 1 2 3 4 5 6 
#
# 1 132.0340 35.0350 42.3211 0.0000 0.0000 0.0000
# 2 35.0350 85.8143 37.3290 0.0000 0.0000 0.0000
# 3 42.3211 37.3290 105.3431 0.0000 0.0000 0.0000
# 4 0.0000 0.0000 0.0000 24.6426 0.0000 0.0000
# 5 0.0000 0.0000 0.0000 0.0000 26.8776 0.0000
# 6 0.0000 0.0000 0.0000 0.0000 0.0000 14.8818
#
#
#
# Elastic Compliance Matrix: (Units=1/GPa)
#
#
# Indices 1 2 3 4 5 6 
#
# 1 0.009132 -0.002521 -0.002776 0.000000 0.000000 0.000000
# 2 -0.002521 0.014473 -0.004116 0.000000 0.000000 0.000000
# 3 -0.002776 -0.004116 0.012066 0.000000 0.000000 0.000000
# 4 0.000000 0.000000 0.000000 0.040580 0.000000 0.000000
# 5 0.000000 0.000000 0.000000 0.000000 0.037206 0.000000
# 6 0.000000 0.000000 0.000000 0.000000 0.000000 0.067196
#
#
# Mechanical properties :
#
#
# Convention : Reuss Voigt Hill
#
# Bulk Modulus (GPa) = 59.35856 61.39574 60.37715
# Shear Modulus (GPa) = 24.37915 27.18083 25.77999
#
# Velocity S-wave (km/s) = 3.61614 3.81827 3.71858
# Velocity P-wave (km/s) = 7.01954 7.23673 7.12896
#
# Compressibility (1/GPa) = 0.01684677
#
# Stress axis : x y z
#
# Youngs Moduli (GPa) = 109.49991 69.09593 82.87583
#
# Poissons Ratio (x) = 0.17420 0.23003
# Poissons Ratio (y) = 0.27606 0.34109
# Poissons Ratio (z) = 0.30392 0.28437
#
# Static dielectric constant tensor:
#      x y z
#    x 1.676800 0.000000 0.000000 
#    y 0.000000 1.672520 0.000000 
#    z 0.000000 0.000000 1.647070 
# 
# From -- ./inp_files/68288.got.cif
#   From: 2010.05.17/outbox.cif.g08.bks.cpg/sg66_35_cif.got.tgz:68288.got - 2010.06.03 17:51:23.
