data_PCOD9497562
_publ_section_title
;
Structure prediction by ZEFSAII (Michael W. Deem and Ramdas Pophale) SiO2 
 PCOD9497562
Probable space group: C C C M
;
_chemical_formula_sum "Si O2"
_cell_formula_units_Z 80
_cell_length_a 17.422297
_cell_length_b 7.811992
_cell_length_c 25.716875
_cell_angle_alpha 90.000000
_cell_angle_beta 90.000000
_cell_angle_gamma 90.000000
_cell_volume 3500.139846
_symmetry_space_group_name_H-M "C C C M"
_symmetry_group_IT_number 66
_symmetry_cell_setting 'orthorhombic'
loop_
_space_group_symop_operation_xyz
x,y,z
-x,-y,z
x,-y,1/2-z
-x,y,1/2-z
-x,-y,-z
x,y,-z
-x,y,1/2+z
x,-y,1/2+z
1/2+x,1/2+y,z
1/2-x,1/2-y,z
1/2+x,1/2-y,1/2-z
1/2-x,1/2+y,1/2-z
1/2-x,1/2-y,-z
1/2+x,1/2+y,-z
1/2-x,1/2+y,1/2+z
1/2+x,1/2-y,1/2+z
loop_
_atom_site_type_symbol
_atom_site_label
_atom_site_fract_x
_atom_site_fract_y
_atom_site_fract_z
Si Si1 0.208228 0.933696 0.902737
Si Si2 0.356141 0.077832 0.055168
Si Si3 0.673891 0.633107 0.203393
Si Si4 0.545891 0.179334 0.648935
Si Si5 0.557984 0.712022 0.557295
O O1 0.250000 0.750000 0.893281
O O2 0.267803 0.036161 0.937630
O O3 0.130050 0.908437 0.933573
O O4 0.191113 0.025062 0.848703
O O5 0.406458 0.903282 0.054260
O O6 0.384161 0.155060 0.108546
O O7 0.369212 0.165477 0.000000
O O8 0.666183 0.500000 0.250000
O O9 0.750000 0.750000 0.212047
O O10 0.592595 0.734853 0.196117
O O11 0.490335 0.288898 0.610793
O O12 0.500000 0.000000 0.660477
O O13 0.523143 0.681820 0.500000
#
# Coordination Sequence:
#
# PCOD9497562 Si02
#       5
#    16  16  16  16  16
#     4  10  20  38  65 100 141 182 234 281 330 401
#     4   9  16  32  63 101 141 186 229 269 329 413
#     4  12  26  48  76  99 127 178 241 302 359 408
#     4  10  21  41  69 102 142 177 224 282 348 418
#     4   9  18  34  63  99 145 191 218 261 338 413
#
# _framework density 22.85623
#
# number of rings (size 3 to 8) (size 9 to 14) (size 15 to 20)
#    0.000    2.000    2.000    1.800    0.000    5.600 
#    0.000    8.000    0.000    0.000    0.000    0.000 
#    0.000    0.000    0.000    0.000    0.000    0.000 
#
# Total GULP energy -223247.403688 kJ/mol
# GULP energy per Si atom -5581.185092 kJ/mol
# Density = 2.280421 g / cm^3
# Si number density = 22.856230 Si / 1000 Ang^3
#
#
#
# Elastic Constant Matrix: (Units=GPa)
#
#
# Indices 1 2 3 4 5 6 
#
# 1 158.5664 53.3977 48.4837 0.0000 0.0000 0.0000
# 2 53.3977 82.3540 59.8897 0.0000 0.0000 0.0000
# 3 48.4837 59.8897 113.6927 0.0000 0.0000 0.0000
# 4 0.0000 0.0000 0.0000 20.4971 0.0000 0.0000
# 5 0.0000 0.0000 0.0000 0.0000 2.6885 0.0000
# 6 0.0000 0.0000 0.0000 0.0000 0.0000 35.5208
#
#
#
# Elastic Compliance Matrix: (Units=1/GPa)
#
#
# Indices 1 2 3 4 5 6 
#
# 1 0.008156 -0.004472 -0.001122 0.000000 0.000000 0.000000
# 2 -0.004472 0.022135 -0.009753 0.000000 0.000000 0.000000
# 3 -0.001122 -0.009753 0.014412 0.000000 0.000000 0.000000
# 4 0.000000 0.000000 0.000000 0.048787 0.000000 0.000000
# 5 0.000000 0.000000 0.000000 0.000000 0.371950 0.000000
# 6 0.000000 0.000000 0.000000 0.000000 0.000000 0.028153
#
#
# Mechanical properties :
#
#
# Convention : Reuss Voigt Hill
#
# Bulk Modulus (GPa) = 71.38766 75.35059 73.36912
# Shear Modulus (GPa) = 9.45260 24.59742 17.02501
#
# Velocity S-wave (km/s) = 2.03584 3.28408 2.73220
# Velocity P-wave (km/s) = 6.06856 6.88614 6.49024
#
# Compressibility (1/GPa) = 0.01400802
#
# Stress axis : x y z
#
# Youngs Moduli (GPa) = 122.61562 45.17793 69.38797
#
# Poissons Ratio (x) = 0.20203 0.07787
# Poissons Ratio (y) = 0.54832 0.67673
# Poissons Ratio (z) = 0.13761 0.44061
#
# Static dielectric constant tensor:
#      x y z
#    x 1.892050 0.000000 0.000000 
#    y 0.000000 1.506430 0.000000 
#    z 0.000000 0.000000 1.785720 
# 
# From -- ./inp_files/65088.got.cif
#   From: 2010.05.17/outbox.cif.g08.bks.cpg/sg66_33_cif.got.tgz:65088.got - 2010.06.03 17:51:23.
