data_PCOD9497279
_publ_section_title
;
Structure prediction by ZEFSAII (Michael W. Deem and Ramdas Pophale) SiO2 
 PCOD9497279
Probable space group: C C C M
;
_chemical_formula_sum "Si O2"
_cell_formula_units_Z 56
_cell_length_a 14.630132
_cell_length_b 5.081528
_cell_length_c 32.674703
_cell_angle_alpha 90.000000
_cell_angle_beta 90.000000
_cell_angle_gamma 90.000000
_cell_volume 2429.149345
_symmetry_space_group_name_H-M "C C C M"
_symmetry_group_IT_number 66
_symmetry_cell_setting 'orthorhombic'
loop_
_space_group_symop_operation_xyz
x,y,z
-x,-y,z
x,-y,1/2-z
-x,y,1/2-z
-x,-y,-z
x,y,-z
-x,y,1/2+z
x,-y,1/2+z
1/2+x,1/2+y,z
1/2-x,1/2-y,z
1/2+x,1/2-y,1/2-z
1/2-x,1/2+y,1/2-z
1/2-x,1/2-y,-z
1/2+x,1/2+y,-z
1/2-x,1/2+y,1/2+z
1/2+x,1/2-y,1/2+z
loop_
_atom_site_type_symbol
_atom_site_label
_atom_site_fract_x
_atom_site_fract_y
_atom_site_fract_z
Si Si1 0.361667 0.749308 0.953860
Si Si2 0.639779 0.752147 0.095974
Si Si3 0.438696 0.755443 0.315708
Si Si4 0.304205 0.500000 0.750000
O O1 0.250000 0.750000 0.954962
O O2 0.389609 0.530490 0.921058
O O3 0.389161 0.032524 0.937193
O O4 0.392926 0.695442 0.000000
O O5 0.750000 0.750000 0.098011
O O6 0.604447 0.825460 0.140655
O O7 0.500000 0.500000 0.322404
O O8 0.364028 0.655338 0.283405
O O9 0.500000 0.000000 0.300939
O O10 0.250000 0.750000 0.769516
#
# Coordination Sequence:
#
# PCOD9497279 Si02
#       4
#    16  16  16   8
#     4   9  17  31  56  90 123 159 212 274 321 362
#     4  10  20  36  61  90 123 166 217 265 314 381
#     4  12  26  45  68  97 136 174 212 263 335 403
#     4  12  27  48  75 102 130 168 224 280 329 394
#
# _framework density 23.053339000000001
#
# number of rings (size 3 to 8) (size 9 to 14) (size 15 to 20)
#    0.000    1.429    0.000    5.571    0.000    8.000 
#    0.000    0.000    0.000   17.143    0.000    0.000 
#    0.000    0.000    0.000    0.000    0.000    0.000 
#
# Total GULP energy -156712.199631 kJ/mol
# GULP energy per Si atom -5596.864273 kJ/mol
# Density = 2.300087 g / cm^3
# Si number density = 23.053339 Si / 1000 Ang^3
#
#
#
# Elastic Constant Matrix: (Units=GPa)
#
#
# Indices 1 2 3 4 5 6 
#
# 1 69.7639 27.5045 24.5712 0.0000 0.0000 0.0000
# 2 27.5045 139.0283 18.6489 0.0000 0.0000 0.0000
# 3 24.5712 18.6489 122.1931 0.0000 0.0000 0.0000
# 4 0.0000 0.0000 0.0000 40.9043 0.0000 0.0000
# 5 0.0000 0.0000 0.0000 0.0000 1340.4487 0.0000
# 6 0.0000 0.0000 0.0000 0.0000 0.0000 34.0574
#
#
#
# Elastic Compliance Matrix: (Units=1/GPa)
#
#
# Indices 1 2 3 4 5 6 
#
# 1 0.016480 -0.002875 -0.002875 0.000000 0.000000 0.000000
# 2 -0.002875 0.007845 -0.000619 0.000000 0.000000 0.000000
# 3 -0.002875 -0.000619 0.008856 0.000000 0.000000 0.000000
# 4 0.000000 0.000000 0.000000 0.024447 0.000000 0.000000
# 5 0.000000 0.000000 0.000000 0.000000 0.000746 0.000000
# 6 0.000000 0.000000 0.000000 0.000000 0.000000 0.029362
#
#
# Mechanical properties :
#
#
# Convention : Reuss Voigt Hill
#
# Bulk Modulus (GPa) = 48.91644 52.49273 50.70459
# Shear Modulus (GPa) = 46.60317 300.43280 173.51798
#
# Velocity S-wave (km/s) = 4.50103 11.42820 8.68513
# Velocity P-wave (km/s) = 6.94818 14.03416 11.07328
#
# Compressibility (1/GPa) = 0.02044302
#
# Stress axis : x y z
#
# Youngs Moduli (GPa) = 60.67947 127.47722 112.91242
#
# Poissons Ratio (x) = 0.36645 0.32464
# Poissons Ratio (y) = 0.17443 0.06991
# Poissons Ratio (z) = 0.17446 0.07893
#
# Static dielectric constant tensor:
#      x y z
#    x 1.947480 0.000000 0.000000 
#    y 0.000000 1.815860 0.000000 
#    z 0.000000 0.000000 1.821330 
# 
# From -- ./inp_files/69316.got.cif
#   From: 2010.05.17/outbox.cif.g08.bks.cpg/sg66_35_cif.got.tgz:69316.got - 2010.06.03 17:51:23.
