data_PCOD9497151
_publ_section_title
;
Structure prediction by ZEFSAII (Michael W. Deem and Ramdas Pophale) SiO2 
 PCOD9497151
Probable space group: C C C M
;
_chemical_formula_sum "Si O2"
_cell_formula_units_Z 88
_cell_length_a 12.391932
_cell_length_b 12.321172
_cell_length_c 27.750590
_cell_angle_alpha 90.000000
_cell_angle_beta 90.000000
_cell_angle_gamma 90.000000
_cell_volume 4237.046818
_symmetry_space_group_name_H-M "C C C M"
_symmetry_group_IT_number 66
_symmetry_cell_setting 'orthorhombic'
loop_
_space_group_symop_operation_xyz
x,y,z
-x,-y,z
x,-y,1/2-z
-x,y,1/2-z
-x,-y,-z
x,y,-z
-x,y,1/2+z
x,-y,1/2+z
1/2+x,1/2+y,z
1/2-x,1/2-y,z
1/2+x,1/2-y,1/2-z
1/2-x,1/2+y,1/2-z
1/2-x,1/2-y,-z
1/2+x,1/2+y,-z
1/2-x,1/2+y,1/2+z
1/2+x,1/2-y,1/2+z
loop_
_atom_site_type_symbol
_atom_site_label
_atom_site_fract_x
_atom_site_fract_y
_atom_site_fract_z
Si Si1 0.288734 0.875240 0.841975
Si Si2 0.977494 0.319486 0.374459
Si Si3 0.150687 0.192150 0.195865
Si Si4 0.253469 0.075473 0.897295
Si Si5 0.193845 0.000000 0.250000
Si Si6 0.955509 0.880645 0.055174
O O1 0.250000 0.750000 0.839462
O O2 0.412227 0.876189 0.859952
O O3 0.235013 0.949999 0.883483
O O4 0.264592 0.942605 0.792508
O O5 0.936355 0.274339 0.322886
O O6 0.879130 0.389328 0.397682
O O7 0.993900 0.215728 0.409573
O O8 0.250000 0.250000 0.222081
O O9 0.204069 0.142067 0.147729
O O10 0.119095 0.091664 0.227335
O O11 0.175089 0.110765 0.940130
O O12 0.986792 0.859341 0.000000
O O13 0.000000 0.000000 0.069179
#
# Coordination Sequence:
#
# PCOD9497151 Si02
#       6
#    16  16  16  16   8  16
#     4  11  22  38  58  81 114 155 196 247 304 358
#     4  10  20  37  60  83 115 158 197 242 303 357
#     4   8  16  33  52  73 103 139 183 232 279 335
#     4   9  19  36  57  81 112 149 189 234 291 355
#     4  10  20  36  54  78 112 148 195 242 289 354
#     4  10  20  36  62  93 121 152 194 243 296 361
#
# _framework density 20.769183000000002
#
# number of rings (size 3 to 8) (size 9 to 14) (size 15 to 20)
#    0.000    2.364    0.000    3.818    0.000    1.455 
#    0.000   26.364    0.000    9.818    0.000    0.000 
#    0.000    0.000    0.000    0.000    0.000    0.000 
#
# Total GULP energy -245025.616520 kJ/mol
# GULP energy per Si atom -5568.764012 kJ/mol
# Density = 2.072191 g / cm^3
# Si number density = 20.769183 Si / 1000 Ang^3
#
#
#
# Elastic Constant Matrix: (Units=GPa)
#
#
# Indices 1 2 3 4 5 6 
#
# 1 77.7107 8.6340 9.4683 0.0000 0.0000 0.0000
# 2 8.6340 100.1640 19.2330 0.0000 0.0000 0.0000
# 3 9.4683 19.2330 48.8338 0.0000 0.0000 0.0000
# 4 0.0000 0.0000 0.0000 13.6151 0.0000 0.0000
# 5 0.0000 0.0000 0.0000 0.0000 9.8200 0.0000
# 6 0.0000 0.0000 0.0000 0.0000 0.0000 31.4042
#
#
#
# Elastic Compliance Matrix: (Units=1/GPa)
#
#
# Indices 1 2 3 4 5 6 
#
# 1 0.013225 -0.000701 -0.002288 0.000000 0.000000 0.000000
# 2 -0.000701 0.010838 -0.004132 0.000000 0.000000 0.000000
# 3 -0.002288 -0.004132 0.022549 0.000000 0.000000 0.000000
# 4 0.000000 0.000000 0.000000 0.073448 0.000000 0.000000
# 5 0.000000 0.000000 0.000000 0.000000 0.101833 0.000000
# 6 0.000000 0.000000 0.000000 0.000000 0.000000 0.031843
#
#
# Mechanical properties :
#
#
# Convention : Reuss Voigt Hill
#
# Bulk Modulus (GPa) = 30.89410 33.48657 32.19033
# Shear Modulus (GPa) = 17.93611 23.59273 20.76442
#
# Velocity S-wave (km/s) = 2.94188 3.37404 3.16535
# Velocity P-wave (km/s) = 5.14265 5.59795 5.37512
#
# Compressibility (1/GPa) = 0.03236864
#
# Stress axis : x y z
#
# Youngs Moduli (GPa) = 75.61502 92.27202 44.34820
#
# Poissons Ratio (x) = 0.06464 0.10148
# Poissons Ratio (y) = 0.05298 0.18327
# Poissons Ratio (z) = 0.17302 0.38131
#
# Static dielectric constant tensor:
#      x y z
#    x 1.779100 0.000000 0.000000 
#    y 0.000000 1.820680 0.000000 
#    z 0.000000 0.000000 1.742710 
# 
# From -- ./inp_files/68844.got.cif
#   From: 2010.05.17/outbox.cif.g08.bks.cpg/sg66_35_cif.got.tgz:68844.got - 2010.06.03 17:51:23.
