data_PCOD9497269
_publ_section_title
;
Structure prediction by ZEFSAII (Michael W. Deem and Ramdas Pophale) SiO2 
 PCOD9497269
Probable space group: C C C M
;
_chemical_formula_sum "Si O2"
_cell_formula_units_Z 104
_cell_length_a 20.994559
_cell_length_b 17.704225
_cell_length_c 14.203169
_cell_angle_alpha 90.000000
_cell_angle_beta 90.000000
_cell_angle_gamma 90.000000
_cell_volume 5279.209921
_symmetry_space_group_name_H-M "C C C M"
_symmetry_group_IT_number 66
_symmetry_cell_setting 'orthorhombic'
loop_
_space_group_symop_operation_xyz
x,y,z
-x,-y,z
x,-y,1/2-z
-x,y,1/2-z
-x,-y,-z
x,y,-z
-x,y,1/2+z
x,-y,1/2+z
1/2+x,1/2+y,z
1/2-x,1/2-y,z
1/2+x,1/2-y,1/2-z
1/2-x,1/2+y,1/2-z
1/2-x,1/2-y,-z
1/2+x,1/2+y,-z
1/2-x,1/2+y,1/2+z
1/2+x,1/2-y,1/2+z
loop_
_atom_site_type_symbol
_atom_site_label
_atom_site_fract_x
_atom_site_fract_y
_atom_site_fract_z
Si Si1 0.659030 0.790222 0.792718
Si Si2 0.001809 0.090857 0.610186
Si Si3 0.324056 0.771695 0.500000
Si Si4 0.608497 0.362197 0.246407
Si Si5 0.258169 0.575637 0.696711
Si Si6 0.931512 0.454713 0.000000
Si Si7 0.428673 0.081573 0.285694
Si Si8 0.304374 0.943713 0.500000
O O1 0.652683 0.751483 0.896168
O O2 0.640156 0.719760 0.728651
O O3 0.723185 0.842081 0.786093
O O4 0.608418 0.854148 0.768744
O O5 0.995121 0.109315 0.500000
O O6 0.069599 0.114709 0.653626
O O7 0.945698 0.129112 0.672173
O O8 0.000000 0.000000 0.621365
O O9 0.250000 0.750000 0.500000
O O10 0.334583 0.860911 0.500000
O O11 0.668262 0.412856 0.277732
O O12 0.235607 0.500000 0.750000
O O13 0.240856 0.555021 0.590100
O O14 0.928336 0.412812 0.899072
O O15 0.865448 0.502340 0.000000
O O16 0.000000 0.500000 0.000000
O O17 0.500000 0.085481 0.250000
O O18 0.404443 0.000000 0.250000
#
# Coordination Sequence:
#
# PCOD9497269 Si02
#       8
#    16  16   8  16  16   8  16   8
#     4  11  23  38  62  93 139 167 212 278 334 395
#     4  10  23  45  71  95 131 165 215 268 321 401
#     4  10  20  36  60  92 125 164 211 268 334 384
#     4  11  23  41  66 102 128 168 215 265 344 388
#     4  11  22  40  67  93 130 170 221 273 326 389
#     4  12  22  40  62  89 129 174 233 284 316 398
#     4  11  23  38  61  88 125 181 235 266 330 383
#     4  10  22  36  60  93 120 160 222 273 324 368
#
# _framework density 19.699916999999999
#
# number of rings (size 3 to 8) (size 9 to 14) (size 15 to 20)
#    0.000    1.231    1.538    7.385    4.308    0.000 
#    2.769    0.000    0.000    0.923    0.000    0.000 
#    0.000    0.000    0.000    0.000    0.000    0.000 
#
# Total GULP energy -289648.692115 kJ/mol
# GULP energy per Si atom -5570.167156 kJ/mol
# Density = 1.965508 g / cm^3
# Si number density = 19.699917 Si / 1000 Ang^3
#
#
#
# Elastic Constant Matrix: (Units=GPa)
#
#
# Indices 1 2 3 4 5 6 
#
# 1 131.2352 40.2641 27.3616 0.0000 0.0000 0.0000
# 2 40.2641 79.9744 25.0157 0.0000 0.0000 0.0000
# 3 27.3616 25.0157 77.8687 0.0000 0.0000 0.0000
# 4 0.0000 0.0000 0.0000 17.0403 0.0000 0.0000
# 5 0.0000 0.0000 0.0000 0.0000 30.5694 0.0000
# 6 0.0000 0.0000 0.0000 0.0000 0.0000 38.3157
#
#
#
# Elastic Compliance Matrix: (Units=1/GPa)
#
#
# Indices 1 2 3 4 5 6 
#
# 1 0.009272 -0.004057 -0.001955 0.000000 0.000000 0.000000
# 2 -0.004057 0.015676 -0.003610 0.000000 0.000000 0.000000
# 3 -0.001955 -0.003610 0.014689 0.000000 0.000000 0.000000
# 4 0.000000 0.000000 0.000000 0.058684 0.000000 0.000000
# 5 0.000000 0.000000 0.000000 0.000000 0.032712 0.000000
# 6 0.000000 0.000000 0.000000 0.000000 0.000000 0.026099
#
#
# Mechanical properties :
#
#
# Convention : Reuss Voigt Hill
#
# Bulk Modulus (GPa) = 49.03692 52.70679 50.87186
# Shear Modulus (GPa) = 27.29644 30.28086 28.78865
#
# Velocity S-wave (km/s) = 3.72642 3.92485 3.82692
# Velocity P-wave (km/s) = 6.59249 6.88129 6.73844
#
# Compressibility (1/GPa) = 0.02039280
#
# Stress axis : x y z
#
# Youngs Moduli (GPa) = 107.85035 63.79283 68.07869
#
# Poissons Ratio (x) = 0.25879 0.13308
# Poissons Ratio (y) = 0.43752 0.24579
# Poissons Ratio (z) = 0.21083 0.23032
#
# Static dielectric constant tensor:
#      x y z
#    x 1.730110 0.000000 0.000000 
#    y 0.000000 1.748810 0.000000 
#    z 0.000000 0.000000 1.708260 
# 
# From -- ./inp_files/31398.got.cif
#   From: 2010.05.17/outbox.cif.g08.bks.cpg/sg66_16_cif.got.tgz:31398.got - 2010.06.03 17:51:23.
