data_PCOD9497987
_publ_section_title
;
Structure prediction by ZEFSAII (Michael W. Deem and Ramdas Pophale) SiO2 
 PCOD9497987
Probable space group: C C C M
;
_chemical_formula_sum "Si O2"
_cell_formula_units_Z 112
_cell_length_a 25.106736
_cell_length_b 15.023451
_cell_length_c 14.812126
_cell_angle_alpha 90.000000
_cell_angle_beta 90.000000
_cell_angle_gamma 90.000000
_cell_volume 5586.983111
_symmetry_space_group_name_H-M "C C C M"
_symmetry_group_IT_number 66
_symmetry_cell_setting 'orthorhombic'
loop_
_space_group_symop_operation_xyz
x,y,z
-x,-y,z
x,-y,1/2-z
-x,y,1/2-z
-x,-y,-z
x,y,-z
-x,y,1/2+z
x,-y,1/2+z
1/2+x,1/2+y,z
1/2-x,1/2-y,z
1/2+x,1/2-y,1/2-z
1/2-x,1/2+y,1/2-z
1/2-x,1/2-y,-z
1/2+x,1/2+y,-z
1/2-x,1/2+y,1/2+z
1/2+x,1/2-y,1/2+z
loop_
_atom_site_type_symbol
_atom_site_label
_atom_site_fract_x
_atom_site_fract_y
_atom_site_fract_z
Si Si1 0.922289 0.481297 0.896144
Si Si2 0.295396 0.004011 0.390532
Si Si3 0.965782 0.082045 0.101289
Si Si4 0.876971 0.894921 0.262343
Si Si5 0.247440 0.141166 0.251605
Si Si6 0.512218 0.139612 0.654446
Si Si7 0.069179 0.198466 0.095174
O O1 0.859498 0.487454 0.879955
O O2 0.953177 0.550736 0.833844
O O3 0.955078 0.388935 0.885622
O O4 0.931857 0.508423 0.000000
O O5 0.284162 0.999882 0.500000
O O6 0.274028 0.092928 0.339224
O O7 0.271208 0.918225 0.333818
O O8 0.915324 0.120540 0.152788
O O9 0.010822 0.155672 0.096214
O O10 0.949764 0.052979 0.000000
O O11 0.000000 0.000000 0.142681
O O12 0.814864 0.877044 0.266881
O O13 0.898722 0.839572 0.178148
O O14 0.883927 0.000000 0.250000
O O15 0.250000 0.250000 0.242658
O O16 0.500000 0.184270 0.750000
O O17 0.553908 0.199467 0.601437
O O18 0.096089 0.176456 0.000000
#
# Coordination Sequence:
#
# PCOD9497987 Si02
#       7
#    16  16  16  16  16  16  16
#     4  10  21  39  64  93 132 173 212 263 329 401
#     4  10  24  46  72  97 132 182 229 287 352 409
#     4  10  21  37  60  90 126 165 204 259 324 397
#     4  12  23  41  64  94 124 176 220 274 338 394
#     4  11  27  47  69  99 136 173 236 301 340 406
#     4  11  22  35  61 100 132 174 211 262 321 394
#     4  11  24  39  60  93 134 171 214 266 319 394
#
# _framework density 20.046596999999998
#
# number of rings (size 3 to 8) (size 9 to 14) (size 15 to 20)
#    0.000    1.286    2.857    3.857    6.000    2.857 
#    0.000    1.429    0.000    0.000    0.000    0.000 
#    0.000    0.000    0.000    0.000    0.000    0.000 
#
# Total GULP energy -311814.066248 kJ/mol
# GULP energy per Si atom -5568.108326 kJ/mol
# Density = 2.000097 g / cm^3
# Si number density = 20.046597 Si / 1000 Ang^3
#
#
#
# Elastic Constant Matrix: (Units=GPa)
#
#
# Indices 1 2 3 4 5 6 
#
# 1 139.9855 23.8007 55.5841 0.0000 0.0000 0.0000
# 2 23.8007 105.3251 31.6760 0.0000 0.0000 0.0000
# 3 55.5841 31.6760 131.3747 0.0000 0.0000 0.0000
# 4 0.0000 0.0000 0.0000 22.3160 0.0000 0.0000
# 5 0.0000 0.0000 0.0000 0.0000 3.4922 0.0000
# 6 0.0000 0.0000 0.0000 0.0000 0.0000 45.3577
#
#
#
# Elastic Compliance Matrix: (Units=1/GPa)
#
#
# Indices 1 2 3 4 5 6 
#
# 1 0.008668 -0.000923 -0.003445 0.000000 0.000000 0.000000
# 2 -0.000923 0.010335 -0.002101 0.000000 0.000000 0.000000
# 3 -0.003445 -0.002101 0.009576 0.000000 0.000000 0.000000
# 4 0.000000 0.000000 0.000000 0.044811 0.000000 0.000000
# 5 0.000000 0.000000 0.000000 0.000000 0.286354 0.000000
# 6 0.000000 0.000000 0.000000 0.000000 0.000000 0.022047
#
#
# Mechanical properties :
#
#
# Convention : Reuss Voigt Hill
#
# Bulk Modulus (GPa) = 63.93507 66.53409 65.23458
# Shear Modulus (GPa) = 12.50177 31.94149 22.22163
#
# Velocity S-wave (km/s) = 2.49998 3.99602 3.33302
# Velocity P-wave (km/s) = 6.34789 7.38598 6.88652
#
# Compressibility (1/GPa) = 0.01564087
#
# Stress axis : x y z
#
# Youngs Moduli (GPa) = 115.36114 96.75924 104.42654
#
# Poissons Ratio (x) = 0.08928 0.35976
# Poissons Ratio (y) = 0.10645 0.21945
# Poissons Ratio (z) = 0.39743 0.20334
#
# Static dielectric constant tensor:
#      x y z
#    x 1.683940 0.000000 0.000000 
#    y 0.000000 1.493910 0.000000 
#    z 0.000000 0.000000 1.770180 
# 
# From -- ./inp_files/32428.got.cif
#   From: 2010.05.17/outbox.cif.g08.bks.cpg/sg66_17_cif.got.tgz:32428.got - 2010.06.03 17:51:23.
