data_PCOD9497983
_publ_section_title
;
Structure prediction by ZEFSAII (Michael W. Deem and Ramdas Pophale) SiO2 
 PCOD9497983
Probable space group: C C C M
;
_chemical_formula_sum "Si O2"
_cell_formula_units_Z 72
_cell_length_a 14.662643
_cell_length_b 9.530822
_cell_length_c 25.842436
_cell_angle_alpha 90.000000
_cell_angle_beta 90.000000
_cell_angle_gamma 90.000000
_cell_volume 3611.403950
_symmetry_space_group_name_H-M "C C C M"
_symmetry_group_IT_number 66
_symmetry_cell_setting 'orthorhombic'
loop_
_space_group_symop_operation_xyz
x,y,z
-x,-y,z
x,-y,1/2-z
-x,y,1/2-z
-x,-y,-z
x,y,-z
-x,y,1/2+z
x,-y,1/2+z
1/2+x,1/2+y,z
1/2-x,1/2-y,z
1/2+x,1/2-y,1/2-z
1/2-x,1/2+y,1/2-z
1/2-x,1/2-y,-z
1/2+x,1/2+y,-z
1/2-x,1/2+y,1/2+z
1/2+x,1/2-y,1/2+z
loop_
_atom_site_type_symbol
_atom_site_label
_atom_site_fract_x
_atom_site_fract_y
_atom_site_fract_z
Si Si1 0.000000 0.760361 0.750000
Si Si2 0.505762 0.163694 0.132332
Si Si3 0.647139 0.304537 0.057348
Si Si4 0.598202 0.568189 0.886944
Si Si5 0.189987 0.886551 0.284734
O O1 0.008912 0.681445 0.805219
O O2 0.093404 0.847266 0.742059
O O3 0.592689 0.227898 0.102981
O O4 0.424016 0.265498 0.111079
O O5 0.500000 0.000000 0.120070
O O6 0.750000 0.250000 0.058853
O O7 0.634742 0.471993 0.066774
O O8 0.609357 0.272024 0.000000
O O9 0.500000 0.500000 0.872660
O O10 0.667121 0.549381 0.840018
O O11 0.250000 0.750000 0.290354
O O12 0.240267 0.000000 0.250000
#
# Coordination Sequence:
#
# PCOD9497983 Si02
#       5
#     8  16  16  16  16
#     4  10  22  40  58  84 124 164 202 238 292 370
#     4  10  21  37  60  87 119 154 194 246 300 353
#     4  10  22  40  62  86 114 154 203 250 299 358
#     4   9  20  38  58  79 110 153 193 237 294 360
#     4  11  22  35  55  83 115 154 198 243 298 358
#
# _framework density 19.936844000000001
#
# number of rings (size 3 to 8) (size 9 to 14) (size 15 to 20)
#    0.000    2.000    0.000    4.667    0.000   15.111 
#    0.000    0.000    0.000    3.333    0.000    0.000 
#    0.000    0.000    0.000    0.000    0.000    0.000 
#
# Total GULP energy -200654.704961 kJ/mol
# GULP energy per Si atom -5573.741804 kJ/mol
# Density = 1.989147 g / cm^3
# Si number density = 19.936844 Si / 1000 Ang^3
#
#
#
# Elastic Constant Matrix: (Units=GPa)
#
#
# Indices 1 2 3 4 5 6 
#
# 1 41.2532 13.4936 36.7282 0.0000 0.0000 0.0000
# 2 13.4936 123.1915 51.3481 0.0000 0.0000 0.0000
# 3 36.7282 51.3481 93.5890 0.0000 0.0000 0.0000
# 4 0.0000 0.0000 0.0000 -4.0835 0.0000 0.0000
# 5 0.0000 0.0000 0.0000 0.0000 54.7654 0.0000
# 6 0.0000 0.0000 0.0000 0.0000 0.0000 6.6946
#
#
#
# Elastic Compliance Matrix: (Units=1/GPa)
#
#
# Indices 1 2 3 4 5 6 
#
# 1 0.037917 0.002657 -0.016338 0.000000 0.000000 0.000000
# 2 0.002657 0.010710 -0.006919 0.000000 0.000000 0.000000
# 3 -0.016338 -0.006919 0.020893 0.000000 0.000000 0.000000
# 4 0.000000 0.000000 0.000000 -0.244889 0.000000 0.000000
# 5 0.000000 0.000000 0.000000 0.000000 0.018260 0.000000
# 6 0.000000 0.000000 0.000000 0.000000 0.000000 0.149375
#
#
# Mechanical properties :
#
#
# Convention : Reuss Voigt Hill
#
# Bulk Modulus (GPa) = 35.31045 51.24150 43.27598
# Shear Modulus (GPa) = 116.53376 21.90623 69.22000
#
# Velocity S-wave (km/s) = 7.65365 3.31838 5.89873
# Velocity P-wave (km/s) = 9.79051 6.35924 8.25512
#
# Compressibility (1/GPa) = 0.02832023
#
# Stress axis : x y z
#
# Youngs Moduli (GPa) = 26.37311 93.36775 47.86341
#
# Poissons Ratio (x) = -0.24805 0.78199
# Poissons Ratio (y) = -0.07007 0.33116
# Poissons Ratio (z) = 0.43088 0.64600
#
# Static dielectric constant tensor:
#      x y z
#    x 1.701710 0.000000 0.000000 
#    y 0.000000 1.751490 0.000000 
#    z 0.000000 0.000000 1.697020 
# 
# From -- ./inp_files/64321.got.cif
#   From: 2010.05.17/outbox.cif.g08.bks.cpg/sg66_33_cif.got.tgz:64321.got - 2010.06.03 17:51:23.
