data_PCOD9497196
_publ_section_title
;
Structure prediction by ZEFSAII (Michael W. Deem and Ramdas Pophale) SiO2 
 PCOD9497196
Probable space group: C C C M
;
_chemical_formula_sum "Si O2"
_cell_formula_units_Z 116
_cell_length_a 21.908316
_cell_length_b 30.885053
_cell_length_c 8.604581
_cell_angle_alpha 90.000000
_cell_angle_beta 90.000000
_cell_angle_gamma 90.000000
_cell_volume 5822.199392
_symmetry_space_group_name_H-M "C C C M"
_symmetry_group_IT_number 66
_symmetry_cell_setting 'orthorhombic'
loop_
_space_group_symop_operation_xyz
x,y,z
-x,-y,z
x,-y,1/2-z
-x,y,1/2-z
-x,-y,-z
x,y,-z
-x,y,1/2+z
x,-y,1/2+z
1/2+x,1/2+y,z
1/2-x,1/2-y,z
1/2+x,1/2-y,1/2-z
1/2-x,1/2+y,1/2-z
1/2-x,1/2-y,-z
1/2+x,1/2+y,-z
1/2-x,1/2+y,1/2+z
1/2+x,1/2-y,1/2+z
loop_
_atom_site_type_symbol
_atom_site_label
_atom_site_fract_x
_atom_site_fract_y
_atom_site_fract_z
Si Si1 0.881776 0.304266 0.815139
Si Si2 0.186490 0.952462 0.685914
Si Si3 0.327705 0.047516 0.186617
Si Si4 0.753347 0.331252 0.327108
Si Si5 0.250000 0.250000 0.000000
Si Si6 0.139621 0.132080 0.679694
Si Si7 0.068669 0.213822 0.185537
Si Si8 0.936664 0.388044 0.687360
O O1 0.820640 0.321001 0.730304
O O2 0.899683 0.256645 0.756684
O O3 0.929962 0.340695 0.763511
O O4 0.874379 0.303869 0.000000
O O5 0.184684 0.952770 0.500000
O O6 0.257470 0.943106 0.734353
O O7 0.140962 0.915848 0.748844
O O8 0.172038 0.000000 0.750000
O O9 0.377915 0.082971 0.234156
O O10 0.343416 0.000000 0.250000
O O11 0.328570 0.045813 0.000000
O O12 0.755685 0.353523 0.500000
O O13 0.726792 0.284197 0.368285
O O14 0.709785 0.353430 0.206309
O O15 0.123073 0.131499 0.500000
O O16 0.100465 0.168718 0.766025
O O17 0.000000 0.213234 0.250000
O O18 0.069245 0.218043 0.000000
O O19 0.937477 0.384583 0.500000
O O20 0.000000 0.407519 0.750000
#
# Coordination Sequence:
#
# PCOD9497196 Si02
#       8
#    16  16  16  16   4  16  16  16
#     4  12  24  39  61  88 119 158 204 255 306 362
#     4  10  20  38  63  94 126 159 196 246 310 373
#     4   9  20  37  60  85 115 152 196 245 304 363
#     4  10  20  36  58  86 118 158 197 243 301 356
#     4   8  20  32  54  76 116 148 194 228 296 346
#     4  12  24  39  63  95 127 162 205 253 302 365
#     4  12  26  45  65  87 119 161 206 252 299 356
#     4  11  23  39  56  80 114 158 207 257 306 361
#
# _framework density 19.923743000000002
#
# number of rings (size 3 to 8) (size 9 to 14) (size 15 to 20)
#    0.414    0.828    0.000    7.034    1.931    3.034 
#    0.000    3.448    0.000    0.414    0.000    2.897 
#    0.000    0.000    0.000    0.000    0.000    0.000 
#
# Total GULP energy -323388.002941 kJ/mol
# GULP energy per Si atom -5575.655223 kJ/mol
# Density = 1.987840 g / cm^3
# Si number density = 19.923743 Si / 1000 Ang^3
#
#
#
# Elastic Constant Matrix: (Units=GPa)
#
#
# Indices 1 2 3 4 5 6 
#
# 1 56.0988 13.5272 2.7150 0.0000 0.0000 0.0000
# 2 13.5272 110.3132 13.9558 0.0000 0.0000 0.0000
# 3 2.7150 13.9558 81.0361 0.0000 0.0000 0.0000
# 4 0.0000 0.0000 0.0000 25.9042 0.0000 0.0000
# 5 0.0000 0.0000 0.0000 0.0000 28.3681 0.0000
# 6 0.0000 0.0000 0.0000 0.0000 0.0000 18.2008
#
#
#
# Elastic Compliance Matrix: (Units=1/GPa)
#
#
# Indices 1 2 3 4 5 6 
#
# 1 0.018373 -0.002224 -0.000233 0.000000 0.000000 0.000000
# 2 -0.002224 0.009536 -0.001568 0.000000 0.000000 0.000000
# 3 -0.000233 -0.001568 0.012618 0.000000 0.000000 0.000000
# 4 0.000000 0.000000 0.000000 0.038604 0.000000 0.000000
# 5 0.000000 0.000000 0.000000 0.000000 0.035251 0.000000
# 6 0.000000 0.000000 0.000000 0.000000 0.000000 0.054943
#
#
# Mechanical properties :
#
#
# Convention : Reuss Voigt Hill
#
# Bulk Modulus (GPa) = 30.78891 34.20489 32.49690
# Shear Modulus (GPa) = 26.56763 28.97796 27.77280
#
# Velocity S-wave (km/s) = 3.65563 3.81785 3.73762
# Velocity P-wave (km/s) = 5.77105 6.05309 5.91375
#
# Compressibility (1/GPa) = 0.03247923
#
# Stress axis : x y z
#
# Youngs Moduli (GPa) = 54.42728 104.86456 79.25208
#
# Poissons Ratio (x) = 0.23318 0.01844
# Poissons Ratio (y) = 0.12102 0.12425
# Poissons Ratio (z) = 0.01266 0.16440
#
# Static dielectric constant tensor:
#      x y z
#    x 1.753060 0.000000 0.000000 
#    y 0.000000 1.729160 0.000000 
#    z 0.000000 0.000000 1.648240 
# 
# From -- ./inp_files/9644.got.cif
#   From: 2010.05.17/outbox.cif.g08.bks.cpg/sg66_5_cif.got.tgz:9644.got - 2010.06.03 17:51:23.
