data_PCOD9497910
_publ_section_title
;
Structure prediction by ZEFSAII (Michael W. Deem and Ramdas Pophale) SiO2 
 PCOD9497910
Probable space group: C C C M
;
_chemical_formula_sum "Si O2"
_cell_formula_units_Z 52
_cell_length_a 13.009709
_cell_length_b 7.411138
_cell_length_c 19.790453
_cell_angle_alpha 90.000000
_cell_angle_beta 90.000000
_cell_angle_gamma 90.000000
_cell_volume 1908.131134
_symmetry_space_group_name_H-M "C C C M"
_symmetry_group_IT_number 66
_symmetry_cell_setting 'orthorhombic'
loop_
_space_group_symop_operation_xyz
x,y,z
-x,-y,z
x,-y,1/2-z
-x,y,1/2-z
-x,-y,-z
x,y,-z
-x,y,1/2+z
x,-y,1/2+z
1/2+x,1/2+y,z
1/2-x,1/2-y,z
1/2+x,1/2-y,1/2-z
1/2-x,1/2+y,1/2-z
1/2-x,1/2-y,-z
1/2+x,1/2+y,-z
1/2-x,1/2+y,1/2+z
1/2+x,1/2-y,1/2+z
loop_
_atom_site_type_symbol
_atom_site_label
_atom_site_fract_x
_atom_site_fract_y
_atom_site_fract_z
Si Si1 0.615418 0.916876 0.849774
Si Si2 0.833629 0.995419 0.154790
Si Si3 0.620100 0.998163 0.000000
Si Si4 0.000000 0.000000 0.750000
Si Si5 0.884684 0.079205 0.000000
O O1 0.715178 0.029390 0.825084
O O2 0.633280 0.711250 0.828301
O O3 0.500000 0.000000 0.840113
O O4 0.642240 0.904860 0.929904
O O5 0.920893 0.098316 0.197528
O O6 0.845993 0.023315 0.074491
O O7 0.500000 0.000000 0.000000
O O8 0.641403 0.209120 0.000000
O O9 0.000000 0.000000 0.000000
#
# Coordination Sequence:
#
# PCOD9497910 Si02
#       5
#    16  16   8   4   8
#     4  10  22  46  69 108 140 184 230 291 357 423
#     4  11  25  46  73 102 145 187 233 294 353 423
#     4  10  21  36  69 112 146 168 233 293 351 424
#     4  12  28  50  64 104 140 186 246 290 344 422
#     4  12  21  40  74 109 140 187 231 290 358 420
#
# _framework density 27.251797
#
# number of rings (size 3 to 8) (size 9 to 14) (size 15 to 20)
#    0.000    1.231    1.538    5.538    0.000    4.923 
#   11.077    0.000    0.000    0.000    0.000    0.000 
#    0.000    0.000    0.000    0.000    0.000    0.000 
#
# Total GULP energy -145029.577456 kJ/mol
# GULP energy per Si atom -5578.060671 kJ/mol
# Density = 2.718977 g / cm^3
# Si number density = 27.251797 Si / 1000 Ang^3
#
#
#
# Elastic Constant Matrix: (Units=GPa)
#
#
# Indices 1 2 3 4 5 6 
#
# 1 274.4304 33.8094 63.9090 0.0000 0.0000 0.0000
# 2 33.8094 111.7298 15.2596 0.0000 0.0000 0.0000
# 3 63.9090 15.2596 186.1869 0.0000 0.0000 0.0000
# 4 0.0000 0.0000 0.0000 16.2644 0.0000 0.0000
# 5 0.0000 0.0000 0.0000 0.0000 -244.4226 0.0000
# 6 0.0000 0.0000 0.0000 0.0000 0.0000 32.6410
#
#
#
# Elastic Compliance Matrix: (Units=1/GPa)
#
#
# Indices 1 2 3 4 5 6 
#
# 1 0.004080 -0.001055 -0.001314 0.000000 0.000000 0.000000
# 2 -0.001055 0.009324 -0.000402 0.000000 0.000000 0.000000
# 3 -0.001314 -0.000402 0.005855 0.000000 0.000000 0.000000
# 4 0.000000 0.000000 0.000000 0.061484 0.000000 0.000000
# 5 0.000000 0.000000 0.000000 0.000000 -0.004091 0.000000
# 6 0.000000 0.000000 0.000000 0.000000 0.000000 0.030636
#
#
# Mechanical properties :
#
#
# Convention : Reuss Voigt Hill
#
# Bulk Modulus (GPa) = 72.90263 88.70038 80.80150
# Shear Modulus (GPa) = 42.58851 -8.47883 17.05484
#
# Velocity S-wave (km/s) = 3.95749 -1.76580 2.50436
# Velocity P-wave (km/s) = 6.90593 5.33495 6.17064
#
# Compressibility (1/GPa) = 0.01371693
#
# Stress axis : x y z
#
# Youngs Moduli (GPa) = 245.10449 107.24608 170.79670
#
# Poissons Ratio (x) = 0.11316 0.22442
# Poissons Ratio (y) = 0.25861 0.06867
# Poissons Ratio (z) = 0.32206 0.04312
#
# Static dielectric constant tensor:
#      x y z
#    x 2.239860 0.000000 0.000000 
#    y 0.000000 2.257550 0.000000 
#    z 0.000000 0.000000 1.918400 
# 
# From -- ./inp_files/49407.got.cif
#   From: 2010.05.17/outbox.cif.g08.bks.cpg/sg66_25_cif.got.tgz:49407.got - 2010.06.03 17:51:23.
