data_PCOD9497142
_publ_section_title
;
Structure prediction by ZEFSAII (Michael W. Deem and Ramdas Pophale) SiO2 
 PCOD9497142
Probable space group: C C C M
;
_chemical_formula_sum "Si O2"
_cell_formula_units_Z 80
_cell_length_a 24.897154
_cell_length_b 5.542100
_cell_length_c 32.629793
_cell_angle_alpha 90.000000
_cell_angle_beta 90.000000
_cell_angle_gamma 90.000000
_cell_volume 4502.340973
_symmetry_space_group_name_H-M "C C C M"
_symmetry_group_IT_number 66
_symmetry_cell_setting 'orthorhombic'
loop_
_space_group_symop_operation_xyz
x,y,z
-x,-y,z
x,-y,1/2-z
-x,y,1/2-z
-x,-y,-z
x,y,-z
-x,y,1/2+z
x,-y,1/2+z
1/2+x,1/2+y,z
1/2-x,1/2-y,z
1/2+x,1/2-y,1/2-z
1/2-x,1/2+y,1/2-z
1/2-x,1/2-y,-z
1/2+x,1/2+y,-z
1/2-x,1/2+y,1/2+z
1/2+x,1/2-y,1/2+z
loop_
_atom_site_type_symbol
_atom_site_label
_atom_site_fract_x
_atom_site_fract_y
_atom_site_fract_z
Si Si1 0.216584 0.000200 0.500000
Si Si2 0.521580 0.751167 0.797445
Si Si3 0.853036 0.661504 0.791251
Si Si4 0.281364 0.500000 0.750000
Si Si5 0.812005 0.496461 0.125222
Si Si6 0.687511 0.502223 0.907444
O O1 0.250000 0.750000 0.500000
O O2 0.250000 0.250000 0.500000
O O3 0.187017 0.000826 0.543478
O O4 0.500000 0.500000 0.815329
O O5 0.500000 0.751148 0.750000
O O6 0.585600 0.769497 0.798826
O O7 0.500000 0.000000 0.816271
O O8 0.852922 0.500000 0.750000
O O9 0.822213 0.516987 0.826581
O O10 0.820037 0.909630 0.786000
O O11 0.250000 0.750000 0.758956
O O12 0.749669 0.499670 0.109828
O O13 0.836238 0.247068 0.109087
O O14 0.836204 0.745445 0.107781
#
# Coordination Sequence:
#
# PCOD9497142 Si02
#       6
#     8  16  16   8  16  16
#     4  12  16  32  60  74  96 142 202 210 276 328
#     4  10  20  38  61  78  97 122 193 255 297 331
#     4  12  26  40  59  79 106 158 200 236 290 335
#     4  12  28  38  51  74 105 154 204 230 256 330
#     4  10  22  32  50  72 113 135 188 222 276 306
#     4  10  20  36  49  79 104 152 174 235 262 325
#
# _framework density 17.768533000000001
#
# number of rings (size 3 to 8) (size 9 to 14) (size 15 to 20)
#    0.000    1.200    7.000    1.200    5.600    1.600 
#    0.000    0.000    0.000    0.000    0.000    0.000 
#    0.000    0.000    0.000   30.600    0.000    0.000 
#
# Total GULP energy -222873.297328 kJ/mol
# GULP energy per Si atom -5571.832433 kJ/mol
# Density = 1.772809 g / cm^3
# Si number density = 17.768533 Si / 1000 Ang^3
#
#
#
# Elastic Constant Matrix: (Units=GPa)
#
#
# Indices 1 2 3 4 5 6 
#
# 1 83.2361 30.0579 9.8446 0.0000 0.0000 0.0000
# 2 30.0579 205.5000 39.9448 0.0000 0.0000 0.0000
# 3 9.8446 39.9448 110.2214 0.0000 0.0000 0.0000
# 4 0.0000 0.0000 0.0000 32.0036 0.0000 0.0000
# 5 0.0000 0.0000 0.0000 0.0000 3.3343 0.0000
# 6 0.0000 0.0000 0.0000 0.0000 0.0000 16.1082
#
#
#
# Elastic Compliance Matrix: (Units=1/GPa)
#
#
# Indices 1 2 3 4 5 6 
#
# 1 0.012709 -0.001762 -0.000496 0.000000 0.000000 0.000000
# 2 -0.001762 0.005479 -0.001828 0.000000 0.000000 0.000000
# 3 -0.000496 -0.001828 0.009780 0.000000 0.000000 0.000000
# 4 0.000000 0.000000 0.000000 0.031247 0.000000 0.000000
# 5 0.000000 0.000000 0.000000 0.000000 0.299910 0.000000
# 6 0.000000 0.000000 0.000000 0.000000 0.000000 0.062080
#
#
# Mechanical properties :
#
#
# Convention : Reuss Voigt Hill
#
# Bulk Modulus (GPa) = 50.52108 62.07248 56.29678
# Shear Modulus (GPa) = 11.46848 31.56322 21.51585
#
# Velocity S-wave (km/s) = 2.54330 4.21926 3.48357
# Velocity P-wave (km/s) = 6.09255 7.66459 6.92333
#
# Compressibility (1/GPa) = 0.01979372
#
# Stress axis : x y z
#
# Youngs Moduli (GPa) = 78.68327 182.50321 102.25386
#
# Poissons Ratio (x) = 0.32165 0.05076
# Poissons Ratio (y) = 0.13867 0.18695
# Poissons Ratio (z) = 0.03906 0.33368
#
# Static dielectric constant tensor:
#      x y z
#    x 1.609850 0.000000 0.000000 
#    y 0.000000 1.662930 0.000000 
#    z 0.000000 0.000000 1.675360 
# 
# From -- ./inp_files/70527.got.cif
#   From: 2010.05.17/outbox.cif.g08.bks.cpg/sg66_36_cif.got.tgz:70527.got - 2010.06.03 17:51:23.
