data_PCOD9497047
_publ_section_title
;
Structure prediction by ZEFSAII (Michael W. Deem and Ramdas Pophale) SiO2 
 PCOD9497047
Probable space group: C C C M
;
_chemical_formula_sum "Si O2"
_cell_formula_units_Z 96
_cell_length_a 11.928877
_cell_length_b 22.878410
_cell_length_c 14.520386
_cell_angle_alpha 90.000000
_cell_angle_beta 90.000000
_cell_angle_gamma 90.000000
_cell_volume 3962.812833
_symmetry_space_group_name_H-M "C C C M"
_symmetry_group_IT_number 66
_symmetry_cell_setting 'orthorhombic'
loop_
_space_group_symop_operation_xyz
x,y,z
-x,-y,z
x,-y,1/2-z
-x,y,1/2-z
-x,-y,-z
x,y,-z
-x,y,1/2+z
x,-y,1/2+z
1/2+x,1/2+y,z
1/2-x,1/2-y,z
1/2+x,1/2-y,1/2-z
1/2-x,1/2+y,1/2-z
1/2-x,1/2-y,-z
1/2+x,1/2+y,-z
1/2-x,1/2+y,1/2+z
1/2+x,1/2-y,1/2+z
loop_
_atom_site_type_symbol
_atom_site_label
_atom_site_fract_x
_atom_site_fract_y
_atom_site_fract_z
Si Si1 0.528044 0.869113 0.892594
Si Si2 0.234048 0.872694 0.391829
Si Si3 0.624105 0.514444 0.112203
Si Si4 0.415394 0.733922 0.357387
Si Si5 0.281961 0.092603 0.613200
Si Si6 0.152944 0.207694 0.651325
O O1 0.645456 0.888550 0.849570
O O2 0.549869 0.799059 0.887528
O O3 0.410579 0.894098 0.857972
O O4 0.525425 0.885154 0.000000
O O5 0.246732 0.883902 0.500000
O O6 0.188167 0.806791 0.388211
O O7 0.148687 0.920064 0.354973
O O8 0.500000 0.500000 0.143859
O O9 0.722004 0.468442 0.137164
O O10 0.621500 0.513246 0.000000
O O11 0.528668 0.700401 0.389533
O O12 0.383445 0.735928 0.249011
O O13 0.276819 0.098647 0.500000
O O14 0.209378 0.145021 0.656002
O O15 0.250000 0.250000 0.610531
#
# Coordination Sequence:
#
# PCOD9497047 Si02
#       6
#    16  16  16  16  16  16
#     4  10  20  35  57  86 118 151 193 247 293 349
#     4  10  20  35  57  83 113 153 196 239 294 352
#     4   9  18  34  56  82 114 151 194 246 297 346
#     4  11  22  36  56  82 116 153 192 236 295 355
#     4  10  21  37  58  85 116 152 197 246 297 348
#     4  11  22  37  55  81 112 150 190 238 293 350
#
# _framework density 24.225217000000001
#
# number of rings (size 3 to 8) (size 9 to 14) (size 15 to 20)
#    0.000    1.833    1.667    3.000    0.000    5.000 
#    0.000    4.167    0.000    3.000    0.000    2.333 
#    0.000    0.000    0.000    0.000    0.000    0.000 
#
# Total GULP energy -267573.573141 kJ/mol
# GULP energy per Si atom -5574.449440 kJ/mol
# Density = 2.417008 g / cm^3
# Si number density = 24.225217 Si / 1000 Ang^3
#
#
#
# Elastic Constant Matrix: (Units=GPa)
#
#
# Indices 1 2 3 4 5 6 
#
# 1 200.7590 58.6316 3.4002 0.0000 0.0000 0.0000
# 2 58.6316 106.8425 -14.9065 0.0000 0.0000 0.0000
# 3 3.4002 -14.9065 69.1250 0.0000 0.0000 0.0000
# 4 0.0000 0.0000 0.0000 -267.3136 0.0000 0.0000
# 5 0.0000 0.0000 0.0000 0.0000 14.2482 0.0000
# 6 0.0000 0.0000 0.0000 0.0000 0.0000 46.0670
#
#
#
# Elastic Compliance Matrix: (Units=1/GPa)
#
#
# Indices 1 2 3 4 5 6 
#
# 1 0.006003 -0.003439 -0.001037 0.000000 0.000000 0.000000
# 2 -0.003439 0.011620 0.002675 0.000000 0.000000 0.000000
# 3 -0.001037 0.002675 0.015094 0.000000 0.000000 0.000000
# 4 0.000000 0.000000 0.000000 -0.003741 0.000000 0.000000
# 5 0.000000 0.000000 0.000000 0.000000 0.070184 0.000000
# 6 0.000000 0.000000 0.000000 0.000000 0.000000 0.021708
#
#
# Mechanical properties :
#
#
# Convention : Reuss Voigt Hill
#
# Bulk Modulus (GPa) = 34.34577 52.33079 43.33828
# Shear Modulus (GPa) = 37.26473 -19.42628 8.91923
#
# Velocity S-wave (km/s) = 3.92632 -2.83486 1.92088
# Velocity P-wave (km/s) = 5.89603 3.30657 4.77999
#
# Compressibility (1/GPa) = 0.02911567
#
# Stress axis : x y z
#
# Youngs Moduli (GPa) = 166.58374 86.05902 66.24978
#
# Poissons Ratio (x) = 0.29595 0.06869
# Poissons Ratio (y) = 0.57287 -0.17721
# Poissons Ratio (z) = 0.17273 -0.23020
#
# Static dielectric constant tensor:
#      x y z
#    x 2.075000 0.000000 0.000000 
#    y 0.000000 1.910740 0.000000 
#    z 0.000000 0.000000 2.043480 
# 
# From -- ./inp_files/48808.got.cif
#   From: 2010.05.17/outbox.cif.g08.bks.cpg/sg66_25_cif.got.tgz:48808.got - 2010.06.03 17:51:23.
