data_PCOD9497298
_publ_section_title
;
Structure prediction by ZEFSAII (Michael W. Deem and Ramdas Pophale) SiO2 
 PCOD9497298
Probable space group: C C C M
;
_chemical_formula_sum "Si O2"
_cell_formula_units_Z 64
_cell_length_a 21.356640
_cell_length_b 9.261828
_cell_length_c 14.946042
_cell_angle_alpha 90.000000
_cell_angle_beta 90.000000
_cell_angle_gamma 90.000000
_cell_volume 2956.349920
_symmetry_space_group_name_H-M "C C C M"
_symmetry_group_IT_number 66
_symmetry_cell_setting 'orthorhombic'
loop_
_space_group_symop_operation_xyz
x,y,z
-x,-y,z
x,-y,1/2-z
-x,y,1/2-z
-x,-y,-z
x,y,-z
-x,y,1/2+z
x,-y,1/2+z
1/2+x,1/2+y,z
1/2-x,1/2-y,z
1/2+x,1/2-y,1/2-z
1/2-x,1/2+y,1/2-z
1/2-x,1/2-y,-z
1/2+x,1/2+y,-z
1/2-x,1/2+y,1/2+z
1/2+x,1/2-y,1/2+z
loop_
_atom_site_type_symbol
_atom_site_label
_atom_site_fract_x
_atom_site_fract_y
_atom_site_fract_z
Si Si1 0.941131 0.601717 0.891380
Si Si2 0.438785 0.570728 0.347497
Si Si3 0.323513 0.085761 0.390501
Si Si4 0.815987 0.088387 0.894874
O O1 0.946680 0.758647 0.848713
O O2 0.877865 0.521581 0.861674
O O3 0.000000 0.500000 0.870847
O O4 0.939827 0.621431 0.000000
O O5 0.500000 0.500000 0.393512
O O6 0.437120 0.500000 0.250000
O O7 0.371640 0.524468 0.385524
O O8 0.326685 0.083007 0.500000
O O9 0.252985 0.045114 0.361263
O O10 0.334197 0.251789 0.360045
O O11 0.806560 0.110713 0.000000
#
# Coordination Sequence:
#
# PCOD9497298 Si02
#       4
#    16  16  16  16
#     4  10  20  36  62  91 114 143 189 241 290 341
#     4  11  24  39  52  76 115 152 190 233 283 342
#     4   8  16  32  56  87 115 140 179 233 285 327
#     4   9  17  34  59  82 111 149 186 228 278 334
#
# _framework density 21.648316999999999
#
# number of rings (size 3 to 8) (size 9 to 14) (size 15 to 20)
#    0.000    2.500    0.000    3.750    0.000    5.000 
#    0.000   17.500    0.000    0.000    0.000    0.000 
#    0.000    0.000    0.000    0.000    0.000    0.000 
#
# Total GULP energy -178626.866264 kJ/mol
# GULP energy per Si atom -5582.089571 kJ/mol
# Density = 2.159904 g / cm^3
# Si number density = 21.648317 Si / 1000 Ang^3
#
#
#
# Elastic Constant Matrix: (Units=GPa)
#
#
# Indices 1 2 3 4 5 6 
#
# 1 171.6364 123.4615 10.6116 0.0000 0.0000 0.0000
# 2 123.4615 195.8225 25.4693 0.0000 0.0000 0.0000
# 3 10.6116 25.4693 45.2595 0.0000 0.0000 0.0000
# 4 0.0000 0.0000 0.0000 18.6655 0.0000 0.0000
# 5 0.0000 0.0000 0.0000 0.0000 37.9278 0.0000
# 6 0.0000 0.0000 0.0000 0.0000 0.0000 43.8288
#
#
#
# Elastic Compliance Matrix: (Units=1/GPa)
#
#
# Indices 1 2 3 4 5 6 
#
# 1 0.010742 -0.006954 0.001395 0.000000 0.000000 0.000000
# 2 -0.006954 0.010012 -0.004004 0.000000 0.000000 0.000000
# 3 0.001395 -0.004004 0.024021 0.000000 0.000000 0.000000
# 4 0.000000 0.000000 0.000000 0.053575 0.000000 0.000000
# 5 0.000000 0.000000 0.000000 0.000000 0.026366 0.000000
# 6 0.000000 0.000000 0.000000 0.000000 0.000000 0.022816
#
#
# Mechanical properties :
#
#
# Convention : Reuss Voigt Hill
#
# Bulk Modulus (GPa) = 38.98802 81.31145 60.14973
# Shear Modulus (GPa) = 28.53761 36.96282 32.75021
#
# Velocity S-wave (km/s) = 3.63469 4.13658 3.89373
# Velocity P-wave (km/s) = 5.97189 7.77539 6.93254
#
# Compressibility (1/GPa) = 0.02564890
#
# Stress axis : x y z
#
# Youngs Moduli (GPa) = 93.08973 99.88183 41.63062
#
# Poissons Ratio (x) = 0.69460 -0.05806
# Poissons Ratio (y) = 0.64736 0.16667
# Poissons Ratio (z) = -0.12984 0.39988
#
# Static dielectric constant tensor:
#      x y z
#    x 1.847450 0.000000 0.000000 
#    y 0.000000 1.901670 0.000000 
#    z 0.000000 0.000000 1.901550 
# 
# From -- ./inp_files/31890.got.cif
#   From: 2010.05.17/outbox.cif.g08.bks.cpg/sg66_16_cif.got.tgz:31890.got - 2010.06.03 17:51:23.
