data_PCOD9497510
_publ_section_title
;
Structure prediction by ZEFSAII (Michael W. Deem and Ramdas Pophale) SiO2 
 PCOD9497510
Probable space group: C C C M
;
_chemical_formula_sum "Si O2"
_cell_formula_units_Z 104
_cell_length_a 20.483299
_cell_length_b 28.563824
_cell_length_c 9.103166
_cell_angle_alpha 90.000000
_cell_angle_beta 90.000000
_cell_angle_gamma 90.000000
_cell_volume 5326.092630
_symmetry_space_group_name_H-M "C C C M"
_symmetry_group_IT_number 66
_symmetry_cell_setting 'orthorhombic'
loop_
_space_group_symop_operation_xyz
x,y,z
-x,-y,z
x,-y,1/2-z
-x,y,1/2-z
-x,-y,-z
x,y,-z
-x,y,1/2+z
x,-y,1/2+z
1/2+x,1/2+y,z
1/2-x,1/2-y,z
1/2+x,1/2-y,1/2-z
1/2-x,1/2+y,1/2-z
1/2-x,1/2-y,-z
1/2+x,1/2+y,-z
1/2-x,1/2+y,1/2+z
1/2+x,1/2-y,1/2+z
loop_
_atom_site_type_symbol
_atom_site_label
_atom_site_fract_x
_atom_site_fract_y
_atom_site_fract_z
Si Si1 0.898141 0.722003 0.729251
Si Si2 0.515371 0.235900 0.500000
Si Si3 0.307243 0.144120 0.176489
Si Si4 0.738954 0.049428 0.172456
Si Si5 0.603285 0.450786 0.173775
Si Si6 0.434116 0.643212 0.323397
Si Si7 0.187510 0.806789 0.829372
O O1 0.958346 0.724833 0.621119
O O2 0.871867 0.670015 0.764190
O O3 0.836724 0.753261 0.676237
O O4 0.928165 0.743231 0.875591
O O5 0.294187 0.093215 0.246147
O O6 0.247715 0.176870 0.231004
O O7 0.308700 0.141627 0.000000
O O8 0.817804 0.055203 0.181137
O O9 0.723194 0.000000 0.250000
O O10 0.721725 0.048488 0.000000
O O11 0.587570 0.500000 0.250000
O O12 0.571774 0.410626 0.272814
O O13 0.585056 0.448282 0.000000
O O14 0.500000 0.662675 0.250000
O O15 0.434781 0.648099 0.500000
O O16 0.373894 0.666298 0.239786
O O17 0.198554 0.820062 0.000000
#
# Coordination Sequence:
#
# PCOD9497510 Si02
#       7
#    16   8  16  16  16  16  16
#     4  11  25  43  69  93 133 171 220 264 323 382
#     4  10  24  46  66  96 125 174 219 266 318 390
#     4  12  25  41  65 100 135 170 215 268 325 378
#     4  10  21  38  65  94 131 168 210 262 322 386
#     4  10  20  38  60  84 116 156 206 261 318 378
#     4  12  26  40  59  84 118 165 214 265 319 377
#     4  12  26  41  63  92 130 171 220 269 319 376
#
# _framework density 19.526510999999999
#
# number of rings (size 3 to 8) (size 9 to 14) (size 15 to 20)
#    0.000    0.923    3.077    3.692    6.462    2.769 
#    0.000    1.538    0.000    0.000    0.000    3.231 
#    0.000    0.000    0.000    0.000    0.000    0.000 
#
# Total GULP energy -289566.998395 kJ/mol
# GULP energy per Si atom -5568.596123 kJ/mol
# Density = 1.948207 g / cm^3
# Si number density = 19.526511 Si / 1000 Ang^3
#
#
#
# Elastic Constant Matrix: (Units=GPa)
#
#
# Indices 1 2 3 4 5 6 
#
# 1 24.6662 18.2124 -4.2806 0.0000 0.0000 0.0000
# 2 18.2124 93.9147 20.3436 0.0000 0.0000 0.0000
# 3 -4.2806 20.3436 146.4733 0.0000 0.0000 0.0000
# 4 0.0000 0.0000 0.0000 53.1261 0.0000 0.0000
# 5 0.0000 0.0000 0.0000 0.0000 43.3230 0.0000
# 6 0.0000 0.0000 0.0000 0.0000 0.0000 21.4534
#
#
#
# Elastic Compliance Matrix: (Units=1/GPa)
#
#
# Indices 1 2 3 4 5 6 
#
# 1 0.048407 -0.009995 0.002803 0.000000 0.000000 0.000000
# 2 -0.009995 0.013042 -0.002103 0.000000 0.000000 0.000000
# 3 0.002803 -0.002103 0.007201 0.000000 0.000000 0.000000
# 4 0.000000 0.000000 0.000000 0.018823 0.000000 0.000000
# 5 0.000000 0.000000 0.000000 0.000000 0.023082 0.000000
# 6 0.000000 0.000000 0.000000 0.000000 0.000000 0.046613
#
#
# Mechanical properties :
#
#
# Convention : Reuss Voigt Hill
#
# Bulk Modulus (GPa) = 19.97604 37.06723 28.52164
# Shear Modulus (GPa) = 25.98137 38.96575 32.47356
#
# Velocity S-wave (km/s) = 3.65165 4.47198 4.08247
# Velocity P-wave (km/s) = 5.29451 6.75937 6.07128
#
# Compressibility (1/GPa) = 0.05005996
#
# Stress axis : x y z
#
# Youngs Moduli (GPa) = 20.65806 76.67655 138.86495
#
# Poissons Ratio (x) = 0.76635 -0.38921
# Poissons Ratio (y) = 0.20647 0.29210
# Poissons Ratio (z) = -0.05790 0.16129
#
# Static dielectric constant tensor:
#      x y z
#    x 1.695020 0.000000 0.000000 
#    y 0.000000 1.774610 0.000000 
#    z 0.000000 0.000000 1.642350 
# 
# From -- ./inp_files/8162.got.cif
#   From: 2010.05.17/outbox.cif.g08.bks.cpg/sg66_5_cif.got.tgz:8162.got - 2010.06.03 17:51:23.
