data_PCOD9497710
_publ_section_title
;
Structure prediction by ZEFSAII (Michael W. Deem and Ramdas Pophale) SiO2 
 PCOD9497710
Probable space group: C C C M
;
_chemical_formula_sum "Si O2"
_cell_formula_units_Z 68
_cell_length_a 16.198034
_cell_length_b 14.781648
_cell_length_c 13.149242
_cell_angle_alpha 90.000000
_cell_angle_beta 90.000000
_cell_angle_gamma 90.000000
_cell_volume 3148.370834
_symmetry_space_group_name_H-M "C C C M"
_symmetry_group_IT_number 66
_symmetry_cell_setting 'orthorhombic'
loop_
_space_group_symop_operation_xyz
x,y,z
-x,-y,z
x,-y,1/2-z
-x,y,1/2-z
-x,-y,-z
x,y,-z
-x,y,1/2+z
x,-y,1/2+z
1/2+x,1/2+y,z
1/2-x,1/2-y,z
1/2+x,1/2-y,1/2-z
1/2-x,1/2+y,1/2-z
1/2-x,1/2-y,-z
1/2+x,1/2+y,-z
1/2-x,1/2+y,1/2+z
1/2+x,1/2-y,1/2+z
loop_
_atom_site_type_symbol
_atom_site_label
_atom_site_fract_x
_atom_site_fract_y
_atom_site_fract_z
Si Si1 0.282254 0.354376 0.500000
Si Si2 0.569961 0.294778 0.677502
Si Si3 0.000000 0.500000 0.250000
Si Si4 0.271100 0.642367 0.775652
Si Si5 0.022493 0.895452 0.000000
Si Si6 0.635856 0.894911 0.117911
O O1 0.250000 0.250000 0.500000
O O2 0.254636 0.392379 0.609840
O O3 0.381346 0.366908 0.500000
O O4 0.500000 0.253478 0.750000
O O5 0.633895 0.355762 0.741301
O O6 0.521540 0.353283 0.597103
O O7 0.616484 0.212615 0.622875
O O8 0.939420 0.555750 0.175204
O O9 0.250000 0.750000 0.778814
O O10 0.216079 0.596137 0.689506
O O11 0.000000 0.000000 0.000000
O O12 0.645355 0.922127 0.000000
#
# Coordination Sequence:
#
# PCOD9497710 Si02
#       6
#     8  16   4  16   8  16
#     4  10  20  42  66  97 142 186 237 284 351 428
#     4  11  21  42  72  95 135 187 232 280 360 433
#     4  12  26  48  68 106 132 174 232 292 354 424
#     4   9  21  39  67  99 130 182 236 279 340 429
#     4  12  26  42  67 105 138 187 246 306 347 423
#     4  11  24  44  70 101 137 175 230 291 359 425
#
# _framework density 21.598471
#
# number of rings (size 3 to 8) (size 9 to 14) (size 15 to 20)
#    0.000    1.412    4.706    0.353    1.647    1.882 
#    8.471    0.000    0.000    0.000    0.000    0.000 
#    0.000    0.000    0.000    0.000    0.000    0.000 
#
# Total GULP energy -189845.668538 kJ/mol
# GULP energy per Si atom -5583.696133 kJ/mol
# Density = 2.154931 g / cm^3
# Si number density = 21.598471 Si / 1000 Ang^3
#
#
#
# Elastic Constant Matrix: (Units=GPa)
#
#
# Indices 1 2 3 4 5 6 
#
# 1 118.8979 18.8986 71.1927 0.0000 0.0000 0.0000
# 2 18.8986 71.8667 37.2458 0.0000 0.0000 0.0000
# 3 71.1927 37.2458 226.7759 0.0000 0.0000 0.0000
# 4 0.0000 0.0000 0.0000 19.7786 0.0000 0.0000
# 5 0.0000 0.0000 0.0000 0.0000 39.2925 0.0000
# 6 0.0000 0.0000 0.0000 0.0000 0.0000 13.3692
#
#
#
# Elastic Compliance Matrix: (Units=1/GPa)
#
#
# Indices 1 2 3 4 5 6 
#
# 1 0.010443 -0.001144 -0.003090 0.000000 0.000000 0.000000
# 2 -0.001144 0.015335 -0.002159 0.000000 0.000000 0.000000
# 3 -0.003090 -0.002159 0.005734 0.000000 0.000000 0.000000
# 4 0.000000 0.000000 0.000000 0.050560 0.000000 0.000000
# 5 0.000000 0.000000 0.000000 0.000000 0.025450 0.000000
# 6 0.000000 0.000000 0.000000 0.000000 0.000000 0.074799
#
#
# Mechanical properties :
#
#
# Convention : Reuss Voigt Hill
#
# Bulk Modulus (GPa) = 53.40824 74.69051 64.04938
# Shear Modulus (GPa) = 24.83232 33.83495 29.33363
#
# Velocity S-wave (km/s) = 3.39444 3.96225 3.68929
# Velocity P-wave (km/s) = 6.33596 7.45581 6.91858
#
# Compressibility (1/GPa) = 0.01872370
#
# Stress axis : x y z
#
# Youngs Moduli (GPa) = 95.75837 65.21160 174.38398
#
# Poissons Ratio (x) = 0.07463 0.53892
# Poissons Ratio (y) = 0.10960 0.37654
# Poissons Ratio (z) = 0.29593 0.14081
#
# Static dielectric constant tensor:
#      x y z
#    x 1.808900 0.000000 0.000000 
#    y 0.000000 1.787710 0.000000 
#    z 0.000000 0.000000 1.796560 
# 
# From -- ./inp_files/17499.got.cif
#   From: 2010.05.17/outbox.cif.g08.bks.cpg/sg66_9_cif.got.tgz:17499.got - 2010.06.03 17:51:23.
