data_PCOD9497953
_publ_section_title
;
Structure prediction by ZEFSAII (Michael W. Deem and Ramdas Pophale) SiO2 
 PCOD9497953
Probable space group: C C C M
;
_chemical_formula_sum "Si O2"
_cell_formula_units_Z 116
_cell_length_a 22.681628
_cell_length_b 32.234351
_cell_length_c 8.350615
_cell_angle_alpha 90.000000
_cell_angle_beta 90.000000
_cell_angle_gamma 90.000000
_cell_volume 6105.364754
_symmetry_space_group_name_H-M "C C C M"
_symmetry_group_IT_number 66
_symmetry_cell_setting 'orthorhombic'
loop_
_space_group_symop_operation_xyz
x,y,z
-x,-y,z
x,-y,1/2-z
-x,y,1/2-z
-x,-y,-z
x,y,-z
-x,y,1/2+z
x,-y,1/2+z
1/2+x,1/2+y,z
1/2-x,1/2-y,z
1/2+x,1/2-y,1/2-z
1/2-x,1/2+y,1/2-z
1/2-x,1/2-y,-z
1/2+x,1/2+y,-z
1/2-x,1/2+y,1/2+z
1/2+x,1/2-y,1/2+z
loop_
_atom_site_type_symbol
_atom_site_label
_atom_site_fract_x
_atom_site_fract_y
_atom_site_fract_z
Si Si1 0.063951 0.845000 0.310273
Si Si2 0.170299 0.605094 0.309370
Si Si3 0.565860 0.953630 0.192060
Si Si4 0.727934 0.545827 0.690561
Si Si5 0.833349 0.785394 0.305688
Si Si6 0.799708 0.305554 0.807632
Si Si7 0.000000 0.000000 0.250000
Si Si8 0.591493 0.436537 0.191288
O O1 0.062355 0.852078 0.500000
O O2 0.114346 0.812041 0.267415
O O3 0.077884 0.888634 0.223772
O O4 0.000000 0.830603 0.250000
O O5 0.167074 0.605831 0.500000
O O6 0.114438 0.578806 0.248140
O O7 0.229247 0.580534 0.260754
O O8 0.172150 0.651940 0.248862
O O9 0.500000 0.943748 0.250000
O O10 0.580578 0.000000 0.250000
O O11 0.565955 0.953916 0.000000
O O12 0.744483 0.500000 0.750000
O O13 0.733187 0.547139 0.500000
O O14 0.659489 0.554303 0.730126
O O15 0.837350 0.787567 0.500000
O O16 0.831744 0.736961 0.256833
O O17 0.769052 0.803082 0.257809
O O18 0.799231 0.304925 0.000000
O O19 0.049086 0.034587 0.200969
O O20 0.580931 0.445890 0.000000
#
# Coordination Sequence:
#
# PCOD9497953 Si02
#       8
#    16  16  16  16  16  16   4  16
#     4  12  25  39  59  85 114 151 194 239 289 341
#     4  11  23  37  56  87 121 152 189 235 284 342
#     4  10  21  37  58  83 112 148 190 230 274 332
#     4  11  23  38  56  82 116 155 198 244 291 342
#     4   9  19  39  63  87 115 146 187 233 285 346
#     4   9  19  37  63  89 114 148 184 229 286 344
#     4  12  22  40  64  82 114 156 204 248 294 336
#     4  11  24  40  59  84 115 154 201 248 294 344
#
# _framework density 18.999683999999998
#
# number of rings (size 3 to 8) (size 9 to 14) (size 15 to 20)
#    0.000    1.517    1.379    5.172    0.000    9.379 
#    0.000    2.069    0.000    1.655    0.000    0.000 
#    0.000    0.000    0.000    0.000    0.000    0.000 
#
# Total GULP energy -323821.926687 kJ/mol
# GULP energy per Si atom -5583.136667 kJ/mol
# Density = 1.895644 g / cm^3
# Si number density = 18.999684 Si / 1000 Ang^3
#
#
#
# Elastic Constant Matrix: (Units=GPa)
#
#
# Indices 1 2 3 4 5 6 
#
# 1 102.3480 92.7456 20.2058 0.0000 0.0000 0.0000
# 2 92.7456 149.5238 23.1583 0.0000 0.0000 0.0000
# 3 20.2058 23.1583 37.5523 0.0000 0.0000 0.0000
# 4 0.0000 0.0000 0.0000 64.1025 0.0000 0.0000
# 5 0.0000 0.0000 0.0000 0.0000 24.0456 0.0000
# 6 0.0000 0.0000 0.0000 0.0000 0.0000 14.3292
#
#
#
# Elastic Compliance Matrix: (Units=1/GPa)
#
#
# Indices 1 2 3 4 5 6 
#
# 1 0.022823 -0.013548 -0.003925 0.000000 0.000000 0.000000
# 2 -0.013548 0.015437 -0.002230 0.000000 0.000000 0.000000
# 3 -0.003925 -0.002230 0.030117 0.000000 0.000000 0.000000
# 4 0.000000 0.000000 0.000000 0.015600 0.000000 0.000000
# 5 0.000000 0.000000 0.000000 0.000000 0.041588 0.000000
# 6 0.000000 0.000000 0.000000 0.000000 0.000000 0.069788
#
#
# Mechanical properties :
#
#
# Convention : Reuss Voigt Hill
#
# Bulk Modulus (GPa) = 34.51885 62.40482 48.46183
# Shear Modulus (GPa) = 20.45702 30.71643 25.58673
#
# Velocity S-wave (km/s) = 3.28488 4.02516 3.67371
# Velocity P-wave (km/s) = 5.70918 7.38370 6.59977
#
# Compressibility (1/GPa) = 0.02896968
#
# Stress axis : x y z
#
# Youngs Moduli (GPa) = 43.81582 64.77940 33.20431
#
# Poissons Ratio (x) = 0.87766 0.13033
# Poissons Ratio (y) = 0.59364 0.07404
# Poissons Ratio (z) = 0.17198 0.14445
#
# Static dielectric constant tensor:
#      x y z
#    x 1.649410 0.000000 0.000000 
#    y 0.000000 1.628950 0.000000 
#    z 0.000000 0.000000 1.685530 
# 
# From -- ./inp_files/9451.got.cif
#   From: 2010.05.17/outbox.cif.g08.bks.cpg/sg66_5_cif.got.tgz:9451.got - 2010.06.03 17:51:23.
