data_PCOD9497467
_publ_section_title
;
Structure prediction by ZEFSAII (Michael W. Deem and Ramdas Pophale) SiO2 
 PCOD9497467
Probable space group: C C C M
;
_chemical_formula_sum "Si O2"
_cell_formula_units_Z 88
_cell_length_a 11.341648
_cell_length_b 24.265588
_cell_length_c 14.270569
_cell_angle_alpha 90.000000
_cell_angle_beta 90.000000
_cell_angle_gamma 90.000000
_cell_volume 3927.428377
_symmetry_space_group_name_H-M "C C C M"
_symmetry_group_IT_number 66
_symmetry_cell_setting 'orthorhombic'
loop_
_space_group_symop_operation_xyz
x,y,z
-x,-y,z
x,-y,1/2-z
-x,y,1/2-z
-x,-y,-z
x,y,-z
-x,y,1/2+z
x,-y,1/2+z
1/2+x,1/2+y,z
1/2-x,1/2-y,z
1/2+x,1/2-y,1/2-z
1/2-x,1/2+y,1/2-z
1/2-x,1/2-y,-z
1/2+x,1/2+y,-z
1/2-x,1/2+y,1/2+z
1/2+x,1/2-y,1/2+z
loop_
_atom_site_type_symbol
_atom_site_label
_atom_site_fract_x
_atom_site_fract_y
_atom_site_fract_z
Si Si1 0.630730 0.608872 0.778595
Si Si2 0.000000 0.296619 0.750000
Si Si3 0.714270 0.974139 0.108037
Si Si4 0.216481 0.603262 0.894427
Si Si5 0.378314 0.278688 0.110544
Si Si6 0.945862 0.625620 0.104542
O O1 0.500000 0.593061 0.750000
O O2 0.695131 0.557401 0.826305
O O3 0.697974 0.626200 0.683844
O O4 0.628783 0.659672 0.850118
O O5 0.014673 0.252714 0.835535
O O6 0.088320 0.340670 0.802543
O O7 0.596278 0.937089 0.114566
O O8 0.698283 0.038276 0.127328
O O9 0.754092 0.969914 0.000000
O O10 0.086936 0.629739 0.895443
O O11 0.264803 0.607979 0.000000
O O12 0.250000 0.250000 0.128812
O O13 0.398307 0.278022 0.000000
O O14 0.903157 0.644209 0.000000
#
# Coordination Sequence:
#
# PCOD9497467 Si02
#       6
#    16   8  16  16  16  16
#     4  12  25  42  59  88 126 172 216 262 306 370
#     4  12  22  38  61  94 123 154 206 256 316 376
#     4  10  21  39  65  94 126 168 214 258 313 383
#     4  10  22  39  62  95 131 166 206 261 327 381
#     4  11  24  44  67  89 118 161 213 266 319 375
#     4  10  20  37  64  98 131 159 200 265 331 389
#
# _framework density 22.40652
#
# number of rings (size 3 to 8) (size 9 to 14) (size 15 to 20)
#    0.000    1.273    0.909    5.455    0.000    8.000 
#    0.000    4.545    0.000    3.818    0.000    0.000 
#    0.000    0.000    0.000    0.000    0.000    0.000 
#
# Total GULP energy -245363.702966 kJ/mol
# GULP energy per Si atom -5576.447795 kJ/mol
# Density = 2.235552 g / cm^3
# Si number density = 22.406520 Si / 1000 Ang^3
#
#
#
# Elastic Constant Matrix: (Units=GPa)
#
#
# Indices 1 2 3 4 5 6 
#
# 1 62.2578 -10.4434 36.7991 0.0000 0.0000 0.0000
# 2 -10.4434 60.4669 43.8224 0.0000 0.0000 0.0000
# 3 36.7991 43.8224 146.9053 0.0000 0.0000 0.0000
# 4 0.0000 0.0000 0.0000 34.8123 0.0000 0.0000
# 5 0.0000 0.0000 0.0000 0.0000 30.3735 0.0000
# 6 0.0000 0.0000 0.0000 0.0000 0.0000 25.0965
#
#
#
# Elastic Compliance Matrix: (Units=1/GPa)
#
#
# Indices 1 2 3 4 5 6 
#
# 1 0.023064 0.010424 -0.008887 0.000000 0.000000 0.000000
# 2 0.010424 0.025811 -0.010311 0.000000 0.000000 0.000000
# 3 -0.008887 -0.010311 0.012109 0.000000 0.000000 0.000000
# 4 0.000000 0.000000 0.000000 0.028725 0.000000 0.000000
# 5 0.000000 0.000000 0.000000 0.000000 0.032923 0.000000
# 6 0.000000 0.000000 0.000000 0.000000 0.000000 0.039846
#
#
# Mechanical properties :
#
#
# Convention : Reuss Voigt Hill
#
# Bulk Modulus (GPa) = 23.02219 45.55402 34.28811
# Shear Modulus (GPa) = 25.70638 31.35324 28.52981
#
# Velocity S-wave (km/s) = 3.39082 3.74477 3.57218
# Velocity P-wave (km/s) = 5.06234 6.25080 5.68770
#
# Compressibility (1/GPa) = 0.04343636
#
# Stress axis : x y z
#
# Youngs Moduli (GPa) = 43.35837 38.74349 82.58384
#
# Poissons Ratio (x) = -0.40386 0.73391
# Poissons Ratio (y) = -0.45197 0.85149
# Poissons Ratio (z) = 0.38532 0.39947
#
# Static dielectric constant tensor:
#      x y z
#    x 1.833000 0.000000 0.000000 
#    y 0.000000 1.855430 0.000000 
#    z 0.000000 0.000000 1.863360 
# 
# From -- ./inp_files/26798.got.cif
#   From: 2010.05.17/outbox.cif.g08.bks.cpg/sg66_14_cif.got.tgz:26798.got - 2010.06.03 17:51:23.
