data_PCOD9497062
_publ_section_title
;
Structure prediction by ZEFSAII (Michael W. Deem and Ramdas Pophale) SiO2 
 PCOD9497062
Probable space group: C C C M
;
_chemical_formula_sum "Si O2"
_cell_formula_units_Z 116
_cell_length_a 33.109220
_cell_length_b 21.574653
_cell_length_c 8.831677
_cell_angle_alpha 90.000000
_cell_angle_beta 90.000000
_cell_angle_gamma 90.000000
_cell_volume 6308.642919
_symmetry_space_group_name_H-M "C C C M"
_symmetry_group_IT_number 66
_symmetry_cell_setting 'orthorhombic'
loop_
_space_group_symop_operation_xyz
x,y,z
-x,-y,z
x,-y,1/2-z
-x,y,1/2-z
-x,-y,-z
x,y,-z
-x,y,1/2+z
x,-y,1/2+z
1/2+x,1/2+y,z
1/2-x,1/2-y,z
1/2+x,1/2-y,1/2-z
1/2-x,1/2+y,1/2-z
1/2-x,1/2-y,-z
1/2+x,1/2+y,-z
1/2-x,1/2+y,1/2+z
1/2+x,1/2-y,1/2+z
loop_
_atom_site_type_symbol
_atom_site_label
_atom_site_fract_x
_atom_site_fract_y
_atom_site_fract_z
Si Si1 0.694112 0.794602 0.181412
Si Si2 0.830201 0.933271 0.820866
Si Si3 0.079194 0.439231 0.668296
Si Si4 0.395015 0.804518 0.816069
Si Si5 0.772164 0.167041 0.180633
Si Si6 0.073561 0.932399 0.678940
Si Si7 0.543017 0.304653 0.182057
Si Si8 0.500000 0.000000 0.250000
O O1 0.649177 0.802471 0.243862
O O2 0.727178 0.841311 0.252146
O O3 0.709489 0.728331 0.241913
O O4 0.695113 0.796795 0.000000
O O5 0.802648 0.886137 0.729651
O O6 0.878182 0.921767 0.802942
O O7 0.822473 0.000000 0.750000
O O8 0.821242 0.930783 0.000000
O O9 0.096956 0.500000 0.750000
O O10 0.095793 0.438398 0.500000
O O11 0.085924 0.370783 0.732233
O O12 0.031466 0.455691 0.664838
O O13 0.422678 0.745564 0.772689
O O14 0.392163 0.802886 0.000000
O O15 0.770317 0.174466 0.000000
O O16 0.064232 0.933596 0.500000
O O17 0.052672 0.873609 0.757088
O O18 0.063901 0.000000 0.750000
O O19 0.500000 0.285083 0.250000
O O20 0.541148 0.306054 0.000000
#
# Coordination Sequence:
#
# PCOD9497062 Si02
#       8
#    16  16  16  16  16  16  16   4
#     4  11  22  37  58  85 112 146 188 233 279 337
#     4  10  20  35  57  87 118 149 187 232 278 331
#     4   9  19  34  56  82 111 144 185 230 278 333
#     4  10  22  40  58  83 117 152 187 234 290 347
#     4  11  21  36  59  84 114 151 186 229 278 335
#     4  10  21  38  60  84 115 151 192 235 282 337
#     4  11  24  39  58  83 114 149 190 237 290 343
#     4   8  18  32  58  84 110 144 188 232 278 332
#
# _framework density 18.387473
#
# number of rings (size 3 to 8) (size 9 to 14) (size 15 to 20)
#    0.414    1.379    0.000    5.586    0.966    5.793 
#    0.000    2.069    0.000    1.655    0.000    0.000 
#    0.000    0.000    0.000    0.000    0.000    0.000 
#
# Total GULP energy -323371.913256 kJ/mol
# GULP energy per Si atom -5575.377815 kJ/mol
# Density = 1.834562 g / cm^3
# Si number density = 18.387473 Si / 1000 Ang^3
#
#
#
# Elastic Constant Matrix: (Units=GPa)
#
#
# Indices 1 2 3 4 5 6 
#
# 1 60.3791 32.8979 25.0934 0.0000 0.0000 0.0000
# 2 32.8979 88.2528 27.2029 0.0000 0.0000 0.0000
# 3 25.0934 27.2029 80.2843 0.0000 0.0000 0.0000
# 4 0.0000 0.0000 0.0000 28.3537 0.0000 0.0000
# 5 0.0000 0.0000 0.0000 0.0000 31.0754 0.0000
# 6 0.0000 0.0000 0.0000 0.0000 0.0000 36.2370
#
#
#
# Elastic Compliance Matrix: (Units=1/GPa)
#
#
# Indices 1 2 3 4 5 6 
#
# 1 0.022219 -0.006858 -0.004621 0.000000 0.000000 0.000000
# 2 -0.006858 0.014769 -0.002861 0.000000 0.000000 0.000000
# 3 -0.004621 -0.002861 0.014869 0.000000 0.000000 0.000000
# 4 0.000000 0.000000 0.000000 0.035269 0.000000 0.000000
# 5 0.000000 0.000000 0.000000 0.000000 0.032180 0.000000
# 6 0.000000 0.000000 0.000000 0.000000 0.000000 0.027596
#
#
# Mechanical properties :
#
#
# Convention : Reuss Voigt Hill
#
# Bulk Modulus (GPa) = 43.14431 44.36719 43.75575
# Shear Modulus (GPa) = 27.27638 28.71469 27.99553
#
# Velocity S-wave (km/s) = 3.85570 3.95605 3.90620
# Velocity P-wave (km/s) = 6.58307 6.71182 6.64776
#
# Compressibility (1/GPa) = 0.02317803
#
# Stress axis : x y z
#
# Youngs Moduli (GPa) = 45.00598 67.70732 67.25234
#
# Poissons Ratio (x) = 0.46436 0.31077
# Poissons Ratio (y) = 0.30866 0.19239
# Poissons Ratio (z) = 0.20797 0.19369
#
# Static dielectric constant tensor:
#      x y z
#    x 1.643730 0.000000 0.000000 
#    y 0.000000 1.618690 0.000000 
#    z 0.000000 0.000000 1.633740 
# 
# From -- ./inp_files/11729.got.cif
#   From: 2010.05.17/outbox.cif.g08.bks.cpg/sg66_6_cif.got.tgz:11729.got - 2010.06.03 17:51:23.
