data_PCOD9497580
_publ_section_title
;
Structure prediction by ZEFSAII (Michael W. Deem and Ramdas Pophale) SiO2 
 PCOD9497580
Probable space group: C C C M
;
_chemical_formula_sum "Si O2"
_cell_formula_units_Z 64
_cell_length_a 11.724166
_cell_length_b 8.456840
_cell_length_c 26.838170
_cell_angle_alpha 90.000000
_cell_angle_beta 90.000000
_cell_angle_gamma 90.000000
_cell_volume 2660.988345
_symmetry_space_group_name_H-M "C C C M"
_symmetry_group_IT_number 66
_symmetry_cell_setting 'orthorhombic'
loop_
_space_group_symop_operation_xyz
x,y,z
-x,-y,z
x,-y,1/2-z
-x,y,1/2-z
-x,-y,-z
x,y,-z
-x,y,1/2+z
x,-y,1/2+z
1/2+x,1/2+y,z
1/2-x,1/2-y,z
1/2+x,1/2-y,1/2-z
1/2-x,1/2+y,1/2-z
1/2-x,1/2-y,-z
1/2+x,1/2+y,-z
1/2-x,1/2+y,1/2+z
1/2+x,1/2-y,1/2+z
loop_
_atom_site_type_symbol
_atom_site_label
_atom_site_fract_x
_atom_site_fract_y
_atom_site_fract_z
Si Si1 0.624237 0.178575 0.270330
Si Si2 0.693646 0.423196 0.553758
Si Si3 0.408600 0.857566 0.943115
Si Si4 0.028072 0.161247 0.860689
O O1 0.500000 0.239257 0.250000
O O2 0.750000 0.250000 0.258043
O O3 0.599587 0.211657 0.328606
O O4 0.629850 0.000000 0.250000
O O5 0.637905 0.442573 0.500000
O O6 0.750000 0.250000 0.553024
O O7 0.786627 0.558988 0.559918
O O8 0.609094 0.415739 0.598466
O O9 0.434740 0.751591 0.894650
O O10 0.500000 0.000000 0.941364
O O11 0.418803 0.790474 0.000000
O O12 0.000000 0.000000 0.829982
#
# Coordination Sequence:
#
# PCOD9497580 Si02
#       4
#    16  16  16  16
#     4  11  30  55  83 114 148 195 257 339 415 484
#     4  10  20  38  67 105 153 205 254 308 364 443
#     4  10  21  39  67 106 155 205 250 295 366 446
#     4  12  27  44  73 111 150 197 260 322 385 469
#
# _framework density 24.051213000000001
#
# number of rings (size 3 to 8) (size 9 to 14) (size 15 to 20)
#    0.000    1.250    2.500    1.500    7.000    3.000 
#    0.000    2.500    0.000    0.000    0.000    0.000 
#    0.000    0.000    0.000    0.000    0.000    0.000 
#
# Total GULP energy -178539.499362 kJ/mol
# GULP energy per Si atom -5579.359355 kJ/mol
# Density = 2.399647 g / cm^3
# Si number density = 24.051213 Si / 1000 Ang^3
#
#
#
# Elastic Constant Matrix: (Units=GPa)
#
#
# Indices 1 2 3 4 5 6 
#
# 1 149.0982 44.1763 54.8164 0.0000 0.0000 0.0000
# 2 44.1763 166.9436 67.5200 0.0000 0.0000 0.0000
# 3 54.8164 67.5200 96.9651 0.0000 0.0000 0.0000
# 4 0.0000 0.0000 0.0000 30.9534 0.0000 0.0000
# 5 0.0000 0.0000 0.0000 0.0000 36.6365 0.0000
# 6 0.0000 0.0000 0.0000 0.0000 0.0000 49.0896
#
#
#
# Elastic Compliance Matrix: (Units=1/GPa)
#
#
# Indices 1 2 3 4 5 6 
#
# 1 0.008488 -0.000425 -0.004503 0.000000 0.000000 0.000000
# 2 -0.000425 0.008360 -0.005581 0.000000 0.000000 0.000000
# 3 -0.004503 -0.005581 0.016745 0.000000 0.000000 0.000000
# 4 0.000000 0.000000 0.000000 0.032307 0.000000 0.000000
# 5 0.000000 0.000000 0.000000 0.000000 0.027295 0.000000
# 6 0.000000 0.000000 0.000000 0.000000 0.000000 0.020371
#
#
# Mechanical properties :
#
#
# Convention : Reuss Voigt Hill
#
# Bulk Modulus (GPa) = 79.51979 82.89247 81.20613
# Shear Modulus (GPa) = 36.02977 39.76886 37.89932
#
# Velocity S-wave (km/s) = 3.87466 4.07075 3.97391
# Velocity P-wave (km/s) = 7.29052 7.52559 7.40899
#
# Compressibility (1/GPa) = 0.01257549
#
# Stress axis : x y z
#
# Youngs Moduli (GPa) = 117.80864 119.62180 59.72103
#
# Poissons Ratio (x) = 0.05085 0.26890
# Poissons Ratio (y) = 0.05008 0.33329
# Poissons Ratio (z) = 0.53045 0.66759
#
# Static dielectric constant tensor:
#      x y z
#    x 1.988060 0.000000 0.000000 
#    y 0.000000 2.258140 0.000000 
#    z 0.000000 0.000000 2.050110 
# 
# From -- ./inp_files/68589.got.cif
#   From: 2010.05.17/outbox.cif.g08.bks.cpg/sg66_35_cif.got.tgz:68589.got - 2010.06.03 17:51:23.
