data_PCOD9497323
_publ_section_title
;
Structure prediction by ZEFSAII (Michael W. Deem and Ramdas Pophale) SiO2 
 PCOD9497323
Probable space group: C C C M
;
_chemical_formula_sum "Si O2"
_cell_formula_units_Z 96
_cell_length_a 23.710523
_cell_length_b 12.125745
_cell_length_c 15.069579
_cell_angle_alpha 90.000000
_cell_angle_beta 90.000000
_cell_angle_gamma 90.000000
_cell_volume 4332.620838
_symmetry_space_group_name_H-M "C C C M"
_symmetry_group_IT_number 66
_symmetry_cell_setting 'orthorhombic'
loop_
_space_group_symop_operation_xyz
x,y,z
-x,-y,z
x,-y,1/2-z
-x,y,1/2-z
-x,-y,-z
x,y,-z
-x,y,1/2+z
x,-y,1/2+z
1/2+x,1/2+y,z
1/2-x,1/2-y,z
1/2+x,1/2-y,1/2-z
1/2-x,1/2+y,1/2-z
1/2-x,1/2-y,-z
1/2+x,1/2+y,-z
1/2-x,1/2+y,1/2+z
1/2+x,1/2-y,1/2+z
loop_
_atom_site_type_symbol
_atom_site_label
_atom_site_fract_x
_atom_site_fract_y
_atom_site_fract_z
Si Si1 0.750000 0.750000 0.719429
Si Si2 0.140731 0.309640 0.603509
Si Si3 0.867782 0.027400 0.605863
Si Si4 0.780110 0.000000 0.750000
Si Si5 0.564790 0.985506 0.854853
Si Si6 0.042307 0.145399 0.392306
Si Si7 0.575951 0.264748 0.606511
O O1 0.804890 0.722822 0.659334
O O2 0.754354 0.874635 0.765615
O O3 0.152074 0.287099 0.500000
O O4 0.112547 0.430884 0.610753
O O5 0.089128 0.233332 0.634417
O O6 0.858994 0.015298 0.500000
O O7 0.874292 0.154400 0.633517
O O8 0.818269 0.978357 0.663371
O O9 0.928038 0.970393 0.628001
O O10 0.582850 0.861139 0.871603
O O11 0.500000 0.000000 0.890713
O O12 0.561393 0.000000 0.750000
O O13 0.037610 0.146190 0.500000
O O14 0.982887 0.187227 0.356978
O O15 0.573193 0.274218 0.500000
#
# Coordination Sequence:
#
# PCOD9497323 Si02
#       7
#     8  16  16   8  16  16  16
#     4  12  29  48  69 100 132 178 240 294 352 400
#     4  11  23  42  70  94 126 175 233 288 335 406
#     4  10  22  42  68 101 137 178 226 275 341 419
#     4  12  28  48  75 100 135 182 230 302 348 406
#     4  11  24  38  59  98 144 182 219 279 348 422
#     4   9  17  35  63  97 132 170 215 271 328 401
#     4  10  20  36  64  98 139 179 217 270 344 418
#
# _framework density 22.157489999999999
#
# number of rings (size 3 to 8) (size 9 to 14) (size 15 to 20)
#    0.000    1.500    3.333    1.250    3.500    3.333 
#    0.000    1.250    0.000    0.000    0.000    0.000 
#    0.000    0.000    0.000    0.000    0.000    0.000 
#
# Total GULP energy -267683.929257 kJ/mol
# GULP energy per Si atom -5576.748526 kJ/mol
# Density = 2.210706 g / cm^3
# Si number density = 22.157490 Si / 1000 Ang^3
#
#
#
# Elastic Constant Matrix: (Units=GPa)
#
#
# Indices 1 2 3 4 5 6 
#
# 1 58.5256 38.9503 18.7936 0.0000 0.0000 0.0000
# 2 38.9503 161.9711 -3.1186 0.0000 0.0000 0.0000
# 3 18.7936 -3.1186 41.6031 0.0000 0.0000 0.0000
# 4 0.0000 0.0000 0.0000 16.3404 0.0000 0.0000
# 5 0.0000 0.0000 0.0000 0.0000 6.9619 0.0000
# 6 0.0000 0.0000 0.0000 0.0000 0.0000 36.4824
#
#
#
# Elastic Compliance Matrix: (Units=1/GPa)
#
#
# Indices 1 2 3 4 5 6 
#
# 1 0.025022 -0.006244 -0.011771 0.000000 0.000000 0.000000
# 2 -0.006244 0.007741 0.003401 0.000000 0.000000 0.000000
# 3 -0.011771 0.003401 0.029609 0.000000 0.000000 0.000000
# 4 0.000000 0.000000 0.000000 0.061198 0.000000 0.000000
# 5 0.000000 0.000000 0.000000 0.000000 0.143638 0.000000
# 6 0.000000 0.000000 0.000000 0.000000 0.000000 0.027410
#
#
# Mechanical properties :
#
#
# Convention : Reuss Voigt Hill
#
# Bulk Modulus (GPa) = 30.17203 41.26116 35.71659
# Shear Modulus (GPa) = 14.93004 25.78858 20.35931
#
# Velocity S-wave (km/s) = 2.59861 3.41526 3.03453
# Velocity P-wave (km/s) = 4.75924 5.84929 5.33219
#
# Compressibility (1/GPa) = 0.03314328
#
# Stress axis : x y z
#
# Youngs Moduli (GPa) = 39.96490 129.18370 33.77334
#
# Poissons Ratio (x) = 0.80660 0.39756
# Poissons Ratio (y) = 0.24953 -0.11486
# Poissons Ratio (z) = 0.47044 -0.43933
#
# Static dielectric constant tensor:
#      x y z
#    x 1.805860 0.000000 0.000000 
#    y 0.000000 1.904270 0.000000 
#    z 0.000000 0.000000 1.801110 
# 
# From -- ./inp_files/43642.got.cif
#   From: 2010.05.17/outbox.cif.g08.bks.cpg/sg66_22_cif.got.tgz:43642.got - 2010.06.03 17:51:23.
