data_PCOD9497787
_publ_section_title
;
Structure prediction by ZEFSAII (Michael W. Deem and Ramdas Pophale) SiO2 
 PCOD9497787
Probable space group: C C C M
;
_chemical_formula_sum "Si O2"
_cell_formula_units_Z 88
_cell_length_a 28.206575
_cell_length_b 6.772422
_cell_length_c 26.825126
_cell_angle_alpha 90.000000
_cell_angle_beta 90.000000
_cell_angle_gamma 90.000000
_cell_volume 5124.318759
_symmetry_space_group_name_H-M "C C C M"
_symmetry_group_IT_number 66
_symmetry_cell_setting 'orthorhombic'
loop_
_space_group_symop_operation_xyz
x,y,z
-x,-y,z
x,-y,1/2-z
-x,y,1/2-z
-x,-y,-z
x,y,-z
-x,y,1/2+z
x,-y,1/2+z
1/2+x,1/2+y,z
1/2-x,1/2-y,z
1/2+x,1/2-y,1/2-z
1/2-x,1/2+y,1/2-z
1/2-x,1/2-y,-z
1/2+x,1/2+y,-z
1/2-x,1/2+y,1/2+z
1/2+x,1/2-y,1/2+z
loop_
_atom_site_type_symbol
_atom_site_label
_atom_site_fract_x
_atom_site_fract_y
_atom_site_fract_z
Si Si1 0.555487 0.519068 0.689710
Si Si2 0.750000 0.250000 0.109527
Si Si3 0.864265 0.742758 0.856841
Si Si4 0.702392 0.882066 0.941682
Si Si5 0.801667 0.962701 0.698180
Si Si6 0.882880 0.366276 0.798801
O O1 0.500000 0.500000 0.679698
O O2 0.563450 0.500000 0.750000
O O3 0.588368 0.370260 0.657000
O O4 0.572698 0.741531 0.682223
O O5 0.783719 0.397142 0.078041
O O6 0.775683 0.107510 0.148967
O O7 0.839259 0.727859 0.910610
O O8 0.870228 0.518313 0.841371
O O9 0.826747 0.837762 0.818762
O O10 0.750000 0.750000 0.936083
O O11 0.690539 0.892931 0.000000
O O12 0.841454 0.795227 0.709033
O O13 0.774306 0.000000 0.750000
O O14 0.891752 0.500000 0.750000
#
# Coordination Sequence:
#
# PCOD9497787 Si02
#       6
#    16   8  16  16  16  16
#     4  10  21  35  53  89 123 147 187 232 280 357
#     4  12  23  36  54  80 118 148 189 244 290 336
#     4  11  20  37  58  78 112 153 192 230 289 341
#     4  11  24  41  61  83 109 147 201 255 298 337
#     4  11  22  32  51  82 115 151 191 226 269 349
#     4  11  18  33  56  76 114 159 181 223 276 338
#
# _framework density 17.173013999999998
#
# number of rings (size 3 to 8) (size 9 to 14) (size 15 to 20)
#    0.000    1.091    7.273    1.364    0.000    2.909 
#    0.000    0.000    0.000    0.545    0.000    1.273 
#    0.000    0.000    0.000    0.000    0.000    0.000 
#
# Total GULP energy -245056.719931 kJ/mol
# GULP energy per Si atom -5569.470908 kJ/mol
# Density = 1.713393 g / cm^3
# Si number density = 17.173014 Si / 1000 Ang^3
#
#
#
# Elastic Constant Matrix: (Units=GPa)
#
#
# Indices 1 2 3 4 5 6 
#
# 1 61.2572 18.9070 57.8529 0.0000 0.0000 0.0000
# 2 18.9070 85.2250 41.3463 0.0000 0.0000 0.0000
# 3 57.8529 41.3463 132.0186 0.0000 0.0000 0.0000
# 4 0.0000 0.0000 0.0000 21.2169 0.0000 0.0000
# 5 0.0000 0.0000 0.0000 0.0000 22.2720 0.0000
# 6 0.0000 0.0000 0.0000 0.0000 0.0000 18.1289
#
#
#
# Elastic Compliance Matrix: (Units=1/GPa)
#
#
# Indices 1 2 3 4 5 6 
#
# 1 0.027858 -0.000304 -0.012113 0.000000 0.000000 0.000000
# 2 -0.000304 0.013839 -0.004201 0.000000 0.000000 0.000000
# 3 -0.012113 -0.004201 0.014198 0.000000 0.000000 0.000000
# 4 0.000000 0.000000 0.000000 0.047132 0.000000 0.000000
# 5 0.000000 0.000000 0.000000 0.000000 0.044899 0.000000
# 6 0.000000 0.000000 0.000000 0.000000 0.000000 0.055160
#
#
# Mechanical properties :
#
#
# Convention : Reuss Voigt Hill
#
# Bulk Modulus (GPa) = 44.13007 57.19037 50.66022
# Shear Modulus (GPa) = 20.50220 23.01654 21.75937
#
# Velocity S-wave (km/s) = 3.45898 3.66495 3.56345
# Velocity P-wave (km/s) = 6.45801 7.16128 6.81871
#
# Compressibility (1/GPa) = 0.02266029
#
# Stress axis : x y z
#
# Youngs Moduli (GPa) = 35.89644 72.25865 70.43046
#
# Poissons Ratio (x) = 0.02196 0.85310
# Poissons Ratio (y) = 0.01091 0.29588
# Poissons Ratio (z) = 0.43480 0.30356
#
# Static dielectric constant tensor:
#      x y z
#    x 1.656060 0.000000 0.000000 
#    y 0.000000 1.441270 0.000000 
#    z 0.000000 0.000000 1.604440 
# 
# From -- ./inp_files/60396.got.cif
#   From: 2010.05.17/outbox.cif.g08.bks.cpg/sg66_31_cif.got.tgz:60396.got - 2010.06.03 17:51:23.
