data_PCOD9497842
_publ_section_title
;
Structure prediction by ZEFSAII (Michael W. Deem and Ramdas Pophale) SiO2 
 PCOD9497842
Probable space group: C C C M
;
_chemical_formula_sum "Si O2"
_cell_formula_units_Z 68
_cell_length_a 28.306809
_cell_length_b 15.216266
_cell_length_c 9.012417
_cell_angle_alpha 90.000000
_cell_angle_beta 90.000000
_cell_angle_gamma 90.000000
_cell_volume 3881.863717
_symmetry_space_group_name_H-M "C C C M"
_symmetry_group_IT_number 66
_symmetry_cell_setting 'orthorhombic'
loop_
_space_group_symop_operation_xyz
x,y,z
-x,-y,z
x,-y,1/2-z
-x,y,1/2-z
-x,-y,-z
x,y,-z
-x,y,1/2+z
x,-y,1/2+z
1/2+x,1/2+y,z
1/2-x,1/2-y,z
1/2+x,1/2-y,1/2-z
1/2-x,1/2+y,1/2-z
1/2-x,1/2-y,-z
1/2+x,1/2+y,-z
1/2-x,1/2+y,1/2+z
1/2+x,1/2-y,1/2+z
loop_
_atom_site_type_symbol
_atom_site_label
_atom_site_fract_x
_atom_site_fract_y
_atom_site_fract_z
Si Si1 0.500000 0.000000 0.750000
Si Si2 0.546151 0.172901 0.831957
Si Si3 0.641705 0.770027 0.822625
Si Si4 0.674791 0.406479 0.824694
Si Si5 0.787741 0.593662 0.675251
O O1 0.533545 0.068624 0.834963
O O2 0.500000 0.212104 0.750000
O O3 0.592425 0.191486 0.737328
O O4 0.551668 0.204401 0.000000
O O5 0.648987 0.672708 0.757866
O O6 0.683143 0.830765 0.756262
O O7 0.643160 0.770072 0.000000
O O8 0.663913 0.500000 0.750000
O O9 0.731455 0.392294 0.809687
O O10 0.663980 0.407231 0.000000
O O11 0.799012 0.500000 0.750000
O O12 0.799144 0.592402 0.500000
#
# Coordination Sequence:
#
# PCOD9497842 Si02
#       5
#     4  16  16  16  16
#     4   8  22  36  62  80 112 148 182 224 278 332
#     4  10  21  37  57  81 113 146 184 228 276 332
#     4  12  24  36  56  84 115 152 194 234 279 336
#     4  10  21  39  60  82 111 148 191 239 290 337
#     4  10  21  36  55  81 115 152 190 235 285 338
#
# _framework density 17.517358999999999
#
# number of rings (size 3 to 8) (size 9 to 14) (size 15 to 20)
#    0.706    0.941    0.000    5.294    1.647    5.647 
#    0.000    0.000    0.000    0.706    0.000    4.941 
#    0.000    0.000    0.000    0.000    0.000    0.000 
#
# Total GULP energy -189697.030833 kJ/mol
# GULP energy per Si atom -5579.324436 kJ/mol
# Density = 1.747749 g / cm^3
# Si number density = 17.517359 Si / 1000 Ang^3
#
#
#
# Elastic Constant Matrix: (Units=GPa)
#
#
# Indices 1 2 3 4 5 6 
#
# 1 48.2082 53.0879 52.5822 0.0000 0.0000 0.0000
# 2 53.0879 113.4904 63.6730 0.0000 0.0000 0.0000
# 3 52.5822 63.6730 171.4824 0.0000 0.0000 0.0000
# 4 0.0000 0.0000 0.0000 29.7033 0.0000 0.0000
# 5 0.0000 0.0000 0.0000 0.0000 66.2143 0.0000
# 6 0.0000 0.0000 0.0000 0.0000 0.0000 -120.4039
#
#
#
# Elastic Compliance Matrix: (Units=1/GPa)
#
#
# Indices 1 2 3 4 5 6 
#
# 1 0.051159 -0.019111 -0.008591 0.000000 0.000000 0.000000
# 2 -0.019111 0.018269 -0.000923 0.000000 0.000000 0.000000
# 3 -0.008591 -0.000923 0.008809 0.000000 0.000000 0.000000
# 4 0.000000 0.000000 0.000000 0.033666 0.000000 0.000000
# 5 0.000000 0.000000 0.000000 0.000000 0.015102 0.000000
# 6 0.000000 0.000000 0.000000 0.000000 0.000000 -0.008305
#
#
# Mechanical properties :
#
#
# Convention : Reuss Voigt Hill
#
# Bulk Modulus (GPa) = 47.65061 74.65190 61.15126
# Shear Modulus (GPa) = 27.33034 6.02527 16.67780
#
# Velocity S-wave (km/s) = 3.95420 1.85663 3.08892
# Velocity P-wave (km/s) = 6.93604 6.87783 6.90700
#
# Compressibility (1/GPa) = 0.02098609
#
# Stress axis : x y z
#
# Youngs Moduli (GPa) = 19.54675 54.73738 113.52470
#
# Poissons Ratio (x) = 1.04609 0.97530
# Poissons Ratio (y) = 0.37356 0.10483
# Poissons Ratio (z) = 0.16793 0.05054
#
# Static dielectric constant tensor:
#      x y z
#    x 1.580240 0.000000 0.000000 
#    y 0.000000 1.580650 0.000000 
#    z 0.000000 0.000000 1.588470 
# 
# From -- ./inp_files/9936.got.cif
#   From: 2010.05.17/outbox.cif.g08.bks.cpg/sg66_5_cif.got.tgz:9936.got - 2010.06.03 17:51:23.
