data_PCOD9497121
_publ_section_title
;
Structure prediction by ZEFSAII (Michael W. Deem and Ramdas Pophale) SiO2 
 PCOD9497121
Probable space group: C C C M
;
_chemical_formula_sum "Si O2"
_cell_formula_units_Z 96
_cell_length_a 8.212280
_cell_length_b 20.552691
_cell_length_c 29.111096
_cell_angle_alpha 90.000000
_cell_angle_beta 90.000000
_cell_angle_gamma 90.000000
_cell_volume 4913.500422
_symmetry_space_group_name_H-M "C C C M"
_symmetry_group_IT_number 66
_symmetry_cell_setting 'orthorhombic'
loop_
_space_group_symop_operation_xyz
x,y,z
-x,-y,z
x,-y,1/2-z
-x,y,1/2-z
-x,-y,-z
x,y,-z
-x,y,1/2+z
x,-y,1/2+z
1/2+x,1/2+y,z
1/2-x,1/2-y,z
1/2+x,1/2-y,1/2-z
1/2-x,1/2+y,1/2-z
1/2-x,1/2-y,-z
1/2+x,1/2+y,-z
1/2-x,1/2+y,1/2+z
1/2+x,1/2-y,1/2+z
loop_
_atom_site_type_symbol
_atom_site_label
_atom_site_fract_x
_atom_site_fract_y
_atom_site_fract_z
Si Si1 0.258642 0.171316 0.949396
Si Si2 0.173297 0.112593 0.143634
Si Si3 0.671455 0.816938 0.223685
Si Si4 0.385516 0.599977 0.211213
Si Si5 0.570793 0.074910 0.050798
Si Si6 0.317146 0.025159 0.358772
O O1 0.250000 0.250000 0.949429
O O2 0.166919 0.150086 0.903844
O O3 0.430922 0.130822 0.945047
O O4 0.195672 0.151007 0.000000
O O5 0.315676 0.136120 0.179109
O O6 0.007884 0.121524 0.171550
O O7 0.205949 0.037540 0.132014
O O8 0.500000 0.811607 0.250000
O O9 0.750000 0.750000 0.206817
O O10 0.795467 0.843078 0.262113
O O11 0.500000 0.568454 0.250000
O O12 0.251035 0.556180 0.187406
O O13 0.678489 0.072882 0.096977
O O14 0.500000 0.000000 0.050395
O O15 0.646833 0.083958 0.000000
O O16 0.500000 0.000000 0.351882
#
# Coordination Sequence:
#
# PCOD9497121 Si02
#       6
#    16  16  16  16  16  16
#     4  10  20  35  60  91 123 159 202 249 304 368
#     4  11  21  37  58  86 121 157 199 249 306 367
#     4  11  23  40  61  85 117 159 207 251 306 370
#     4  10  24  41  56  83 120 158 195 252 309 363
#     4   9  17  33  58  87 119 155 201 255 304 367
#     4  11  20  36  61  88 114 153 205 250 308 373
#
# _framework density 19.538007
#
# number of rings (size 3 to 8) (size 9 to 14) (size 15 to 20)
#    0.000    1.667    3.333    3.500    0.000    4.667 
#    0.000    5.000    0.000    2.000    0.000    3.500 
#    0.000    0.000    0.000    0.000    0.000    0.000 
#
# Total GULP energy -267358.371522 kJ/mol
# GULP energy per Si atom -5569.966073 kJ/mol
# Density = 1.949354 g / cm^3
# Si number density = 19.538007 Si / 1000 Ang^3
#
#
#
# Elastic Constant Matrix: (Units=GPa)
#
#
# Indices 1 2 3 4 5 6 
#
# 1 59.0539 10.5508 42.3653 0.0000 0.0000 0.0000
# 2 10.5508 75.9281 22.7429 0.0000 0.0000 0.0000
# 3 42.3653 22.7429 160.0037 0.0000 0.0000 0.0000
# 4 0.0000 0.0000 0.0000 21.7420 0.0000 0.0000
# 5 0.0000 0.0000 0.0000 0.0000 24.8356 0.0000
# 6 0.0000 0.0000 0.0000 0.0000 0.0000 21.7289
#
#
#
# Elastic Compliance Matrix: (Units=1/GPa)
#
#
# Indices 1 2 3 4 5 6 
#
# 1 0.021029 -0.001310 -0.005382 0.000000 0.000000 0.000000
# 2 -0.001310 0.013838 -0.001620 0.000000 0.000000 0.000000
# 3 -0.005382 -0.001620 0.007905 0.000000 0.000000 0.000000
# 4 0.000000 0.000000 0.000000 0.045994 0.000000 0.000000
# 5 0.000000 0.000000 0.000000 0.000000 0.040265 0.000000
# 6 0.000000 0.000000 0.000000 0.000000 0.000000 0.046022
#
#
# Mechanical properties :
#
#
# Convention : Reuss Voigt Hill
#
# Bulk Modulus (GPa) = 38.24421 49.58929 43.91675
# Shear Modulus (GPa) = 24.95121 28.28308 26.61715
#
# Velocity S-wave (km/s) = 3.57748 3.80885 3.69498
# Velocity P-wave (km/s) = 6.05650 6.69172 6.38202
#
# Compressibility (1/GPa) = 0.02614775
#
# Stress axis : x y z
#
# Youngs Moduli (GPa) = 47.55434 72.26660 126.50123
#
# Poissons Ratio (x) = 0.09468 0.68079
# Poissons Ratio (y) = 0.06230 0.20493
# Poissons Ratio (z) = 0.25592 0.11707
#
# Static dielectric constant tensor:
#      x y z
#    x 1.713610 0.000000 0.000000 
#    y 0.000000 1.750320 0.000000 
#    z 0.000000 0.000000 1.757920 
# 
# From -- ./inp_files/62627.got.cif
#   From: 2010.05.17/outbox.cif.g08.bks.cpg/sg66_32_cif.got.tgz:62627.got - 2010.06.03 17:51:23.
