data_PCOD9497150
_publ_section_title
;
Structure prediction by ZEFSAII (Michael W. Deem and Ramdas Pophale) SiO2 
 PCOD9497150
Probable space group: C C C M
;
_chemical_formula_sum "Si O2"
_cell_formula_units_Z 64
_cell_length_a 11.669153
_cell_length_b 29.146247
_cell_length_c 8.090260
_cell_angle_alpha 90.000000
_cell_angle_beta 90.000000
_cell_angle_gamma 90.000000
_cell_volume 2751.594635
_symmetry_space_group_name_H-M "C C C M"
_symmetry_group_IT_number 66
_symmetry_cell_setting 'orthorhombic'
loop_
_space_group_symop_operation_xyz
x,y,z
-x,-y,z
x,-y,1/2-z
-x,y,1/2-z
-x,-y,-z
x,y,-z
-x,y,1/2+z
x,-y,1/2+z
1/2+x,1/2+y,z
1/2-x,1/2-y,z
1/2+x,1/2-y,1/2-z
1/2-x,1/2+y,1/2-z
1/2-x,1/2-y,-z
1/2+x,1/2+y,-z
1/2-x,1/2+y,1/2+z
1/2+x,1/2-y,1/2+z
loop_
_atom_site_type_symbol
_atom_site_label
_atom_site_fract_x
_atom_site_fract_y
_atom_site_fract_z
Si Si1 0.880790 0.291846 0.688014
Si Si2 0.126313 0.446820 0.302792
Si Si3 0.622915 0.410040 0.799959
Si Si4 0.854619 0.807936 0.311726
O O1 0.855409 0.304322 0.500000
O O2 0.884607 0.236370 0.703899
O O3 0.782630 0.307584 0.810188
O O4 0.000000 0.310569 0.750000
O O5 0.125596 0.500000 0.250000
O O6 0.128681 0.443163 0.500000
O O7 0.251379 0.427954 0.242628
O O8 0.000000 0.427729 0.250000
O O9 0.500000 0.432463 0.750000
O O10 0.615218 0.357244 0.741018
O O11 0.625933 0.409768 0.000000
O O12 0.895624 0.802031 0.500000
#
# Coordination Sequence:
#
# PCOD9497150 Si02
#       4
#    16  16  16  16
#     4  11  21  34  52  76 105 144 190 238 287 340
#     4  10  21  40  63  90 118 151 190 233 283 341
#     4  10  23  39  59  87 120 153 192 236 286 343
#     4  10  20  36  54  77 108 144 186 236 285 339
#
# _framework density 23.259242
#
# number of rings (size 3 to 8) (size 9 to 14) (size 15 to 20)
#    0.000    1.750    0.000    6.750    0.000    7.500 
#    0.000    5.000    0.000    0.000    0.000    0.000 
#    0.000    0.000    0.000    0.000    0.000    0.000 
#
# Total GULP energy -178498.383547 kJ/mol
# GULP energy per Si atom -5578.074486 kJ/mol
# Density = 2.320630 g / cm^3
# Si number density = 23.259242 Si / 1000 Ang^3
#
#
#
# Elastic Constant Matrix: (Units=GPa)
#
#
# Indices 1 2 3 4 5 6 
#
# 1 231.5583 39.3765 15.1583 0.0000 0.0000 0.0000
# 2 39.3765 56.5812 -0.0698 0.0000 0.0000 0.0000
# 3 15.1583 -0.0698 67.0013 0.0000 0.0000 0.0000
# 4 0.0000 0.0000 0.0000 53.5807 0.0000 0.0000
# 5 0.0000 0.0000 0.0000 0.0000 26.8110 0.0000
# 6 0.0000 0.0000 0.0000 0.0000 0.0000 -70.1339
#
#
#
# Elastic Compliance Matrix: (Units=1/GPa)
#
#
# Indices 1 2 3 4 5 6 
#
# 1 0.004982 -0.003469 -0.001131 0.000000 0.000000 0.000000
# 2 -0.003469 0.020089 0.000806 0.000000 0.000000 0.000000
# 3 -0.001131 0.000806 0.015182 0.000000 0.000000 0.000000
# 4 0.000000 0.000000 0.000000 0.018663 0.000000 0.000000
# 5 0.000000 0.000000 0.000000 0.000000 0.037298 0.000000
# 6 0.000000 0.000000 0.000000 0.000000 0.000000 -0.014258
#
#
# Mechanical properties :
#
#
# Convention : Reuss Voigt Hill
#
# Bulk Modulus (GPa) = 30.61374 51.56343 41.08858
# Shear Modulus (GPa) = 49.78471 22.09661 35.94066
#
# Velocity S-wave (km/s) = 4.63149 3.08557 3.93519
# Velocity P-wave (km/s) = 6.46464 5.90859 6.19286
#
# Compressibility (1/GPa) = 0.03266507
#
# Stress axis : x y z
#
# Youngs Moduli (GPa) = 200.70365 49.77900 65.86846
#
# Poissons Ratio (x) = 0.17268 0.07449
# Poissons Ratio (y) = 0.69621 -0.05307
# Poissons Ratio (z) = 0.22696 -0.04011
#
# Static dielectric constant tensor:
#      x y z
#    x 2.010870 0.000000 0.000000 
#    y 0.000000 1.890530 0.000000 
#    z 0.000000 0.000000 1.795930 
# 
# From -- ./inp_files/3988.got.cif
#   From: 2010.05.17/outbox.cif.g08.bks.cpg/sg66_2_cif.got.tgz:3988.got - 2010.06.03 17:51:23.
