data_PCOD9497096
_publ_section_title
;
Structure prediction by ZEFSAII (Michael W. Deem and Ramdas Pophale) SiO2 
 PCOD9497096
Probable space group: C C C M
;
_chemical_formula_sum "Si O2"
_cell_formula_units_Z 68
_cell_length_a 20.642718
_cell_length_b 12.613627
_cell_length_c 13.386409
_cell_angle_alpha 90.000000
_cell_angle_beta 90.000000
_cell_angle_gamma 90.000000
_cell_volume 3485.547086
_symmetry_space_group_name_H-M "C C C M"
_symmetry_group_IT_number 66
_symmetry_cell_setting 'orthorhombic'
loop_
_space_group_symop_operation_xyz
x,y,z
-x,-y,z
x,-y,1/2-z
-x,y,1/2-z
-x,-y,-z
x,y,-z
-x,y,1/2+z
x,-y,1/2+z
1/2+x,1/2+y,z
1/2-x,1/2-y,z
1/2+x,1/2-y,1/2-z
1/2-x,1/2+y,1/2-z
1/2-x,1/2-y,-z
1/2+x,1/2+y,-z
1/2-x,1/2+y,1/2+z
1/2+x,1/2-y,1/2+z
loop_
_atom_site_type_symbol
_atom_site_label
_atom_site_fract_x
_atom_site_fract_y
_atom_site_fract_z
Si Si1 0.500000 0.500000 0.250000
Si Si2 0.426909 0.846675 0.714118
Si Si3 0.745920 0.627258 0.879669
Si Si4 0.898125 0.873901 0.118488
Si Si5 0.135613 0.468452 0.383453
O O1 0.453567 0.431615 0.179752
O O2 0.500000 0.828902 0.750000
O O3 0.401836 0.748641 0.650182
O O4 0.380868 0.871267 0.809959
O O5 0.421854 0.949492 0.643444
O O6 0.750000 0.750000 0.841419
O O7 0.674027 0.586892 0.855079
O O8 0.801086 0.540173 0.856691
O O9 0.749728 0.636673 0.000000
O O10 0.907393 0.884820 0.000000
O O11 0.138019 0.440640 0.500000
#
# Coordination Sequence:
#
# PCOD9497096 Si02
#       5
#     4  16  16  16  16
#     4  12  26  44  64  96 112 160 216 252 316 376
#     4  11  22  36  57  90 127 164 208 239 311 376
#     4   9  17  34  61  87 115 159 203 245 303 354
#     4  11  23  43  65  87 123 161 205 259 305 373
#     4  10  20  35  58  93 127 158 203 255 302 362
#
# _framework density 19.509131
#
# number of rings (size 3 to 8) (size 9 to 14) (size 15 to 20)
#    0.000    1.647    3.529    2.471    0.000    4.706 
#    0.000    0.000    0.000    0.000    0.000   19.765 
#    0.000    0.000    0.000    0.000    0.000    0.000 
#
# Total GULP energy -189570.680273 kJ/mol
# GULP energy per Si atom -5575.608243 kJ/mol
# Density = 1.946473 g / cm^3
# Si number density = 19.509131 Si / 1000 Ang^3
#
#
#
# Elastic Constant Matrix: (Units=GPa)
#
#
# Indices 1 2 3 4 5 6 
#
# 1 132.2334 17.7210 44.4470 0.0000 0.0000 0.0000
# 2 17.7210 43.7126 28.2843 0.0000 0.0000 0.0000
# 3 44.4470 28.2843 116.1484 0.0000 0.0000 0.0000
# 4 0.0000 0.0000 0.0000 14.4107 0.0000 0.0000
# 5 0.0000 0.0000 0.0000 0.0000 30.0463 0.0000
# 6 0.0000 0.0000 0.0000 0.0000 0.0000 2.6493
#
#
#
# Elastic Compliance Matrix: (Units=1/GPa)
#
#
# Indices 1 2 3 4 5 6 
#
# 1 0.008777 -0.001644 -0.002958 0.000000 0.000000 0.000000
# 2 -0.001644 0.027464 -0.006059 0.000000 0.000000 0.000000
# 3 -0.002958 -0.006059 0.011217 0.000000 0.000000 0.000000
# 4 0.000000 0.000000 0.000000 0.069393 0.000000 0.000000
# 5 0.000000 0.000000 0.000000 0.000000 0.033282 0.000000
# 6 0.000000 0.000000 0.000000 0.000000 0.000000 0.377461
#
#
# Mechanical properties :
#
#
# Convention : Reuss Voigt Hill
#
# Bulk Modulus (GPa) = 38.26214 52.55545 45.40880
# Shear Modulus (GPa) = 8.96654 22.86406 15.91530
#
# Velocity S-wave (km/s) = 2.14617 3.42711 2.85930
# Velocity P-wave (km/s) = 5.07902 6.53127 5.85038
#
# Compressibility (1/GPa) = 0.02613550
#
# Stress axis : x y z
#
# Youngs Moduli (GPa) = 113.93274 36.41192 89.14864
#
# Poissons Ratio (x) = 0.05986 0.26374
# Poissons Ratio (y) = 0.18730 0.54013
# Poissons Ratio (z) = 0.33706 0.22061
#
# Static dielectric constant tensor:
#      x y z
#    x 0.445650 0.000000 0.000000 
#    y 0.000000 1.695840 0.000000 
#    z 0.000000 0.000000 1.684390 
# 
# From -- ./inp_files/30868.got.cif
#   From: 2010.05.17/outbox.cif.g08.bks.cpg/sg66_16_cif.got.tgz:30868.got - 2010.06.03 17:51:23.
