data_PCOD9497593
_publ_section_title
;
Structure prediction by ZEFSAII (Michael W. Deem and Ramdas Pophale) SiO2 
 PCOD9497593
Probable space group: C C C M
;
_chemical_formula_sum "Si O2"
_cell_formula_units_Z 96
_cell_length_a 12.760807
_cell_length_b 14.970342
_cell_length_c 23.231976
_cell_angle_alpha 90.000000
_cell_angle_beta 90.000000
_cell_angle_gamma 90.000000
_cell_volume 4438.089056
_symmetry_space_group_name_H-M "C C C M"
_symmetry_group_IT_number 66
_symmetry_cell_setting 'orthorhombic'
loop_
_space_group_symop_operation_xyz
x,y,z
-x,-y,z
x,-y,1/2-z
-x,y,1/2-z
-x,-y,-z
x,y,-z
-x,y,1/2+z
x,-y,1/2+z
1/2+x,1/2+y,z
1/2-x,1/2-y,z
1/2+x,1/2-y,1/2-z
1/2-x,1/2+y,1/2-z
1/2-x,1/2-y,-z
1/2+x,1/2+y,-z
1/2-x,1/2+y,1/2+z
1/2+x,1/2-y,1/2+z
loop_
_atom_site_type_symbol
_atom_site_label
_atom_site_fract_x
_atom_site_fract_y
_atom_site_fract_z
Si Si1 0.102481 0.197754 0.160269
Si Si2 0.596559 0.371752 0.873514
Si Si3 0.181788 0.373872 0.118799
Si Si4 0.295623 0.962510 0.188420
Si Si5 0.370673 0.223742 0.283368
Si Si6 0.283540 0.352609 0.000000
Si Si7 0.472938 0.395420 0.500000
O O1 0.108710 0.285520 0.118467
O O2 0.217892 0.156475 0.156456
O O3 0.084799 0.241008 0.222675
O O4 0.025447 0.115011 0.145019
O O5 0.692753 0.427335 0.846823
O O6 0.601877 0.275425 0.842070
O O7 0.591313 0.372712 0.942243
O O8 0.145526 0.462526 0.150930
O O9 0.231310 0.393926 0.056735
O O10 0.372208 0.880895 0.204649
O O11 0.258660 0.000000 0.250000
O O12 0.250000 0.250000 0.275939
O O13 0.250000 0.250000 0.000000
O O14 0.409628 0.354641 0.000000
O O15 0.500000 0.500000 0.500000
#
# Coordination Sequence:
#
# PCOD9497593 Si02
#       7
#    16  16  16  16  16   8   8
#     4  11  19  37  61  89 126 153 201 253 317 374
#     4  11  24  38  62  89 122 165 199 254 311 375
#     4  11  20  35  61  88 122 163 198 249 309 371
#     4  11  22  40  63  87 125 161 205 259 319 369
#     4  10  20  39  58  86 120 158 205 253 309 380
#     4  12  20  36  61  89 121 167 210 243 306 379
#     4  12  24  42  56  91 139 157 207 267 307 369
#
# _framework density 21.630932000000001
#
# number of rings (size 3 to 8) (size 9 to 14) (size 15 to 20)
#    0.000    1.000    6.667    2.500    0.000    0.000 
#    0.000    6.250    0.000    0.000    0.000    3.500 
#    0.000    0.000    0.000    0.000    0.000    0.000 
#
# Total GULP energy -267524.041220 kJ/mol
# GULP energy per Si atom -5573.417525 kJ/mol
# Density = 2.158170 g / cm^3
# Si number density = 21.630932 Si / 1000 Ang^3
#
#
#
# Elastic Constant Matrix: (Units=GPa)
#
#
# Indices 1 2 3 4 5 6 
#
# 1 25.3461 -16.5420 19.0691 0.0000 0.0000 0.0000
# 2 -16.5420 83.6731 41.6336 0.0000 0.0000 0.0000
# 3 19.0691 41.6336 199.9146 0.0000 0.0000 0.0000
# 4 0.0000 0.0000 0.0000 22.8548 0.0000 0.0000
# 5 0.0000 0.0000 0.0000 0.0000 27.4504 0.0000
# 6 0.0000 0.0000 0.0000 0.0000 0.0000 31.6321
#
#
#
# Elastic Compliance Matrix: (Units=1/GPa)
#
#
# Indices 1 2 3 4 5 6 
#
# 1 0.055814 0.015265 -0.008503 0.000000 0.000000 0.000000
# 2 0.015265 0.017508 -0.005102 0.000000 0.000000 0.000000
# 3 -0.008503 -0.005102 0.006876 0.000000 0.000000 0.000000
# 4 0.000000 0.000000 0.000000 0.043754 0.000000 0.000000
# 5 0.000000 0.000000 0.000000 0.000000 0.036429 0.000000
# 6 0.000000 0.000000 0.000000 0.000000 0.000000 0.031613
#
#
# Mechanical properties :
#
#
# Convention : Reuss Voigt Hill
#
# Bulk Modulus (GPa) = 11.97354 44.13946 28.05650
# Shear Modulus (GPa) = 23.09321 34.03903 28.56612
#
# Velocity S-wave (km/s) = 3.27096 3.97120 3.63797
# Velocity P-wave (km/s) = 4.45118 6.44028 5.53580
#
# Compressibility (1/GPa) = 0.08351748
#
# Stress axis : x y z
#
# Youngs Moduli (GPa) = 17.91670 57.11707 145.43816
#
# Poissons Ratio (x) = -0.87190 1.23665
# Poissons Ratio (y) = -0.27350 0.74206
# Poissons Ratio (z) = 0.15234 0.29142
#
# Static dielectric constant tensor:
#      x y z
#    x 2.268880 0.000000 0.000000 
#    y 0.000000 2.036950 0.000000 
#    z 0.000000 0.000000 1.811480 
# 
# From -- ./inp_files/58179.got.cif
#   From: 2010.05.17/outbox.cif.g08.bks.cpg/sg66_30_cif.got.tgz:58179.got - 2010.06.03 17:51:23.
