data_PCOD9497435
_publ_section_title
;
Structure prediction by ZEFSAII (Michael W. Deem and Ramdas Pophale) SiO2 
 PCOD9497435
Probable space group: C C C M
;
_chemical_formula_sum "Si O2"
_cell_formula_units_Z 96
_cell_length_a 11.459249
_cell_length_b 22.739058
_cell_length_c 18.777473
_cell_angle_alpha 90.000000
_cell_angle_beta 90.000000
_cell_angle_gamma 90.000000
_cell_volume 4892.893602
_symmetry_space_group_name_H-M "C C C M"
_symmetry_group_IT_number 66
_symmetry_cell_setting 'orthorhombic'
loop_
_space_group_symop_operation_xyz
x,y,z
-x,-y,z
x,-y,1/2-z
-x,y,1/2-z
-x,-y,-z
x,y,-z
-x,y,1/2+z
x,-y,1/2+z
1/2+x,1/2+y,z
1/2-x,1/2-y,z
1/2+x,1/2-y,1/2-z
1/2-x,1/2+y,1/2-z
1/2-x,1/2-y,-z
1/2+x,1/2+y,-z
1/2-x,1/2+y,1/2+z
1/2+x,1/2-y,1/2+z
loop_
_atom_site_type_symbol
_atom_site_label
_atom_site_fract_x
_atom_site_fract_y
_atom_site_fract_z
Si Si1 0.455266 0.309704 0.419016
Si Si2 0.599831 0.383949 0.692793
Si Si3 0.451930 0.815244 0.858141
Si Si4 0.762620 0.393973 0.915796
Si Si5 0.862455 0.014394 0.417983
Si Si6 0.186366 0.691708 0.284032
O O1 0.490946 0.325592 0.500000
O O2 0.541980 0.335367 0.359666
O O3 0.445518 0.239687 0.411497
O O4 0.332654 0.342333 0.405273
O O5 0.500000 0.401222 0.750000
O O6 0.644085 0.435227 0.640869
O O7 0.712918 0.355663 0.729453
O O8 0.382687 0.872686 0.882210
O O9 0.382653 0.793406 0.788033
O O10 0.585499 0.827974 0.838067
O O11 0.706613 0.456012 0.893786
O O12 0.780108 0.398844 0.000000
O O13 0.827549 0.029983 0.500000
O O14 0.000000 0.000000 0.421648
O O15 0.250000 0.750000 0.311055
#
# Coordination Sequence:
#
# PCOD9497435 Si02
#       6
#    16  16  16  16  16  16
#     4  11  21  37  63  93 124 159 208 262 316 373
#     4  12  23  39  63  95 126 160 206 263 322 376
#     4  11  22  39  60  86 127 166 209 255 315 385
#     4  10  20  37  62  90 120 159 206 257 318 374
#     4  10  21  40  63  90 125 157 199 264 317 361
#     4  11  23  39  58  87 126 167 204 256 320 381
#
# _framework density 19.620291999999999
#
# number of rings (size 3 to 8) (size 9 to 14) (size 15 to 20)
#    0.000    1.167    3.333    4.500    0.000    1.667 
#    0.000    5.000    0.000    4.000    0.000    0.000 
#    0.000    0.000    0.000    0.000    0.000    0.000 
#
# Total GULP energy -268048.917665 kJ/mol
# GULP energy per Si atom -5584.352451 kJ/mol
# Density = 1.957564 g / cm^3
# Si number density = 19.620292 Si / 1000 Ang^3
#
#
#
# Elastic Constant Matrix: (Units=GPa)
#
#
# Indices 1 2 3 4 5 6 
#
# 1 110.1375 41.3798 26.6705 0.0000 0.0000 0.0000
# 2 41.3798 88.9833 25.2884 0.0000 0.0000 0.0000
# 3 26.6705 25.2884 64.0822 0.0000 0.0000 0.0000
# 4 0.0000 0.0000 0.0000 21.3457 0.0000 0.0000
# 5 0.0000 0.0000 0.0000 0.0000 22.8749 0.0000
# 6 0.0000 0.0000 0.0000 0.0000 0.0000 33.7068
#
#
#
# Elastic Compliance Matrix: (Units=1/GPa)
#
#
# Indices 1 2 3 4 5 6 
#
# 1 0.011496 -0.004490 -0.003013 0.000000 0.000000 0.000000
# 2 -0.004490 0.014411 -0.003818 0.000000 0.000000 0.000000
# 3 -0.003013 -0.003818 0.018366 0.000000 0.000000 0.000000
# 4 0.000000 0.000000 0.000000 0.046848 0.000000 0.000000
# 5 0.000000 0.000000 0.000000 0.000000 0.043716 0.000000
# 6 0.000000 0.000000 0.000000 0.000000 0.000000 0.029668
#
#
# Mechanical properties :
#
#
# Convention : Reuss Voigt Hill
#
# Bulk Modulus (GPa) = 46.23005 49.98672 48.10839
# Shear Modulus (GPa) = 25.72595 26.90977 26.31786
#
# Velocity S-wave (km/s) = 3.62497 3.70743 3.66643
# Velocity P-wave (km/s) = 6.41358 6.62262 6.51894
#
# Compressibility (1/GPa) = 0.02163095
#
# Stress axis : x y z
#
# Youngs Moduli (GPa) = 86.98707 69.39110 54.44942
#
# Poissons Ratio (x) = 0.31155 0.16404
# Poissons Ratio (y) = 0.39055 0.20791
# Poissons Ratio (z) = 0.26207 0.26496
#
# Static dielectric constant tensor:
#      x y z
#    x 1.690040 0.000000 0.000000 
#    y 0.000000 1.698760 0.000000 
#    z 0.000000 0.000000 1.716370 
# 
# From -- ./inp_files/48788.got.cif
#   From: 2010.05.17/outbox.cif.g08.bks.cpg/sg66_25_cif.got.tgz:48788.got - 2010.06.03 17:51:23.
