data_PCOD9497481
_publ_section_title
;
Structure prediction by ZEFSAII (Michael W. Deem and Ramdas Pophale) SiO2 
 PCOD9497481
Probable space group: C C C M
;
_chemical_formula_sum "Si O2"
_cell_formula_units_Z 68
_cell_length_a 11.086223
_cell_length_b 16.477785
_cell_length_c 20.047579
_cell_angle_alpha 90.000000
_cell_angle_beta 90.000000
_cell_angle_gamma 90.000000
_cell_volume 3662.219542
_symmetry_space_group_name_H-M "C C C M"
_symmetry_group_IT_number 66
_symmetry_cell_setting 'orthorhombic'
loop_
_space_group_symop_operation_xyz
x,y,z
-x,-y,z
x,-y,1/2-z
-x,y,1/2-z
-x,-y,-z
x,y,-z
-x,y,1/2+z
x,-y,1/2+z
1/2+x,1/2+y,z
1/2-x,1/2-y,z
1/2+x,1/2-y,1/2-z
1/2-x,1/2+y,1/2-z
1/2-x,1/2-y,-z
1/2+x,1/2+y,-z
1/2-x,1/2+y,1/2+z
1/2+x,1/2-y,1/2+z
loop_
_atom_site_type_symbol
_atom_site_label
_atom_site_fract_x
_atom_site_fract_y
_atom_site_fract_z
Si Si1 0.500000 0.635091 0.750000
Si Si2 0.604904 0.756911 0.640705
Si Si3 0.577103 0.684242 0.500000
Si Si4 0.387850 0.942778 0.855828
Si Si5 0.228801 0.440994 0.500000
Si Si6 0.807345 0.000000 0.250000
Si Si7 0.500000 0.500000 0.000000
O O1 0.548246 0.692235 0.691381
O O2 0.606594 0.574098 0.772367
O O3 0.750000 0.750000 0.643068
O O4 0.559545 0.734169 0.567088
O O5 0.576534 0.849753 0.657498
O O6 0.501110 0.600633 0.500000
O O7 0.714991 0.650005 0.500000
O O8 0.275753 0.968223 0.809680
O O9 0.500000 0.000000 0.841362
O O10 0.346338 0.951296 0.932668
O O11 0.349800 0.495735 0.500000
#
# Coordination Sequence:
#
# PCOD9497481 Si02
#       7
#     8  16   8  16   8   8   4
#     4  11  26  38  69  96 128 164 225 276 320 397
#     4  12  22  42  66  99 128 169 222 272 328 397
#     4  10  20  37  73  96 131 165 221 274 329 388
#     4  12  26  42  66  92 136 175 218 271 338 393
#     4  10  20  39  68  97 124 167 224 262 327 387
#     4  11  25  44  62  92 131 175 218 266 332 399
#     4   8  20  34  70 102 128 162 214 276 328 378
#
# _framework density 18.567975000000001
#
# number of rings (size 3 to 8) (size 9 to 14) (size 15 to 20)
#    0.706    0.235    4.706    1.765    6.588    0.000 
#    0.000    0.000    0.000    1.412    0.000    0.000 
#    0.000    0.000    0.000    0.000    0.000    0.000 
#
# Total GULP energy -189343.819918 kJ/mol
# GULP energy per Si atom -5568.935880 kJ/mol
# Density = 1.852571 g / cm^3
# Si number density = 18.567975 Si / 1000 Ang^3
#
#
#
# Elastic Constant Matrix: (Units=GPa)
#
#
# Indices 1 2 3 4 5 6 
#
# 1 79.1309 64.9869 22.7155 0.0000 0.0000 0.0000
# 2 64.9869 185.9003 53.9842 0.0000 0.0000 0.0000
# 3 22.7155 53.9842 105.1147 0.0000 0.0000 0.0000
# 4 0.0000 0.0000 0.0000 -3.5171 0.0000 0.0000
# 5 0.0000 0.0000 0.0000 0.0000 14.8206 0.0000
# 6 0.0000 0.0000 0.0000 0.0000 0.0000 39.2878
#
#
#
# Elastic Compliance Matrix: (Units=1/GPa)
#
#
# Indices 1 2 3 4 5 6 
#
# 1 0.017779 -0.005993 -0.000764 0.000000 0.000000 0.000000
# 2 -0.005993 0.008342 -0.002989 0.000000 0.000000 0.000000
# 3 -0.000764 -0.002989 0.011214 0.000000 0.000000 0.000000
# 4 0.000000 0.000000 0.000000 -0.284326 0.000000 0.000000
# 5 0.000000 0.000000 0.000000 0.000000 0.067474 0.000000
# 6 0.000000 0.000000 0.000000 0.000000 0.000000 0.025453
#
#
# Mechanical properties :
#
#
# Convention : Reuss Voigt Hill
#
# Bulk Modulus (GPa) = 56.04854 72.61325 64.33089
# Shear Modulus (GPa) = -38.87302 25.34888 -6.76207
#
# Velocity S-wave (km/s) = -4.58050 3.69886 -1.91042
# Velocity P-wave (km/s) = 1.50881 7.57850 5.46398
#
# Compressibility (1/GPa) = 0.01784168
#
# Stress axis : x y z
#
# Youngs Moduli (GPa) = 56.24764 119.86999 89.17610
#
# Poissons Ratio (x) = 0.71840 0.06814
# Poissons Ratio (y) = 0.33710 0.26657
# Poissons Ratio (z) = 0.04298 0.35833
#
# Static dielectric constant tensor:
#      x y z
#    x 1.623660 0.000000 0.000000 
#    y 0.000000 1.638560 0.000000 
#    z 0.000000 0.000000 1.649950 
# 
# From -- ./inp_files/48291.got.cif
#   From: 2010.05.17/outbox.cif.g08.bks.cpg/sg66_25_cif.got.tgz:48291.got - 2010.06.03 17:51:23.
