data_PCOD9497556
_publ_section_title
;
Structure prediction by ZEFSAII (Michael W. Deem and Ramdas Pophale) SiO2 
 PCOD9497556
Probable space group: C C C M
;
_chemical_formula_sum "Si O2"
_cell_formula_units_Z 116
_cell_length_a 26.272561
_cell_length_b 14.020300
_cell_length_c 15.013536
_cell_angle_alpha 90.000000
_cell_angle_beta 90.000000
_cell_angle_gamma 90.000000
_cell_volume 5530.223779
_symmetry_space_group_name_H-M "C C C M"
_symmetry_group_IT_number 66
_symmetry_cell_setting 'orthorhombic'
loop_
_space_group_symop_operation_xyz
x,y,z
-x,-y,z
x,-y,1/2-z
-x,y,1/2-z
-x,-y,-z
x,y,-z
-x,y,1/2+z
x,-y,1/2+z
1/2+x,1/2+y,z
1/2-x,1/2-y,z
1/2+x,1/2-y,1/2-z
1/2-x,1/2+y,1/2-z
1/2-x,1/2-y,-z
1/2+x,1/2+y,-z
1/2-x,1/2+y,1/2+z
1/2+x,1/2-y,1/2+z
loop_
_atom_site_type_symbol
_atom_site_label
_atom_site_fract_x
_atom_site_fract_y
_atom_site_fract_z
Si Si1 0.613782 0.110252 0.221974
Si Si2 0.679005 0.649611 0.852404
Si Si3 0.955978 0.071341 0.109163
Si Si4 0.907312 0.721832 0.101299
Si Si5 0.529676 0.210688 0.105254
Si Si6 0.750000 0.750000 0.000000
Si Si7 0.654386 0.543020 0.602224
Si Si8 0.691805 0.740446 0.659273
O O1 0.613985 0.159745 0.318527
O O2 0.561959 0.138414 0.167280
O O3 0.658861 0.162166 0.165169
O O4 0.618248 0.000000 0.250000
O O5 0.620635 0.676911 0.881386
O O6 0.687715 0.536371 0.849761
O O7 0.690363 0.695824 0.757874
O O8 0.715341 0.698036 0.923288
O O9 0.958878 0.181556 0.136535
O O10 0.901953 0.034924 0.140373
O O11 0.957082 0.073185 0.000000
O O12 0.000000 0.000000 0.138169
O O13 0.968196 0.710178 0.108794
O O14 0.893605 0.692947 0.000000
O O15 0.543593 0.198174 0.000000
O O16 0.654344 0.511578 0.500000
O O17 0.667352 0.654376 0.603949
O O18 0.750000 0.750000 0.630583
#
# Coordination Sequence:
#
# PCOD9497556 Si02
#       8
#    16  16  16  16  16   4  16  16
#     4  11  25  43  63  90 127 173 224 276 328 393
#     4  11  22  40  65  96 128 165 214 272 332 392
#     4   9  17  31  58  95 130 166 205 250 320 399
#     4  10  21  39  63  93 126 164 217 268 324 387
#     4  10  20  38  64  91 131 174 209 268 327 393
#     4  12  20  40  68  92 130 166 216 272 316 396
#     4  11  21  38  65  95 129 168 211 262 335 402
#     4  11  25  44  63  89 128 168 218 277 332 389
#
# _framework density 20.975643000000002
#
# number of rings (size 3 to 8) (size 9 to 14) (size 15 to 20)
#    0.000    1.517    3.448    1.655    0.000    5.241 
#    0.000    1.379    0.000    0.000    0.000    0.000 
#    0.000    0.000    0.000    0.000    0.000    0.000 
#
# Total GULP energy -322876.892826 kJ/mol
# GULP energy per Si atom -5566.842980 kJ/mol
# Density = 2.092790 g / cm^3
# Si number density = 20.975643 Si / 1000 Ang^3
#
#
#
# Elastic Constant Matrix: (Units=GPa)
#
#
# Indices 1 2 3 4 5 6 
#
# 1 98.2140 51.8457 -2.9351 0.0000 0.0000 0.0000
# 2 51.8457 144.1227 15.4633 0.0000 0.0000 0.0000
# 3 -2.9351 15.4633 62.1997 0.0000 0.0000 0.0000
# 4 0.0000 0.0000 0.0000 25.8617 0.0000 0.0000
# 5 0.0000 0.0000 0.0000 0.0000 21.8244 0.0000
# 6 0.0000 0.0000 0.0000 0.0000 0.0000 11.0848
#
#
#
# Elastic Compliance Matrix: (Units=1/GPa)
#
#
# Indices 1 2 3 4 5 6 
#
# 1 0.012760 -0.004782 0.001791 0.000000 0.000000 0.000000
# 2 -0.004782 0.008921 -0.002444 0.000000 0.000000 0.000000
# 3 0.001791 -0.002444 0.016769 0.000000 0.000000 0.000000
# 4 0.000000 0.000000 0.000000 0.038667 0.000000 0.000000
# 5 0.000000 0.000000 0.000000 0.000000 0.045820 0.000000
# 6 0.000000 0.000000 0.000000 0.000000 0.000000 0.090214
#
#
# Mechanical properties :
#
#
# Convention : Reuss Voigt Hill
#
# Bulk Modulus (GPa) = 36.25737 48.14270 42.20003
# Shear Modulus (GPa) = 21.43950 27.76501 24.60225
#
# Velocity S-wave (km/s) = 3.20052 3.64219 3.42847
# Velocity P-wave (km/s) = 5.56604 6.37879 5.98622
#
# Compressibility (1/GPa) = 0.02758060
#
# Stress axis : x y z
#
# Youngs Moduli (GPa) = 78.37062 112.09426 59.63297
#
# Poissons Ratio (x) = 0.53607 -0.10680
# Poissons Ratio (y) = 0.37479 0.14571
# Poissons Ratio (z) = -0.14036 0.27390
#
# Static dielectric constant tensor:
#      x y z
#    x 1.803730 0.000000 0.000000 
#    y 0.000000 1.794380 0.000000 
#    z 0.000000 0.000000 1.777910 
# 
# From -- ./inp_files/44354.got.cif
#   From: 2010.05.17/outbox.cif.g08.bks.cpg/sg66_23_cif.got.tgz:44354.got - 2010.06.03 17:51:23.
