data_PCOD9497799
_publ_section_title
;
Structure prediction by ZEFSAII (Michael W. Deem and Ramdas Pophale) SiO2 
 PCOD9497799
Probable space group: C C C M
;
_chemical_formula_sum "Si O2"
_cell_formula_units_Z 104
_cell_length_a 19.994842
_cell_length_b 9.879639
_cell_length_c 28.206835
_cell_angle_alpha 90.000000
_cell_angle_beta 90.000000
_cell_angle_gamma 90.000000
_cell_volume 5572.029546
_symmetry_space_group_name_H-M "C C C M"
_symmetry_group_IT_number 66
_symmetry_cell_setting 'orthorhombic'
loop_
_space_group_symop_operation_xyz
x,y,z
-x,-y,z
x,-y,1/2-z
-x,y,1/2-z
-x,-y,-z
x,y,-z
-x,y,1/2+z
x,-y,1/2+z
1/2+x,1/2+y,z
1/2-x,1/2-y,z
1/2+x,1/2-y,1/2-z
1/2-x,1/2+y,1/2-z
1/2-x,1/2-y,-z
1/2+x,1/2+y,-z
1/2-x,1/2+y,1/2+z
1/2+x,1/2-y,1/2+z
loop_
_atom_site_type_symbol
_atom_site_label
_atom_site_fract_x
_atom_site_fract_y
_atom_site_fract_z
Si Si1 0.750000 0.750000 0.836182
Si Si2 0.462722 0.146154 0.378835
Si Si3 0.328591 0.744404 0.149123
Si Si4 0.464261 0.700418 0.705071
Si Si5 0.862688 0.064695 0.366799
Si Si6 0.652747 0.154927 0.745056
Si Si7 0.035486 0.853216 0.554846
O O1 0.789564 0.866976 0.863445
O O2 0.694583 0.802855 0.800349
O O3 0.381768 0.148594 0.373607
O O4 0.487521 0.234286 0.333738
O O5 0.489100 0.235069 0.423187
O O6 0.500000 0.000000 0.378501
O O7 0.250000 0.750000 0.135781
O O8 0.354984 0.596271 0.134367
O O9 0.332013 0.766200 0.206278
O O10 0.500000 0.636146 0.750000
O O11 0.411634 0.605153 0.677271
O O12 0.422761 0.820584 0.729651
O O13 0.899772 0.127835 0.412143
O O14 0.668596 0.000000 0.750000
O O15 0.050504 0.825854 0.500000
O O16 0.000000 0.000000 0.558128
#
# Coordination Sequence:
#
# PCOD9497799 Si02
#       7
#     8  16  16  16  16  16  16
#     4  10  22  36  55  84 128 166 207 258 296 378
#     4  11  23  40  62  95 128 164 210 267 319 379
#     4  12  23  38  60  85 128 174 217 254 313 383
#     4  10  21  35  56  84 120 162 211 263 304 358
#     4  10  23  41  61  92 123 163 218 269 317 381
#     4  11  21  34  50  79 120 174 211 246 302 359
#     4  10  21  43  73  96 118 155 208 274 343 391
#
# _framework density 18.664653999999999
#
# number of rings (size 3 to 8) (size 9 to 14) (size 15 to 20)
#    0.000    1.385    3.846    1.846    0.000    4.615 
#    2.769    0.385    0.000    1.846    0.000    0.000 
#    0.000    0.000    0.000    0.000    0.000    0.000 
#
# Total GULP energy -289980.436302 kJ/mol
# GULP energy per Si atom -5576.546852 kJ/mol
# Density = 1.862217 g / cm^3
# Si number density = 18.664654 Si / 1000 Ang^3
#
#
#
# Elastic Constant Matrix: (Units=GPa)
#
#
# Indices 1 2 3 4 5 6 
#
# 1 115.2105 26.0956 37.1648 0.0000 0.0000 0.0000
# 2 26.0956 65.0390 17.6845 0.0000 0.0000 0.0000
# 3 37.1648 17.6845 105.5304 0.0000 0.0000 0.0000
# 4 0.0000 0.0000 0.0000 11.3730 0.0000 0.0000
# 5 0.0000 0.0000 0.0000 0.0000 17.3626 0.0000
# 6 0.0000 0.0000 0.0000 0.0000 0.0000 19.6120
#
#
#
# Elastic Compliance Matrix: (Units=1/GPa)
#
#
# Indices 1 2 3 4 5 6 
#
# 1 0.010442 -0.003342 -0.003117 0.000000 0.000000 0.000000
# 2 -0.003342 0.017179 -0.001702 0.000000 0.000000 0.000000
# 3 -0.003117 -0.001702 0.010859 0.000000 0.000000 0.000000
# 4 0.000000 0.000000 0.000000 0.087928 0.000000 0.000000
# 5 0.000000 0.000000 0.000000 0.000000 0.057595 0.000000
# 6 0.000000 0.000000 0.000000 0.000000 0.000000 0.050989
#
#
# Mechanical properties :
#
#
# Convention : Reuss Voigt Hill
#
# Bulk Modulus (GPa) = 45.13109 49.74109 47.43609
# Shear Modulus (GPa) = 19.32732 23.32518 21.32625
#
# Velocity S-wave (km/s) = 3.22142 3.53894 3.38390
# Velocity P-wave (km/s) = 6.17002 6.58836 6.38262
#
# Compressibility (1/GPa) = 0.02215767
#
# Stress axis : x y z
#
# Youngs Moduli (GPa) = 95.76336 58.21027 92.08946
#
# Poissons Ratio (x) = 0.19455 0.28708
# Poissons Ratio (y) = 0.32006 0.15672
# Poissons Ratio (z) = 0.29854 0.09906
#
# Static dielectric constant tensor:
#      x y z
#    x 1.731710 0.000000 0.000000 
#    y 0.000000 1.701590 0.000000 
#    z 0.000000 0.000000 1.668910 
# 
# From -- ./inp_files/70204.got.cif
#   From: 2010.05.17/outbox.cif.g08.bks.cpg/sg66_36_cif.got.tgz:70204.got - 2010.06.03 17:51:23.
