data_PCOD9497954
_publ_section_title
;
Structure prediction by ZEFSAII (Michael W. Deem and Ramdas Pophale) SiO2 
 PCOD9497954
Probable space group: C C C M
;
_chemical_formula_sum "Si O2"
_cell_formula_units_Z 104
_cell_length_a 9.177329
_cell_length_b 20.667513
_cell_length_c 28.986297
_cell_angle_alpha 90.000000
_cell_angle_beta 90.000000
_cell_angle_gamma 90.000000
_cell_volume 5497.905343
_symmetry_space_group_name_H-M "C C C M"
_symmetry_group_IT_number 66
_symmetry_cell_setting 'orthorhombic'
loop_
_space_group_symop_operation_xyz
x,y,z
-x,-y,z
x,-y,1/2-z
-x,y,1/2-z
-x,-y,-z
x,y,-z
-x,y,1/2+z
x,-y,1/2+z
1/2+x,1/2+y,z
1/2-x,1/2-y,z
1/2+x,1/2-y,1/2-z
1/2-x,1/2+y,1/2-z
1/2-x,1/2-y,-z
1/2+x,1/2+y,-z
1/2-x,1/2+y,1/2+z
1/2+x,1/2-y,1/2+z
loop_
_atom_site_type_symbol
_atom_site_label
_atom_site_fract_x
_atom_site_fract_y
_atom_site_fract_z
Si Si1 0.504955 0.106803 0.305890
Si Si2 0.290666 0.952711 0.122770
Si Si3 0.420511 0.752991 0.202344
Si Si4 0.964064 0.636424 0.447261
Si Si5 0.250000 0.250000 0.575330
Si Si6 0.772962 0.396175 0.382422
Si Si7 0.045772 0.149530 0.369123
O O1 0.500000 0.098798 0.250000
O O2 0.398400 0.057816 0.333257
O O3 0.447942 0.178004 0.321470
O O4 0.663514 0.106228 0.329855
O O5 0.367181 0.916289 0.080010
O O6 0.140973 0.915459 0.134201
O O7 0.269368 0.026838 0.109278
O O8 0.500000 0.759131 0.250000
O O9 0.250000 0.750000 0.209157
O O10 0.475791 0.688699 0.177982
O O11 0.995887 0.618164 0.500000
O O12 0.867178 0.702015 0.448064
O O13 0.111265 0.638109 0.416578
O O14 0.146824 0.200850 0.603617
O O15 0.613643 0.366140 0.388052
#
# Coordination Sequence:
#
# PCOD9497954 Si02
#       7
#    16  16  16  16   8  16  16
#     4  10  21  37  58  84 115 154 196 241 295 347
#     4  10  21  40  59  84 118 157 197 237 288 353
#     4  11  22  36  57  84 114 154 199 250 294 346
#     4  10  21  40  65  90 117 151 189 238 298 355
#     4  10  21  40  64  86 116 150 190 234 300 358
#     4  11  24  36  59  89 116 154 200 241 284 345
#     4  11  21  39  59  83 118 156 193 243 295 342
#
# _framework density 18.916295999999999
#
# number of rings (size 3 to 8) (size 9 to 14) (size 15 to 20)
#    0.000    1.538    2.308    4.385    4.308    4.308 
#    0.000    4.615    0.000    7.385    0.000    0.000 
#    0.000    0.000    0.000    0.000    0.000    0.000 
#
# Total GULP energy -289832.314671 kJ/mol
# GULP energy per Si atom -5573.698359 kJ/mol
# Density = 1.887324 g / cm^3
# Si number density = 18.916296 Si / 1000 Ang^3
#
#
#
# Elastic Constant Matrix: (Units=GPa)
#
#
# Indices 1 2 3 4 5 6 
#
# 1 129.3879 60.4586 32.2216 0.0000 0.0000 0.0000
# 2 60.4586 88.9976 23.2858 0.0000 0.0000 0.0000
# 3 32.2216 23.2858 100.5034 0.0000 0.0000 0.0000
# 4 0.0000 0.0000 0.0000 8.3358 0.0000 0.0000
# 5 0.0000 0.0000 0.0000 0.0000 0.3078 0.0000
# 6 0.0000 0.0000 0.0000 0.0000 0.0000 31.3996
#
#
#
# Elastic Compliance Matrix: (Units=1/GPa)
#
#
# Indices 1 2 3 4 5 6 
#
# 1 0.011700 -0.007417 -0.002033 0.000000 0.000000 0.000000
# 2 -0.007417 0.016662 -0.001483 0.000000 0.000000 0.000000
# 3 -0.002033 -0.001483 0.010945 0.000000 0.000000 0.000000
# 4 0.000000 0.000000 0.000000 0.119965 0.000000 0.000000
# 5 0.000000 0.000000 0.000000 0.000000 3.248576 0.000000
# 6 0.000000 0.000000 0.000000 0.000000 0.000000 0.031848
#
#
# Mechanical properties :
#
#
# Convention : Reuss Voigt Hill
#
# Bulk Modulus (GPa) = 57.32710 61.20233 59.26471
# Shear Modulus (GPa) = 1.44201 21.53683 11.48942
#
# Velocity S-wave (km/s) = 0.87405 3.37788 2.46719
# Velocity P-wave (km/s) = 5.60269 6.90202 6.28602
#
# Compressibility (1/GPa) = 0.01744376
#
# Stress axis : x y z
#
# Youngs Moduli (GPa) = 85.46687 60.01504 91.36435
#
# Poissons Ratio (x) = 0.44510 0.18573
# Poissons Ratio (y) = 0.63387 0.13547
# Poissons Ratio (z) = 0.17374 0.08899
#
# Static dielectric constant tensor:
#      x y z
#    x 1.659130 0.000000 0.000000 
#    y 0.000000 1.693360 0.000000 
#    z 0.000000 0.000000 1.675690 
# 
# From -- ./inp_files/68260.got.cif
#   From: 2010.05.17/outbox.cif.g08.bks.cpg/sg66_35_cif.got.tgz:68260.got - 2010.06.03 17:51:23.
