data_PCOD9497575
_publ_section_title
;
Structure prediction by ZEFSAII (Michael W. Deem and Ramdas Pophale) SiO2 
 PCOD9497575
Probable space group: C C C M
;
_chemical_formula_sum "Si O2"
_cell_formula_units_Z 64
_cell_length_a 10.470925
_cell_length_b 17.570462
_cell_length_c 15.273082
_cell_angle_alpha 90.000000
_cell_angle_beta 90.000000
_cell_angle_gamma 90.000000
_cell_volume 2809.926198
_symmetry_space_group_name_H-M "C C C M"
_symmetry_group_IT_number 66
_symmetry_cell_setting 'orthorhombic'
loop_
_space_group_symop_operation_xyz
x,y,z
-x,-y,z
x,-y,1/2-z
-x,y,1/2-z
-x,-y,-z
x,y,-z
-x,y,1/2+z
x,-y,1/2+z
1/2+x,1/2+y,z
1/2-x,1/2-y,z
1/2+x,1/2-y,1/2-z
1/2-x,1/2+y,1/2-z
1/2-x,1/2-y,-z
1/2+x,1/2+y,-z
1/2-x,1/2+y,1/2+z
1/2+x,1/2-y,1/2+z
loop_
_atom_site_type_symbol
_atom_site_label
_atom_site_fract_x
_atom_site_fract_y
_atom_site_fract_z
Si Si1 0.310434 0.000000 0.250000
Si Si2 0.615123 0.378698 0.811045
Si Si3 0.597328 0.072159 0.000000
Si Si4 0.250000 0.750000 0.698874
Si Si5 0.446635 0.866043 0.656556
Si Si6 0.597569 0.572964 0.500000
O O1 0.224026 0.941791 0.197315
O O2 0.387298 0.948163 0.318265
O O3 0.500000 0.405006 0.750000
O O4 0.668448 0.303605 0.764008
O O5 0.574964 0.377916 0.912022
O O6 0.553518 0.122024 0.084079
O O7 0.500000 0.000000 0.000000
O O8 0.251296 0.946494 0.000000
O O9 0.335790 0.805481 0.639028
O O10 0.500000 0.839553 0.750000
O O11 0.500000 0.500000 0.500000
#
# Coordination Sequence:
#
# PCOD9497575 Si02
#       6
#     8  16   8   8  16   8
#     4  10  20  38  66  98 135 176 223 284 341 402
#     4  11  23  42  67  95 134 180 225 278 341 406
#     4  12  24  41  72 106 135 176 229 283 340 403
#     4  10  24  44  64  94 138 182 228 280 338 402
#     4  11  22  40  65  96 135 178 229 285 342 403
#     4  12  26  43  68 103 139 176 225 282 342 407
#
# _framework density 22.776399000000001
#
# number of rings (size 3 to 8) (size 9 to 14) (size 15 to 20)
#    0.000    1.000    0.000    9.000    0.000    3.000 
#    0.000    5.000    0.000    0.000    0.000    0.000 
#    0.000    0.000    0.000    0.000    0.000    0.000 
#
# Total GULP energy -178890.095474 kJ/mol
# GULP energy per Si atom -5590.315484 kJ/mol
# Density = 2.272456 g / cm^3
# Si number density = 22.776399 Si / 1000 Ang^3
#
#
#
# Elastic Constant Matrix: (Units=GPa)
#
#
# Indices 1 2 3 4 5 6 
#
# 1 139.1717 54.0325 47.4547 0.0000 0.0000 0.0000
# 2 54.0325 110.3920 3.7037 0.0000 0.0000 0.0000
# 3 47.4547 3.7037 132.8746 0.0000 0.0000 0.0000
# 4 0.0000 0.0000 0.0000 2.0793 0.0000 0.0000
# 5 0.0000 0.0000 0.0000 0.0000 32.7462 0.0000
# 6 0.0000 0.0000 0.0000 0.0000 0.0000 42.6168
#
#
#
# Elastic Compliance Matrix: (Units=1/GPa)
#
#
# Indices 1 2 3 4 5 6 
#
# 1 0.010306 -0.004925 -0.003543 0.000000 0.000000 0.000000
# 2 -0.004925 0.011421 0.001441 0.000000 0.000000 0.000000
# 3 -0.003543 0.001441 0.008751 0.000000 0.000000 0.000000
# 4 0.000000 0.000000 0.000000 0.480932 0.000000 0.000000
# 5 0.000000 0.000000 0.000000 0.000000 0.030538 0.000000
# 6 0.000000 0.000000 0.000000 0.000000 0.000000 0.023465
#
#
# Mechanical properties :
#
#
# Convention : Reuss Voigt Hill
#
# Bulk Modulus (GPa) = 60.89372 65.86889 63.38131
# Shear Modulus (GPa) = 8.54784 33.97162 21.25973
#
# Velocity S-wave (km/s) = 1.93935 3.86622 3.05849
# Velocity P-wave (km/s) = 5.63988 6.99377 6.35299
#
# Compressibility (1/GPa) = 0.01642206
#
# Stress axis : x y z
#
# Youngs Moduli (GPa) = 97.03236 87.55728 114.27006
#
# Poissons Ratio (x) = 0.43126 0.40490
# Poissons Ratio (y) = 0.47793 -0.16463
# Poissons Ratio (z) = 0.34382 -0.12615
#
# Static dielectric constant tensor:
#      x y z
#    x 1.961230 0.000000 0.000000 
#    y 0.000000 1.960090 0.000000 
#    z 0.000000 0.000000 1.874780 
# 
# From -- ./inp_files/25891.got.cif
#   From: 2010.05.17/outbox.cif.g08.bks.cpg/sg66_13_cif.got.tgz:25891.got - 2010.06.03 17:51:23.
