data_PCOD9497251
_publ_section_title
;
Structure prediction by ZEFSAII (Michael W. Deem and Ramdas Pophale) SiO2 
 PCOD9497251
Probable space group: C C C M
;
_chemical_formula_sum "Si O2"
_cell_formula_units_Z 96
_cell_length_a 19.468175
_cell_length_b 15.319397
_cell_length_c 15.084239
_cell_angle_alpha 90.000000
_cell_angle_beta 90.000000
_cell_angle_gamma 90.000000
_cell_volume 4498.734024
_symmetry_space_group_name_H-M "C C C M"
_symmetry_group_IT_number 66
_symmetry_cell_setting 'orthorhombic'
loop_
_space_group_symop_operation_xyz
x,y,z
-x,-y,z
x,-y,1/2-z
-x,y,1/2-z
-x,-y,-z
x,y,-z
-x,y,1/2+z
x,-y,1/2+z
1/2+x,1/2+y,z
1/2-x,1/2-y,z
1/2+x,1/2-y,1/2-z
1/2-x,1/2+y,1/2-z
1/2-x,1/2-y,-z
1/2+x,1/2+y,-z
1/2-x,1/2+y,1/2+z
1/2+x,1/2-y,1/2+z
loop_
_atom_site_type_symbol
_atom_site_label
_atom_site_fract_x
_atom_site_fract_y
_atom_site_fract_z
Si Si1 0.638254 0.141198 0.597164
Si Si2 0.843057 0.568643 0.401879
Si Si3 0.759264 0.342270 0.244121
Si Si4 0.507837 0.898319 0.644135
Si Si5 0.493512 0.606786 0.102092
Si Si6 0.105670 0.895531 0.256621
O O1 0.660417 0.171602 0.500000
O O2 0.687427 0.172680 0.675442
O O3 0.556507 0.155751 0.608088
O O4 0.644447 0.035378 0.601019
O O5 0.817559 0.590212 0.500000
O O6 0.791554 0.590302 0.323847
O O7 0.914371 0.620257 0.383863
O O8 0.750000 0.250000 0.196236
O O9 0.684115 0.372113 0.272355
O O10 0.500000 0.895550 0.750000
O O11 0.500000 0.000000 0.615920
O O12 0.500000 0.500000 0.099388
O O13 0.428312 0.634092 0.163076
O O14 0.558672 0.635253 0.161482
O O15 0.491521 0.636354 0.000000
O O16 0.100346 0.000000 0.250000
#
# Coordination Sequence:
#
# PCOD9497251 Si02
#       6
#    16  16  16  16  16  16
#     4  10  20  36  60  87 112 143 187 234 279 328
#     4  10  20  36  60  87 112 143 187 234 279 328
#     4  12  25  38  52  76 118 160 187 224 270 330
#     4   9  15  29  57  87 113 137 175 234 284 325
#     4   8  15  31  58  86 103 122 164 228 289 327
#     4   9  18  34  56  81 106 132 176 227 268 324
#
# _framework density 21.339337
#
# number of rings (size 3 to 8) (size 9 to 14) (size 15 to 20)
#    0.000    2.333    1.667    3.000    0.000    4.000 
#    0.000    6.667    0.000    0.000    0.000    0.000 
#    0.000    0.000    0.000    0.000    0.000    0.000 
#
# Total GULP energy -267840.651865 kJ/mol
# GULP energy per Si atom -5580.013581 kJ/mol
# Density = 2.129077 g / cm^3
# Si number density = 21.339337 Si / 1000 Ang^3
#
#
#
# Elastic Constant Matrix: (Units=GPa)
#
#
# Indices 1 2 3 4 5 6 
#
# 1 117.9000 -1.7679 44.7977 0.0000 0.0000 0.0000
# 2 -1.7679 24.1017 10.2464 0.0000 0.0000 0.0000
# 3 44.7977 10.2464 121.8410 0.0000 0.0000 0.0000
# 4 0.0000 0.0000 0.0000 -3.0341 0.0000 0.0000
# 5 0.0000 0.0000 0.0000 0.0000 -14.5794 0.0000
# 6 0.0000 0.0000 0.0000 0.0000 0.0000 -24.0276
#
#
#
# Elastic Compliance Matrix: (Units=1/GPa)
#
#
# Indices 1 2 3 4 5 6 
#
# 1 0.009989 0.002379 -0.003873 0.000000 0.000000 0.000000
# 2 0.002379 0.043596 -0.004541 0.000000 0.000000 0.000000
# 3 -0.003873 -0.004541 0.010013 0.000000 0.000000 0.000000
# 4 0.000000 0.000000 0.000000 -0.329592 0.000000 0.000000
# 5 0.000000 0.000000 0.000000 0.000000 -0.068590 0.000000
# 6 0.000000 0.000000 0.000000 0.000000 0.000000 -0.041619
#
#
# Mechanical properties :
#
#
# Convention : Reuss Voigt Hill
#
# Bulk Modulus (GPa) = 19.40662 41.15501 30.28081
# Shear Modulus (GPa) = -14.41100 5.70956 -4.35072
#
# Velocity S-wave (km/s) = -2.60152 1.63750 -1.42942
# Velocity P-wave (km/s) = 0.30025 4.78571 3.39066
#
# Compressibility (1/GPa) = 0.05152881
#
# Stress axis : x y z
#
# Youngs Moduli (GPa) = 100.11078 22.93794 99.86819
#
# Poissons Ratio (x) = -0.05457 0.38676
# Poissons Ratio (y) = -0.23818 0.45350
# Poissons Ratio (z) = 0.38770 0.10416
#
# Static dielectric constant tensor:
#      x y z
#    x 1.770310 0.000000 0.000000 
#    y 0.000000 1.825580 0.000000 
#    z 0.000000 0.000000 1.763000 
# 
# From -- ./inp_files/31172.got.cif
#   From: 2010.05.17/outbox.cif.g08.bks.cpg/sg66_16_cif.got.tgz:31172.got - 2010.06.03 17:51:23.
