data_PCOD9497974
_publ_section_title
;
Structure prediction by ZEFSAII (Michael W. Deem and Ramdas Pophale) SiO2 
 PCOD9497974
Probable space group: C C C M
;
_chemical_formula_sum "Si O2"
_cell_formula_units_Z 64
_cell_length_a 27.300943
_cell_length_b 5.230755
_cell_length_c 18.825939
_cell_angle_alpha 90.000000
_cell_angle_beta 90.000000
_cell_angle_gamma 90.000000
_cell_volume 2688.429636
_symmetry_space_group_name_H-M "C C C M"
_symmetry_group_IT_number 66
_symmetry_cell_setting 'orthorhombic'
loop_
_space_group_symop_operation_xyz
x,y,z
-x,-y,z
x,-y,1/2-z
-x,y,1/2-z
-x,-y,-z
x,y,-z
-x,y,1/2+z
x,-y,1/2+z
1/2+x,1/2+y,z
1/2-x,1/2-y,z
1/2+x,1/2-y,1/2-z
1/2-x,1/2+y,1/2-z
1/2-x,1/2-y,-z
1/2+x,1/2+y,-z
1/2-x,1/2+y,1/2+z
1/2+x,1/2-y,1/2+z
loop_
_atom_site_type_symbol
_atom_site_label
_atom_site_fract_x
_atom_site_fract_y
_atom_site_fract_z
Si Si1 0.045908 0.812587 0.913852
Si Si2 0.791830 0.463382 0.418096
Si Si3 0.597050 0.205728 0.415652
Si Si4 0.306190 0.749909 0.782363
O O1 0.061769 0.527012 0.888312
O O2 0.088395 0.006340 0.890305
O O3 0.042683 0.785051 0.000000
O O4 0.000000 0.000000 0.894535
O O5 0.785268 0.537325 0.500000
O O6 0.750000 0.250000 0.401567
O O7 0.845695 0.344964 0.410274
O O8 0.798339 0.704147 0.365501
O O9 0.585672 0.214534 0.500000
O O10 0.329611 0.500000 0.750000
O O11 0.250000 0.750000 0.753222
O O12 0.330999 0.000000 0.750000
#
# Coordination Sequence:
#
# PCOD9497974 Si02
#       4
#    16  16  16  16
#     4   9  16  28  46  68 101 147 192 235 289 348
#     4  10  21  37  59  89 126 165 202 245 304 370
#     4   9  18  30  46  74 110 147 190 237 287 351
#     4  10  21  38  57  77 107 153 203 247 288 336
#
# _framework density 23.805720000000001
#
# number of rings (size 3 to 8) (size 9 to 14) (size 15 to 20)
#    0.000    2.500    0.000    3.000    0.000    7.500 
#    0.000    8.750    0.000    0.750    0.000    0.000 
#    0.000   15.000    0.000    1.000    0.000    0.500 
#
# Total GULP energy -178141.457572 kJ/mol
# GULP energy per Si atom -5566.920549 kJ/mol
# Density = 2.375154 g / cm^3
# Si number density = 23.805720 Si / 1000 Ang^3
#
#
#
# Elastic Constant Matrix: (Units=GPa)
#
#
# Indices 1 2 3 4 5 6 
#
# 1 58.8861 -5.2206 -0.6612 0.0000 0.0000 0.0000
# 2 -5.2206 147.0975 42.8947 0.0000 0.0000 0.0000
# 3 -0.6612 42.8947 128.4672 0.0000 0.0000 0.0000
# 4 0.0000 0.0000 0.0000 23.0427 0.0000 0.0000
# 5 0.0000 0.0000 0.0000 0.0000 -5.5206 0.0000
# 6 0.0000 0.0000 0.0000 0.0000 0.0000 35.7512
#
#
#
# Elastic Compliance Matrix: (Units=1/GPa)
#
#
# Indices 1 2 3 4 5 6 
#
# 1 0.017037 0.000642 -0.000127 0.000000 0.000000 0.000000
# 2 0.000642 0.007556 -0.002520 0.000000 0.000000 0.000000
# 3 -0.000127 -0.002520 0.008625 0.000000 0.000000 0.000000
# 4 0.000000 0.000000 0.000000 0.043398 0.000000 0.000000
# 5 0.000000 0.000000 0.000000 0.000000 -0.181138 0.000000
# 6 0.000000 0.000000 0.000000 0.000000 0.000000 0.027971
#
#
# Mechanical properties :
#
#
# Convention : Reuss Voigt Hill
#
# Bulk Modulus (GPa) = 34.23625 45.38630 39.81128
# Shear Modulus (GPa) = -79.60927 30.48385 -24.56271
#
# Velocity S-wave (km/s) = -5.78911 3.58233 -3.21565
# Velocity P-wave (km/s) = 5.50203 6.01809 1.72410
#
# Compressibility (1/GPa) = 0.02920880
#
# Stress axis : x y z
#
# Youngs Moduli (GPa) = 58.69447 132.35054 115.94613
#
# Poissons Ratio (x) = -0.08491 0.01467
# Poissons Ratio (y) = -0.03766 0.29213
# Poissons Ratio (z) = 0.00743 0.33346
#
# Static dielectric constant tensor:
#      x y z
#    x 2.045290 0.000000 0.000000 
#    y 0.000000 2.491300 0.000000 
#    z 0.000000 0.000000 1.924240 
# 
# From -- ./inp_files/52756.got.cif
#   From: 2010.05.17/outbox.cif.g08.bks.cpg/sg66_27_cif.got.tgz:52756.got - 2010.06.03 17:51:23.
