data_PCOD9497035
_publ_section_title
;
Structure prediction by ZEFSAII (Michael W. Deem and Ramdas Pophale) SiO2 
 PCOD9497035
Probable space group: C C C M
;
_chemical_formula_sum "Si O2"
_cell_formula_units_Z 104
_cell_length_a 19.595481
_cell_length_b 24.879332
_cell_length_c 9.652268
_cell_angle_alpha 90.000000
_cell_angle_beta 90.000000
_cell_angle_gamma 90.000000
_cell_volume 4705.697609
_symmetry_space_group_name_H-M "C C C M"
_symmetry_group_IT_number 66
_symmetry_cell_setting 'orthorhombic'
loop_
_space_group_symop_operation_xyz
x,y,z
-x,-y,z
x,-y,1/2-z
-x,y,1/2-z
-x,-y,-z
x,y,-z
-x,y,1/2+z
x,-y,1/2+z
1/2+x,1/2+y,z
1/2-x,1/2-y,z
1/2+x,1/2-y,1/2-z
1/2-x,1/2+y,1/2-z
1/2-x,1/2-y,-z
1/2+x,1/2+y,-z
1/2-x,1/2+y,1/2+z
1/2+x,1/2-y,1/2+z
loop_
_atom_site_type_symbol
_atom_site_label
_atom_site_fract_x
_atom_site_fract_y
_atom_site_fract_z
Si Si1 0.782744 0.948610 0.660554
Si Si2 0.248802 0.849727 0.346143
Si Si3 0.598756 0.691948 0.162223
Si Si4 0.920166 0.426729 0.244276
Si Si5 0.123417 0.504457 0.500000
Si Si6 0.938626 0.911858 0.338049
Si Si7 0.399183 0.187665 0.159993
O O1 0.763070 0.956915 0.500000
O O2 0.752289 0.895236 0.728871
O O3 0.865141 0.941019 0.669514
O O4 0.763214 0.000000 0.750000
O O5 0.244513 0.875864 0.500000
O O6 0.180715 0.814749 0.332199
O O7 0.316838 0.815227 0.340846
O O8 0.572410 0.646114 0.265230
O O9 0.579344 0.752490 0.201312
O O10 0.579376 0.682476 0.000000
O O11 0.882974 0.448480 0.380333
O O12 0.886324 0.457636 0.118775
O O13 0.919329 0.362157 0.244644
O O14 0.000000 0.442077 0.250000
O O15 0.956385 0.907838 0.500000
O O16 0.000000 0.937472 0.250000
O O17 0.421877 0.178610 0.000000
#
# Coordination Sequence:
#
# PCOD9497035 Si02
#       7
#    16  16  16  16   8  16  16
#     4  10  21  38  58  82 115 149 186 230 279 330
#     4   9  18  36  58  81 109 149 188 222 272 330
#     4   9  18  35  59  80 112 151 184 223 271 329
#     4  11  20  36  56  77 103 139 180 225 274 329
#     4  10  21  38  58  72 100 144 180 216 275 334
#     4  10  21  37  58  85 114 149 187 227 278 335
#     4  10  20  35  56  87 111 139 186 234 274 323
#
# _framework density 22.100866
#
# number of rings (size 3 to 8) (size 9 to 14) (size 15 to 20)
#    0.000    2.154    0.769    3.231    0.000    4.615 
#    5.538    1.538    0.000    3.692    0.000    0.000 
#    0.000    0.000    0.000    0.000    0.000    0.000 
#
# Total GULP energy -289716.687477 kJ/mol
# GULP energy per Si atom -5571.474759 kJ/mol
# Density = 2.205056 g / cm^3
# Si number density = 22.100866 Si / 1000 Ang^3
#
#
#
# Elastic Constant Matrix: (Units=GPa)
#
#
# Indices 1 2 3 4 5 6 
#
# 1 77.2869 -4.3503 13.6405 0.0000 0.0000 0.0000
# 2 -4.3503 133.0287 49.2239 0.0000 0.0000 0.0000
# 3 13.6405 49.2239 159.8002 0.0000 0.0000 0.0000
# 4 0.0000 0.0000 0.0000 -3.2254 0.0000 0.0000
# 5 0.0000 0.0000 0.0000 0.0000 -18.9991 0.0000
# 6 0.0000 0.0000 0.0000 0.0000 0.0000 -9.4279
#
#
#
# Elastic Compliance Matrix: (Units=1/GPa)
#
#
# Indices 1 2 3 4 5 6 
#
# 1 0.013245 0.000961 -0.001427 0.000000 0.000000 0.000000
# 2 0.000961 0.008554 -0.002717 0.000000 0.000000 0.000000
# 3 -0.001427 -0.002717 0.007216 0.000000 0.000000 0.000000
# 4 0.000000 0.000000 0.000000 -0.310035 0.000000 0.000000
# 5 0.000000 0.000000 0.000000 0.000000 -0.052634 0.000000
# 6 0.000000 0.000000 0.000000 0.000000 0.000000 -0.106068
#
#
# Mechanical properties :
#
#
# Convention : Reuss Voigt Hill
#
# Bulk Modulus (GPa) = 44.14996 54.12710 49.13853
# Shear Modulus (GPa) = -11.74241 14.44296 1.35028
#
# Velocity S-wave (km/s) = -2.30752 2.55914 0.78249
# Velocity P-wave (km/s) = 3.59450 5.76857 4.80608
#
# Compressibility (1/GPa) = 0.02265008
#
# Stress axis : x y z
#
# Youngs Moduli (GPa) = 75.50201 116.90527 138.57149
#
# Poissons Ratio (x) = -0.11235 0.19768
# Poissons Ratio (y) = -0.07256 0.37649
# Poissons Ratio (z) = 0.10771 0.31762
#
# Static dielectric constant tensor:
#      x y z
#    x 1.900890 0.000000 0.000000 
#    y 0.000000 1.781140 0.000000 
#    z 0.000000 0.000000 1.744370 
# 
# From -- ./inp_files/9389.got.cif
#   From: 2010.05.17/outbox.cif.g08.bks.cpg/sg66_5_cif.got.tgz:9389.got - 2010.06.03 17:51:23.
