data_PCOD9497647
_publ_section_title
;
Structure prediction by ZEFSAII (Michael W. Deem and Ramdas Pophale) SiO2 
 PCOD9497647
Probable space group: C C C M
;
_chemical_formula_sum "Si O2"
_cell_formula_units_Z 60
_cell_length_a 22.335530
_cell_length_b 13.801240
_cell_length_c 9.927598
_cell_angle_alpha 90.000000
_cell_angle_beta 90.000000
_cell_angle_gamma 90.000000
_cell_volume 3060.261604
_symmetry_space_group_name_H-M "C C C M"
_symmetry_group_IT_number 66
_symmetry_cell_setting 'orthorhombic'
loop_
_space_group_symop_operation_xyz
x,y,z
-x,-y,z
x,-y,1/2-z
-x,y,1/2-z
-x,-y,-z
x,y,-z
-x,y,1/2+z
x,-y,1/2+z
1/2+x,1/2+y,z
1/2-x,1/2-y,z
1/2+x,1/2-y,1/2-z
1/2-x,1/2+y,1/2-z
1/2-x,1/2-y,-z
1/2+x,1/2+y,-z
1/2-x,1/2+y,1/2+z
1/2+x,1/2-y,1/2+z
loop_
_atom_site_type_symbol
_atom_site_label
_atom_site_fract_x
_atom_site_fract_y
_atom_site_fract_z
Si Si1 0.307640 0.967590 0.000000
Si Si2 0.276280 0.500000 0.750000
Si Si3 0.131302 0.737291 0.000000
Si Si4 0.500000 0.000000 0.750000
Si Si5 0.881096 0.331681 0.500000
Si Si6 0.683380 0.705057 0.219448
Si Si7 0.022590 0.372566 0.500000
O O1 0.266302 0.962014 0.131383
O O2 0.344469 0.067564 0.000000
O O3 0.349907 0.875328 0.000000
O O4 0.312415 0.409210 0.809455
O O5 0.159740 0.785035 0.129893
O O6 0.059872 0.726425 0.000000
O O7 0.534421 0.931915 0.640642
O O8 0.860024 0.268085 0.373399
O O9 0.951353 0.353702 0.500000
O O10 0.750000 0.750000 0.204080
#
# Coordination Sequence:
#
# PCOD9497647 Si02
#       7
#     8   8   8   4   8  16   8
#     4  12  20  35  60  92 120 165 186 252 310 392
#     4  12  24  37  62  88 126 154 207 252 320 358
#     4  12  24  39  64  90 131 162 212 250 316 380
#     4  10  20  40  60  90 136 160 210 242 320 372
#     4  12  24  39  64  90 131 162 212 250 316 380
#     4  12  23  42  61  92 122 168 207 263 314 376
#     4  11  24  40  62  93 130 176 206 259 306 385
#
# _framework density 19.606166999999999
#
# number of rings (size 3 to 8) (size 9 to 14) (size 15 to 20)
#    0.000    0.267    5.333    5.600    0.000    2.133 
#    0.000    0.000    0.000    4.800    0.000    0.000 
#    0.000    0.000    0.000    0.000    0.000    0.000 
#
# Total GULP energy -167723.108114 kJ/mol
# GULP energy per Si atom -5590.770270 kJ/mol
# Density = 1.956154 g / cm^3
# Si number density = 19.606167 Si / 1000 Ang^3
#
#
#
# Elastic Constant Matrix: (Units=GPa)
#
#
# Indices 1 2 3 4 5 6 
#
# 1 73.1663 20.9634 11.6213 0.0000 0.0000 0.0000
# 2 20.9634 80.7869 -19.9698 0.0000 0.0000 0.0000
# 3 11.6213 -19.9698 103.4740 0.0000 0.0000 0.0000
# 4 0.0000 0.0000 0.0000 50.2878 0.0000 0.0000
# 5 0.0000 0.0000 0.0000 0.0000 34.4808 0.0000
# 6 0.0000 0.0000 0.0000 0.0000 0.0000 18.2879
#
#
#
# Elastic Compliance Matrix: (Units=1/GPa)
#
#
# Indices 1 2 3 4 5 6 
#
# 1 0.015418 -0.004651 -0.002629 0.000000 0.000000 0.000000
# 2 -0.004651 0.014401 0.003302 0.000000 0.000000 0.000000
# 3 -0.002629 0.003302 0.010597 0.000000 0.000000 0.000000
# 4 0.000000 0.000000 0.000000 0.019886 0.000000 0.000000
# 5 0.000000 0.000000 0.000000 0.000000 0.029002 0.000000
# 6 0.000000 0.000000 0.000000 0.000000 0.000000 0.054681
#
#
# Mechanical properties :
#
#
# Convention : Reuss Voigt Hill
#
# Bulk Modulus (GPa) = 30.80774 31.40633 31.10703
# Shear Modulus (GPa) = 30.72019 36.93213 33.82616
#
# Velocity S-wave (km/s) = 3.96266 4.34487 4.15816
# Velocity P-wave (km/s) = 6.05675 6.42058 6.24132
#
# Compressibility (1/GPa) = 0.03245937
#
# Stress axis : x y z
#
# Youngs Moduli (GPa) = 64.86106 69.43877 94.36865
#
# Poissons Ratio (x) = 0.32293 0.24811
# Poissons Ratio (y) = 0.30164 -0.31157
# Poissons Ratio (z) = 0.17053 -0.22926
#
# Static dielectric constant tensor:
#      x y z
#    x 1.698470 0.000000 0.000000 
#    y 0.000000 1.699010 0.000000 
#    z 0.000000 0.000000 1.701630 
# 
# From -- ./inp_files/5035.got.cif
#   From: 2010.05.17/outbox.cif.g08.bks.cpg/sg66_3_cif.got.tgz:5035.got - 2010.06.03 17:51:23.
