data_PCOD9497384
_publ_section_title
;
Structure prediction by ZEFSAII (Michael W. Deem and Ramdas Pophale) SiO2 
 PCOD9497384
Probable space group: C C C M
;
_chemical_formula_sum "Si O2"
_cell_formula_units_Z 116
_cell_length_a 25.617769
_cell_length_b 10.144365
_cell_length_c 23.163726
_cell_angle_alpha 90.000000
_cell_angle_beta 90.000000
_cell_angle_gamma 90.000000
_cell_volume 6019.696440
_symmetry_space_group_name_H-M "C C C M"
_symmetry_group_IT_number 66
_symmetry_cell_setting 'orthorhombic'
loop_
_space_group_symop_operation_xyz
x,y,z
-x,-y,z
x,-y,1/2-z
-x,y,1/2-z
-x,-y,-z
x,y,-z
-x,y,1/2+z
x,-y,1/2+z
1/2+x,1/2+y,z
1/2-x,1/2-y,z
1/2+x,1/2-y,1/2-z
1/2-x,1/2+y,1/2-z
1/2-x,1/2-y,-z
1/2+x,1/2+y,-z
1/2-x,1/2+y,1/2+z
1/2+x,1/2-y,1/2+z
loop_
_atom_site_type_symbol
_atom_site_label
_atom_site_fract_x
_atom_site_fract_y
_atom_site_fract_z
Si Si1 0.754040 0.090698 0.934668
Si Si2 0.131554 0.956564 0.102599
Si Si3 0.277528 0.102216 0.697025
Si Si4 0.994326 0.346362 0.846052
Si Si5 0.414845 0.332067 0.182735
Si Si6 0.474557 0.370491 0.437036
Si Si7 0.882968 0.261383 0.797769
Si Si8 0.500000 0.500000 0.250000
O O1 0.750000 0.250000 0.935006
O O2 0.813809 0.045162 0.929050
O O3 0.733009 0.054096 0.869613
O O4 0.734310 0.049387 0.000000
O O5 0.085920 0.904505 0.061989
O O6 0.130602 0.850098 0.154966
O O7 0.113780 0.094846 0.130714
O O8 0.250000 0.250000 0.703681
O O9 0.339892 0.126122 0.698158
O O10 0.263514 0.000000 0.750000
O O11 0.982733 0.261921 0.902759
O O12 0.943573 0.307693 0.806578
O O13 0.000000 0.500000 0.853128
O O14 0.052190 0.298149 0.829574
O O15 0.376763 0.304326 0.235419
O O16 0.460896 0.421889 0.209147
O O17 0.500000 0.500000 0.408617
O O18 0.498251 0.358183 0.500000
#
# Coordination Sequence:
#
# PCOD9497384 Si02
#       8
#    16  16  16  16  16  16  16   4
#     4  10  21  40  64  92 127 165 214 275 337 402
#     4  11  19  35  59  94 119 158 212 272 326 380
#     4  11  25  43  64  98 130 165 217 273 335 394
#     4  11  24  39  56  86 131 173 211 249 317 403
#     4  12  21  33  58  89 132 166 209 259 322 390
#     4  10  20  37  60  86 118 158 213 275 317 374
#     4  11  22  36  58  88 127 167 210 249 326 388
#     4  12  16  32  50  88 122 164 202 256 306 380
#
# _framework density 19.270074999999999
#
# number of rings (size 3 to 8) (size 9 to 14) (size 15 to 20)
#    0.000    1.103    6.897    1.241    3.862    0.828 
#    0.000    0.000    0.000    0.414    0.000    0.000 
#    0.000    0.000    0.000    0.000    0.000    0.000 
#
# Total GULP energy -322903.775532 kJ/mol
# GULP energy per Si atom -5567.306475 kJ/mol
# Density = 1.922621 g / cm^3
# Si number density = 19.270075 Si / 1000 Ang^3
#
#
#
# Elastic Constant Matrix: (Units=GPa)
#
#
# Indices 1 2 3 4 5 6 
#
# 1 52.2775 4.2400 14.2899 0.0000 0.0000 0.0000
# 2 4.2400 92.8826 40.2878 0.0000 0.0000 0.0000
# 3 14.2899 40.2878 135.8429 0.0000 0.0000 0.0000
# 4 0.0000 0.0000 0.0000 6.6348 0.0000 0.0000
# 5 0.0000 0.0000 0.0000 0.0000 -28.6906 0.0000
# 6 0.0000 0.0000 0.0000 0.0000 0.0000 24.0708
#
#
#
# Elastic Compliance Matrix: (Units=1/GPa)
#
#
# Indices 1 2 3 4 5 6 
#
# 1 0.019695 0.000000 -0.002072 0.000000 0.000000 0.000000
# 2 0.000000 0.012356 -0.003664 0.000000 0.000000 0.000000
# 3 -0.002072 -0.003664 0.008666 0.000000 0.000000 0.000000
# 4 0.000000 0.000000 0.000000 0.150720 0.000000 0.000000
# 5 0.000000 0.000000 0.000000 0.000000 -0.034855 0.000000
# 6 0.000000 0.000000 0.000000 0.000000 0.000000 0.041544
#
#
# Mechanical properties :
#
#
# Convention : Reuss Voigt Hill
#
# Bulk Modulus (GPa) = 34.19523 44.29315 39.24419
# Shear Modulus (GPa) = 22.79491 15.21536 19.00513
#
# Velocity S-wave (km/s) = 3.44309 2.81300 3.14387
# Velocity P-wave (km/s) = 5.79571 5.79534 5.79553
#
# Compressibility (1/GPa) = 0.02924385
#
# Stress axis : x y z
#
# Youngs Moduli (GPa) = 50.77433 80.93420 115.39173
#
# Poissons Ratio (x) = 0.00004 0.23905
# Poissons Ratio (y) = 0.00002 0.42284
# Poissons Ratio (z) = 0.10519 0.29657
#
# Static dielectric constant tensor:
#      x y z
#    x 1.711940 0.000000 0.000000 
#    y 0.000000 1.675390 0.000000 
#    z 0.000000 0.000000 2.613750 
# 
# From -- ./inp_files/60208.got.cif
#   From: 2010.05.17/outbox.cif.g08.bks.cpg/sg66_31_cif.got.tgz:60208.got - 2010.06.03 17:51:23.
