data_PCOD9497571
_publ_section_title
;
Structure prediction by ZEFSAII (Michael W. Deem and Ramdas Pophale) SiO2 
 PCOD9497571
Probable space group: C C C M
;
_chemical_formula_sum "Si O2"
_cell_formula_units_Z 104
_cell_length_a 21.271568
_cell_length_b 9.265452
_cell_length_c 24.812785
_cell_angle_alpha 90.000000
_cell_angle_beta 90.000000
_cell_angle_gamma 90.000000
_cell_volume 4890.368973
_symmetry_space_group_name_H-M "C C C M"
_symmetry_group_IT_number 66
_symmetry_cell_setting 'orthorhombic'
loop_
_space_group_symop_operation_xyz
x,y,z
-x,-y,z
x,-y,1/2-z
-x,y,1/2-z
-x,-y,-z
x,y,-z
-x,y,1/2+z
x,-y,1/2+z
1/2+x,1/2+y,z
1/2-x,1/2-y,z
1/2+x,1/2-y,1/2-z
1/2-x,1/2+y,1/2-z
1/2-x,1/2-y,-z
1/2+x,1/2+y,-z
1/2-x,1/2+y,1/2+z
1/2+x,1/2-y,1/2+z
loop_
_atom_site_type_symbol
_atom_site_label
_atom_site_fract_x
_atom_site_fract_y
_atom_site_fract_z
Si Si1 0.688027 0.831924 0.178990
Si Si2 0.323023 0.051028 0.000000
Si Si3 0.999145 0.827517 0.086137
Si Si4 0.528825 0.838556 0.310012
Si Si5 0.183106 0.664902 0.807958
Si Si6 0.638379 0.285155 0.421007
Si Si7 0.814305 0.975376 0.500000
Si Si8 0.405852 0.214936 0.500000
O O1 0.750000 0.750000 0.161126
O O2 0.682571 0.817940 0.243130
O O3 0.638228 0.747694 0.142551
O O4 0.692968 0.002651 0.170676
O O5 0.324009 0.156073 0.948840
O O6 0.382225 0.947146 0.000000
O O7 0.259769 0.961889 0.000000
O O8 0.933465 0.776997 0.061799
O O9 0.003879 0.775591 0.147186
O O10 0.000000 0.000000 0.081624
O O11 0.054032 0.754687 0.052252
O O12 0.500000 0.811800 0.250000
O O13 0.605724 0.821467 0.316566
O O14 0.500000 0.000000 0.323213
O O15 0.250000 0.750000 0.824369
O O16 0.664951 0.431591 0.447189
O O17 0.847813 0.823889 0.500000
#
# Coordination Sequence:
#
# PCOD9497571 Si02
#       8
#    16   8  16  16  16  16   8   8
#     4  10  20  38  65  95 132 178 218 269 332 410
#     4  11  26  40  67 100 127 170 222 277 335 415
#     4  12  26  44  69  95 134 184 223 281 341 403
#     4  11  24  46  72 102 142 184 235 290 346 409
#     4  10  22  41  63  99 141 178 224 288 346 403
#     4  11  22  42  68  96 128 173 229 266 336 411
#     4  11  22  47  67  91 138 172 210 279 348 405
#     4  12  26  46  64  99 136 169 220 281 346 393
#
# _framework density 21.266287999999999
#
# number of rings (size 3 to 8) (size 9 to 14) (size 15 to 20)
#    0.000    1.077    1.538    6.923    4.308    2.154 
#    2.769    3.077    0.000    0.000    0.000    0.000 
#    0.000    0.000    0.000    0.000    0.000    0.000 
#
# Total GULP energy -289652.641052 kJ/mol
# GULP energy per Si atom -5570.243097 kJ/mol
# Density = 2.121789 g / cm^3
# Si number density = 21.266288 Si / 1000 Ang^3
#
#
#
# Elastic Constant Matrix: (Units=GPa)
#
#
# Indices 1 2 3 4 5 6 
#
# 1 149.0561 15.3529 4.3407 0.0000 0.0000 0.0000
# 2 15.3529 33.3095 11.6082 0.0000 0.0000 0.0000
# 3 4.3407 11.6082 54.6435 0.0000 0.0000 0.0000
# 4 0.0000 0.0000 0.0000 40.2686 0.0000 0.0000
# 5 0.0000 0.0000 0.0000 0.0000 26.5370 0.0000
# 6 0.0000 0.0000 0.0000 0.0000 0.0000 32.2040
#
#
#
# Elastic Compliance Matrix: (Units=1/GPa)
#
#
# Indices 1 2 3 4 5 6 
#
# 1 0.007044 -0.003296 0.000141 0.000000 0.000000 0.000000
# 2 -0.003296 0.033964 -0.006953 0.000000 0.000000 0.000000
# 3 0.000141 -0.006953 0.019766 0.000000 0.000000 0.000000
# 4 0.000000 0.000000 0.000000 0.024833 0.000000 0.000000
# 5 0.000000 0.000000 0.000000 0.000000 0.037683 0.000000
# 6 0.000000 0.000000 0.000000 0.000000 0.000000 0.031052
#
#
# Mechanical properties :
#
#
# Convention : Reuss Voigt Hill
#
# Bulk Modulus (GPa) = 24.65644 33.29030 28.97337
# Shear Modulus (GPa) = 26.58458 33.51573 30.05016
#
# Velocity S-wave (km/s) = 3.53948 3.97420 3.76312
# Velocity P-wave (km/s) = 5.32196 6.06193 5.70396
#
# Compressibility (1/GPa) = 0.04055735
#
# Stress axis : x y z
#
# Youngs Moduli (GPa) = 141.95956 29.44323 50.59100
#
# Poissons Ratio (x) = 0.09704 -0.00711
# Poissons Ratio (y) = 0.46787 0.35177
# Poissons Ratio (z) = -0.01996 0.20473
#
# Static dielectric constant tensor:
#      x y z
#    x 1.921130 0.000000 0.000000 
#    y 0.000000 1.742850 0.000000 
#    z 0.000000 0.000000 1.872380 
# 
# From -- ./inp_files/65768.got.cif
#   From: 2010.05.17/outbox.cif.g08.bks.cpg/sg66_33_cif.got.tgz:65768.got - 2010.06.03 17:51:23.
