data_PCOD9497234
_publ_section_title
;
Structure prediction by ZEFSAII (Michael W. Deem and Ramdas Pophale) SiO2 
 PCOD9497234
Probable space group: C C C M
;
_chemical_formula_sum "Si O2"
_cell_formula_units_Z 96
_cell_length_a 27.871394
_cell_length_b 7.804641
_cell_length_c 23.119501
_cell_angle_alpha 90.000000
_cell_angle_beta 90.000000
_cell_angle_gamma 90.000000
_cell_volume 5029.097761
_symmetry_space_group_name_H-M "C C C M"
_symmetry_group_IT_number 66
_symmetry_cell_setting 'orthorhombic'
loop_
_space_group_symop_operation_xyz
x,y,z
-x,-y,z
x,-y,1/2-z
-x,y,1/2-z
-x,-y,-z
x,y,-z
-x,y,1/2+z
x,-y,1/2+z
1/2+x,1/2+y,z
1/2-x,1/2-y,z
1/2+x,1/2-y,1/2-z
1/2-x,1/2+y,1/2-z
1/2-x,1/2-y,-z
1/2+x,1/2+y,-z
1/2-x,1/2+y,1/2+z
1/2+x,1/2-y,1/2+z
loop_
_atom_site_type_symbol
_atom_site_label
_atom_site_fract_x
_atom_site_fract_y
_atom_site_fract_z
Si Si1 0.305174 0.291525 0.933074
Si Si2 0.600405 0.179438 0.623742
Si Si3 0.055419 0.293259 0.246416
Si Si4 0.553238 0.510332 0.932393
Si Si5 0.194318 0.798144 0.065657
Si Si6 0.106500 0.713900 0.865222
O O1 0.250000 0.250000 0.919315
O O2 0.343482 0.207569 0.890048
O O3 0.310885 0.496596 0.931608
O O4 0.313898 0.235029 0.000000
O O5 0.581724 0.245467 0.686046
O O6 0.574131 0.301819 0.578389
O O7 0.588604 0.978215 0.620490
O O8 0.052347 0.500000 0.250000
O O9 0.089130 0.243937 0.300351
O O10 0.000000 0.229356 0.250000
O O11 0.500000 0.500000 0.907322
O O12 0.584139 0.362273 0.903921
O O13 0.551675 0.475928 0.000000
O O14 0.250000 0.750000 0.071504
O O15 0.162192 0.718063 0.116312
O O16 0.179212 0.743791 0.000000
#
# Coordination Sequence:
#
# PCOD9497234 Si02
#       6
#    16  16  16  16  16  16
#     4  10  20  36  59  89 123 158 200 249 301 365
#     4  11  22  39  62  87 121 160 203 253 309 356
#     4   9  20  39  62  87 115 157 212 257 296 356
#     4  11  24  39  57  87 123 158 201 251 305 370
#     4  10  20  36  59  89 123 158 200 249 301 365
#     4  11  22  39  62  87 121 160 203 253 309 356
#
# _framework density 19.088912000000001
#
# number of rings (size 3 to 8) (size 9 to 14) (size 15 to 20)
#    0.000    1.667    1.667    3.000    0.000    6.667 
#    0.000    4.167    0.000    0.000    0.000    0.000 
#    0.000    0.000    0.000    0.000    0.000    0.000 
#
# Total GULP energy -267844.631990 kJ/mol
# GULP energy per Si atom -5580.096500 kJ/mol
# Density = 1.904546 g / cm^3
# Si number density = 19.088912 Si / 1000 Ang^3
#
#
#
# Elastic Constant Matrix: (Units=GPa)
#
#
# Indices 1 2 3 4 5 6 
#
# 1 114.8253 -2.3660 46.0751 0.0000 0.0000 0.0000
# 2 -2.3660 48.4706 -8.5265 0.0000 0.0000 0.0000
# 3 46.0751 -8.5265 74.9457 0.0000 0.0000 0.0000
# 4 0.0000 0.0000 0.0000 18.7867 0.0000 0.0000
# 5 0.0000 0.0000 0.0000 0.0000 39.0752 0.0000
# 6 0.0000 0.0000 0.0000 0.0000 0.0000 25.6223
#
#
#
# Elastic Compliance Matrix: (Units=1/GPa)
#
#
# Indices 1 2 3 4 5 6 
#
# 1 0.011584 -0.000701 -0.007201 0.000000 0.000000 0.000000
# 2 -0.000701 0.021095 0.002831 0.000000 0.000000 0.000000
# 3 -0.007201 0.002831 0.018092 0.000000 0.000000 0.000000
# 4 0.000000 0.000000 0.000000 0.053229 0.000000 0.000000
# 5 0.000000 0.000000 0.000000 0.000000 0.025592 0.000000
# 6 0.000000 0.000000 0.000000 0.000000 0.000000 0.039028
#
#
# Mechanical properties :
#
#
# Convention : Reuss Voigt Hill
#
# Bulk Modulus (GPa) = 24.61359 34.28965 29.45162
# Shear Modulus (GPa) = 26.00013 30.23410 28.11711
#
# Velocity S-wave (km/s) = 3.69461 3.98409 3.84207
# Velocity P-wave (km/s) = 5.57874 6.25828 5.92825
#
# Compressibility (1/GPa) = 0.04062796
#
# Stress axis : x y z
#
# Youngs Moduli (GPa) = 86.32515 47.40489 55.27183
#
# Poissons Ratio (x) = 0.03325 0.39804
# Poissons Ratio (y) = 0.06055 -0.15648
# Poissons Ratio (z) = 0.62167 -0.13421
#
# Static dielectric constant tensor:
#      x y z
#    x 1.721410 0.000000 0.000000 
#    y 0.000000 1.682150 0.000000 
#    z 0.000000 0.000000 1.657340 
# 
# From -- ./inp_files/52942.got.cif
#   From: 2010.05.17/outbox.cif.g08.bks.cpg/sg66_27_cif.got.tgz:52942.got - 2010.06.03 17:51:23.
