data_PCOD9497860
_publ_section_title
;
Structure prediction by ZEFSAII (Michael W. Deem and Ramdas Pophale) SiO2 
 PCOD9497860
Probable space group: C C C M
;
_chemical_formula_sum "Si O2"
_cell_formula_units_Z 96
_cell_length_a 14.599536
_cell_length_b 22.382575
_cell_length_c 14.652046
_cell_angle_alpha 90.000000
_cell_angle_beta 90.000000
_cell_angle_gamma 90.000000
_cell_volume 4787.925401
_symmetry_space_group_name_H-M "C C C M"
_symmetry_group_IT_number 66
_symmetry_cell_setting 'orthorhombic'
loop_
_space_group_symop_operation_xyz
x,y,z
-x,-y,z
x,-y,1/2-z
-x,y,1/2-z
-x,-y,-z
x,y,-z
-x,y,1/2+z
x,-y,1/2+z
1/2+x,1/2+y,z
1/2-x,1/2-y,z
1/2+x,1/2-y,1/2-z
1/2-x,1/2+y,1/2-z
1/2-x,1/2-y,-z
1/2+x,1/2+y,-z
1/2-x,1/2+y,1/2+z
1/2+x,1/2-y,1/2+z
loop_
_atom_site_type_symbol
_atom_site_label
_atom_site_fract_x
_atom_site_fract_y
_atom_site_fract_z
Si Si1 0.846430 0.505488 0.107864
Si Si2 0.147751 0.274660 0.726417
Si Si3 0.897719 0.596326 0.261857
Si Si4 0.867222 0.994867 0.394776
Si Si5 0.985947 0.896578 0.850199
Si Si6 0.476354 0.735751 0.396240
O O1 0.866089 0.563241 0.169698
O O2 0.900189 0.451976 0.156953
O O3 0.739742 0.488628 0.121511
O O4 0.864688 0.512232 0.000000
O O5 0.250000 0.250000 0.719531
O O6 0.159927 0.345819 0.716335
O O7 0.074987 0.251188 0.650360
O O8 0.100283 0.259621 0.824741
O O9 0.000000 0.619661 0.250000
O O10 0.881212 0.011931 0.500000
O O11 0.925413 0.934983 0.379519
O O12 0.908723 0.051853 0.342962
O O13 0.000000 0.872065 0.750000
O O14 0.966251 0.836353 0.903657
O O15 0.469782 0.760186 0.500000
#
# Coordination Sequence:
#
# PCOD9497860 Si02
#       6
#    16  16  16  16  16  16
#     4  10  24  39  66  96 123 164 209 263 322 373
#     4  11  26  47  68  98 133 173 224 273 327 389
#     4  11  24  45  65  90 127 160 212 270 315 383
#     4  10  21  36  56  96 132 164 208 253 312 384
#     4  11  21  35  62  92 131 172 202 252 318 382
#     4  11  24  45  69  97 131 173 220 269 328 394
#
# _framework density 20.050436999999999
#
# number of rings (size 3 to 8) (size 9 to 14) (size 15 to 20)
#    0.000    1.333    3.333    4.000    9.333    3.333 
#    0.000    0.000    0.000    0.000    0.000    0.000 
#    0.000    0.000    0.000    0.000    0.000    0.000 
#
# Total GULP energy -267832.595897 kJ/mol
# GULP energy per Si atom -5579.845748 kJ/mol
# Density = 2.000480 g / cm^3
# Si number density = 20.050437 Si / 1000 Ang^3
#
#
#
# Elastic Constant Matrix: (Units=GPa)
#
#
# Indices 1 2 3 4 5 6 
#
# 1 55.3316 -12.5727 -13.1718 0.0000 0.0000 0.0000
# 2 -12.5727 93.6038 -12.7405 0.0000 0.0000 0.0000
# 3 -13.1718 -12.7405 83.5841 0.0000 0.0000 0.0000
# 4 0.0000 0.0000 0.0000 17.7819 0.0000 0.0000
# 5 0.0000 0.0000 0.0000 0.0000 21.8350 0.0000
# 6 0.0000 0.0000 0.0000 0.0000 0.0000 196.1203
#
#
#
# Elastic Compliance Matrix: (Units=1/GPa)
#
#
# Indices 1 2 3 4 5 6 
#
# 1 0.019632 0.003123 0.003570 0.000000 0.000000 0.000000
# 2 0.003123 0.011406 0.002231 0.000000 0.000000 0.000000
# 3 0.003570 0.002231 0.012867 0.000000 0.000000 0.000000
# 4 0.000000 0.000000 0.000000 0.056237 0.000000 0.000000
# 5 0.000000 0.000000 0.000000 0.000000 0.045798 0.000000
# 6 0.000000 0.000000 0.000000 0.000000 0.000000 0.005099
#
#
# Mechanical properties :
#
#
# Convention : Reuss Voigt Hill
#
# Bulk Modulus (GPa) = 16.19377 17.28327 16.73852
# Shear Modulus (GPa) = 32.51478 65.21443 48.86460
#
# Velocity S-wave (km/s) = 4.03134 5.70927 4.94204
# Velocity P-wave (km/s) = 5.45555 7.21801 6.39776
#
# Compressibility (1/GPa) = 0.06175215
#
# Stress axis : x y z
#
# Youngs Moduli (GPa) = 50.93661 87.66994 77.72073
#
# Poissons Ratio (x) = -0.27378 -0.27745
# Poissons Ratio (y) = -0.15907 -0.17338
# Poissons Ratio (z) = -0.18183 -0.19557
#
# Static dielectric constant tensor:
#      x y z
#    x 1.759120 0.000000 0.000000 
#    y 0.000000 1.727320 0.000000 
#    z 0.000000 0.000000 1.736840 
# 
# From -- ./inp_files/28349.got.cif
#   From: 2010.05.17/outbox.cif.g08.bks.cpg/sg66_15_cif.got.tgz:28349.got - 2010.06.03 17:51:23.
