data_PCOD9497136
_publ_section_title
;
Structure prediction by ZEFSAII (Michael W. Deem and Ramdas Pophale) SiO2 
 PCOD9497136
Probable space group: C C C M
;
_chemical_formula_sum "Si O2"
_cell_formula_units_Z 48
_cell_length_a 8.761817
_cell_length_b 26.151600
_cell_length_c 10.544231
_cell_angle_alpha 90.000000
_cell_angle_beta 90.000000
_cell_angle_gamma 90.000000
_cell_volume 2416.057995
_symmetry_space_group_name_H-M "C C C M"
_symmetry_group_IT_number 66
_symmetry_cell_setting 'orthorhombic'
loop_
_space_group_symop_operation_xyz
x,y,z
-x,-y,z
x,-y,1/2-z
-x,y,1/2-z
-x,-y,-z
x,y,-z
-x,y,1/2+z
x,-y,1/2+z
1/2+x,1/2+y,z
1/2-x,1/2-y,z
1/2+x,1/2-y,1/2-z
1/2-x,1/2+y,1/2-z
1/2-x,1/2-y,-z
1/2+x,1/2+y,-z
1/2-x,1/2+y,1/2+z
1/2+x,1/2-y,1/2+z
loop_
_atom_site_type_symbol
_atom_site_label
_atom_site_fract_x
_atom_site_fract_y
_atom_site_fract_z
Si Si1 0.162821 0.531002 0.357357
Si Si2 0.828769 0.353349 0.257957
Si Si3 0.807409 0.190891 0.000000
Si Si4 0.170985 0.804670 0.500000
O O1 0.253478 0.500000 0.250000
O O2 0.225180 0.533097 0.500000
O O3 0.150749 0.587548 0.299650
O O4 0.000000 0.500000 0.369235
O O5 0.751578 0.339767 0.124020
O O6 0.731609 0.330637 0.372253
O O7 0.000000 0.330886 0.250000
O O8 0.750000 0.250000 0.000000
O O9 0.989405 0.194678 0.000000
O O10 0.250000 0.750000 0.500000
#
# Coordination Sequence:
#
# PCOD9497136 Si02
#       4
#    16  16   8   8
#     4  10  20  35  63 105 139 170 230 292 332 405
#     4  12  23  41  72 107 134 182 236 290 355 414
#     4  12  28  46  68 101 141 189 237 294 364 425
#     4  12  26  48  68  95 145 181 239 300 358 431
#
# _framework density 19.867072
#
# number of rings (size 3 to 8) (size 9 to 14) (size 15 to 20)
#    0.000    0.667    5.000    5.000    2.333    0.000 
#    0.000    0.000    0.000    6.000    0.000    0.000 
#    0.000    0.000    0.000    0.000    0.000    0.000 
#
# Total GULP energy -133801.299559 kJ/mol
# GULP energy per Si atom -5575.054148 kJ/mol
# Density = 1.982185 g / cm^3
# Si number density = 19.867072 Si / 1000 Ang^3
#
#
#
# Elastic Constant Matrix: (Units=GPa)
#
#
# Indices 1 2 3 4 5 6 
#
# 1 156.9007 46.0858 75.8054 0.0000 0.0000 0.0000
# 2 46.0858 132.1792 82.3853 0.0000 0.0000 0.0000
# 3 75.8054 82.3853 259.4288 0.0000 0.0000 0.0000
# 4 0.0000 0.0000 0.0000 20.8056 0.0000 0.0000
# 5 0.0000 0.0000 0.0000 0.0000 61.2261 0.0000
# 6 0.0000 0.0000 0.0000 0.0000 0.0000 21.5179
#
#
#
# Elastic Compliance Matrix: (Units=1/GPa)
#
#
# Indices 1 2 3 4 5 6 
#
# 1 0.007682 -0.001595 -0.001738 0.000000 0.000000 0.000000
# 2 -0.001595 0.009764 -0.002635 0.000000 0.000000 0.000000
# 3 -0.001738 -0.002635 0.005199 0.000000 0.000000 0.000000
# 4 0.000000 0.000000 0.000000 0.048064 0.000000 0.000000
# 5 0.000000 0.000000 0.000000 0.000000 0.016333 0.000000
# 6 0.000000 0.000000 0.000000 0.000000 0.000000 0.046473
#
#
# Mechanical properties :
#
#
# Convention : Reuss Voigt Hill
#
# Bulk Modulus (GPa) = 93.37707 106.34018 99.85863
# Shear Modulus (GPa) = 33.55272 43.65873 38.60573
#
# Velocity S-wave (km/s) = 4.11403 4.69288 4.41296
# Velocity P-wave (km/s) = 8.34685 9.11077 8.73717
#
# Compressibility (1/GPa) = 0.01070927
#
# Stress axis : x y z
#
# Youngs Moduli (GPa) = 130.17969 102.42058 192.34000
#
# Poissons Ratio (x) = 0.16336 0.33430
# Poissons Ratio (y) = 0.20763 0.50673
# Poissons Ratio (z) = 0.22626 0.26983
#
# Static dielectric constant tensor:
#      x y z
#    x 1.697930 0.000000 0.000000 
#    y 0.000000 2.666400 0.000000 
#    z 0.000000 0.000000 1.719870 
# 
# From -- ./inp_files/13170.got.cif
#   From: 2010.05.17/outbox.cif.g08.bks.cpg/sg66_7_cif.got.tgz:13170.got - 2010.06.03 17:51:23.
