data_PCOD9497169
_publ_section_title
;
Structure prediction by ZEFSAII (Michael W. Deem and Ramdas Pophale) SiO2 
 PCOD9497169
Probable space group: C C C M
;
_chemical_formula_sum "Si O2"
_cell_formula_units_Z 60
_cell_length_a 5.208071
_cell_length_b 28.365991
_cell_length_c 24.787263
_cell_angle_alpha 90.000000
_cell_angle_beta 90.000000
_cell_angle_gamma 90.000000
_cell_volume 3661.874295
_symmetry_space_group_name_H-M "C C C M"
_symmetry_group_IT_number 66
_symmetry_cell_setting 'orthorhombic'
loop_
_space_group_symop_operation_xyz
x,y,z
-x,-y,z
x,-y,1/2-z
-x,y,1/2-z
-x,-y,-z
x,y,-z
-x,y,1/2+z
x,-y,1/2+z
1/2+x,1/2+y,z
1/2-x,1/2-y,z
1/2+x,1/2-y,1/2-z
1/2-x,1/2+y,1/2-z
1/2-x,1/2-y,-z
1/2+x,1/2+y,-z
1/2-x,1/2+y,1/2+z
1/2+x,1/2-y,1/2+z
loop_
_atom_site_type_symbol
_atom_site_label
_atom_site_fract_x
_atom_site_fract_y
_atom_site_fract_z
Si Si1 0.250000 0.750000 0.286691
Si Si2 0.289777 0.306198 0.436147
Si Si3 0.296073 0.834276 0.628154
Si Si4 0.240921 0.091587 0.783797
Si Si5 0.000000 0.000000 0.250000
O O1 0.500000 0.741911 0.250000
O O2 0.302090 0.794656 0.325026
O O3 0.286078 0.315315 0.500000
O O4 0.250000 0.250000 0.428242
O O5 0.557364 0.321721 0.410016
O O6 0.056751 0.331398 0.405599
O O7 0.261503 0.883470 0.659039
O O8 0.500000 0.098746 0.750000
O O9 0.000000 0.112553 0.750000
O O10 0.172416 0.035952 0.784752
#
# Coordination Sequence:
#
# PCOD9497169 Si02
#       5
#     8  16  16  16   4
#     4  12  22  32  47  76 115 148 180 210 262 330
#     4  11  22  38  55  77 110 150 198 239 269 317
#     4  12  21  36  54  80 109 154 186 225 281 324
#     4  10  20  36  56  81 116 144 181 220 273 340
#     4   8  22  36  58  84 116 144 182 228 270 338
#
# _framework density 16.385052999999999
#
# number of rings (size 3 to 8) (size 9 to 14) (size 15 to 20)
#    0.800    0.267    2.667    6.000    0.000    2.133 
#    0.000    0.000    0.000    0.000    0.000    5.600 
#    0.000    0.000    0.000    0.000    0.000    0.000 
#
# Total GULP energy -167464.374538 kJ/mol
# GULP energy per Si atom -5582.145818 kJ/mol
# Density = 1.634776 g / cm^3
# Si number density = 16.385053 Si / 1000 Ang^3
#
#
#
# Elastic Constant Matrix: (Units=GPa)
#
#
# Indices 1 2 3 4 5 6 
#
# 1 68.8579 -20.6109 10.7270 0.0000 0.0000 0.0000
# 2 -20.6109 65.1056 21.8561 0.0000 0.0000 0.0000
# 3 10.7270 21.8561 75.1214 0.0000 0.0000 0.0000
# 4 0.0000 0.0000 0.0000 -63.8367 0.0000 0.0000
# 5 0.0000 0.0000 0.0000 0.0000 -40.4768 0.0000
# 6 0.0000 0.0000 0.0000 0.0000 0.0000 -0.4004
#
#
#
# Elastic Compliance Matrix: (Units=1/GPa)
#
#
# Indices 1 2 3 4 5 6 
#
# 1 0.017319 0.006996 -0.004509 0.000000 0.000000 0.000000
# 2 0.006996 0.019849 -0.006774 0.000000 0.000000 0.000000
# 3 -0.004509 -0.006774 0.015926 0.000000 0.000000 0.000000
# 4 0.000000 0.000000 0.000000 -0.015665 0.000000 0.000000
# 5 0.000000 0.000000 0.000000 0.000000 -0.024706 0.000000
# 6 0.000000 0.000000 0.000000 0.000000 0.000000 -2.497562
#
#
# Mechanical properties :
#
#
# Convention : Reuss Voigt Hill
#
# Bulk Modulus (GPa) = 22.46080 25.89214 24.17647
# Shear Modulus (GPa) = -2.03134 -7.80194 -4.91664
#
# Velocity S-wave (km/s) = -1.11465 -2.18448 -1.73413
# Velocity P-wave (km/s) = 3.47581 3.07798 3.28293
#
# Compressibility (1/GPa) = 0.04452202
#
# Stress axis : x y z
#
# Youngs Moduli (GPa) = 57.73925 50.38145 62.78877
#
# Poissons Ratio (x) = -0.35249 0.28309
# Poissons Ratio (y) = -0.40397 0.42532
# Poissons Ratio (z) = 0.26033 0.34128
#
# Static dielectric constant tensor:
#      x y z
#    x 1.546680 0.000000 0.000000 
#    y 0.000000 1.558320 0.000000 
#    z 0.000000 0.000000 1.523470 
# 
# From -- ./inp_files/45708.got.cif
#   From: 2010.05.17/outbox.cif.g08.bks.cpg/sg66_23_cif.got.tgz:45708.got - 2010.06.03 17:51:23.
