data_PCOD9497944
_publ_section_title
;
Structure prediction by ZEFSAII (Michael W. Deem and Ramdas Pophale) SiO2 
 PCOD9497944
Probable space group: C C C M
;
_chemical_formula_sum "Si O2"
_cell_formula_units_Z 96
_cell_length_a 11.647495
_cell_length_b 26.549398
_cell_length_c 15.884721
_cell_angle_alpha 90.000000
_cell_angle_beta 90.000000
_cell_angle_gamma 90.000000
_cell_volume 4912.095503
_symmetry_space_group_name_H-M "C C C M"
_symmetry_group_IT_number 66
_symmetry_cell_setting 'orthorhombic'
loop_
_space_group_symop_operation_xyz
x,y,z
-x,-y,z
x,-y,1/2-z
-x,y,1/2-z
-x,-y,-z
x,y,-z
-x,y,1/2+z
x,-y,1/2+z
1/2+x,1/2+y,z
1/2-x,1/2-y,z
1/2+x,1/2-y,1/2-z
1/2-x,1/2+y,1/2-z
1/2-x,1/2-y,-z
1/2+x,1/2+y,-z
1/2-x,1/2+y,1/2+z
1/2+x,1/2-y,1/2+z
loop_
_atom_site_type_symbol
_atom_site_label
_atom_site_fract_x
_atom_site_fract_y
_atom_site_fract_z
Si Si1 0.203740 0.303771 0.151049
Si Si2 0.269386 0.154790 0.667451
Si Si3 0.198179 0.100069 0.906059
Si Si4 0.978459 0.842677 0.600064
Si Si5 0.032534 0.274972 0.399452
Si Si6 0.861457 0.558890 0.758371
O O1 0.250000 0.250000 0.125795
O O2 0.250719 0.318357 0.242563
O O3 0.247801 0.344676 0.087256
O O4 0.066885 0.303811 0.150545
O O5 0.151189 0.143534 0.621290
O O6 0.349939 0.195059 0.619038
O O7 0.323220 0.100648 0.689939
O O8 0.288417 0.073968 0.842529
O O9 0.072222 0.116082 0.869056
O O10 0.189378 0.077067 0.000000
O O11 0.996240 0.841907 0.500000
O O12 0.981463 0.783647 0.627960
O O13 0.012506 0.276554 0.500000
O O14 0.833156 0.500000 0.750000
O O15 0.000000 0.562049 0.750000
#
# Coordination Sequence:
#
# PCOD9497944 Si02
#       6
#    16  16  16  16  16  16
#     4  11  20  31  51  81 116 156 200 245 292 356
#     4  11  22  36  56  85 117 154 205 252 302 355
#     4  10  21  39  62  89 122 161 204 247 300 367
#     4  10  21  37  57  85 126 167 199 239 296 369
#     4  11  21  34  54  82 123 166 202 242 296 361
#     4  10  23  45  67  88 117 151 201 266 322 362
#
# _framework density 19.543593999999999
#
# number of rings (size 3 to 8) (size 9 to 14) (size 15 to 20)
#    0.000    1.500    1.667    5.000    0.000    4.667 
#    0.000    5.833    0.000    2.000    0.000    0.000 
#    0.000    0.000    0.000    0.000    0.000    0.000 
#
# Total GULP energy -267272.843528 kJ/mol
# GULP energy per Si atom -5568.184240 kJ/mol
# Density = 1.949911 g / cm^3
# Si number density = 19.543594 Si / 1000 Ang^3
#
#
#
# Elastic Constant Matrix: (Units=GPa)
#
#
# Indices 1 2 3 4 5 6 
#
# 1 128.3178 33.3085 31.5551 0.0000 0.0000 0.0000
# 2 33.3085 94.5332 18.7255 0.0000 0.0000 0.0000
# 3 31.5551 18.7255 47.5304 0.0000 0.0000 0.0000
# 4 0.0000 0.0000 0.0000 21.7447 0.0000 0.0000
# 5 0.0000 0.0000 0.0000 0.0000 -43.3148 0.0000
# 6 0.0000 0.0000 0.0000 0.0000 0.0000 22.3053
#
#
#
# Elastic Compliance Matrix: (Units=1/GPa)
#
#
# Indices 1 2 3 4 5 6 
#
# 1 0.009769 -0.002340 -0.005564 0.000000 0.000000 0.000000
# 2 -0.002340 0.012034 -0.003188 0.000000 0.000000 0.000000
# 3 -0.005564 -0.003188 0.025989 0.000000 0.000000 0.000000
# 4 0.000000 0.000000 0.000000 0.045988 0.000000 0.000000
# 5 0.000000 0.000000 0.000000 0.000000 -0.023087 0.000000
# 6 0.000000 0.000000 0.000000 0.000000 0.000000 0.044832
#
#
# Mechanical properties :
#
#
# Convention : Reuss Voigt Hill
#
# Bulk Modulus (GPa) = 39.04829 48.61774 43.83301
# Shear Modulus (GPa) = 34.18948 12.59986 23.39467
#
# Velocity S-wave (km/s) = 4.18712 2.54186 3.46360
# Velocity P-wave (km/s) = 6.58782 5.79183 6.20261
#
# Compressibility (1/GPa) = 0.02560932
#
# Stress axis : x y z
#
# Youngs Moduli (GPa) = 102.36790 83.09664 38.47843
#
# Poissons Ratio (x) = 0.19444 0.21408
# Poissons Ratio (y) = 0.23953 0.12265
# Poissons Ratio (z) = 0.56952 0.26488
#
# Static dielectric constant tensor:
#      x y z
#    x 1.789070 0.000000 0.000000 
#    y 0.000000 1.671190 0.000000 
#    z 0.000000 0.000000 1.741190 
# 
# From -- ./inp_files/38974.got.cif
#   From: 2010.05.17/outbox.cif.g08.bks.cpg/sg66_20_cif.got.tgz:38974.got - 2010.06.03 17:51:23.
