data_PCOD9497709
_publ_section_title
;
Structure prediction by ZEFSAII (Michael W. Deem and Ramdas Pophale) SiO2 
 PCOD9497709
Probable space group: C C C M
;
_chemical_formula_sum "Si O2"
_cell_formula_units_Z 56
_cell_length_a 5.146480
_cell_length_b 15.188168
_cell_length_c 30.896304
_cell_angle_alpha 90.000000
_cell_angle_beta 90.000000
_cell_angle_gamma 90.000000
_cell_volume 2415.028228
_symmetry_space_group_name_H-M "C C C M"
_symmetry_group_IT_number 66
_symmetry_cell_setting 'orthorhombic'
loop_
_space_group_symop_operation_xyz
x,y,z
-x,-y,z
x,-y,1/2-z
-x,y,1/2-z
-x,-y,-z
x,y,-z
-x,y,1/2+z
x,-y,1/2+z
1/2+x,1/2+y,z
1/2-x,1/2-y,z
1/2+x,1/2-y,1/2-z
1/2-x,1/2+y,1/2-z
1/2-x,1/2-y,-z
1/2+x,1/2+y,-z
1/2-x,1/2+y,1/2+z
1/2+x,1/2-y,1/2+z
loop_
_atom_site_type_symbol
_atom_site_label
_atom_site_fract_x
_atom_site_fract_y
_atom_site_fract_z
Si Si1 0.751058 0.901960 0.730168
Si Si2 0.353168 0.658011 0.140555
Si Si3 0.250445 0.437682 0.000000
Si Si4 0.617781 0.899914 0.906346
O O1 0.500000 0.858024 0.750000
O O2 0.774553 0.908655 0.678804
O O3 0.000000 0.855955 0.750000
O O4 0.750060 0.000000 0.750000
O O5 0.250000 0.750000 0.160864
O O6 0.646792 0.633880 0.125223
O O7 0.147909 0.652186 0.101377
O O8 0.500000 0.500000 0.000000
O O9 0.231985 0.388228 0.045578
O O10 0.000000 0.500000 0.000000
O O11 0.500000 0.000000 0.901303
#
# Coordination Sequence:
#
# PCOD9497709 Si02
#       4
#    16  16   8  16
#     4  10  23  40  63  92 130 169 235 277 337 405
#     4  12  26  43  65 103 143 177 225 289 353 411
#     4  10  20  42  65 106 133 168 233 288 321 392
#     4  11  24  42  73  98 134 182 230 280 338 408
#
# _framework density 23.188133000000001
#
# number of rings (size 3 to 8) (size 9 to 14) (size 15 to 20)
#    0.000    1.143    0.000    6.857   12.000    1.143 
#    0.000    4.286    0.000    0.000    0.000    0.000 
#    0.000    0.000    0.000    0.000    0.000    0.000 
#
# Total GULP energy -155912.401145 kJ/mol
# GULP energy per Si atom -5568.300041 kJ/mol
# Density = 2.313536 g / cm^3
# Si number density = 23.188133 Si / 1000 Ang^3
#
#
#
# Elastic Constant Matrix: (Units=GPa)
#
#
# Indices 1 2 3 4 5 6 
#
# 1 212.0763 16.5486 26.3641 0.0000 0.0000 0.0000
# 2 16.5486 80.6041 16.3430 0.0000 0.0000 0.0000
# 3 26.3641 16.3430 109.5275 0.0000 0.0000 0.0000
# 4 0.0000 0.0000 0.0000 -6.1540 0.0000 0.0000
# 5 0.0000 0.0000 0.0000 0.0000 41.9039 0.0000
# 6 0.0000 0.0000 0.0000 0.0000 0.0000 23.0818
#
#
#
# Elastic Compliance Matrix: (Units=1/GPa)
#
#
# Indices 1 2 3 4 5 6 
#
# 1 0.004909 -0.000792 -0.001063 0.000000 0.000000 0.000000
# 2 -0.000792 0.012921 -0.001737 0.000000 0.000000 0.000000
# 3 -0.001063 -0.001737 0.009645 0.000000 0.000000 0.000000
# 4 0.000000 0.000000 0.000000 -0.162495 0.000000 0.000000
# 5 0.000000 0.000000 0.000000 0.000000 0.023864 0.000000
# 6 0.000000 0.000000 0.000000 0.000000 0.000000 0.043324
#
#
# Mechanical properties :
#
#
# Convention : Reuss Voigt Hill
#
# Bulk Modulus (GPa) = 49.28608 57.85769 53.57188
# Shear Modulus (GPa) = -92.79700 34.62980 -29.08360
#
# Velocity S-wave (km/s) = -6.33293 3.86868 -3.54537
# Velocity P-wave (km/s) = 5.67219 6.70531 2.52858
#
# Compressibility (1/GPa) = 0.02028971
#
# Stress axis : x y z
#
# Youngs Moduli (GPa) = 203.69443 77.39202 103.67693
#
# Poissons Ratio (x) = 0.06132 0.11026
# Poissons Ratio (y) = 0.16138 0.18012
# Poissons Ratio (z) = 0.21663 0.13445
#
# Static dielectric constant tensor:
#      x y z
#    x 1.858490 0.000000 0.000000 
#    y 0.000000 2.127890 0.000000 
#    z 0.000000 0.000000 1.956790 
# 
# From -- ./inp_files/66750.got.cif
#   From: 2010.05.17/outbox.cif.g08.bks.cpg/sg66_34_cif.got.tgz:66750.got - 2010.06.03 17:51:23.
