data_PCOD9497383
_publ_section_title
;
Structure prediction by ZEFSAII (Michael W. Deem and Ramdas Pophale) SiO2 
 PCOD9497383
Probable space group: C C C M
;
_chemical_formula_sum "Si O2"
_cell_formula_units_Z 88
_cell_length_a 25.690327
_cell_length_b 8.231864
_cell_length_c 22.437785
_cell_angle_alpha 90.000000
_cell_angle_beta 90.000000
_cell_angle_gamma 90.000000
_cell_volume 4745.126571
_symmetry_space_group_name_H-M "C C C M"
_symmetry_group_IT_number 66
_symmetry_cell_setting 'orthorhombic'
loop_
_space_group_symop_operation_xyz
x,y,z
-x,-y,z
x,-y,1/2-z
-x,y,1/2-z
-x,-y,-z
x,y,-z
-x,y,1/2+z
x,-y,1/2+z
1/2+x,1/2+y,z
1/2-x,1/2-y,z
1/2+x,1/2-y,1/2-z
1/2-x,1/2+y,1/2-z
1/2-x,1/2-y,-z
1/2+x,1/2+y,-z
1/2-x,1/2+y,1/2+z
1/2+x,1/2-y,1/2+z
loop_
_atom_site_type_symbol
_atom_site_label
_atom_site_fract_x
_atom_site_fract_y
_atom_site_fract_z
Si Si1 0.803987 0.652324 0.600318
Si Si2 0.651079 0.368232 0.000000
Si Si3 0.740193 0.938096 0.000000
Si Si4 0.111241 0.590085 0.185531
Si Si5 0.020977 0.171147 0.683683
Si Si6 0.053549 0.107317 0.000000
Si Si7 0.042613 0.384174 0.903517
O O1 0.750000 0.750000 0.606267
O O2 0.843606 0.757418 0.559011
O O3 0.790344 0.498531 0.558647
O O4 0.830062 0.617291 0.663482
O O5 0.704043 0.472735 0.000000
O O6 0.600437 0.478915 0.000000
O O7 0.750000 0.750000 0.000000
O O8 0.105948 0.500000 0.250000
O O9 0.080128 0.762952 0.185678
O O10 0.087478 0.482689 0.130734
O O11 0.000000 0.170300 0.750000
O O12 0.991053 0.309622 0.649386
O O13 0.000000 0.000000 0.657393
O O14 0.058095 0.233200 0.944786
O O15 0.000000 0.000000 0.000000
O O16 0.000000 0.500000 0.935112
#
# Coordination Sequence:
#
# PCOD9497383 Si02
#       7
#    16   8   8  16  16   8  16
#     4   9  21  42  64  86 116 158 201 255 311 361
#     4   9  22  39  63  85 120 162 199 237 307 380
#     4   9  19  40  67  90 109 151 209 256 300 372
#     4  11  22  39  65  89 120 163 206 247 307 355
#     4  10  20  37  60  86 117 161 210 239 276 363
#     4  12  26  37  55  96 134 156 196 250 311 357
#     4  10  23  37  57  84 127 162 201 242 297 359
#
# _framework density 18.545342999999999
#
# number of rings (size 3 to 8) (size 9 to 14) (size 15 to 20)
#    0.000    2.000    1.818    1.909   10.182    0.727 
#    0.000    0.909    4.000    0.000    0.000    0.000 
#    0.000    0.000    0.000    0.000    0.000    0.000 
#
# Total GULP energy -244992.198539 kJ/mol
# GULP energy per Si atom -5568.004512 kJ/mol
# Density = 1.850313 g / cm^3
# Si number density = 18.545343 Si / 1000 Ang^3
#
#
#
# Elastic Constant Matrix: (Units=GPa)
#
#
# Indices 1 2 3 4 5 6 
#
# 1 89.4359 43.6451 35.9749 0.0000 0.0000 0.0000
# 2 43.6451 120.8745 35.5169 0.0000 0.0000 0.0000
# 3 35.9749 35.5169 79.1777 0.0000 0.0000 0.0000
# 4 0.0000 0.0000 0.0000 28.6801 0.0000 0.0000
# 5 0.0000 0.0000 0.0000 0.0000 13.1549 0.0000
# 6 0.0000 0.0000 0.0000 0.0000 0.0000 27.0962
#
#
#
# Elastic Compliance Matrix: (Units=1/GPa)
#
#
# Indices 1 2 3 4 5 6 
#
# 1 0.015179 -0.003979 -0.005112 0.000000 0.000000 0.000000
# 2 -0.003979 0.010572 -0.002934 0.000000 0.000000 0.000000
# 3 -0.005112 -0.002934 0.016269 0.000000 0.000000 0.000000
# 4 0.000000 0.000000 0.000000 0.034867 0.000000 0.000000
# 5 0.000000 0.000000 0.000000 0.000000 0.076017 0.000000
# 6 0.000000 0.000000 0.000000 0.000000 0.000000 0.036906
#
#
# Mechanical properties :
#
#
# Convention : Reuss Voigt Hill
#
# Bulk Modulus (GPa) = 55.65018 57.75132 56.70075
# Shear Modulus (GPa) = 22.74279 25.40968 24.07623
#
# Velocity S-wave (km/s) = 3.50570 3.70555 3.60701
# Velocity P-wave (km/s) = 6.81611 7.03679 6.92733
#
# Compressibility (1/GPa) = 0.01796939
#
# Stress axis : x y z
#
# Youngs Moduli (GPa) = 65.88016 94.59008 61.46737
#
# Poissons Ratio (x) = 0.37635 0.31422
# Poissons Ratio (y) = 0.26212 0.18038
# Poissons Ratio (z) = 0.33678 0.27757
#
# Static dielectric constant tensor:
#      x y z
#    x 1.691220 0.000000 0.000000 
#    y 0.000000 1.737950 0.000000 
#    z 0.000000 0.000000 1.709680 
# 
# From -- ./inp_files/52465.got.cif
#   From: 2010.05.17/outbox.cif.g08.bks.cpg/sg66_27_cif.got.tgz:52465.got - 2010.06.03 17:51:23.
