data_PCOD9497735
_publ_section_title
;
Structure prediction by ZEFSAII (Michael W. Deem and Ramdas Pophale) SiO2 
 PCOD9497735
Probable space group: C C C M
;
_chemical_formula_sum "Si O2"
_cell_formula_units_Z 120
_cell_length_a 17.137545
_cell_length_b 27.228603
_cell_length_c 15.414168
_cell_angle_alpha 90.000000
_cell_angle_beta 90.000000
_cell_angle_gamma 90.000000
_cell_volume 7192.734935
_symmetry_space_group_name_H-M "C C C M"
_symmetry_group_IT_number 66
_symmetry_cell_setting 'orthorhombic'
loop_
_space_group_symop_operation_xyz
x,y,z
-x,-y,z
x,-y,1/2-z
-x,y,1/2-z
-x,-y,-z
x,y,-z
-x,y,1/2+z
x,-y,1/2+z
1/2+x,1/2+y,z
1/2-x,1/2-y,z
1/2+x,1/2-y,1/2-z
1/2-x,1/2+y,1/2-z
1/2-x,1/2-y,-z
1/2+x,1/2+y,-z
1/2-x,1/2+y,1/2+z
1/2+x,1/2-y,1/2+z
loop_
_atom_site_type_symbol
_atom_site_label
_atom_site_fract_x
_atom_site_fract_y
_atom_site_fract_z
Si Si1 0.029936 0.311930 0.843182
Si Si2 0.593972 0.557683 0.751642
Si Si3 0.574546 0.829354 0.500000
Si Si4 0.851039 0.130841 0.602007
Si Si5 0.220157 0.695733 0.876416
Si Si6 0.867292 0.871679 0.401046
Si Si7 0.713277 0.802896 0.831794
Si Si8 0.503105 0.703198 0.897099
O O1 0.123204 0.310007 0.855870
O O2 0.003910 0.254687 0.849761
O O3 0.000000 0.330633 0.750000
O O4 0.989901 0.338837 0.923082
O O5 0.611700 0.500000 0.750000
O O6 0.500000 0.563523 0.750000
O O7 0.627345 0.585617 0.835800
O O8 0.627685 0.584389 0.666589
O O9 0.640472 0.815779 0.575148
O O10 0.851855 0.118172 0.500000
O O11 0.769866 0.155643 0.629558
O O12 0.918399 0.172091 0.615882
O O13 0.250000 0.750000 0.900718
O O14 0.284719 0.655356 0.900367
O O15 0.213647 0.695091 0.772610
O O16 0.887301 0.886284 0.500000
O O17 0.930819 0.831017 0.372034
O O18 0.750000 0.750000 0.858197
O O19 0.494780 0.714981 0.000000
#
# Coordination Sequence:
#
# PCOD9497735 Si02
#       8
#    16  16   8  16  16  16  16  16
#     4  12  24  34  51  77 116 163 200 238 283 337
#     4  11  24  41  60  84 116 153 195 247 299 345
#     4  12  23  38  49  78 118 152 195 240 292 332
#     4  11  23  38  57  81 117 154 200 238 283 346
#     4  11  22  35  55  83 116 152 198 246 283 333
#     4  11  22  36  60  85 112 153 201 241 289 345
#     4  11  23  37  53  81 114 159 202 238 279 339
#     4  10  21  33  49  79 112 155 203 235 270 338
#
# _framework density 16.683501
#
# number of rings (size 3 to 8) (size 9 to 14) (size 15 to 20)
#    0.000    0.933    6.667    1.000    6.533    0.800 
#    0.000    1.333    0.000    0.000    0.000    0.000 
#    0.000    5.867    0.000    0.000    0.000    0.000 
#
# Total GULP energy -334196.450669 kJ/mol
# GULP energy per Si atom -5569.940844 kJ/mol
# Density = 1.664553 g / cm^3
# Si number density = 16.683501 Si / 1000 Ang^3
#
#
#
# Elastic Constant Matrix: (Units=GPa)
#
#
# Indices 1 2 3 4 5 6 
#
# 1 110.7006 16.2284 25.5385 0.0000 0.0000 0.0000
# 2 16.2284 67.1148 39.0494 0.0000 0.0000 0.0000
# 3 25.5385 39.0494 92.7429 0.0000 0.0000 0.0000
# 4 0.0000 0.0000 0.0000 6.6495 0.0000 0.0000
# 5 0.0000 0.0000 0.0000 0.0000 27.9903 0.0000
# 6 0.0000 0.0000 0.0000 0.0000 0.0000 7.5393
#
#
#
# Elastic Compliance Matrix: (Units=1/GPa)
#
#
# Indices 1 2 3 4 5 6 
#
# 1 0.009702 -0.001048 -0.002230 0.000000 0.000000 0.000000
# 2 -0.001048 0.019848 -0.008068 0.000000 0.000000 0.000000
# 3 -0.002230 -0.008068 0.014794 0.000000 0.000000 0.000000
# 4 0.000000 0.000000 0.000000 0.150386 0.000000 0.000000
# 5 0.000000 0.000000 0.000000 0.000000 0.035727 0.000000
# 6 0.000000 0.000000 0.000000 0.000000 0.000000 0.132638
#
#
# Mechanical properties :
#
#
# Convention : Reuss Voigt Hill
#
# Bulk Modulus (GPa) = 46.19003 48.02122 47.10562
# Shear Modulus (GPa) = 12.72253 21.08529 16.90391
#
# Velocity S-wave (km/s) = 2.76448 3.55891 3.18655
# Velocity P-wave (km/s) = 6.15922 6.76269 6.46800
#
# Compressibility (1/GPa) = 0.02164970
#
# Stress axis : x y z
#
# Youngs Moduli (GPa) = 103.07642 50.38382 67.59626
#
# Poissons Ratio (x) = 0.05282 0.15075
# Poissons Ratio (y) = 0.10805 0.54538
# Poissons Ratio (z) = 0.22987 0.40651
#
# Static dielectric constant tensor:
#      x y z
#    x 1.577810 0.000000 0.000000 
#    y 0.000000 1.542470 0.000000 
#    z 0.000000 0.000000 1.596140 
# 
# From -- ./inp_files/29050.got.cif
#   From: 2010.05.17/outbox.cif.g08.bks.cpg/sg66_15_cif.got.tgz:29050.got - 2010.06.03 17:51:23.
