data_PCOD9497853
_publ_section_title
;
Structure prediction by ZEFSAII (Michael W. Deem and Ramdas Pophale) SiO2 
 PCOD9497853
Probable space group: C C C M
;
_chemical_formula_sum "Si O2"
_cell_formula_units_Z 80
_cell_length_a 9.608357
_cell_length_b 26.414385
_cell_length_c 15.175923
_cell_angle_alpha 90.000000
_cell_angle_beta 90.000000
_cell_angle_gamma 90.000000
_cell_volume 3851.631669
_symmetry_space_group_name_H-M "C C C M"
_symmetry_group_IT_number 66
_symmetry_cell_setting 'orthorhombic'
loop_
_space_group_symop_operation_xyz
x,y,z
-x,-y,z
x,-y,1/2-z
-x,y,1/2-z
-x,-y,-z
x,y,-z
-x,y,1/2+z
x,-y,1/2+z
1/2+x,1/2+y,z
1/2-x,1/2-y,z
1/2+x,1/2-y,1/2-z
1/2-x,1/2+y,1/2-z
1/2-x,1/2-y,-z
1/2+x,1/2+y,-z
1/2-x,1/2+y,1/2+z
1/2+x,1/2-y,1/2+z
loop_
_atom_site_type_symbol
_atom_site_label
_atom_site_fract_x
_atom_site_fract_y
_atom_site_fract_z
Si Si1 0.907177 0.953318 0.107299
Si Si2 0.902642 0.755368 0.600352
Si Si3 0.410539 0.046892 0.893629
Si Si4 0.063322 0.660634 0.654556
Si Si5 0.614132 0.339692 0.392360
O O1 0.748002 0.959103 0.136718
O O2 0.945049 0.895477 0.130253
O O3 0.909312 0.955257 0.000000
O O4 0.000000 0.000000 0.139067
O O5 0.877503 0.773543 0.500000
O O6 0.750000 0.750000 0.642749
O O7 0.982598 0.702168 0.597700
O O8 0.008653 0.796546 0.638812
O O9 0.465490 0.102233 0.869140
O O10 0.500000 0.000000 0.860987
O O11 0.408372 0.045232 0.000000
O O12 0.229859 0.666888 0.644901
O O13 0.000000 0.670084 0.750000
O O14 0.629635 0.337376 0.500000
#
# Coordination Sequence:
#
# PCOD9497853 Si02
#       5
#    16  16  16  16  16
#     4   8  14  26  48  79 107 131 166 212 264 318
#     4  10  21  36  56  82 108 138 184 238 281 323
#     4   9  18  33  54  78 105 139 180 226 272 317
#     4  11  22  35  53  78 109 148 184 220 272 335
#     4   9  18  35  58  81 109 145 183 226 278 332
#
# _framework density 20.770417999999999
#
# number of rings (size 3 to 8) (size 9 to 14) (size 15 to 20)
#    0.000    2.600    0.000    3.600    0.000    5.200 
#    0.000    6.000    0.000    0.000    0.000    1.400 
#    0.000    0.000    0.000    0.000    0.000    3.200 
#
# Total GULP energy -223128.136434 kJ/mol
# GULP energy per Si atom -5578.203411 kJ/mol
# Density = 2.072314 g / cm^3
# Si number density = 20.770418 Si / 1000 Ang^3
#
#
#
# Elastic Constant Matrix: (Units=GPa)
#
#
# Indices 1 2 3 4 5 6 
#
# 1 114.6648 104.5810 17.7030 0.0000 0.0000 0.0000
# 2 104.5810 171.4444 11.3011 0.0000 0.0000 0.0000
# 3 17.7030 11.3011 45.8373 0.0000 0.0000 0.0000
# 4 0.0000 0.0000 0.0000 -28.8555 0.0000 0.0000
# 5 0.0000 0.0000 0.0000 0.0000 0.6893 0.0000
# 6 0.0000 0.0000 0.0000 0.0000 0.0000 42.1919
#
#
#
# Elastic Compliance Matrix: (Units=1/GPa)
#
#
# Indices 1 2 3 4 5 6 
#
# 1 0.020713 -0.012308 -0.004965 0.000000 0.000000 0.000000
# 2 -0.012308 0.013242 0.001488 0.000000 0.000000 0.000000
# 3 -0.004965 0.001488 0.023367 0.000000 0.000000 0.000000
# 4 0.000000 0.000000 0.000000 -0.034655 0.000000 0.000000
# 5 0.000000 0.000000 0.000000 0.000000 1.450792 0.000000
# 6 0.000000 0.000000 0.000000 0.000000 0.000000 0.023701
#
#
# Mechanical properties :
#
#
# Convention : Reuss Voigt Hill
#
# Bulk Modulus (GPa) = 38.82955 66.56852 52.69903
# Shear Modulus (GPa) = 3.25243 16.02922 9.64082
#
# Velocity S-wave (km/s) = 1.25271 2.78102 2.15678
# Velocity P-wave (km/s) = 4.56373 6.51394 5.62401
#
# Compressibility (1/GPa) = 0.02575358
#
# Stress axis : x y z
#
# Youngs Moduli (GPa) = 48.27930 75.51579 42.79549
#
# Poissons Ratio (x) = 0.92941 0.21249
# Poissons Ratio (y) = 0.59420 -0.06370
# Poissons Ratio (z) = 0.23972 -0.11240
#
# Static dielectric constant tensor:
#      x y z
#    x 1.725320 0.000000 0.000000 
#    y 0.000000 1.745360 0.000000 
#    z 0.000000 0.000000 1.799730 
# 
# From -- ./inp_files/36946.got.cif
#   From: 2010.05.17/outbox.cif.g08.bks.cpg/sg66_19_cif.got.tgz:36946.got - 2010.06.03 17:51:23.
