data_PCOD9497658
_publ_section_title
;
Structure prediction by ZEFSAII (Michael W. Deem and Ramdas Pophale) SiO2 
 PCOD9497658
Probable space group: C C C M
;
_chemical_formula_sum "Si O2"
_cell_formula_units_Z 92
_cell_length_a 7.834665
_cell_length_b 19.772327
_cell_length_c 28.877306
_cell_angle_alpha 90.000000
_cell_angle_beta 90.000000
_cell_angle_gamma 90.000000
_cell_volume 4473.370718
_symmetry_space_group_name_H-M "C C C M"
_symmetry_group_IT_number 66
_symmetry_cell_setting 'orthorhombic'
loop_
_space_group_symop_operation_xyz
x,y,z
-x,-y,z
x,-y,1/2-z
-x,y,1/2-z
-x,-y,-z
x,y,-z
-x,y,1/2+z
x,-y,1/2+z
1/2+x,1/2+y,z
1/2-x,1/2-y,z
1/2+x,1/2-y,1/2-z
1/2-x,1/2+y,1/2-z
1/2-x,1/2-y,-z
1/2+x,1/2+y,-z
1/2-x,1/2+y,1/2+z
1/2+x,1/2-y,1/2+z
loop_
_atom_site_type_symbol
_atom_site_label
_atom_site_fract_x
_atom_site_fract_y
_atom_site_fract_z
Si Si1 0.333588 0.321454 0.445979
Si Si2 0.410139 0.359494 0.132571
Si Si3 0.500000 0.500000 0.879403
Si Si4 0.651312 0.953446 0.414272
Si Si5 0.000000 0.500000 0.250000
Si Si6 0.941922 0.401036 0.329277
Si Si7 0.950665 0.253392 0.801274
O O1 0.375287 0.315341 0.500000
O O2 0.250000 0.250000 0.430470
O O3 0.500262 0.341127 0.416041
O O4 0.199769 0.382965 0.438610
O O5 0.498762 0.429928 0.148241
O O6 0.213408 0.379388 0.137297
O O7 0.451028 0.296214 0.164506
O O8 0.672100 0.494973 0.909783
O O9 0.584486 0.933462 0.362743
O O10 0.500000 0.000000 0.434494
O O11 0.099295 0.548894 0.286305
O O12 0.001262 0.330958 0.307832
O O13 0.750000 0.250000 0.809386
O O14 0.000000 0.231303 0.750000
#
# Coordination Sequence:
#
# PCOD9497658 Si02
#       7
#    16  16   8  16   4  16  16
#     4  10  23  45  73 103 138 182 235 296 364 432
#     4  11  22  42  67  98 134 183 226 287 348 422
#     4  10  20  40  64  96 130 176 232 270 346 410
#     4  11  21  40  70 101 137 184 229 288 355 425
#     4  12  24  40  68  98 138 186 226 300 328 414
#     4  12  23  42  67  97 141 184 228 289 350 414
#     4  12  25  41  63  95 133 179 236 283 344 418
#
# _framework density 20.566147999999998
#
# number of rings (size 3 to 8) (size 9 to 14) (size 15 to 20)
#    0.000    0.870    3.478    5.217    0.000    0.348 
#    0.000    7.826    0.000    4.174    0.000    0.000 
#    0.000    0.000    0.000    0.000    0.000    0.000 
#
# Total GULP energy -256648.580931 kJ/mol
# GULP energy per Si atom -5579.316977 kJ/mol
# Density = 2.051934 g / cm^3
# Si number density = 20.566148 Si / 1000 Ang^3
#
#
#
# Elastic Constant Matrix: (Units=GPa)
#
#
# Indices 1 2 3 4 5 6 
#
# 1 137.2750 38.7599 27.1360 0.0000 0.0000 0.0000
# 2 38.7599 144.4136 31.7890 0.0000 0.0000 0.0000
# 3 27.1360 31.7890 91.5545 0.0000 0.0000 0.0000
# 4 0.0000 0.0000 0.0000 30.3631 0.0000 0.0000
# 5 0.0000 0.0000 0.0000 0.0000 -95.1089 0.0000
# 6 0.0000 0.0000 0.0000 0.0000 0.0000 26.7348
#
#
#
# Elastic Compliance Matrix: (Units=1/GPa)
#
#
# Indices 1 2 3 4 5 6 
#
# 1 0.008145 -0.001792 -0.001792 0.000000 0.000000 0.000000
# 2 -0.001792 0.007892 -0.002209 0.000000 0.000000 0.000000
# 3 -0.001792 -0.002209 0.012221 0.000000 0.000000 0.000000
# 4 0.000000 0.000000 0.000000 0.032935 0.000000 0.000000
# 5 0.000000 0.000000 0.000000 0.000000 -0.010514 0.000000
# 6 0.000000 0.000000 0.000000 0.000000 0.000000 0.037404
#
#
# Mechanical properties :
#
#
# Convention : Reuss Voigt Hill
#
# Bulk Modulus (GPa) = 59.98163 63.17918 61.58040
# Shear Modulus (GPa) = 47.51752 10.76835 29.14294
#
# Velocity S-wave (km/s) = 4.81195 2.29070 3.76844
# Velocity P-wave (km/s) = 7.75253 6.14680 6.99589
#
# Compressibility (1/GPa) = 0.01667177
#
# Stress axis : x y z
#
# Youngs Moduli (GPa) = 122.77884 126.71577 81.82893
#
# Poissons Ratio (x) = 0.22702 0.14664
# Poissons Ratio (y) = 0.21996 0.18077
# Poissons Ratio (z) = 0.22002 0.27993
#
# Static dielectric constant tensor:
#      x y z
#    x 1.719630 0.000000 0.000000 
#    y 0.000000 1.846190 0.000000 
#    z 0.000000 0.000000 1.711120 
# 
# From -- ./inp_files/62635.got.cif
#   From: 2010.05.17/outbox.cif.g08.bks.cpg/sg66_32_cif.got.tgz:62635.got - 2010.06.03 17:51:23.
