data_PCOD9497299
_publ_section_title
;
Structure prediction by ZEFSAII (Michael W. Deem and Ramdas Pophale) SiO2 
 PCOD9497299
Probable space group: C C C M
;
_chemical_formula_sum "Si O2"
_cell_formula_units_Z 48
_cell_length_a 6.705521
_cell_length_b 13.095996
_cell_length_c 22.919774
_cell_angle_alpha 90.000000
_cell_angle_beta 90.000000
_cell_angle_gamma 90.000000
_cell_volume 2012.710868
_symmetry_space_group_name_H-M "C C C M"
_symmetry_group_IT_number 66
_symmetry_cell_setting 'orthorhombic'
loop_
_space_group_symop_operation_xyz
x,y,z
-x,-y,z
x,-y,1/2-z
-x,y,1/2-z
-x,-y,-z
x,y,-z
-x,y,1/2+z
x,-y,1/2+z
1/2+x,1/2+y,z
1/2-x,1/2-y,z
1/2+x,1/2-y,1/2-z
1/2-x,1/2+y,1/2-z
1/2-x,1/2-y,-z
1/2+x,1/2+y,-z
1/2-x,1/2+y,1/2+z
1/2+x,1/2-y,1/2+z
loop_
_atom_site_type_symbol
_atom_site_label
_atom_site_fract_x
_atom_site_fract_y
_atom_site_fract_z
Si Si1 0.613361 0.394648 0.806649
Si Si2 0.371973 0.144678 0.936390
Si Si3 0.000000 0.500000 0.336933
Si Si4 0.250000 0.250000 0.597520
O O1 0.500000 0.500000 0.817712
O O2 0.500000 0.350766 0.750000
O O3 0.846191 0.428329 0.801736
O O4 0.612733 0.317414 0.859797
O O5 0.250000 0.250000 0.929958
O O6 0.366875 0.069495 0.881166
O O7 0.604008 0.177580 0.937272
O O8 0.316563 0.099739 0.000000
#
# Coordination Sequence:
#
# PCOD9497299 Si02
#       4
#    16  16   8   8
#     4  10  22  41  58  85 118 162 207 250 306 361
#     4  10  20  36  62  91 120 157 199 248 307 367
#     4  10  21  39  62  84 126 160 200 256 304 364
#     4  10  21  40  58  86 122 156 201 254 302 366
#
# _framework density 23.848431000000001
#
# number of rings (size 3 to 8) (size 9 to 14) (size 15 to 20)
#    0.000    2.000    0.000    3.000    0.000    2.667 
#   27.000    0.000    0.000   16.000    0.000    0.000 
#    0.000    0.000    0.000    0.000    0.000    0.000 
#
# Total GULP energy -133989.258721 kJ/mol
# GULP energy per Si atom -5582.885780 kJ/mol
# Density = 2.379415 g / cm^3
# Si number density = 23.848431 Si / 1000 Ang^3
#
#
#
# Elastic Constant Matrix: (Units=GPa)
#
#
# Indices 1 2 3 4 5 6 
#
# 1 86.5598 -7.1319 49.5234 0.0000 0.0000 0.0000
# 2 -7.1319 39.2075 17.9816 0.0000 0.0000 0.0000
# 3 49.5234 17.9816 119.8497 0.0000 0.0000 0.0000
# 4 0.0000 0.0000 0.0000 -1.4043 0.0000 0.0000
# 5 0.0000 0.0000 0.0000 0.0000 50.9766 0.0000
# 6 0.0000 0.0000 0.0000 0.0000 0.0000 47.1559
#
#
#
# Elastic Compliance Matrix: (Units=1/GPa)
#
#
# Indices 1 2 3 4 5 6 
#
# 1 0.016587 0.006616 -0.007847 0.000000 0.000000 0.000000
# 2 0.006616 0.030029 -0.007239 0.000000 0.000000 0.000000
# 3 -0.007847 -0.007239 0.012672 0.000000 0.000000 0.000000
# 4 0.000000 0.000000 0.000000 -0.712117 0.000000 0.000000
# 5 0.000000 0.000000 0.000000 0.000000 0.019617 0.000000
# 6 0.000000 0.000000 0.000000 0.000000 0.000000 0.021206
#
#
# Mechanical properties :
#
#
# Convention : Reuss Voigt Hill
#
# Bulk Modulus (GPa) = 23.61362 40.70702 32.16032
# Shear Modulus (GPa) = -8.60660 31.69524 11.54432
#
# Velocity S-wave (km/s) = -1.90176 3.64954 2.20255
# Velocity P-wave (km/s) = 2.25849 5.90466 4.47022
#
# Compressibility (1/GPa) = 0.04234844
#
# Stress axis : x y z
#
# Youngs Moduli (GPa) = 60.28793 33.30130 78.91280
#
# Poissons Ratio (x) = -0.22032 0.61920
# Poissons Ratio (y) = -0.39886 0.57126
# Poissons Ratio (z) = 0.47306 0.24107
#
# Static dielectric constant tensor:
#      x y z
#    x 1.844010 0.000000 0.000000 
#    y 0.000000 1.869530 0.000000 
#    z 0.000000 0.000000 2.033110 
# 
# From -- ./inp_files/60907.got.cif
#   From: 2010.05.17/outbox.cif.g08.bks.cpg/sg66_31_cif.got.tgz:60907.got - 2010.06.03 17:51:23.
