data_PCOD9497374
_publ_section_title
;
Structure prediction by ZEFSAII (Michael W. Deem and Ramdas Pophale) SiO2 
 PCOD9497374
Probable space group: C C C M
;
_chemical_formula_sum "Si O2"
_cell_formula_units_Z 80
_cell_length_a 9.716849
_cell_length_b 12.472696
_cell_length_c 29.380757
_cell_angle_alpha 90.000000
_cell_angle_beta 90.000000
_cell_angle_gamma 90.000000
_cell_volume 3560.809766
_symmetry_space_group_name_H-M "C C C M"
_symmetry_group_IT_number 66
_symmetry_cell_setting 'orthorhombic'
loop_
_space_group_symop_operation_xyz
x,y,z
-x,-y,z
x,-y,1/2-z
-x,y,1/2-z
-x,-y,-z
x,y,-z
-x,y,1/2+z
x,-y,1/2+z
1/2+x,1/2+y,z
1/2-x,1/2-y,z
1/2+x,1/2-y,1/2-z
1/2-x,1/2+y,1/2-z
1/2-x,1/2-y,-z
1/2+x,1/2+y,-z
1/2-x,1/2+y,1/2+z
1/2+x,1/2-y,1/2+z
loop_
_atom_site_type_symbol
_atom_site_label
_atom_site_fract_x
_atom_site_fract_y
_atom_site_fract_z
Si Si1 0.399820 0.602528 0.548571
Si Si2 0.302733 0.994382 0.696492
Si Si3 0.639666 0.343365 0.352605
Si Si4 0.601462 0.806344 0.549933
Si Si5 0.039692 0.349081 0.647844
O O1 0.500000 0.500000 0.549967
O O2 0.321733 0.597837 0.500000
O O3 0.326976 0.610183 0.597078
O O4 0.491240 0.709983 0.547539
O O5 0.160880 0.938031 0.682825
O O6 0.416701 0.916842 0.671935
O O7 0.324460 0.000000 0.750000
O O8 0.327283 0.110321 0.674669
O O9 0.750000 0.250000 0.344204
O O10 0.498259 0.276740 0.350274
O O11 0.604473 0.860043 0.500000
O O12 0.750000 0.750000 0.556711
O O13 0.562438 0.873437 0.594430
#
# Coordination Sequence:
#
# PCOD9497374 Si02
#       5
#    16  16  16  16  16
#     4   9  18  32  53  79 113 149 179 223 277 333
#     4  10  20  37  60  79 107 147 189 244 297 344
#     4   9  19  35  57  80 111 140 185 233 277 343
#     4   9  18  32  51  80 116 149 187 228 279 349
#     4   9  18  35  56  81 107 145 184 231 284 339
#
# _framework density 22.466799000000002
#
# number of rings (size 3 to 8) (size 9 to 14) (size 15 to 20)
#    0.000    2.800    0.000    1.200    2.800    0.400 
#    0.000   10.000    4.400    0.000    0.000    0.000 
#    0.000    0.000    0.000    0.000    0.000    0.000 
#
# Total GULP energy -222817.761622 kJ/mol
# GULP energy per Si atom -5570.444041 kJ/mol
# Density = 2.241566 g / cm^3
# Si number density = 22.466799 Si / 1000 Ang^3
#
#
#
# Elastic Constant Matrix: (Units=GPa)
#
#
# Indices 1 2 3 4 5 6 
#
# 1 30.1788 20.7334 38.7403 0.0000 0.0000 0.0000
# 2 20.7334 68.3030 61.4817 0.0000 0.0000 0.0000
# 3 38.7403 61.4817 210.3120 0.0000 0.0000 0.0000
# 4 0.0000 0.0000 0.0000 3.3316 0.0000 0.0000
# 5 0.0000 0.0000 0.0000 0.0000 6.3981 0.0000
# 6 0.0000 0.0000 0.0000 0.0000 0.0000 19.8828
#
#
#
# Elastic Compliance Matrix: (Units=1/GPa)
#
#
# Indices 1 2 3 4 5 6 
#
# 1 0.046984 -0.008783 -0.006087 0.000000 0.000000 0.000000
# 2 -0.008783 0.021511 -0.004671 0.000000 0.000000 0.000000
# 3 -0.006087 -0.004671 0.007241 0.000000 0.000000 0.000000
# 4 0.000000 0.000000 0.000000 0.300152 0.000000 0.000000
# 5 0.000000 0.000000 0.000000 0.000000 0.156296 0.000000
# 6 0.000000 0.000000 0.000000 0.000000 0.000000 0.050295
#
#
# Mechanical properties :
#
#
# Convention : Reuss Voigt Hill
#
# Bulk Modulus (GPa) = 27.28129 61.18940 44.23534
# Shear Modulus (GPa) = 7.88920 18.44507 13.16713
#
# Velocity S-wave (km/s) = 1.87593 2.86840 2.42352
# Velocity P-wave (km/s) = 4.10627 6.18587 5.25007
#
# Compressibility (1/GPa) = 0.03665516
#
# Stress axis : x y z
#
# Youngs Moduli (GPa) = 21.28398 46.48834 138.09355
#
# Poissons Ratio (x) = 0.40830 0.84058
# Poissons Ratio (y) = 0.18693 0.64497
# Poissons Ratio (z) = 0.12956 0.21713
#
# Static dielectric constant tensor:
#      x y z
#    x 1.951080 0.000000 0.000000 
#    y 0.000000 1.872050 0.000000 
#    z 0.000000 0.000000 1.859970 
# 
# From -- ./inp_files/56553.got.cif
#   From: 2010.05.17/outbox.cif.g08.bks.cpg/sg66_29_cif.got.tgz:56553.got - 2010.06.03 17:51:23.
