data_PCOD9497542
_publ_section_title
;
Structure prediction by ZEFSAII (Michael W. Deem and Ramdas Pophale) SiO2 
 PCOD9497542
Probable space group: C C C M
;
_chemical_formula_sum "Si O2"
_cell_formula_units_Z 48
_cell_length_a 18.546153
_cell_length_b 10.613667
_cell_length_c 10.360627
_cell_angle_alpha 90.000000
_cell_angle_beta 90.000000
_cell_angle_gamma 90.000000
_cell_volume 2039.413710
_symmetry_space_group_name_H-M "C C C M"
_symmetry_group_IT_number 66
_symmetry_cell_setting 'orthorhombic'
loop_
_space_group_symop_operation_xyz
x,y,z
-x,-y,z
x,-y,1/2-z
-x,y,1/2-z
-x,-y,-z
x,y,-z
-x,y,1/2+z
x,-y,1/2+z
1/2+x,1/2+y,z
1/2-x,1/2-y,z
1/2+x,1/2-y,1/2-z
1/2-x,1/2+y,1/2-z
1/2-x,1/2-y,-z
1/2+x,1/2+y,-z
1/2-x,1/2+y,1/2+z
1/2+x,1/2-y,1/2+z
loop_
_atom_site_type_symbol
_atom_site_label
_atom_site_fract_x
_atom_site_fract_y
_atom_site_fract_z
Si Si1 0.225565 0.605536 0.848526
Si Si2 0.094243 0.165747 0.000000
Si Si3 0.577809 0.390996 0.000000
Si Si4 0.084999 0.292726 0.734265
O O1 0.254908 0.500000 0.750000
O O2 0.250000 0.750000 0.818673
O O3 0.138714 0.607139 0.827211
O O4 0.238878 0.583948 0.000000
O O5 0.110558 0.245752 0.126122
O O6 0.009098 0.128017 0.000000
O O7 0.119641 0.022564 0.000000
O O8 0.594226 0.322154 0.866186
O O9 0.000000 0.325845 0.750000
#
# Coordination Sequence:
#
# PCOD9497542 Si02
#       4
#    16   8   8  16
#     4  11  27  51  74 102 141 186 237 290 348 418
#     4   9  18  28  56  93 134 185 221 273 340 407
#     4   9  16  32  52  89 142 179 225 279 334 401
#     4  10  20  38  63 100 139 177 229 287 348 411
#
# _framework density 23.536176000000001
#
# number of rings (size 3 to 8) (size 9 to 14) (size 15 to 20)
#    0.000    2.000    1.667    1.000    2.333    8.000 
#    0.000    1.667    0.000    0.000    0.000    0.000 
#    0.000    0.000    0.000    0.000    0.000    0.000 
#
# Total GULP energy -133891.970228 kJ/mol
# GULP energy per Si atom -5578.832093 kJ/mol
# Density = 2.348261 g / cm^3
# Si number density = 23.536176 Si / 1000 Ang^3
#
#
#
# Elastic Constant Matrix: (Units=GPa)
#
#
# Indices 1 2 3 4 5 6 
#
# 1 93.7933 22.2032 22.1246 0.0000 0.0000 0.0000
# 2 22.2032 86.9932 64.8214 0.0000 0.0000 0.0000
# 3 22.1246 64.8214 204.1755 0.0000 0.0000 0.0000
# 4 0.0000 0.0000 0.0000 8.4144 0.0000 0.0000
# 5 0.0000 0.0000 0.0000 0.0000 -218.7692 0.0000
# 6 0.0000 0.0000 0.0000 0.0000 0.0000 22.0609
#
#
#
# Elastic Compliance Matrix: (Units=1/GPa)
#
#
# Indices 1 2 3 4 5 6 
#
# 1 0.011373 -0.002599 -0.000407 0.000000 0.000000 0.000000
# 2 -0.002599 0.015651 -0.004687 0.000000 0.000000 0.000000
# 3 -0.000407 -0.004687 0.006430 0.000000 0.000000 0.000000
# 4 0.000000 0.000000 0.000000 0.118843 0.000000 0.000000
# 5 0.000000 0.000000 0.000000 0.000000 -0.004571 0.000000
# 6 0.000000 0.000000 0.000000 0.000000 0.000000 0.045329
#
#
# Mechanical properties :
#
#
# Convention : Reuss Voigt Hill
#
# Bulk Modulus (GPa) = 55.35030 67.02891 61.18961
# Shear Modulus (GPa) = 23.31377 -19.27123 2.02127
#
# Velocity S-wave (km/s) = 3.15072 -2.86456 0.92772
# Velocity P-wave (km/s) = 6.06664 4.19524 5.21556
#
# Compressibility (1/GPa) = 0.01806675
#
# Stress axis : x y z
#
# Youngs Moduli (GPa) = 87.92662 63.89283 155.52164
#
# Poissons Ratio (x) = 0.16608 0.06332
# Poissons Ratio (y) = 0.22855 0.72897
# Poissons Ratio (z) = 0.03580 0.29948
#
# Static dielectric constant tensor:
#      x y z
#    x 2.076960 0.000000 0.000000 
#    y 0.000000 2.015580 0.000000 
#    z 0.000000 0.000000 2.055570 
# 
# From -- ./inp_files/17098.got.cif
#   From: 2010.05.17/outbox.cif.g08.bks.cpg/sg66_9_cif.got.tgz:17098.got - 2010.06.03 17:51:23.
