data_PCOD9497093
_publ_section_title
;
Structure prediction by ZEFSAII (Michael W. Deem and Ramdas Pophale) SiO2 
 PCOD9497093
Probable space group: C C C M
;
_chemical_formula_sum "Si O2"
_cell_formula_units_Z 112
_cell_length_a 24.206511
_cell_length_b 11.332805
_cell_length_c 21.664207
_cell_angle_alpha 90.000000
_cell_angle_beta 90.000000
_cell_angle_gamma 90.000000
_cell_volume 5943.091405
_symmetry_space_group_name_H-M "C C C M"
_symmetry_group_IT_number 66
_symmetry_cell_setting 'orthorhombic'
loop_
_space_group_symop_operation_xyz
x,y,z
-x,-y,z
x,-y,1/2-z
-x,y,1/2-z
-x,-y,-z
x,y,-z
-x,y,1/2+z
x,-y,1/2+z
1/2+x,1/2+y,z
1/2-x,1/2-y,z
1/2+x,1/2-y,1/2-z
1/2-x,1/2+y,1/2-z
1/2-x,1/2-y,-z
1/2+x,1/2+y,-z
1/2-x,1/2+y,1/2+z
1/2+x,1/2-y,1/2+z
loop_
_atom_site_type_symbol
_atom_site_label
_atom_site_fract_x
_atom_site_fract_y
_atom_site_fract_z
Si Si1 0.834334 0.072118 0.931521
Si Si2 0.373845 0.267217 0.339387
Si Si3 0.372140 0.084698 0.929527
Si Si4 0.692490 0.310115 0.596413
Si Si5 0.208599 0.858595 0.259105
Si Si6 0.791769 0.620067 0.572217
Si Si7 0.936229 0.537386 0.317415
O O1 0.879937 0.121961 0.885215
O O2 0.773022 0.120919 0.913343
O O3 0.824345 0.933681 0.932238
O O4 0.847979 0.111966 0.000000
O O5 0.345758 0.324367 0.279493
O O6 0.330391 0.186286 0.378734
O O7 0.423177 0.176819 0.325333
O O8 0.356161 0.218017 0.916000
O O9 0.314536 0.012802 0.925793
O O10 0.409276 0.030211 0.875481
O O11 0.393318 0.069221 0.000000
O O12 0.750000 0.250000 0.575037
O O13 0.699569 0.339127 0.668629
O O14 0.250000 0.750000 0.240585
O O15 0.223632 0.000000 0.250000
O O16 0.798344 0.656024 0.500000
O O17 0.912340 0.500000 0.250000
O O18 0.000000 0.500000 0.317023
#
# Coordination Sequence:
#
# PCOD9497093 Si02
#       7
#    16  16  16  16  16  16  16
#     4  11  20  31  50  78 118 163 197 226 273 341
#     4  11  21  35  55  80 114 147 195 244 298 354
#     4  10  20  35  58  90 123 157 198 248 300 354
#     4  11  21  33  52  81 122 169 206 234 282 349
#     4  11  23  35  53  83 128 172 209 246 298 359
#     4   9  18  31  50  78 116 159 198 232 276 340
#     4  10  23  44  68  89 108 144 196 260 325 377
#
# _framework density 18.845410999999999
#
# number of rings (size 3 to 8) (size 9 to 14) (size 15 to 20)
#    0.000    1.571    2.857    3.000    0.000    4.286 
#    0.000    0.000    0.000    0.857    0.000    2.000 
#    0.000    0.000    0.000    0.000    0.000    0.000 
#
# Total GULP energy -312018.334917 kJ/mol
# GULP energy per Si atom -5571.755981 kJ/mol
# Density = 1.880252 g / cm^3
# Si number density = 18.845411 Si / 1000 Ang^3
#
#
#
# Elastic Constant Matrix: (Units=GPa)
#
#
# Indices 1 2 3 4 5 6 
#
# 1 46.3638 31.0811 28.6197 0.0000 0.0000 0.0000
# 2 31.0811 135.0890 28.5435 0.0000 0.0000 0.0000
# 3 28.6197 28.5435 99.7698 0.0000 0.0000 0.0000
# 4 0.0000 0.0000 0.0000 31.5072 0.0000 0.0000
# 5 0.0000 0.0000 0.0000 0.0000 9.9706 0.0000
# 6 0.0000 0.0000 0.0000 0.0000 0.0000 24.2024
#
#
#
# Elastic Compliance Matrix: (Units=1/GPa)
#
#
# Indices 1 2 3 4 5 6 
#
# 1 0.029390 -0.005301 -0.006914 0.000000 0.000000 0.000000
# 2 -0.005301 0.008835 -0.001007 0.000000 0.000000 0.000000
# 3 -0.006914 -0.001007 0.012295 0.000000 0.000000 0.000000
# 4 0.000000 0.000000 0.000000 0.031739 0.000000 0.000000
# 5 0.000000 0.000000 0.000000 0.000000 0.100295 0.000000
# 6 0.000000 0.000000 0.000000 0.000000 0.000000 0.041318
#
#
# Mechanical properties :
#
#
# Convention : Reuss Voigt Hill
#
# Bulk Modulus (GPa) = 41.53647 50.85682 46.19664
# Shear Modulus (GPa) = 19.35420 26.00123 22.67772
#
# Velocity S-wave (km/s) = 3.20816 3.71848 3.47270
# Velocity P-wave (km/s) = 5.98427 6.74396 6.37544
#
# Compressibility (1/GPa) = 0.02407523
#
# Stress axis : x y z
#
# Youngs Moduli (GPa) = 34.02472 113.18646 81.33683
#
# Poissons Ratio (x) = 0.60002 0.56238
# Poissons Ratio (y) = 0.18037 0.08190
# Poissons Ratio (z) = 0.23525 0.11397
#
# Static dielectric constant tensor:
#      x y z
#    x 1.627450 0.000000 0.000000 
#    y 0.000000 1.745330 0.000000 
#    z 0.000000 0.000000 1.701080 
# 
# From -- ./inp_files/52606.got.cif
#   From: 2010.05.17/outbox.cif.g08.bks.cpg/sg66_27_cif.got.tgz:52606.got - 2010.06.03 17:51:23.
