data_PCOD9497852
_publ_section_title
;
Structure prediction by ZEFSAII (Michael W. Deem and Ramdas Pophale) SiO2 
 PCOD9497852
Probable space group: C C C M
;
_chemical_formula_sum "Si O2"
_cell_formula_units_Z 88
_cell_length_a 8.126535
_cell_length_b 20.088685
_cell_length_c 26.351329
_cell_angle_alpha 90.000000
_cell_angle_beta 90.000000
_cell_angle_gamma 90.000000
_cell_volume 4301.891397
_symmetry_space_group_name_H-M "C C C M"
_symmetry_group_IT_number 66
_symmetry_cell_setting 'orthorhombic'
loop_
_space_group_symop_operation_xyz
x,y,z
-x,-y,z
x,-y,1/2-z
-x,y,1/2-z
-x,-y,-z
x,y,-z
-x,y,1/2+z
x,-y,1/2+z
1/2+x,1/2+y,z
1/2-x,1/2-y,z
1/2+x,1/2-y,1/2-z
1/2-x,1/2+y,1/2-z
1/2-x,1/2-y,-z
1/2+x,1/2+y,-z
1/2-x,1/2+y,1/2+z
1/2+x,1/2-y,1/2+z
loop_
_atom_site_type_symbol
_atom_site_label
_atom_site_fract_x
_atom_site_fract_y
_atom_site_fract_z
Si Si1 0.000000 0.393000 0.250000
Si Si2 0.857861 0.567047 0.857464
Si Si3 0.887669 0.192116 0.943333
Si Si4 0.297055 0.080841 0.608543
Si Si5 0.875830 0.190344 0.652124
Si Si6 0.800876 0.824362 0.299238
O O1 0.054863 0.432625 0.198830
O O2 0.163585 0.348222 0.259041
O O3 0.783850 0.497177 0.877018
O O4 0.720716 0.622483 0.856213
O O5 0.005883 0.588825 0.894781
O O6 0.750000 0.250000 0.939187
O O7 0.801470 0.119484 0.935113
O O8 0.018543 0.204005 0.898666
O O9 0.958656 0.195321 0.000000
O O10 0.235682 0.122482 0.656758
O O11 0.750000 0.250000 0.661728
O O12 0.001429 0.179927 0.698636
O O13 0.750000 0.750000 0.313587
#
# Coordination Sequence:
#
# PCOD9497852 Si02
#       6
#     8  16  16  16  16  16
#     4  10  22  39  58  82 116 161 214 256 292 361
#     4  10  21  36  60  86 116 159 203 249 302 362
#     4  10  21  39  64  91 119 155 200 247 301 374
#     4   9  19  39  60  81 117 160 196 241 308 367
#     4  11  21  37  60  89 123 159 198 252 317 368
#     4  10  21  36  56  81 115 157 200 251 304 357
#
# _framework density 20.456118
#
# number of rings (size 3 to 8) (size 9 to 14) (size 15 to 20)
#    0.000    2.000    0.000    5.455    0.000   12.000 
#    0.000    4.545    0.000   15.273    0.000    0.000 
#    0.000    0.000    0.000    0.000    0.000    0.000 
#
# Total GULP energy -245096.232849 kJ/mol
# GULP energy per Si atom -5570.368928 kJ/mol
# Density = 2.040956 g / cm^3
# Si number density = 20.456118 Si / 1000 Ang^3
#
#
#
# Elastic Constant Matrix: (Units=GPa)
#
#
# Indices 1 2 3 4 5 6 
#
# 1 104.4232 89.3937 16.2383 0.0000 0.0000 0.0000
# 2 89.3937 118.1236 24.6808 0.0000 0.0000 0.0000
# 3 16.2383 24.6808 93.4773 0.0000 0.0000 0.0000
# 4 0.0000 0.0000 0.0000 17.4088 0.0000 0.0000
# 5 0.0000 0.0000 0.0000 0.0000 21.6436 0.0000
# 6 0.0000 0.0000 0.0000 0.0000 0.0000 44.6566
#
#
#
# Elastic Compliance Matrix: (Units=1/GPa)
#
#
# Indices 1 2 3 4 5 6 
#
# 1 0.027245 -0.020776 0.000753 0.000000 0.000000 0.000000
# 2 -0.020776 0.024802 -0.002940 0.000000 0.000000 0.000000
# 3 0.000753 -0.002940 0.011343 0.000000 0.000000 0.000000
# 4 0.000000 0.000000 0.000000 0.057442 0.000000 0.000000
# 5 0.000000 0.000000 0.000000 0.000000 0.046203 0.000000
# 6 0.000000 0.000000 0.000000 0.000000 0.000000 0.022393
#
#
# Mechanical properties :
#
#
# Convention : Reuss Voigt Hill
#
# Bulk Modulus (GPa) = 57.25651 64.07219 60.66435
# Shear Modulus (GPa) = 20.73178 29.12256 24.92717
#
# Velocity S-wave (km/s) = 3.18697 3.77724 3.49459
# Velocity P-wave (km/s) = 6.44927 7.10022 6.78256
#
# Compressibility (1/GPa) = 0.01746526
#
# Stress axis : x y z
#
# Youngs Moduli (GPa) = 36.70432 40.31860 88.15860
#
# Poissons Ratio (x) = 0.83764 -0.06635
# Poissons Ratio (y) = 0.76255 0.25915
# Poissons Ratio (z) = -0.02762 0.11852
#
# Static dielectric constant tensor:
#      x y z
#    x 1.759280 0.000000 0.000000 
#    y 0.000000 1.715500 0.000000 
#    z 0.000000 0.000000 1.781990 
# 
# From -- ./inp_files/68174.got.cif
#   From: 2010.05.17/outbox.cif.g08.bks.cpg/sg66_35_cif.got.tgz:68174.got - 2010.06.03 17:51:23.
