data_PCOD9497276
_publ_section_title
;
Structure prediction by ZEFSAII (Michael W. Deem and Ramdas Pophale) SiO2 
 PCOD9497276
Probable space group: C C C M
;
_chemical_formula_sum "Si O2"
_cell_formula_units_Z 36
_cell_length_a 9.539763
_cell_length_b 21.841921
_cell_length_c 9.277788
_cell_angle_alpha 90.000000
_cell_angle_beta 90.000000
_cell_angle_gamma 90.000000
_cell_volume 1933.182531
_symmetry_space_group_name_H-M "C C C M"
_symmetry_group_IT_number 66
_symmetry_cell_setting 'orthorhombic'
loop_
_space_group_symop_operation_xyz
x,y,z
-x,-y,z
x,-y,1/2-z
-x,y,1/2-z
-x,-y,-z
x,y,-z
-x,y,1/2+z
x,-y,1/2+z
1/2+x,1/2+y,z
1/2-x,1/2-y,z
1/2+x,1/2-y,1/2-z
1/2-x,1/2+y,1/2-z
1/2-x,1/2-y,-z
1/2+x,1/2+y,-z
1/2-x,1/2+y,1/2+z
1/2+x,1/2-y,1/2+z
loop_
_atom_site_type_symbol
_atom_site_label
_atom_site_fract_x
_atom_site_fract_y
_atom_site_fract_z
Si Si1 0.853678 0.692049 0.670186
Si Si2 0.000000 0.000000 0.750000
Si Si3 0.134101 0.119741 0.163575
O O1 0.874039 0.681353 0.500000
O O2 0.750000 0.750000 0.686982
O O3 0.771162 0.636656 0.747314
O O4 0.000000 0.702076 0.750000
O O5 0.097926 0.047346 0.836055
O O6 0.000000 0.146562 0.250000
O O7 0.141090 0.142518 0.000000
#
# Coordination Sequence:
#
# PCOD9497276 Si02
#       3
#    16   4  16
#     4  11  24  40  60  88 122 160 202 250 304 360
#     4   8  22  36  64  92 122 160 204 246 302 356
#     4  10  20  36  61  89 120 157 200 246 296 356
#
# _framework density 18.622142
#
# number of rings (size 3 to 8) (size 9 to 14) (size 15 to 20)
#    1.333    0.444    0.000    4.667    0.000    7.111 
#    0.000    1.111    0.000    5.333    0.000    0.000 
#    0.000    0.000    0.000    0.000    0.000    0.000 
#
# Total GULP energy -100280.910488 kJ/mol
# GULP energy per Si atom -5571.161694 kJ/mol
# Density = 1.857976 g / cm^3
# Si number density = 18.622142 Si / 1000 Ang^3
#
#
#
# Elastic Constant Matrix: (Units=GPa)
#
#
# Indices 1 2 3 4 5 6 
#
# 1 149.8681 39.1755 96.4667 0.0000 0.0000 0.0000
# 2 39.1755 71.5758 41.8897 0.0000 0.0000 0.0000
# 3 96.4667 41.8897 189.9497 0.0000 0.0000 0.0000
# 4 0.0000 0.0000 0.0000 21.9853 0.0000 0.0000
# 5 0.0000 0.0000 0.0000 0.0000 32.3749 0.0000
# 6 0.0000 0.0000 0.0000 0.0000 0.0000 32.4882
#
#
#
# Elastic Compliance Matrix: (Units=1/GPa)
#
#
# Indices 1 2 3 4 5 6 
#
# 1 0.010445 -0.003000 -0.004643 0.000000 0.000000 0.000000
# 2 -0.003000 0.016903 -0.002204 0.000000 0.000000 0.000000
# 3 -0.004643 -0.002204 0.008109 0.000000 0.000000 0.000000
# 4 0.000000 0.000000 0.000000 0.045485 0.000000 0.000000
# 5 0.000000 0.000000 0.000000 0.000000 0.030888 0.000000
# 6 0.000000 0.000000 0.000000 0.000000 0.000000 0.030780
#
#
# Mechanical properties :
#
#
# Convention : Reuss Voigt Hill
#
# Bulk Modulus (GPa) = 63.43995 85.16193 74.30094
# Shear Modulus (GPa) = 29.84024 32.96047 31.40035
#
# Velocity S-wave (km/s) = 4.00735 4.21165 4.11077
# Velocity P-wave (km/s) = 7.45337 8.33556 7.90678
#
# Compressibility (1/GPa) = 0.01576294
#
# Stress axis : x y z
#
# Youngs Moduli (GPa) = 95.73624 59.16103 123.32378
#
# Poissons Ratio (x) = 0.17746 0.57262
# Poissons Ratio (y) = 0.28717 0.27184
# Poissons Ratio (z) = 0.44452 0.13041
#
# Static dielectric constant tensor:
#      x y z
#    x 1.627160 0.000000 0.000000 
#    y 0.000000 1.680830 0.000000 
#    z 0.000000 0.000000 1.635760 
# 
# From -- ./inp_files/2324.got.cif
#   From: 2010.05.17/outbox.cif.g08.bks.cpg/sg66_2_cif.got.tgz:2324.got - 2010.06.03 17:51:23.
