data_PCOD9497432
_publ_section_title
;
Structure prediction by ZEFSAII (Michael W. Deem and Ramdas Pophale) SiO2 
 PCOD9497432
Probable space group: C C C M
;
_chemical_formula_sum "Si O2"
_cell_formula_units_Z 112
_cell_length_a 25.568070
_cell_length_b 14.177496
_cell_length_c 14.511230
_cell_angle_alpha 90.000000
_cell_angle_beta 90.000000
_cell_angle_gamma 90.000000
_cell_volume 5260.193324
_symmetry_space_group_name_H-M "C C C M"
_symmetry_group_IT_number 66
_symmetry_cell_setting 'orthorhombic'
loop_
_space_group_symop_operation_xyz
x,y,z
-x,-y,z
x,-y,1/2-z
-x,y,1/2-z
-x,-y,-z
x,y,-z
-x,y,1/2+z
x,-y,1/2+z
1/2+x,1/2+y,z
1/2-x,1/2-y,z
1/2+x,1/2-y,1/2-z
1/2-x,1/2+y,1/2-z
1/2-x,1/2-y,-z
1/2+x,1/2+y,-z
1/2-x,1/2+y,1/2+z
1/2+x,1/2-y,1/2+z
loop_
_atom_site_type_symbol
_atom_site_label
_atom_site_fract_x
_atom_site_fract_y
_atom_site_fract_z
Si Si1 0.552289 0.457014 0.647573
Si Si2 0.780846 0.537700 0.145109
Si Si3 0.943324 0.746226 0.104158
Si Si4 0.840129 0.281223 0.296966
Si Si5 0.332965 0.441025 0.844886
Si Si6 0.522488 0.903587 0.645889
Si Si7 0.357100 0.870536 0.896124
O O1 0.500000 0.500000 0.603066
O O2 0.554582 0.500000 0.750000
O O3 0.544266 0.345406 0.650692
O O4 0.611353 0.466491 0.608765
O O5 0.778078 0.500000 0.250000
O O6 0.802220 0.644516 0.152251
O O7 0.721963 0.535954 0.107252
O O8 0.821339 0.464310 0.101724
O O9 0.898173 0.697235 0.164036
O O10 0.995243 0.685494 0.100654
O O11 0.923646 0.761949 0.000000
O O12 0.831763 0.171136 0.320646
O O13 0.837759 0.302851 0.187338
O O14 0.333088 0.500000 0.750000
O O15 0.500000 0.900432 0.750000
O O16 0.584305 0.899797 0.633405
O O17 0.500000 0.000000 0.605553
O O18 0.357525 0.829826 0.000000
#
# Coordination Sequence:
#
# PCOD9497432 Si02
#       7
#    16  16  16  16  16  16  16
#     4   9  20  36  62  90 120 163 209 264 324 376
#     4   9  19  35  59  86 119 162 210 259 313 381
#     4  11  23  38  61  92 125 166 216 264 314 385
#     4  10  20  37  62  88 124 167 212 264 324 385
#     4   9  18  35  61  89 117 162 214 257 315 376
#     4  11  23  37  59  87 131 175 214 261 314 392
#     4  11  23  38  60  93 130 168 214 268 327 389
#
# _framework density 21.291993000000002
#
# number of rings (size 3 to 8) (size 9 to 14) (size 15 to 20)
#    0.000    2.000    1.429    1.714    6.000    4.286 
#    0.000    2.857    0.000   33.429    0.000    0.000 
#    0.000    0.000    0.000    0.000    0.000    0.000 
#
# Total GULP energy -312258.159043 kJ/mol
# GULP energy per Si atom -5576.038554 kJ/mol
# Density = 2.124353 g / cm^3
# Si number density = 21.291993 Si / 1000 Ang^3
#
#
#
# Elastic Constant Matrix: (Units=GPa)
#
#
# Indices 1 2 3 4 5 6 
#
# 1 193.4158 44.8742 20.1926 0.0000 0.0000 0.0000
# 2 44.8742 76.7903 17.0904 0.0000 0.0000 0.0000
# 3 20.1926 17.0904 122.3403 0.0000 0.0000 0.0000
# 4 0.0000 0.0000 0.0000 -102.7112 0.0000 0.0000
# 5 0.0000 0.0000 0.0000 0.0000 12.3044 0.0000
# 6 0.0000 0.0000 0.0000 0.0000 0.0000 30.9359
#
#
#
# Elastic Compliance Matrix: (Units=1/GPa)
#
#
# Indices 1 2 3 4 5 6 
#
# 1 0.006013 -0.003398 -0.000518 0.000000 0.000000 0.000000
# 2 -0.003398 0.015361 -0.001585 0.000000 0.000000 0.000000
# 3 -0.000518 -0.001585 0.008481 0.000000 0.000000 0.000000
# 4 0.000000 0.000000 0.000000 -0.009736 0.000000 0.000000
# 5 0.000000 0.000000 0.000000 0.000000 0.081272 0.000000
# 6 0.000000 0.000000 0.000000 0.000000 0.000000 0.032325
#
#
# Mechanical properties :
#
#
# Convention : Reuss Voigt Hill
#
# Bulk Modulus (GPa) = 53.04332 61.87341 57.45836
# Shear Modulus (GPa) = 33.11221 8.79843 20.95532
#
# Velocity S-wave (km/s) = 3.94782 2.03500 3.14058
# Velocity P-wave (km/s) = 6.76363 5.88593 6.33999
#
# Compressibility (1/GPa) = 0.01885252
#
# Stress axis : x y z
#
# Youngs Moduli (GPa) = 166.31392 65.09905 117.91378
#
# Poissons Ratio (x) = 0.22124 0.06104
# Poissons Ratio (y) = 0.56521 0.18689
# Poissons Ratio (z) = 0.08609 0.10318
#
# Static dielectric constant tensor:
#      x y z
#    x 1.821050 0.000000 0.000000 
#    y 0.000000 1.738640 0.000000 
#    z 0.000000 0.000000 1.749120 
# 
# From -- ./inp_files/33334.got.cif
#   From: 2010.05.17/outbox.cif.g08.bks.cpg/sg66_17_cif.got.tgz:33334.got - 2010.06.03 17:51:23.
