data_PCOD9497188
_publ_section_title
;
Structure prediction by ZEFSAII (Michael W. Deem and Ramdas Pophale) SiO2 
 PCOD9497188
Probable space group: C C C M
;
_chemical_formula_sum "Si O2"
_cell_formula_units_Z 60
_cell_length_a 23.346676
_cell_length_b 5.122122
_cell_length_c 26.946725
_cell_angle_alpha 90.000000
_cell_angle_beta 90.000000
_cell_angle_gamma 90.000000
_cell_volume 3222.411249
_symmetry_space_group_name_H-M "C C C M"
_symmetry_group_IT_number 66
_symmetry_cell_setting 'orthorhombic'
loop_
_space_group_symop_operation_xyz
x,y,z
-x,-y,z
x,-y,1/2-z
-x,y,1/2-z
-x,-y,-z
x,y,-z
-x,y,1/2+z
x,-y,1/2+z
1/2+x,1/2+y,z
1/2-x,1/2-y,z
1/2+x,1/2-y,1/2-z
1/2-x,1/2+y,1/2-z
1/2-x,1/2-y,-z
1/2+x,1/2+y,-z
1/2-x,1/2+y,1/2+z
1/2+x,1/2-y,1/2+z
loop_
_atom_site_type_symbol
_atom_site_label
_atom_site_fract_x
_atom_site_fract_y
_atom_site_fract_z
Si Si1 0.587769 0.141792 0.668911
Si Si2 0.000000 0.500000 0.750000
Si Si3 0.437538 0.366265 0.607545
Si Si4 0.717553 0.002240 0.690777
Si Si5 0.957904 0.245280 0.000000
O O1 0.595852 0.410985 0.638451
O O2 0.543342 0.166660 0.715005
O O3 0.562470 0.906660 0.636063
O O4 0.650021 0.035120 0.683961
O O5 0.500000 0.500000 0.606151
O O6 0.422511 0.289059 0.550895
O O7 0.750000 0.750000 0.670420
O O8 0.726730 0.000000 0.750000
O O9 0.750000 0.250000 0.669231
O O10 0.000000 0.500000 0.000000
O O11 0.000000 0.000000 0.000000
#
# Coordination Sequence:
#
# PCOD9497188 Si02
#       5
#    16   4  16  16   8
#     4  12  23  37  57  85 120 158 188 231 286 354
#     4  12  24  38  52  88 132 158 184 220 296 352
#     4  11  21  36  55  86 116 150 192 228 293 352
#     4  10  21  38  56  77 107 154 205 241 270 318
#     4  10  20  36  58  80 116 156 188 244 280 349
#
# _framework density 18.619596999999999
#
# number of rings (size 3 to 8) (size 9 to 14) (size 15 to 20)
#    0.000    1.067    4.000    4.800    0.000    2.133 
#    0.000    0.000    0.000    0.000    0.000   18.667 
#    0.000    0.000    0.000    0.000    0.000    0.000 
#
# Total GULP energy -167144.497646 kJ/mol
# GULP energy per Si atom -5571.483255 kJ/mol
# Density = 1.857722 g / cm^3
# Si number density = 18.619597 Si / 1000 Ang^3
#
#
#
# Elastic Constant Matrix: (Units=GPa)
#
#
# Indices 1 2 3 4 5 6 
#
# 1 94.3926 30.8006 15.7159 0.0000 0.0000 0.0000
# 2 30.8006 144.7677 53.2861 0.0000 0.0000 0.0000
# 3 15.7159 53.2861 93.8263 0.0000 0.0000 0.0000
# 4 0.0000 0.0000 0.0000 -28.8886 0.0000 0.0000
# 5 0.0000 0.0000 0.0000 0.0000 6.8744 0.0000
# 6 0.0000 0.0000 0.0000 0.0000 0.0000 28.7368
#
#
#
# Elastic Compliance Matrix: (Units=1/GPa)
#
#
# Indices 1 2 3 4 5 6 
#
# 1 0.011418 -0.002181 -0.000674 0.000000 0.000000 0.000000
# 2 -0.002181 0.009150 -0.004831 0.000000 0.000000 0.000000
# 3 -0.000674 -0.004831 0.013515 0.000000 0.000000 0.000000
# 4 0.000000 0.000000 0.000000 -0.034616 0.000000 0.000000
# 5 0.000000 0.000000 0.000000 0.000000 0.145468 0.000000
# 6 0.000000 0.000000 0.000000 0.000000 0.000000 0.034799
#
#
# Mechanical properties :
#
#
# Convention : Reuss Voigt Hill
#
# Bulk Modulus (GPa) = 53.44661 59.17688 56.31174
# Shear Modulus (GPa) = 24.83333 16.89011 20.86172
#
# Velocity S-wave (km/s) = 3.65598 3.01510 3.35089
# Velocity P-wave (km/s) = 6.82557 6.63115 6.72906
#
# Compressibility (1/GPa) = 0.01871026
#
# Stress axis : x y z
#
# Youngs Moduli (GPa) = 87.58110 109.29033 73.99447
#
# Poissons Ratio (x) = 0.23840 0.04985
# Poissons Ratio (y) = 0.19104 0.35747
# Poissons Ratio (z) = 0.05900 0.52799
#
# Static dielectric constant tensor:
#      x y z
#    x 1.655970 0.000000 0.000000 
#    y 0.000000 1.631510 0.000000 
#    z 0.000000 0.000000 1.719230 
# 
# From -- ./inp_files/53993.got.cif
#   From: 2010.05.17/outbox.cif.g08.bks.cpg/sg66_27_cif.got.tgz:53993.got - 2010.06.03 17:51:23.
