data_PCOD9497223
_publ_section_title
;
Structure prediction by ZEFSAII (Michael W. Deem and Ramdas Pophale) SiO2 
 PCOD9497223
Probable space group: C C C M
;
_chemical_formula_sum "Si O2"
_cell_formula_units_Z 92
_cell_length_a 23.014833
_cell_length_b 23.918777
_cell_length_c 9.312817
_cell_angle_alpha 90.000000
_cell_angle_beta 90.000000
_cell_angle_gamma 90.000000
_cell_volume 5126.581509
_symmetry_space_group_name_H-M "C C C M"
_symmetry_group_IT_number 66
_symmetry_cell_setting 'orthorhombic'
loop_
_space_group_symop_operation_xyz
x,y,z
-x,-y,z
x,-y,1/2-z
-x,y,1/2-z
-x,-y,-z
x,y,-z
-x,y,1/2+z
x,-y,1/2+z
1/2+x,1/2+y,z
1/2-x,1/2-y,z
1/2+x,1/2-y,1/2-z
1/2-x,1/2+y,1/2-z
1/2-x,1/2-y,-z
1/2+x,1/2+y,-z
1/2-x,1/2+y,1/2+z
1/2+x,1/2-y,1/2+z
loop_
_atom_site_type_symbol
_atom_site_label
_atom_site_fract_x
_atom_site_fract_y
_atom_site_fract_z
Si Si1 0.055791 0.940917 0.829694
Si Si2 0.317859 0.747074 0.671816
Si Si3 0.123771 0.365243 0.172361
Si Si4 0.000000 0.589579 0.750000
Si Si5 0.718340 0.940116 0.673712
Si Si6 0.331266 0.634686 0.831963
Si Si7 0.500000 0.000000 0.000000
O O1 0.113375 0.904863 0.813257
O O2 0.000000 0.914848 0.750000
O O3 0.064510 0.000000 0.750000
O O4 0.044925 0.948333 0.000000
O O5 0.320553 0.741894 0.500000
O O6 0.250000 0.750000 0.713790
O O7 0.351626 0.803839 0.710296
O O8 0.340373 0.690869 0.743590
O O9 0.056519 0.374085 0.210238
O O10 0.161891 0.410478 0.258808
O O11 0.131420 0.373703 0.000000
O O12 0.013626 0.547584 0.878367
O O13 0.714227 0.946099 0.500000
O O14 0.773249 0.899890 0.707735
O O15 0.726207 0.000000 0.750000
O O16 0.325636 0.648999 0.000000
#
# Coordination Sequence:
#
# PCOD9497223 Si02
#       7
#    16  16  16   8  16  16   4
#     4  10  20  36  59  87 119 154 195 239 297 358
#     4  10  21  40  64  88 116 158 199 245 297 355
#     4  11  24  42  63  89 123 159 208 250 305 364
#     4  11  24  42  62  92 122 160 205 258 304 370
#     4  11  24  37  59  90 123 157 196 245 302 361
#     4  10  22  40  59  87 120 156 199 246 297 357
#     4  10  24  42  68  86 120 166 204 246 320 370
#
# _framework density 17.945682000000001
#
# number of rings (size 3 to 8) (size 9 to 14) (size 15 to 20)
#    0.000    1.565    2.609    2.087    3.652    3.130 
#    1.565    0.000    0.000    0.000    0.000    0.000 
#    0.000    0.000    0.000    0.000    0.000    0.000 
#
# Total GULP energy -256217.013597 kJ/mol
# GULP energy per Si atom -5569.935078 kJ/mol
# Density = 1.790484 g / cm^3
# Si number density = 17.945682 Si / 1000 Ang^3
#
#
#
# Elastic Constant Matrix: (Units=GPa)
#
#
# Indices 1 2 3 4 5 6 
#
# 1 95.8056 37.0797 28.5579 0.0000 0.0000 0.0000
# 2 37.0797 108.6726 43.2159 0.0000 0.0000 0.0000
# 3 28.5579 43.2159 89.8652 0.0000 0.0000 0.0000
# 4 0.0000 0.0000 0.0000 50.6204 0.0000 0.0000
# 5 0.0000 0.0000 0.0000 0.0000 38.0185 0.0000
# 6 0.0000 0.0000 0.0000 0.0000 0.0000 15.0384
#
#
#
# Elastic Compliance Matrix: (Units=1/GPa)
#
#
# Indices 1 2 3 4 5 6 
#
# 1 0.012418 -0.003299 -0.002360 0.000000 0.000000 0.000000
# 2 -0.003299 0.012254 -0.004845 0.000000 0.000000 0.000000
# 3 -0.002360 -0.004845 0.014208 0.000000 0.000000 0.000000
# 4 0.000000 0.000000 0.000000 0.019755 0.000000 0.000000
# 5 0.000000 0.000000 0.000000 0.000000 0.026303 0.000000
# 6 0.000000 0.000000 0.000000 0.000000 0.000000 0.066497
#
#
# Mechanical properties :
#
#
# Convention : Reuss Voigt Hill
#
# Bulk Modulus (GPa) = 55.95022 56.89449 56.42236
# Shear Modulus (GPa) = 28.02720 33.10144 30.56432
#
# Velocity S-wave (km/s) = 3.95622 4.29946 4.13141
# Velocity P-wave (km/s) = 7.21901 7.51131 7.36661
#
# Compressibility (1/GPa) = 0.01787303
#
# Stress axis : x y z
#
# Youngs Moduli (GPa) = 80.52886 81.60577 70.38517
#
# Poissons Ratio (x) = 0.26918 0.16611
# Poissons Ratio (y) = 0.26563 0.34099
# Poissons Ratio (z) = 0.19005 0.39535
#
# Static dielectric constant tensor:
#      x y z
#    x 1.629110 0.000000 0.000000 
#    y 0.000000 1.596300 0.000000 
#    z 0.000000 0.000000 1.605080 
# 
# From -- ./inp_files/9161.got.cif
#   From: 2010.05.17/outbox.cif.g08.bks.cpg/sg66_5_cif.got.tgz:9161.got - 2010.06.03 17:51:23.
