data_PCOD9497412
_publ_section_title
;
Structure prediction by ZEFSAII (Michael W. Deem and Ramdas Pophale) SiO2 
 PCOD9497412
Probable space group: C C C M
;
_chemical_formula_sum "Si O2"
_cell_formula_units_Z 112
_cell_length_a 17.582090
_cell_length_b 15.110806
_cell_length_c 22.384198
_cell_angle_alpha 90.000000
_cell_angle_beta 90.000000
_cell_angle_gamma 90.000000
_cell_volume 5947.023676
_symmetry_space_group_name_H-M "C C C M"
_symmetry_group_IT_number 66
_symmetry_cell_setting 'orthorhombic'
loop_
_space_group_symop_operation_xyz
x,y,z
-x,-y,z
x,-y,1/2-z
-x,y,1/2-z
-x,-y,-z
x,y,-z
-x,y,1/2+z
x,-y,1/2+z
1/2+x,1/2+y,z
1/2-x,1/2-y,z
1/2+x,1/2-y,1/2-z
1/2-x,1/2+y,1/2-z
1/2-x,1/2-y,-z
1/2+x,1/2+y,-z
1/2-x,1/2+y,1/2+z
1/2+x,1/2-y,1/2+z
loop_
_atom_site_type_symbol
_atom_site_label
_atom_site_fract_x
_atom_site_fract_y
_atom_site_fract_z
Si Si1 0.417686 0.479053 0.569712
Si Si2 0.753548 0.024042 0.571650
Si Si3 0.053536 0.236923 0.805677
Si Si4 0.703970 0.162900 0.666025
Si Si5 0.404263 0.696333 0.869531
Si Si6 0.665959 0.605422 0.252136
Si Si7 0.311756 0.171175 0.567173
O O1 0.500000 0.500000 0.597635
O O2 0.421776 0.501482 0.500000
O O3 0.342048 0.527997 0.591831
O O4 0.401099 0.375027 0.577534
O O5 0.748401 0.042179 0.500000
O O6 0.708883 0.090053 0.614428
O O7 0.724283 0.923730 0.580676
O O8 0.117908 0.308833 0.819923
O O9 0.101527 0.149873 0.788896
O O10 0.000000 0.263598 0.750000
O O11 0.992324 0.210781 0.854783
O O12 0.750000 0.250000 0.644852
O O13 0.751981 0.132435 0.724784
O O14 0.356010 0.650001 0.815898
O O15 0.371222 0.791652 0.885676
O O16 0.660008 0.500000 0.250000
O O17 0.344107 0.165953 0.500000
O O18 0.250000 0.250000 0.566884
#
# Coordination Sequence:
#
# PCOD9497412 Si02
#       7
#    16  16  16  16  16  16  16
#     4  10  21  34  55  91 128 151 188 246 311 374
#     4  10  21  40  64  90 119 160 206 252 303 356
#     4   9  22  40  57  82 123 155 193 251 298 359
#     4  10  22  42  61  85 125 158 207 248 289 367
#     4  11  21  34  62  84 120 158 195 242 317 353
#     4  10  22  38  60  89 114 157 202 247 300 363
#     4  10  20  37  61  90 119 149 200 257 299 356
#
# _framework density 18.83295
#
# number of rings (size 3 to 8) (size 9 to 14) (size 15 to 20)
#    0.000    2.000    1.429    1.286    6.000    5.143 
#    0.000    2.143    0.000    1.714    0.000    0.000 
#    0.000    0.000    0.000    0.000    0.000    0.000 
#
# Total GULP energy -312206.605372 kJ/mol
# GULP energy per Si atom -5575.117953 kJ/mol
# Density = 1.879009 g / cm^3
# Si number density = 18.832950 Si / 1000 Ang^3
#
#
#
# Elastic Constant Matrix: (Units=GPa)
#
#
# Indices 1 2 3 4 5 6 
#
# 1 94.1228 54.4735 41.0521 0.0000 0.0000 0.0000
# 2 54.4735 122.1482 49.1923 0.0000 0.0000 0.0000
# 3 41.0521 49.1923 36.6674 0.0000 0.0000 0.0000
# 4 0.0000 0.0000 0.0000 29.0201 0.0000 0.0000
# 5 0.0000 0.0000 0.0000 0.0000 20.0858 0.0000
# 6 0.0000 0.0000 0.0000 0.0000 0.0000 15.5569
#
#
#
# Elastic Compliance Matrix: (Units=1/GPa)
#
#
# Indices 1 2 3 4 5 6 
#
# 1 0.020766 0.000222 -0.023548 0.000000 0.000000 0.000000
# 2 0.000222 0.017811 -0.024144 0.000000 0.000000 0.000000
# 3 -0.023548 -0.024144 0.086026 0.000000 0.000000 0.000000
# 4 0.000000 0.000000 0.000000 0.034459 0.000000 0.000000
# 5 0.000000 0.000000 0.000000 0.000000 0.049786 0.000000
# 6 0.000000 0.000000 0.000000 0.000000 0.000000 0.064280
#
#
# Mechanical properties :
#
#
# Convention : Reuss Voigt Hill
#
# Bulk Modulus (GPa) = 33.70930 60.26379 46.98655
# Shear Modulus (GPa) = 13.22908 20.14728 16.68818
#
# Velocity S-wave (km/s) = 2.65324 3.27431 2.98000
# Velocity P-wave (km/s) = 5.22726 6.80907 6.06991
#
# Compressibility (1/GPa) = 0.02966541
#
# Stress axis : x y z
#
# Youngs Moduli (GPa) = 48.15525 56.14535 11.62434
#
# Poissons Ratio (x) = -0.01248 0.27373
# Poissons Ratio (y) = -0.01071 0.28065
# Poissons Ratio (z) = 1.13394 1.35556
#
# Static dielectric constant tensor:
#      x y z
#    x 1.684190 0.000000 0.000000 
#    y 0.000000 1.631920 0.000000 
#    z 0.000000 0.000000 1.713930 
# 
# From -- ./inp_files/58236.got.cif
#   From: 2010.05.17/outbox.cif.g08.bks.cpg/sg66_30_cif.got.tgz:58236.got - 2010.06.03 17:51:23.
