data_PCOD9497720
_publ_section_title
;
Structure prediction by ZEFSAII (Michael W. Deem and Ramdas Pophale) SiO2 
 PCOD9497720
Probable space group: C C C M
;
_chemical_formula_sum "Si O2"
_cell_formula_units_Z 80
_cell_length_a 11.252967
_cell_length_b 23.336568
_cell_length_c 14.919768
_cell_angle_alpha 90.000000
_cell_angle_beta 90.000000
_cell_angle_gamma 90.000000
_cell_volume 3918.015069
_symmetry_space_group_name_H-M "C C C M"
_symmetry_group_IT_number 66
_symmetry_cell_setting 'orthorhombic'
loop_
_space_group_symop_operation_xyz
x,y,z
-x,-y,z
x,-y,1/2-z
-x,y,1/2-z
-x,-y,-z
x,y,-z
-x,y,1/2+z
x,-y,1/2+z
1/2+x,1/2+y,z
1/2-x,1/2-y,z
1/2+x,1/2-y,1/2-z
1/2-x,1/2+y,1/2-z
1/2-x,1/2-y,-z
1/2+x,1/2+y,-z
1/2-x,1/2+y,1/2+z
1/2+x,1/2-y,1/2+z
loop_
_atom_site_type_symbol
_atom_site_label
_atom_site_fract_x
_atom_site_fract_y
_atom_site_fract_z
Si Si1 0.012173 0.069460 0.500000
Si Si2 0.837847 0.474267 0.344114
Si Si3 0.112258 0.770383 0.694044
Si Si4 0.385916 0.769261 0.500000
Si Si5 0.602170 0.403879 0.686513
Si Si6 0.038927 0.400412 0.000000
Si Si7 0.281497 0.063467 0.500000
O O1 0.149516 0.087661 0.500000
O O2 0.947184 0.092669 0.586666
O O3 0.000000 0.000000 0.500000
O O4 0.882483 0.500000 0.250000
O O5 0.725633 0.436636 0.313912
O O6 0.921196 0.435985 0.410598
O O7 0.793864 0.523855 0.411664
O O8 0.250000 0.750000 0.706967
O O9 0.070713 0.757051 0.592692
O O10 0.119910 0.838028 0.712147
O O11 0.000000 0.746244 0.750000
O O12 0.250000 0.750000 0.500000
O O13 0.401864 0.837922 0.500000
O O14 0.500000 0.429340 0.750000
O O15 0.896348 0.395993 0.000000
#
# Coordination Sequence:
#
# PCOD9497720 Si02
#       7
#     8  16  16   8  16   8   8
#     4  12  21  40  64  88 129 177 210 264 322 376
#     4  11  21  38  63  88 130 178 211 261 319 384
#     4  10  22  44  70  98 130 166 221 285 340 402
#     4  10  20  44  73  89 125 174 229 274 332 407
#     4  11  23  38  67  98 124 162 229 271 318 401
#     4  11  25  43  59  98 128 171 235 263 318 420
#     4  11  24  39  56  88 138 163 216 267 314 391
#
# _framework density 20.418503000000001
#
# number of rings (size 3 to 8) (size 9 to 14) (size 15 to 20)
#    0.000    1.200    2.000    6.000    0.000    1.600 
#   14.400    0.500    0.000    0.000    0.000    0.000 
#    0.000    0.000    0.000    0.000    0.000    0.000 
#
# Total GULP energy -223268.975035 kJ/mol
# GULP energy per Si atom -5581.724376 kJ/mol
# Density = 2.037203 g / cm^3
# Si number density = 20.418503 Si / 1000 Ang^3
#
#
#
# Elastic Constant Matrix: (Units=GPa)
#
#
# Indices 1 2 3 4 5 6 
#
# 1 159.5338 34.8660 44.3963 0.0000 0.0000 0.0000
# 2 34.8660 60.0747 -3.6979 0.0000 0.0000 0.0000
# 3 44.3963 -3.6979 129.4349 0.0000 0.0000 0.0000
# 4 0.0000 0.0000 0.0000 20.9182 0.0000 0.0000
# 5 0.0000 0.0000 0.0000 0.0000-1925.5202 0.0000
# 6 0.0000 0.0000 0.0000 0.0000 0.0000 -43.8830
#
#
#
# Elastic Compliance Matrix: (Units=1/GPa)
#
#
# Indices 1 2 3 4 5 6 
#
# 1 0.008161 -0.004917 -0.002940 0.000000 0.000000 0.000000
# 2 -0.004917 0.019638 0.002248 0.000000 0.000000 0.000000
# 3 -0.002940 0.002248 0.008798 0.000000 0.000000 0.000000
# 4 0.000000 0.000000 0.000000 0.047805 0.000000 0.000000
# 5 0.000000 0.000000 0.000000 0.000000 -0.000519 0.000000
# 6 0.000000 0.000000 0.000000 0.000000 0.000000 -0.022788
#
#
# Mechanical properties :
#
#
# Convention : Reuss Voigt Hill
#
# Bulk Modulus (GPa) = 39.40280 55.57469 47.48874
# Shear Modulus (GPa) = 61.90074 -371.46507 -154.78216
#
# Velocity S-wave (km/s) = 5.51197 -13.50262 -8.71604
# Velocity P-wave (km/s) = 7.73619 14.69072 8.83088
#
# Compressibility (1/GPa) = 0.02537891
#
# Stress axis : x y z
#
# Youngs Moduli (GPa) = 122.53303 50.92092 113.65649
#
# Poissons Ratio (x) = 0.25040 0.33412
# Poissons Ratio (y) = 0.60255 -0.25547
# Poissons Ratio (z) = 0.36022 -0.11446
#
# Static dielectric constant tensor:
#      x y z
#    x 1.732730 0.000000 0.000000 
#    y 0.000000 1.735950 0.000000 
#    z 0.000000 0.000000 1.750090 
# 
# From -- ./inp_files/26486.got.cif
#   From: 2010.05.17/outbox.cif.g08.bks.cpg/sg66_14_cif.got.tgz:26486.got - 2010.06.03 17:51:23.
