data_PCOD9497231
_publ_section_title
;
Structure prediction by ZEFSAII (Michael W. Deem and Ramdas Pophale) SiO2 
 PCOD9497231
Probable space group: C C C M
;
_chemical_formula_sum "Si O2"
_cell_formula_units_Z 104
_cell_length_a 28.317615
_cell_length_b 8.467256
_cell_length_c 20.785757
_cell_angle_alpha 90.000000
_cell_angle_beta 90.000000
_cell_angle_gamma 90.000000
_cell_volume 4983.852827
_symmetry_space_group_name_H-M "C C C M"
_symmetry_group_IT_number 66
_symmetry_cell_setting 'orthorhombic'
loop_
_space_group_symop_operation_xyz
x,y,z
-x,-y,z
x,-y,1/2-z
-x,y,1/2-z
-x,-y,-z
x,y,-z
-x,y,1/2+z
x,-y,1/2+z
1/2+x,1/2+y,z
1/2-x,1/2-y,z
1/2+x,1/2-y,1/2-z
1/2-x,1/2+y,1/2-z
1/2-x,1/2-y,-z
1/2+x,1/2+y,-z
1/2-x,1/2+y,1/2+z
1/2+x,1/2-y,1/2+z
loop_
_atom_site_type_symbol
_atom_site_label
_atom_site_fract_x
_atom_site_fract_y
_atom_site_fract_z
Si Si1 0.038141 0.359930 0.429179
Si Si2 0.750000 0.750000 0.359193
Si Si3 0.616800 0.106174 0.572658
Si Si4 0.225708 0.410762 0.886717
Si Si5 0.096231 0.827284 0.688650
Si Si6 0.543192 0.624179 0.314739
Si Si7 0.317126 0.832419 0.744951
O O1 0.033227 0.284689 0.500000
O O2 0.089357 0.441111 0.424422
O O3 0.032421 0.244609 0.370245
O O4 0.000000 0.500000 0.426066
O O5 0.749639 0.581679 0.396476
O O6 0.705721 0.771903 0.310493
O O7 0.610762 0.168255 0.500000
O O8 0.672089 0.084987 0.587700
O O9 0.593354 0.218000 0.626230
O O10 0.250000 0.250000 0.911870
O O11 0.220903 0.384371 0.809204
O O12 0.059372 0.794839 0.747489
O O13 0.148165 0.796172 0.716053
O O14 0.087179 0.008438 0.670581
O O15 0.500000 0.500000 0.313086
O O16 0.345224 0.000000 0.750000
#
# Coordination Sequence:
#
# PCOD9497231 Si02
#       7
#    16   8  16  16  16  16  16
#     4  10  23  44  69  92 125 175 222 264 316 391
#     4  10  20  36  59  88 131 170 214 270 338 390
#     4  10  23  44  65  92 126 169 231 276 325 410
#     4  10  21  37  60  92 129 170 221 277 333 396
#     4  10  22  38  61  90 130 165 204 264 335 380
#     4  11  24  40  59  98 136 160 208 266 325 399
#     4   9  19  34  54  87 123 167 211 259 322 398
#
# _framework density 20.867391000000001
#
# number of rings (size 3 to 8) (size 9 to 14) (size 15 to 20)
#    0.000    2.000    0.769    1.846    6.462    6.154 
#    0.000    1.154    0.000    1.385    0.000    0.000 
#    0.000    0.000    0.000    0.000    0.000    0.000 
#
# Total GULP energy -289877.115019 kJ/mol
# GULP energy per Si atom -5574.559904 kJ/mol
# Density = 2.081990 g / cm^3
# Si number density = 20.867391 Si / 1000 Ang^3
#
#
#
# Elastic Constant Matrix: (Units=GPa)
#
#
# Indices 1 2 3 4 5 6 
#
# 1 73.1989 47.3762 17.9608 0.0000 0.0000 0.0000
# 2 47.3762 116.0351 60.3031 0.0000 0.0000 0.0000
# 3 17.9608 60.3031 144.1557 0.0000 0.0000 0.0000
# 4 0.0000 0.0000 0.0000 47.5177 0.0000 0.0000
# 5 0.0000 0.0000 0.0000 0.0000 14.9750 0.0000
# 6 0.0000 0.0000 0.0000 0.0000 0.0000 35.4302
#
#
#
# Elastic Compliance Matrix: (Units=1/GPa)
#
#
# Indices 1 2 3 4 5 6 
#
# 1 0.018705 -0.008211 0.001104 0.000000 0.000000 0.000000
# 2 -0.008211 0.014616 -0.005091 0.000000 0.000000 0.000000
# 3 0.001104 -0.005091 0.008929 0.000000 0.000000 0.000000
# 4 0.000000 0.000000 0.000000 0.021045 0.000000 0.000000
# 5 0.000000 0.000000 0.000000 0.000000 0.066778 0.000000
# 6 0.000000 0.000000 0.000000 0.000000 0.000000 0.028225
#
#
# Mechanical properties :
#
#
# Convention : Reuss Voigt Hill
#
# Bulk Modulus (GPa) = 56.00826 64.96331 60.48579
# Shear Modulus (GPa) = 26.50484 33.43456 29.96970
#
# Velocity S-wave (km/s) = 3.56779 4.00714 3.79383
# Velocity P-wave (km/s) = 6.62348 7.25318 6.94547
#
# Compressibility (1/GPa) = 0.01785451
#
# Stress axis : x y z
#
# Youngs Moduli (GPa) = 53.46238 68.41597 111.99267
#
# Poissons Ratio (x) = 0.56176 -0.12367
# Poissons Ratio (y) = 0.43897 0.57019
# Poissons Ratio (z) = -0.05904 0.34833
#
# Static dielectric constant tensor:
#      x y z
#    x 1.810370 0.000000 0.000000 
#    y 0.000000 1.797080 0.000000 
#    z 0.000000 0.000000 1.774520 
# 
# From -- ./inp_files/53313.got.cif
#   From: 2010.05.17/outbox.cif.g08.bks.cpg/sg66_27_cif.got.tgz:53313.got - 2010.06.03 17:51:23.
