data_PCOD9497050
_publ_section_title
;
Structure prediction by ZEFSAII (Michael W. Deem and Ramdas Pophale) SiO2 
 PCOD9497050
Probable space group: C C C M
;
_chemical_formula_sum "Si O2"
_cell_formula_units_Z 56
_cell_length_a 23.301960
_cell_length_b 7.071694
_cell_length_c 13.814280
_cell_angle_alpha 90.000000
_cell_angle_beta 90.000000
_cell_angle_gamma 90.000000
_cell_volume 2276.376884
_symmetry_space_group_name_H-M "C C C M"
_symmetry_group_IT_number 66
_symmetry_cell_setting 'orthorhombic'
loop_
_space_group_symop_operation_xyz
x,y,z
-x,-y,z
x,-y,1/2-z
-x,y,1/2-z
-x,-y,-z
x,y,-z
-x,y,1/2+z
x,-y,1/2+z
1/2+x,1/2+y,z
1/2-x,1/2-y,z
1/2+x,1/2-y,1/2-z
1/2-x,1/2+y,1/2-z
1/2-x,1/2-y,-z
1/2+x,1/2+y,-z
1/2-x,1/2+y,1/2+z
1/2+x,1/2-y,1/2+z
loop_
_atom_site_type_symbol
_atom_site_label
_atom_site_fract_x
_atom_site_fract_y
_atom_site_fract_z
Si Si1 0.336424 0.130522 0.106552
Si Si2 0.433876 0.771268 0.736088
Si Si3 0.251221 0.500000 0.750000
Si Si4 0.654505 0.673890 0.609802
O O1 0.395282 0.234933 0.138199
O O2 0.293864 0.144179 0.197370
O O3 0.340219 0.902139 0.101430
O O4 0.317572 0.192548 0.000000
O O5 0.500000 0.718659 0.750000
O O6 0.399747 0.661049 0.819553
O O7 0.432435 0.000000 0.750000
O O8 0.291507 0.424726 0.662504
O O9 0.647870 0.605703 0.500000
#
# Coordination Sequence:
#
# PCOD9497050 Si02
#       4
#    16  16   8  16
#     4  10  20  35  57  84 113 145 180 226 281 327
#     4   9  18  36  59  85 113 138 183 235 274 317
#     4  12  20  34  54  80 116 144 186 224 258 338
#     4  10  21  37  58  81 110 152 185 218 276 334
#
# _framework density 24.600494000000001
#
# number of rings (size 3 to 8) (size 9 to 14) (size 15 to 20)
#    0.000    2.000    4.286    1.714    0.000    3.429 
#    0.000   10.714    0.000    1.714    0.000    0.000 
#    0.000    0.000    0.000    0.000    0.000    0.000 
#
# Total GULP energy -156300.860612 kJ/mol
# GULP energy per Si atom -5582.173593 kJ/mol
# Density = 2.454450 g / cm^3
# Si number density = 24.600494 Si / 1000 Ang^3
#
#
#
# Elastic Constant Matrix: (Units=GPa)
#
#
# Indices 1 2 3 4 5 6 
#
# 1 182.8452 10.0722 85.8887 0.0000 0.0000 0.0000
# 2 10.0722 106.5374 18.2592 0.0000 0.0000 0.0000
# 3 85.8887 18.2592 226.8913 0.0000 0.0000 0.0000
# 4 0.0000 0.0000 0.0000 24.5205 0.0000 0.0000
# 5 0.0000 0.0000 0.0000 0.0000 12.1235 0.0000
# 6 0.0000 0.0000 0.0000 0.0000 0.0000 16.9409
#
#
#
# Elastic Compliance Matrix: (Units=1/GPa)
#
#
# Indices 1 2 3 4 5 6 
#
# 1 0.006656 -0.000200 -0.002504 0.000000 0.000000 0.000000
# 2 -0.000200 0.009524 -0.000691 0.000000 0.000000 0.000000
# 3 -0.002504 -0.000691 0.005411 0.000000 0.000000 0.000000
# 4 0.000000 0.000000 0.000000 0.040782 0.000000 0.000000
# 5 0.000000 0.000000 0.000000 0.000000 0.082485 0.000000
# 6 0.000000 0.000000 0.000000 0.000000 0.000000 0.059029
#
#
# Mechanical properties :
#
#
# Convention : Reuss Voigt Hill
#
# Bulk Modulus (GPa) = 67.55969 82.74602 75.15285
# Shear Modulus (GPa) = 23.19017 37.52056 30.35536
#
# Velocity S-wave (km/s) = 3.07363 3.90961 3.51655
# Velocity P-wave (km/s) = 6.33392 7.35452 6.86322
#
# Compressibility (1/GPa) = 0.01480173
#
# Stress axis : x y z
#
# Youngs Moduli (GPa) = 150.23739 105.00151 184.81971
#
# Poissons Ratio (x) = 0.02102 0.46270
# Poissons Ratio (y) = 0.03008 0.12764
# Poissons Ratio (z) = 0.37612 0.07252
#
# Static dielectric constant tensor:
#      x y z
#    x 1.948480 0.000000 0.000000 
#    y 0.000000 2.219790 0.000000 
#    z 0.000000 0.000000 1.926280 
# 
# From -- ./inp_files/23878.got.cif
#   From: 2010.05.17/outbox.cif.g08.bks.cpg/sg66_12_cif.got.tgz:23878.got - 2010.06.03 17:51:23.
