data_PCOD9497445
_publ_section_title
;
Structure prediction by ZEFSAII (Michael W. Deem and Ramdas Pophale) SiO2 
 PCOD9497445
Probable space group: C C C M
;
_chemical_formula_sum "Si O2"
_cell_formula_units_Z 112
_cell_length_a 20.918551
_cell_length_b 16.485917
_cell_length_c 15.500065
_cell_angle_alpha 90.000000
_cell_angle_beta 90.000000
_cell_angle_gamma 90.000000
_cell_volume 5345.375597
_symmetry_space_group_name_H-M "C C C M"
_symmetry_group_IT_number 66
_symmetry_cell_setting 'orthorhombic'
loop_
_space_group_symop_operation_xyz
x,y,z
-x,-y,z
x,-y,1/2-z
-x,y,1/2-z
-x,-y,-z
x,y,-z
-x,y,1/2+z
x,-y,1/2+z
1/2+x,1/2+y,z
1/2-x,1/2-y,z
1/2+x,1/2-y,1/2-z
1/2-x,1/2+y,1/2-z
1/2-x,1/2-y,-z
1/2+x,1/2+y,-z
1/2-x,1/2+y,1/2+z
1/2+x,1/2-y,1/2+z
loop_
_atom_site_type_symbol
_atom_site_label
_atom_site_fract_x
_atom_site_fract_y
_atom_site_fract_z
Si Si1 0.795307 0.053728 0.100669
Si Si2 0.136394 0.167887 0.265832
Si Si3 0.408234 0.204912 0.400777
Si Si4 0.210657 0.139942 0.903756
Si Si5 0.138375 0.365318 0.091999
Si Si6 0.350914 0.039655 0.654253
Si Si7 0.462591 0.757184 0.326836
O O1 0.841456 0.093702 0.172655
O O2 0.721367 0.067464 0.129604
O O3 0.803518 0.956357 0.100483
O O4 0.804434 0.080701 0.000000
O O5 0.132925 0.240313 0.335252
O O6 0.183659 0.175105 0.184730
O O7 0.067982 0.175127 0.214433
O O8 0.386680 0.208168 0.500000
O O9 0.398263 0.113231 0.366695
O O10 0.480856 0.241542 0.396478
O O11 0.213411 0.349353 0.901557
O O12 0.188377 0.168231 0.000000
O O13 0.131061 0.461296 0.098534
O O14 0.096937 0.314110 0.156062
O O15 0.114258 0.337079 0.000000
O O16 0.350054 0.000000 0.750000
O O17 0.500000 0.799366 0.250000
#
# Coordination Sequence:
#
# PCOD9497445 Si02
#       7
#    16  16  16  16  16  16  16
#     4  10  20  37  62  94 124 153 191 244 309 378
#     4  11  22  38  59  87 122 162 198 246 309 368
#     4  11  24  41  59  86 122 166 215 258 299 356
#     4   9  20  37  62  94 122 149 192 246 310 381
#     4  10  20  38  60  85 116 151 191 242 295 350
#     4  11  21  37  61  89 124 160 197 244 299 360
#     4  10  23  39  56  81 114 158 208 248 292 349
#
# _framework density 20.952691000000002
#
# number of rings (size 3 to 8) (size 9 to 14) (size 15 to 20)
#    0.000    1.714    0.000    6.857    0.000    4.000 
#    0.000    7.143    0.000   15.429    0.000   22.000 
#    0.000    0.000    0.000    0.000    0.000    0.000 
#
# Total GULP energy -311890.232222 kJ/mol
# GULP energy per Si atom -5569.468433 kJ/mol
# Density = 2.090500 g / cm^3
# Si number density = 20.952691 Si / 1000 Ang^3
#
#
#
# Elastic Constant Matrix: (Units=GPa)
#
#
# Indices 1 2 3 4 5 6 
#
# 1 63.3308 42.1396 49.4777 0.0000 0.0000 0.0000
# 2 42.1396 69.0276 44.9398 0.0000 0.0000 0.0000
# 3 49.4777 44.9398 173.4844 0.0000 0.0000 0.0000
# 4 0.0000 0.0000 0.0000 75.5775 0.0000 0.0000
# 5 0.0000 0.0000 0.0000 0.0000 37.3454 0.0000
# 6 0.0000 0.0000 0.0000 0.0000 0.0000 19.3196
#
#
#
# Elastic Compliance Matrix: (Units=1/GPa)
#
#
# Indices 1 2 3 4 5 6 
#
# 1 0.029208 -0.014925 -0.004464 0.000000 0.000000 0.000000
# 2 -0.014925 0.025052 -0.002233 0.000000 0.000000 0.000000
# 3 -0.004464 -0.002233 0.007616 0.000000 0.000000 0.000000
# 4 0.000000 0.000000 0.000000 0.013231 0.000000 0.000000
# 5 0.000000 0.000000 0.000000 0.000000 0.026777 0.000000
# 6 0.000000 0.000000 0.000000 0.000000 0.000000 0.051761
#
#
# Mechanical properties :
#
#
# Convention : Reuss Voigt Hill
#
# Bulk Modulus (GPa) = 53.66953 64.32856 58.99904
# Shear Modulus (GPa) = 24.61845 37.73423 31.17634
#
# Velocity S-wave (km/s) = 3.43148 4.24833 3.86157
# Velocity P-wave (km/s) = 6.43197 7.40493 6.93553
#
# Compressibility (1/GPa) = 0.01863255
#
# Stress axis : x y z
#
# Youngs Moduli (GPa) = 34.23670 39.91725 131.30585
#
# Poissons Ratio (x) = 0.59575 0.58617
# Poissons Ratio (y) = 0.51097 0.29320
# Poissons Ratio (z) = 0.15284 0.08913
#
# Static dielectric constant tensor:
#      x y z
#    x 1.803660 0.000000 0.000000 
#    y 0.000000 1.767700 0.000000 
#    z 0.000000 0.000000 1.887900 
# 
# From -- ./inp_files/32498.got.cif
#   From: 2010.05.17/outbox.cif.g08.bks.cpg/sg66_17_cif.got.tgz:32498.got - 2010.06.03 17:51:23.
