data_PCOD9497836
_publ_section_title
;
Structure prediction by ZEFSAII (Michael W. Deem and Ramdas Pophale) SiO2 
 PCOD9497836
Probable space group: C C C M
;
_chemical_formula_sum "Si O2"
_cell_formula_units_Z 104
_cell_length_a 21.946284
_cell_length_b 12.248792
_cell_length_c 16.124633
_cell_angle_alpha 90.000000
_cell_angle_beta 90.000000
_cell_angle_gamma 90.000000
_cell_volume 4334.550764
_symmetry_space_group_name_H-M "C C C M"
_symmetry_group_IT_number 66
_symmetry_cell_setting 'orthorhombic'
loop_
_space_group_symop_operation_xyz
x,y,z
-x,-y,z
x,-y,1/2-z
-x,y,1/2-z
-x,-y,-z
x,y,-z
-x,y,1/2+z
x,-y,1/2+z
1/2+x,1/2+y,z
1/2-x,1/2-y,z
1/2+x,1/2-y,1/2-z
1/2-x,1/2+y,1/2-z
1/2-x,1/2-y,-z
1/2+x,1/2+y,-z
1/2-x,1/2+y,1/2+z
1/2+x,1/2-y,1/2+z
loop_
_atom_site_type_symbol
_atom_site_label
_atom_site_fract_x
_atom_site_fract_y
_atom_site_fract_z
Si Si1 0.596218 0.557432 0.597696
Si Si2 0.627717 0.809675 0.138167
Si Si3 0.767894 0.994974 0.398547
Si Si4 0.337175 0.112791 0.301986
Si Si5 0.565928 0.967674 0.595056
Si Si6 0.020326 0.832763 0.401770
Si Si7 0.250000 0.250000 0.883883
O O1 0.602291 0.584235 0.500000
O O2 0.664549 0.542283 0.628539
O O3 0.546553 0.641650 0.632789
O O4 0.560744 0.442614 0.602460
O O5 0.660044 0.799920 0.228776
O O6 0.611019 0.928213 0.101749
O O7 0.562011 0.755244 0.141762
O O8 0.680013 0.754314 0.083920
O O9 0.763741 0.000031 0.500000
O O10 0.753146 0.116397 0.363059
O O11 0.720450 0.907410 0.360415
O O12 0.344146 0.000000 0.250000
O O13 0.397821 0.123689 0.356017
O O14 0.557308 0.936607 0.500000
O O15 0.500000 0.000000 0.629816
O O16 0.016169 0.803906 0.500000
#
# Coordination Sequence:
#
# PCOD9497836 Si02
#       7
#    16  16  16  16  16  16   8
#     4   8  16  29  52  89 129 169 202 254 332 394
#     4  11  22  35  59  93 130 168 209 263 321 391
#     4  11  20  33  58  92 130 171 220 274 330 395
#     4  10  21  36  54  81 127 171 209 254 323 399
#     4  10  21  38  62  89 117 156 207 267 328 382
#     4   9  16  30  53  88 132 166 207 263 321 384
#     4  12  21  32  58 100 133 162 218 272 323 384
#
# _framework density 23.993259999999999
#
# number of rings (size 3 to 8) (size 9 to 14) (size 15 to 20)
#    0.000    2.000    4.615    2.077    0.000    4.000 
#    0.000    0.000    6.769    0.000    0.000    2.154 
#    0.000    0.000    0.000   11.077    0.000    0.000 
#
# Total GULP energy -289485.934996 kJ/mol
# GULP energy per Si atom -5567.037211 kJ/mol
# Density = 2.393865 g / cm^3
# Si number density = 23.993260 Si / 1000 Ang^3
#
#
#
# Elastic Constant Matrix: (Units=GPa)
#
#
# Indices 1 2 3 4 5 6 
#
# 1 180.6458 34.5131 55.2672 0.0000 0.0000 0.0000
# 2 34.5131 54.5652 21.7614 0.0000 0.0000 0.0000
# 3 55.2672 21.7614 70.3924 0.0000 0.0000 0.0000
# 4 0.0000 0.0000 0.0000 -0.6569 0.0000 0.0000
# 5 0.0000 0.0000 0.0000 0.0000 20.2252 0.0000
# 6 0.0000 0.0000 0.0000 0.0000 0.0000 49.0194
#
#
#
# Elastic Compliance Matrix: (Units=1/GPa)
#
#
# Indices 1 2 3 4 5 6 
#
# 1 0.007639 -0.002783 -0.005137 0.000000 0.000000 0.000000
# 2 -0.002783 0.021918 -0.004591 0.000000 0.000000 0.000000
# 3 -0.005137 -0.004591 0.019659 0.000000 0.000000 0.000000
# 4 0.000000 0.000000 0.000000 -1.522408 0.000000 0.000000
# 5 0.000000 0.000000 0.000000 0.000000 0.049443 0.000000
# 6 0.000000 0.000000 0.000000 0.000000 0.000000 0.020400
#
#
# Mechanical properties :
#
#
# Convention : Reuss Voigt Hill
#
# Bulk Modulus (GPa) = 41.33343 58.74299 50.03821
# Shear Modulus (GPa) = -3.64894 26.65500 11.50303
#
# Velocity S-wave (km/s) = -1.23455 3.33669 2.19196
# Velocity P-wave (km/s) = 3.90286 6.27542 5.22557
#
# Compressibility (1/GPa) = 0.02419349
#
# Stress axis : x y z
#
# Youngs Moduli (GPa) = 130.90498 45.62498 50.86785
#
# Poissons Ratio (x) = 0.12697 0.26133
# Poissons Ratio (y) = 0.36430 0.23352
# Poissons Ratio (z) = 0.67251 0.20945
#
# Static dielectric constant tensor:
#      x y z
#    x 1.952910 0.000000 0.000000 
#    y 0.000000 1.920300 0.000000 
#    z 0.000000 0.000000 2.168390 
# 
# From -- ./inp_files/42943.got.cif
#   From: 2010.05.17/outbox.cif.g08.bks.cpg/sg66_22_cif.got.tgz:42943.got - 2010.06.03 17:51:23.
