data_PCOD9497635
_publ_section_title
;
Structure prediction by ZEFSAII (Michael W. Deem and Ramdas Pophale) SiO2 
 PCOD9497635
Probable space group: C C C M
;
_chemical_formula_sum "Si O2"
_cell_formula_units_Z 96
_cell_length_a 17.973679
_cell_length_b 9.506921
_cell_length_c 26.965487
_cell_angle_alpha 90.000000
_cell_angle_beta 90.000000
_cell_angle_gamma 90.000000
_cell_volume 4607.709965
_symmetry_space_group_name_H-M "C C C M"
_symmetry_group_IT_number 66
_symmetry_cell_setting 'orthorhombic'
loop_
_space_group_symop_operation_xyz
x,y,z
-x,-y,z
x,-y,1/2-z
-x,y,1/2-z
-x,-y,-z
x,y,-z
-x,y,1/2+z
x,-y,1/2+z
1/2+x,1/2+y,z
1/2-x,1/2-y,z
1/2+x,1/2-y,1/2-z
1/2-x,1/2+y,1/2-z
1/2-x,1/2-y,-z
1/2+x,1/2+y,-z
1/2-x,1/2+y,1/2+z
1/2+x,1/2-y,1/2+z
loop_
_atom_site_type_symbol
_atom_site_label
_atom_site_fract_x
_atom_site_fract_y
_atom_site_fract_z
Si Si1 0.907057 0.240094 0.058012
Si Si2 0.289900 0.115074 0.371693
Si Si3 0.572951 0.218457 0.445056
Si Si4 0.726697 0.902222 0.943609
Si Si5 0.582390 0.471160 0.629538
Si Si6 0.228247 0.084190 0.198671
O O1 0.856393 0.322930 0.096747
O O2 0.986715 0.318299 0.056273
O O3 0.916408 0.090503 0.086013
O O4 0.881505 0.229819 0.000000
O O5 0.250000 0.250000 0.348762
O O6 0.243211 0.034414 0.414409
O O7 0.295296 0.992679 0.331702
O O8 0.584839 0.284995 0.500000
O O9 0.636997 0.101960 0.441899
O O10 0.584300 0.326620 0.400912
O O11 0.750000 0.750000 0.923045
O O12 0.751042 0.908385 0.000000
O O13 0.500000 0.500000 0.653408
O O14 0.651318 0.454492 0.668374
O O15 0.250000 0.250000 0.202913
O O16 0.222612 0.000000 0.250000
#
# Coordination Sequence:
#
# PCOD9497635 Si02
#       6
#    16  16  16  16  16  16
#     4  10  21  35  60  97 141 180 220 262 317 394
#     4  12  23  39  60  90 130 167 218 264 329 391
#     4   9  18  35  58  91 135 183 220 259 317 388
#     4  10  21  35  55  85 127 173 221 264 312 379
#     4  10  20  39  66  98 133 176 220 269 327 402
#     4  12  27  48  73  97 125 164 222 290 353 404
#
# _framework density 20.834644000000001
#
# number of rings (size 3 to 8) (size 9 to 14) (size 15 to 20)
#    0.000    1.500    1.667    4.000    0.000    4.333 
#    0.000    2.500    0.000    0.500    0.000    0.000 
#    0.000    0.000    0.000    0.000    0.000    0.000 
#
# Total GULP energy -267312.108115 kJ/mol
# GULP energy per Si atom -5569.002252 kJ/mol
# Density = 2.078722 g / cm^3
# Si number density = 20.834644 Si / 1000 Ang^3
#
#
#
# Elastic Constant Matrix: (Units=GPa)
#
#
# Indices 1 2 3 4 5 6 
#
# 1 102.4576 14.7553 41.3859 0.0000 0.0000 0.0000
# 2 14.7553 101.8583 32.8589 0.0000 0.0000 0.0000
# 3 41.3859 32.8589 112.9859 0.0000 0.0000 0.0000
# 4 0.0000 0.0000 0.0000 29.0045 0.0000 0.0000
# 5 0.0000 0.0000 0.0000 0.0000 25.7028 0.0000
# 6 0.0000 0.0000 0.0000 0.0000 0.0000 25.5299
#
#
#
# Elastic Compliance Matrix: (Units=1/GPa)
#
#
# Indices 1 2 3 4 5 6 
#
# 1 0.011466 -0.000338 -0.004101 0.000000 0.000000 0.000000
# 2 -0.000338 0.010844 -0.003030 0.000000 0.000000 0.000000
# 3 -0.004101 -0.003030 0.011234 0.000000 0.000000 0.000000
# 4 0.000000 0.000000 0.000000 0.034477 0.000000 0.000000
# 5 0.000000 0.000000 0.000000 0.000000 0.038906 0.000000
# 6 0.000000 0.000000 0.000000 0.000000 0.000000 0.039170
#
#
# Mechanical properties :
#
#
# Convention : Reuss Voigt Hill
#
# Bulk Modulus (GPa) = 53.74847 55.03357 54.39102
# Shear Modulus (GPa) = 29.89763 31.26754 30.58259
#
# Velocity S-wave (km/s) = 3.79224 3.87815 3.83544
# Velocity P-wave (km/s) = 6.71033 6.82094 6.76586
#
# Compressibility (1/GPa) = 0.01860518
#
# Stress axis : x y z
#
# Youngs Moduli (GPa) = 87.21816 92.21744 89.01402
#
# Poissons Ratio (x) = 0.03115 0.36509
# Poissons Ratio (y) = 0.02946 0.26971
# Poissons Ratio (z) = 0.35772 0.27941
#
# Static dielectric constant tensor:
#      x y z
#    x 1.877340 0.000000 0.000000 
#    y 0.000000 1.807010 0.000000 
#    z 0.000000 0.000000 1.784920 
# 
# From -- ./inp_files/65645.got.cif
#   From: 2010.05.17/outbox.cif.g08.bks.cpg/sg66_33_cif.got.tgz:65645.got - 2010.06.03 17:51:23.
