data_PCOD9497665
_publ_section_title
;
Structure prediction by ZEFSAII (Michael W. Deem and Ramdas Pophale) SiO2 
 PCOD9497665
Probable space group: C C C M
;
_chemical_formula_sum "Si O2"
_cell_formula_units_Z 104
_cell_length_a 27.727191
_cell_length_b 8.410012
_cell_length_c 21.348101
_cell_angle_alpha 90.000000
_cell_angle_beta 90.000000
_cell_angle_gamma 90.000000
_cell_volume 4978.078473
_symmetry_space_group_name_H-M "C C C M"
_symmetry_group_IT_number 66
_symmetry_cell_setting 'orthorhombic'
loop_
_space_group_symop_operation_xyz
x,y,z
-x,-y,z
x,-y,1/2-z
-x,y,1/2-z
-x,-y,-z
x,y,-z
-x,y,1/2+z
x,-y,1/2+z
1/2+x,1/2+y,z
1/2-x,1/2-y,z
1/2+x,1/2-y,1/2-z
1/2-x,1/2+y,1/2-z
1/2-x,1/2-y,-z
1/2+x,1/2+y,-z
1/2-x,1/2+y,1/2+z
1/2+x,1/2-y,1/2+z
loop_
_atom_site_type_symbol
_atom_site_label
_atom_site_fract_x
_atom_site_fract_y
_atom_site_fract_z
Si Si1 0.355911 0.080464 0.185659
Si Si2 0.500000 0.500000 0.644601
Si Si3 0.606611 0.437522 0.317173
Si Si4 0.876306 0.614308 0.566535
Si Si5 0.748048 0.556457 0.317157
Si Si6 0.173558 0.939383 0.926013
Si Si7 0.012950 0.676603 0.929493
O O1 0.376132 0.256338 0.184824
O O2 0.372269 0.000000 0.250000
O O3 0.376439 0.997544 0.124961
O O4 0.298689 0.039785 0.181057
O O5 0.449367 0.511456 0.680505
O O6 0.497644 0.665199 0.606012
O O7 0.624431 0.500000 0.250000
O O8 0.629706 0.500384 0.382285
O O9 0.869095 0.529901 0.500000
O O10 0.835664 0.749363 0.572512
O O11 0.929299 0.689713 0.565736
O O12 0.726800 0.500000 0.250000
O O13 0.750000 0.750000 0.313832
O O14 0.718849 0.520523 0.381124
O O15 0.175211 0.989472 0.000000
O O16 0.000000 0.500000 0.903186
O O17 0.992073 0.678096 0.000000
#
# Coordination Sequence:
#
# PCOD9497665 Si02
#       7
#    16   8  16  16  16  16  16
#     4  11  25  43  71 102 132 190 240 294 365 437
#     4  12  24  42  70 102 141 190 251 302 371 432
#     4  12  27  46  70  98 146 190 244 300 366 441
#     4  10  20  40  65  98 138 178 227 287 359 427
#     4  11  25  43  71 104 138 183 245 286 361 445
#     4  11  24  43  71 100 140 186 229 298 364 429
#     4  10  21  38  65 100 141 185 236 298 364 439
#
# _framework density 20.891594000000001
#
# number of rings (size 3 to 8) (size 9 to 14) (size 15 to 20)
#    0.000    1.077    3.077    2.769    6.462    2.154 
#    0.000    0.769    0.000    0.000    0.000    0.000 
#    0.000    0.000    0.000    0.000    0.000    0.000 
#
# Total GULP energy -289740.996558 kJ/mol
# GULP energy per Si atom -5571.942241 kJ/mol
# Density = 2.084404 g / cm^3
# Si number density = 20.891594 Si / 1000 Ang^3
#
#
#
# Elastic Constant Matrix: (Units=GPa)
#
#
# Indices 1 2 3 4 5 6 
#
# 1 42.7873 11.2870 19.5857 0.0000 0.0000 0.0000
# 2 11.2870 109.2707 65.4094 0.0000 0.0000 0.0000
# 3 19.5857 65.4094 203.9744 0.0000 0.0000 0.0000
# 4 0.0000 0.0000 0.0000 39.3546 0.0000 0.0000
# 5 0.0000 0.0000 0.0000 0.0000 59.3801 0.0000
# 6 0.0000 0.0000 0.0000 0.0000 0.0000 35.1057
#
#
#
# Elastic Compliance Matrix: (Units=1/GPa)
#
#
# Indices 1 2 3 4 5 6 
#
# 1 0.024617 -0.001396 -0.001916 0.000000 0.000000 0.000000
# 2 -0.001396 0.011405 -0.003523 0.000000 0.000000 0.000000
# 3 -0.001916 -0.003523 0.006216 0.000000 0.000000 0.000000
# 4 0.000000 0.000000 0.000000 0.025410 0.000000 0.000000
# 5 0.000000 0.000000 0.000000 0.000000 0.016841 0.000000
# 6 0.000000 0.000000 0.000000 0.000000 0.000000 0.028485
#
#
# Mechanical properties :
#
#
# Convention : Reuss Voigt Hill
#
# Bulk Modulus (GPa) = 35.00462 60.95518 47.97990
# Shear Modulus (GPa) = 36.71973 44.08476 40.40225
#
# Velocity S-wave (km/s) = 4.19696 4.59864 4.40238
# Velocity P-wave (km/s) = 6.34647 7.57871 6.98980
#
# Compressibility (1/GPa) = 0.02856765
#
# Stress axis : x y z
#
# Youngs Moduli (GPa) = 40.62284 87.68282 160.86578
#
# Poissons Ratio (x) = 0.12238 0.30824
# Poissons Ratio (y) = 0.05670 0.56676
# Poissons Ratio (z) = 0.07784 0.30892
#
# Static dielectric constant tensor:
#      x y z
#    x 0.571900 0.000000 0.000000 
#    y 0.000000 1.810450 0.000000 
#    z 0.000000 0.000000 1.779500 
# 
# From -- ./inp_files/53303.got.cif
#   From: 2010.05.17/outbox.cif.g08.bks.cpg/sg66_27_cif.got.tgz:53303.got - 2010.06.03 17:51:23.
