data_PCOD9497013
_publ_section_title
;
Structure prediction by ZEFSAII (Michael W. Deem and Ramdas Pophale) SiO2 
 PCOD9497013
Probable space group: C C C M
;
_chemical_formula_sum "Si O2"
_cell_formula_units_Z 116
_cell_length_a 27.360364
_cell_length_b 26.100557
_cell_length_c 9.313494
_cell_angle_alpha 90.000000
_cell_angle_beta 90.000000
_cell_angle_gamma 90.000000
_cell_volume 6650.959228
_symmetry_space_group_name_H-M "C C C M"
_symmetry_group_IT_number 66
_symmetry_cell_setting 'orthorhombic'
loop_
_space_group_symop_operation_xyz
x,y,z
-x,-y,z
x,-y,1/2-z
-x,y,1/2-z
-x,-y,-z
x,y,-z
-x,y,1/2+z
x,-y,1/2+z
1/2+x,1/2+y,z
1/2-x,1/2-y,z
1/2+x,1/2-y,1/2-z
1/2-x,1/2+y,1/2-z
1/2-x,1/2-y,-z
1/2+x,1/2+y,-z
1/2-x,1/2+y,1/2+z
1/2+x,1/2-y,1/2+z
loop_
_atom_site_type_symbol
_atom_site_label
_atom_site_fract_x
_atom_site_fract_y
_atom_site_fract_z
Si Si1 0.316886 0.147064 0.167305
Si Si2 0.358732 0.752660 0.171175
Si Si3 0.283268 0.699222 0.346030
Si Si4 0.831725 0.053372 0.167316
Si Si5 0.950914 0.205237 0.668798
Si Si6 0.000000 0.000000 0.250000
Si Si7 0.922081 0.912565 0.161303
Si Si8 0.717792 0.945804 0.669845
O O1 0.341500 0.194301 0.252688
O O2 0.258481 0.157457 0.163499
O O3 0.318567 0.094418 0.254884
O O4 0.333007 0.145236 0.000000
O O5 0.318798 0.709258 0.214674
O O6 0.407336 0.732839 0.247280
O O7 0.362215 0.758208 0.000000
O O8 0.310367 0.694375 0.500000
O O9 0.250000 0.750000 0.353849
O O10 0.875964 0.085780 0.232571
O O11 0.775354 0.070234 0.182500
O O12 0.835396 0.000000 0.250000
O O13 0.841081 0.045851 0.000000
O O14 0.950909 0.218586 0.500000
O O15 0.945875 0.143358 0.677354
O O16 0.000000 0.220167 0.750000
O O17 0.961481 0.041080 0.319728
O O18 0.902411 0.917051 0.000000
O O19 0.707983 0.950366 0.500000
O O20 0.713733 0.000000 0.750000
#
# Coordination Sequence:
#
# PCOD9497013 Si02
#       8
#    16  16  16  16  16   4  16  16
#     4  10  20  35  56  80 109 146 183 225 272 327
#     4  11  22  36  56  81 108 141 180 226 276 333
#     4   8  16  31  49  73 103 137 175 219 268 319
#     4  10  21  35  52  73 101 135 177 222 270 323
#     4  11  24  42  58  79 107 140 180 228 287 343
#     4  12  22  40  60  82  98 132 182 244 292 340
#     4  11  24  38  56  77 101 134 177 231 288 339
#     4  10  21  36  53  79 112 148 184 224 268 323
#
# _framework density 17.441092999999999
#
# number of rings (size 3 to 8) (size 9 to 14) (size 15 to 20)
#    0.000    1.793    1.379    3.931    1.931    6.345 
#    0.000    0.000    0.000    0.000    0.000    0.000 
#    0.000    0.552    0.000    5.517    0.000    3.310 
#
# Total GULP energy -323224.396052 kJ/mol
# GULP energy per Si atom -5572.834415 kJ/mol
# Density = 1.740140 g / cm^3
# Si number density = 17.441093 Si / 1000 Ang^3
#
#
#
# Elastic Constant Matrix: (Units=GPa)
#
#
# Indices 1 2 3 4 5 6 
#
# 1 65.4446 28.0259 59.3128 0.0000 0.0000 0.0000
# 2 28.0259 61.3831 57.4840 0.0000 0.0000 0.0000
# 3 59.3128 57.4840 169.2989 0.0000 0.0000 0.0000
# 4 0.0000 0.0000 0.0000 15.0056 0.0000 0.0000
# 5 0.0000 0.0000 0.0000 0.0000 21.9797 0.0000
# 6 0.0000 0.0000 0.0000 0.0000 0.0000 21.6707
#
#
#
# Elastic Compliance Matrix: (Units=1/GPa)
#
#
# Indices 1 2 3 4 5 6 
#
# 1 0.023159 -0.004363 -0.006632 0.000000 0.000000 0.000000
# 2 -0.004363 0.024708 -0.006861 0.000000 0.000000 0.000000
# 3 -0.006632 -0.006861 0.010560 0.000000 0.000000 0.000000
# 4 0.000000 0.000000 0.000000 0.066642 0.000000 0.000000
# 5 0.000000 0.000000 0.000000 0.000000 0.045497 0.000000
# 6 0.000000 0.000000 0.000000 0.000000 0.000000 0.046145
#
#
# Mechanical properties :
#
#
# Convention : Reuss Voigt Hill
#
# Bulk Modulus (GPa) = 44.02359 65.08577 54.55468
# Shear Modulus (GPa) = 19.23110 21.81812 20.52461
#
# Velocity S-wave (km/s) = 3.32419 3.54073 3.43417
# Velocity P-wave (km/s) = 6.32691 7.35623 6.86090
#
# Compressibility (1/GPa) = 0.02271510
#
# Stress axis : x y z
#
# Youngs Moduli (GPa) = 43.17905 40.47233 94.69794
#
# Poissons Ratio (x) = 0.17658 0.62807
# Poissons Ratio (y) = 0.18839 0.64972
# Poissons Ratio (z) = 0.28638 0.27768
#
# Static dielectric constant tensor:
#      x y z
#    x 1.598840 0.000000 0.000000 
#    y 0.000000 1.630170 0.000000 
#    z 0.000000 0.000000 1.606430 
# 
# From -- ./inp_files/10625.got.cif
#   From: 2010.05.17/outbox.cif.g08.bks.cpg/sg66_6_cif.got.tgz:10625.got - 2010.06.03 17:51:23.
