data_PCOD9497862
_publ_section_title
;
Structure prediction by ZEFSAII (Michael W. Deem and Ramdas Pophale) SiO2 
 PCOD9497862
Probable space group: C C C M
;
_chemical_formula_sum "Si O2"
_cell_formula_units_Z 104
_cell_length_a 21.453359
_cell_length_b 27.240875
_cell_length_c 9.242832
_cell_angle_alpha 90.000000
_cell_angle_beta 90.000000
_cell_angle_gamma 90.000000
_cell_volume 5401.587467
_symmetry_space_group_name_H-M "C C C M"
_symmetry_group_IT_number 66
_symmetry_cell_setting 'orthorhombic'
loop_
_space_group_symop_operation_xyz
x,y,z
-x,-y,z
x,-y,1/2-z
-x,y,1/2-z
-x,-y,-z
x,y,-z
-x,y,1/2+z
x,-y,1/2+z
1/2+x,1/2+y,z
1/2-x,1/2-y,z
1/2+x,1/2-y,1/2-z
1/2-x,1/2+y,1/2-z
1/2-x,1/2-y,-z
1/2+x,1/2+y,-z
1/2-x,1/2+y,1/2+z
1/2+x,1/2-y,1/2+z
loop_
_atom_site_type_symbol
_atom_site_label
_atom_site_fract_x
_atom_site_fract_y
_atom_site_fract_z
Si Si1 0.250000 0.250000 0.740775
Si Si2 0.384542 0.273523 0.662170
Si Si3 0.246394 0.050336 0.333079
Si Si4 0.439475 0.646617 0.671143
Si Si5 0.061991 0.680660 0.327129
Si Si6 0.095633 0.950830 0.167902
Si Si7 0.201792 0.644064 0.664514
O O1 0.313049 0.257775 0.653493
O O2 0.233751 0.301814 0.820429
O O3 0.407881 0.284158 0.500000
O O4 0.384712 0.319877 0.768153
O O5 0.423334 0.231227 0.742391
O O6 0.265853 0.046707 0.500000
O O7 0.170918 0.052275 0.329677
O O8 0.271700 0.101061 0.265625
O O9 0.264729 0.000000 0.250000
O O10 0.500000 0.668517 0.750000
O O11 0.444234 0.646380 0.500000
O O12 0.430158 0.593611 0.738892
O O13 0.052081 0.688223 0.500000
O O14 0.127206 0.651177 0.311452
O O15 0.000000 0.659543 0.250000
O O16 0.077105 0.000000 0.250000
O O17 0.075479 0.948964 0.000000
O O18 0.211858 0.627748 0.500000
#
# Coordination Sequence:
#
# PCOD9497862 Si02
#       7
#     8  16  16  16  16  16  16
#     4  10  22  36  58  88 120 154 188 228 282 342
#     4  11  22  37  56  80 111 146 184 227 273 328
#     4  10  21  37  60  87 117 151 189 233 284 338
#     4  12  25  40  57  78 106 144 187 232 279 329
#     4  10  21  37  56  80 110 147 186 226 272 328
#     4  10  21  38  58  82 109 140 180 227 277 330
#     4  10  21  36  57  85 118 152 189 232 282 337
#
# _framework density 19.253599000000001
#
# number of rings (size 3 to 8) (size 9 to 14) (size 15 to 20)
#    0.000    1.538    0.000    5.077    0.000   10.154 
#    0.000    1.538    0.000    0.462    0.000    3.231 
#    0.000    0.000    0.000    0.000    0.000    0.000 
#
# Total GULP energy -290198.861621 kJ/mol
# GULP energy per Si atom -5580.747339 kJ/mol
# Density = 1.920978 g / cm^3
# Si number density = 19.253599 Si / 1000 Ang^3
#
#
#
# Elastic Constant Matrix: (Units=GPa)
#
#
# Indices 1 2 3 4 5 6 
#
# 1 69.4501 21.9148 43.0217 0.0000 0.0000 0.0000
# 2 21.9148 100.9676 66.6054 0.0000 0.0000 0.0000
# 3 43.0217 66.6054 197.0092 0.0000 0.0000 0.0000
# 4 0.0000 0.0000 0.0000 13.2570 0.0000 0.0000
# 5 0.0000 0.0000 0.0000 0.0000 22.6636 0.0000
# 6 0.0000 0.0000 0.0000 0.0000 0.0000 4.3024
#
#
#
# Elastic Compliance Matrix: (Units=1/GPa)
#
#
# Indices 1 2 3 4 5 6 
#
# 1 0.016846 -0.001583 -0.003144 0.000000 0.000000 0.000000
# 2 -0.001583 0.012896 -0.004014 0.000000 0.000000 0.000000
# 3 -0.003144 -0.004014 0.007120 0.000000 0.000000 0.000000
# 4 0.000000 0.000000 0.000000 0.075432 0.000000 0.000000
# 5 0.000000 0.000000 0.000000 0.000000 0.044124 0.000000
# 6 0.000000 0.000000 0.000000 0.000000 0.000000 0.232429
#
#
# Mechanical properties :
#
#
# Convention : Reuss Voigt Hill
#
# Bulk Modulus (GPa) = 51.59950 70.05674 60.82812
# Shear Modulus (GPa) = 12.11282 23.77027 17.94155
#
# Velocity S-wave (km/s) = 2.51095 3.51748 3.05594
# Velocity P-wave (km/s) = 5.93840 7.27751 6.64179
#
# Compressibility (1/GPa) = 0.01938003
#
# Stress axis : x y z
#
# Youngs Moduli (GPa) = 59.36292 77.54503 140.45878
#
# Poissons Ratio (x) = 0.12272 0.44155
# Poissons Ratio (y) = 0.09394 0.56383
# Poissons Ratio (z) = 0.18661 0.31128
#
# Static dielectric constant tensor:
#      x y z
#    x 1.763330 0.000000 0.000000 
#    y 0.000000 2.055910 0.000000 
#    z 0.000000 0.000000 1.667950 
# 
# From -- ./inp_files/8151.got.cif
#   From: 2010.05.17/outbox.cif.g08.bks.cpg/sg66_5_cif.got.tgz:8151.got - 2010.06.03 17:51:23.
