data_PCOD9497085
_publ_section_title
;
Structure prediction by ZEFSAII (Michael W. Deem and Ramdas Pophale) SiO2 
 PCOD9497085
Probable space group: C C C M
;
_chemical_formula_sum "Si O2"
_cell_formula_units_Z 64
_cell_length_a 8.219337
_cell_length_b 16.456396
_cell_length_c 24.937494
_cell_angle_alpha 90.000000
_cell_angle_beta 90.000000
_cell_angle_gamma 90.000000
_cell_volume 3373.062010
_symmetry_space_group_name_H-M "C C C M"
_symmetry_group_IT_number 66
_symmetry_cell_setting 'orthorhombic'
loop_
_space_group_symop_operation_xyz
x,y,z
-x,-y,z
x,-y,1/2-z
-x,y,1/2-z
-x,-y,-z
x,y,-z
-x,y,1/2+z
x,-y,1/2+z
1/2+x,1/2+y,z
1/2-x,1/2-y,z
1/2+x,1/2-y,1/2-z
1/2-x,1/2+y,1/2-z
1/2-x,1/2-y,-z
1/2+x,1/2+y,-z
1/2-x,1/2+y,1/2+z
1/2+x,1/2-y,1/2+z
loop_
_atom_site_type_symbol
_atom_site_label
_atom_site_fract_x
_atom_site_fract_y
_atom_site_fract_z
Si Si1 0.441707 0.766045 0.688958
Si Si2 0.059586 0.407901 0.387371
Si Si3 0.618403 0.325356 0.500000
Si Si4 0.926847 0.410235 0.500000
Si Si5 0.375107 0.324368 0.400265
O O1 0.500000 0.766870 0.750000
O O2 0.250000 0.750000 0.685853
O O3 0.493497 0.849646 0.659317
O O4 0.533647 0.697035 0.654687
O O5 0.254456 0.400454 0.392984
O O6 0.000000 0.500000 0.380385
O O7 0.989228 0.374284 0.444051
O O8 0.750000 0.250000 0.500000
O O9 0.734054 0.404056 0.500000
O O10 0.504071 0.327149 0.448040
O O11 0.000000 0.500000 0.500000
O O12 0.250000 0.250000 0.410701
#
# Coordination Sequence:
#
# PCOD9497085 Si02
#       5
#    16  16   8   8  16
#     4  11  22  39  60  84 113 150 192 237 286 339
#     4  10  21  39  59  82 116 153 188 235 288 341
#     4  12  20  33  60  88 114 154 199 237 277 340
#     4  10  21  37  53  80 119 152 180 227 288 336
#     4  10  20  35  58  88 116 149 191 239 287 340
#
# _framework density 18.973859000000001
#
# number of rings (size 3 to 8) (size 9 to 14) (size 15 to 20)
#    0.000    1.500    0.000    8.625    0.000    0.500 
#    0.000   16.250    0.000    1.500    0.000    0.000 
#    0.000    0.000    0.000    0.000    0.000    0.000 
#
# Total GULP energy -178644.688355 kJ/mol
# GULP energy per Si atom -5582.646511 kJ/mol
# Density = 1.893067 g / cm^3
# Si number density = 18.973859 Si / 1000 Ang^3
#
#
#
# Elastic Constant Matrix: (Units=GPa)
#
#
# Indices 1 2 3 4 5 6 
#
# 1 184.0753 60.0009 87.5683 0.0000 0.0000 0.0000
# 2 60.0009 75.0765 41.0788 0.0000 0.0000 0.0000
# 3 87.5683 41.0788 200.7643 0.0000 0.0000 0.0000
# 4 0.0000 0.0000 0.0000 -3.2526 0.0000 0.0000
# 5 0.0000 0.0000 0.0000 0.0000 41.6357 0.0000
# 6 0.0000 0.0000 0.0000 0.0000 0.0000 40.4931
#
#
#
# Elastic Compliance Matrix: (Units=1/GPa)
#
#
# Indices 1 2 3 4 5 6 
#
# 1 0.008381 -0.005290 -0.002573 0.000000 0.000000 0.000000
# 2 -0.005290 0.018338 -0.001445 0.000000 0.000000 0.000000
# 3 -0.002573 -0.001445 0.006399 0.000000 0.000000 0.000000
# 4 0.000000 0.000000 0.000000 -0.307445 0.000000 0.000000
# 5 0.000000 0.000000 0.000000 0.000000 0.024018 0.000000
# 6 0.000000 0.000000 0.000000 0.000000 0.000000 0.024696
#
#
# Mechanical properties :
#
#
# Convention : Reuss Voigt Hill
#
# Bulk Modulus (GPa) = 68.95639 93.02355 80.98997
# Shear Modulus (GPa) = -24.73243 33.85978 4.56367
#
# Velocity S-wave (km/s) = -3.61432 4.22897 1.55257
# Velocity P-wave (km/s) = 4.35936 8.54279 6.78171
#
# Compressibility (1/GPa) = 0.01450192
#
# Stress axis : x y z
#
# Youngs Moduli (GPa) = 119.31696 54.53112 156.27609
#
# Poissons Ratio (x) = 0.28848 0.40212
# Poissons Ratio (y) = 0.63121 0.22578
# Poissons Ratio (z) = 0.30702 0.07878
#
# Static dielectric constant tensor:
#      x y z
#    x 1.677320 0.000000 0.000000 
#    y 0.000000 1.726630 0.000000 
#    z 0.000000 0.000000 1.647290 
# 
# From -- ./inp_files/55185.got.cif
#   From: 2010.05.17/outbox.cif.g08.bks.cpg/sg66_28_cif.got.tgz:55185.got - 2010.06.03 17:51:23.
