data_PCOD9497929
_publ_section_title
;
Structure prediction by ZEFSAII (Michael W. Deem and Ramdas Pophale) SiO2 
 PCOD9497929
Probable space group: C C C M
;
_chemical_formula_sum "Si O2"
_cell_formula_units_Z 116
_cell_length_a 16.929768
_cell_length_b 16.703323
_cell_length_c 20.198390
_cell_angle_alpha 90.000000
_cell_angle_beta 90.000000
_cell_angle_gamma 90.000000
_cell_volume 5711.769060
_symmetry_space_group_name_H-M "C C C M"
_symmetry_group_IT_number 66
_symmetry_cell_setting 'orthorhombic'
loop_
_space_group_symop_operation_xyz
x,y,z
-x,-y,z
x,-y,1/2-z
-x,y,1/2-z
-x,-y,-z
x,y,-z
-x,y,1/2+z
x,-y,1/2+z
1/2+x,1/2+y,z
1/2-x,1/2-y,z
1/2+x,1/2-y,1/2-z
1/2-x,1/2+y,1/2-z
1/2-x,1/2-y,-z
1/2+x,1/2+y,-z
1/2-x,1/2+y,1/2+z
1/2+x,1/2-y,1/2+z
loop_
_atom_site_type_symbol
_atom_site_label
_atom_site_fract_x
_atom_site_fract_y
_atom_site_fract_z
Si Si1 0.773546 0.057856 0.922282
Si Si2 0.200341 0.869756 0.425405
Si Si3 0.394100 0.038717 0.366819
Si Si4 0.500000 0.000000 0.750000
Si Si5 0.881786 0.350698 0.612986
Si Si6 0.453813 0.810435 0.070634
Si Si7 0.840708 0.223800 0.298175
Si Si8 0.336034 0.705013 0.848944
O O1 0.697837 0.060516 0.873261
O O2 0.830352 0.126304 0.894399
O O3 0.803240 0.966277 0.920041
O O4 0.752432 0.073221 0.000000
O O5 0.175814 0.846836 0.500000
O O6 0.293214 0.844791 0.416366
O O7 0.154266 0.830998 0.363752
O O8 0.441260 0.048916 0.298270
O O9 0.434072 0.096176 0.419812
O O10 0.398212 0.944715 0.382096
O O11 0.883753 0.306775 0.684157
O O12 0.952036 0.307420 0.574825
O O13 0.404280 0.763501 0.125097
O O14 0.424974 0.781082 0.000000
O O15 0.750000 0.250000 0.293497
O O16 0.857127 0.185777 0.227355
O O17 0.250000 0.750000 0.853111
#
# Coordination Sequence:
#
# PCOD9497929 Si02
#       8
#    16  16  16   4  16  16  16  16
#     4  10  21  39  60  84 114 154 202 249 294 347
#     4   9  19  37  62  88 114 151 193 248 301 349
#     4  11  23  35  55  79 118 161 195 237 285 350
#     4  12  24  36  50  84 116 164 194 236 300 360
#     4  10  21  37  56  85 119 156 192 241 287 359
#     4  12  24  37  56  84 119 160 201 244 293 350
#     4   9  21  37  57  84 117 149 197 242 295 355
#     4  11  23  37  56  84 114 162 197 244 290 346
#
# _framework density 20.308944
#
# number of rings (size 3 to 8) (size 9 to 14) (size 15 to 20)
#    0.000    1.655    2.759    1.241    1.931    9.103 
#    0.000    0.000    0.000    0.828    0.000    4.828 
#    0.000    0.000    0.000    0.000    0.000    0.000 
#
# Total GULP energy -323335.081275 kJ/mol
# GULP energy per Si atom -5574.742781 kJ/mol
# Density = 2.026272 g / cm^3
# Si number density = 20.308944 Si / 1000 Ang^3
#
#
#
# Elastic Constant Matrix: (Units=GPa)
#
#
# Indices 1 2 3 4 5 6 
#
# 1 40.9849 35.6057 26.2348 0.0000 0.0000 0.0000
# 2 35.6057 88.9556 49.1686 0.0000 0.0000 0.0000
# 3 26.2348 49.1686 144.8300 0.0000 0.0000 0.0000
# 4 0.0000 0.0000 0.0000 28.7144 0.0000 0.0000
# 5 0.0000 0.0000 0.0000 0.0000 14.0632 0.0000
# 6 0.0000 0.0000 0.0000 0.0000 0.0000 9.9849
#
#
#
# Elastic Compliance Matrix: (Units=1/GPa)
#
#
# Indices 1 2 3 4 5 6 
#
# 1 0.037925 -0.014012 -0.002113 0.000000 0.000000 0.000000
# 2 -0.014012 0.019015 -0.003917 0.000000 0.000000 0.000000
# 3 -0.002113 -0.003917 0.008617 0.000000 0.000000 0.000000
# 4 0.000000 0.000000 0.000000 0.034826 0.000000 0.000000
# 5 0.000000 0.000000 0.000000 0.000000 0.071107 0.000000
# 6 0.000000 0.000000 0.000000 0.000000 0.000000 0.100151
#
#
# Mechanical properties :
#
#
# Convention : Reuss Voigt Hill
#
# Bulk Modulus (GPa) = 39.25752 55.19874 47.22813
# Shear Modulus (GPa) = 15.61439 21.46992 18.54216
#
# Velocity S-wave (km/s) = 2.77581 3.25494 3.02487
# Velocity P-wave (km/s) = 5.44478 6.43154 5.95862
#
# Compressibility (1/GPa) = 0.02547283
#
# Stress axis : x y z
#
# Youngs Moduli (GPa) = 26.36808 52.58905 116.04601
#
# Poissons Ratio (x) = 0.73688 0.24518
# Poissons Ratio (y) = 0.36947 0.45460
# Poissons Ratio (z) = 0.05571 0.20601
#
# Static dielectric constant tensor:
#      x y z
#    x 1.743010 0.000000 0.000000 
#    y 0.000000 1.738790 0.000000 
#    z 0.000000 0.000000 1.752230 
# 
# From -- ./inp_files/41847.got.cif
#   From: 2010.05.17/outbox.cif.g08.bks.cpg/sg66_21_cif.got.tgz:41847.got - 2010.06.03 17:51:23.
