data_PCOD9497692
_publ_section_title
;
Structure prediction by ZEFSAII (Michael W. Deem and Ramdas Pophale) SiO2 
 PCOD9497692
Probable space group: C C C M
;
_chemical_formula_sum "Si O2"
_cell_formula_units_Z 92
_cell_length_a 22.947590
_cell_length_b 23.982596
_cell_length_c 9.324262
_cell_angle_alpha 90.000000
_cell_angle_beta 90.000000
_cell_angle_gamma 90.000000
_cell_volume 5131.540272
_symmetry_space_group_name_H-M "C C C M"
_symmetry_group_IT_number 66
_symmetry_cell_setting 'orthorhombic'
loop_
_space_group_symop_operation_xyz
x,y,z
-x,-y,z
x,-y,1/2-z
-x,y,1/2-z
-x,-y,-z
x,y,-z
-x,y,1/2+z
x,-y,1/2+z
1/2+x,1/2+y,z
1/2-x,1/2-y,z
1/2+x,1/2-y,1/2-z
1/2-x,1/2+y,1/2-z
1/2-x,1/2-y,-z
1/2+x,1/2+y,-z
1/2-x,1/2+y,1/2+z
1/2+x,1/2-y,1/2+z
loop_
_atom_site_type_symbol
_atom_site_label
_atom_site_fract_x
_atom_site_fract_y
_atom_site_fract_z
Si Si1 0.056201 0.941191 0.830397
Si Si2 0.319593 0.741517 0.667499
Si Si3 0.117810 0.357396 0.171367
Si Si4 0.000000 0.591624 0.750000
Si Si5 0.724735 0.940343 0.828006
Si Si6 0.325720 0.628300 0.831497
Si Si7 0.500000 0.000000 0.000000
O O1 0.113849 0.904722 0.817054
O O2 0.000000 0.915955 0.750000
O O3 0.066084 0.000000 0.750000
O O4 0.044664 0.949244 0.000000
O O5 0.333351 0.729141 0.500000
O O6 0.250000 0.750000 0.675319
O O7 0.352179 0.798554 0.708880
O O8 0.333958 0.689754 0.768022
O O9 0.058171 0.370970 0.251552
O O10 0.164755 0.406606 0.196188
O O11 0.106699 0.355934 0.000000
O O12 0.995787 0.549255 0.880021
O O13 0.776431 0.903664 0.759744
O O14 0.723182 0.000000 0.750000
O O15 0.732881 0.946574 0.000000
O O16 0.309500 0.629596 0.000000
#
# Coordination Sequence:
#
# PCOD9497692 Si02
#       7
#    16  16  16   8  16  16   4
#     4  10  21  37  60  87 119 153 193 237 295 357
#     4  10  20  41  66  86 113 162 204 245 301 362
#     4  10  22  41  63  88 122 160 211 251 306 370
#     4  11  22  42  60  94 122 164 205 264 306 376
#     4  11  23  38  60  90 123 159 199 249 302 367
#     4  11  23  40  59  90 123 155 199 250 302 359
#     4  10  24  38  68  86 124 166 208 246 328 374
#
# _framework density 17.928341
#
# number of rings (size 3 to 8) (size 9 to 14) (size 15 to 20)
#    0.000    1.565    2.609    2.609    2.435    4.522 
#    4.696    0.000    0.000    0.000    0.000    0.000 
#    0.000    0.000    0.000    0.000    0.000    0.000 
#
# Total GULP energy -256257.592421 kJ/mol
# GULP energy per Si atom -5570.817227 kJ/mol
# Density = 1.788754 g / cm^3
# Si number density = 17.928341 Si / 1000 Ang^3
#
#
#
# Elastic Constant Matrix: (Units=GPa)
#
#
# Indices 1 2 3 4 5 6 
#
# 1 106.6009 54.4492 46.2459 0.0000 0.0000 0.0000
# 2 54.4492 129.2183 54.1558 0.0000 0.0000 0.0000
# 3 46.2459 54.1558 118.2512 0.0000 0.0000 0.0000
# 4 0.0000 0.0000 0.0000 60.1350 0.0000 0.0000
# 5 0.0000 0.0000 0.0000 0.0000 49.8340 0.0000
# 6 0.0000 0.0000 0.0000 0.0000 0.0000 14.2938
#
#
#
# Elastic Compliance Matrix: (Units=1/GPa)
#
#
# Indices 1 2 3 4 5 6 
#
# 1 0.012835 -0.004089 -0.003147 0.000000 0.000000 0.000000
# 2 -0.004089 0.010880 -0.003383 0.000000 0.000000 0.000000
# 3 -0.003147 -0.003383 0.011237 0.000000 0.000000 0.000000
# 4 0.000000 0.000000 0.000000 0.016629 0.000000 0.000000
# 5 0.000000 0.000000 0.000000 0.000000 0.020067 0.000000
# 6 0.000000 0.000000 0.000000 0.000000 0.000000 0.069960
#
#
# Mechanical properties :
#
#
# Convention : Reuss Voigt Hill
#
# Bulk Modulus (GPa) = 72.92642 73.75245 73.33944
# Shear Modulus (GPa) = 29.86549 38.13386 33.99968
#
# Velocity S-wave (km/s) = 4.08588 4.61696 4.35952
# Velocity P-wave (km/s) = 7.93877 8.34556 8.14471
#
# Compressibility (1/GPa) = 0.01371245
#
# Stress axis : x y z
#
# Youngs Moduli (GPa) = 77.91433 91.91140 88.99446
#
# Poissons Ratio (x) = 0.37587 0.28002
# Poissons Ratio (y) = 0.31863 0.30111
# Poissons Ratio (z) = 0.24516 0.31098
#
# Static dielectric constant tensor:
#      x y z
#    x 1.617550 0.000000 0.000000 
#    y 0.000000 1.597300 0.000000 
#    z 0.000000 0.000000 1.601990 
# 
# From -- ./inp_files/9162.got.cif
#   From: 2010.05.17/outbox.cif.g08.bks.cpg/sg66_5_cif.got.tgz:9162.got - 2010.06.03 17:51:23.
