data_PCOD9497666
_publ_section_title
;
Structure prediction by ZEFSAII (Michael W. Deem and Ramdas Pophale) SiO2 
 PCOD9497666
Probable space group: C C C M
;
_chemical_formula_sum "Si O2"
_cell_formula_units_Z 44
_cell_length_a 27.148157
_cell_length_b 5.196071
_cell_length_c 15.719567
_cell_angle_alpha 90.000000
_cell_angle_beta 90.000000
_cell_angle_gamma 90.000000
_cell_volume 2217.461090
_symmetry_space_group_name_H-M "C C C M"
_symmetry_group_IT_number 66
_symmetry_cell_setting 'orthorhombic'
loop_
_space_group_symop_operation_xyz
x,y,z
-x,-y,z
x,-y,1/2-z
-x,y,1/2-z
-x,-y,-z
x,y,-z
-x,y,1/2+z
x,-y,1/2+z
1/2+x,1/2+y,z
1/2-x,1/2-y,z
1/2+x,1/2-y,1/2-z
1/2-x,1/2+y,1/2-z
1/2-x,1/2-y,-z
1/2+x,1/2+y,-z
1/2-x,1/2+y,1/2+z
1/2+x,1/2-y,1/2+z
loop_
_atom_site_type_symbol
_atom_site_label
_atom_site_fract_x
_atom_site_fract_y
_atom_site_fract_z
Si Si1 0.144046 0.931734 0.095068
Si Si2 0.094733 0.559215 0.342288
Si Si3 0.500000 0.000000 0.750000
Si Si4 0.782123 0.000000 0.250000
O O1 0.103613 0.706803 0.109065
O O2 0.184733 0.921822 0.168854
O O3 0.118636 0.207200 0.108728
O O4 0.164470 0.908402 0.000000
O O5 0.119213 0.500000 0.250000
O O6 0.039176 0.633725 0.313144
O O7 0.750000 0.250000 0.272808
#
# Coordination Sequence:
#
# PCOD9497666 Si02
#       4
#    16  16   4   8
#     4  12  24  42  64  93 124 161 205 253 309 368
#     4  10  20  40  66  86 125 171 199 248 304 354
#     4   8  20  36  70  86 128 164 216 240 302 346
#     4  12  24  41  66  89 120 159 202 253 314 368
#
# _framework density 19.842514000000001
#
# number of rings (size 3 to 8) (size 9 to 14) (size 15 to 20)
#    1.091    0.000    3.636    3.273    0.000    4.364 
#    0.000    5.455    0.000    0.000    0.000    0.000 
#    0.000    0.000    0.000    0.000    0.000    0.000 
#
# Total GULP energy -122478.175593 kJ/mol
# GULP energy per Si atom -5567.189800 kJ/mol
# Density = 1.979735 g / cm^3
# Si number density = 19.842514 Si / 1000 Ang^3
#
#
#
# Elastic Constant Matrix: (Units=GPa)
#
#
# Indices 1 2 3 4 5 6 
#
# 1 81.2674 19.9603 33.2002 0.0000 0.0000 0.0000
# 2 19.9603 118.6425 13.4390 0.0000 0.0000 0.0000
# 3 33.2002 13.4390 137.5571 0.0000 0.0000 0.0000
# 4 0.0000 0.0000 0.0000 8.6994 0.0000 0.0000
# 5 0.0000 0.0000 0.0000 0.0000 11.9682 0.0000
# 6 0.0000 0.0000 0.0000 0.0000 0.0000 83.4364
#
#
#
# Elastic Compliance Matrix: (Units=1/GPa)
#
#
# Indices 1 2 3 4 5 6 
#
# 1 0.014110 -0.002010 -0.003209 0.000000 0.000000 0.000000
# 2 -0.002010 0.008809 -0.000375 0.000000 0.000000 0.000000
# 3 -0.003209 -0.000375 0.008081 0.000000 0.000000 0.000000
# 4 0.000000 0.000000 0.000000 0.114950 0.000000 0.000000
# 5 0.000000 0.000000 0.000000 0.000000 0.083554 0.000000
# 6 0.000000 0.000000 0.000000 0.000000 0.000000 0.011985
#
#
# Mechanical properties :
#
#
# Convention : Reuss Voigt Hill
#
# Bulk Modulus (GPa) = 50.47843 52.29623 51.38733
# Shear Modulus (GPa) = 19.28392 38.87865 29.08128
#
# Velocity S-wave (km/s) = 3.12083 4.43127 3.83248
# Velocity P-wave (km/s) = 6.20330 7.25220 6.74816
#
# Compressibility (1/GPa) = 0.01981044
#
# Stress axis : x y z
#
# Youngs Moduli (GPa) = 70.87264 113.51477 123.74828
#
# Poissons Ratio (x) = 0.22820 0.39712
# Poissons Ratio (y) = 0.14248 0.04646
# Poissons Ratio (z) = 0.22744 0.04262
#
# Static dielectric constant tensor:
#      x y z
#    x 1.728980 0.000000 0.000000 
#    y 0.000000 1.676170 0.000000 
#    z 0.000000 0.000000 1.746060 
# 
# From -- ./inp_files/22260.got.cif
#   From: 2010.05.17/outbox.cif.g08.bks.cpg/sg66_12_cif.got.tgz:22260.got - 2010.06.03 17:51:23.
