data_PCOD9497067
_publ_section_title
;
Structure prediction by ZEFSAII (Michael W. Deem and Ramdas Pophale) SiO2 
 PCOD9497067
Probable space group: C C C M
;
_chemical_formula_sum "Si O2"
_cell_formula_units_Z 64
_cell_length_a 8.598589
_cell_length_b 21.687608
_cell_length_c 15.517559
_cell_angle_alpha 90.000000
_cell_angle_beta 90.000000
_cell_angle_gamma 90.000000
_cell_volume 2893.758280
_symmetry_space_group_name_H-M "C C C M"
_symmetry_group_IT_number 66
_symmetry_cell_setting 'orthorhombic'
loop_
_space_group_symop_operation_xyz
x,y,z
-x,-y,z
x,-y,1/2-z
-x,y,1/2-z
-x,-y,-z
x,y,-z
-x,y,1/2+z
x,-y,1/2+z
1/2+x,1/2+y,z
1/2-x,1/2-y,z
1/2+x,1/2-y,1/2-z
1/2-x,1/2+y,1/2-z
1/2-x,1/2-y,-z
1/2+x,1/2+y,-z
1/2-x,1/2+y,1/2+z
1/2+x,1/2-y,1/2+z
loop_
_atom_site_type_symbol
_atom_site_label
_atom_site_fract_x
_atom_site_fract_y
_atom_site_fract_z
Si Si1 0.918105 0.784559 0.596244
Si Si2 0.590282 0.830054 0.841044
Si Si3 0.840746 0.891654 0.730364
Si Si4 0.392815 0.940418 0.904459
O O1 0.941589 0.809574 0.500000
O O2 0.750000 0.750000 0.596795
O O3 0.895079 0.836315 0.667455
O O4 0.056548 0.736400 0.617483
O O5 0.500000 0.825585 0.750000
O O6 0.753528 0.859625 0.811426
O O7 0.501367 0.880110 0.898442
O O8 0.723903 0.933045 0.674873
O O9 0.000000 0.925736 0.750000
O O10 0.500000 0.000000 0.894066
O O11 0.319474 0.942396 0.000000
#
# Coordination Sequence:
#
# PCOD9497067 Si02
#       4
#    16  16  16  16
#     4  11  20  34  59  89 129 172 210 251 310 381
#     4  10  20  35  57  89 123 166 212 252 305 374
#     4  11  24  38  61  95 132 165 209 264 320 383
#     4  10  21  41  66  88 116 161 215 265 320 379
#
# _framework density 22.116565999999999
#
# number of rings (size 3 to 8) (size 9 to 14) (size 15 to 20)
#    0.000    1.500    5.000    2.250    0.000    4.500 
#    0.000    8.750    0.000    3.000    0.000    0.000 
#    0.000    0.000    0.000    0.000    0.000    0.000 
#
# Total GULP energy -178756.031951 kJ/mol
# GULP energy per Si atom -5586.125998 kJ/mol
# Density = 2.206623 g / cm^3
# Si number density = 22.116566 Si / 1000 Ang^3
#
#
#
# Elastic Constant Matrix: (Units=GPa)
#
#
# Indices 1 2 3 4 5 6 
#
# 1 107.2290 1.2331 27.1605 0.0000 0.0000 0.0000
# 2 1.2331 68.6721 14.4688 0.0000 0.0000 0.0000
# 3 27.1605 14.4688 77.4883 0.0000 0.0000 0.0000
# 4 0.0000 0.0000 0.0000 30.9261 0.0000 0.0000
# 5 0.0000 0.0000 0.0000 0.0000 14.3425 0.0000
# 6 0.0000 0.0000 0.0000 0.0000 0.0000 14.0241
#
#
#
# Elastic Compliance Matrix: (Units=1/GPa)
#
#
# Indices 1 2 3 4 5 6 
#
# 1 0.010258 0.000597 -0.003707 0.000000 0.000000 0.000000
# 2 0.000597 0.015193 -0.003046 0.000000 0.000000 0.000000
# 3 -0.003707 -0.003046 0.014773 0.000000 0.000000 0.000000
# 4 0.000000 0.000000 0.000000 0.032335 0.000000 0.000000
# 5 0.000000 0.000000 0.000000 0.000000 0.069723 0.000000
# 6 0.000000 0.000000 0.000000 0.000000 0.000000 0.071306
#
#
# Mechanical properties :
#
#
# Convention : Reuss Voigt Hill
#
# Bulk Modulus (GPa) = 35.82708 37.67934 36.75321
# Shear Modulus (GPa) = 21.25813 25.89368 23.57591
#
# Velocity S-wave (km/s) = 3.10366 3.42538 3.26848
# Velocity P-wave (km/s) = 5.39240 5.71997 5.55860
#
# Compressibility (1/GPa) = 0.02791185
#
# Stress axis : x y z
#
# Youngs Moduli (GPa) = 97.48564 65.81960 67.68978
#
# Poissons Ratio (x) = -0.03928 0.25092
# Poissons Ratio (y) = -0.05818 0.20619
# Poissons Ratio (z) = 0.36137 0.20049
#
# Static dielectric constant tensor:
#      x y z
#    x 1.903340 0.000000 0.000000 
#    y 0.000000 1.807360 0.000000 
#    z 0.000000 0.000000 1.820880 
# 
# From -- ./inp_files/24168.got.cif
#   From: 2010.05.17/outbox.cif.g08.bks.cpg/sg66_13_cif.got.tgz:24168.got - 2010.06.03 17:51:23.
