data_PCOD9497011
_publ_section_title
;
Structure prediction by ZEFSAII (Michael W. Deem and Ramdas Pophale) SiO2 
 PCOD9497011
Probable space group: C C C M
;
_chemical_formula_sum "Si O2"
_cell_formula_units_Z 104
_cell_length_a 27.309719
_cell_length_b 7.112117
_cell_length_c 22.224507
_cell_angle_alpha 90.000000
_cell_angle_beta 90.000000
_cell_angle_gamma 90.000000
_cell_volume 4316.664145
_symmetry_space_group_name_H-M "C C C M"
_symmetry_group_IT_number 66
_symmetry_cell_setting 'orthorhombic'
loop_
_space_group_symop_operation_xyz
x,y,z
-x,-y,z
x,-y,1/2-z
-x,y,1/2-z
-x,-y,-z
x,y,-z
-x,y,1/2+z
x,-y,1/2+z
1/2+x,1/2+y,z
1/2-x,1/2-y,z
1/2+x,1/2-y,1/2-z
1/2-x,1/2+y,1/2-z
1/2-x,1/2-y,-z
1/2+x,1/2+y,-z
1/2-x,1/2+y,1/2+z
1/2+x,1/2-y,1/2+z
loop_
_atom_site_type_symbol
_atom_site_label
_atom_site_fract_x
_atom_site_fract_y
_atom_site_fract_z
Si Si1 0.750000 0.750000 0.173291
Si Si2 0.087097 0.701492 0.633424
Si Si3 0.604020 0.218960 0.136775
Si Si4 0.698714 0.683998 0.570289
Si Si5 0.492301 0.229356 0.569405
Si Si6 0.154453 0.730416 0.741827
Si Si7 0.182773 0.735859 0.432014
O O1 0.793166 0.809111 0.219504
O O2 0.785490 0.648426 0.122817
O O3 0.082044 0.484626 0.652766
O O4 0.116680 0.782230 0.689110
O O5 0.125528 0.702620 0.578362
O O6 0.036746 0.788885 0.612407
O O7 0.651567 0.210734 0.094995
O O8 0.559109 0.296291 0.097559
O O9 0.628600 0.298031 0.197221
O O10 0.700738 0.725328 0.500000
O O11 0.750000 0.750000 0.598413
O O12 0.690550 0.460348 0.576155
O O13 0.496369 0.288046 0.500000
O O14 0.500000 0.000000 0.567910
O O15 0.161129 0.500000 0.750000
O O16 0.197499 0.681645 0.500000
#
# Coordination Sequence:
#
# PCOD9497011 Si02
#       7
#     8  16  16  16  16  16  16
#     4  10  21  34  52  78 107 146 190 228 264 328
#     4   9  19  36  56  82 111 140 186 228 271 327
#     4  10  20  35  56  79 110 148 182 226 273 328
#     4  10  23  37  52  79 111 144 182 224 275 332
#     4   9  17  31  55  84 108 139 182 230 278 323
#     4   9  20  33  50  79 107 142 184 224 267 317
#     4  10  21  36  54  79 110 143 183 229 278 326
#
# _framework density 24.092676000000001
#
# number of rings (size 3 to 8) (size 9 to 14) (size 15 to 20)
#    0.000    2.462    0.000    1.154    7.538    2.462 
#    0.000    6.154    0.000    2.769    0.000    4.308 
#    0.000    0.000    0.000    0.000    0.000    0.000 
#
# Total GULP energy -289902.458978 kJ/mol
# GULP energy per Si atom -5575.047288 kJ/mol
# Density = 2.403784 g / cm^3
# Si number density = 24.092676 Si / 1000 Ang^3
#
#
#
# Elastic Constant Matrix: (Units=GPa)
#
#
# Indices 1 2 3 4 5 6 
#
# 1 196.6582 -14.5197 69.1904 0.0000 0.0000 0.0000
# 2 -14.5197 96.5989 -3.1710 0.0000 0.0000 0.0000
# 3 69.1904 -3.1710 136.4505 0.0000 0.0000 0.0000
# 4 0.0000 0.0000 0.0000 -1.1535 0.0000 0.0000
# 5 0.0000 0.0000 0.0000 0.0000 40.1597 0.0000
# 6 0.0000 0.0000 0.0000 0.0000 0.0000 5.4787
#
#
#
# Elastic Compliance Matrix: (Units=1/GPa)
#
#
# Indices 1 2 3 4 5 6 
#
# 1 0.006256 0.000837 -0.003153 0.000000 0.000000 0.000000
# 2 0.000837 0.010472 -0.000181 0.000000 0.000000 0.000000
# 3 -0.003153 -0.000181 0.008923 0.000000 0.000000 0.000000
# 4 0.000000 0.000000 0.000000 -0.866944 0.000000 0.000000
# 5 0.000000 0.000000 0.000000 0.000000 0.024901 0.000000
# 6 0.000000 0.000000 0.000000 0.000000 0.000000 0.182526
#
#
# Mechanical properties :
#
#
# Convention : Reuss Voigt Hill
#
# Bulk Modulus (GPa) = 48.40926 59.18967 53.79946
# Shear Modulus (GPa) = -8.03875 34.11084 13.03604
#
# Velocity S-wave (km/s) = -1.82862 3.76682 2.32863
# Velocity P-wave (km/s) = 3.95956 6.59844 5.44139
#
# Compressibility (1/GPa) = 0.02065720
#
# Stress axis : x y z
#
# Youngs Moduli (GPa) = 159.84639 95.49344 112.06787
#
# Poissons Ratio (x) = -0.07991 0.35333
# Poissons Ratio (y) = -0.13377 0.02028
# Poissons Ratio (z) = 0.50396 0.01728
#
# Static dielectric constant tensor:
#      x y z
#    x 1.898830 0.000000 0.000000 
#    y 0.000000 2.146110 0.000000 
#    z 0.000000 0.000000 1.898840 
# 
# From -- ./inp_files/53037.got.cif
#   From: 2010.05.17/outbox.cif.g08.bks.cpg/sg66_27_cif.got.tgz:53037.got - 2010.06.03 17:51:23.
