data_PCOD9497284
_publ_section_title
;
Structure prediction by ZEFSAII (Michael W. Deem and Ramdas Pophale) SiO2 
 PCOD9497284
Probable space group: C C C M
;
_chemical_formula_sum "Si O2"
_cell_formula_units_Z 112
_cell_length_a 12.095391
_cell_length_b 28.171543
_cell_length_c 14.337215
_cell_angle_alpha 90.000000
_cell_angle_beta 90.000000
_cell_angle_gamma 90.000000
_cell_volume 4885.346191
_symmetry_space_group_name_H-M "C C C M"
_symmetry_group_IT_number 66
_symmetry_cell_setting 'orthorhombic'
loop_
_space_group_symop_operation_xyz
x,y,z
-x,-y,z
x,-y,1/2-z
-x,y,1/2-z
-x,-y,-z
x,y,-z
-x,y,1/2+z
x,-y,1/2+z
1/2+x,1/2+y,z
1/2-x,1/2-y,z
1/2+x,1/2-y,1/2-z
1/2-x,1/2+y,1/2-z
1/2-x,1/2-y,-z
1/2+x,1/2+y,-z
1/2-x,1/2+y,1/2+z
1/2+x,1/2-y,1/2+z
loop_
_atom_site_type_symbol
_atom_site_label
_atom_site_fract_x
_atom_site_fract_y
_atom_site_fract_z
Si Si1 0.454616 0.049052 0.145223
Si Si2 0.203549 0.889122 0.105413
Si Si3 0.958039 0.657519 0.891004
Si Si4 0.728710 0.696178 0.886701
Si Si5 0.943583 0.878381 0.888784
Si Si6 0.330903 0.210021 0.608152
Si Si7 0.785697 0.948706 0.783038
O O1 0.500000 0.048696 0.250000
O O2 0.486790 0.101680 0.110898
O O3 0.321819 0.046656 0.151604
O O4 0.500000 0.000000 0.102078
O O5 0.262708 0.838640 0.106072
O O6 0.248291 0.921501 0.188197
O O7 0.073880 0.880670 0.125385
O O8 0.215181 0.909129 0.000000
O O9 0.051165 0.692975 0.851291
O O10 0.834579 0.665761 0.853063
O O11 0.951563 0.670134 0.000000
O O12 0.750000 0.750000 0.858831
O O13 0.616187 0.670368 0.857024
O O14 0.725577 0.695979 0.000000
O O15 0.879988 0.919910 0.835762
O O16 0.925079 0.883373 0.000000
O O17 0.352083 0.225438 0.500000
O O18 0.250000 0.250000 0.649426
O O19 0.824671 0.000000 0.750000
#
# Coordination Sequence:
#
# PCOD9497284 Si02
#       7
#    16  16  16  16  16  16  16
#     4  11  22  39  61  86 121 165 207 257 325 377
#     4  10  23  42  64  91 126 167 213 260 312 376
#     4  10  20  36  61  92 123 162 214 263 316 383
#     4   9  18  33  59  92 126 165 204 252 313 374
#     4  10  22  41  65  94 127 164 210 262 312 376
#     4   9  19  35  59  90 126 169 213 261 315 376
#     4  12  24  42  67  91 123 162 210 264 322 383
#
# _framework density 22.925704
#
# number of rings (size 3 to 8) (size 9 to 14) (size 15 to 20)
#    0.000    1.857    2.857    1.286    2.000    2.000 
#    0.000    2.143    0.000    0.429    0.000    0.000 
#    0.000    0.000    0.000    0.000    0.000    0.000 
#
# Total GULP energy -312882.380121 kJ/mol
# GULP energy per Si atom -5587.185359 kJ/mol
# Density = 2.287352 g / cm^3
# Si number density = 22.925704 Si / 1000 Ang^3
#
#
#
# Elastic Constant Matrix: (Units=GPa)
#
#
# Indices 1 2 3 4 5 6 
#
# 1 69.7438 7.1155 17.9623 0.0000 0.0000 0.0000
# 2 7.1155 107.5492 5.9748 0.0000 0.0000 0.0000
# 3 17.9623 5.9748 61.5237 0.0000 0.0000 0.0000
# 4 0.0000 0.0000 0.0000 27.8145 0.0000 0.0000
# 5 0.0000 0.0000 0.0000 0.0000 7.5553 0.0000
# 6 0.0000 0.0000 0.0000 0.0000 0.0000 23.0147
#
#
#
# Elastic Compliance Matrix: (Units=1/GPa)
#
#
# Indices 1 2 3 4 5 6 
#
# 1 0.015569 -0.000782 -0.004470 0.000000 0.000000 0.000000
# 2 -0.000782 0.009388 -0.000683 0.000000 0.000000 0.000000
# 3 -0.004470 -0.000683 0.017625 0.000000 0.000000 0.000000
# 4 0.000000 0.000000 0.000000 0.035952 0.000000 0.000000
# 5 0.000000 0.000000 0.000000 0.000000 0.132357 0.000000
# 6 0.000000 0.000000 0.000000 0.000000 0.000000 0.043450
#
#
# Mechanical properties :
#
#
# Convention : Reuss Voigt Hill
#
# Bulk Modulus (GPa) = 32.56008 33.43578 32.99793
# Shear Modulus (GPa) = 18.08653 25.52786 21.80720
#
# Velocity S-wave (km/s) = 2.81182 3.34054 3.08752
# Velocity P-wave (km/s) = 4.97745 5.43093 5.20913
#
# Compressibility (1/GPa) = 0.03071245
#
# Stress axis : x y z
#
# Youngs Moduli (GPa) = 64.22986 106.52173 56.73694
#
# Poissons Ratio (x) = 0.08327 0.25359
# Poissons Ratio (y) = 0.05021 0.03878
# Poissons Ratio (z) = 0.28708 0.07280
#
# Static dielectric constant tensor:
#      x y z
#    x 1.871420 0.000000 0.000000 
#    y 0.000000 1.842360 0.000000 
#    z 0.000000 0.000000 1.887440 
# 
# From -- ./inp_files/26981.got.cif
#   From: 2010.05.17/outbox.cif.g08.bks.cpg/sg66_14_cif.got.tgz:26981.got - 2010.06.03 17:51:23.
