data_PCOD9497640
_publ_section_title
;
Structure prediction by ZEFSAII (Michael W. Deem and Ramdas Pophale) SiO2 
 PCOD9497640
Probable space group: C C C M
;
_chemical_formula_sum "Si O2"
_cell_formula_units_Z 64
_cell_length_a 11.435973
_cell_length_b 17.696022
_cell_length_c 14.528068
_cell_angle_alpha 90.000000
_cell_angle_beta 90.000000
_cell_angle_gamma 90.000000
_cell_volume 2940.062988
_symmetry_space_group_name_H-M "C C C M"
_symmetry_group_IT_number 66
_symmetry_cell_setting 'orthorhombic'
loop_
_space_group_symop_operation_xyz
x,y,z
-x,-y,z
x,-y,1/2-z
-x,y,1/2-z
-x,-y,-z
x,y,-z
-x,y,1/2+z
x,-y,1/2+z
1/2+x,1/2+y,z
1/2-x,1/2-y,z
1/2+x,1/2-y,1/2-z
1/2-x,1/2+y,1/2-z
1/2-x,1/2-y,-z
1/2+x,1/2+y,-z
1/2-x,1/2+y,1/2+z
1/2+x,1/2-y,1/2+z
loop_
_atom_site_type_symbol
_atom_site_label
_atom_site_fract_x
_atom_site_fract_y
_atom_site_fract_z
Si Si1 0.624091 0.030888 0.108304
Si Si2 0.252887 0.665152 0.199189
Si Si3 0.968798 0.914135 0.606122
Si Si4 0.235071 0.121760 0.897440
O O1 0.660688 0.107550 0.156247
O O2 0.500000 0.000000 0.141462
O O3 0.720418 0.964505 0.118945
O O4 0.613501 0.045718 0.000000
O O5 0.250000 0.750000 0.162060
O O6 0.377093 0.626501 0.172520
O O7 0.226649 0.666662 0.307958
O O8 0.921560 0.916354 0.500000
O O9 0.094779 0.874811 0.602523
O O10 0.000000 0.000000 0.633182
O O11 0.277736 0.143591 0.000000
#
# Coordination Sequence:
#
# PCOD9497640 Si02
#       4
#    16  16  16  16
#     4  10  22  43  69  96 128 173 223 268 323 396
#     4  12  25  40  66 103 136 166 214 278 338 384
#     4  10  20  39  69  98 127 169 222 270 322 391
#     4  10  22  42  66  91 128 181 229 265 314 393
#
# _framework density 21.768241
#
# number of rings (size 3 to 8) (size 9 to 14) (size 15 to 20)
#    0.000    1.500    2.500    2.250    0.000    5.500 
#    9.000    0.000    0.000    0.000    0.000    0.000 
#    0.000    0.000    0.000    0.000    0.000    0.000 
#
# Total GULP energy -178852.911102 kJ/mol
# GULP energy per Si atom -5589.153472 kJ/mol
# Density = 2.171870 g / cm^3
# Si number density = 21.768241 Si / 1000 Ang^3
#
#
#
# Elastic Constant Matrix: (Units=GPa)
#
#
# Indices 1 2 3 4 5 6 
#
# 1 100.3202 48.3004 26.0941 0.0000 0.0000 0.0000
# 2 48.3004 126.1055 55.9403 0.0000 0.0000 0.0000
# 3 26.0941 55.9403 110.3499 0.0000 0.0000 0.0000
# 4 0.0000 0.0000 0.0000 -19.1330 0.0000 0.0000
# 5 0.0000 0.0000 0.0000 0.0000 -34.5870 0.0000
# 6 0.0000 0.0000 0.0000 0.0000 0.0000 14.8066
#
#
#
# Elastic Compliance Matrix: (Units=1/GPa)
#
#
# Indices 1 2 3 4 5 6 
#
# 1 0.012260 -0.004399 -0.000669 0.000000 0.000000 0.000000
# 2 -0.004399 0.011809 -0.004946 0.000000 0.000000 0.000000
# 3 -0.000669 -0.004946 0.011728 0.000000 0.000000 0.000000
# 4 0.000000 0.000000 0.000000 -0.052266 0.000000 0.000000
# 5 0.000000 0.000000 0.000000 0.000000 -0.028913 0.000000
# 6 0.000000 0.000000 0.000000 0.000000 0.000000 0.067538
#
#
# Mechanical properties :
#
#
# Convention : Reuss Voigt Hill
#
# Bulk Modulus (GPa) = 63.41884 66.38280 64.90082
# Shear Modulus (GPa) = 105.39588 5.98004 55.68796
#
# Velocity S-wave (km/s) = 6.96580 1.65925 5.06337
# Velocity P-wave (km/s) = 9.68986 5.85083 8.00393
#
# Compressibility (1/GPa) = 0.01576818
#
# Stress axis : x y z
#
# Youngs Moduli (GPa) = 81.56563 84.68230 85.26850
#
# Poissons Ratio (x) = 0.37252 0.05705
# Poissons Ratio (y) = 0.35881 0.42175
# Poissons Ratio (z) = 0.05457 0.41885
#
# Static dielectric constant tensor:
#      x y z
#    x 1.792810 0.000000 0.000000 
#    y 0.000000 1.765150 0.000000 
#    z 0.000000 0.000000 1.850950 
# 
# From -- ./inp_files/25754.got.cif
#   From: 2010.05.17/outbox.cif.g08.bks.cpg/sg66_13_cif.got.tgz:25754.got - 2010.06.03 17:51:23.
