data_PCOD9497176
_publ_section_title
;
Structure prediction by ZEFSAII (Michael W. Deem and Ramdas Pophale) SiO2 
 PCOD9497176
Probable space group: C C C M
;
_chemical_formula_sum "Si O2"
_cell_formula_units_Z 104
_cell_length_a 26.008547
_cell_length_b 24.303777
_cell_length_c 7.992517
_cell_angle_alpha 90.000000
_cell_angle_beta 90.000000
_cell_angle_gamma 90.000000
_cell_volume 5052.117362
_symmetry_space_group_name_H-M "C C C M"
_symmetry_group_IT_number 66
_symmetry_cell_setting 'orthorhombic'
loop_
_space_group_symop_operation_xyz
x,y,z
-x,-y,z
x,-y,1/2-z
-x,y,1/2-z
-x,-y,-z
x,y,-z
-x,y,1/2+z
x,-y,1/2+z
1/2+x,1/2+y,z
1/2-x,1/2-y,z
1/2+x,1/2-y,1/2-z
1/2-x,1/2+y,1/2-z
1/2-x,1/2-y,-z
1/2+x,1/2+y,-z
1/2-x,1/2+y,1/2+z
1/2+x,1/2-y,1/2+z
loop_
_atom_site_type_symbol
_atom_site_label
_atom_site_fract_x
_atom_site_fract_y
_atom_site_fract_z
Si Si1 0.426585 0.938119 0.696553
Si Si2 0.559005 0.328963 0.695482
Si Si3 0.768883 0.938209 0.701628
Si Si4 0.500000 0.150868 0.250000
Si Si5 0.906986 0.716948 0.697099
Si Si6 0.170927 0.376029 0.298069
Si Si7 0.886080 0.938709 0.700000
O O1 0.439211 0.929236 0.500000
O O2 0.459092 0.895740 0.809606
O O3 0.367743 0.921606 0.725385
O O4 0.436503 0.000000 0.750000
O O5 0.500000 0.322644 0.750000
O O6 0.562322 0.319390 0.500000
O O7 0.593821 0.282089 0.781203
O O8 0.578618 0.389870 0.735388
O O9 0.770671 0.936006 0.500000
O O10 0.727994 0.892386 0.758940
O O11 0.827283 0.931138 0.763880
O O12 0.751865 0.000000 0.750000
O O13 0.455390 0.193589 0.195940
O O14 0.919068 0.706032 0.500000
O O15 0.855942 0.682524 0.743150
O O16 0.170328 0.379756 0.500000
O O17 0.885348 0.935753 0.500000
O O18 0.902998 0.000000 0.750000
#
# Coordination Sequence:
#
# PCOD9497176 Si02
#       7
#    16  16  16   8  16  16  16
#     4  11  22  33  47  72 105 145 191 242 295 344
#     4  12  25  41  63  89 118 152 191 233 284 344
#     4   9  18  34  58  86 117 154 193 236 286 342
#     4  10  21  34  54  72 101 140 192 238 292 344
#     4  10  20  36  57  81 111 148 193 241 286 337
#     4   9  19  35  55  81 113 150 194 240 285 336
#     4  10  21  40  65  93 123 152 186 229 282 341
#
# _framework density 20.585428
#
# number of rings (size 3 to 8) (size 9 to 14) (size 15 to 20)
#    0.000    1.846    0.769    3.462    0.000    7.692 
#    0.000    2.308    0.000    4.615    0.000    0.000 
#    0.000    0.000    0.000    0.000    0.000    0.000 
#
# Total GULP energy -289692.353213 kJ/mol
# GULP energy per Si atom -5571.006793 kJ/mol
# Density = 2.053857 g / cm^3
# Si number density = 20.585428 Si / 1000 Ang^3
#
#
#
# Elastic Constant Matrix: (Units=GPa)
#
#
# Indices 1 2 3 4 5 6 
#
# 1 42.1574 39.8255 11.4053 0.0000 0.0000 0.0000
# 2 39.8255 144.5325 19.4894 0.0000 0.0000 0.0000
# 3 11.4053 19.4894 67.3346 0.0000 0.0000 0.0000
# 4 0.0000 0.0000 0.0000 21.0228 0.0000 0.0000
# 5 0.0000 0.0000 0.0000 0.0000 -2.0669 0.0000
# 6 0.0000 0.0000 0.0000 0.0000 0.0000 31.6380
#
#
#
# Elastic Compliance Matrix: (Units=1/GPa)
#
#
# Indices 1 2 3 4 5 6 
#
# 1 0.032658 -0.008588 -0.003046 0.000000 0.000000 0.000000
# 2 -0.008588 0.009458 -0.001283 0.000000 0.000000 0.000000
# 3 -0.003046 -0.001283 0.015738 0.000000 0.000000 0.000000
# 4 0.000000 0.000000 0.000000 0.047567 0.000000 0.000000
# 5 0.000000 0.000000 0.000000 0.000000 -0.483824 0.000000
# 6 0.000000 0.000000 0.000000 0.000000 0.000000 0.031608
#
#
# Mechanical properties :
#
#
# Convention : Reuss Voigt Hill
#
# Bulk Modulus (GPa) = 31.22987 43.94056 37.58521
# Shear Modulus (GPa) = -16.11410 22.33907 3.11248
#
# Velocity S-wave (km/s) = -2.80088 3.29779 1.23096
# Velocity P-wave (km/s) = 2.17805 5.99103 4.50757
#
# Compressibility (1/GPa) = 0.03202063
#
# Stress axis : x y z
#
# Youngs Moduli (GPa) = 30.62069 105.72779 63.53860
#
# Poissons Ratio (x) = 0.90799 0.19353
# Poissons Ratio (y) = 0.26297 0.08152
# Poissons Ratio (z) = 0.09327 0.13564
#
# Static dielectric constant tensor:
#      x y z
#    x 1.752370 0.000000 0.000000 
#    y 0.000000 1.758310 0.000000 
#    z 0.000000 0.000000 1.827300 
# 
# From -- ./inp_files/10534.got.cif
#   From: 2010.05.17/outbox.cif.g08.bks.cpg/sg66_6_cif.got.tgz:10534.got - 2010.06.03 17:51:23.
