data_PCOD9497081
_publ_section_title
;
Structure prediction by ZEFSAII (Michael W. Deem and Ramdas Pophale) SiO2 
 PCOD9497081
Probable space group: C C C M
;
_chemical_formula_sum "Si O2"
_cell_formula_units_Z 104
_cell_length_a 23.234471
_cell_length_b 15.985828
_cell_length_c 14.454489
_cell_angle_alpha 90.000000
_cell_angle_beta 90.000000
_cell_angle_gamma 90.000000
_cell_volume 5368.718929
_symmetry_space_group_name_H-M "C C C M"
_symmetry_group_IT_number 66
_symmetry_cell_setting 'orthorhombic'
loop_
_space_group_symop_operation_xyz
x,y,z
-x,-y,z
x,-y,1/2-z
-x,y,1/2-z
-x,-y,-z
x,y,-z
-x,y,1/2+z
x,-y,1/2+z
1/2+x,1/2+y,z
1/2-x,1/2-y,z
1/2+x,1/2-y,1/2-z
1/2-x,1/2+y,1/2-z
1/2-x,1/2-y,-z
1/2+x,1/2+y,-z
1/2-x,1/2+y,1/2+z
1/2+x,1/2-y,1/2+z
loop_
_atom_site_type_symbol
_atom_site_label
_atom_site_fract_x
_atom_site_fract_y
_atom_site_fract_z
Si Si1 0.096590 0.331338 0.250610
Si Si2 0.501359 0.777645 0.887861
Si Si3 0.170069 0.500000 0.750000
Si Si4 0.983579 0.089162 0.895167
Si Si5 0.239957 0.072579 0.895956
Si Si6 0.198352 0.199493 0.749886
Si Si7 0.140369 0.046608 0.344363
O O1 0.053544 0.326009 0.162464
O O2 0.129714 0.418855 0.262596
O O3 0.144342 0.259665 0.236135
O O4 0.057031 0.311014 0.339962
O O5 0.504950 0.678718 0.859619
O O6 0.501112 0.783695 0.000000
O O7 0.212790 0.476764 0.834893
O O8 0.914637 0.084845 0.894066
O O9 0.006483 0.086772 0.000000
O O10 0.000000 0.000000 0.852046
O O11 0.223989 0.157845 0.842776
O O12 0.180855 0.019009 0.895994
O O13 0.260020 0.086318 0.000000
O O14 0.250000 0.250000 0.704404
O O15 0.179880 0.122584 0.687263
O O16 0.121124 0.000000 0.250000
#
# Coordination Sequence:
#
# PCOD9497081 Si02
#       7
#    16  16   8  16  16  16  16
#     4  11  24  43  69  89 127 171 208 271 327 372
#     4  10  24  43  64  96 126 163 220 267 316 381
#     4  12  24  47  64  90 123 164 218 266 326 386
#     4  10  21  35  55  87 126 161 197 244 302 373
#     4  11  23  39  63  96 131 166 207 257 313 384
#     4  11  20  40  64  93 129 165 207 253 316 381
#     4  10  20  35  58  86 123 164 202 244 294 373
#
# _framework density 19.371473999999999
#
# number of rings (size 3 to 8) (size 9 to 14) (size 15 to 20)
#    0.000    1.385    5.385    0.462    4.308    3.692 
#    0.000    0.769    0.000    2.308    0.000    0.000 
#    0.000    0.000    0.000    0.000    0.000    0.000 
#
# Total GULP energy -290051.779573 kJ/mol
# GULP energy per Si atom -5577.918838 kJ/mol
# Density = 1.932738 g / cm^3
# Si number density = 19.371474 Si / 1000 Ang^3
#
#
#
# Elastic Constant Matrix: (Units=GPa)
#
#
# Indices 1 2 3 4 5 6 
#
# 1 91.3763 26.7950 27.2935 0.0000 0.0000 0.0000
# 2 26.7950 95.8991 20.2472 0.0000 0.0000 0.0000
# 3 27.2935 20.2472 106.0744 0.0000 0.0000 0.0000
# 4 0.0000 0.0000 0.0000 5.0686 0.0000 0.0000
# 5 0.0000 0.0000 0.0000 0.0000 23.5198 0.0000
# 6 0.0000 0.0000 0.0000 0.0000 0.0000 41.1838
#
#
#
# Elastic Compliance Matrix: (Units=1/GPa)
#
#
# Indices 1 2 3 4 5 6 
#
# 1 0.012612 -0.002958 -0.002680 0.000000 0.000000 0.000000
# 2 -0.002958 0.011559 -0.001445 0.000000 0.000000 0.000000
# 3 -0.002680 -0.001445 0.010393 0.000000 0.000000 0.000000
# 4 0.000000 0.000000 0.000000 0.197294 0.000000 0.000000
# 5 0.000000 0.000000 0.000000 0.000000 0.042517 0.000000
# 6 0.000000 0.000000 0.000000 0.000000 0.000000 0.024281
#
#
# Mechanical properties :
#
#
# Convention : Reuss Voigt Hill
#
# Bulk Modulus (GPa) = 49.02789 49.11344 49.07067
# Shear Modulus (GPa) = 15.64345 28.55539 22.09942
#
# Velocity S-wave (km/s) = 2.84483 3.84356 3.38127
# Velocity P-wave (km/s) = 6.01290 6.71608 6.37420
#
# Compressibility (1/GPa) = 0.02039655
#
# Stress axis : x y z
#
# Youngs Moduli (GPa) = 79.29106 86.51096 96.21932
#
# Poissons Ratio (x) = 0.25589 0.25791
# Poissons Ratio (y) = 0.23453 0.13907
# Poissons Ratio (z) = 0.21254 0.12504
#
# Static dielectric constant tensor:
#      x y z
#    x 1.693470 0.000000 0.000000 
#    y 0.000000 1.669010 0.000000 
#    z 0.000000 0.000000 1.712760 
# 
# From -- ./inp_files/32510.got.cif
#   From: 2010.05.17/outbox.cif.g08.bks.cpg/sg66_17_cif.got.tgz:32510.got - 2010.06.03 17:51:23.
