data_PCOD9497870
_publ_section_title
;
Structure prediction by ZEFSAII (Michael W. Deem and Ramdas Pophale) SiO2 
 PCOD9497870
Probable space group: C C C M
;
_chemical_formula_sum "Si O2"
_cell_formula_units_Z 116
_cell_length_a 27.269267
_cell_length_b 23.853169
_cell_length_c 7.494614
_cell_angle_alpha 90.000000
_cell_angle_beta 90.000000
_cell_angle_gamma 90.000000
_cell_volume 4874.934888
_symmetry_space_group_name_H-M "C C C M"
_symmetry_group_IT_number 66
_symmetry_cell_setting 'orthorhombic'
loop_
_space_group_symop_operation_xyz
x,y,z
-x,-y,z
x,-y,1/2-z
-x,y,1/2-z
-x,-y,-z
x,y,-z
-x,y,1/2+z
x,-y,1/2+z
1/2+x,1/2+y,z
1/2-x,1/2-y,z
1/2+x,1/2-y,1/2-z
1/2-x,1/2+y,1/2-z
1/2-x,1/2-y,-z
1/2+x,1/2+y,-z
1/2-x,1/2+y,1/2+z
1/2+x,1/2-y,1/2+z
loop_
_atom_site_type_symbol
_atom_site_label
_atom_site_fract_x
_atom_site_fract_y
_atom_site_fract_z
Si Si1 0.210906 0.119065 0.207489
Si Si2 0.381348 0.562206 0.713915
Si Si3 0.919583 0.411182 0.719348
Si Si4 0.057439 0.285594 0.212227
Si Si5 0.306452 0.258684 0.711782
Si Si6 0.500000 0.000000 0.750000
Si Si7 0.820268 0.366638 0.286805
Si Si8 0.942210 0.833493 0.785744
O O1 0.173579 0.073754 0.284009
O O2 0.182995 0.179333 0.215143
O O3 0.265494 0.123804 0.287239
O O4 0.218743 0.106092 0.000000
O O5 0.398873 0.500000 0.750000
O O6 0.379396 0.568326 0.500000
O O7 0.415569 0.611617 0.784409
O O8 0.924964 0.417358 0.500000
O O9 0.931701 0.347780 0.776722
O O10 0.958211 0.453871 0.805201
O O11 0.861871 0.411239 0.769119
O O12 0.078206 0.226498 0.283647
O O13 0.000000 0.278801 0.250000
O O14 0.066879 0.287491 0.000000
O O15 0.306079 0.264002 0.500000
O O16 0.250000 0.250000 0.776240
O O17 0.332673 0.199576 0.754323
O O18 0.819358 0.370815 0.500000
O O19 0.000000 0.838107 0.750000
O O20 0.936541 0.831394 0.000000
#
# Coordination Sequence:
#
# PCOD9497870 Si02
#       8
#    16  16  16  16  16   4  16  16
#     4   9  18  34  56  80 110 151 196 233 275 342
#     4  10  22  38  56  80 110 149 190 232 282 337
#     4  10  21  36  58  81 109 150 193 237 287 345
#     4   9  17  33  55  80 107 139 177 224 276 327
#     4   9  17  30  51  83 120 147 176 228 292 341
#     4  12  22  40  56  82 120 148 192 248 312 348
#     4   9  18  34  56  82 110 149 197 235 276 340
#     4   9  19  35  57  82 111 142 182 230 277 329
#
# _framework density 23.795189000000001
#
# number of rings (size 3 to 8) (size 9 to 14) (size 15 to 20)
#    0.000    2.621    0.690    0.621    1.931    3.034 
#    1.241    3.448    0.000    0.000    0.000    0.000 
#    0.000    0.000    0.000    0.000    0.000    0.000 
#
# Total GULP energy -323223.024085 kJ/mol
# GULP energy per Si atom -5572.810760 kJ/mol
# Density = 2.374103 g / cm^3
# Si number density = 23.795189 Si / 1000 Ang^3
#
#
#
# Elastic Constant Matrix: (Units=GPa)
#
#
# Indices 1 2 3 4 5 6 
#
# 1 119.6022 73.3788 3.9287 0.0000 0.0000 0.0000
# 2 73.3788 171.5675 5.0287 0.0000 0.0000 0.0000
# 3 3.9287 5.0287 81.4344 0.0000 0.0000 0.0000
# 4 0.0000 0.0000 0.0000 -10.0750 0.0000 0.0000
# 5 0.0000 0.0000 0.0000 0.0000 8.1010 0.0000
# 6 0.0000 0.0000 0.0000 0.0000 0.0000 49.5095
#
#
#
# Elastic Compliance Matrix: (Units=1/GPa)
#
#
# Indices 1 2 3 4 5 6 
#
# 1 0.011341 -0.004843 -0.000248 0.000000 0.000000 0.000000
# 2 -0.004843 0.007907 -0.000255 0.000000 0.000000 0.000000
# 3 -0.000248 -0.000255 0.012308 0.000000 0.000000 0.000000
# 4 0.000000 0.000000 0.000000 -0.099256 0.000000 0.000000
# 5 0.000000 0.000000 0.000000 0.000000 0.123441 0.000000
# 6 0.000000 0.000000 0.000000 0.000000 0.000000 0.020198
#
#
# Mechanical properties :
#
#
# Convention : Reuss Voigt Hill
#
# Bulk Modulus (GPa) = 47.92946 59.69742 53.81344
# Shear Modulus (GPa) = 53.42752 28.85831 41.14292
#
# Velocity S-wave (km/s) = 4.74361 3.48628 4.16269
# Velocity P-wave (km/s) = 7.08440 6.43024 6.76523
#
# Compressibility (1/GPa) = 0.02086399
#
# Stress axis : x y z
#
# Youngs Moduli (GPa) = 88.17949 126.46357 81.25120
#
# Poissons Ratio (x) = 0.61247 0.02015
# Poissons Ratio (y) = 0.42706 0.02069
# Poissons Ratio (z) = 0.02187 0.03220
#
# Static dielectric constant tensor:
#      x y z
#    x 1.972060 0.000000 0.000000 
#    y 0.000000 1.905160 0.000000 
#    z 0.000000 0.000000 1.492020 
# 
# From -- ./inp_files/10590.got.cif
#   From: 2010.05.17/outbox.cif.g08.bks.cpg/sg66_6_cif.got.tgz:10590.got - 2010.06.03 17:51:23.
