data_PCOD9497195
_publ_section_title
;
Structure prediction by ZEFSAII (Michael W. Deem and Ramdas Pophale) SiO2 
 PCOD9497195
Probable space group: C C C M
;
_chemical_formula_sum "Si O2"
_cell_formula_units_Z 80
_cell_length_a 29.041670
_cell_length_b 8.581927
_cell_length_c 15.848963
_cell_angle_alpha 90.000000
_cell_angle_beta 90.000000
_cell_angle_gamma 90.000000
_cell_volume 3950.092391
_symmetry_space_group_name_H-M "C C C M"
_symmetry_group_IT_number 66
_symmetry_cell_setting 'orthorhombic'
loop_
_space_group_symop_operation_xyz
x,y,z
-x,-y,z
x,-y,1/2-z
-x,y,1/2-z
-x,-y,-z
x,y,-z
-x,y,1/2+z
x,-y,1/2+z
1/2+x,1/2+y,z
1/2-x,1/2-y,z
1/2+x,1/2-y,1/2-z
1/2-x,1/2+y,1/2-z
1/2-x,1/2-y,-z
1/2+x,1/2+y,-z
1/2-x,1/2+y,1/2+z
1/2+x,1/2-y,1/2+z
loop_
_atom_site_type_symbol
_atom_site_label
_atom_site_fract_x
_atom_site_fract_y
_atom_site_fract_z
Si Si1 0.798579 0.685385 0.258019
Si Si2 0.125068 0.105481 0.666429
Si Si3 0.460891 0.784977 0.102375
Si Si4 0.344040 0.301551 0.904365
Si Si5 0.060404 0.359142 0.102122
O O1 0.798967 0.500000 0.250000
O O2 0.750000 0.750000 0.290669
O O3 0.840085 0.753197 0.314583
O O4 0.806547 0.756703 0.164645
O O5 0.075359 0.166218 0.640012
O O6 0.122478 0.000000 0.750000
O O7 0.145998 0.985472 0.599057
O O8 0.514115 0.770027 0.130083
O O9 0.445126 0.960436 0.126686
O O10 0.459446 0.774638 0.000000
O O11 0.391428 0.217001 0.874260
O O12 0.333714 0.252441 0.000000
O O13 0.059263 0.356524 0.000000
#
# Coordination Sequence:
#
# PCOD9497195 Si02
#       5
#    16  16  16  16  16
#     4  11  23  42  63  81 108 144 180 224 282 336
#     4  10  21  35  53  79 110 146 182 223 274 326
#     4   9  16  31  54  78 108 146 187 224 264 318
#     4  10  20  36  58  85 115 145 184 228 270 322
#     4   8  16  30  52  81 109 142 181 224 272 317
#
# _framework density 20.252690999999999
#
# number of rings (size 3 to 8) (size 9 to 14) (size 15 to 20)
#    0.000    2.400    0.000    4.800    0.000    1.200 
#    0.000   11.000    0.000   15.000    0.000    0.000 
#    0.000    0.000    0.000    0.000    0.000    0.000 
#
# Total GULP energy -223312.691192 kJ/mol
# GULP energy per Si atom -5582.817280 kJ/mol
# Density = 2.020660 g / cm^3
# Si number density = 20.252691 Si / 1000 Ang^3
#
#
#
# Elastic Constant Matrix: (Units=GPa)
#
#
# Indices 1 2 3 4 5 6 
#
# 1 59.3195 7.0391 -1.4311 0.0000 0.0000 0.0000
# 2 7.0391 67.8139 -11.5871 0.0000 0.0000 0.0000
# 3 -1.4311 -11.5871 28.5131 0.0000 0.0000 0.0000
# 4 0.0000 0.0000 0.0000 11.1850 0.0000 0.0000
# 5 0.0000 0.0000 0.0000 0.0000 27.1373 0.0000
# 6 0.0000 0.0000 0.0000 0.0000 0.0000 31.1320
#
#
#
# Elastic Compliance Matrix: (Units=1/GPa)
#
#
# Indices 1 2 3 4 5 6 
#
# 1 0.017069 -0.001747 0.000147 0.000000 0.000000 0.000000
# 2 -0.001747 0.016025 0.006425 0.000000 0.000000 0.000000
# 3 0.000147 0.006425 0.037690 0.000000 0.000000 0.000000
# 4 0.000000 0.000000 0.000000 0.089405 0.000000 0.000000
# 5 0.000000 0.000000 0.000000 0.000000 0.036850 0.000000
# 6 0.000000 0.000000 0.000000 0.000000 0.000000 0.032121
#
#
# Mechanical properties :
#
#
# Convention : Reuss Voigt Hill
#
# Bulk Modulus (GPa) = 12.43261 15.96537 14.19899
# Shear Modulus (GPa) = 20.29870 24.66591 22.48230
#
# Velocity S-wave (km/s) = 3.16930 3.49364 3.33542
# Velocity P-wave (km/s) = 4.42094 4.91673 4.67541
#
# Compressibility (1/GPa) = 0.08043363
#
# Stress axis : x y z
#
# Youngs Moduli (GPa) = 58.58686 62.40139 26.53238
#
# Poissons Ratio (x) = 0.10899 -0.00390
# Poissons Ratio (y) = 0.10233 -0.17046
# Poissons Ratio (z) = -0.00861 -0.40091
#
# Static dielectric constant tensor:
#      x y z
#    x 1.698110 0.000000 0.000000 
#    y 0.000000 1.718280 0.000000 
#    z 0.000000 0.000000 1.737790 
# 
# From -- ./inp_files/44064.got.cif
#   From: 2010.05.17/outbox.cif.g08.bks.cpg/sg66_23_cif.got.tgz:44064.got - 2010.06.03 17:51:23.
