data_PCOD9497893
_publ_section_title
;
Structure prediction by ZEFSAII (Michael W. Deem and Ramdas Pophale) SiO2 
 PCOD9497893
Probable space group: C C C M
;
_chemical_formula_sum "Si O2"
_cell_formula_units_Z 104
_cell_length_a 18.160105
_cell_length_b 14.558499
_cell_length_c 20.231633
_cell_angle_alpha 90.000000
_cell_angle_beta 90.000000
_cell_angle_gamma 90.000000
_cell_volume 5348.917439
_symmetry_space_group_name_H-M "C C C M"
_symmetry_group_IT_number 66
_symmetry_cell_setting 'orthorhombic'
loop_
_space_group_symop_operation_xyz
x,y,z
-x,-y,z
x,-y,1/2-z
-x,y,1/2-z
-x,-y,-z
x,y,-z
-x,y,1/2+z
x,-y,1/2+z
1/2+x,1/2+y,z
1/2-x,1/2-y,z
1/2+x,1/2-y,1/2-z
1/2-x,1/2+y,1/2-z
1/2-x,1/2-y,-z
1/2+x,1/2+y,-z
1/2-x,1/2+y,1/2+z
1/2+x,1/2-y,1/2+z
loop_
_atom_site_type_symbol
_atom_site_label
_atom_site_fract_x
_atom_site_fract_y
_atom_site_fract_z
Si Si1 0.660254 0.819755 0.624189
Si Si2 0.938750 0.825294 0.426618
Si Si3 0.297151 0.555260 0.078554
Si Si4 0.307891 0.579144 0.305010
Si Si5 0.444900 0.713852 0.311391
Si Si6 0.250000 0.250000 0.263668
Si Si7 0.413264 0.100131 0.743677
O O1 0.615808 0.762326 0.571669
O O2 0.731539 0.872806 0.597089
O O3 0.683661 0.751107 0.683978
O O4 0.604900 0.879861 0.667140
O O5 0.967626 0.845363 0.500000
O O6 0.879756 0.905054 0.407495
O O7 0.003232 0.799655 0.375590
O O8 0.286131 0.468687 0.126477
O O9 0.293072 0.537502 0.000000
O O10 0.314710 0.500000 0.250000
O O11 0.383185 0.635778 0.312951
O O12 0.252615 0.656791 0.277215
O O13 0.500000 0.700432 0.250000
O O14 0.405510 0.812894 0.295024
O O15 0.500000 0.088557 0.750000
O O16 0.375623 0.000000 0.750000
#
# Coordination Sequence:
#
# PCOD9497893 Si02
#       7
#    16  16  16  16  16   8  16
#     4  12  19  37  63  92 125 158 207 263 318 364
#     4  11  22  39  62  90 126 170 212 260 315 382
#     4  11  25  40  59  92 132 170 212 261 320 384
#     4  12  24  40  63  93 130 164 214 269 319 385
#     4  11  21  39  60  91 126 164 210 263 323 380
#     4  12  22  36  64 100 120 160 210 266 316 368
#     4  10  21  36  60  92 122 157 204 258 319 370
#
# _framework density 19.443186000000001
#
# number of rings (size 3 to 8) (size 9 to 14) (size 15 to 20)
#    0.000    0.769    7.692    1.385    2.154    4.000 
#    0.000    1.923    0.000    4.615    0.000    0.000 
#    0.000    0.000    0.000    0.000    0.000    0.000 
#
# Total GULP energy -289516.205353 kJ/mol
# GULP energy per Si atom -5567.619334 kJ/mol
# Density = 1.939893 g / cm^3
# Si number density = 19.443186 Si / 1000 Ang^3
#
#
#
# Elastic Constant Matrix: (Units=GPa)
#
#
# Indices 1 2 3 4 5 6 
#
# 1 84.0740 24.2801 39.2899 0.0000 0.0000 0.0000
# 2 24.2801 116.9473 53.1585 0.0000 0.0000 0.0000
# 3 39.2899 53.1585 133.2304 0.0000 0.0000 0.0000
# 4 0.0000 0.0000 0.0000 25.6119 0.0000 0.0000
# 5 0.0000 0.0000 0.0000 0.0000 26.2318 0.0000
# 6 0.0000 0.0000 0.0000 0.0000 0.0000 20.8078
#
#
#
# Elastic Compliance Matrix: (Units=1/GPa)
#
#
# Indices 1 2 3 4 5 6 
#
# 1 0.013944 -0.001253 -0.003612 0.000000 0.000000 0.000000
# 2 -0.001253 0.010558 -0.003843 0.000000 0.000000 0.000000
# 3 -0.003612 -0.003843 0.010104 0.000000 0.000000 0.000000
# 4 0.000000 0.000000 0.000000 0.039044 0.000000 0.000000
# 5 0.000000 0.000000 0.000000 0.000000 0.038122 0.000000
# 6 0.000000 0.000000 0.000000 0.000000 0.000000 0.048059
#
#
# Mechanical properties :
#
#
# Convention : Reuss Voigt Hill
#
# Bulk Modulus (GPa) = 58.17381 63.07872 60.62626
# Shear Modulus (GPa) = 27.32569 29.03185 28.17877
#
# Velocity S-wave (km/s) = 3.75295 3.86834 3.81108
# Velocity P-wave (km/s) = 6.98315 7.24328 7.11440
#
# Compressibility (1/GPa) = 0.01718987
#
# Stress axis : x y z
#
# Youngs Moduli (GPa) = 71.71419 94.71607 98.96696
#
# Poissons Ratio (x) = 0.11869 0.35749
# Poissons Ratio (y) = 0.08987 0.38033
# Poissons Ratio (z) = 0.25905 0.36399
#
# Static dielectric constant tensor:
#      x y z
#    x 1.735780 0.000000 0.000000 
#    y 0.000000 1.793670 0.000000 
#    z 0.000000 0.000000 1.662760 
# 
# From -- ./inp_files/42942.got.cif
#   From: 2010.05.17/outbox.cif.g08.bks.cpg/sg66_22_cif.got.tgz:42942.got - 2010.06.03 17:51:23.
