data_PCOD9497792
_publ_section_title
;
Structure prediction by ZEFSAII (Michael W. Deem and Ramdas Pophale) SiO2 
 PCOD9497792
Probable space group: C C C M
;
_chemical_formula_sum "Si O2"
_cell_formula_units_Z 56
_cell_length_a 34.225231
_cell_length_b 5.166686
_cell_length_c 14.892929
_cell_angle_alpha 90.000000
_cell_angle_beta 90.000000
_cell_angle_gamma 90.000000
_cell_volume 2633.531853
_symmetry_space_group_name_H-M "C C C M"
_symmetry_group_IT_number 66
_symmetry_cell_setting 'orthorhombic'
loop_
_space_group_symop_operation_xyz
x,y,z
-x,-y,z
x,-y,1/2-z
-x,y,1/2-z
-x,-y,-z
x,y,-z
-x,y,1/2+z
x,-y,1/2+z
1/2+x,1/2+y,z
1/2-x,1/2-y,z
1/2+x,1/2-y,1/2-z
1/2-x,1/2+y,1/2-z
1/2-x,1/2-y,-z
1/2+x,1/2+y,-z
1/2-x,1/2+y,1/2+z
1/2+x,1/2-y,1/2+z
loop_
_atom_site_type_symbol
_atom_site_label
_atom_site_fract_x
_atom_site_fract_y
_atom_site_fract_z
Si Si1 0.722603 0.005619 0.000000
Si Si2 0.392616 0.485987 0.142768
Si Si3 0.477903 0.257116 0.106840
Si Si4 0.154678 0.496502 0.641078
O O1 0.750000 0.750000 0.000000
O O2 0.694459 0.033646 0.913196
O O3 0.750000 0.250000 0.000000
O O4 0.394533 0.500000 0.250000
O O5 0.432901 0.343590 0.116098
O O6 0.360438 0.279476 0.114542
O O7 0.377560 0.773330 0.115889
O O8 0.500000 0.500000 0.147212
O O9 0.500000 0.000000 0.141979
O O10 0.484654 0.248055 0.000000
O O11 0.159136 0.500000 0.750000
#
# Coordination Sequence:
#
# PCOD9497792 Si02
#       4
#     8  16  16  16
#     4  12  26  42  66  98 122 158 204 244 320 390
#     4  10  21  39  61  87 120 165 211 251 303 363
#     4  10  21  35  54  86 122 159 203 254 306 351
#     4  10  23  41  63  92 124 161 206 255 305 369
#
# _framework density 21.264220999999999
#
# number of rings (size 3 to 8) (size 9 to 14) (size 15 to 20)
#    0.000    1.714    0.000    3.429    4.000    1.714 
#    0.000    1.429    0.000    0.000    0.000    0.000 
#    0.000    0.000    0.000    0.000    0.000    0.000 
#
# Total GULP energy -155979.284582 kJ/mol
# GULP energy per Si atom -5570.688735 kJ/mol
# Density = 2.121582 g / cm^3
# Si number density = 21.264221 Si / 1000 Ang^3
#
#
#
# Elastic Constant Matrix: (Units=GPa)
#
#
# Indices 1 2 3 4 5 6 
#
# 1 120.7864 60.3922 32.3229 0.0000 0.0000 0.0000
# 2 60.3922 187.1894 36.0728 0.0000 0.0000 0.0000
# 3 32.3229 36.0728 78.2529 0.0000 0.0000 0.0000
# 4 0.0000 0.0000 0.0000 -31.1264 0.0000 0.0000
# 5 0.0000 0.0000 0.0000 0.0000 45.8878 0.0000
# 6 0.0000 0.0000 0.0000 0.0000 0.0000 53.2259
#
#
#
# Elastic Compliance Matrix: (Units=1/GPa)
#
#
# Indices 1 2 3 4 5 6 
#
# 1 0.010493 -0.002799 -0.003044 0.000000 0.000000 0.000000
# 2 -0.002799 0.006609 -0.001891 0.000000 0.000000 0.000000
# 3 -0.003044 -0.001891 0.014908 0.000000 0.000000 0.000000
# 4 0.000000 0.000000 0.000000 -0.032127 0.000000 0.000000
# 5 0.000000 0.000000 0.000000 0.000000 0.021792 0.000000
# 6 0.000000 0.000000 0.000000 0.000000 0.000000 0.018788
#
#
# Mechanical properties :
#
#
# Convention : Reuss Voigt Hill
#
# Bulk Modulus (GPa) = 60.44700 71.53383 65.99042
# Shear Modulus (GPa) = 81.37330 30.76018 56.06674
#
# Velocity S-wave (km/s) = 6.19280 3.80751 5.14042
# Velocity P-wave (km/s) = 8.92316 7.28306 8.14450
#
# Compressibility (1/GPa) = 0.01654342
#
# Stress axis : x y z
#
# Youngs Moduli (GPa) = 95.30156 151.29766 67.07779
#
# Poissons Ratio (x) = 0.42344 0.20419
# Poissons Ratio (y) = 0.26672 0.12683
# Poissons Ratio (z) = 0.29010 0.28607
#
# Static dielectric constant tensor:
#      x y z
#    x 1.757190 0.000000 0.000000 
#    y 0.000000 1.760240 0.000000 
#    z 0.000000 0.000000 1.755190 
# 
# From -- ./inp_files/22490.got.cif
#   From: 2010.05.17/outbox.cif.g08.bks.cpg/sg66_12_cif.got.tgz:22490.got - 2010.06.03 17:51:23.
