data_PCOD9497683
_publ_section_title
;
Structure prediction by ZEFSAII (Michael W. Deem and Ramdas Pophale) SiO2 
 PCOD9497683
Probable space group: C C C M
;
_chemical_formula_sum "Si O2"
_cell_formula_units_Z 68
_cell_length_a 22.690849
_cell_length_b 7.250359
_cell_length_c 14.757171
_cell_angle_alpha 90.000000
_cell_angle_beta 90.000000
_cell_angle_gamma 90.000000
_cell_volume 2427.802569
_symmetry_space_group_name_H-M "C C C M"
_symmetry_group_IT_number 66
_symmetry_cell_setting 'orthorhombic'
loop_
_space_group_symop_operation_xyz
x,y,z
-x,-y,z
x,-y,1/2-z
-x,y,1/2-z
-x,-y,-z
x,y,-z
-x,y,1/2+z
x,-y,1/2+z
1/2+x,1/2+y,z
1/2-x,1/2-y,z
1/2+x,1/2-y,1/2-z
1/2-x,1/2+y,1/2-z
1/2-x,1/2-y,-z
1/2+x,1/2+y,-z
1/2-x,1/2+y,1/2+z
1/2+x,1/2-y,1/2+z
loop_
_atom_site_type_symbol
_atom_site_label
_atom_site_fract_x
_atom_site_fract_y
_atom_site_fract_z
Si Si1 0.219783 0.048855 0.894833
Si Si2 0.941981 0.190592 0.127762
Si Si3 0.903087 0.178890 0.668130
Si Si4 0.158865 0.542855 0.896467
Si Si5 0.500000 0.000000 0.500000
O O1 0.250000 0.250000 0.898475
O O2 0.161321 0.081838 0.837269
O O3 0.275944 0.935637 0.856850
O O4 0.206042 0.995419 0.000000
O O5 0.936822 0.196696 0.237083
O O6 0.877544 0.271704 0.102994
O O7 0.059554 0.030383 0.109356
O O8 0.983898 0.339871 0.078577
O O9 0.884365 0.385013 0.640928
O O10 0.167847 0.485410 0.000000
#
# Coordination Sequence:
#
# PCOD9497683 Si02
#       5
#    16  16  16  16   4
#     4   8  16  33  63 110 161 213 252 310 405 507
#     4  11  25  46  71 108 153 213 278 354 412 485
#     4  10  22  43  71 111 159 202 269 339 418 504
#     4  10  20  40  72 110 164 215 259 328 403 501
#     4  12  28  52  80 106 158 218 300 364 420 478
#
# _framework density 28.008866999999999
#
# number of rings (size 3 to 8) (size 9 to 14) (size 15 to 20)
#    0.000    2.118    1.176    2.824    3.294    0.941 
#   25.412    7.059    0.000    5.647    0.000    0.000 
#    0.000    0.000    0.000    0.000    0.000    0.000 
#
# Total GULP energy -189290.685965 kJ/mol
# GULP energy per Si atom -5567.373117 kJ/mol
# Density = 2.794512 g / cm^3
# Si number density = 28.008867 Si / 1000 Ang^3
#
#
#
# Elastic Constant Matrix: (Units=GPa)
#
#
# Indices 1 2 3 4 5 6 
#
# 1 173.2287 46.7597 52.1020 0.0000 0.0000 0.0000
# 2 46.7597 231.8219 68.9221 0.0000 0.0000 0.0000
# 3 52.1020 68.9221 154.4386 0.0000 0.0000 0.0000
# 4 0.0000 0.0000 0.0000 51.3096 0.0000 0.0000
# 5 0.0000 0.0000 0.0000 0.0000 -160.2734 0.0000
# 6 0.0000 0.0000 0.0000 0.0000 0.0000 43.6490
#
#
#
# Elastic Compliance Matrix: (Units=1/GPa)
#
#
# Indices 1 2 3 4 5 6 
#
# 1 0.006540 -0.000765 -0.001865 0.000000 0.000000 0.000000
# 2 -0.000765 0.005063 -0.002002 0.000000 0.000000 0.000000
# 3 -0.001865 -0.002002 0.007998 0.000000 0.000000 0.000000
# 4 0.000000 0.000000 0.000000 0.019490 0.000000 0.000000
# 5 0.000000 0.000000 0.000000 0.000000 -0.006239 0.000000
# 6 0.000000 0.000000 0.000000 0.000000 0.000000 0.022910
#
#
# Mechanical properties :
#
#
# Convention : Reuss Voigt Hill
#
# Bulk Modulus (GPa) = 96.73083 99.45073 98.09078
# Shear Modulus (GPa) = 73.02534 13.05074 43.03804
#
# Velocity S-wave (km/s) = 5.11164 2.16093 3.92418
# Velocity P-wave (km/s) = 8.33362 6.46607 7.45853
#
# Compressibility (1/GPa) = 0.01033797
#
# Stress axis : x y z
#
# Youngs Moduli (GPa) = 152.90292 197.51328 125.03874
#
# Poissons Ratio (x) = 0.15103 0.23322
# Poissons Ratio (y) = 0.11692 0.25027
# Poissons Ratio (z) = 0.28519 0.39532
#
# Static dielectric constant tensor:
#      x y z
#    x 2.397150 0.000000 0.000000 
#    y 0.000000 2.196550 0.000000 
#    z 0.000000 0.000000 2.259830 
# 
# From -- ./inp_files/41403.got.cif
#   From: 2010.05.17/outbox.cif.g08.bks.cpg/sg66_21_cif.got.tgz:41403.got - 2010.06.03 17:51:23.
