data_PCOD9497189
_publ_section_title
;
Structure prediction by ZEFSAII (Michael W. Deem and Ramdas Pophale) SiO2 
 PCOD9497189
Probable space group: C C C M
;
_chemical_formula_sum "Si O2"
_cell_formula_units_Z 96
_cell_length_a 9.367116
_cell_length_b 23.506097
_cell_length_c 21.809178
_cell_angle_alpha 90.000000
_cell_angle_beta 90.000000
_cell_angle_gamma 90.000000
_cell_volume 4802.039405
_symmetry_space_group_name_H-M "C C C M"
_symmetry_group_IT_number 66
_symmetry_cell_setting 'orthorhombic'
loop_
_space_group_symop_operation_xyz
x,y,z
-x,-y,z
x,-y,1/2-z
-x,y,1/2-z
-x,-y,-z
x,y,-z
-x,y,1/2+z
x,-y,1/2+z
1/2+x,1/2+y,z
1/2-x,1/2-y,z
1/2+x,1/2-y,1/2-z
1/2-x,1/2+y,1/2-z
1/2-x,1/2-y,-z
1/2+x,1/2+y,-z
1/2-x,1/2+y,1/2+z
1/2+x,1/2-y,1/2+z
loop_
_atom_site_type_symbol
_atom_site_label
_atom_site_fract_x
_atom_site_fract_y
_atom_site_fract_z
Si Si1 0.820048 0.188148 0.315592
Si Si2 0.849759 0.158590 0.819781
Si Si3 0.340780 0.522518 0.816725
Si Si4 0.844930 0.472329 0.932383
Si Si5 0.649128 0.165104 0.930856
Si Si6 0.820408 0.687081 0.932847
O O1 0.750000 0.250000 0.318553
O O2 0.783914 0.168956 0.247182
O O3 0.752136 0.156930 0.374581
O O4 0.991079 0.184597 0.321746
O O5 0.856790 0.090458 0.820980
O O6 0.755795 0.180791 0.876213
O O7 0.500000 0.500000 0.823512
O O8 0.288199 0.500000 0.750000
O O9 0.244120 0.506035 0.874431
O O10 0.861944 0.403798 0.928202
O O11 0.000000 0.500000 0.930530
O O12 0.780810 0.484428 0.000000
O O13 0.490345 0.190074 0.922654
O O14 0.698974 0.179910 0.000000
O O15 0.750000 0.750000 0.937179
O O16 0.798919 0.659559 0.000000
#
# Coordination Sequence:
#
# PCOD9497189 Si02
#       6
#    16  16  16  16  16  16
#     4  10  21  36  55  78 107 141 181 226 270 318
#     4  10  22  38  56  81 111 144 182 223 270 324
#     4  10  20  36  58  82 112 144 178 222 270 322
#     4   9  19  35  54  80 112 143 178 220 266 319
#     4   9  19  36  57  80 108 143 180 221 270 321
#     4   9  19  36  56  79 105 136 179 226 270 317
#
# _framework density 19.991505
#
# number of rings (size 3 to 8) (size 9 to 14) (size 15 to 20)
#    0.000    2.500    0.000    2.000    0.000   10.000 
#    0.000    3.333    0.000    9.500    0.000    0.000 
#    0.000    0.000    0.000    0.000    0.000    0.000 
#
# Total GULP energy -267548.286201 kJ/mol
# GULP energy per Si atom -5573.922629 kJ/mol
# Density = 1.994600 g / cm^3
# Si number density = 19.991505 Si / 1000 Ang^3
#
#
#
# Elastic Constant Matrix: (Units=GPa)
#
#
# Indices 1 2 3 4 5 6 
#
# 1 82.2480 23.0171 102.4993 0.0000 0.0000 0.0000
# 2 23.0171 46.8391 31.9454 0.0000 0.0000 0.0000
# 3 102.4993 31.9454 228.3509 0.0000 0.0000 0.0000
# 4 0.0000 0.0000 0.0000 22.2984 0.0000 0.0000
# 5 0.0000 0.0000 0.0000 0.0000 48.1278 0.0000
# 6 0.0000 0.0000 0.0000 0.0000 0.0000 30.8854
#
#
#
# Elastic Compliance Matrix: (Units=1/GPa)
#
#
# Indices 1 2 3 4 5 6 
#
# 1 0.029017 -0.005943 -0.012194 0.000000 0.000000 0.000000
# 2 -0.005943 0.024819 -0.000804 0.000000 0.000000 0.000000
# 3 -0.012194 -0.000804 0.009965 0.000000 0.000000 0.000000
# 4 0.000000 0.000000 0.000000 0.044846 0.000000 0.000000
# 5 0.000000 0.000000 0.000000 0.000000 0.020778 0.000000
# 6 0.000000 0.000000 0.000000 0.000000 0.000000 0.032378
#
#
# Mechanical properties :
#
#
# Convention : Reuss Voigt Hill
#
# Bulk Modulus (GPa) = 38.58148 74.70683 56.64416
# Shear Modulus (GPa) = 24.00096 33.59408 28.79752
#
# Velocity S-wave (km/s) = 3.46867 4.10374 3.79949
# Velocity P-wave (km/s) = 5.94836 7.73981 6.90245
#
# Compressibility (1/GPa) = 0.02591917
#
# Stress axis : x y z
#
# Youngs Moduli (GPa) = 34.46205 40.29208 100.35072
#
# Poissons Ratio (x) = 0.23946 1.22363
# Poissons Ratio (y) = 0.20481 0.08072
# Poissons Ratio (z) = 0.42022 0.03241
#
# Static dielectric constant tensor:
#      x y z
#    x 1.661100 0.000000 0.000000 
#    y 0.000000 1.688400 0.000000 
#    z 0.000000 0.000000 1.809970 
# 
# From -- ./inp_files/55652.got.cif
#   From: 2010.05.17/outbox.cif.g08.bks.cpg/sg66_28_cif.got.tgz:55652.got - 2010.06.03 17:51:23.
