data_PCOD9497686
_publ_section_title
;
Structure prediction by ZEFSAII (Michael W. Deem and Ramdas Pophale) SiO2 
 PCOD9497686
Probable space group: C C C M
;
_chemical_formula_sum "Si O2"
_cell_formula_units_Z 96
_cell_length_a 10.371992
_cell_length_b 23.391059
_cell_length_c 17.140159
_cell_angle_alpha 90.000000
_cell_angle_beta 90.000000
_cell_angle_gamma 90.000000
_cell_volume 4158.406144
_symmetry_space_group_name_H-M "C C C M"
_symmetry_group_IT_number 66
_symmetry_cell_setting 'orthorhombic'
loop_
_space_group_symop_operation_xyz
x,y,z
-x,-y,z
x,-y,1/2-z
-x,y,1/2-z
-x,-y,-z
x,y,-z
-x,y,1/2+z
x,-y,1/2+z
1/2+x,1/2+y,z
1/2-x,1/2-y,z
1/2+x,1/2-y,1/2-z
1/2-x,1/2+y,1/2-z
1/2-x,1/2-y,-z
1/2+x,1/2+y,-z
1/2-x,1/2+y,1/2+z
1/2+x,1/2-y,1/2+z
loop_
_atom_site_type_symbol
_atom_site_label
_atom_site_fract_x
_atom_site_fract_y
_atom_site_fract_z
Si Si1 0.795705 0.186667 0.092440
Si Si2 0.500000 0.000000 0.622402
Si Si3 0.316144 0.836221 0.352065
Si Si4 0.047671 0.771891 0.337868
Si Si5 0.823070 0.000000 0.250000
Si Si6 0.359972 0.898968 0.803857
Si Si7 0.722328 0.455791 0.585814
O O1 0.750000 0.250000 0.117278
O O2 0.703951 0.138928 0.128839
O O3 0.943124 0.187463 0.121271
O O4 0.791107 0.182575 0.000000
O O5 0.524996 0.940656 0.668379
O O6 0.359310 0.990557 0.585114
O O7 0.183033 0.804070 0.334771
O O8 0.419764 0.788694 0.380587
O O9 0.370515 0.857594 0.269729
O O10 0.273056 0.890622 0.402640
O O11 0.000000 0.761631 0.250000
O O12 0.743953 0.945221 0.275821
O O13 0.862282 0.975978 0.161863
O O14 0.661463 0.462171 0.500000
#
# Coordination Sequence:
#
# PCOD9497686 Si02
#       7
#    16   8  16  16   8  16  16
#     4  11  25  42  64  98 142 187 233 294 366 432
#     4  10  23  37  64  95 141 172 223 295 352 419
#     4  10  23  37  66  96 133 178 232 286 341 427
#     4  11  22  41  64  95 133 182 231 279 346 426
#     4   8  20  37  62  87 126 172 224 285 345 414
#     4  10  20  41  60  99 135 179 228 287 358 427
#     4  10  21  37  58  93 133 172 220 282 348 408
#
# _framework density 23.085768000000002
#
# number of rings (size 3 to 8) (size 9 to 14) (size 15 to 20)
#    0.000    1.833    1.667    1.250    4.667   16.000 
#    0.000    1.667    0.000   15.000    0.000   15.167 
#    0.000    0.000    0.000    0.000    0.000    0.000 
#
# Total GULP energy -267411.374097 kJ/mol
# GULP energy per Si atom -5571.070294 kJ/mol
# Density = 2.303322 g / cm^3
# Si number density = 23.085768 Si / 1000 Ang^3
#
#
#
# Elastic Constant Matrix: (Units=GPa)
#
#
# Indices 1 2 3 4 5 6 
#
# 1 84.0841 36.3824 22.0140 0.0000 0.0000 0.0000
# 2 36.3824 117.1766 40.5899 0.0000 0.0000 0.0000
# 3 22.0140 40.5899 126.2073 0.0000 0.0000 0.0000
# 4 0.0000 0.0000 0.0000 23.1524 0.0000 0.0000
# 5 0.0000 0.0000 0.0000 0.0000 19.4349 0.0000
# 6 0.0000 0.0000 0.0000 0.0000 0.0000 24.5580
#
#
#
# Elastic Compliance Matrix: (Units=1/GPa)
#
#
# Indices 1 2 3 4 5 6 
#
# 1 0.013889 -0.003909 -0.001166 0.000000 0.000000 0.000000
# 2 -0.003909 0.010704 -0.002761 0.000000 0.000000 0.000000
# 3 -0.001166 -0.002761 0.009015 0.000000 0.000000 0.000000
# 4 0.000000 0.000000 0.000000 0.043192 0.000000 0.000000
# 5 0.000000 0.000000 0.000000 0.000000 0.051454 0.000000
# 6 0.000000 0.000000 0.000000 0.000000 0.000000 0.040720
#
#
# Mechanical properties :
#
#
# Convention : Reuss Voigt Hill
#
# Bulk Modulus (GPa) = 55.74803 58.38229 57.06516
# Shear Modulus (GPa) = 26.22971 28.66116 27.44544
#
# Velocity S-wave (km/s) = 3.37439 3.52733 3.45171
# Velocity P-wave (km/s) = 6.27556 6.47561 6.37637
#
# Compressibility (1/GPa) = 0.01793785
#
# Stress axis : x y z
#
# Youngs Moduli (GPa) = 71.99791 93.42211 110.93012
#
# Poissons Ratio (x) = 0.36517 0.12930
# Poissons Ratio (y) = 0.28142 0.30625
# Poissons Ratio (z) = 0.08392 0.25792
#
# Static dielectric constant tensor:
#      x y z
#    x 2.032740 0.000000 0.000000 
#    y 0.000000 1.890770 0.000000 
#    z 0.000000 0.000000 1.906320 
# 
# From -- ./inp_files/38899.got.cif
#   From: 2010.05.17/outbox.cif.g08.bks.cpg/sg66_20_cif.got.tgz:38899.got - 2010.06.03 17:51:23.
