data_PCOD9497162
_publ_section_title
;
Structure prediction by ZEFSAII (Michael W. Deem and Ramdas Pophale) SiO2 
 PCOD9497162
Probable space group: C C C M
;
_chemical_formula_sum "Si O2"
_cell_formula_units_Z 96
_cell_length_a 23.366329
_cell_length_b 24.405748
_cell_length_c 8.804521
_cell_angle_alpha 90.000000
_cell_angle_beta 90.000000
_cell_angle_gamma 90.000000
_cell_volume 5020.978291
_symmetry_space_group_name_H-M "C C C M"
_symmetry_group_IT_number 66
_symmetry_cell_setting 'orthorhombic'
loop_
_space_group_symop_operation_xyz
x,y,z
-x,-y,z
x,-y,1/2-z
-x,y,1/2-z
-x,-y,-z
x,y,-z
-x,y,1/2+z
x,-y,1/2+z
1/2+x,1/2+y,z
1/2-x,1/2-y,z
1/2+x,1/2-y,1/2-z
1/2-x,1/2+y,1/2-z
1/2-x,1/2-y,-z
1/2+x,1/2+y,-z
1/2-x,1/2+y,1/2+z
1/2+x,1/2-y,1/2+z
loop_
_atom_site_type_symbol
_atom_site_label
_atom_site_fract_x
_atom_site_fract_y
_atom_site_fract_z
Si Si1 0.132688 0.660323 0.818067
Si Si2 0.627630 0.273676 0.680915
Si Si3 0.266137 0.332255 0.319956
Si Si4 0.062269 0.114316 0.181087
Si Si5 0.667413 0.555353 0.321123
Si Si6 0.063878 0.558630 0.317277
O O1 0.107806 0.718475 0.763275
O O2 0.199909 0.665266 0.776823
O O3 0.103036 0.608791 0.738183
O O4 0.128038 0.654517 0.000000
O O5 0.626838 0.266062 0.500000
O O6 0.691574 0.290992 0.733801
O O7 0.587877 0.325671 0.721077
O O8 0.269836 0.319296 0.500000
O O9 0.291922 0.392692 0.295128
O O10 0.107102 0.070566 0.245291
O O11 0.000000 0.107255 0.250000
O O12 0.060345 0.110374 0.000000
O O13 0.691068 0.500000 0.250000
O O14 0.659710 0.548598 0.500000
O O15 0.083996 0.500000 0.250000
O O16 0.061626 0.556002 0.500000
O O17 0.000000 0.566987 0.250000
#
# Coordination Sequence:
#
# PCOD9497162 Si02
#       6
#    16  16  16  16  16  16
#     4  11  22  37  59  87 116 149 189 228 272 331
#     4  10  21  36  55  82 115 149 187 233 283 332
#     4   9  20  37  56  80 113 151 187 229 281 332
#     4  10  21  37  56  79 108 143 184 229 278 328
#     4  10  20  36  56  79 109 144 184 228 276 326
#     4  11  23  42  64  86 114 147 184 228 280 332
#
# _framework density 19.119779000000001
#
# number of rings (size 3 to 8) (size 9 to 14) (size 15 to 20)
#    0.000    1.833    0.000    4.500    0.000    7.667 
#    0.000    5.000    0.000    0.000    0.000    0.000 
#    0.000    0.000    0.000    0.000    0.000    0.000 
#
# Total GULP energy -268219.016484 kJ/mol
# GULP energy per Si atom -5587.896177 kJ/mol
# Density = 1.907626 g / cm^3
# Si number density = 19.119779 Si / 1000 Ang^3
#
#
#
# Elastic Constant Matrix: (Units=GPa)
#
#
# Indices 1 2 3 4 5 6 
#
# 1 21.8149 4.7652 11.7233 0.0000 0.0000 0.0000
# 2 4.7652 110.6395 48.5083 0.0000 0.0000 0.0000
# 3 11.7233 48.5083 74.2740 0.0000 0.0000 0.0000
# 4 0.0000 0.0000 0.0000 34.1682 0.0000 0.0000
# 5 0.0000 0.0000 0.0000 0.0000 23.5959 0.0000
# 6 0.0000 0.0000 0.0000 0.0000 0.0000 15.0156
#
#
#
# Elastic Compliance Matrix: (Units=1/GPa)
#
#
# Indices 1 2 3 4 5 6 
#
# 1 0.050356 0.001844 -0.009152 0.000000 0.000000 0.000000
# 2 0.001844 0.012732 -0.008607 0.000000 0.000000 0.000000
# 3 -0.009152 -0.008607 0.020529 0.000000 0.000000 0.000000
# 4 0.000000 0.000000 0.000000 0.029267 0.000000 0.000000
# 5 0.000000 0.000000 0.000000 0.000000 0.042380 0.000000
# 6 0.000000 0.000000 0.000000 0.000000 0.000000 0.066597
#
#
# Mechanical properties :
#
#
# Convention : Reuss Voigt Hill
#
# Bulk Modulus (GPa) = 19.30971 37.41358 28.36164
# Shear Modulus (GPa) = 18.45331 24.00474 21.22902
#
# Velocity S-wave (km/s) = 3.11004 3.54714 3.33576
# Velocity P-wave (km/s) = 4.79768 6.03214 5.44998
#
# Compressibility (1/GPa) = 0.05178741
#
# Stress axis : x y z
#
# Youngs Moduli (GPa) = 19.85865 78.54015 48.71122
#
# Poissons Ratio (x) = -0.14482 0.44582
# Poissons Ratio (y) = -0.03662 0.41923
# Poissons Ratio (z) = 0.18175 0.67596
#
# Static dielectric constant tensor:
#      x y z
#    x 1.646900 0.000000 0.000000 
#    y 0.000000 1.675700 0.000000 
#    z 0.000000 0.000000 1.636950 
# 
# From -- ./inp_files/9111.got.cif
#   From: 2010.05.17/outbox.cif.g08.bks.cpg/sg66_5_cif.got.tgz:9111.got - 2010.06.03 17:51:23.
