data_PCOD9497676
_publ_section_title
;
Structure prediction by ZEFSAII (Michael W. Deem and Ramdas Pophale) SiO2 
 PCOD9497676
Probable space group: C C C M
;
_chemical_formula_sum "Si O2"
_cell_formula_units_Z 88
_cell_length_a 18.922762
_cell_length_b 12.034417
_cell_length_c 17.120261
_cell_angle_alpha 90.000000
_cell_angle_beta 90.000000
_cell_angle_gamma 90.000000
_cell_volume 3898.701313
_symmetry_space_group_name_H-M "C C C M"
_symmetry_group_IT_number 66
_symmetry_cell_setting 'orthorhombic'
loop_
_space_group_symop_operation_xyz
x,y,z
-x,-y,z
x,-y,1/2-z
-x,y,1/2-z
-x,-y,-z
x,y,-z
-x,y,1/2+z
x,-y,1/2+z
1/2+x,1/2+y,z
1/2-x,1/2-y,z
1/2+x,1/2-y,1/2-z
1/2-x,1/2+y,1/2-z
1/2-x,1/2-y,-z
1/2+x,1/2+y,-z
1/2-x,1/2+y,1/2+z
1/2+x,1/2-y,1/2+z
loop_
_atom_site_type_symbol
_atom_site_label
_atom_site_fract_x
_atom_site_fract_y
_atom_site_fract_z
Si Si1 0.906890 0.266651 0.913320
Si Si2 0.762073 0.500000 0.250000
Si Si3 0.676914 0.205332 0.665406
Si Si4 0.230966 0.617965 0.091670
Si Si5 0.417259 0.369829 0.263134
Si Si6 0.955028 0.595625 0.088017
O O1 0.854728 0.371442 0.899342
O O2 0.898556 0.173450 0.848799
O O3 0.987730 0.305679 0.912363
O O4 0.889716 0.225251 0.000000
O O5 0.800694 0.385317 0.270603
O O6 0.737587 0.460783 0.160523
O O7 0.750000 0.250000 0.628892
O O8 0.635236 0.306091 0.705518
O O9 0.619089 0.140859 0.615907
O O10 0.250000 0.750000 0.100913
O O11 0.245259 0.586471 0.000000
O O12 0.408486 0.500000 0.250000
O O13 0.500000 0.341887 0.250000
O O14 0.000000 0.500000 0.132035
O O15 0.942271 0.555633 0.000000
#
# Coordination Sequence:
#
# PCOD9497676 Si02
#       6
#    16   8  16  16  16  16
#     4  10  20  40  68  97 130 176 240 300 362 446
#     4  12  24  40  69 104 139 190 248 308 362 460
#     4  12  27  42  66 107 147 191 244 312 384 450
#     4  10  22  41  66 100 142 189 242 304 372 446
#     4  11  24  44  67  96 139 190 240 303 364 449
#     4  10  22  43  70 102 143 187 240 308 381 459
#
# _framework density 22.571618999999998
#
# number of rings (size 3 to 8) (size 9 to 14) (size 15 to 20)
#    0.000    1.273    3.636    1.636    1.273    2.545 
#    0.000    2.727    0.000    1.636    0.000    0.000 
#    0.000    0.000    0.000    0.000    0.000    0.000 
#
# Total GULP energy -245376.286573 kJ/mol
# GULP energy per Si atom -5576.733786 kJ/mol
# Density = 2.252025 g / cm^3
# Si number density = 22.571619 Si / 1000 Ang^3
#
#
#
# Elastic Constant Matrix: (Units=GPa)
#
#
# Indices 1 2 3 4 5 6 
#
# 1 161.6948 51.7249 43.5225 0.0000 0.0000 0.0000
# 2 51.7249 86.1294 44.3381 0.0000 0.0000 0.0000
# 3 43.5225 44.3381 144.7075 0.0000 0.0000 0.0000
# 4 0.0000 0.0000 0.0000 33.7850 0.0000 0.0000
# 5 0.0000 0.0000 0.0000 0.0000 7.4502 0.0000
# 6 0.0000 0.0000 0.0000 0.0000 0.0000 32.4822
#
#
#
# Elastic Compliance Matrix: (Units=1/GPa)
#
#
# Indices 1 2 3 4 5 6 
#
# 1 0.007795 -0.004125 -0.001081 0.000000 0.000000 0.000000
# 2 -0.004125 0.015968 -0.003652 0.000000 0.000000 0.000000
# 3 -0.001081 -0.003652 0.008354 0.000000 0.000000 0.000000
# 4 0.000000 0.000000 0.000000 0.029599 0.000000 0.000000
# 5 0.000000 0.000000 0.000000 0.000000 0.134225 0.000000
# 6 0.000000 0.000000 0.000000 0.000000 0.000000 0.030786
#
#
# Mechanical properties :
#
#
# Convention : Reuss Voigt Hill
#
# Bulk Modulus (GPa) = 69.43360 74.63363 72.03361
# Shear Modulus (GPa) = 20.06079 31.60654 25.83366
#
# Velocity S-wave (km/s) = 2.98444 3.74609 3.38675
# Velocity P-wave (km/s) = 6.53484 7.20055 6.87576
#
# Compressibility (1/GPa) = 0.01440225
#
# Stress axis : x y z
#
# Youngs Moduli (GPa) = 128.28944 62.62690 119.69777
#
# Poissons Ratio (x) = 0.25833 0.12934
# Poissons Ratio (y) = 0.52919 0.43711
# Poissons Ratio (z) = 0.13862 0.22870
#
# Static dielectric constant tensor:
#      x y z
#    x 1.983410 0.000000 0.000000 
#    y 0.000000 1.850260 0.000000 
#    z 0.000000 0.000000 1.854420 
# 
# From -- ./inp_files/42754.got.cif
#   From: 2010.05.17/outbox.cif.g08.bks.cpg/sg66_22_cif.got.tgz:42754.got - 2010.06.03 17:51:23.
