data_PCOD9497265
_publ_section_title
;
Structure prediction by ZEFSAII (Michael W. Deem and Ramdas Pophale) SiO2 
 PCOD9497265
Probable space group: C C C M
;
_chemical_formula_sum "Si O2"
_cell_formula_units_Z 80
_cell_length_a 29.366604
_cell_length_b 15.774208
_cell_length_c 8.646669
_cell_angle_alpha 90.000000
_cell_angle_beta 90.000000
_cell_angle_gamma 90.000000
_cell_volume 4005.439020
_symmetry_space_group_name_H-M "C C C M"
_symmetry_group_IT_number 66
_symmetry_cell_setting 'orthorhombic'
loop_
_space_group_symop_operation_xyz
x,y,z
-x,-y,z
x,-y,1/2-z
-x,y,1/2-z
-x,-y,-z
x,y,-z
-x,y,1/2+z
x,-y,1/2+z
1/2+x,1/2+y,z
1/2-x,1/2-y,z
1/2+x,1/2-y,1/2-z
1/2-x,1/2+y,1/2-z
1/2-x,1/2-y,-z
1/2+x,1/2+y,-z
1/2-x,1/2+y,1/2+z
1/2+x,1/2-y,1/2+z
loop_
_atom_site_type_symbol
_atom_site_label
_atom_site_fract_x
_atom_site_fract_y
_atom_site_fract_z
Si Si1 0.797757 0.850328 0.184869
Si Si2 0.108153 0.911038 0.815514
Si Si3 0.949095 0.246399 0.684781
Si Si4 0.603017 0.091092 0.184823
Si Si5 0.202278 0.341033 0.685268
O O1 0.840103 0.899209 0.257352
O O2 0.802368 0.752396 0.239993
O O3 0.748631 0.879677 0.247025
O O4 0.799173 0.854522 0.000000
O O5 0.079637 0.832247 0.750817
O O6 0.090364 0.000000 0.750000
O O7 0.107016 0.910710 0.000000
O O8 0.949391 0.242621 0.500000
O O9 0.925310 0.332929 0.740192
O O10 0.000000 0.242815 0.750000
O O11 0.656435 0.107812 0.219509
O O12 0.589358 0.000000 0.250000
O O13 0.597332 0.093850 0.000000
O O14 0.206522 0.331631 0.500000
#
# Coordination Sequence:
#
# PCOD9497265 Si02
#       5
#    16  16  16  16  16
#     4  11  21  35  60  93 130 174 221 265 320 381
#     4  12  25  44  68  98 133 171 218 267 325 386
#     4  12  26  47  73  99 130 167 212 266 329 391
#     4  11  24  42  67  98 133 173 218 269 324 385
#     4  10  20  36  60  90 130 176 221 267 319 378
#
# _framework density 19.972843999999998
#
# number of rings (size 3 to 8) (size 9 to 14) (size 15 to 20)
#    0.000    0.800    2.000    7.800    0.000    4.000 
#    0.000    6.000    0.000    0.000    0.000    0.000 
#    0.000    0.000    0.000    0.000    0.000    0.000 
#
# Total GULP energy -223925.550202 kJ/mol
# GULP energy per Si atom -5598.138755 kJ/mol
# Density = 1.992738 g / cm^3
# Si number density = 19.972844 Si / 1000 Ang^3
#
#
#
# Elastic Constant Matrix: (Units=GPa)
#
#
# Indices 1 2 3 4 5 6 
#
# 1 129.4473 68.2537 71.6177 0.0000 0.0000 0.0000
# 2 68.2537 146.4062 68.2210 0.0000 0.0000 0.0000
# 3 71.6177 68.2210 181.1084 0.0000 0.0000 0.0000
# 4 0.0000 0.0000 0.0000 30.3303 0.0000 0.0000
# 5 0.0000 0.0000 0.0000 0.0000 36.5606 0.0000
# 6 0.0000 0.0000 0.0000 0.0000 0.0000 -9.6013
#
#
#
# Elastic Compliance Matrix: (Units=1/GPa)
#
#
# Indices 1 2 3 4 5 6 
#
# 1 0.011493 -0.003930 -0.003064 0.000000 0.000000 0.000000
# 2 -0.003930 0.009628 -0.002073 0.000000 0.000000 0.000000
# 3 -0.003064 -0.002073 0.007514 0.000000 0.000000 0.000000
# 4 0.000000 0.000000 0.000000 0.032970 0.000000 0.000000
# 5 0.000000 0.000000 0.000000 0.000000 0.027352 0.000000
# 6 0.000000 0.000000 0.000000 0.000000 0.000000 -0.104153
#
#
# Mechanical properties :
#
#
# Convention : Reuss Voigt Hill
#
# Bulk Modulus (GPa) = 95.22926 97.01630 96.12278
# Shear Modulus (GPa) = 776.56705 28.04923 402.30814
#
# Velocity S-wave (km/s) = 19.73969 3.75156 14.20792
# Velocity P-wave (km/s) = 23.81856 8.21250 17.81528
#
# Compressibility (1/GPa) = 0.01050097
#
# Stress axis : x y z
#
# Youngs Moduli (GPa) = 87.01218 103.86077 133.08308
#
# Poissons Ratio (x) = 0.40816 0.40781
# Poissons Ratio (y) = 0.34195 0.27585
# Poissons Ratio (z) = 0.26663 0.21528
#
# Static dielectric constant tensor:
#      x y z
#    x 1.757870 0.000000 0.000000 
#    y 0.000000 1.704810 0.000000 
#    z 0.000000 0.000000 1.659860 
# 
# From -- ./inp_files/10073.got.cif
#   From: 2010.05.17/outbox.cif.g08.bks.cpg/sg66_6_cif.got.tgz:10073.got - 2010.06.03 17:51:23.
