data_PCOD9497135
_publ_section_title
;
Structure prediction by ZEFSAII (Michael W. Deem and Ramdas Pophale) SiO2 
 PCOD9497135
Probable space group: C C C M
;
_chemical_formula_sum "Si O2"
_cell_formula_units_Z 80
_cell_length_a 26.280096
_cell_length_b 5.249334
_cell_length_c 24.900202
_cell_angle_alpha 90.000000
_cell_angle_beta 90.000000
_cell_angle_gamma 90.000000
_cell_volume 3435.057603
_symmetry_space_group_name_H-M "C C C M"
_symmetry_group_IT_number 66
_symmetry_cell_setting 'orthorhombic'
loop_
_space_group_symop_operation_xyz
x,y,z
-x,-y,z
x,-y,1/2-z
-x,y,1/2-z
-x,-y,-z
x,y,-z
-x,y,1/2+z
x,-y,1/2+z
1/2+x,1/2+y,z
1/2-x,1/2-y,z
1/2+x,1/2-y,1/2-z
1/2-x,1/2+y,1/2-z
1/2-x,1/2-y,-z
1/2+x,1/2+y,-z
1/2-x,1/2+y,1/2+z
1/2+x,1/2-y,1/2+z
loop_
_atom_site_type_symbol
_atom_site_label
_atom_site_fract_x
_atom_site_fract_y
_atom_site_fract_z
Si Si1 0.443174 0.960623 0.830860
Si Si2 0.345746 0.310025 0.297876
Si Si3 0.127617 0.818558 0.611451
Si Si4 0.447512 0.654508 0.942532
Si Si5 0.782705 0.506887 0.630404
O O1 0.402777 0.805245 0.795056
O O2 0.447020 0.823558 0.889171
O O3 0.500000 0.000000 0.810386
O O4 0.415440 0.220795 0.846943
O O5 0.334313 0.500000 0.250000
O O6 0.344274 0.469560 0.353223
O O7 0.305551 0.088396 0.311346
O O8 0.166119 0.587590 0.599145
O O9 0.098591 0.954612 0.563615
O O10 0.500000 0.500000 0.941770
O O11 0.443942 0.792690 0.000000
O O12 0.750000 0.250000 0.633165
O O13 0.750000 0.750000 0.610085
#
# Coordination Sequence:
#
# PCOD9497135 Si02
#       5
#    16  16  16  16  16
#     4  10  20  36  61  89 133 177 217 266 325 391
#     4  10  23  42  63  93 131 170 223 276 325 392
#     4  10  21  40  60  89 131 169 209 280 326 395
#     4  10  20  35  62  95 127 169 221 276 335 395
#     4  11  22  43  67  95 126 170 218 275 341 394
#
# _framework density 23.289275
#
# number of rings (size 3 to 8) (size 9 to 14) (size 15 to 20)
#    0.000    1.800    4.000    0.000    0.000    4.400 
#    3.600    3.000    0.000    1.200    0.000    0.000 
#    0.000    0.000    0.000    0.000    0.000    0.000 
#
# Total GULP energy -223335.184875 kJ/mol
# GULP energy per Si atom -5583.379622 kJ/mol
# Density = 2.323627 g / cm^3
# Si number density = 23.289275 Si / 1000 Ang^3
#
#
#
# Elastic Constant Matrix: (Units=GPa)
#
#
# Indices 1 2 3 4 5 6 
#
# 1 108.0893 30.2118 -4.6433 0.0000 0.0000 0.0000
# 2 30.2118 99.2511 15.9326 0.0000 0.0000 0.0000
# 3 -4.6433 15.9326 82.7450 0.0000 0.0000 0.0000
# 4 0.0000 0.0000 0.0000 22.8022 0.0000 0.0000
# 5 0.0000 0.0000 0.0000 0.0000 -0.3774 0.0000
# 6 0.0000 0.0000 0.0000 0.0000 0.0000 53.4715
#
#
#
# Elastic Compliance Matrix: (Units=1/GPa)
#
#
# Indices 1 2 3 4 5 6 
#
# 1 0.010228 -0.003308 0.001211 0.000000 0.000000 0.000000
# 2 -0.003308 0.011467 -0.002394 0.000000 0.000000 0.000000
# 3 0.001211 -0.002394 0.012614 0.000000 0.000000 0.000000
# 4 0.000000 0.000000 0.000000 0.043855 0.000000 0.000000
# 5 0.000000 0.000000 0.000000 0.000000 -2.649759 0.000000
# 6 0.000000 0.000000 0.000000 0.000000 0.000000 0.018702
#
#
# Mechanical properties :
#
#
# Convention : Reuss Voigt Hill
#
# Bulk Modulus (GPa) = 39.48199 41.45418 40.46808
# Shear Modulus (GPa) = -1.97202 31.75155 14.88977
#
# Velocity S-wave (km/s) = -0.92119 3.69637 2.53126
# Velocity P-wave (km/s) = 3.98224 6.00465 5.09480
#
# Compressibility (1/GPa) = 0.02532801
#
# Stress axis : x y z
#
# Youngs Moduli (GPa) = 97.76904 87.21006 79.27609
#
# Poissons Ratio (x) = 0.28847 -0.09599
# Poissons Ratio (y) = 0.32340 0.18975
# Poissons Ratio (z) = -0.11839 0.20874
#
# Static dielectric constant tensor:
#      x y z
#    x 1.968740 0.000000 0.000000 
#    y 0.000000 1.945110 0.000000 
#    z 0.000000 0.000000 1.865890 
# 
# From -- ./inp_files/66226.got.cif
#   From: 2010.05.17/outbox.cif.g08.bks.cpg/sg66_34_cif.got.tgz:66226.got - 2010.06.03 17:51:23.
