data_PCOD9497914
_publ_section_title
;
Structure prediction by ZEFSAII (Michael W. Deem and Ramdas Pophale) SiO2 
 PCOD9497914
Probable space group: C C C M
;
_chemical_formula_sum "Si O2"
_cell_formula_units_Z 96
_cell_length_a 10.069410
_cell_length_b 31.367362
_cell_length_c 14.583927
_cell_angle_alpha 90.000000
_cell_angle_beta 90.000000
_cell_angle_gamma 90.000000
_cell_volume 4606.345427
_symmetry_space_group_name_H-M "C C C M"
_symmetry_group_IT_number 66
_symmetry_cell_setting 'orthorhombic'
loop_
_space_group_symop_operation_xyz
x,y,z
-x,-y,z
x,-y,1/2-z
-x,y,1/2-z
-x,-y,-z
x,y,-z
-x,y,1/2+z
x,-y,1/2+z
1/2+x,1/2+y,z
1/2-x,1/2-y,z
1/2+x,1/2-y,1/2-z
1/2-x,1/2+y,1/2-z
1/2-x,1/2-y,-z
1/2+x,1/2+y,-z
1/2-x,1/2+y,1/2+z
1/2+x,1/2-y,1/2+z
loop_
_atom_site_type_symbol
_atom_site_label
_atom_site_fract_x
_atom_site_fract_y
_atom_site_fract_z
Si Si1 0.397547 0.234212 0.611779
Si Si2 0.248129 0.385863 0.110380
Si Si3 0.540441 0.862817 0.388030
Si Si4 0.475554 0.452385 0.142196
Si Si5 0.177699 0.879640 0.895470
Si Si6 0.042624 0.816217 0.387614
O O1 0.393147 0.234223 0.500000
O O2 0.250000 0.250000 0.641200
O O3 0.435877 0.186414 0.639003
O O4 0.512010 0.267900 0.639025
O O5 0.334960 0.428205 0.129842
O O6 0.330605 0.343896 0.141535
O O7 0.097844 0.382454 0.145043
O O8 0.244722 0.383705 0.000000
O O9 0.531673 0.864265 0.500000
O O10 0.675801 0.886104 0.357630
O O11 0.500000 0.500000 0.106340
O O12 0.500000 0.453780 0.250000
O O13 0.587633 0.421144 0.103551
O O14 0.085538 0.842997 0.853855
O O15 0.198265 0.864942 0.000000
O O16 0.045231 0.817079 0.500000
#
# Coordination Sequence:
#
# PCOD9497914 Si02
#       6
#    16  16  16  16  16  16
#     4   9  13  19  36  65 103 138 166 193 226 269
#     4   9  18  31  48  73 103 128 158 202 245 284
#     4   9  16  26  43  72 107 135 158 194 239 280
#     4  10  21  37  55  72  89 117 159 204 249 300
#     4   9  16  29  50  74  99 128 159 190 235 292
#     4   8  13  22  38  64  97 133 165 192 225 266
#
# _framework density 20.840816
#
# number of rings (size 3 to 8) (size 9 to 14) (size 15 to 20)
#    0.000    3.000    1.667    1.500    0.000    2.000 
#    0.000    5.000    0.000    5.000    0.000   18.667 
#    0.000    0.000    0.000    0.000    0.000    0.000 
#
# Total GULP energy -267534.707156 kJ/mol
# GULP energy per Si atom -5573.639732 kJ/mol
# Density = 2.079338 g / cm^3
# Si number density = 20.840816 Si / 1000 Ang^3
#
#
#
# Elastic Constant Matrix: (Units=GPa)
#
#
# Indices 1 2 3 4 5 6 
#
# 1 171.6949 51.6951 -10.5935 0.0000 0.0000 0.0000
# 2 51.6951 100.9597 -27.2067 0.0000 0.0000 0.0000
# 3 -10.5935 -27.2067 44.1494 0.0000 0.0000 0.0000
# 4 0.0000 0.0000 0.0000 26.2267 0.0000 0.0000
# 5 0.0000 0.0000 0.0000 0.0000 -12.9169 0.0000
# 6 0.0000 0.0000 0.0000 0.0000 0.0000 16.2933
#
#
#
# Elastic Compliance Matrix: (Units=1/GPa)
#
#
# Indices 1 2 3 4 5 6 
#
# 1 0.006900 -0.003702 -0.000625 0.000000 0.000000 0.000000
# 2 -0.003702 0.013863 0.007655 0.000000 0.000000 0.000000
# 3 -0.000625 0.007655 0.027218 0.000000 0.000000 0.000000
# 4 0.000000 0.000000 0.000000 0.038129 0.000000 0.000000
# 5 0.000000 0.000000 0.000000 0.000000 -0.077418 0.000000
# 6 0.000000 0.000000 0.000000 0.000000 0.000000 0.061375
#
#
# Mechanical properties :
#
#
# Convention : Reuss Voigt Hill
#
# Bulk Modulus (GPa) = 18.30284 38.28819 28.29551
# Shear Modulus (GPa) = 61.25647 26.11456 43.68551
#
# Velocity S-wave (km/s) = 5.42737 3.54368 4.58334
# Velocity P-wave (km/s) = 6.93372 5.92918 6.45103
#
# Compressibility (1/GPa) = 0.05463634
#
# Stress axis : x y z
#
# Youngs Moduli (GPa) = 144.92257 72.13334 36.74102
#
# Poissons Ratio (x) = 0.26702 0.02298
# Poissons Ratio (y) = 0.53646 -0.28125
# Poissons Ratio (z) = 0.09065 -0.55217
#
# Static dielectric constant tensor:
#      x y z
#    x 1.774740 0.000000 0.000000 
#    y 0.000000 1.745660 0.000000 
#    z 0.000000 0.000000 1.947500 
# 
# From -- ./inp_files/38984.got.cif
#   From: 2010.05.17/outbox.cif.g08.bks.cpg/sg66_20_cif.got.tgz:38984.got - 2010.06.03 17:51:23.
