data_PCOD9497438
_publ_section_title
;
Structure prediction by ZEFSAII (Michael W. Deem and Ramdas Pophale) SiO2 
 PCOD9497438
Probable space group: C C C M
;
_chemical_formula_sum "Si O2"
_cell_formula_units_Z 72
_cell_length_a 21.396096
_cell_length_b 9.169141
_cell_length_c 19.966102
_cell_angle_alpha 90.000000
_cell_angle_beta 90.000000
_cell_angle_gamma 90.000000
_cell_volume 3917.026182
_symmetry_space_group_name_H-M "C C C M"
_symmetry_group_IT_number 66
_symmetry_cell_setting 'orthorhombic'
loop_
_space_group_symop_operation_xyz
x,y,z
-x,-y,z
x,-y,1/2-z
-x,y,1/2-z
-x,-y,-z
x,y,-z
-x,y,1/2+z
x,-y,1/2+z
1/2+x,1/2+y,z
1/2-x,1/2-y,z
1/2+x,1/2-y,1/2-z
1/2-x,1/2+y,1/2-z
1/2-x,1/2-y,-z
1/2+x,1/2+y,-z
1/2-x,1/2+y,1/2+z
1/2+x,1/2-y,1/2+z
loop_
_atom_site_type_symbol
_atom_site_label
_atom_site_fract_x
_atom_site_fract_y
_atom_site_fract_z
Si Si1 0.565927 0.242766 0.734265
Si Si2 0.240736 0.576828 0.134925
Si Si3 0.423700 0.009872 0.500000
Si Si4 0.163445 0.000000 0.750000
Si Si5 0.099567 0.522766 0.848746
Si Si6 0.784500 0.404327 0.500000
O O1 0.500000 0.318127 0.750000
O O2 0.620777 0.358852 0.738718
O O3 0.568618 0.129840 0.795939
O O4 0.575236 0.140379 0.668451
O O5 0.250000 0.750000 0.125792
O O6 0.293583 0.522706 0.185206
O O7 0.173107 0.537940 0.165293
O O8 0.238446 0.493693 0.064580
O O9 0.412256 0.072351 0.574839
O O10 0.500000 0.000000 0.500000
O O11 0.361618 0.898586 0.500000
O O12 0.750000 0.250000 0.500000
#
# Coordination Sequence:
#
# PCOD9497438 Si02
#       6
#    16  16   8   8  16   8
#     4  11  22  39  58  87 123 162 202 256 306 365
#     4  11  23  41  62  90 124 162 201 254 312 366
#     4  10  20  37  62  91 118 157 203 250 298 372
#     4  12  25  36  62  88 125 156 210 252 314 362
#     4  10  21  38  64  88 116 159 208 249 305 367
#     4  10  25  41  66  95 126 158 203 260 317 371
#
# _framework density 18.381291999999998
#
# number of rings (size 3 to 8) (size 9 to 14) (size 15 to 20)
#    0.000    1.333    2.222    4.667    6.222    0.000 
#    0.000    0.000    0.000    0.000    0.000    9.333 
#    0.000    0.000    0.000    0.000    0.000    0.000 
#
# Total GULP energy -200411.279228 kJ/mol
# GULP energy per Si atom -5566.979979 kJ/mol
# Density = 1.833946 g / cm^3
# Si number density = 18.381292 Si / 1000 Ang^3
#
#
#
# Elastic Constant Matrix: (Units=GPa)
#
#
# Indices 1 2 3 4 5 6 
#
# 1 149.2680 49.6776 30.6207 0.0000 0.0000 0.0000
# 2 49.6776 81.1999 27.7757 0.0000 0.0000 0.0000
# 3 30.6207 27.7757 102.3283 0.0000 0.0000 0.0000
# 4 0.0000 0.0000 0.0000 16.9653 0.0000 0.0000
# 5 0.0000 0.0000 0.0000 0.0000 20.7144 0.0000
# 6 0.0000 0.0000 0.0000 0.0000 0.0000 -41.7644
#
#
#
# Elastic Compliance Matrix: (Units=1/GPa)
#
#
# Indices 1 2 3 4 5 6 
#
# 1 0.008556 -0.004805 -0.001256 0.000000 0.000000 0.000000
# 2 -0.004805 0.016274 -0.002980 0.000000 0.000000 0.000000
# 3 -0.001256 -0.002980 0.010957 0.000000 0.000000 0.000000
# 4 0.000000 0.000000 0.000000 0.058944 0.000000 0.000000
# 5 0.000000 0.000000 0.000000 0.000000 0.048276 0.000000
# 6 0.000000 0.000000 0.000000 0.000000 0.000000 -0.023944
#
#
# Mechanical properties :
#
#
# Convention : Reuss Voigt Hill
#
# Bulk Modulus (GPa) = 56.47748 60.99380 58.73564
# Shear Modulus (GPa) = 34.95371 14.16453 24.55912
#
# Velocity S-wave (km/s) = 4.36545 2.77897 3.65923
# Velocity P-wave (km/s) = 7.49679 6.59935 7.06234
#
# Compressibility (1/GPa) = 0.01770617
#
# Stress axis : x y z
#
# Youngs Moduli (GPa) = 116.87490 61.44720 91.26490
#
# Poissons Ratio (x) = 0.29525 0.11464
# Poissons Ratio (y) = 0.56158 0.27193
# Poissons Ratio (z) = 0.14681 0.18309
#
# Static dielectric constant tensor:
#      x y z
#    x 1.718640 0.000000 0.000000 
#    y 0.000000 1.619610 0.000000 
#    z 0.000000 0.000000 1.618830 
# 
# From -- ./inp_files/51672.got.cif
#   From: 2010.05.17/outbox.cif.g08.bks.cpg/sg66_26_cif.got.tgz:51672.got - 2010.06.03 17:51:23.
