data_PCOD9497812
_publ_section_title
;
Structure prediction by ZEFSAII (Michael W. Deem and Ramdas Pophale) SiO2 
 PCOD9497812
Probable space group: C C C M
;
_chemical_formula_sum "Si O2"
_cell_formula_units_Z 64
_cell_length_a 13.862626
_cell_length_b 8.788305
_cell_length_c 21.223724
_cell_angle_alpha 90.000000
_cell_angle_beta 90.000000
_cell_angle_gamma 90.000000
_cell_volume 2585.664761
_symmetry_space_group_name_H-M "C C C M"
_symmetry_group_IT_number 66
_symmetry_cell_setting 'orthorhombic'
loop_
_space_group_symop_operation_xyz
x,y,z
-x,-y,z
x,-y,1/2-z
-x,y,1/2-z
-x,-y,-z
x,y,-z
-x,y,1/2+z
x,-y,1/2+z
1/2+x,1/2+y,z
1/2-x,1/2-y,z
1/2+x,1/2-y,1/2-z
1/2-x,1/2+y,1/2-z
1/2-x,1/2-y,-z
1/2+x,1/2+y,-z
1/2-x,1/2+y,1/2+z
1/2+x,1/2-y,1/2+z
loop_
_atom_site_type_symbol
_atom_site_label
_atom_site_fract_x
_atom_site_fract_y
_atom_site_fract_z
Si Si1 0.750000 0.250000 0.399446
Si Si2 0.636483 0.263616 0.141284
Si Si3 0.500000 0.280549 0.250000
Si Si4 0.389951 0.206258 0.500000
Si Si5 0.386263 0.859025 0.500000
Si Si6 0.847071 0.553622 0.815151
O O1 0.656617 0.230055 0.440887
O O2 0.756453 0.393168 0.355185
O O3 0.750000 0.250000 0.157747
O O4 0.570182 0.348094 0.194130
O O5 0.603597 0.085662 0.148696
O O6 0.630585 0.293725 0.065857
O O7 0.423816 0.179841 0.208315
O O8 0.501477 0.161753 0.500000
O O9 0.345698 0.033022 0.500000
O O10 0.805128 0.500000 0.750000
#
# Coordination Sequence:
#
# PCOD9497812 Si02
#       6
#     8  16   8   8   8  16
#     4  11  20  38  60  96 118 165 210 266 316 377
#     4  11  22  38  63  95 126 165 205 268 323 374
#     4  10  23  40  62  95 120 163 220 264 309 368
#     4  11  21  40  59  98 126 157 218 267 317 372
#     4  10  22  34  67  92 121 160 212 271 313 365
#     4  10  21  35  60  90 123 159 210 262 308 371
#
# _framework density 24.751854999999999
#
# number of rings (size 3 to 8) (size 9 to 14) (size 15 to 20)
#    0.000    1.500    2.500    5.250   10.500    0.000 
#    0.000    0.000    0.000    9.000    0.000    0.000 
#    0.000    0.000    0.000    0.000    0.000    0.000 
#
# Total GULP energy -178255.292684 kJ/mol
# GULP energy per Si atom -5570.477896 kJ/mol
# Density = 2.469552 g / cm^3
# Si number density = 24.751855 Si / 1000 Ang^3
#
#
#
# Elastic Constant Matrix: (Units=GPa)
#
#
# Indices 1 2 3 4 5 6 
#
# 1 121.8952 14.1747 61.4314 0.0000 0.0000 0.0000
# 2 14.1747 10.3700 6.5991 0.0000 0.0000 0.0000
# 3 61.4314 6.5991 195.3902 0.0000 0.0000 0.0000
# 4 0.0000 0.0000 0.0000 20.3541 0.0000 0.0000
# 5 0.0000 0.0000 0.0000 0.0000 8.2540 0.0000
# 6 0.0000 0.0000 0.0000 0.0000 0.0000 36.4556
#
#
#
# Elastic Compliance Matrix: (Units=1/GPa)
#
#
# Indices 1 2 3 4 5 6 
#
# 1 0.011344 -0.013527 -0.003110 0.000000 0.000000 0.000000
# 2 -0.013527 0.114681 0.000380 0.000000 0.000000 0.000000
# 3 -0.003110 0.000380 0.006083 0.000000 0.000000 0.000000
# 4 0.000000 0.000000 0.000000 0.049130 0.000000 0.000000
# 5 0.000000 0.000000 0.000000 0.000000 0.121153 0.000000
# 6 0.000000 0.000000 0.000000 0.000000 0.000000 0.027431
#
#
# Mechanical properties :
#
#
# Convention : Reuss Voigt Hill
#
# Bulk Modulus (GPa) = 10.04084 54.67397 32.35741
# Shear Modulus (GPa) = 12.64117 29.37609 21.00863
#
# Velocity S-wave (km/s) = 2.26235 3.44877 2.91653
# Velocity P-wave (km/s) = 3.29996 6.16405 4.94395
#
# Compressibility (1/GPa) = 0.09959323
#
# Stress axis : x y z
#
# Youngs Moduli (GPa) = 88.15235 8.71987 164.39673
#
# Poissons Ratio (x) = 0.11796 0.51123
# Poissons Ratio (y) = 1.19245 -0.06243
# Poissons Ratio (z) = 0.27413 -0.00331
#
# Static dielectric constant tensor:
#      x y z
#    x 1.947980 0.000000 0.000000 
#    y 0.000000 2.246290 0.000000 
#    z 0.000000 0.000000 2.081350 
# 
# From -- ./inp_files/56411.got.cif
#   From: 2010.05.17/outbox.cif.g08.bks.cpg/sg66_29_cif.got.tgz:56411.got - 2010.06.03 17:51:23.
