data_PCOD9497737
_publ_section_title
;
Structure prediction by ZEFSAII (Michael W. Deem and Ramdas Pophale) SiO2 
 PCOD9497737
Probable space group: C C C M
;
_chemical_formula_sum "Si O2"
_cell_formula_units_Z 64
_cell_length_a 16.649443
_cell_length_b 6.965166
_cell_length_c 21.488096
_cell_angle_alpha 90.000000
_cell_angle_beta 90.000000
_cell_angle_gamma 90.000000
_cell_volume 2491.891427
_symmetry_space_group_name_H-M "C C C M"
_symmetry_group_IT_number 66
_symmetry_cell_setting 'orthorhombic'
loop_
_space_group_symop_operation_xyz
x,y,z
-x,-y,z
x,-y,1/2-z
-x,y,1/2-z
-x,-y,-z
x,y,-z
-x,y,1/2+z
x,-y,1/2+z
1/2+x,1/2+y,z
1/2-x,1/2-y,z
1/2+x,1/2-y,1/2-z
1/2-x,1/2+y,1/2-z
1/2-x,1/2-y,-z
1/2+x,1/2+y,-z
1/2-x,1/2+y,1/2+z
1/2+x,1/2-y,1/2+z
loop_
_atom_site_type_symbol
_atom_site_label
_atom_site_fract_x
_atom_site_fract_y
_atom_site_fract_z
Si Si1 0.810457 0.940302 0.500000
Si Si2 0.636301 0.865056 0.000000
Si Si3 0.158520 0.774517 0.254882
Si Si4 0.069914 0.726233 0.628070
Si Si5 0.616399 0.672420 0.377680
O O1 0.834140 0.813152 0.440838
O O2 0.723810 0.040683 0.500000
O O3 0.865291 0.131479 0.500000
O O4 0.597853 0.898318 0.931519
O O5 0.250000 0.750000 0.277864
O O6 0.098496 0.669509 0.302385
O O7 0.156238 0.726563 0.181705
O O8 0.136461 0.000000 0.250000
O O9 0.975235 0.756504 0.622031
O O10 0.110002 0.939071 0.626790
#
# Coordination Sequence:
#
# PCOD9497737 Si02
#       5
#     8   8  16  16  16
#     4   9  17  27  48  76 113 139 179 227 278 331
#     4   9  17  25  47  80 109 139 174 229 286 322
#     4  10  21  33  53  78 108 141 183 228 277 331
#     4   9  17  29  50  75 108 139 179 228 277 327
#     4   9  17  31  48  75 105 141 181 226 277 326
#
# _framework density 25.683302999999999
#
# number of rings (size 3 to 8) (size 9 to 14) (size 15 to 20)
#    0.000    2.750    0.000    1.500   10.500    6.000 
#    0.000    0.625    0.000    3.000    0.000    1.750 
#    0.000    0.000    0.000    0.000    0.000    0.000 
#
# Total GULP energy -178633.719937 kJ/mol
# GULP energy per Si atom -5582.303748 kJ/mol
# Density = 2.562485 g / cm^3
# Si number density = 25.683303 Si / 1000 Ang^3
#
#
#
# Elastic Constant Matrix: (Units=GPa)
#
#
# Indices 1 2 3 4 5 6 
#
# 1 35.5402 -12.8066 73.7918 0.0000 0.0000 0.0000
# 2 -12.8066 101.6258 25.1523 0.0000 0.0000 0.0000
# 3 73.7918 25.1523 253.8213 0.0000 0.0000 0.0000
# 4 0.0000 0.0000 0.0000 7.4209 0.0000 0.0000
# 5 0.0000 0.0000 0.0000 0.0000 37.5360 0.0000
# 6 0.0000 0.0000 0.0000 0.0000 0.0000 38.6022
#
#
#
# Elastic Compliance Matrix: (Units=1/GPa)
#
#
# Indices 1 2 3 4 5 6 
#
# 1 0.099960 0.020287 -0.031071 0.000000 0.000000 0.000000
# 2 0.020287 0.014205 -0.007305 0.000000 0.000000 0.000000
# 3 -0.031071 -0.007305 0.013697 0.000000 0.000000 0.000000
# 4 0.000000 0.000000 0.000000 0.134754 0.000000 0.000000
# 5 0.000000 0.000000 0.000000 0.000000 0.026641 0.000000
# 6 0.000000 0.000000 0.000000 0.000000 0.000000 0.025905
#
#
# Mechanical properties :
#
#
# Convention : Reuss Voigt Hill
#
# Bulk Modulus (GPa) = 10.90731 62.58469 36.74600
# Shear Modulus (GPa) = 13.09239 37.03515 25.06377
#
# Velocity S-wave (km/s) = 2.26024 3.80148 3.12729
# Velocity P-wave (km/s) = 3.32681 6.60977 5.23243
#
# Compressibility (1/GPa) = 0.09168163
#
# Stress axis : x y z
#
# Youngs Moduli (GPa) = 10.00404 70.39988 73.01005
#
# Poissons Ratio (x) = -1.42818 2.26849
# Poissons Ratio (y) = -0.20295 0.53337
# Poissons Ratio (z) = 0.31083 0.51430
#
# Static dielectric constant tensor:
#      x y z
#    x 1.892040 0.000000 0.000000 
#    y 0.000000 2.064740 0.000000 
#    z 0.000000 0.000000 2.156580 
# 
# From -- ./inp_files/50569.got.cif
#   From: 2010.05.17/outbox.cif.g08.bks.cpg/sg66_26_cif.got.tgz:50569.got - 2010.06.03 17:51:23.
