data_PCOD9497252
_publ_section_title
;
Structure prediction by ZEFSAII (Michael W. Deem and Ramdas Pophale) SiO2 
 PCOD9497252
Probable space group: C C C M
;
_chemical_formula_sum "Si O2"
_cell_formula_units_Z 52
_cell_length_a 19.551303
_cell_length_b 16.084925
_cell_length_c 8.835104
_cell_angle_alpha 90.000000
_cell_angle_beta 90.000000
_cell_angle_gamma 90.000000
_cell_volume 2778.474483
_symmetry_space_group_name_H-M "C C C M"
_symmetry_group_IT_number 66
_symmetry_cell_setting 'orthorhombic'
loop_
_space_group_symop_operation_xyz
x,y,z
-x,-y,z
x,-y,1/2-z
-x,y,1/2-z
-x,-y,-z
x,y,-z
-x,y,1/2+z
x,-y,1/2+z
1/2+x,1/2+y,z
1/2-x,1/2-y,z
1/2+x,1/2-y,1/2-z
1/2-x,1/2+y,1/2-z
1/2-x,1/2-y,-z
1/2+x,1/2+y,-z
1/2-x,1/2+y,1/2+z
1/2+x,1/2-y,1/2+z
loop_
_atom_site_type_symbol
_atom_site_label
_atom_site_fract_x
_atom_site_fract_y
_atom_site_fract_z
Si Si1 0.171681 0.733536 0.820041
Si Si2 0.000000 0.000000 0.750000
Si Si3 0.567000 0.338184 0.330803
Si Si4 0.424153 0.909330 0.682573
O O1 0.250000 0.750000 0.775368
O O2 0.130068 0.815833 0.773312
O O3 0.131086 0.658899 0.737377
O O4 0.168804 0.719465 0.000000
O O5 0.048623 0.064337 0.836453
O O6 0.500000 0.300621 0.250000
O O7 0.576022 0.305917 0.500000
O O8 0.500000 0.891266 0.750000
O O9 0.427592 0.912323 0.500000
O O10 0.405421 0.000000 0.750000
#
# Coordination Sequence:
#
# PCOD9497252 Si02
#       4
#    16   4  16  16
#     4  11  24  41  60  86 122 161 200 245 298 355
#     4   8  22  36  62  92 120 148 192 244 290 348
#     4  10  20  36  60  87 118 154 195 242 290 349
#     4  11  22  40  66  92 120 154 200 251 299 353
#
# _framework density 18.715306000000002
#
# number of rings (size 3 to 8) (size 9 to 14) (size 15 to 20)
#    0.923    0.615    0.000    6.923    0.000    2.462 
#    2.769    0.000    0.000    0.000    0.000    0.000 
#    0.000    0.000    0.000    0.000    0.000    0.000 
#
# Total GULP energy -144872.114932 kJ/mol
# GULP energy per Si atom -5572.004420 kJ/mol
# Density = 1.867271 g / cm^3
# Si number density = 18.715306 Si / 1000 Ang^3
#
#
#
# Elastic Constant Matrix: (Units=GPa)
#
#
# Indices 1 2 3 4 5 6 
#
# 1 154.7898 53.3998 55.7822 0.0000 0.0000 0.0000
# 2 53.3998 124.8599 40.3455 0.0000 0.0000 0.0000
# 3 55.7822 40.3455 124.7314 0.0000 0.0000 0.0000
# 4 0.0000 0.0000 0.0000 29.0657 0.0000 0.0000
# 5 0.0000 0.0000 0.0000 0.0000 19.3231 0.0000
# 6 0.0000 0.0000 0.0000 0.0000 0.0000 12.0310
#
#
#
# Elastic Compliance Matrix: (Units=1/GPa)
#
#
# Indices 1 2 3 4 5 6 
#
# 1 0.008427 -0.002665 -0.002907 0.000000 0.000000 0.000000
# 2 -0.002665 0.009786 -0.001974 0.000000 0.000000 0.000000
# 3 -0.002907 -0.001974 0.009956 0.000000 0.000000 0.000000
# 4 0.000000 0.000000 0.000000 0.034405 0.000000 0.000000
# 5 0.000000 0.000000 0.000000 0.000000 0.051751 0.000000
# 6 0.000000 0.000000 0.000000 0.000000 0.000000 0.083119
#
#
# Mechanical properties :
#
#
# Convention : Reuss Voigt Hill
#
# Bulk Modulus (GPa) = 76.46172 78.15958 77.31065
# Shear Modulus (GPa) = 23.05264 29.07420 26.06342
#
# Velocity S-wave (km/s) = 3.51344 3.94572 3.73584
# Velocity P-wave (km/s) = 7.57647 7.91273 7.74643
#
# Compressibility (1/GPa) = 0.01307844
#
# Stress axis : x y z
#
# Youngs Moduli (GPa) = 118.66253 102.18209 100.44550
#
# Poissons Ratio (x) = 0.27230 0.29198
# Poissons Ratio (y) = 0.31622 0.19825
# Poissons Ratio (z) = 0.34493 0.20168
#
# Static dielectric constant tensor:
#      x y z
#    x 1.650500 0.000000 0.000000 
#    y 0.000000 1.695740 0.000000 
#    z 0.000000 0.000000 1.645020 
# 
# From -- ./inp_files/5951.got.cif
#   From: 2010.05.17/outbox.cif.g08.bks.cpg/sg66_3_cif.got.tgz:5951.got - 2010.06.03 17:51:23.
