data_PCOD9497821
_publ_section_title
;
Structure prediction by ZEFSAII (Michael W. Deem and Ramdas Pophale) SiO2 
 PCOD9497821
Probable space group: C C C M
;
_chemical_formula_sum "Si O2"
_cell_formula_units_Z 80
_cell_length_a 26.220966
_cell_length_b 9.841822
_cell_length_c 14.258824
_cell_angle_alpha 90.000000
_cell_angle_beta 90.000000
_cell_angle_gamma 90.000000
_cell_volume 3679.661780
_symmetry_space_group_name_H-M "C C C M"
_symmetry_group_IT_number 66
_symmetry_cell_setting 'orthorhombic'
loop_
_space_group_symop_operation_xyz
x,y,z
-x,-y,z
x,-y,1/2-z
-x,y,1/2-z
-x,-y,-z
x,y,-z
-x,y,1/2+z
x,-y,1/2+z
1/2+x,1/2+y,z
1/2-x,1/2-y,z
1/2+x,1/2-y,1/2-z
1/2-x,1/2+y,1/2-z
1/2-x,1/2-y,-z
1/2+x,1/2+y,-z
1/2-x,1/2+y,1/2+z
1/2+x,1/2-y,1/2+z
loop_
_atom_site_type_symbol
_atom_site_label
_atom_site_fract_x
_atom_site_fract_y
_atom_site_fract_z
Si Si1 0.842921 0.592298 0.614381
Si Si2 0.749711 0.096711 0.614692
Si Si3 0.458212 0.111646 0.613856
Si Si4 0.547703 0.423105 0.848987
Si Si5 0.335853 0.394670 0.391918
O O1 0.841904 0.596827 0.500000
O O2 0.801112 0.483553 0.642625
O O3 0.901400 0.561942 0.639189
O O4 0.830475 0.744142 0.650357
O O5 0.750005 0.102717 0.500000
O O6 0.750000 0.250000 0.649494
O O7 0.799171 0.011451 0.645138
O O8 0.460135 0.128389 0.500000
O O9 0.464988 0.262769 0.655068
O O10 0.500000 0.000000 0.639866
O O11 0.500000 0.500000 0.896139
O O12 0.552647 0.500000 0.750000
O O13 0.604349 0.431358 0.891140
O O14 0.319858 0.378668 0.500000
#
# Coordination Sequence:
#
# PCOD9497821 Si02
#       5
#    16  16  16  16  16
#     4   8  14  26  44  70 104 135 163 201 258 320
#     4   9  16  25  42  72 104 131 164 210 263 313
#     4   9  18  33  56  85 111 137 177 228 275 319
#     4  10  21  36  52  74 105 142 178 216 268 328
#     4   9  17  30  50  72  96 133 177 217 257 307
#
# _framework density 21.741129000000001
#
# number of rings (size 3 to 8) (size 9 to 14) (size 15 to 20)
#    0.000    3.000    0.000    2.400    0.000    5.600 
#    0.000    6.000    0.000    4.800    0.000    0.000 
#    0.000    0.000    0.000    0.000    0.000    0.000 
#
# Total GULP energy -223231.166924 kJ/mol
# GULP energy per Si atom -5580.779173 kJ/mol
# Density = 2.169165 g / cm^3
# Si number density = 21.741129 Si / 1000 Ang^3
#
#
#
# Elastic Constant Matrix: (Units=GPa)
#
#
# Indices 1 2 3 4 5 6 
#
# 1 194.4692 158.3075 -0.7988 0.0000 0.0000 0.0000
# 2 158.3075 210.0683 20.3104 0.0000 0.0000 0.0000
# 3 -0.7988 20.3104 72.0638 0.0000 0.0000 0.0000
# 4 0.0000 0.0000 0.0000 9.3118 0.0000 0.0000
# 5 0.0000 0.0000 0.0000 0.0000 -58.2231 0.0000
# 6 0.0000 0.0000 0.0000 0.0000 0.0000 39.3247
#
#
#
# Elastic Compliance Matrix: (Units=1/GPa)
#
#
# Indices 1 2 3 4 5 6 
#
# 1 0.013992 -0.010855 0.003215 0.000000 0.000000 0.000000
# 2 -0.010855 0.013315 -0.003873 0.000000 0.000000 0.000000
# 3 0.003215 -0.003873 0.015004 0.000000 0.000000 0.000000
# 4 0.000000 0.000000 0.000000 0.107391 0.000000 0.000000
# 5 0.000000 0.000000 0.000000 0.000000 -0.017175 0.000000
# 6 0.000000 0.000000 0.000000 0.000000 0.000000 0.025429
#
#
# Mechanical properties :
#
#
# Convention : Reuss Voigt Hill
#
# Bulk Modulus (GPa) = 51.85751 92.47107 72.16429
# Shear Modulus (GPa) = 26.67925 18.00149 22.34037
#
# Velocity S-wave (km/s) = 3.50685 2.88061 3.20904
# Velocity P-wave (km/s) = 6.34833 7.32728 6.85530
#
# Compressibility (1/GPa) = 0.01928361
#
# Stress axis : x y z
#
# Youngs Moduli (GPa) = 71.46874 75.10120 66.64971
#
# Poissons Ratio (x) = 0.81524 -0.21425
# Poissons Ratio (y) = 0.77581 0.25814
# Poissons Ratio (z) = -0.22974 0.29088
#
# Static dielectric constant tensor:
#      x y z
#    x 1.778680 0.000000 0.000000 
#    y 0.000000 1.753750 0.000000 
#    z 0.000000 0.000000 1.863190 
# 
# From -- ./inp_files/36945.got.cif
#   From: 2010.05.17/outbox.cif.g08.bks.cpg/sg66_19_cif.got.tgz:36945.got - 2010.06.03 17:51:23.
