data_PCOD9497332
_publ_section_title
;
Structure prediction by ZEFSAII (Michael W. Deem and Ramdas Pophale) SiO2 
 PCOD9497332
Probable space group: C C C M
;
_chemical_formula_sum "Si O2"
_cell_formula_units_Z 112
_cell_length_a 16.258696
_cell_length_b 14.337671
_cell_length_c 23.184783
_cell_angle_alpha 90.000000
_cell_angle_beta 90.000000
_cell_angle_gamma 90.000000
_cell_volume 5404.647289
_symmetry_space_group_name_H-M "C C C M"
_symmetry_group_IT_number 66
_symmetry_cell_setting 'orthorhombic'
loop_
_space_group_symop_operation_xyz
x,y,z
-x,-y,z
x,-y,1/2-z
-x,y,1/2-z
-x,-y,-z
x,y,-z
-x,y,1/2+z
x,-y,1/2+z
1/2+x,1/2+y,z
1/2-x,1/2-y,z
1/2+x,1/2-y,1/2-z
1/2-x,1/2+y,1/2-z
1/2-x,1/2-y,-z
1/2+x,1/2+y,-z
1/2-x,1/2+y,1/2+z
1/2+x,1/2-y,1/2+z
loop_
_atom_site_type_symbol
_atom_site_label
_atom_site_fract_x
_atom_site_fract_y
_atom_site_fract_z
Si Si1 0.375439 0.396952 0.769598
Si Si2 0.786215 0.458161 0.338885
Si Si3 0.962171 0.775318 0.865778
Si Si4 0.468818 0.908093 0.314228
Si Si5 0.820758 0.674237 0.063577
Si Si6 0.434959 0.416694 0.431915
Si Si7 0.708023 0.350130 0.846700
O O1 0.405106 0.500000 0.750000
O O2 0.292379 0.416069 0.806114
O O3 0.436047 0.342066 0.812542
O O4 0.347517 0.343224 0.711631
O O5 0.870380 0.419256 0.312103
O O6 0.788601 0.417227 0.403592
O O7 0.776221 0.569429 0.335569
O O8 0.005831 0.684708 0.841062
O O9 0.884486 0.727990 0.896127
O O10 0.012337 0.827010 0.914578
O O11 0.500000 0.908586 0.250000
O O12 0.500000 0.000000 0.346661
O O13 0.750000 0.750000 0.057961
O O14 0.853559 0.652089 0.000000
O O15 0.500000 0.500000 0.416272
O O16 0.417162 0.425307 0.500000
O O17 0.352428 0.399660 0.394194
O O18 0.750000 0.250000 0.860377
#
# Coordination Sequence:
#
# PCOD9497332 Si02
#       7
#    16  16  16  16  16  16  16
#     4  10  22  38  63  99 134 175 212 272 336 405
#     4  10  22  42  61  92 134 165 217 273 319 397
#     4  11  23  41  66  95 135 167 220 276 328 394
#     4  10  25  37  63  93 130 171 215 256 323 393
#     4  10  20  36  66  96 123 165 219 275 323 370
#     4  11  26  47  69  94 131 178 231 286 342 409
#     4  11  27  40  69  97 137 179 221 269 348 418
#
# _framework density 20.722906999999999
#
# number of rings (size 3 to 8) (size 9 to 14) (size 15 to 20)
#    0.000    1.571    1.429    2.143   14.000    0.857 
#    0.000    2.857    0.000    2.143    0.000    0.000 
#    0.000    0.000    0.000    0.000    0.000    0.000 
#
# Total GULP energy -312370.379794 kJ/mol
# GULP energy per Si atom -5578.042496 kJ/mol
# Density = 2.067574 g / cm^3
# Si number density = 20.722907 Si / 1000 Ang^3
#
#
#
# Elastic Constant Matrix: (Units=GPa)
#
#
# Indices 1 2 3 4 5 6 
#
# 1 51.7099 15.1247 13.0553 0.0000 0.0000 0.0000
# 2 15.1247 98.0671 28.0419 0.0000 0.0000 0.0000
# 3 13.0553 28.0419 108.4365 0.0000 0.0000 0.0000
# 4 0.0000 0.0000 0.0000 28.9893 0.0000 0.0000
# 5 0.0000 0.0000 0.0000 0.0000 23.8649 0.0000
# 6 0.0000 0.0000 0.0000 0.0000 0.0000 29.9382
#
#
#
# Elastic Compliance Matrix: (Units=1/GPa)
#
#
# Indices 1 2 3 4 5 6 
#
# 1 0.020568 -0.002661 -0.001788 0.000000 0.000000 0.000000
# 2 -0.002661 0.011356 -0.002616 0.000000 0.000000 0.000000
# 3 -0.001788 -0.002616 0.010114 0.000000 0.000000 0.000000
# 4 0.000000 0.000000 0.000000 0.034495 0.000000 0.000000
# 5 0.000000 0.000000 0.000000 0.000000 0.041903 0.000000
# 6 0.000000 0.000000 0.000000 0.000000 0.000000 0.033402
#
#
# Mechanical properties :
#
#
# Convention : Reuss Voigt Hill
#
# Bulk Modulus (GPa) = 35.83308 41.18413 38.50861
# Shear Modulus (GPa) = 28.52724 30.02459 29.27591
#
# Velocity S-wave (km/s) = 3.71429 3.81052 3.76271
# Velocity P-wave (km/s) = 5.97693 6.26713 6.12375
#
# Compressibility (1/GPa) = 0.02790717
#
# Stress axis : x y z
#
# Youngs Moduli (GPa) = 48.61820 88.06243 98.87437
#
# Poissons Ratio (x) = 0.23432 0.17681
# Poissons Ratio (y) = 0.12937 0.25868
# Poissons Ratio (z) = 0.08694 0.23039
#
# Static dielectric constant tensor:
#      x y z
#    x 1.791100 0.000000 0.000000 
#    y 0.000000 1.680070 0.000000 
#    z 0.000000 0.000000 1.801780 
# 
# From -- ./inp_files/58246.got.cif
#   From: 2010.05.17/outbox.cif.g08.bks.cpg/sg66_30_cif.got.tgz:58246.got - 2010.06.03 17:51:23.
