data_PCOD9497175
_publ_section_title
;
Structure prediction by ZEFSAII (Michael W. Deem and Ramdas Pophale) SiO2 
 PCOD9497175
Probable space group: C C C M
;
_chemical_formula_sum "Si O2"
_cell_formula_units_Z 52
_cell_length_a 31.535359
_cell_length_b 10.082648
_cell_length_c 8.926738
_cell_angle_alpha 90.000000
_cell_angle_beta 90.000000
_cell_angle_gamma 90.000000
_cell_volume 2838.344939
_symmetry_space_group_name_H-M "C C C M"
_symmetry_group_IT_number 66
_symmetry_cell_setting 'orthorhombic'
loop_
_space_group_symop_operation_xyz
x,y,z
-x,-y,z
x,-y,1/2-z
-x,y,1/2-z
-x,-y,-z
x,y,-z
-x,y,1/2+z
x,-y,1/2+z
1/2+x,1/2+y,z
1/2-x,1/2-y,z
1/2+x,1/2-y,1/2-z
1/2-x,1/2+y,1/2-z
1/2-x,1/2-y,-z
1/2+x,1/2+y,-z
1/2-x,1/2+y,1/2+z
1/2+x,1/2-y,1/2+z
loop_
_atom_site_type_symbol
_atom_site_label
_atom_site_fract_x
_atom_site_fract_y
_atom_site_fract_z
Si Si1 0.000000 0.500000 0.750000
Si Si2 0.212492 0.854554 0.179239
Si Si3 0.041396 0.241561 0.667707
Si Si4 0.124387 0.853983 0.320994
O O1 0.970751 0.602823 0.661244
O O2 0.250000 0.750000 0.206482
O O3 0.168814 0.803645 0.253328
O O4 0.221164 0.000000 0.250000
O O5 0.206845 0.869463 0.000000
O O6 0.047111 0.188749 0.500000
O O7 0.083257 0.223926 0.765007
O O8 0.000000 0.180522 0.750000
O O9 0.126369 0.859610 0.500000
O O10 0.119621 0.000000 0.250000
#
# Coordination Sequence:
#
# PCOD9497175 Si02
#       4
#     4  16  16  16
#     4   8  22  36  60  76 114 148 186 234 282 328
#     4  10  21  39  62  88 118 153 193 242 294 349
#     4  10  20  36  57  81 111 146 186 229 278 332
#     4  11  22  37  59  84 113 149 188 233 285 338
#
# _framework density 18.320536000000001
#
# number of rings (size 3 to 8) (size 9 to 14) (size 15 to 20)
#    0.923    0.923    0.000    6.923    0.000    3.077 
#    2.769    3.077    0.000    0.000    0.000    0.000 
#    0.000    0.000    0.000    0.000    0.000    0.000 
#
# Total GULP energy -144873.637996 kJ/mol
# GULP energy per Si atom -5572.063000 kJ/mol
# Density = 1.827884 g / cm^3
# Si number density = 18.320536 Si / 1000 Ang^3
#
#
#
# Elastic Constant Matrix: (Units=GPa)
#
#
# Indices 1 2 3 4 5 6 
#
# 1 178.3104 61.7521 95.3162 0.0000 0.0000 0.0000
# 2 61.7521 42.4370 37.7325 0.0000 0.0000 0.0000
# 3 95.3162 37.7325 176.7374 0.0000 0.0000 0.0000
# 4 0.0000 0.0000 0.0000 13.0748 0.0000 0.0000
# 5 0.0000 0.0000 0.0000 0.0000 60.3282 0.0000
# 6 0.0000 0.0000 0.0000 0.0000 0.0000 34.1338
#
#
#
# Elastic Compliance Matrix: (Units=1/GPa)
#
#
# Indices 1 2 3 4 5 6 
#
# 1 0.012979 -0.015629 -0.003663 0.000000 0.000000 0.000000
# 2 -0.015629 0.047907 -0.001799 0.000000 0.000000 0.000000
# 3 -0.003663 -0.001799 0.008018 0.000000 0.000000 0.000000
# 4 0.000000 0.000000 0.000000 0.076483 0.000000 0.000000
# 5 0.000000 0.000000 0.000000 0.000000 0.016576 0.000000
# 6 0.000000 0.000000 0.000000 0.000000 0.000000 0.029296
#
#
# Mechanical properties :
#
#
# Convention : Reuss Voigt Hill
#
# Bulk Modulus (GPa) = 37.42349 87.45405 62.43877
# Shear Modulus (GPa) = 20.63150 35.01964 27.82557
#
# Velocity S-wave (km/s) = 3.35944 4.37681 3.90143
# Velocity P-wave (km/s) = 5.95980 8.56628 7.37904
#
# Compressibility (1/GPa) = 0.02672119
#
# Stress axis : x y z
#
# Youngs Moduli (GPa) = 77.04778 20.87385 124.72630
#
# Poissons Ratio (x) = 0.32625 0.45686
# Poissons Ratio (y) = 1.20422 0.22435
# Poissons Ratio (z) = 0.28222 0.03755
#
# Static dielectric constant tensor:
#      x y z
#    x 1.642570 0.000000 0.000000 
#    y 0.000000 1.634430 0.000000 
#    z 0.000000 0.000000 1.635580 
# 
# From -- ./inp_files/3611.got.cif
#   From: 2010.05.17/outbox.cif.g08.bks.cpg/sg66_2_cif.got.tgz:3611.got - 2010.06.03 17:51:23.
