data_PCOD9497549
_publ_section_title
;
Structure prediction by ZEFSAII (Michael W. Deem and Ramdas Pophale) SiO2 
 PCOD9497549
Probable space group: C C C M
;
_chemical_formula_sum "Si O2"
_cell_formula_units_Z 80
_cell_length_a 18.214582
_cell_length_b 8.780831
_cell_length_c 25.240193
_cell_angle_alpha 90.000000
_cell_angle_beta 90.000000
_cell_angle_gamma 90.000000
_cell_volume 4036.895425
_symmetry_space_group_name_H-M "C C C M"
_symmetry_group_IT_number 66
_symmetry_cell_setting 'orthorhombic'
loop_
_space_group_symop_operation_xyz
x,y,z
-x,-y,z
x,-y,1/2-z
-x,y,1/2-z
-x,-y,-z
x,y,-z
-x,y,1/2+z
x,-y,1/2+z
1/2+x,1/2+y,z
1/2-x,1/2-y,z
1/2+x,1/2-y,1/2-z
1/2-x,1/2+y,1/2-z
1/2-x,1/2-y,-z
1/2+x,1/2+y,-z
1/2-x,1/2+y,1/2+z
1/2+x,1/2-y,1/2+z
loop_
_atom_site_type_symbol
_atom_site_label
_atom_site_fract_x
_atom_site_fract_y
_atom_site_fract_z
Si Si1 0.336108 0.788426 0.560549
Si Si2 0.922731 0.410317 0.938641
Si Si3 0.068279 0.795191 0.160918
Si Si4 0.897996 0.145160 0.664423
Si Si5 0.676912 0.175071 0.758773
O O1 0.360429 0.755986 0.500000
O O2 0.250000 0.750000 0.563976
O O3 0.376347 0.691227 0.605073
O O4 0.358578 0.964668 0.570479
O O5 0.920281 0.272286 0.897636
O O6 0.000000 0.500000 0.930724
O O7 0.919773 0.361497 0.000000
O O8 0.109245 0.686293 0.201430
O O9 0.982077 0.804765 0.173125
O O10 0.102163 0.962935 0.169324
O O11 0.845986 0.232048 0.705924
O O12 0.750000 0.250000 0.782014
O O13 0.693235 0.000000 0.750000
#
# Coordination Sequence:
#
# PCOD9497549 Si02
#       5
#    16  16  16  16  16
#     4  10  21  38  62  91 125 166 213 262 317 381
#     4  10  20  38  63  92 126 165 215 263 315 382
#     4  11  24  39  63  93 126 162 213 264 314 381
#     4  11  23  41  62  92 128 165 209 265 319 379
#     4  12  26  43  65  89 123 166 211 262 323 386
#
# _framework density 19.817208999999998
#
# number of rings (size 3 to 8) (size 9 to 14) (size 15 to 20)
#    0.000    1.200    2.000    4.200    0.000    4.800 
#    0.000    2.000    0.000    4.200    0.000    0.000 
#    0.000    0.000    0.000    0.000    0.000    0.000 
#
# Total GULP energy -223577.243515 kJ/mol
# GULP energy per Si atom -5589.431088 kJ/mol
# Density = 1.977210 g / cm^3
# Si number density = 19.817209 Si / 1000 Ang^3
#
#
#
# Elastic Constant Matrix: (Units=GPa)
#
#
# Indices 1 2 3 4 5 6 
#
# 1 66.9922 18.7875 3.4476 0.0000 0.0000 0.0000
# 2 18.7875 47.5816 -7.5355 0.0000 0.0000 0.0000
# 3 3.4476 -7.5355 36.3721 0.0000 0.0000 0.0000
# 4 0.0000 0.0000 0.0000 28.3129 0.0000 0.0000
# 5 0.0000 0.0000 0.0000 0.0000 19.9941 0.0000
# 6 0.0000 0.0000 0.0000 0.0000 0.0000 33.6427
#
#
#
# Elastic Compliance Matrix: (Units=1/GPa)
#
#
# Indices 1 2 3 4 5 6 
#
# 1 0.017123 -0.007256 -0.003126 0.000000 0.000000 0.000000
# 2 -0.007256 0.024804 0.005827 0.000000 0.000000 0.000000
# 3 -0.003126 0.005827 0.028997 0.000000 0.000000 0.000000
# 4 0.000000 0.000000 0.000000 0.035320 0.000000 0.000000
# 5 0.000000 0.000000 0.000000 0.000000 0.050015 0.000000
# 6 0.000000 0.000000 0.000000 0.000000 0.000000 0.029724
#
#
# Mechanical properties :
#
#
# Convention : Reuss Voigt Hill
#
# Bulk Modulus (GPa) = 16.17783 20.03833 18.10808
# Shear Modulus (GPa) = 23.18049 25.47303 24.32676
#
# Velocity S-wave (km/s) = 3.42382 3.58914 3.50745
# Velocity P-wave (km/s) = 4.87968 5.22584 5.05572
#
# Compressibility (1/GPa) = 0.06181300
#
# Stress axis : x y z
#
# Youngs Moduli (GPa) = 58.40127 40.31550 34.48621
#
# Poissons Ratio (x) = 0.29253 0.10781
# Poissons Ratio (y) = 0.42376 -0.20094
# Poissons Ratio (z) = 0.18258 -0.23491
#
# Static dielectric constant tensor:
#      x y z
#    x 1.683180 0.000000 0.000000 
#    y 0.000000 1.688440 0.000000 
#    z 0.000000 0.000000 1.691730 
# 
# From -- ./inp_files/65065.got.cif
#   From: 2010.05.17/outbox.cif.g08.bks.cpg/sg66_33_cif.got.tgz:65065.got - 2010.06.03 17:51:23.
