data_PCOD9497786
_publ_section_title
;
Structure prediction by ZEFSAII (Michael W. Deem and Ramdas Pophale) SiO2 
 PCOD9497786
Probable space group: C C C M
;
_chemical_formula_sum "Si O2"
_cell_formula_units_Z 112
_cell_length_a 24.928223
_cell_length_b 13.869137
_cell_length_c 14.652372
_cell_angle_alpha 90.000000
_cell_angle_beta 90.000000
_cell_angle_gamma 90.000000
_cell_volume 5065.807649
_symmetry_space_group_name_H-M "C C C M"
_symmetry_group_IT_number 66
_symmetry_cell_setting 'orthorhombic'
loop_
_space_group_symop_operation_xyz
x,y,z
-x,-y,z
x,-y,1/2-z
-x,y,1/2-z
-x,-y,-z
x,y,-z
-x,y,1/2+z
x,-y,1/2+z
1/2+x,1/2+y,z
1/2-x,1/2-y,z
1/2+x,1/2-y,1/2-z
1/2-x,1/2+y,1/2-z
1/2-x,1/2-y,-z
1/2+x,1/2+y,-z
1/2-x,1/2+y,1/2+z
1/2+x,1/2-y,1/2+z
loop_
_atom_site_type_symbol
_atom_site_label
_atom_site_fract_x
_atom_site_fract_y
_atom_site_fract_z
Si Si1 0.505535 0.615017 0.398394
Si Si2 0.742898 0.139030 0.300049
Si Si3 0.953088 0.568370 0.897230
Si Si4 0.627239 0.105042 0.904988
Si Si5 0.122471 0.691699 0.282897
Si Si6 0.746735 0.441511 0.103967
Si Si7 0.910693 0.112872 0.746859
O O1 0.500000 0.500000 0.408563
O O2 0.502105 0.657986 0.500000
O O3 0.456960 0.632069 0.328396
O O4 0.560677 0.633399 0.343928
O O5 0.750000 0.250000 0.327945
O O6 0.677390 0.133411 0.300356
O O7 0.765947 0.119094 0.196993
O O8 0.762040 0.052985 0.366346
O O9 0.903578 0.495231 0.903237
O O10 0.927744 0.656932 0.843076
O O11 0.000000 0.500000 0.857852
O O12 0.970080 0.596409 0.000000
O O13 0.608236 0.164753 0.819894
O O14 0.690029 0.081829 0.902504
O O15 0.614940 0.156155 0.000000
O O16 0.131912 0.806458 0.282186
O O17 0.724906 0.422583 0.000000
O O18 0.894524 0.000000 0.750000
#
# Coordination Sequence:
#
# PCOD9497786 Si02
#       7
#    16  16  16  16  16  16  16
#     4   8  15  31  52  67  90 133 181 224 264 319
#     4  10  21  37  59  91 113 150 203 242 298 367
#     4  10  21  35  53  82 118 153 189 234 290 356
#     4   9  18  34  55  78 106 146 190 229 285 354
#     4  11  21  35  55  79 115 154 186 238 298 345
#     4   9  18  37  62  83 114 152 190 241 299 360
#     4   9  19  33  49  76 106 144 191 229 281 336
#
# _framework density 22.109012
#
# number of rings (size 3 to 8) (size 9 to 14) (size 15 to 20)
#    0.000    2.571    1.429    1.286    0.000    5.143 
#    2.571    1.429    0.000    0.000    0.000    0.000 
#    0.000    0.000    0.000    0.000    0.000    0.000 
#
# Total GULP energy -311763.117225 kJ/mol
# GULP energy per Si atom -5567.198522 kJ/mol
# Density = 2.205869 g / cm^3
# Si number density = 22.109012 Si / 1000 Ang^3
#
#
#
# Elastic Constant Matrix: (Units=GPa)
#
#
# Indices 1 2 3 4 5 6 
#
# 1 30.8399 8.2009 19.0928 0.0000 0.0000 0.0000
# 2 8.2009 93.9100 19.7510 0.0000 0.0000 0.0000
# 3 19.0928 19.7510 116.9671 0.0000 0.0000 0.0000
# 4 0.0000 0.0000 0.0000 -121.7056 0.0000 0.0000
# 5 0.0000 0.0000 0.0000 0.0000 18.3217 0.0000
# 6 0.0000 0.0000 0.0000 0.0000 0.0000 29.7502
#
#
#
# Elastic Compliance Matrix: (Units=1/GPa)
#
#
# Indices 1 2 3 4 5 6 
#
# 1 0.036430 -0.002002 -0.005609 0.000000 0.000000 0.000000
# 2 -0.002002 0.011151 -0.001556 0.000000 0.000000 0.000000
# 3 -0.005609 -0.001556 0.009728 0.000000 0.000000 0.000000
# 4 0.000000 0.000000 0.000000 -0.008217 0.000000 0.000000
# 5 0.000000 0.000000 0.000000 0.000000 0.054580 0.000000
# 6 0.000000 0.000000 0.000000 0.000000 0.000000 0.033613
#
#
# Mechanical properties :
#
#
# Convention : Reuss Voigt Hill
#
# Bulk Modulus (GPa) = 25.65719 37.31183 31.48451
# Shear Modulus (GPa) = 29.65429 -1.74858 13.95285
#
# Velocity S-wave (km/s) = 3.66632 -0.89028 2.51488
# Velocity P-wave (km/s) = 5.43623 3.98198 4.76491
#
# Compressibility (1/GPa) = 0.03897544
#
# Stress axis : x y z
#
# Youngs Moduli (GPa) = 27.44989 89.68139 102.79950
#
# Poissons Ratio (x) = 0.17952 0.57655
# Poissons Ratio (y) = 0.05495 0.15997
# Poissons Ratio (z) = 0.15395 0.13956
#
# Static dielectric constant tensor:
#      x y z
#    x 1.837620 0.000000 0.000000 
#    y 0.000000 1.846430 0.000000 
#    z 0.000000 0.000000 1.867530 
# 
# From -- ./inp_files/33343.got.cif
#   From: 2010.05.17/outbox.cif.g08.bks.cpg/sg66_17_cif.got.tgz:33343.got - 2010.06.03 17:51:23.
