data_PCOD9497307
_publ_section_title
;
Structure prediction by ZEFSAII (Michael W. Deem and Ramdas Pophale) SiO2 
 PCOD9497307
Probable space group: C C C M
;
_chemical_formula_sum "Si O2"
_cell_formula_units_Z 72
_cell_length_a 24.457355
_cell_length_b 7.641556
_cell_length_c 14.769066
_cell_angle_alpha 90.000000
_cell_angle_beta 90.000000
_cell_angle_gamma 90.000000
_cell_volume 2760.223943
_symmetry_space_group_name_H-M "C C C M"
_symmetry_group_IT_number 66
_symmetry_cell_setting 'orthorhombic'
loop_
_space_group_symop_operation_xyz
x,y,z
-x,-y,z
x,-y,1/2-z
-x,y,1/2-z
-x,-y,-z
x,y,-z
-x,y,1/2+z
x,-y,1/2+z
1/2+x,1/2+y,z
1/2-x,1/2-y,z
1/2+x,1/2-y,1/2-z
1/2-x,1/2+y,1/2-z
1/2-x,1/2-y,-z
1/2+x,1/2+y,-z
1/2-x,1/2+y,1/2+z
1/2+x,1/2-y,1/2+z
loop_
_atom_site_type_symbol
_atom_site_label
_atom_site_fract_x
_atom_site_fract_y
_atom_site_fract_z
Si Si1 0.911941 0.520656 0.000000
Si Si2 0.079924 0.039051 0.400205
Si Si3 0.696517 0.465755 0.356057
Si Si4 0.818123 0.546814 0.142900
Si Si5 0.015947 0.279168 0.149612
O O1 0.865579 0.479526 0.079243
O O2 0.953034 0.595345 0.081100
O O3 0.071647 0.960646 0.500000
O O4 0.039827 0.202604 0.393812
O O5 0.143832 0.068802 0.390422
O O6 0.057104 0.886790 0.336395
O O7 0.698270 0.500000 0.250000
O O8 0.757285 0.512067 0.387470
O O9 0.684125 0.259266 0.369936
O O10 0.825696 0.500000 0.250000
O O11 0.000000 0.333303 0.250000
#
# Coordination Sequence:
#
# PCOD9497307 Si02
#       5
#     8  16  16  16  16
#     4  12  22  42  66  96 130 179 231 273 341 414
#     4  11  18  31  55  97 144 164 208 276 351 401
#     4  10  20  36  63 100 135 174 225 276 341 400
#     4  10  23  40  65  93 137 184 224 274 332 406
#     4  11  20  33  56  94 135 171 208 280 345 388
#
# _framework density 26.084841000000001
#
# number of rings (size 3 to 8) (size 9 to 14) (size 15 to 20)
#    0.000    1.333    4.444    3.333    1.556    0.889 
#    0.000    0.000    2.444    6.000    0.000    0.000 
#    0.000    0.000    0.000    0.000    0.000    0.000 
#
# Total GULP energy -200617.126235 kJ/mol
# GULP energy per Si atom -5572.697951 kJ/mol
# Density = 2.602547 g / cm^3
# Si number density = 26.084841 Si / 1000 Ang^3
#
#
#
# Elastic Constant Matrix: (Units=GPa)
#
#
# Indices 1 2 3 4 5 6 
#
# 1 283.6644 63.7298 74.3747 0.0000 0.0000 0.0000
# 2 63.7298 90.5103 18.1896 0.0000 0.0000 0.0000
# 3 74.3747 18.1896 182.2202 0.0000 0.0000 0.0000
# 4 0.0000 0.0000 0.0000 -134.2421 0.0000 0.0000
# 5 0.0000 0.0000 0.0000 0.0000 -446.3738 0.0000
# 6 0.0000 0.0000 0.0000 0.0000 0.0000 24.5780
#
#
#
# Elastic Compliance Matrix: (Units=1/GPa)
#
#
# Indices 1 2 3 4 5 6 
#
# 1 0.004596 -0.002918 -0.001585 0.000000 0.000000 0.000000
# 2 -0.002918 0.013127 -0.000119 0.000000 0.000000 0.000000
# 3 -0.001585 -0.000119 0.006147 0.000000 0.000000 0.000000
# 4 0.000000 0.000000 0.000000 -0.007449 0.000000 0.000000
# 5 0.000000 0.000000 0.000000 0.000000 -0.002240 0.000000
# 6 0.000000 0.000000 0.000000 0.000000 0.000000 0.040687
#
#
# Mechanical properties :
#
#
# Convention : Reuss Voigt Hill
#
# Bulk Modulus (GPa) = 68.37208 96.55369 82.46288
# Shear Modulus (GPa) = 72.47779 -84.53420 -6.02820
#
# Velocity S-wave (km/s) = 5.27691 -5.69893 -1.52185
# Velocity P-wave (km/s) = 7.96216 2.49160 5.34733
#
# Compressibility (1/GPa) = 0.01462585
#
# Stress axis : x y z
#
# Youngs Moduli (GPa) = 217.56340 76.17885 162.69093
#
# Poissons Ratio (x) = 0.22228 0.25783
# Poissons Ratio (y) = 0.63483 0.01943
# Poissons Ratio (z) = 0.34479 0.00910
#
# Static dielectric constant tensor:
#      x y z
#    x 2.049560 0.000000 0.000000 
#    y 0.000000 2.141750 0.000000 
#    z 0.000000 0.000000 1.982020 
# 
# From -- ./inp_files/33035.got.cif
#   From: 2010.05.17/outbox.cif.g08.bks.cpg/sg66_17_cif.got.tgz:33035.got - 2010.06.03 17:51:23.
