data_PCOD9497972
_publ_section_title
;
Structure prediction by ZEFSAII (Michael W. Deem and Ramdas Pophale) SiO2 
 PCOD9497972
Probable space group: C C C M
;
_chemical_formula_sum "Si O2"
_cell_formula_units_Z 68
_cell_length_a 17.195343
_cell_length_b 11.965022
_cell_length_c 17.811065
_cell_angle_alpha 90.000000
_cell_angle_beta 90.000000
_cell_angle_gamma 90.000000
_cell_volume 3664.495842
_symmetry_space_group_name_H-M "C C C M"
_symmetry_group_IT_number 66
_symmetry_cell_setting 'orthorhombic'
loop_
_space_group_symop_operation_xyz
x,y,z
-x,-y,z
x,-y,1/2-z
-x,y,1/2-z
-x,-y,-z
x,y,-z
-x,y,1/2+z
x,-y,1/2+z
1/2+x,1/2+y,z
1/2-x,1/2-y,z
1/2+x,1/2-y,1/2-z
1/2-x,1/2+y,1/2-z
1/2-x,1/2-y,-z
1/2+x,1/2+y,-z
1/2-x,1/2+y,1/2+z
1/2+x,1/2-y,1/2+z
loop_
_atom_site_type_symbol
_atom_site_label
_atom_site_fract_x
_atom_site_fract_y
_atom_site_fract_z
Si Si1 0.967653 0.212613 0.673619
Si Si2 0.500000 0.500000 0.250000
Si Si3 0.274064 0.072872 0.591420
Si Si4 0.628507 0.709266 0.409877
Si Si5 0.825806 0.327262 0.589316
O O1 0.897309 0.275346 0.634821
O O2 0.000000 0.269311 0.750000
O O3 0.042279 0.200651 0.620597
O O4 0.949157 0.085936 0.700830
O O5 0.272263 0.070243 0.500000
O O6 0.332335 0.172894 0.612909
O O7 0.188026 0.112163 0.615673
O O8 0.303182 0.951858 0.615454
O O9 0.626920 0.706978 0.500000
O O10 0.845367 0.330941 0.500000
O O11 0.750000 0.250000 0.597442
#
# Coordination Sequence:
#
# PCOD9497972 Si02
#       5
#    16   4  16  16  16
#     4  10  22  39  56  80 115 156 197 238 293 351
#     4   8  24  40  54  70 120 152 192 244 282 352
#     4   8  17  33  57  89 117 142 187 242 290 342
#     4   9  17  35  62  86 111 152 197 237 287 348
#     4  10  21  37  59  89 120 151 192 247 298 344
#
# _framework density 18.556441
#
# number of rings (size 3 to 8) (size 9 to 14) (size 15 to 20)
#    0.706    2.118    0.000    2.118    3.294    0.941 
#    4.235    7.059    0.000    0.000    0.000    0.000 
#    0.000    0.000    0.000    0.000    0.000    0.000 
#
# Total GULP energy -189341.822693 kJ/mol
# GULP energy per Si atom -5568.877138 kJ/mol
# Density = 1.851421 g / cm^3
# Si number density = 18.556441 Si / 1000 Ang^3
#
#
#
# Elastic Constant Matrix: (Units=GPa)
#
#
# Indices 1 2 3 4 5 6 
#
# 1 147.5060 90.3313 58.0357 0.0000 0.0000 0.0000
# 2 90.3313 160.2183 47.2684 0.0000 0.0000 0.0000
# 3 58.0357 47.2684 48.6047 0.0000 0.0000 0.0000
# 4 0.0000 0.0000 0.0000 26.0022 0.0000 0.0000
# 5 0.0000 0.0000 0.0000 0.0000 5.5334 0.0000
# 6 0.0000 0.0000 0.0000 0.0000 0.0000 27.4778
#
#
#
# Elastic Compliance Matrix: (Units=1/GPa)
#
#
# Indices 1 2 3 4 5 6 
#
# 1 0.014672 -0.004352 -0.013286 0.000000 0.000000 0.000000
# 2 -0.004352 0.010044 -0.004571 0.000000 0.000000 0.000000
# 3 -0.013286 -0.004571 0.040884 0.000000 0.000000 0.000000
# 4 0.000000 0.000000 0.000000 0.038458 0.000000 0.000000
# 5 0.000000 0.000000 0.000000 0.000000 0.180721 0.000000
# 6 0.000000 0.000000 0.000000 0.000000 0.000000 0.036393
#
#
# Mechanical properties :
#
#
# Convention : Reuss Voigt Hill
#
# Bulk Modulus (GPa) = 47.21307 83.06664 65.13986
# Shear Modulus (GPa) = 13.41735 22.51559 17.96647
#
# Velocity S-wave (km/s) = 2.69189 3.48711 3.11498
# Velocity P-wave (km/s) = 5.92958 7.81503 6.93666
#
# Compressibility (1/GPa) = 0.02118058
#
# Stress axis : x y z
#
# Youngs Moduli (GPa) = 68.15575 99.56313 24.45958
#
# Poissons Ratio (x) = 0.43334 0.32498
# Poissons Ratio (y) = 0.29664 0.11180
# Poissons Ratio (z) = 0.90555 0.45508
#
# Static dielectric constant tensor:
#      x y z
#    x 1.614780 0.000000 0.000000 
#    y 0.000000 1.652160 0.000000 
#    z 0.000000 0.000000 1.667140 
# 
# From -- ./inp_files/49664.got.cif
#   From: 2010.05.17/outbox.cif.g08.bks.cpg/sg66_25_cif.got.tgz:49664.got - 2010.06.03 17:51:23.
