data_PCOD9497849
_publ_section_title
;
Structure prediction by ZEFSAII (Michael W. Deem and Ramdas Pophale) SiO2 
 PCOD9497849
Probable space group: C C C M
;
_chemical_formula_sum "Si O2"
_cell_formula_units_Z 120
_cell_length_a 23.217704
_cell_length_b 14.248771
_cell_length_c 20.520464
_cell_angle_alpha 90.000000
_cell_angle_beta 90.000000
_cell_angle_gamma 90.000000
_cell_volume 6788.656800
_symmetry_space_group_name_H-M "C C C M"
_symmetry_group_IT_number 66
_symmetry_cell_setting 'orthorhombic'
loop_
_space_group_symop_operation_xyz
x,y,z
-x,-y,z
x,-y,1/2-z
-x,y,1/2-z
-x,-y,-z
x,y,-z
-x,y,1/2+z
x,-y,1/2+z
1/2+x,1/2+y,z
1/2-x,1/2-y,z
1/2+x,1/2-y,1/2-z
1/2-x,1/2+y,1/2-z
1/2-x,1/2-y,-z
1/2+x,1/2+y,-z
1/2-x,1/2+y,1/2+z
1/2+x,1/2-y,1/2+z
loop_
_atom_site_type_symbol
_atom_site_label
_atom_site_fract_x
_atom_site_fract_y
_atom_site_fract_z
Si Si1 0.631142 0.146824 0.074853
Si Si2 0.616370 0.673012 0.196235
Si Si3 0.184681 0.785933 0.822004
Si Si4 0.696470 0.497044 0.677516
Si Si5 0.392198 0.192012 0.925193
Si Si6 0.500000 0.748665 0.750000
Si Si7 0.008307 0.392611 0.368808
Si Si8 0.791988 0.539054 0.074606
O O1 0.648840 0.225532 0.126515
O O2 0.566117 0.114035 0.088763
O O3 0.674041 0.058837 0.084032
O O4 0.636487 0.178829 0.000000
O O5 0.658987 0.720857 0.249139
O O6 0.640726 0.568911 0.185063
O O7 0.615227 0.727023 0.127953
O O8 0.553733 0.685228 0.228374
O O9 0.250000 0.750000 0.823052
O O10 0.182551 0.895917 0.840091
O O11 0.723965 0.500000 0.750000
O O12 0.740661 0.454757 0.625851
O O13 0.451621 0.138258 0.908575
O O14 0.339111 0.120435 0.917641
O O15 0.393533 0.224816 0.000000
O O16 0.514371 0.818905 0.690380
O O17 0.000000 0.500000 0.346076
O O18 0.770571 0.541856 0.000000
#
# Coordination Sequence:
#
# PCOD9497849 Si02
#       8
#    16  16  16  16  16   8  16  16
#     4  11  22  36  59  89 124 160 193 241 300 356
#     4  10  23  40  63  85 118 154 200 246 301 346
#     4  11  22  40  61  87 119 150 197 247 296 358
#     4  10  23  40  60  85 113 155 200 244 298 348
#     4  10  22  36  57  87 121 161 197 237 293 358
#     4  10  21  40  61  90 116 152 206 255 295 352
#     4  11  20  36  59  89 126 158 196 243 299 357
#     4  10  21  36  55  89 125 159 196 234 291 357
#
# _framework density 17.676545000000001
#
# number of rings (size 3 to 8) (size 9 to 14) (size 15 to 20)
#    0.000    1.600    4.000    0.600    3.733    1.867 
#    0.000    4.333    0.000    0.000    0.000    2.800 
#    0.000    0.000    0.000    0.000    0.000    0.000 
#
# Total GULP energy -334898.071261 kJ/mol
# GULP energy per Si atom -5581.634521 kJ/mol
# Density = 1.763631 g / cm^3
# Si number density = 17.676545 Si / 1000 Ang^3
#
#
#
# Elastic Constant Matrix: (Units=GPa)
#
#
# Indices 1 2 3 4 5 6 
#
# 1 105.4305 57.3620 58.3451 0.0000 0.0000 0.0000
# 2 57.3620 95.6177 50.8087 0.0000 0.0000 0.0000
# 3 58.3451 50.8087 106.3958 0.0000 0.0000 0.0000
# 4 0.0000 0.0000 0.0000 17.4680 0.0000 0.0000
# 5 0.0000 0.0000 0.0000 0.0000 19.9702 0.0000
# 6 0.0000 0.0000 0.0000 0.0000 0.0000 23.8735
#
#
#
# Elastic Compliance Matrix: (Units=1/GPa)
#
#
# Indices 1 2 3 4 5 6 
#
# 1 0.016329 -0.006751 -0.005731 0.000000 0.000000 0.000000
# 2 -0.006751 0.016806 -0.004323 0.000000 0.000000 0.000000
# 3 -0.005731 -0.004323 0.014606 0.000000 0.000000 0.000000
# 4 0.000000 0.000000 0.000000 0.057248 0.000000 0.000000
# 5 0.000000 0.000000 0.000000 0.000000 0.050075 0.000000
# 6 0.000000 0.000000 0.000000 0.000000 0.000000 0.041887
#
#
# Mechanical properties :
#
#
# Convention : Reuss Voigt Hill
#
# Bulk Modulus (GPa) = 70.76698 71.16395 70.96547
# Shear Modulus (GPa) = 21.25209 21.65755 21.45482
#
# Velocity S-wave (km/s) = 3.47115 3.50410 3.48766
# Velocity P-wave (km/s) = 7.49576 7.53114 7.51347
#
# Compressibility (1/GPa) = 0.01413088
#
# Stress axis : x y z
#
# Youngs Moduli (GPa) = 61.23943 59.50395 68.46464
#
# Poissons Ratio (x) = 0.40171 0.39235
# Poissons Ratio (y) = 0.41343 0.29600
# Poissons Ratio (z) = 0.35095 0.25726
#
# Static dielectric constant tensor:
#      x y z
#    x 1.587430 0.000000 0.000000 
#    y 0.000000 1.589710 0.000000 
#    z 0.000000 0.000000 1.599240 
# 
# From -- ./inp_files/51986.got.cif
#   From: 2010.05.17/outbox.cif.g08.bks.cpg/sg66_26_cif.got.tgz:51986.got - 2010.06.03 17:51:23.
