data_PCOD9497287
_publ_section_title
;
Structure prediction by ZEFSAII (Michael W. Deem and Ramdas Pophale) SiO2 
 PCOD9497287
Probable space group: C C C M
;
_chemical_formula_sum "Si O2"
_cell_formula_units_Z 88
_cell_length_a 23.913804
_cell_length_b 12.424600
_cell_length_c 14.438655
_cell_angle_alpha 90.000000
_cell_angle_beta 90.000000
_cell_angle_gamma 90.000000
_cell_volume 4290.005220
_symmetry_space_group_name_H-M "C C C M"
_symmetry_group_IT_number 66
_symmetry_cell_setting 'orthorhombic'
loop_
_space_group_symop_operation_xyz
x,y,z
-x,-y,z
x,-y,1/2-z
-x,y,1/2-z
-x,-y,-z
x,y,-z
-x,y,1/2+z
x,-y,1/2+z
1/2+x,1/2+y,z
1/2-x,1/2-y,z
1/2+x,1/2-y,1/2-z
1/2-x,1/2+y,1/2-z
1/2-x,1/2-y,-z
1/2+x,1/2+y,-z
1/2-x,1/2+y,1/2+z
1/2+x,1/2-y,1/2+z
loop_
_atom_site_type_symbol
_atom_site_label
_atom_site_fract_x
_atom_site_fract_y
_atom_site_fract_z
Si Si1 0.638557 0.000000 0.250000
Si Si2 0.114945 0.117105 0.889435
Si Si3 0.050109 0.584005 0.604708
Si Si4 0.003001 0.807030 0.111722
Si Si5 0.627311 0.373550 0.888855
Si Si6 0.186035 0.266105 0.755875
O O1 0.598120 0.969578 0.164923
O O2 0.673538 0.891259 0.262089
O O3 0.048317 0.113229 0.869390
O O4 0.145756 0.210917 0.832983
O O5 0.137554 0.998727 0.866754
O O6 0.120761 0.134940 0.000000
O O7 0.070210 0.606948 0.500000
O O8 0.022014 0.692671 0.643691
O O9 0.000000 0.500000 0.599933
O O10 0.064677 0.838640 0.144017
O O11 0.008221 0.799632 0.000000
O O12 0.671095 0.298950 0.837028
O O13 0.629398 0.362112 0.000000
O O14 0.250000 0.250000 0.783410
#
# Coordination Sequence:
#
# PCOD9497287 Si02
#       6
#     8  16  16  16  16  16
#     4  12  25  42  64  90 124 175 214 264 312 370
#     4  10  21  42  69  97 128 163 208 262 322 385
#     4  10  20  36  61  93 131 167 202 248 310 387
#     4   9  17  35  63  98 130 157 198 252 316 390
#     4  10  22  41  68  99 132 165 202 259 325 385
#     4  12  28  44  65  89 126 170 226 272 314 365
#
# _framework density 20.512795000000001
#
# number of rings (size 3 to 8) (size 9 to 14) (size 15 to 20)
#    0.000    1.636    1.818    2.455    2.545    5.818 
#    0.000    1.818    0.000    0.000    0.000    0.000 
#    0.000    0.000    0.000    0.000    0.000    0.000 
#
# Total GULP energy -245810.584146 kJ/mol
# GULP energy per Si atom -5586.604185 kJ/mol
# Density = 2.046611 g / cm^3
# Si number density = 20.512795 Si / 1000 Ang^3
#
#
#
# Elastic Constant Matrix: (Units=GPa)
#
#
# Indices 1 2 3 4 5 6 
#
# 1 57.2516 0.7673 -0.9904 0.0000 0.0000 0.0000
# 2 0.7673 119.3425 11.5456 0.0000 0.0000 0.0000
# 3 -0.9904 11.5456 72.6959 0.0000 0.0000 0.0000
# 4 0.0000 0.0000 0.0000 -31.4220 0.0000 0.0000
# 5 0.0000 0.0000 0.0000 0.0000 18.5711 0.0000
# 6 0.0000 0.0000 0.0000 0.0000 0.0000 2.8184
#
#
#
# Elastic Compliance Matrix: (Units=1/GPa)
#
#
# Indices 1 2 3 4 5 6 
#
# 1 0.017473 -0.000137 0.000260 0.000000 0.000000 0.000000
# 2 -0.000137 0.008511 -0.001354 0.000000 0.000000 0.000000
# 3 0.000260 -0.001354 0.013974 0.000000 0.000000 0.000000
# 4 0.000000 0.000000 0.000000 -0.031825 0.000000 0.000000
# 5 0.000000 0.000000 0.000000 0.000000 0.053847 0.000000
# 6 0.000000 0.000000 0.000000 0.000000 0.000000 0.354809
#
#
# Mechanical properties :
#
#
# Convention : Reuss Voigt Hill
#
# Bulk Modulus (GPa) = 26.66936 30.21501 28.44218
# Shear Modulus (GPa) = 11.58074 13.85799 12.71936
#
# Velocity S-wave (km/s) = 2.37863 2.60201 2.49282
# Velocity P-wave (km/s) = 4.53579 4.87740 4.70970
#
# Compressibility (1/GPa) = 0.03749621
#
# Stress axis : x y z
#
# Youngs Moduli (GPa) = 57.23086 117.49388 71.55911
#
# Poissons Ratio (x) = 0.01615 -0.01860
# Poissons Ratio (y) = 0.00787 0.09686
# Poissons Ratio (z) = -0.01487 0.15904
#
# Static dielectric constant tensor:
#      x y z
#    x 1.708730 0.000000 0.000000 
#    y 0.000000 1.745660 0.000000 
#    z 0.000000 0.000000 1.772210 
# 
# From -- ./inp_files/32190.got.cif
#   From: 2010.05.17/outbox.cif.g08.bks.cpg/sg66_17_cif.got.tgz:32190.got - 2010.06.03 17:51:23.
