data_PCOD9497090
_publ_section_title
;
Structure prediction by ZEFSAII (Michael W. Deem and Ramdas Pophale) SiO2 
 PCOD9497090
Probable space group: C C C M
;
_chemical_formula_sum "Si O2"
_cell_formula_units_Z 116
_cell_length_a 13.892383
_cell_length_b 24.119730
_cell_length_c 17.090023
_cell_angle_alpha 90.000000
_cell_angle_beta 90.000000
_cell_angle_gamma 90.000000
_cell_volume 5726.533914
_symmetry_space_group_name_H-M "C C C M"
_symmetry_group_IT_number 66
_symmetry_cell_setting 'orthorhombic'
loop_
_space_group_symop_operation_xyz
x,y,z
-x,-y,z
x,-y,1/2-z
-x,y,1/2-z
-x,-y,-z
x,y,-z
-x,y,1/2+z
x,-y,1/2+z
1/2+x,1/2+y,z
1/2-x,1/2-y,z
1/2+x,1/2-y,1/2-z
1/2-x,1/2+y,1/2-z
1/2-x,1/2-y,-z
1/2+x,1/2+y,-z
1/2-x,1/2+y,1/2+z
1/2+x,1/2-y,1/2+z
loop_
_atom_site_type_symbol
_atom_site_label
_atom_site_fract_x
_atom_site_fract_y
_atom_site_fract_z
Si Si1 0.779152 0.849611 0.175414
Si Si2 0.308634 0.951426 0.591239
Si Si3 0.547621 0.311099 0.591619
Si Si4 0.994827 0.411724 0.907531
Si Si5 0.000000 0.000000 0.250000
Si Si6 0.716107 0.922181 0.589937
Si Si7 0.568298 0.805552 0.175070
Si Si8 0.100458 0.109029 0.318830
O O1 0.742922 0.910206 0.149905
O O2 0.840240 0.826811 0.102784
O O3 0.682693 0.814004 0.193397
O O4 0.859115 0.857854 0.243089
O O5 0.305024 0.932018 0.500000
O O6 0.421166 0.954250 0.615113
O O7 0.266184 0.012240 0.592702
O O8 0.523340 0.306666 0.500000
O O9 0.541335 0.253048 0.637286
O O10 0.480198 0.356951 0.633795
O O11 0.888604 0.413020 0.871947
O O12 0.042163 0.352970 0.887599
O O13 0.981135 0.420587 0.000000
O O14 0.063559 0.953809 0.202136
O O15 0.712967 0.903999 0.500000
O O16 0.803850 0.893591 0.630569
O O17 0.500000 0.814463 0.250000
#
# Coordination Sequence:
#
# PCOD9497090 Si02
#       8
#    16  16  16  16   4  16  16  16
#     4  11  22  41  65  91 125 158 207 257 310 373
#     4   9  18  33  57  91 125 161 207 260 314 372
#     4  12  26  44  64  90 124 162 211 262 307 361
#     4   9  18  35  58  88 127 164 205 256 315 376
#     4  12  24  44  70  84 126 164 198 248 306 364
#     4  10  20  35  58  88 124 168 210 255 312 375
#     4  11  23  40  66  95 122 161 201 257 316 374
#     4  12  24  43  63  92 124 166 207 257 309 371
#
# _framework density 20.256582000000002
#
# number of rings (size 3 to 8) (size 9 to 14) (size 15 to 20)
#    0.000    1.379    1.379    4.552    0.000    3.862 
#    0.000    2.759    0.000    7.448    0.000    0.000 
#    0.000    0.000    0.000    0.000    0.000    0.000 
#
# Total GULP energy -323404.770760 kJ/mol
# GULP energy per Si atom -5575.944323 kJ/mol
# Density = 2.021048 g / cm^3
# Si number density = 20.256582 Si / 1000 Ang^3
#
#
#
# Elastic Constant Matrix: (Units=GPa)
#
#
# Indices 1 2 3 4 5 6 
#
# 1 92.5517 2.0946 28.3699 0.0000 0.0000 0.0000
# 2 2.0946 50.5604 6.0191 0.0000 0.0000 0.0000
# 3 28.3699 6.0191 49.1310 0.0000 0.0000 0.0000
# 4 0.0000 0.0000 0.0000 22.1898 0.0000 0.0000
# 5 0.0000 0.0000 0.0000 0.0000********** 0.0000
# 6 0.0000 0.0000 0.0000 0.0000 0.0000 22.9070
#
#
#
# Elastic Compliance Matrix: (Units=1/GPa)
#
#
# Indices 1 2 3 4 5 6 
#
# 1 0.013135 0.000364 -0.007629 0.000000 0.000000 0.000000
# 2 0.000364 0.020081 -0.002670 0.000000 0.000000 0.000000
# 3 -0.007629 -0.002670 0.025086 0.000000 0.000000 0.000000
# 4 0.000000 0.000000 0.000000 0.045066 0.000000 0.000000
# 5 0.000000 0.000000 0.000000 0.000000 -0.000013 0.000000
# 6 0.000000 0.000000 0.000000 0.000000 0.000000 0.043655
#
#
# Mechanical properties :
#
#
# Convention : Reuss Voigt Hill
#
# Bulk Modulus (GPa) = 26.02039 29.46782 27.74411
# Shear Modulus (GPa) = 27.82539 -15583.97051 -7778.07256
#
# Velocity S-wave (km/s) = 3.71029 -87.80654 -62.03315
# Velocity P-wave (km/s) = 5.58823 101.31834 71.53383
#
# Compressibility (1/GPa) = 0.03843140
#
# Stress axis : x y z
#
# Youngs Moduli (GPa) = 76.13167 49.79791 39.86235
#
# Poissons Ratio (x) = -0.01813 0.30412
# Poissons Ratio (y) = -0.02772 0.10645
# Poissons Ratio (z) = 0.58083 0.13298
#
# Static dielectric constant tensor:
#      x y z
#    x 1.752310 0.000000 0.000000 
#    y 0.000000 1.726800 0.000000 
#    z 0.000000 0.000000 1.743170 
# 
# From -- ./inp_files/39118.got.cif
#   From: 2010.05.17/outbox.cif.g08.bks.cpg/sg66_20_cif.got.tgz:39118.got - 2010.06.03 17:51:23.
