data_PCOD9497422
_publ_section_title
;
Structure prediction by ZEFSAII (Michael W. Deem and Ramdas Pophale) SiO2 
 PCOD9497422
Probable space group: C C C M
;
_chemical_formula_sum "Si O2"
_cell_formula_units_Z 52
_cell_length_a 14.621052
_cell_length_b 18.948770
_cell_length_c 7.632121
_cell_angle_alpha 90.000000
_cell_angle_beta 90.000000
_cell_angle_gamma 90.000000
_cell_volume 2114.486385
_symmetry_space_group_name_H-M "C C C M"
_symmetry_group_IT_number 66
_symmetry_cell_setting 'orthorhombic'
loop_
_space_group_symop_operation_xyz
x,y,z
-x,-y,z
x,-y,1/2-z
-x,y,1/2-z
-x,-y,-z
x,y,-z
-x,y,1/2+z
x,-y,1/2+z
1/2+x,1/2+y,z
1/2-x,1/2-y,z
1/2+x,1/2-y,1/2-z
1/2-x,1/2+y,1/2-z
1/2-x,1/2-y,-z
1/2+x,1/2+y,-z
1/2-x,1/2+y,1/2+z
1/2+x,1/2-y,1/2+z
loop_
_atom_site_type_symbol
_atom_site_label
_atom_site_fract_x
_atom_site_fract_y
_atom_site_fract_z
Si Si1 0.250000 0.250000 0.500000
Si Si2 0.699107 0.417525 0.211722
Si Si3 0.900858 0.583097 0.705919
Si Si4 0.895253 0.219684 0.697707
O O1 0.170450 0.251505 0.654438
O O2 0.683682 0.500000 0.250000
O O3 0.801199 0.397682 0.279533
O O4 0.628094 0.364065 0.294509
O O5 0.697543 0.405427 0.000000
O O6 0.906887 0.500000 0.750000
O O7 0.892062 0.590271 0.500000
O O8 0.000000 0.614568 0.750000
O O9 0.879023 0.245835 0.500000
O O10 0.000000 0.228831 0.750000
#
# Coordination Sequence:
#
# PCOD9497422 Si02
#       4
#     4  16  16  16
#     4  12  26  52  80 106 152 190 262 312 368 452
#     4  10  20  37  62 102 149 192 242 298 367 457
#     4   9  16  26  46  73 119 174 224 276 335 406
#     4  12  25  48  80 110 148 198 247 316 387 446
#
# _framework density 24.59226
#
# number of rings (size 3 to 8) (size 9 to 14) (size 15 to 20)
#    0.000    1.538    3.077    3.231    0.000    4.308 
#    0.000    4.615    0.000    0.000    0.000    0.000 
#    0.000    0.000    0.000    0.000    0.000    0.000 
#
# Total GULP energy -144944.103298 kJ/mol
# GULP energy per Si atom -5574.773204 kJ/mol
# Density = 2.453629 g / cm^3
# Si number density = 24.592260 Si / 1000 Ang^3
#
#
#
# Elastic Constant Matrix: (Units=GPa)
#
#
# Indices 1 2 3 4 5 6 
#
# 1 196.8382 39.0327 73.9780 0.0000 0.0000 0.0000
# 2 39.0327 129.0910 9.4507 0.0000 0.0000 0.0000
# 3 73.9780 9.4507 199.6389 0.0000 0.0000 0.0000
# 4 0.0000 0.0000 0.0000 24.6517 0.0000 0.0000
# 5 0.0000 0.0000 0.0000 0.0000 40.2814 0.0000
# 6 0.0000 0.0000 0.0000 0.0000 0.0000 13.9818
#
#
#
# Elastic Compliance Matrix: (Units=1/GPa)
#
#
# Indices 1 2 3 4 5 6 
#
# 1 0.006265 -0.001730 -0.002240 0.000000 0.000000 0.000000
# 2 -0.001730 0.008251 0.000251 0.000000 0.000000 0.000000
# 3 -0.002240 0.000251 0.005827 0.000000 0.000000 0.000000
# 4 0.000000 0.000000 0.000000 0.040565 0.000000 0.000000
# 5 0.000000 0.000000 0.000000 0.000000 0.024825 0.000000
# 6 0.000000 0.000000 0.000000 0.000000 0.000000 0.071522
#
#
# Mechanical properties :
#
#
# Convention : Reuss Voigt Hill
#
# Bulk Modulus (GPa) = 77.49150 85.61010 81.55080
# Shear Modulus (GPa) = 29.58642 42.65677 36.12160
#
# Velocity S-wave (km/s) = 3.47231 4.16932 3.83668
# Velocity P-wave (km/s) = 6.90325 7.62004 7.27048
#
# Compressibility (1/GPa) = 0.01290464
#
# Stress axis : x y z
#
# Youngs Moduli (GPa) = 159.61164 121.19239 171.61124
#
# Poissons Ratio (x) = 0.20971 0.38436
# Poissons Ratio (y) = 0.27619 -0.04301
# Poissons Ratio (z) = 0.35748 -0.03037
#
# Static dielectric constant tensor:
#      x y z
#    x 1.936700 0.000000 0.000000 
#    y 0.000000 2.213830 0.000000 
#    z 0.000000 0.000000 1.885000 
# 
# From -- ./inp_files/4738.got.cif
#   From: 2010.05.17/outbox.cif.g08.bks.cpg/sg66_3_cif.got.tgz:4738.got - 2010.06.03 17:51:23.
