data_PCOD9497120
_publ_section_title
;
Structure prediction by ZEFSAII (Michael W. Deem and Ramdas Pophale) SiO2 
 PCOD9497120
Probable space group: C C C M
;
_chemical_formula_sum "Si O2"
_cell_formula_units_Z 80
_cell_length_a 11.753128
_cell_length_b 19.525652
_cell_length_c 16.606312
_cell_angle_alpha 90.000000
_cell_angle_beta 90.000000
_cell_angle_gamma 90.000000
_cell_volume 3810.940813
_symmetry_space_group_name_H-M "C C C M"
_symmetry_group_IT_number 66
_symmetry_cell_setting 'orthorhombic'
loop_
_space_group_symop_operation_xyz
x,y,z
-x,-y,z
x,-y,1/2-z
-x,y,1/2-z
-x,-y,-z
x,y,-z
-x,y,1/2+z
x,-y,1/2+z
1/2+x,1/2+y,z
1/2-x,1/2-y,z
1/2+x,1/2-y,1/2-z
1/2-x,1/2+y,1/2-z
1/2-x,1/2-y,-z
1/2+x,1/2+y,-z
1/2-x,1/2+y,1/2+z
1/2+x,1/2-y,1/2+z
loop_
_atom_site_type_symbol
_atom_site_label
_atom_site_fract_x
_atom_site_fract_y
_atom_site_fract_z
Si Si1 0.376911 0.226342 0.235794
Si Si2 0.748464 0.668040 0.500000
Si Si3 0.763618 0.012925 0.338280
Si Si4 0.598466 0.894991 0.359609
Si Si5 0.384308 0.541481 0.000000
Si Si6 0.350359 0.860684 0.593343
O O1 0.500000 0.264123 0.250000
O O2 0.250000 0.250000 0.261921
O O3 0.395009 0.155283 0.283623
O O4 0.366337 0.209866 0.141196
O O5 0.750000 0.750000 0.500000
O O6 0.818917 0.640818 0.423967
O O7 0.630233 0.624545 0.500000
O O8 0.738396 0.091680 0.358815
O O9 0.817372 0.000000 0.250000
O O10 0.647634 0.968423 0.336630
O O11 0.826118 0.983331 0.416875
O O12 0.473606 0.896447 0.397439
O O13 0.500000 0.500000 0.000000
O O14 0.320687 0.854359 0.500000
#
# Coordination Sequence:
#
# PCOD9497120 Si02
#       6
#    16   8  16  16   8  16
#     4  10  22  40  61  87 126 167 213 270 320 395
#     4  10  20  37  63  87 121 166 215 262 311 391
#     4  11  21  37  64  92 122 160 201 265 337 401
#     4  10  20  35  60  91 121 155 205 263 323 386
#     4  10  24  43  61  93 129 168 217 274 326 401
#     4  11  21  36  61  92 126 154 198 264 334 391
#
# _framework density 20.992191999999999
#
# number of rings (size 3 to 8) (size 9 to 14) (size 15 to 20)
#    0.000    1.600    4.000    1.200    0.000    2.400 
#    0.000    8.000    0.000    0.000    0.000    0.000 
#    0.000    0.000    0.000    0.000    0.000    0.000 
#
# Total GULP energy -222794.502566 kJ/mol
# GULP energy per Si atom -5569.862564 kJ/mol
# Density = 2.094441 g / cm^3
# Si number density = 20.992192 Si / 1000 Ang^3
#
#
#
# Elastic Constant Matrix: (Units=GPa)
#
#
# Indices 1 2 3 4 5 6 
#
# 1 101.3804 30.7333 25.9467 0.0000 0.0000 0.0000
# 2 30.7333 58.0642 17.6730 0.0000 0.0000 0.0000
# 3 25.9467 17.6730 164.9107 0.0000 0.0000 0.0000
# 4 0.0000 0.0000 0.0000 17.9309 0.0000 0.0000
# 5 0.0000 0.0000 0.0000 0.0000 12.5808 0.0000
# 6 0.0000 0.0000 0.0000 0.0000 0.0000 21.6721
#
#
#
# Elastic Compliance Matrix: (Units=1/GPa)
#
#
# Indices 1 2 3 4 5 6 
#
# 1 0.011992 -0.005968 -0.001247 0.000000 0.000000 0.000000
# 2 -0.005968 0.020773 -0.001287 0.000000 0.000000 0.000000
# 3 -0.001247 -0.001287 0.006398 0.000000 0.000000 0.000000
# 4 0.000000 0.000000 0.000000 0.055770 0.000000 0.000000
# 5 0.000000 0.000000 0.000000 0.000000 0.079486 0.000000
# 6 0.000000 0.000000 0.000000 0.000000 0.000000 0.046142
#
#
# Mechanical properties :
#
#
# Convention : Reuss Voigt Hill
#
# Bulk Modulus (GPa) = 45.12933 52.56237 48.84585
# Shear Modulus (GPa) = 20.41218 27.10359 23.75788
#
# Velocity S-wave (km/s) = 3.12167 3.59712 3.36780
# Velocity P-wave (km/s) = 5.87690 6.50736 6.20015
#
# Compressibility (1/GPa) = 0.02215854
#
# Stress axis : x y z
#
# Youngs Moduli (GPa) = 83.38759 48.13972 156.29695
#
# Poissons Ratio (x) = 0.28729 0.19494
# Poissons Ratio (y) = 0.49764 0.20119
# Poissons Ratio (z) = 0.10401 0.06197
#
# Static dielectric constant tensor:
#      x y z
#    x 1.821840 0.000000 0.000000 
#    y 0.000000 1.758810 0.000000 
#    z 0.000000 0.000000 1.005680 
# 
# From -- ./inp_files/26449.got.cif
#   From: 2010.05.17/outbox.cif.g08.bks.cpg/sg66_14_cif.got.tgz:26449.got - 2010.06.03 17:51:23.
