data_PCOD9497649
_publ_section_title
;
Structure prediction by ZEFSAII (Michael W. Deem and Ramdas Pophale) SiO2 
 PCOD9497649
Probable space group: C C C M
;
_chemical_formula_sum "Si O2"
_cell_formula_units_Z 112
_cell_length_a 22.715026
_cell_length_b 15.158436
_cell_length_c 17.024184
_cell_angle_alpha 90.000000
_cell_angle_beta 90.000000
_cell_angle_gamma 90.000000
_cell_volume 5861.839692
_symmetry_space_group_name_H-M "C C C M"
_symmetry_group_IT_number 66
_symmetry_cell_setting 'orthorhombic'
loop_
_space_group_symop_operation_xyz
x,y,z
-x,-y,z
x,-y,1/2-z
-x,y,1/2-z
-x,-y,-z
x,y,-z
-x,y,1/2+z
x,-y,1/2+z
1/2+x,1/2+y,z
1/2-x,1/2-y,z
1/2+x,1/2-y,1/2-z
1/2-x,1/2+y,1/2-z
1/2-x,1/2-y,-z
1/2+x,1/2+y,-z
1/2-x,1/2+y,1/2+z
1/2+x,1/2-y,1/2+z
loop_
_atom_site_type_symbol
_atom_site_label
_atom_site_fract_x
_atom_site_fract_y
_atom_site_fract_z
Si Si1 0.990542 0.359414 0.157260
Si Si2 0.332326 0.423177 0.184776
Si Si3 0.699589 0.067745 0.677493
Si Si4 0.433670 0.485461 0.593585
Si Si5 0.408439 0.279999 0.407414
Si Si6 0.680954 0.757784 0.273755
Si Si7 0.586738 0.014805 0.591912
O O1 0.967950 0.270373 0.117287
O O2 0.940585 0.433817 0.141109
O O3 0.000000 0.348635 0.250000
O O4 0.048238 0.400487 0.117141
O O5 0.332095 0.500000 0.250000
O O6 0.266653 0.423211 0.147751
O O7 0.386088 0.448011 0.129090
O O8 0.338440 0.329279 0.226761
O O9 0.677159 0.158822 0.716049
O O10 0.653827 0.032658 0.614050
O O11 0.700419 0.000000 0.750000
O O12 0.500000 0.500000 0.624372
O O13 0.435111 0.497625 0.500000
O O14 0.414154 0.384384 0.608305
O O15 0.397221 0.266856 0.500000
O O16 0.358174 0.239058 0.351791
O O17 0.750000 0.750000 0.294805
O O18 0.578652 0.996336 0.500000
#
# Coordination Sequence:
#
# PCOD9497649 Si02
#       7
#    16  16  16  16  16  16  16
#     4  11  22  37  57  83 120 159 200 247 301 365
#     4  10  20  40  61  85 115 155 201 248 298 360
#     4  10  21  37  60  85 120 155 197 250 300 363
#     4  10  23  41  60  85 121 158 197 253 313 361
#     4  11  22  38  59  88 122 155 199 255 313 369
#     4  10  21  38  61  88 119 157 203 251 302 366
#     4  11  21  36  57  84 118 159 201 247 304 361
#
# _framework density 19.106629999999999
#
# number of rings (size 3 to 8) (size 9 to 14) (size 15 to 20)
#    0.000    1.571    1.429    5.143    0.000    3.429 
#    0.000    2.143    0.000    2.571    0.000    0.000 
#    0.000    0.000    0.000    0.000    0.000    0.000 
#
# Total GULP energy -312795.466314 kJ/mol
# GULP energy per Si atom -5585.633327 kJ/mol
# Density = 1.906314 g / cm^3
# Si number density = 19.106630 Si / 1000 Ang^3
#
#
#
# Elastic Constant Matrix: (Units=GPa)
#
#
# Indices 1 2 3 4 5 6 
#
# 1 112.8432 29.0060 49.5805 0.0000 0.0000 0.0000
# 2 29.0060 92.5494 26.5496 0.0000 0.0000 0.0000
# 3 49.5805 26.5496 57.4364 0.0000 0.0000 0.0000
# 4 0.0000 0.0000 0.0000 15.1349 0.0000 0.0000
# 5 0.0000 0.0000 0.0000 0.0000 -54.3482 0.0000
# 6 0.0000 0.0000 0.0000 0.0000 0.0000 40.0187
#
#
#
# Elastic Compliance Matrix: (Units=1/GPa)
#
#
# Indices 1 2 3 4 5 6 
#
# 1 0.014371 -0.001090 -0.011902 0.000000 0.000000 0.000000
# 2 -0.001090 0.012540 -0.004856 0.000000 0.000000 0.000000
# 3 -0.011902 -0.004856 0.029929 0.000000 0.000000 0.000000
# 4 0.000000 0.000000 0.000000 0.066072 0.000000 0.000000
# 5 0.000000 0.000000 0.000000 0.000000 -0.018400 0.000000
# 6 0.000000 0.000000 0.000000 0.000000 0.000000 0.024988
#
#
# Mechanical properties :
#
#
# Convention : Reuss Voigt Hill
#
# Bulk Modulus (GPa) = 47.29186 52.56682 49.92934
# Shear Modulus (GPa) = 29.02860 10.67395 19.85127
#
# Velocity S-wave (km/s) = 3.90204 2.36615 3.22681
# Velocity P-wave (km/s) = 6.71614 5.91920 6.33022
#
# Compressibility (1/GPa) = 0.02114529
#
# Stress axis : x y z
#
# Youngs Moduli (GPa) = 69.58248 79.74792 33.41233
#
# Poissons Ratio (x) = 0.08691 0.39767
# Poissons Ratio (y) = 0.07583 0.16223
# Poissons Ratio (z) = 0.82817 0.38722
#
# Static dielectric constant tensor:
#      x y z
#    x 1.689050 0.000000 0.000000 
#    y 0.000000 1.669600 0.000000 
#    z 0.000000 0.000000 1.624470 
# 
# From -- ./inp_files/32509.got.cif
#   From: 2010.05.17/outbox.cif.g08.bks.cpg/sg66_17_cif.got.tgz:32509.got - 2010.06.03 17:51:23.
