data_PCOD9497773
_publ_section_title
;
Structure prediction by ZEFSAII (Michael W. Deem and Ramdas Pophale) SiO2 
 PCOD9497773
Probable space group: C C C M
;
_chemical_formula_sum "Si O2"
_cell_formula_units_Z 80
_cell_length_a 7.786249
_cell_length_b 31.181668
_cell_length_c 14.251468
_cell_angle_alpha 90.000000
_cell_angle_beta 90.000000
_cell_angle_gamma 90.000000
_cell_volume 3460.088709
_symmetry_space_group_name_H-M "C C C M"
_symmetry_group_IT_number 66
_symmetry_cell_setting 'orthorhombic'
loop_
_space_group_symop_operation_xyz
x,y,z
-x,-y,z
x,-y,1/2-z
-x,y,1/2-z
-x,-y,-z
x,y,-z
-x,y,1/2+z
x,-y,1/2+z
1/2+x,1/2+y,z
1/2-x,1/2-y,z
1/2+x,1/2-y,1/2-z
1/2-x,1/2+y,1/2-z
1/2-x,1/2-y,-z
1/2+x,1/2+y,-z
1/2-x,1/2+y,1/2+z
1/2+x,1/2-y,1/2+z
loop_
_atom_site_type_symbol
_atom_site_label
_atom_site_fract_x
_atom_site_fract_y
_atom_site_fract_z
Si Si1 0.456228 0.453731 0.109081
Si Si2 0.056717 0.138302 0.115077
Si Si3 0.947997 0.642244 0.108345
Si Si4 0.243721 0.200906 0.615012
Si Si5 0.051409 0.546789 0.641137
O O1 0.500000 0.500000 0.150451
O O2 0.520802 0.407963 0.145565
O O3 0.252183 0.450216 0.118940
O O4 0.509426 0.455528 0.000000
O O5 0.253958 0.143425 0.148236
O O6 0.929792 0.176162 0.142141
O O7 0.062625 0.136326 0.000000
O O8 0.091235 0.673825 0.147936
O O9 0.016678 0.593077 0.108621
O O10 0.926999 0.654921 0.000000
O O11 0.245594 0.200804 0.500000
O O12 0.250000 0.250000 0.646340
O O13 0.000000 0.500000 0.602760
O O14 0.000000 0.545605 0.750000
#
# Coordination Sequence:
#
# PCOD9497773 Si02
#       5
#    16  16  16  16  16
#     4   9  18  32  54  81 107 140 182 230 276 322
#     4   8  15  28  44  71 107 133 166 212 262 320
#     4   9  18  32  52  75 102 139 179 224 269 314
#     4   9  17  28  47  78 108 134 169 218 275 324
#     4  10  21  35  50  75 109 145 178 219 272 331
#
# _framework density 23.120795000000001
#
# number of rings (size 3 to 8) (size 9 to 14) (size 15 to 20)
#    0.000    3.000    0.000    1.800    2.800    2.400 
#    0.000    6.000    0.000    0.000   10.400    0.000 
#    0.000    0.000    0.000    0.000    0.000    0.000 
#
# Total GULP energy -223097.448446 kJ/mol
# GULP energy per Si atom -5577.436211 kJ/mol
# Density = 2.306817 g / cm^3
# Si number density = 23.120795 Si / 1000 Ang^3
#
#
#
# Elastic Constant Matrix: (Units=GPa)
#
#
# Indices 1 2 3 4 5 6 
#
# 1 89.8764 103.5137 -2.7999 0.0000 0.0000 0.0000
# 2 103.5137 253.9096 -1.8108 0.0000 0.0000 0.0000
# 3 -2.7999 -1.8108 84.1721 0.0000 0.0000 0.0000
# 4 0.0000 0.0000 0.0000 -59.1459 0.0000 0.0000
# 5 0.0000 0.0000 0.0000 0.0000 16.2424 0.0000
# 6 0.0000 0.0000 0.0000 0.0000 0.0000 44.9259
#
#
#
# Elastic Compliance Matrix: (Units=1/GPa)
#
#
# Indices 1 2 3 4 5 6 
#
# 1 0.020997 -0.008556 0.000514 0.000000 0.000000 0.000000
# 2 -0.008556 0.007426 -0.000125 0.000000 0.000000 0.000000
# 3 0.000514 -0.000125 0.011895 0.000000 0.000000 0.000000
# 4 0.000000 0.000000 0.000000 -0.016907 0.000000 0.000000
# 5 0.000000 0.000000 0.000000 0.000000 0.061567 0.000000
# 6 0.000000 0.000000 0.000000 0.000000 0.000000 0.022259
#
#
# Mechanical properties :
#
#
# Convention : Reuss Voigt Hill
#
# Bulk Modulus (GPa) = 41.69460 69.52935 55.61198
# Shear Modulus (GPa) = 38.00396 22.34148 30.17272
#
# Velocity S-wave (km/s) = 4.05867 3.11190 3.61640
# Velocity P-wave (km/s) = 6.32742 6.56120 6.44537
#
# Compressibility (1/GPa) = 0.02398392
#
# Stress axis : x y z
#
# Youngs Moduli (GPa) = 47.62550 134.66551 84.07003
#
# Poissons Ratio (x) = 1.15226 -0.04324
# Poissons Ratio (y) = 0.40750 0.01050
# Poissons Ratio (z) = -0.02450 0.01681
#
# Static dielectric constant tensor:
#      x y z
#    x 1.826170 0.000000 0.000000 
#    y 0.000000 1.886770 0.000000 
#    z 0.000000 0.000000 1.895640 
# 
# From -- ./inp_files/36983.got.cif
#   From: 2010.05.17/outbox.cif.g08.bks.cpg/sg66_19_cif.got.tgz:36983.got - 2010.06.03 17:51:23.
