data_PCOD9497688
_publ_section_title
;
Structure prediction by ZEFSAII (Michael W. Deem and Ramdas Pophale) SiO2 
 PCOD9497688
Probable space group: C C C M
;
_chemical_formula_sum "Si O2"
_cell_formula_units_Z 112
_cell_length_a 21.206818
_cell_length_b 14.474632
_cell_length_c 16.369363
_cell_angle_alpha 90.000000
_cell_angle_beta 90.000000
_cell_angle_gamma 90.000000
_cell_volume 5024.754177
_symmetry_space_group_name_H-M "C C C M"
_symmetry_group_IT_number 66
_symmetry_cell_setting 'orthorhombic'
loop_
_space_group_symop_operation_xyz
x,y,z
-x,-y,z
x,-y,1/2-z
-x,y,1/2-z
-x,-y,-z
x,y,-z
-x,y,1/2+z
x,-y,1/2+z
1/2+x,1/2+y,z
1/2-x,1/2-y,z
1/2+x,1/2-y,1/2-z
1/2-x,1/2+y,1/2-z
1/2-x,1/2-y,-z
1/2+x,1/2+y,-z
1/2-x,1/2+y,1/2+z
1/2+x,1/2-y,1/2+z
loop_
_atom_site_type_symbol
_atom_site_label
_atom_site_fract_x
_atom_site_fract_y
_atom_site_fract_z
Si Si1 0.939151 0.629233 0.196299
Si Si2 0.119530 0.942828 0.401782
Si Si3 0.822256 0.324241 0.810186
Si Si4 0.991160 0.185402 0.651948
Si Si5 0.745133 0.647086 0.850265
Si Si6 0.631217 0.344131 0.095527
Si Si7 0.849805 0.505595 0.906571
O O1 0.886271 0.669173 0.256973
O O2 0.957926 0.715307 0.138514
O O3 0.906676 0.545523 0.148428
O O4 0.000000 0.605462 0.250000
O O5 0.126457 0.937214 0.500000
O O6 0.052667 0.898191 0.378319
O O7 0.173862 0.884766 0.358160
O O8 0.130573 0.049140 0.377321
O O9 0.769593 0.346654 0.742736
O O10 0.824684 0.226198 0.855244
O O11 0.826642 0.406989 0.874546
O O12 0.000000 0.176889 0.750000
O O13 0.058736 0.186027 0.609086
O O14 0.750000 0.750000 0.885258
O O15 0.791872 0.576660 0.895099
O O16 0.647507 0.340673 0.000000
O O17 0.869137 0.500493 0.000000
#
# Coordination Sequence:
#
# PCOD9497688 Si02
#       7
#    16  16  16  16  16  16  16
#     4  10  20  41  64  94 136 177 228 290 340 400
#     4  11  25  44  71 106 142 184 229 284 350 410
#     4  11  23  45  66  96 139 180 234 285 339 409
#     4  11  22  43  67 106 143 186 232 283 341 406
#     4  11  25  45  73 101 133 177 228 290 344 413
#     4  11  24  43  69 102 145 187 228 281 347 416
#     4  11  25  43  68 100 136 184 230 286 355 411
#
# _framework density 22.289646000000001
#
# number of rings (size 3 to 8) (size 9 to 14) (size 15 to 20)
#    0.000    1.143    2.857    5.143    0.000    9.143 
#    0.000    0.714    0.000    3.429    0.000    0.000 
#    0.000    0.000    0.000    0.000    0.000    0.000 
#
# Total GULP energy -313562.884067 kJ/mol
# GULP energy per Si atom -5599.337215 kJ/mol
# Density = 2.223891 g / cm^3
# Si number density = 22.289646 Si / 1000 Ang^3
#
#
#
# Elastic Constant Matrix: (Units=GPa)
#
#
# Indices 1 2 3 4 5 6 
#
# 1 62.9269 14.0083 13.7014 0.0000 0.0000 0.0000
# 2 14.0083 131.1016 20.4584 0.0000 0.0000 0.0000
# 3 13.7014 20.4584 61.4479 0.0000 0.0000 0.0000
# 4 0.0000 0.0000 0.0000 84.9348 0.0000 0.0000
# 5 0.0000 0.0000 0.0000 0.0000 26.9763 0.0000
# 6 0.0000 0.0000 0.0000 0.0000 0.0000 6.5940
#
#
#
# Elastic Compliance Matrix: (Units=1/GPa)
#
#
# Indices 1 2 3 4 5 6 
#
# 1 0.016905 -0.001285 -0.003342 0.000000 0.000000 0.000000
# 2 -0.001285 0.008143 -0.002425 0.000000 0.000000 0.000000
# 3 -0.003342 -0.002425 0.017826 0.000000 0.000000 0.000000
# 4 0.000000 0.000000 0.000000 0.011774 0.000000 0.000000
# 5 0.000000 0.000000 0.000000 0.000000 0.037070 0.000000
# 6 0.000000 0.000000 0.000000 0.000000 0.000000 0.151653
#
#
# Mechanical properties :
#
#
# Convention : Reuss Voigt Hill
#
# Bulk Modulus (GPa) = 34.75569 39.09029 36.92299
# Shear Modulus (GPa) = 18.72210 37.52157 28.12184
#
# Velocity S-wave (km/s) = 2.90133 4.10733 3.55583
# Velocity P-wave (km/s) = 5.18172 6.33001 5.78443
#
# Compressibility (1/GPa) = 0.02877227
#
# Stress axis : x y z
#
# Youngs Moduli (GPa) = 59.15386 122.79974 56.09669
#
# Poissons Ratio (x) = 0.15778 0.18746
# Poissons Ratio (y) = 0.07600 0.13602
# Poissons Ratio (z) = 0.19767 0.29776
#
# Static dielectric constant tensor:
#      x y z
#    x 1.817970 0.000000 0.000000 
#    y 0.000000 1.843050 0.000000 
#    z 0.000000 0.000000 1.790160 
# 
# From -- ./inp_files/32481.got.cif
#   From: 2010.05.17/outbox.cif.g08.bks.cpg/sg66_17_cif.got.tgz:32481.got - 2010.06.03 17:51:23.
