data_PCOD9497263
_publ_section_title
;
Structure prediction by ZEFSAII (Michael W. Deem and Ramdas Pophale) SiO2 
 PCOD9497263
Probable space group: C C C M
;
_chemical_formula_sum "Si O2"
_cell_formula_units_Z 104
_cell_length_a 22.485137
_cell_length_b 25.735743
_cell_length_c 9.414604
_cell_angle_alpha 90.000000
_cell_angle_beta 90.000000
_cell_angle_gamma 90.000000
_cell_volume 5447.964969
_symmetry_space_group_name_H-M "C C C M"
_symmetry_group_IT_number 66
_symmetry_cell_setting 'orthorhombic'
loop_
_space_group_symop_operation_xyz
x,y,z
-x,-y,z
x,-y,1/2-z
-x,y,1/2-z
-x,-y,-z
x,y,-z
-x,y,1/2+z
x,-y,1/2+z
1/2+x,1/2+y,z
1/2-x,1/2-y,z
1/2+x,1/2-y,1/2-z
1/2-x,1/2+y,1/2-z
1/2-x,1/2-y,-z
1/2+x,1/2+y,-z
1/2-x,1/2+y,1/2+z
1/2+x,1/2-y,1/2+z
loop_
_atom_site_type_symbol
_atom_site_label
_atom_site_fract_x
_atom_site_fract_y
_atom_site_fract_z
Si Si1 0.562495 0.805448 0.328475
Si Si2 0.630925 0.297731 0.159758
Si Si3 0.957731 0.927477 0.500000
Si Si4 0.760666 0.554507 0.335854
Si Si5 0.086033 0.045019 0.000000
Si Si6 0.250000 0.250000 0.248418
Si Si7 0.633273 0.594202 0.733778
Si Si8 0.177168 0.649171 0.333740
O O1 0.500000 0.815820 0.250000
O O2 0.560767 0.815473 0.500000
O O3 0.580610 0.744623 0.310842
O O4 0.616586 0.835397 0.249943
O O5 0.694154 0.269479 0.162207
O O6 0.637180 0.344971 0.268875
O O7 0.622372 0.318600 0.000000
O O8 0.926100 0.908231 0.640875
O O9 0.027618 0.918914 0.500000
O O10 0.939840 0.987973 0.500000
O O11 0.764407 0.500000 0.250000
O O12 0.781500 0.549190 0.500000
O O13 0.692438 0.574586 0.342038
O O14 0.794366 0.600091 0.248720
O O15 0.124907 0.056820 0.865033
O O16 0.221837 0.300661 0.170950
O O17 0.165969 0.637543 0.500000
#
# Coordination Sequence:
#
# PCOD9497263 Si02
#       8
#    16  16   8  16   8   8  16  16
#     4  10  22  41  65  93 127 166 211 258 315 378
#     4  10  20  37  58  85 119 161 204 253 308 372
#     4  11  22  44  58  75 112 156 213 256 320 372
#     4  12  25  41  65  94 129 167 213 266 324 384
#     4  11  26  38  58  81 108 158 205 270 318 376
#     4  10  20  36  60  90 125 163 208 252 313 379
#     4  12  23  39  60  85 115 159 208 269 319 373
#     4  11  23  40  65  95 131 169 211 263 321 384
#
# _framework density 19.089696
#
# number of rings (size 3 to 8) (size 9 to 14) (size 15 to 20)
#    0.000    1.077    3.077    3.692    2.154    3.692 
#    6.923    0.000    0.000    0.462    0.000    3.231 
#    0.000    0.000    0.000    0.000    0.000    0.000 
#
# Total GULP energy -290010.149221 kJ/mol
# GULP energy per Si atom -5577.118254 kJ/mol
# Density = 1.904625 g / cm^3
# Si number density = 19.089696 Si / 1000 Ang^3
#
#
#
# Elastic Constant Matrix: (Units=GPa)
#
#
# Indices 1 2 3 4 5 6 
#
# 1 105.2790 34.2518 43.9861 0.0000 0.0000 0.0000
# 2 34.2518 103.1088 42.6834 0.0000 0.0000 0.0000
# 3 43.9861 42.6834 129.5631 0.0000 0.0000 0.0000
# 4 0.0000 0.0000 0.0000 23.1034 0.0000 0.0000
# 5 0.0000 0.0000 0.0000 0.0000 21.3787 0.0000
# 6 0.0000 0.0000 0.0000 0.0000 0.0000 23.8755
#
#
#
# Elastic Compliance Matrix: (Units=1/GPa)
#
#
# Indices 1 2 3 4 5 6 
#
# 1 0.011633 -0.002582 -0.003099 0.000000 0.000000 0.000000
# 2 -0.002582 0.011803 -0.003012 0.000000 0.000000 0.000000
# 3 -0.003099 -0.003012 0.009763 0.000000 0.000000 0.000000
# 4 0.000000 0.000000 0.000000 0.043284 0.000000 0.000000
# 5 0.000000 0.000000 0.000000 0.000000 0.046776 0.000000
# 6 0.000000 0.000000 0.000000 0.000000 0.000000 0.041884
#
#
# Mechanical properties :
#
#
# Convention : Reuss Voigt Hill
#
# Bulk Modulus (GPa) = 63.23597 64.42149 63.82873
# Shear Modulus (GPa) = 26.62434 28.14016 27.38225
#
# Velocity S-wave (km/s) = 3.73862 3.84357 3.79146
# Velocity P-wave (km/s) = 7.19958 7.31556 7.25780
#
# Compressibility (1/GPa) = 0.01581378
#
# Stress axis : x y z
#
# Youngs Moduli (GPa) = 85.96071 84.72494 102.43204
#
# Poissons Ratio (x) = 0.21873 0.31743
# Poissons Ratio (y) = 0.22192 0.30852
# Poissons Ratio (z) = 0.26639 0.25518
#
# Static dielectric constant tensor:
#      x y z
#    x 1.643550 0.000000 0.000000 
#    y 0.000000 1.707670 0.000000 
#    z 0.000000 0.000000 1.672020 
# 
# From -- ./inp_files/8187.got.cif
#   From: 2010.05.17/outbox.cif.g08.bks.cpg/sg66_5_cif.got.tgz:8187.got - 2010.06.03 17:51:23.
