data_PCOD9497197
_publ_section_title
;
Structure prediction by ZEFSAII (Michael W. Deem and Ramdas Pophale) SiO2 
 PCOD9497197
Probable space group: C C C M
;
_chemical_formula_sum "Si O2"
_cell_formula_units_Z 88
_cell_length_a 16.541242
_cell_length_b 11.723105
_cell_length_c 21.000037
_cell_angle_alpha 90.000000
_cell_angle_beta 90.000000
_cell_angle_gamma 90.000000
_cell_volume 4072.216228
_symmetry_space_group_name_H-M "C C C M"
_symmetry_group_IT_number 66
_symmetry_cell_setting 'orthorhombic'
loop_
_space_group_symop_operation_xyz
x,y,z
-x,-y,z
x,-y,1/2-z
-x,y,1/2-z
-x,-y,-z
x,y,-z
-x,y,1/2+z
x,-y,1/2+z
1/2+x,1/2+y,z
1/2-x,1/2-y,z
1/2+x,1/2-y,1/2-z
1/2-x,1/2+y,1/2-z
1/2-x,1/2-y,-z
1/2+x,1/2+y,-z
1/2-x,1/2+y,1/2+z
1/2+x,1/2-y,1/2+z
loop_
_atom_site_type_symbol
_atom_site_label
_atom_site_fract_x
_atom_site_fract_y
_atom_site_fract_z
Si Si1 0.500000 0.218173 0.250000
Si Si2 0.124768 0.579188 0.401863
Si Si3 0.675418 0.328765 0.923396
Si Si4 0.805902 0.093212 0.571265
Si Si5 0.839240 0.249061 0.693451
Si Si6 0.954924 0.657439 0.387665
O O1 0.581551 0.286786 0.268154
O O2 0.473446 0.149030 0.312549
O O3 0.208958 0.606589 0.434515
O O4 0.143250 0.621699 0.329966
O O5 0.102018 0.447135 0.407799
O O6 0.042209 0.643771 0.420637
O O7 0.750000 0.250000 0.899659
O O8 0.681755 0.461943 0.907704
O O9 0.592038 0.272943 0.900889
O O10 0.677365 0.322892 0.000000
O O11 0.840595 0.111875 0.500000
O O12 0.834386 0.174860 0.628320
O O13 0.750000 0.250000 0.723729
#
# Coordination Sequence:
#
# PCOD9497197 Si02
#       6
#     8  16  16  16  16  16
#     4  10  22  41  63  86 124 162 205 257 300 366
#     4   9  19  34  57  88 120 154 196 250 308 375
#     4  10  20  36  58  86 119 155 200 255 313 369
#     4  10  20  38  62  88 124 163 203 255 311 378
#     4   9  20  38  59  91 125 158 208 245 308 370
#     4  10  20  36  59  88 121 154 203 256 312 366
#
# _framework density 21.609853999999999
#
# number of rings (size 3 to 8) (size 9 to 14) (size 15 to 20)
#    0.000    2.364    1.818    0.000    0.000   10.545 
#    0.000   10.000    0.000    8.727    0.000    0.000 
#    0.000    0.000    0.000    0.000    0.000    0.000 
#
# Total GULP energy -245219.072313 kJ/mol
# GULP energy per Si atom -5573.160734 kJ/mol
# Density = 2.156067 g / cm^3
# Si number density = 21.609854 Si / 1000 Ang^3
#
#
#
# Elastic Constant Matrix: (Units=GPa)
#
#
# Indices 1 2 3 4 5 6 
#
# 1 135.5780 32.5837 23.0040 0.0000 0.0000 0.0000
# 2 32.5837 76.6884 24.5589 0.0000 0.0000 0.0000
# 3 23.0040 24.5589 50.8796 0.0000 0.0000 0.0000
# 4 0.0000 0.0000 0.0000 9.5304 0.0000 0.0000
# 5 0.0000 0.0000 0.0000 0.0000 20.7986 0.0000
# 6 0.0000 0.0000 0.0000 0.0000 0.0000 36.7287
#
#
#
# Elastic Compliance Matrix: (Units=1/GPa)
#
#
# Indices 1 2 3 4 5 6 
#
# 1 0.008470 -0.002806 -0.002475 0.000000 0.000000 0.000000
# 2 -0.002806 0.016354 -0.006625 0.000000 0.000000 0.000000
# 3 -0.002475 -0.006625 0.023971 0.000000 0.000000 0.000000
# 4 0.000000 0.000000 0.000000 0.104927 0.000000 0.000000
# 5 0.000000 0.000000 0.000000 0.000000 0.048080 0.000000
# 6 0.000000 0.000000 0.000000 0.000000 0.000000 0.027227
#
#
# Mechanical properties :
#
#
# Convention : Reuss Voigt Hill
#
# Bulk Modulus (GPa) = 40.02806 47.04881 43.53843
# Shear Modulus (GPa) = 19.14467 25.61150 22.37809
#
# Velocity S-wave (km/s) = 2.97968 3.44637 3.22149
# Velocity P-wave (km/s) = 5.51373 6.13644 5.83340
#
# Compressibility (1/GPa) = 0.02498248
#
# Stress axis : x y z
#
# Youngs Moduli (GPa) = 118.06082 61.14828 41.71694
#
# Poissons Ratio (x) = 0.17160 0.10325
# Poissons Ratio (y) = 0.33131 0.27637
# Poissons Ratio (z) = 0.29221 0.40510
#
# Static dielectric constant tensor:
#      x y z
#    x 1.828570 0.000000 0.000000 
#    y 0.000000 1.779770 0.000000 
#    z 0.000000 0.000000 1.849050 
# 
# From -- ./inp_files/50905.got.cif
#   From: 2010.05.17/outbox.cif.g08.bks.cpg/sg66_26_cif.got.tgz:50905.got - 2010.06.03 17:51:23.
