data_PCOD9497949
_publ_section_title
;
Structure prediction by ZEFSAII (Michael W. Deem and Ramdas Pophale) SiO2 
 PCOD9497949
Probable space group: C C C M
;
_chemical_formula_sum "Si O2"
_cell_formula_units_Z 96
_cell_length_a 20.700767
_cell_length_b 15.274824
_cell_length_c 13.381160
_cell_angle_alpha 90.000000
_cell_angle_beta 90.000000
_cell_angle_gamma 90.000000
_cell_volume 4231.130454
_symmetry_space_group_name_H-M "C C C M"
_symmetry_group_IT_number 66
_symmetry_cell_setting 'orthorhombic'
loop_
_space_group_symop_operation_xyz
x,y,z
-x,-y,z
x,-y,1/2-z
-x,y,1/2-z
-x,-y,-z
x,y,-z
-x,y,1/2+z
x,-y,1/2+z
1/2+x,1/2+y,z
1/2-x,1/2-y,z
1/2+x,1/2-y,1/2-z
1/2-x,1/2+y,1/2-z
1/2-x,1/2-y,-z
1/2+x,1/2+y,-z
1/2-x,1/2+y,1/2+z
1/2+x,1/2-y,1/2+z
loop_
_atom_site_type_symbol
_atom_site_label
_atom_site_fract_x
_atom_site_fract_y
_atom_site_fract_z
Si Si1 0.323773 0.063732 0.121399
Si Si2 0.818280 0.085695 0.616972
Si Si3 0.061571 0.762301 0.878976
Si Si4 0.679023 0.245003 0.265589
Si Si5 0.058726 0.438501 0.619650
Si Si6 0.460332 0.413713 0.880112
O O1 0.249185 0.041780 0.147062
O O2 0.338447 0.151439 0.185216
O O3 0.373569 0.985740 0.143811
O O4 0.327638 0.081221 0.000000
O O5 0.821945 0.068384 0.500000
O O6 0.812103 0.188250 0.642209
O O7 0.888821 0.068938 0.661416
O O8 0.125603 0.778427 0.812887
O O9 0.046947 0.661538 0.851619
O O10 0.002657 0.827963 0.855277
O O11 0.073465 0.768926 0.000000
O O12 0.750000 0.250000 0.215478
O O13 0.058298 0.435830 0.500000
O O14 0.000000 0.500000 0.649572
O O15 0.500000 0.500000 0.858731
O O16 0.453253 0.406494 0.000000
#
# Coordination Sequence:
#
# PCOD9497949 Si02
#       6
#    16  16  16  16  16  16
#     4   9  18  35  60  89 120 155 199 249 307 367
#     4   9  18  35  61  88 115 150 195 257 310 351
#     4  10  22  40  59  83 120 162 203 247 299 363
#     4  10  21  37  57  87 120 155 201 248 301 361
#     4   9  19  36  59  89 123 160 198 244 302 366
#     4   9  19  38  63  89 117 155 205 255 304 357
#
# _framework density 22.688972
#
# number of rings (size 3 to 8) (size 9 to 14) (size 15 to 20)
#    0.000    2.667    0.000    0.500    2.333    3.667 
#    3.000    2.500    0.000    0.000    0.000    0.000 
#    0.000    0.000    0.000    0.000    0.000    0.000 
#
# Total GULP energy -267699.321785 kJ/mol
# GULP energy per Si atom -5577.069204 kJ/mol
# Density = 2.263733 g / cm^3
# Si number density = 22.688972 Si / 1000 Ang^3
#
#
#
# Elastic Constant Matrix: (Units=GPa)
#
#
# Indices 1 2 3 4 5 6 
#
# 1 207.1822 89.8275 19.5116 0.0000 0.0000 0.0000
# 2 89.8275 131.3403 15.8027 0.0000 0.0000 0.0000
# 3 19.5116 15.8027 109.3083 0.0000 0.0000 0.0000
# 4 0.0000 0.0000 0.0000 0.7911 0.0000 0.0000
# 5 0.0000 0.0000 0.0000 0.0000 0.7423 0.0000
# 6 0.0000 0.0000 0.0000 0.0000 0.0000 31.2267
#
#
#
# Elastic Compliance Matrix: (Units=1/GPa)
#
#
# Indices 1 2 3 4 5 6 
#
# 1 0.006895 -0.004648 -0.000559 0.000000 0.000000 0.000000
# 2 -0.004648 0.010882 -0.000744 0.000000 0.000000 0.000000
# 3 -0.000559 -0.000744 0.009356 0.000000 0.000000 0.000000
# 4 0.000000 0.000000 0.000000 1.264014 0.000000 0.000000
# 5 0.000000 0.000000 0.000000 0.000000 1.347112 0.000000
# 6 0.000000 0.000000 0.000000 0.000000 0.000000 0.032024
#
#
# Mechanical properties :
#
#
# Convention : Reuss Voigt Hill
#
# Bulk Modulus (GPa) = 65.65266 77.56828 71.61047
# Shear Modulus (GPa) = 1.86063 28.06464 14.96264
#
# Velocity S-wave (km/s) = 0.90655 3.52082 2.57080
# Velocity P-wave (km/s) = 5.48585 7.12671 6.35943
#
# Compressibility (1/GPa) = 0.01523168
#
# Stress axis : x y z
#
# Youngs Moduli (GPa) = 145.04123 91.89229 106.88715
#
# Poissons Ratio (x) = 0.42713 0.05972
# Poissons Ratio (y) = 0.67418 0.07948
# Poissons Ratio (z) = 0.08103 0.06833
#
# Static dielectric constant tensor:
#      x y z
#    x 1.903270 0.000000 0.000000 
#    y 0.000000 1.507910 0.000000 
#    z 0.000000 0.000000 1.842540 
# 
# From -- ./inp_files/31185.got.cif
#   From: 2010.05.17/outbox.cif.g08.bks.cpg/sg66_16_cif.got.tgz:31185.got - 2010.06.03 17:51:23.
