data_PCOD9497094
_publ_section_title
;
Structure prediction by ZEFSAII (Michael W. Deem and Ramdas Pophale) SiO2 
 PCOD9497094
Probable space group: C C C M
;
_chemical_formula_sum "Si O2"
_cell_formula_units_Z 116
_cell_length_a 27.925131
_cell_length_b 8.702758
_cell_length_c 23.477589
_cell_angle_alpha 90.000000
_cell_angle_beta 90.000000
_cell_angle_gamma 90.000000
_cell_volume 5705.656496
_symmetry_space_group_name_H-M "C C C M"
_symmetry_group_IT_number 66
_symmetry_cell_setting 'orthorhombic'
loop_
_space_group_symop_operation_xyz
x,y,z
-x,-y,z
x,-y,1/2-z
-x,y,1/2-z
-x,-y,-z
x,y,-z
-x,y,1/2+z
x,-y,1/2+z
1/2+x,1/2+y,z
1/2-x,1/2-y,z
1/2+x,1/2-y,1/2-z
1/2-x,1/2+y,1/2-z
1/2-x,1/2-y,-z
1/2+x,1/2+y,-z
1/2-x,1/2+y,1/2+z
1/2+x,1/2-y,1/2+z
loop_
_atom_site_type_symbol
_atom_site_label
_atom_site_fract_x
_atom_site_fract_y
_atom_site_fract_z
Si Si1 0.384643 0.007851 0.816371
Si Si2 0.000000 0.000000 0.750000
Si Si3 0.295439 0.821995 0.633552
Si Si4 0.449907 0.710169 0.652768
Si Si5 0.518757 0.677724 0.439805
Si Si6 0.365373 0.590003 0.430060
Si Si7 0.625753 0.251291 0.907117
Si Si8 0.277584 0.891938 0.063527
O O1 0.384935 0.844823 0.849477
O O2 0.390986 0.000000 0.750000
O O3 0.333988 0.090618 0.828354
O O4 0.424724 0.128819 0.835464
O O5 0.966630 0.105214 0.707116
O O6 0.250000 0.750000 0.665467
O O7 0.326137 0.710356 0.592504
O O8 0.271277 0.950300 0.594681
O O9 0.497168 0.745364 0.616990
O O10 0.413275 0.627848 0.607598
O O11 0.500000 0.500000 0.439173
O O12 0.500574 0.742605 0.500000
O O13 0.575234 0.710149 0.436908
O O14 0.371387 0.594098 0.500000
O O15 0.351052 0.420495 0.408293
O O16 0.665670 0.145714 0.937037
O O17 0.250000 0.750000 0.091754
O O18 0.258320 0.906661 0.000000
#
# Coordination Sequence:
#
# PCOD9497094 Si02
#       8
#    16   4  16  16  16  16  16  16
#     4  10  26  46  64  86 131 172 216 276 328 389
#     4  12  24  40  68  96 124 156 234 278 312 376
#     4  10  22  41  63  95 127 162 221 272 330 396
#     4  11  24  41  64  96 125 171 220 274 321 388
#     4  11  21  38  62  92 131 167 214 269 324 395
#     4  11  21  38  66  97 134 172 212 266 330 399
#     4  11  22  38  60  91 125 170 215 259 331 392
#     4  10  20  35  58  91 130 169 209 259 330 405
#
# _framework density 20.330701000000001
#
# number of rings (size 3 to 8) (size 9 to 14) (size 15 to 20)
#    0.000    1.379    2.069    2.897    3.862    2.759 
#    0.000    8.276    0.000    0.000    0.000    0.000 
#    0.000    0.000    0.000    0.000    0.000    0.000 
#
# Total GULP energy -322997.244592 kJ/mol
# GULP energy per Si atom -5568.918010 kJ/mol
# Density = 2.028443 g / cm^3
# Si number density = 20.330701 Si / 1000 Ang^3
#
#
#
# Elastic Constant Matrix: (Units=GPa)
#
#
# Indices 1 2 3 4 5 6 
#
# 1 87.9692 3.2865 5.0879 0.0000 0.0000 0.0000
# 2 3.2865 65.4545 21.9463 0.0000 0.0000 0.0000
# 3 5.0879 21.9463 86.0134 0.0000 0.0000 0.0000
# 4 0.0000 0.0000 0.0000 22.5470 0.0000 0.0000
# 5 0.0000 0.0000 0.0000 0.0000 4.7896 0.0000
# 6 0.0000 0.0000 0.0000 0.0000 0.0000 33.0179
#
#
#
# Elastic Compliance Matrix: (Units=1/GPa)
#
#
# Indices 1 2 3 4 5 6 
#
# 1 0.011415 -0.000379 -0.000578 0.000000 0.000000 0.000000
# 2 -0.000379 0.016720 -0.004244 0.000000 0.000000 0.000000
# 3 -0.000578 -0.004244 0.012743 0.000000 0.000000 0.000000
# 4 0.000000 0.000000 0.000000 0.044352 0.000000 0.000000
# 5 0.000000 0.000000 0.000000 0.000000 0.208787 0.000000
# 6 0.000000 0.000000 0.000000 0.000000 0.000000 0.030287
#
#
# Mechanical properties :
#
#
# Convention : Reuss Voigt Hill
#
# Bulk Modulus (GPa) = 32.81334 33.34206 33.07770
# Shear Modulus (GPa) = 14.49845 26.01199 20.25522
#
# Velocity S-wave (km/s) = 2.67335 3.58081 3.15983
# Velocity P-wave (km/s) = 5.06990 5.79066 5.44223
#
# Compressibility (1/GPa) = 0.03047541
#
# Stress axis : x y z
#
# Youngs Moduli (GPa) = 87.60217 59.80983 78.47406
#
# Poissons Ratio (x) = 0.02268 0.04540
# Poissons Ratio (y) = 0.03322 0.33301
# Poissons Ratio (z) = 0.05068 0.25381
#
# Static dielectric constant tensor:
#      x y z
#    x 1.819430 0.000000 0.000000 
#    y 0.000000 1.777790 0.000000 
#    z 0.000000 0.000000 1.709250 
# 
# From -- ./inp_files/60216.got.cif
#   From: 2010.05.17/outbox.cif.g08.bks.cpg/sg66_31_cif.got.tgz:60216.got - 2010.06.03 17:51:23.
