data_PCOD9497415
_publ_section_title
;
Structure prediction by ZEFSAII (Michael W. Deem and Ramdas Pophale) SiO2 
 PCOD9497415
Probable space group: C C C M
;
_chemical_formula_sum "Si O2"
_cell_formula_units_Z 112
_cell_length_a 22.753684
_cell_length_b 15.744768
_cell_length_c 14.618910
_cell_angle_alpha 90.000000
_cell_angle_beta 90.000000
_cell_angle_gamma 90.000000
_cell_volume 5237.246081
_symmetry_space_group_name_H-M "C C C M"
_symmetry_group_IT_number 66
_symmetry_cell_setting 'orthorhombic'
loop_
_space_group_symop_operation_xyz
x,y,z
-x,-y,z
x,-y,1/2-z
-x,y,1/2-z
-x,-y,-z
x,y,-z
-x,y,1/2+z
x,-y,1/2+z
1/2+x,1/2+y,z
1/2-x,1/2-y,z
1/2+x,1/2-y,1/2-z
1/2-x,1/2+y,1/2-z
1/2-x,1/2-y,-z
1/2+x,1/2+y,-z
1/2-x,1/2+y,1/2+z
1/2+x,1/2-y,1/2+z
loop_
_atom_site_type_symbol
_atom_site_label
_atom_site_fract_x
_atom_site_fract_y
_atom_site_fract_z
Si Si1 0.157073 0.027481 0.147537
Si Si2 0.889995 0.703366 0.600408
Si Si3 0.241059 0.653529 0.700090
Si Si4 0.467567 0.415951 0.897129
Si Si5 0.205741 0.150321 0.399485
Si Si6 0.113650 0.597136 0.720974
Si Si7 0.469620 0.225431 0.893065
O O1 0.207218 0.097081 0.158923
O O2 0.100018 0.059720 0.098109
O O3 0.138755 0.000000 0.250000
O O4 0.182791 0.944780 0.101690
O O5 0.876030 0.668508 0.500000
O O6 0.850940 0.788188 0.611802
O O7 0.876849 0.642535 0.682747
O O8 0.960277 0.713655 0.605014
O O9 0.250000 0.750000 0.667972
O O10 0.253012 0.656690 0.810485
O O11 0.178371 0.610900 0.676683
O O12 0.500000 0.500000 0.858122
O O13 0.464972 0.321743 0.853675
O O14 0.493484 0.403918 0.000000
O O15 0.232223 0.166161 0.500000
O O16 0.098870 0.500000 0.750000
O O17 0.065382 0.652674 0.663871
O O18 0.449004 0.224053 0.000000
#
# Coordination Sequence:
#
# PCOD9497415 Si02
#       7
#    16  16  16  16  16  16  16
#     4  10  21  35  56  89 123 163 203 251 314 385
#     4  10  22  41  66  95 123 162 215 273 330 385
#     4  11  22  41  63  88 126 167 211 266 319 385
#     4  10  20  37  61  90 127 166 206 260 324 390
#     4  10  20  37  63  93 124 157 202 263 329 385
#     4  12  25  43  65  92 130 176 220 271 332 396
#     4  10  23  42  64  92 131 173 220 272 326 392
#
# _framework density 21.385285
#
# number of rings (size 3 to 8) (size 9 to 14) (size 15 to 20)
#    0.000    1.571    1.429    3.857    2.000    5.143 
#    2.571    4.286    0.000    3.857    0.000    0.000 
#    0.000    0.000    0.000    0.000    0.000    0.000 
#
# Total GULP energy -312394.365257 kJ/mol
# GULP energy per Si atom -5578.470808 kJ/mol
# Density = 2.133661 g / cm^3
# Si number density = 21.385285 Si / 1000 Ang^3
#
#
#
# Elastic Constant Matrix: (Units=GPa)
#
#
# Indices 1 2 3 4 5 6 
#
# 1 123.6730 48.8693 26.0007 0.0000 0.0000 0.0000
# 2 48.8693 165.4467 47.9110 0.0000 0.0000 0.0000
# 3 26.0007 47.9110 74.1357 0.0000 0.0000 0.0000
# 4 0.0000 0.0000 0.0000 -2.9731 0.0000 0.0000
# 5 0.0000 0.0000 0.0000 0.0000 40.2402 0.0000
# 6 0.0000 0.0000 0.0000 0.0000 0.0000 32.3651
#
#
#
# Elastic Compliance Matrix: (Units=1/GPa)
#
#
# Indices 1 2 3 4 5 6 
#
# 1 0.009354 -0.002230 -0.001839 0.000000 0.000000 0.000000
# 2 -0.002230 0.007968 -0.004367 0.000000 0.000000 0.000000
# 3 -0.001839 -0.004367 0.016956 0.000000 0.000000 0.000000
# 4 0.000000 0.000000 0.000000 -0.336354 0.000000 0.000000
# 5 0.000000 0.000000 0.000000 0.000000 0.024851 0.000000
# 6 0.000000 0.000000 0.000000 0.000000 0.000000 0.030897
#
#
# Mechanical properties :
#
#
# Convention : Reuss Voigt Hill
#
# Bulk Modulus (GPa) = 57.45627 67.64637 62.55132
# Shear Modulus (GPa) = -22.35599 29.95808 3.80104
#
# Velocity S-wave (km/s) = -3.23676 3.74688 1.33464
# Velocity P-wave (km/s) = 3.59954 7.10069 5.62923
#
# Compressibility (1/GPa) = 0.01740454
#
# Stress axis : x y z
#
# Youngs Moduli (GPa) = 106.90828 125.50777 58.97619
#
# Poissons Ratio (x) = 0.27992 0.10847
# Poissons Ratio (y) = 0.23844 0.25755
# Poissons Ratio (z) = 0.19662 0.54809
#
# Static dielectric constant tensor:
#      x y z
#    x 1.783250 0.000000 0.000000 
#    y 0.000000 2.483890 0.000000 
#    z 0.000000 0.000000 1.697370 
# 
# From -- ./inp_files/32451.got.cif
#   From: 2010.05.17/outbox.cif.g08.bks.cpg/sg66_17_cif.got.tgz:32451.got - 2010.06.03 17:51:23.
