data_PCOD9497663
_publ_section_title
;
Structure prediction by ZEFSAII (Michael W. Deem and Ramdas Pophale) SiO2 
 PCOD9497663
Probable space group: C C C M
;
_chemical_formula_sum "Si O2"
_cell_formula_units_Z 64
_cell_length_a 20.292180
_cell_length_b 11.014544
_cell_length_c 14.737552
_cell_angle_alpha 90.000000
_cell_angle_beta 90.000000
_cell_angle_gamma 90.000000
_cell_volume 3293.977123
_symmetry_space_group_name_H-M "C C C M"
_symmetry_group_IT_number 66
_symmetry_cell_setting 'orthorhombic'
loop_
_space_group_symop_operation_xyz
x,y,z
-x,-y,z
x,-y,1/2-z
-x,y,1/2-z
-x,-y,-z
x,y,-z
-x,y,1/2+z
x,-y,1/2+z
1/2+x,1/2+y,z
1/2-x,1/2-y,z
1/2+x,1/2-y,1/2-z
1/2-x,1/2+y,1/2-z
1/2-x,1/2-y,-z
1/2+x,1/2+y,-z
1/2-x,1/2+y,1/2+z
1/2+x,1/2-y,1/2+z
loop_
_atom_site_type_symbol
_atom_site_label
_atom_site_fract_x
_atom_site_fract_y
_atom_site_fract_z
Si Si1 0.031758 0.185580 0.000000
Si Si2 0.892225 0.950280 0.500000
Si Si3 0.812161 0.109017 0.180388
Si Si4 0.161672 0.376559 0.309299
Si Si5 0.017337 0.364783 0.643714
O O1 0.963702 0.110949 0.000000
O O2 0.025358 0.270360 0.912421
O O3 0.092714 0.094338 0.000000
O O4 0.854473 0.910086 0.409701
O O5 0.828921 0.238381 0.228523
O O6 0.734906 0.103813 0.151603
O O7 0.824054 0.000000 0.250000
O O8 0.148988 0.500000 0.250000
O O9 0.096226 0.358205 0.368789
O O10 0.000000 0.500000 0.615534
O O11 0.000000 0.350368 0.750000
#
# Coordination Sequence:
#
# PCOD9497663 Si02
#       5
#     8   8  16  16  16
#     4  11  25  39  57  92 130 159 215 249 306 384
#     4  11  24  40  60  93 125 169 206 254 314 376
#     4  10  23  40  66  90 128 162 209 264 309 368
#     4  10  20  40  65  93 119 161 211 254 310 371
#     4  11  22  39  65  88 124 165 205 260 314 367
#
# _framework density 19.429400000000001
#
# number of rings (size 3 to 8) (size 9 to 14) (size 15 to 20)
#    0.000    1.500    5.000    0.375    3.500    3.000 
#    0.000    2.500    0.000   13.500    0.000    0.000 
#    0.000    0.000    0.000    0.000    0.000    0.000 
#
# Total GULP energy -178179.070170 kJ/mol
# GULP energy per Si atom -5568.095943 kJ/mol
# Density = 1.938518 g / cm^3
# Si number density = 19.429400 Si / 1000 Ang^3
#
#
#
# Elastic Constant Matrix: (Units=GPa)
#
#
# Indices 1 2 3 4 5 6 
#
# 1 66.5051 31.8051 15.3423 0.0000 0.0000 0.0000
# 2 31.8051 165.5761 49.2437 0.0000 0.0000 0.0000
# 3 15.3423 49.2437 75.7938 0.0000 0.0000 0.0000
# 4 0.0000 0.0000 0.0000 20.8464 0.0000 0.0000
# 5 0.0000 0.0000 0.0000 0.0000 85.6599 0.0000
# 6 0.0000 0.0000 0.0000 0.0000 0.0000 27.0702
#
#
#
# Elastic Compliance Matrix: (Units=1/GPa)
#
#
# Indices 1 2 3 4 5 6 
#
# 1 0.016714 -0.002732 -0.001608 0.000000 0.000000 0.000000
# 2 -0.002732 0.007933 -0.004601 0.000000 0.000000 0.000000
# 3 -0.001608 -0.004601 0.016508 0.000000 0.000000 0.000000
# 4 0.000000 0.000000 0.000000 0.047970 0.000000 0.000000
# 5 0.000000 0.000000 0.000000 0.000000 0.011674 0.000000
# 6 0.000000 0.000000 0.000000 0.000000 0.000000 0.036941
#
#
# Mechanical properties :
#
#
# Convention : Reuss Voigt Hill
#
# Bulk Modulus (GPa) = 42.96881 55.62857 49.29869
# Shear Modulus (GPa) = 30.60347 40.81422 35.70884
#
# Velocity S-wave (km/s) = 3.97307 4.58825 4.29170
# Velocity P-wave (km/s) = 6.57347 7.53410 7.07012
#
# Compressibility (1/GPa) = 0.02327269
#
# Stress axis : x y z
#
# Youngs Moduli (GPa) = 59.82972 126.06066 60.57519
#
# Poissons Ratio (x) = 0.34444 0.09741
# Poissons Ratio (y) = 0.16347 0.27870
# Poissons Ratio (z) = 0.09621 0.57998
#
# Static dielectric constant tensor:
#      x y z
#    x 1.698580 0.000000 0.000000 
#    y 0.000000 1.724810 0.000000 
#    z 0.000000 0.000000 1.652120 
# 
# From -- ./inp_files/36397.got.cif
#   From: 2010.05.17/outbox.cif.g08.bks.cpg/sg66_19_cif.got.tgz:36397.got - 2010.06.03 17:51:23.
