data_PCOD9497248
_publ_section_title
;
Structure prediction by ZEFSAII (Michael W. Deem and Ramdas Pophale) SiO2 
 PCOD9497248
Probable space group: C C C M
;
_chemical_formula_sum "Si O2"
_cell_formula_units_Z 104
_cell_length_a 22.266658
_cell_length_b 17.017889
_cell_length_c 13.894239
_cell_angle_alpha 90.000000
_cell_angle_beta 90.000000
_cell_angle_gamma 90.000000
_cell_volume 5264.965024
_symmetry_space_group_name_H-M "C C C M"
_symmetry_group_IT_number 66
_symmetry_cell_setting 'orthorhombic'
loop_
_space_group_symop_operation_xyz
x,y,z
-x,-y,z
x,-y,1/2-z
-x,y,1/2-z
-x,-y,-z
x,y,-z
-x,y,1/2+z
x,-y,1/2+z
1/2+x,1/2+y,z
1/2-x,1/2-y,z
1/2+x,1/2-y,1/2-z
1/2-x,1/2+y,1/2-z
1/2-x,1/2-y,-z
1/2+x,1/2+y,-z
1/2-x,1/2+y,1/2+z
1/2+x,1/2-y,1/2+z
loop_
_atom_site_type_symbol
_atom_site_label
_atom_site_fract_x
_atom_site_fract_y
_atom_site_fract_z
Si Si1 0.143713 0.500000 0.250000
Si Si2 0.341169 0.222643 0.890670
Si Si3 0.588258 0.690462 0.613816
Si Si4 0.971368 0.084821 0.613264
Si Si5 0.237963 0.565904 0.388734
Si Si6 0.070758 0.659522 0.247607
Si Si7 0.347683 0.378736 0.220864
O O1 0.187178 0.511758 0.341484
O O2 0.103872 0.576961 0.232440
O O3 0.293317 0.152402 0.886506
O O4 0.404080 0.190004 0.850242
O O5 0.327493 0.294512 0.821439
O O6 0.345334 0.250792 0.000000
O O7 0.598509 0.697084 0.500000
O O8 0.523129 0.649620 0.629080
O O9 0.587309 0.774067 0.668631
O O10 0.637453 0.635190 0.667230
O O11 0.955742 0.085578 0.500000
O O12 0.911759 0.100225 0.673625
O O13 0.000000 0.000000 0.635122
O O14 0.251830 0.548075 0.500000
O O15 0.296557 0.565602 0.321633
O O16 0.000000 0.649746 0.250000
#
# Coordination Sequence:
#
# PCOD9497248 Si02
#       7
#     8  16  16  16  16  16  16
#     4  10  23  40  56  82 121 154 198 258 306 352
#     4   9  18  34  57  85 111 133 175 240 295 344
#     4  10  22  38  57  86 122 158 197 243 304 375
#     4  10  21  36  55  84 119 150 186 238 295 355
#     4  10  21  37  58  83 109 144 191 243 298 351
#     4  10  20  36  60  86 115 156 199 242 299 367
#     4  11  20  34  58  83 110 148 192 235 289 352
#
# _framework density 19.753216999999999
#
# number of rings (size 3 to 8) (size 9 to 14) (size 15 to 20)
#    0.000    2.000    0.000    4.385    0.000    6.154 
#    0.000    2.308    0.000   16.615    0.000    0.000 
#    0.000    0.000    0.000    0.000    0.000    0.000 
#
# Total GULP energy -290403.255166 kJ/mol
# GULP energy per Si atom -5584.677984 kJ/mol
# Density = 1.970826 g / cm^3
# Si number density = 19.753217 Si / 1000 Ang^3
#
#
#
# Elastic Constant Matrix: (Units=GPa)
#
#
# Indices 1 2 3 4 5 6 
#
# 1 102.5133 10.2863 59.1822 0.0000 0.0000 0.0000
# 2 10.2863 63.7380 27.3391 0.0000 0.0000 0.0000
# 3 59.1822 27.3391 132.9899 0.0000 0.0000 0.0000
# 4 0.0000 0.0000 0.0000 22.2595 0.0000 0.0000
# 5 0.0000 0.0000 0.0000 0.0000 14.9018 0.0000
# 6 0.0000 0.0000 0.0000 0.0000 0.0000 -12.6811
#
#
#
# Elastic Compliance Matrix: (Units=1/GPa)
#
#
# Indices 1 2 3 4 5 6 
#
# 1 0.013138 0.000425 -0.005934 0.000000 0.000000 0.000000
# 2 0.000425 0.017220 -0.003729 0.000000 0.000000 0.000000
# 3 -0.005934 -0.003729 0.010927 0.000000 0.000000 0.000000
# 4 0.000000 0.000000 0.000000 0.044925 0.000000 0.000000
# 5 0.000000 0.000000 0.000000 0.000000 0.067106 0.000000
# 6 0.000000 0.000000 0.000000 0.000000 0.000000 -0.078858
#
#
# Mechanical properties :
#
#
# Convention : Reuss Voigt Hill
#
# Bulk Modulus (GPa) = 43.84304 54.76180 49.30242
# Shear Modulus (GPa) = 49.73322 18.39163 34.06243
#
# Velocity S-wave (km/s) = 5.02314 3.05465 4.15709
# Velocity P-wave (km/s) = 7.47570 6.34227 6.93219
#
# Compressibility (1/GPa) = 0.02280864
#
# Stress axis : x y z
#
# Youngs Moduli (GPa) = 76.11574 58.07139 91.51956
#
# Poissons Ratio (x) = -0.02468 0.54307
# Poissons Ratio (y) = -0.03235 0.34129
# Poissons Ratio (z) = 0.45166 0.21656
#
# Static dielectric constant tensor:
#      x y z
#    x 1.607100 0.000000 0.000000 
#    y 0.000000 1.722920 0.000000 
#    z 0.000000 0.000000 1.690420 
# 
# From -- ./inp_files/31375.got.cif
#   From: 2010.05.17/outbox.cif.g08.bks.cpg/sg66_16_cif.got.tgz:31375.got - 2010.06.03 17:51:23.
