data_PCOD9497708
_publ_section_title
;
Structure prediction by ZEFSAII (Michael W. Deem and Ramdas Pophale) SiO2 
 PCOD9497708
Probable space group: C C C M
;
_chemical_formula_sum "Si O2"
_cell_formula_units_Z 80
_cell_length_a 4.768291
_cell_length_b 24.607309
_cell_length_c 32.842601
_cell_angle_alpha 90.000000
_cell_angle_beta 90.000000
_cell_angle_gamma 90.000000
_cell_volume 3853.580350
_symmetry_space_group_name_H-M "C C C M"
_symmetry_group_IT_number 66
_symmetry_cell_setting 'orthorhombic'
loop_
_space_group_symop_operation_xyz
x,y,z
-x,-y,z
x,-y,1/2-z
-x,y,1/2-z
-x,-y,-z
x,y,-z
-x,y,1/2+z
x,-y,1/2+z
1/2+x,1/2+y,z
1/2-x,1/2-y,z
1/2+x,1/2-y,1/2-z
1/2-x,1/2+y,1/2-z
1/2-x,1/2-y,-z
1/2+x,1/2+y,-z
1/2-x,1/2+y,1/2+z
1/2+x,1/2-y,1/2+z
loop_
_atom_site_type_symbol
_atom_site_label
_atom_site_fract_x
_atom_site_fract_y
_atom_site_fract_z
Si Si1 0.750000 0.750000 0.342341
Si Si2 0.735143 0.825178 0.844052
Si Si3 0.000000 0.500000 0.160688
Si Si4 0.413535 0.563203 0.547346
Si Si5 0.601370 0.907608 0.599127
Si Si6 0.241830 0.084196 0.219982
O O1 0.516172 0.789674 0.323208
O O2 0.506531 0.708626 0.360656
O O3 0.562274 0.858843 0.878303
O O4 0.839402 0.866039 0.809396
O O5 0.852837 0.455297 0.132208
O O6 0.192573 0.464848 0.189841
O O7 0.500000 0.500000 0.551818
O O8 0.436549 0.577600 0.500000
O O9 0.102731 0.569744 0.564225
O O10 0.607714 0.600523 0.576105
O O11 0.500000 0.097150 0.250000
O O12 0.000000 0.068720 0.250000
#
# Coordination Sequence:
#
# PCOD9497708 Si02
#       6
#     8  16   8  16  16  16
#     4  10  20  42  62  90 111 140 198 264 312 348
#     4  10  22  39  65  86 114 149 200 252 302 361
#     4  10  23  38  59  82 118 162 200 234 281 348
#     4  11  21  34  55  88 130 165 194 231 281 345
#     4  11  21  38  59  89 119 163 200 237 285 353
#     4  11  24  40  57  84 119 156 197 243 294 357
#
# _framework density 20.759916
#
# number of rings (size 3 to 8) (size 9 to 14) (size 15 to 20)
#    0.000    1.400    2.000    3.300    0.000    9.600 
#    0.000   10.000    0.000    0.000    0.000   49.000 
#    0.000    0.000    0.000    0.000    0.000    0.000 
#
# Total GULP energy -222977.543756 kJ/mol
# GULP energy per Si atom -5574.438594 kJ/mol
# Density = 2.071267 g / cm^3
# Si number density = 20.759916 Si / 1000 Ang^3
#
#
#
# Elastic Constant Matrix: (Units=GPa)
#
#
# Indices 1 2 3 4 5 6 
#
# 1 92.9316 23.8029 30.1936 0.0000 0.0000 0.0000
# 2 23.8029 83.7734 34.7856 0.0000 0.0000 0.0000
# 3 30.1936 34.7856 111.0748 0.0000 0.0000 0.0000
# 4 0.0000 0.0000 0.0000 0.9328 0.0000 0.0000
# 5 0.0000 0.0000 0.0000 0.0000 29.8983 0.0000
# 6 0.0000 0.0000 0.0000 0.0000 0.0000 24.3911
#
#
#
# Elastic Compliance Matrix: (Units=1/GPa)
#
#
# Indices 1 2 3 4 5 6 
#
# 1 0.012210 -0.002404 -0.002566 0.000000 0.000000 0.000000
# 2 -0.002404 0.014194 -0.003792 0.000000 0.000000 0.000000
# 3 -0.002566 -0.003792 0.010888 0.000000 0.000000 0.000000
# 4 0.000000 0.000000 0.000000 1.072040 0.000000 0.000000
# 5 0.000000 0.000000 0.000000 0.000000 0.033447 0.000000
# 6 0.000000 0.000000 0.000000 0.000000 0.000000 0.040999
#
#
# Mechanical properties :
#
#
# Convention : Reuss Voigt Hill
#
# Bulk Modulus (GPa) = 50.58482 51.70489 51.14486
# Shear Modulus (GPa) = 4.13944 24.31094 14.22519
#
# Velocity S-wave (km/s) = 1.41361 3.42578 2.62052
# Velocity P-wave (km/s) = 5.20422 6.37245 5.81773
#
# Compressibility (1/GPa) = 0.01976878
#
# Stress axis : x y z
#
# Youngs Moduli (GPa) = 81.89965 70.45002 91.84357
#
# Poissons Ratio (x) = 0.16934 0.23570
# Poissons Ratio (y) = 0.19686 0.34826
# Poissons Ratio (z) = 0.21018 0.26714
#
# Static dielectric constant tensor:
#      x y z
#    x 2.608670 0.000000 0.000000 
#    y 0.000000 1.903220 0.000000 
#    z 0.000000 0.000000 1.697570 
# 
# From -- ./inp_files/67227.got.cif
#   From: 2010.05.17/outbox.cif.g08.bks.cpg/sg66_34_cif.got.tgz:67227.got - 2010.06.03 17:51:23.
