data_PCOD9497825
_publ_section_title
;
Structure prediction by ZEFSAII (Michael W. Deem and Ramdas Pophale) SiO2 
 PCOD9497825
Probable space group: C C C M
;
_chemical_formula_sum "Si O2"
_cell_formula_units_Z 112
_cell_length_a 12.471821
_cell_length_b 25.962723
_cell_length_c 15.594057
_cell_angle_alpha 90.000000
_cell_angle_beta 90.000000
_cell_angle_gamma 90.000000
_cell_volume 5049.393611
_symmetry_space_group_name_H-M "C C C M"
_symmetry_group_IT_number 66
_symmetry_cell_setting 'orthorhombic'
loop_
_space_group_symop_operation_xyz
x,y,z
-x,-y,z
x,-y,1/2-z
-x,y,1/2-z
-x,-y,-z
x,y,-z
-x,y,1/2+z
x,-y,1/2+z
1/2+x,1/2+y,z
1/2-x,1/2-y,z
1/2+x,1/2-y,1/2-z
1/2-x,1/2+y,1/2-z
1/2-x,1/2-y,-z
1/2+x,1/2+y,-z
1/2-x,1/2+y,1/2+z
1/2+x,1/2-y,1/2+z
loop_
_atom_site_type_symbol
_atom_site_label
_atom_site_fract_x
_atom_site_fract_y
_atom_site_fract_z
Si Si1 0.570062 0.932695 0.100359
Si Si2 0.572046 0.182417 0.599424
Si Si3 0.259073 0.690788 0.866720
Si Si4 0.753954 0.947166 0.774756
Si Si5 0.172091 0.585484 0.091841
Si Si6 0.503708 0.710270 0.601635
Si Si7 0.789084 0.165847 0.672829
O O1 0.562406 0.874226 0.138806
O O2 0.649303 0.960578 0.166476
O O3 0.443535 0.942559 0.094746
O O4 0.609202 0.933711 0.000000
O O5 0.544642 0.175788 0.500000
O O6 0.501988 0.229900 0.632624
O O7 0.700306 0.189358 0.608746
O O8 0.250000 0.750000 0.895989
O O9 0.180309 0.648348 0.907168
O O10 0.384904 0.680877 0.885286
O O11 0.248898 0.686195 0.764668
O O12 0.727348 0.926961 0.680390
O O13 0.796335 0.896629 0.824232
O O14 0.814556 0.000000 0.750000
O O15 0.221061 0.569759 0.000000
O O16 0.480974 0.711458 0.500000
O O17 0.406370 0.684725 0.650840
#
# Coordination Sequence:
#
# PCOD9497825 Si02
#       7
#    16  16  16  16  16  16  16
#     4   9  18  33  55  83 115 149 182 222 275 335
#     4   9  17  31  52  80 113 144 178 222 274 331
#     4  11  22  35  54  80 114 154 192 225 266 328
#     4  10  22  39  58  81 107 140 184 236 291 344
#     4  10  21  36  53  78 115 152 185 225 274 330
#     4  11  21  33  54  81 111 148 187 227 272 330
#     4  10  21  36  54  78 108 142 182 234 289 335
#
# _framework density 22.180880999999999
#
# number of rings (size 3 to 8) (size 9 to 14) (size 15 to 20)
#    0.000    2.000    0.000    3.857    0.000    5.714 
#    0.000    5.714    0.000    6.857    0.000    5.000 
#    0.000    0.000    0.000    0.000    0.000    0.000 
#
# Total GULP energy -311987.097017 kJ/mol
# GULP energy per Si atom -5571.198161 kJ/mol
# Density = 2.213040 g / cm^3
# Si number density = 22.180881 Si / 1000 Ang^3
#
#
#
# Elastic Constant Matrix: (Units=GPa)
#
#
# Indices 1 2 3 4 5 6 
#
# 1 43.0158 -8.9080 4.7423 0.0000 0.0000 0.0000
# 2 -8.9080 87.0904 5.0818 0.0000 0.0000 0.0000
# 3 4.7423 5.0818 81.6483 0.0000 0.0000 0.0000
# 4 0.0000 0.0000 0.0000 16.5270 0.0000 0.0000
# 5 0.0000 0.0000 0.0000 0.0000 27.0439 0.0000
# 6 0.0000 0.0000 0.0000 0.0000 0.0000 21.7188
#
#
#
# Elastic Compliance Matrix: (Units=1/GPa)
#
#
# Indices 1 2 3 4 5 6 
#
# 1 0.023944 0.002539 -0.001549 0.000000 0.000000 0.000000
# 2 0.002539 0.011794 -0.000882 0.000000 0.000000 0.000000
# 3 -0.001549 -0.000882 0.012392 0.000000 0.000000 0.000000
# 4 0.000000 0.000000 0.000000 0.060507 0.000000 0.000000
# 5 0.000000 0.000000 0.000000 0.000000 0.036977 0.000000
# 6 0.000000 0.000000 0.000000 0.000000 0.000000 0.046043
#
#
# Mechanical properties :
#
#
# Convention : Reuss Voigt Hill
#
# Bulk Modulus (GPa) = 20.68327 23.73184 22.20755
# Shear Modulus (GPa) = 24.09006 27.11384 25.60195
#
# Velocity S-wave (km/s) = 3.29914 3.50007 3.40109
# Velocity P-wave (km/s) = 4.88441 5.20158 5.04549
#
# Compressibility (1/GPa) = 0.04834826
#
# Stress axis : x y z
#
# Youngs Moduli (GPa) = 41.76426 84.79240 80.69411
#
# Poissons Ratio (x) = -0.21533 0.12498
# Poissons Ratio (y) = -0.10606 0.07113
# Poissons Ratio (z) = 0.06468 0.07475
#
# Static dielectric constant tensor:
#      x y z
#    x 1.863030 0.000000 0.000000 
#    y 0.000000 1.962740 0.000000 
#    z 0.000000 0.000000 1.814360 
# 
# From -- ./inp_files/27042.got.cif
#   From: 2010.05.17/outbox.cif.g08.bks.cpg/sg66_14_cif.got.tgz:27042.got - 2010.06.03 17:51:23.
