data_PCOD9497064
_publ_section_title
;
Structure prediction by ZEFSAII (Michael W. Deem and Ramdas Pophale) SiO2 
 PCOD9497064
Probable space group: C C C M
;
_chemical_formula_sum "Si O2"
_cell_formula_units_Z 120
_cell_length_a 12.011251
_cell_length_b 21.820396
_cell_length_c 23.005579
_cell_angle_alpha 90.000000
_cell_angle_beta 90.000000
_cell_angle_gamma 90.000000
_cell_volume 6029.538027
_symmetry_space_group_name_H-M "C C C M"
_symmetry_group_IT_number 66
_symmetry_cell_setting 'orthorhombic'
loop_
_space_group_symop_operation_xyz
x,y,z
-x,-y,z
x,-y,1/2-z
-x,y,1/2-z
-x,-y,-z
x,y,-z
-x,y,1/2+z
x,-y,1/2+z
1/2+x,1/2+y,z
1/2-x,1/2-y,z
1/2+x,1/2-y,1/2-z
1/2-x,1/2+y,1/2-z
1/2-x,1/2-y,-z
1/2+x,1/2+y,-z
1/2-x,1/2+y,1/2+z
1/2+x,1/2-y,1/2+z
loop_
_atom_site_type_symbol
_atom_site_label
_atom_site_fract_x
_atom_site_fract_y
_atom_site_fract_z
Si Si1 0.517633 0.653654 0.932201
Si Si2 0.344758 0.527437 0.434972
Si Si3 0.629122 0.582888 0.647390
Si Si4 0.939691 0.367062 0.673544
Si Si5 0.000000 0.860320 0.250000
Si Si6 0.342855 0.929907 0.772774
Si Si7 0.583526 0.945765 0.933294
Si Si8 0.120266 0.767867 0.330404
O O1 0.595502 0.592795 0.929769
O O2 0.401249 0.633956 0.901369
O O3 0.577389 0.702950 0.890876
O O4 0.505665 0.670653 0.000000
O O5 0.370033 0.503014 0.500000
O O6 0.381471 0.480909 0.385722
O O7 0.211399 0.533066 0.430721
O O8 0.543392 0.597251 0.698549
O O9 0.746123 0.581939 0.681017
O O10 0.837460 0.390437 0.713477
O O11 0.924607 0.387287 0.607636
O O12 0.947810 0.294808 0.680241
O O13 0.045572 0.405392 0.696218
O O14 0.908444 0.815702 0.220825
O O15 0.347309 0.000000 0.750000
O O16 0.500000 0.000000 0.913614
O O17 0.555139 0.931941 0.000000
O O18 0.250000 0.750000 0.333019
#
# Coordination Sequence:
#
# PCOD9497064 Si02
#       8
#    16  16  16  16   8  16  16  16
#     4  10  23  42  61  87 122 159 206 261 310 361
#     4  10  20  36  59  84 114 153 191 236 302 366
#     4  11  22  37  59  85 117 153 193 241 302 371
#     4  11  21  38  60  86 120 156 199 247 302 356
#     4  10  24  40  53  84 121 150 192 248 302 350
#     4  11  23  37  60  90 122 158 196 244 305 374
#     4  10  20  35  57  87 121 150 187 244 304 365
#     4  11  23  40  63  86 116 160 209 254 299 361
#
# _framework density 19.902021000000001
#
# number of rings (size 3 to 8) (size 9 to 14) (size 15 to 20)
#    0.000    1.467    0.000    6.400    0.000    6.133 
#    0.000    3.333    0.000    0.800    0.000    0.000 
#    0.000    0.000    0.000    0.000    0.000    0.000 
#
# Total GULP energy -335007.602323 kJ/mol
# GULP energy per Si atom -5583.460039 kJ/mol
# Density = 1.985672 g / cm^3
# Si number density = 19.902021 Si / 1000 Ang^3
#
#
#
# Elastic Constant Matrix: (Units=GPa)
#
#
# Indices 1 2 3 4 5 6 
#
# 1 104.7306 33.0838 28.7719 0.0000 0.0000 0.0000
# 2 33.0838 91.3796 60.6473 0.0000 0.0000 0.0000
# 3 28.7719 60.6473 131.4649 0.0000 0.0000 0.0000
# 4 0.0000 0.0000 0.0000 18.3105 0.0000 0.0000
# 5 0.0000 0.0000 0.0000 0.0000 18.1978 0.0000
# 6 0.0000 0.0000 0.0000 0.0000 0.0000 18.1945
#
#
#
# Elastic Compliance Matrix: (Units=1/GPa)
#
#
# Indices 1 2 3 4 5 6 
#
# 1 0.010841 -0.003387 -0.000810 0.000000 0.000000 0.000000
# 2 -0.003387 0.016831 -0.007023 0.000000 0.000000 0.000000
# 3 -0.000810 -0.007023 0.011024 0.000000 0.000000 0.000000
# 4 0.000000 0.000000 0.000000 0.054614 0.000000 0.000000
# 5 0.000000 0.000000 0.000000 0.000000 0.054952 0.000000
# 6 0.000000 0.000000 0.000000 0.000000 0.000000 0.054962
#
#
# Mechanical properties :
#
#
# Convention : Reuss Voigt Hill
#
# Bulk Modulus (GPa) = 61.52058 63.62014 62.57036
# Shear Modulus (GPa) = 21.63742 24.61203 23.12473
#
# Velocity S-wave (km/s) = 3.30084 3.52043 3.41241
# Velocity P-wave (km/s) = 6.74583 6.96855 6.85809
#
# Compressibility (1/GPa) = 0.01625472
#
# Stress axis : x y z
#
# Youngs Moduli (GPa) = 92.24352 59.41474 90.71348
#
# Poissons Ratio (x) = 0.20126 0.07347
# Poissons Ratio (y) = 0.31246 0.63708
# Poissons Ratio (z) = 0.07471 0.41727
#
# Static dielectric constant tensor:
#      x y z
#    x 1.754880 0.000000 0.000000 
#    y 0.000000 1.681390 0.000000 
#    z 0.000000 0.000000 1.724230 
# 
# From -- ./inp_files/57221.got.cif
#   From: 2010.05.17/outbox.cif.g08.bks.cpg/sg66_29_cif.got.tgz:57221.got - 2010.06.03 17:51:23.
