data_PCOD9497940
_publ_section_title
;
Structure prediction by ZEFSAII (Michael W. Deem and Ramdas Pophale) SiO2 
 PCOD9497940
Probable space group: C C C M
;
_chemical_formula_sum "Si O2"
_cell_formula_units_Z 64
_cell_length_a 25.545358
_cell_length_b 11.536558
_cell_length_c 10.791274
_cell_angle_alpha 90.000000
_cell_angle_beta 90.000000
_cell_angle_gamma 90.000000
_cell_volume 3180.247845
_symmetry_space_group_name_H-M "C C C M"
_symmetry_group_IT_number 66
_symmetry_cell_setting 'orthorhombic'
loop_
_space_group_symop_operation_xyz
x,y,z
-x,-y,z
x,-y,1/2-z
-x,y,1/2-z
-x,-y,-z
x,y,-z
-x,y,1/2+z
x,-y,1/2+z
1/2+x,1/2+y,z
1/2-x,1/2-y,z
1/2+x,1/2-y,1/2-z
1/2-x,1/2+y,1/2-z
1/2-x,1/2-y,-z
1/2+x,1/2+y,-z
1/2-x,1/2+y,1/2+z
1/2+x,1/2-y,1/2+z
loop_
_atom_site_type_symbol
_atom_site_label
_atom_site_fract_x
_atom_site_fract_y
_atom_site_fract_z
Si Si1 0.283835 0.500000 0.250000
Si Si2 0.107597 0.623821 0.000000
Si Si3 0.455441 0.098552 0.000000
Si Si4 0.188585 0.230121 0.146658
Si Si5 0.409517 0.861619 0.737114
Si Si6 0.732496 0.885902 0.500000
O O1 0.319882 0.394534 0.206147
O O2 0.251903 0.454680 0.374178
O O3 0.083242 0.679930 0.122713
O O4 0.169988 0.625757 0.000000
O O5 0.095259 0.486090 0.000000
O O6 0.449396 0.169199 0.873167
O O7 0.500000 0.000000 0.000000
O O8 0.250000 0.250000 0.172347
O O9 0.148846 0.323025 0.200823
O O10 0.181672 0.228292 0.000000
O O11 0.414125 0.000000 0.750000
O O12 0.750000 0.750000 0.500000
#
# Coordination Sequence:
#
# PCOD9497940 Si02
#       6
#     8   8   8  16  16   8
#     4  12  24  40  58  82 125 163 224 250 310 360
#     4  10  22  32  56  79 114 153 190 245 299 340
#     4  10  22  37  58  83 119 156 195 248 305 372
#     4  11  23  35  57  82 118 167 211 252 299 365
#     4  10  21  37  57  83 119 157 203 244 305 359
#     4  12  26  41  56  89 125 166 215 262 299 371
#
# _framework density 20.124217999999999
#
# number of rings (size 3 to 8) (size 9 to 14) (size 15 to 20)
#    0.000    1.250    2.500    3.750   14.000    4.500 
#    0.000    0.000    0.000    0.000    0.000    0.000 
#    0.000   54.000    0.000    0.000    0.000    0.000 
#
# Total GULP energy -178386.825471 kJ/mol
# GULP energy per Si atom -5574.588296 kJ/mol
# Density = 2.007841 g / cm^3
# Si number density = 20.124218 Si / 1000 Ang^3
#
#
#
# Elastic Constant Matrix: (Units=GPa)
#
#
# Indices 1 2 3 4 5 6 
#
# 1 58.2510 -0.5834 32.1556 0.0000 0.0000 0.0000
# 2 -0.5834 29.3135 5.1201 0.0000 0.0000 0.0000
# 3 32.1556 5.1201 207.5008 0.0000 0.0000 0.0000
# 4 0.0000 0.0000 0.0000 29.7338 0.0000 0.0000
# 5 0.0000 0.0000 0.0000 0.0000 7.8331 0.0000
# 6 0.0000 0.0000 0.0000 0.0000 0.0000 27.1333
#
#
#
# Elastic Compliance Matrix: (Units=1/GPa)
#
#
# Indices 1 2 3 4 5 6 
#
# 1 0.018796 0.000887 -0.002935 0.000000 0.000000 0.000000
# 2 0.000887 0.034303 -0.000984 0.000000 0.000000 0.000000
# 3 -0.002935 -0.000984 0.005298 0.000000 0.000000 0.000000
# 4 0.000000 0.000000 0.000000 0.033632 0.000000 0.000000
# 5 0.000000 0.000000 0.000000 0.000000 0.127664 0.000000
# 6 0.000000 0.000000 0.000000 0.000000 0.000000 0.036855
#
#
# Mechanical properties :
#
#
# Convention : Reuss Voigt Hill
#
# Bulk Modulus (GPa) = 19.10802 40.93889 30.02345
# Shear Modulus (GPa) = 17.85354 30.16491 24.00923
#
# Velocity S-wave (km/s) = 2.98177 3.87581 3.45780
# Velocity P-wave (km/s) = 4.62279 6.35739 5.55818
#
# Compressibility (1/GPa) = 0.05233406
#
# Stress axis : x y z
#
# Youngs Moduli (GPa) = 53.20302 29.15160 188.73982
#
# Poissons Ratio (x) = -0.02585 0.55388
# Poissons Ratio (y) = -0.04717 0.18569
# Poissons Ratio (z) = 0.15613 0.02868
#
# Static dielectric constant tensor:
#      x y z
#    x 1.728130 0.000000 0.000000 
#    y 0.000000 1.734930 0.000000 
#    z 0.000000 0.000000 1.915010 
# 
# From -- ./inp_files/19555.got.cif
#   From: 2010.05.17/outbox.cif.g08.bks.cpg/sg66_10_cif.got.tgz:19555.got - 2010.06.03 17:51:23.
