data_PCOD9497536
_publ_section_title
;
Structure prediction by ZEFSAII (Michael W. Deem and Ramdas Pophale) SiO2 
 PCOD9497536
Probable space group: C C C M
;
_chemical_formula_sum "Si O2"
_cell_formula_units_Z 80
_cell_length_a 17.749238
_cell_length_b 8.211793
_cell_length_c 26.581410
_cell_angle_alpha 90.000000
_cell_angle_beta 90.000000
_cell_angle_gamma 90.000000
_cell_volume 3874.322069
_symmetry_space_group_name_H-M "C C C M"
_symmetry_group_IT_number 66
_symmetry_cell_setting 'orthorhombic'
loop_
_space_group_symop_operation_xyz
x,y,z
-x,-y,z
x,-y,1/2-z
-x,y,1/2-z
-x,-y,-z
x,y,-z
-x,y,1/2+z
x,-y,1/2+z
1/2+x,1/2+y,z
1/2-x,1/2-y,z
1/2+x,1/2-y,1/2-z
1/2-x,1/2+y,1/2-z
1/2-x,1/2-y,-z
1/2+x,1/2+y,-z
1/2-x,1/2+y,1/2+z
1/2+x,1/2-y,1/2+z
loop_
_atom_site_type_symbol
_atom_site_label
_atom_site_fract_x
_atom_site_fract_y
_atom_site_fract_z
Si Si1 0.207108 0.922980 0.886728
Si Si2 0.338893 0.078517 0.942922
Si Si3 0.587079 0.554784 0.193642
Si Si4 0.536675 0.178696 0.629754
Si Si5 0.583089 0.722384 0.554366
O O1 0.250000 0.750000 0.875098
O O2 0.153155 0.892179 0.934473
O O3 0.268563 0.049886 0.906323
O O4 0.151972 0.981805 0.842397
O O5 0.399616 0.182377 0.913162
O O6 0.381065 0.902982 0.946703
O O7 0.321918 0.129580 0.000000
O O8 0.500000 0.500000 0.186314
O O9 0.606389 0.500000 0.250000
O O10 0.575409 0.744560 0.178814
O O11 0.471185 0.281153 0.602206
O O12 0.500000 0.000000 0.638285
O O13 0.547093 0.692131 0.500000
#
# Coordination Sequence:
#
# PCOD9497536 Si02
#       5
#    16  16  16  16  16
#     4  10  20  38  62  90 128 167 210 253 310 380
#     4   9  18  33  59  94 135 169 198 247 316 384
#     4  11  24  45  67  86 119 165 217 278 323 365
#     4  10  20  38  65  93 126 162 210 259 317 382
#     4   9  16  31  59  92 127 169 206 242 302 385
#
# _framework density 20.648774
#
# number of rings (size 3 to 8) (size 9 to 14) (size 15 to 20)
#    0.000    2.200    2.000    1.200    0.000    5.600 
#    3.600    8.000    0.000    0.000    0.000    0.000 
#    0.000    0.000    0.000    0.000    0.000    0.000 
#
# Total GULP energy -222786.839500 kJ/mol
# GULP energy per Si atom -5569.670988 kJ/mol
# Density = 2.060178 g / cm^3
# Si number density = 20.648774 Si / 1000 Ang^3
#
#
#
# Elastic Constant Matrix: (Units=GPa)
#
#
# Indices 1 2 3 4 5 6 
#
# 1 100.1566 28.2493 41.2242 0.0000 0.0000 0.0000
# 2 28.2493 46.2831 40.5519 0.0000 0.0000 0.0000
# 3 41.2242 40.5519 143.2878 0.0000 0.0000 0.0000
# 4 0.0000 0.0000 0.0000 38.8185 0.0000 0.0000
# 5 0.0000 0.0000 0.0000 0.0000 45.0312 0.0000
# 6 0.0000 0.0000 0.0000 0.0000 0.0000 5.3310
#
#
#
# Elastic Compliance Matrix: (Units=1/GPa)
#
#
# Indices 1 2 3 4 5 6 
#
# 1 0.012438 -0.005926 -0.001901 0.000000 0.000000 0.000000
# 2 -0.005926 0.031553 -0.007225 0.000000 0.000000 0.000000
# 3 -0.001901 -0.007225 0.009571 0.000000 0.000000 0.000000
# 4 0.000000 0.000000 0.000000 0.025761 0.000000 0.000000
# 5 0.000000 0.000000 0.000000 0.000000 0.022207 0.000000
# 6 0.000000 0.000000 0.000000 0.000000 0.000000 0.187581
#
#
# Mechanical properties :
#
#
# Convention : Reuss Voigt Hill
#
# Bulk Modulus (GPa) = 42.62972 56.64204 49.63588
# Shear Modulus (GPa) = 15.28888 29.81628 22.55258
#
# Velocity S-wave (km/s) = 2.72403 3.80409 3.30843
# Velocity P-wave (km/s) = 5.53026 6.83999 6.21970
#
# Compressibility (1/GPa) = 0.02345781
#
# Stress axis : x y z
#
# Youngs Moduli (GPa) = 80.39610 31.69229 104.48465
#
# Poissons Ratio (x) = 0.18780 0.19868
# Poissons Ratio (y) = 0.47642 0.75491
# Poissons Ratio (z) = 0.15287 0.22898
#
# Static dielectric constant tensor:
#      x y z
#    x 1.741760 0.000000 0.000000 
#    y 0.000000 1.813430 0.000000 
#    z 0.000000 0.000000 1.716780 
# 
# From -- ./inp_files/62373.got.cif
#   From: 2010.05.17/outbox.cif.g08.bks.cpg/sg66_32_cif.got.tgz:62373.got - 2010.06.03 17:51:23.
