data_PCOD9497034
_publ_section_title
;
Structure prediction by ZEFSAII (Michael W. Deem and Ramdas Pophale) SiO2 
 PCOD9497034
Probable space group: C C C M
;
_chemical_formula_sum "Si O2"
_cell_formula_units_Z 104
_cell_length_a 22.233453
_cell_length_b 8.546687
_cell_length_c 29.859285
_cell_angle_alpha 90.000000
_cell_angle_beta 90.000000
_cell_angle_gamma 90.000000
_cell_volume 5673.931915
_symmetry_space_group_name_H-M "C C C M"
_symmetry_group_IT_number 66
_symmetry_cell_setting 'orthorhombic'
loop_
_space_group_symop_operation_xyz
x,y,z
-x,-y,z
x,-y,1/2-z
-x,y,1/2-z
-x,-y,-z
x,y,-z
-x,y,1/2+z
x,-y,1/2+z
1/2+x,1/2+y,z
1/2-x,1/2-y,z
1/2+x,1/2-y,1/2-z
1/2-x,1/2+y,1/2-z
1/2-x,1/2-y,-z
1/2+x,1/2+y,-z
1/2-x,1/2+y,1/2+z
1/2+x,1/2-y,1/2+z
loop_
_atom_site_type_symbol
_atom_site_label
_atom_site_fract_x
_atom_site_fract_y
_atom_site_fract_z
Si Si1 0.187605 0.818280 0.902771
Si Si2 0.866701 0.878656 0.922408
Si Si3 0.184229 0.674018 0.500000
Si Si4 0.063120 0.695452 0.347243
Si Si5 0.572817 0.320176 0.250491
Si Si6 0.843212 0.690925 0.500000
Si Si7 0.579440 0.173712 0.155258
Si Si8 0.566589 0.564915 0.500000
O O1 0.250000 0.750000 0.884146
O O2 0.183140 0.762037 0.954371
O O3 0.128895 0.755349 0.876271
O O4 0.184840 0.006761 0.903539
O O5 0.905210 0.804919 0.883164
O O6 0.844827 0.742543 0.955017
O O7 0.904368 0.990678 0.955512
O O8 0.250000 0.750000 0.500000
O O9 0.173578 0.489980 0.500000
O O10 0.086002 0.741266 0.297860
O O11 0.078619 0.512524 0.352954
O O12 0.990846 0.720731 0.351666
O O13 0.594158 0.500000 0.250000
O O14 0.500000 0.323827 0.250000
O O15 0.592645 0.224131 0.206691
O O16 0.913141 0.752551 0.500000
O O17 0.500000 0.500000 0.500000
#
# Coordination Sequence:
#
# PCOD9497034 Si02
#       8
#    16  16   8  16  16   8  16   8
#     4  11  22  38  58  81 111 150 195 234 275 336
#     4  10  22  35  55  84 109 144 192 230 283 339
#     4  11  21  39  58  79 113 149 192 236 279 344
#     4  10  20  35  56  86 116 141 183 235 290 345
#     4   9  17  32  55  83 111 145 182 226 283 343
#     4  10  21  36  59  79 108 150 193 235 287 333
#     4  10  21  35  56  84 115 149 182 231 290 341
#     4   9  21  37  52  78 113 152 182 236 290 345
#
# _framework density 18.329440000000002
#
# number of rings (size 3 to 8) (size 9 to 14) (size 15 to 20)
#    0.000    2.000    0.000    3.923    4.308    3.077 
#    0.000    0.769    0.000    6.462    0.000    0.000 
#    0.000    0.000    0.000    0.000    0.000    0.000 
#
# Total GULP energy -289887.141851 kJ/mol
# GULP energy per Si atom -5574.752728 kJ/mol
# Density = 1.828772 g / cm^3
# Si number density = 18.329440 Si / 1000 Ang^3
#
#
#
# Elastic Constant Matrix: (Units=GPa)
#
#
# Indices 1 2 3 4 5 6 
#
# 1 62.7126 34.9716 35.0243 0.0000 0.0000 0.0000
# 2 34.9716 117.8805 44.9637 0.0000 0.0000 0.0000
# 3 35.0243 44.9637 125.8358 0.0000 0.0000 0.0000
# 4 0.0000 0.0000 0.0000 586.4108 0.0000 0.0000
# 5 0.0000 0.0000 0.0000 0.0000 12.9679 0.0000
# 6 0.0000 0.0000 0.0000 0.0000 0.0000 27.6961
#
#
#
# Elastic Compliance Matrix: (Units=1/GPa)
#
#
# Indices 1 2 3 4 5 6 
#
# 1 0.020829 -0.004594 -0.004156 0.000000 0.000000 0.000000
# 2 -0.004594 0.010835 -0.002593 0.000000 0.000000 0.000000
# 3 -0.004156 -0.002593 0.010030 0.000000 0.000000 0.000000
# 4 0.000000 0.000000 0.000000 0.001705 0.000000 0.000000
# 5 0.000000 0.000000 0.000000 0.000000 0.077114 0.000000
# 6 0.000000 0.000000 0.000000 0.000000 0.000000 0.036106
#
#
# Mechanical properties :
#
#
# Convention : Reuss Voigt Hill
#
# Bulk Modulus (GPa) = 52.60863 59.59423 56.10143
# Shear Modulus (GPa) = 26.93378 138.17956 82.55667
#
# Velocity S-wave (km/s) = 3.83747 8.69197 6.71850
# Velocity P-wave (km/s) = 6.95693 11.54631 9.53195
#
# Compressibility (1/GPa) = 0.01900829
#
# Stress axis : x y z
#
# Youngs Moduli (GPa) = 48.01099 92.29248 99.70039
#
# Poissons Ratio (x) = 0.42400 0.41433
# Poissons Ratio (y) = 0.22057 0.25852
# Poissons Ratio (z) = 0.19952 0.23931
#
# Static dielectric constant tensor:
#      x y z
#    x 1.620090 0.000000 0.000000 
#    y 0.000000 1.631870 0.000000 
#    z 0.000000 0.000000 1.619540 
# 
# From -- ./inp_files/70232.got.cif
#   From: 2010.05.17/outbox.cif.g08.bks.cpg/sg66_36_cif.got.tgz:70232.got - 2010.06.03 17:51:23.
