data_PCOD9497952
_publ_section_title
;
Structure prediction by ZEFSAII (Michael W. Deem and Ramdas Pophale) SiO2 
 PCOD9497952
Probable space group: C C C M
;
_chemical_formula_sum "Si O2"
_cell_formula_units_Z 96
_cell_length_a 27.528329
_cell_length_b 20.768030
_cell_length_c 8.713264
_cell_angle_alpha 90.000000
_cell_angle_beta 90.000000
_cell_angle_gamma 90.000000
_cell_volume 4981.452864
_symmetry_space_group_name_H-M "C C C M"
_symmetry_group_IT_number 66
_symmetry_cell_setting 'orthorhombic'
loop_
_space_group_symop_operation_xyz
x,y,z
-x,-y,z
x,-y,1/2-z
-x,y,1/2-z
-x,-y,-z
x,y,-z
-x,y,1/2+z
x,-y,1/2+z
1/2+x,1/2+y,z
1/2-x,1/2-y,z
1/2+x,1/2-y,1/2-z
1/2-x,1/2+y,1/2-z
1/2-x,1/2-y,-z
1/2+x,1/2+y,-z
1/2-x,1/2+y,1/2+z
1/2+x,1/2-y,1/2+z
loop_
_atom_site_type_symbol
_atom_site_label
_atom_site_fract_x
_atom_site_fract_y
_atom_site_fract_z
Si Si1 0.792801 0.799526 0.314602
Si Si2 0.743009 0.930860 0.684803
Si Si3 0.898341 0.202371 0.316639
Si Si4 0.445548 0.567693 0.315734
Si Si5 0.869090 0.430412 0.814917
Si Si6 0.448033 0.174845 0.683987
O O1 0.797706 0.797385 0.500000
O O2 0.750000 0.750000 0.273207
O O3 0.776079 0.871097 0.267653
O O4 0.844199 0.783345 0.241194
O O5 0.743770 0.933801 0.500000
O O6 0.686889 0.918282 0.732188
O O7 0.757843 0.000000 0.750000
O O8 0.900860 0.207126 0.500000
O O9 0.914090 0.129957 0.272261
O O10 0.934152 0.254572 0.243708
O O11 0.426416 0.500000 0.250000
O O12 0.500000 0.575863 0.250000
O O13 0.448052 0.563634 0.500000
O O14 0.883338 0.500000 0.750000
O O15 0.905877 0.374714 0.765909
O O16 0.869805 0.432907 0.000000
O O17 0.500000 0.155174 0.750000
O O18 0.449717 0.175333 0.500000
#
# Coordination Sequence:
#
# PCOD9497952 Si02
#       6
#    16  16  16  16  16  16
#     4  10  21  38  59  81 109 147 188 230 278 331
#     4   9  18  34  56  81 109 143 182 224 273 328
#     4  11  24  39  57  84 114 146 187 233 281 332
#     4  10  21  37  58  83 111 144 183 226 275 331
#     4   9  19  36  58  83 112 147 186 228 275 329
#     4  11  23  39  59  83 113 149 189 232 280 334
#
# _framework density 19.271485999999999
#
# number of rings (size 3 to 8) (size 9 to 14) (size 15 to 20)
#    0.000    2.000    0.000    3.500    0.000   10.000 
#    0.000    8.333    0.000    0.000    0.000    0.000 
#    0.000    0.000    0.000    0.000    0.000    0.000 
#
# Total GULP energy -268173.983261 kJ/mol
# GULP energy per Si atom -5586.957985 kJ/mol
# Density = 1.922762 g / cm^3
# Si number density = 19.271486 Si / 1000 Ang^3
#
#
#
# Elastic Constant Matrix: (Units=GPa)
#
#
# Indices 1 2 3 4 5 6 
#
# 1 32.7088 -4.0977 5.8139 0.0000 0.0000 0.0000
# 2 -4.0977 46.4141 8.8160 0.0000 0.0000 0.0000
# 3 5.8139 8.8160 21.6794 0.0000 0.0000 0.0000
# 4 0.0000 0.0000 0.0000 39.0128 0.0000 0.0000
# 5 0.0000 0.0000 0.0000 0.0000 61.1922 0.0000
# 6 0.0000 0.0000 0.0000 0.0000 0.0000 37.2423
#
#
#
# Elastic Compliance Matrix: (Units=1/GPa)
#
#
# Indices 1 2 3 4 5 6 
#
# 1 0.033140 0.005000 -0.010921 0.000000 0.000000 0.000000
# 2 0.005000 0.024103 -0.011142 0.000000 0.000000 0.000000
# 3 -0.010921 -0.011142 0.053587 0.000000 0.000000 0.000000
# 4 0.000000 0.000000 0.000000 0.025633 0.000000 0.000000
# 5 0.000000 0.000000 0.000000 0.000000 0.016342 0.000000
# 6 0.000000 0.000000 0.000000 0.000000 0.000000 0.026851
#
#
# Mechanical properties :
#
#
# Convention : Reuss Voigt Hill
#
# Bulk Modulus (GPa) = 13.03719 13.54075 13.28897
# Shear Modulus (GPa) = 20.88990 33.50746 27.19868
#
# Velocity S-wave (km/s) = 3.29596 4.17430 3.76086
# Velocity P-wave (km/s) = 4.61131 5.50224 5.07636
#
# Compressibility (1/GPa) = 0.07670363
#
# Stress axis : x y z
#
# Youngs Moduli (GPa) = 30.17471 41.48852 18.66135
#
# Poissons Ratio (x) = -0.20745 0.20380
# Poissons Ratio (y) = -0.15088 0.20793
# Poissons Ratio (z) = 0.32953 0.46229
#
# Static dielectric constant tensor:
#      x y z
#    x 1.653520 0.000000 0.000000 
#    y 0.000000 1.665510 0.000000 
#    z 0.000000 0.000000 1.652150 
# 
# From -- ./inp_files/8000.got.cif
#   From: 2010.05.17/outbox.cif.g08.bks.cpg/sg66_4_cif.got.tgz:8000.got - 2010.06.03 17:51:23.
