data_PCOD9497858
_publ_section_title
;
Structure prediction by ZEFSAII (Michael W. Deem and Ramdas Pophale) SiO2 
 PCOD9497858
Probable space group: C C C M
;
_chemical_formula_sum "Si O2"
_cell_formula_units_Z 80
_cell_length_a 26.530404
_cell_length_b 20.827485
_cell_length_c 8.015125
_cell_angle_alpha 90.000000
_cell_angle_beta 90.000000
_cell_angle_gamma 90.000000
_cell_volume 4428.850225
_symmetry_space_group_name_H-M "C C C M"
_symmetry_group_IT_number 66
_symmetry_cell_setting 'orthorhombic'
loop_
_space_group_symop_operation_xyz
x,y,z
-x,-y,z
x,-y,1/2-z
-x,y,1/2-z
-x,-y,-z
x,y,-z
-x,y,1/2+z
x,-y,1/2+z
1/2+x,1/2+y,z
1/2-x,1/2-y,z
1/2+x,1/2-y,1/2-z
1/2-x,1/2+y,1/2-z
1/2-x,1/2-y,-z
1/2+x,1/2+y,-z
1/2-x,1/2+y,1/2+z
1/2+x,1/2-y,1/2+z
loop_
_atom_site_type_symbol
_atom_site_label
_atom_site_fract_x
_atom_site_fract_y
_atom_site_fract_z
Si Si1 0.627501 0.300598 0.500000
Si Si2 0.257375 0.000000 0.250000
Si Si3 0.791362 0.903342 0.000000
Si Si4 0.944822 0.397089 0.300533
Si Si5 0.842419 0.599263 0.324160
Si Si6 0.056821 0.245996 0.699913
Si Si7 0.691219 0.824663 0.000000
O O1 0.654765 0.369550 0.500000
O O2 0.594716 0.287390 0.667760
O O3 0.672036 0.247485 0.500000
O O4 0.298034 0.047555 0.333403
O O5 0.221971 0.951044 0.348844
O O6 0.749153 0.846856 0.000000
O O7 0.939575 0.399466 0.500000
O O8 0.897705 0.429356 0.208565
O O9 0.941518 0.322483 0.240044
O O10 0.000000 0.420904 0.250000
O O11 0.843171 0.635588 0.500000
O O12 0.831450 0.642739 0.165014
O O13 0.065349 0.236193 0.500000
O O14 0.000000 0.225522 0.750000
#
# Coordination Sequence:
#
# PCOD9497858 Si02
#       7
#     8   8   8  16  16  16   8
#     4  12  21  38  58  94 126 156 188 244 302 351
#     4  10  22  42  61  80 103 152 214 246 296 340
#     4  10  23  42  64  81 118 153 205 260 288 348
#     4  11  19  31  50  82 121 163 199 237 288 345
#     4  11  19  34  58  80 112 156 199 249 284 342
#     4  11  19  33  55  86 129 162 187 225 284 366
#     4  10  21  36  56  89 117 156 197 240 304 347
#
# _framework density 18.063379000000001
#
# number of rings (size 3 to 8) (size 9 to 14) (size 15 to 20)
#    0.000    1.200    6.000    3.300    0.000    0.000 
#    1.800    0.500    0.000    6.000    0.000    2.100 
#    0.000    0.000    0.000    0.000    0.000    0.000 
#
# Total GULP energy -222853.705028 kJ/mol
# GULP energy per Si atom -5571.342626 kJ/mol
# Density = 1.802227 g / cm^3
# Si number density = 18.063379 Si / 1000 Ang^3
#
#
#
# Elastic Constant Matrix: (Units=GPa)
#
#
# Indices 1 2 3 4 5 6 
#
# 1 97.1483 61.1739 44.4916 0.0000 0.0000 0.0000
# 2 61.1739 73.9399 42.1826 0.0000 0.0000 0.0000
# 3 44.4916 42.1826 169.5014 0.0000 0.0000 0.0000
# 4 0.0000 0.0000 0.0000 8.9391 0.0000 0.0000
# 5 0.0000 0.0000 0.0000 0.0000 12.7817 0.0000
# 6 0.0000 0.0000 0.0000 0.0000 0.0000 16.5961
#
#
#
# Elastic Compliance Matrix: (Units=1/GPa)
#
#
# Indices 1 2 3 4 5 6 
#
# 1 0.021785 -0.017204 -0.001437 0.000000 0.000000 0.000000
# 2 -0.017204 0.029349 -0.002788 0.000000 0.000000 0.000000
# 3 -0.001437 -0.002788 0.006971 0.000000 0.000000 0.000000
# 4 0.000000 0.000000 0.000000 0.111868 0.000000 0.000000
# 5 0.000000 0.000000 0.000000 0.000000 0.078237 0.000000
# 6 0.000000 0.000000 0.000000 0.000000 0.000000 0.060255
#
#
# Mechanical properties :
#
#
# Convention : Reuss Voigt Hill
#
# Bulk Modulus (GPa) = 65.58804 70.69842 68.14323
# Shear Modulus (GPa) = 14.02905 20.51281 17.27093
#
# Velocity S-wave (km/s) = 2.78988 3.37353 3.09549
# Velocity P-wave (km/s) = 6.83862 7.37552 7.11214
#
# Compressibility (1/GPa) = 0.01524668
#
# Stress axis : x y z
#
# Youngs Moduli (GPa) = 45.90371 34.07316 143.45920
#
# Poissons Ratio (x) = 0.58619 0.20612
# Poissons Ratio (y) = 0.78972 0.39997
# Poissons Ratio (z) = 0.06595 0.09500
#
# Static dielectric constant tensor:
#      x y z
#    x 1.651860 0.000000 0.000000 
#    y 0.000000 1.601290 0.000000 
#    z 0.000000 0.000000 1.677350 
# 
# From -- ./inp_files/10221.got.cif
#   From: 2010.05.17/outbox.cif.g08.bks.cpg/sg66_6_cif.got.tgz:10221.got - 2010.06.03 17:51:23.
