data_PCOD9497932
_publ_section_title
;
Structure prediction by ZEFSAII (Michael W. Deem and Ramdas Pophale) SiO2 
 PCOD9497932
Probable space group: C C C M
;
_chemical_formula_sum "Si O2"
_cell_formula_units_Z 60
_cell_length_a 10.761391
_cell_length_b 29.859750
_cell_length_c 9.303252
_cell_angle_alpha 90.000000
_cell_angle_beta 90.000000
_cell_angle_gamma 90.000000
_cell_volume 2989.436711
_symmetry_space_group_name_H-M "C C C M"
_symmetry_group_IT_number 66
_symmetry_cell_setting 'orthorhombic'
loop_
_space_group_symop_operation_xyz
x,y,z
-x,-y,z
x,-y,1/2-z
-x,y,1/2-z
-x,-y,-z
x,y,-z
-x,y,1/2+z
x,-y,1/2+z
1/2+x,1/2+y,z
1/2-x,1/2-y,z
1/2+x,1/2-y,1/2-z
1/2-x,1/2+y,1/2-z
1/2-x,1/2-y,-z
1/2+x,1/2+y,-z
1/2-x,1/2+y,1/2+z
1/2+x,1/2-y,1/2+z
loop_
_atom_site_type_symbol
_atom_site_label
_atom_site_fract_x
_atom_site_fract_y
_atom_site_fract_z
Si Si1 0.121490 0.133585 0.500000
Si Si2 0.500000 0.166989 0.750000
Si Si3 0.402422 0.440184 0.000000
Si Si4 0.845849 0.787395 0.000000
Si Si5 0.000000 0.188239 0.250000
Si Si6 0.326525 0.872624 0.500000
Si Si7 0.667998 0.797858 0.500000
Si Si8 0.500000 0.500000 0.250000
O O1 0.261994 0.152869 0.500000
O O2 0.031625 0.089749 0.500000
O O3 0.078901 0.157044 0.353192
O O4 0.587177 0.137066 0.641237
O O5 0.415017 0.197195 0.643575
O O6 0.267851 0.415311 0.000000
O O7 0.416840 0.469823 0.143571
O O8 0.750000 0.750000 0.000000
O O9 0.922840 0.783053 0.857783
O O10 0.778713 0.834523 0.000000
O O11 0.750000 0.750000 0.500000
#
# Coordination Sequence:
#
# PCOD9497932 Si02
#       8
#     8   8   8   8   8   8   8   4
#     4  11  22  37  71  97 128 182 222 272 349 416
#     4  10  26  45  61 101 130 198 238 284 338 400
#     4  11  23  45  72 114 140 175 221 289 379 416
#     4  11  24  38  59  90 127 180 229 290 327 385
#     4  10  21  37  56  95 120 170 230 275 330 397
#     4  11  23  44  70  92 142 183 226 288 334 421
#     4  11  26  44  64  96 142 188 242 298 330 403
#     4  10  26  42  74 120 144 158 216 308 362 440
#
# _framework density 20.070671000000001
#
# number of rings (size 3 to 8) (size 9 to 14) (size 15 to 20)
#    0.000    1.333    2.667    2.400    3.733   10.667 
#    0.000    2.667    0.000    2.400    0.000    0.000 
#    0.000    0.000    0.000    0.000    0.000    0.000 
#
# Total GULP energy -167030.196292 kJ/mol
# GULP energy per Si atom -5567.673210 kJ/mol
# Density = 2.002499 g / cm^3
# Si number density = 20.070671 Si / 1000 Ang^3
#
#
#
# Elastic Constant Matrix: (Units=GPa)
#
#
# Indices 1 2 3 4 5 6 
#
# 1 118.7342 64.2487 84.2696 0.0000 0.0000 0.0000
# 2 64.2487 97.7834 66.2850 0.0000 0.0000 0.0000
# 3 84.2696 66.2850 205.2168 0.0000 0.0000 0.0000
# 4 0.0000 0.0000 0.0000 90.5766 0.0000 0.0000
# 5 0.0000 0.0000 0.0000 0.0000 72.1159 0.0000
# 6 0.0000 0.0000 0.0000 0.0000 0.0000 38.0378
#
#
#
# Elastic Compliance Matrix: (Units=1/GPa)
#
#
# Indices 1 2 3 4 5 6 
#
# 1 0.015111 -0.007327 -0.003839 0.000000 0.000000 0.000000
# 2 -0.007327 0.016646 -0.002368 0.000000 0.000000 0.000000
# 3 -0.003839 -0.002368 0.007214 0.000000 0.000000 0.000000
# 4 0.000000 0.000000 0.000000 0.011040 0.000000 0.000000
# 5 0.000000 0.000000 0.000000 0.000000 0.013867 0.000000
# 6 0.000000 0.000000 0.000000 0.000000 0.000000 0.026290
#
#
# Mechanical properties :
#
#
# Convention : Reuss Voigt Hill
#
# Bulk Modulus (GPa) = 84.00260 94.59345 89.29803
# Shear Modulus (GPa) = 41.25323 53.94146 47.59734
#
# Velocity S-wave (km/s) = 4.53857 5.18981 4.87508
# Velocity P-wave (km/s) = 8.33121 9.11837 8.73366
#
# Compressibility (1/GPa) = 0.01190439
#
# Stress axis : x y z
#
# Youngs Moduli (GPa) = 66.17616 60.07481 138.61785
#
# Poissons Ratio (x) = 0.44015 0.53211
# Poissons Ratio (y) = 0.48485 0.32825
# Poissons Ratio (z) = 0.25403 0.14226
#
# Static dielectric constant tensor:
#      x y z
#    x 2.057160 0.000000 0.000000 
#    y 0.000000 1.732640 0.000000 
#    z 0.000000 0.000000 1.678470 
# 
# From -- ./inp_files/3959.got.cif
#   From: 2010.05.17/outbox.cif.g08.bks.cpg/sg66_2_cif.got.tgz:3959.got - 2010.06.03 17:51:23.
