data_PCOD9497515
_publ_section_title
;
Structure prediction by ZEFSAII (Michael W. Deem and Ramdas Pophale) SiO2 
 PCOD9497515
Probable space group: C C C M
;
_chemical_formula_sum "Si O2"
_cell_formula_units_Z 72
_cell_length_a 8.826605
_cell_length_b 24.848270
_cell_length_c 14.507100
_cell_angle_alpha 90.000000
_cell_angle_beta 90.000000
_cell_angle_gamma 90.000000
_cell_volume 3181.782245
_symmetry_space_group_name_H-M "C C C M"
_symmetry_group_IT_number 66
_symmetry_cell_setting 'orthorhombic'
loop_
_space_group_symop_operation_xyz
x,y,z
-x,-y,z
x,-y,1/2-z
-x,y,1/2-z
-x,-y,-z
x,y,-z
-x,y,1/2+z
x,-y,1/2+z
1/2+x,1/2+y,z
1/2-x,1/2-y,z
1/2+x,1/2-y,1/2-z
1/2-x,1/2+y,1/2-z
1/2-x,1/2-y,-z
1/2+x,1/2+y,-z
1/2-x,1/2+y,1/2+z
1/2+x,1/2-y,1/2+z
loop_
_atom_site_type_symbol
_atom_site_label
_atom_site_fract_x
_atom_site_fract_y
_atom_site_fract_z
Si Si1 0.217404 0.124392 0.700227
Si Si2 0.468386 0.059770 0.639961
Si Si3 0.000000 0.298883 0.250000
Si Si4 0.728904 0.386079 0.400358
Si Si5 0.984226 0.793870 0.103801
O O1 0.298013 0.081649 0.632693
O O2 0.354738 0.164665 0.728282
O O3 0.173242 0.095934 0.797904
O O4 0.093462 0.161943 0.652512
O O5 0.500000 0.057650 0.750000
O O6 0.593603 0.100248 0.600499
O O7 0.500000 0.000000 0.604530
O O8 0.021348 0.258990 0.164280
O O9 0.668694 0.407362 0.500000
O O10 0.677070 0.324075 0.400368
O O11 0.036383 0.783235 0.000000
#
# Coordination Sequence:
#
# PCOD9497515 Si02
#       5
#    16  16   8  16  16
#     4  11  21  40  62  89 123 163 205 261 305 371
#     4   9  19  38  64  91 120 160 208 257 312 368
#     4  12  22  38  63  86 121 160 208 254 306 362
#     4  10  20  38  60  88 124 161 203 254 308 362
#     4  11  25  40  61  90 127 167 207 253 311 374
#
# _framework density 22.628827000000001
#
# number of rings (size 3 to 8) (size 9 to 14) (size 15 to 20)
#    0.000    1.556    5.556    0.667    0.000    4.000 
#    0.000    3.333    0.000    8.000    0.000    0.000 
#    0.000    0.000    0.000    0.000    0.000    0.000 
#
# Total GULP energy -200709.575896 kJ/mol
# GULP energy per Si atom -5575.265997 kJ/mol
# Density = 2.257732 g / cm^3
# Si number density = 22.628827 Si / 1000 Ang^3
#
#
#
# Elastic Constant Matrix: (Units=GPa)
#
#
# Indices 1 2 3 4 5 6 
#
# 1 76.4517 49.9099 34.7051 0.0000 0.0000 0.0000
# 2 49.9099 101.3658 32.2720 0.0000 0.0000 0.0000
# 3 34.7051 32.2720 152.0965 0.0000 0.0000 0.0000
# 4 0.0000 0.0000 0.0000 -8.2192 0.0000 0.0000
# 5 0.0000 0.0000 0.0000 0.0000 18.2382 0.0000
# 6 0.0000 0.0000 0.0000 0.0000 0.0000 14.2838
#
#
#
# Elastic Compliance Matrix: (Units=1/GPa)
#
#
# Indices 1 2 3 4 5 6 
#
# 1 0.020251 -0.009116 -0.002687 0.000000 0.000000 0.000000
# 2 -0.009116 0.014683 -0.001036 0.000000 0.000000 0.000000
# 3 -0.002687 -0.001036 0.007408 0.000000 0.000000 0.000000
# 4 0.000000 0.000000 0.000000 -0.121667 0.000000 0.000000
# 5 0.000000 0.000000 0.000000 0.000000 0.054830 0.000000
# 6 0.000000 0.000000 0.000000 0.000000 0.000000 0.070009
#
#
# Mechanical properties :
#
#
# Convention : Reuss Voigt Hill
#
# Bulk Modulus (GPa) = 60.00245 62.63200 61.31723
# Shear Modulus (GPa) = 65.15099 19.06236 42.10668
#
# Velocity S-wave (km/s) = 5.37156 2.90555 4.31833
# Velocity P-wave (km/s) = 8.06505 6.24455 7.21247
#
# Compressibility (1/GPa) = 0.01666599
#
# Stress axis : x y z
#
# Youngs Moduli (GPa) = 49.38111 68.10494 134.99800
#
# Poissons Ratio (x) = 0.62082 0.36269
# Poissons Ratio (y) = 0.45014 0.13979
# Poissons Ratio (z) = 0.13267 0.07052
#
# Static dielectric constant tensor:
#      x y z
#    x 1.884280 0.000000 0.000000 
#    y 0.000000 1.826150 0.000000 
#    z 0.000000 0.000000 1.951400 
# 
# From -- ./inp_files/24462.got.cif
#   From: 2010.05.17/outbox.cif.g08.bks.cpg/sg66_13_cif.got.tgz:24462.got - 2010.06.03 17:51:23.
