data_PCOD9497830
_publ_section_title
;
Structure prediction by ZEFSAII (Michael W. Deem and Ramdas Pophale) SiO2 
 PCOD9497830
Probable space group: C C C M
;
_chemical_formula_sum "Si O2"
_cell_formula_units_Z 96
_cell_length_a 29.702480
_cell_length_b 20.778959
_cell_length_c 8.560197
_cell_angle_alpha 90.000000
_cell_angle_beta 90.000000
_cell_angle_gamma 90.000000
_cell_volume 5283.239003
_symmetry_space_group_name_H-M "C C C M"
_symmetry_group_IT_number 66
_symmetry_cell_setting 'orthorhombic'
loop_
_space_group_symop_operation_xyz
x,y,z
-x,-y,z
x,-y,1/2-z
-x,y,1/2-z
-x,-y,-z
x,y,-z
-x,y,1/2+z
x,-y,1/2+z
1/2+x,1/2+y,z
1/2-x,1/2-y,z
1/2+x,1/2-y,1/2-z
1/2-x,1/2+y,1/2-z
1/2-x,1/2-y,-z
1/2+x,1/2+y,-z
1/2-x,1/2+y,1/2+z
1/2+x,1/2-y,1/2+z
loop_
_atom_site_type_symbol
_atom_site_label
_atom_site_fract_x
_atom_site_fract_y
_atom_site_fract_z
Si Si1 0.409271 0.700125 0.684626
Si Si2 0.131481 0.572680 0.810027
Si Si3 0.218154 0.651721 0.184666
Si Si4 0.449461 0.565193 0.687042
Si Si5 0.688975 0.300914 0.814492
Si Si6 0.050433 0.667529 0.186632
O O1 0.417370 0.706538 0.500000
O O2 0.429247 0.632548 0.740748
O O3 0.356670 0.694416 0.720483
O O4 0.431472 0.762064 0.764953
O O5 0.128208 0.500000 0.750000
O O6 0.178279 0.606217 0.753706
O O7 0.088312 0.615708 0.760686
O O8 0.132069 0.573032 0.000000
O O9 0.269611 0.654709 0.244344
O O10 0.202492 0.725762 0.196717
O O11 0.221856 0.637197 0.000000
O O12 0.426786 0.500000 0.750000
O O13 0.500000 0.564984 0.750000
O O14 0.449236 0.563000 0.500000
O O15 0.681688 0.313581 0.000000
O O16 0.000000 0.656528 0.250000
O O17 0.048439 0.664522 0.000000
#
# Coordination Sequence:
#
# PCOD9497830 Si02
#       6
#    16  16  16  16  16  16
#     4  11  22  35  54  85 118 145 181 229 279 330
#     4  10  21  38  58  81 111 149 191 234 285 342
#     4   8  15  32  56  81 105 138 184 223 264 328
#     4  10  21  36  54  76 104 141 180 221 265 323
#     4   9  16  31  58  82 106 141 180 223 269 323
#     4  11  23  39  59  82 111 147 191 239 286 340
#
# _framework density 18.170670999999999
#
# number of rings (size 3 to 8) (size 9 to 14) (size 15 to 20)
#    0.000    2.167    1.667    3.500    0.000    5.667 
#    0.000    5.000    0.000    4.000    0.000    0.000 
#    0.000    0.000    0.000    0.000    0.000    0.000 
#
# Total GULP energy -267512.155998 kJ/mol
# GULP energy per Si atom -5573.169917 kJ/mol
# Density = 1.812931 g / cm^3
# Si number density = 18.170671 Si / 1000 Ang^3
#
#
#
# Elastic Constant Matrix: (Units=GPa)
#
#
# Indices 1 2 3 4 5 6 
#
# 1 96.2353 50.2438 8.7246 0.0000 0.0000 0.0000
# 2 50.2438 121.8181 19.3798 0.0000 0.0000 0.0000
# 3 8.7246 19.3798 14.5874 0.0000 0.0000 0.0000
# 4 0.0000 0.0000 0.0000 25.8690 0.0000 0.0000
# 5 0.0000 0.0000 0.0000 0.0000 31.3399 0.0000
# 6 0.0000 0.0000 0.0000 0.0000 0.0000 12.2657
#
#
#
# Elastic Compliance Matrix: (Units=1/GPa)
#
#
# Indices 1 2 3 4 5 6 
#
# 1 0.013251 -0.005331 -0.000843 0.000000 0.000000 0.000000
# 2 -0.005331 0.012554 -0.013490 0.000000 0.000000 0.000000
# 3 -0.000843 -0.013490 0.086978 0.000000 0.000000 0.000000
# 4 0.000000 0.000000 0.000000 0.038656 0.000000 0.000000
# 5 0.000000 0.000000 0.000000 0.000000 0.031908 0.000000
# 6 0.000000 0.000000 0.000000 0.000000 0.000000 0.081528
#
#
# Mechanical properties :
#
#
# Convention : Reuss Voigt Hill
#
# Bulk Modulus (GPa) = 13.61363 43.25967 28.43665
# Shear Modulus (GPa) = 15.21200 24.18108 19.69654
#
# Velocity S-wave (km/s) = 2.89653 3.65194 3.29595
# Velocity P-wave (km/s) = 4.32376 6.45301 5.49255
#
# Compressibility (1/GPa) = 0.07345581
#
# Stress axis : x y z
#
# Youngs Moduli (GPa) = 75.46574 79.65648 11.49719
#
# Poissons Ratio (x) = 0.42468 0.00969
# Poissons Ratio (y) = 0.40233 0.15509
# Poissons Ratio (z) = 0.06358 1.07453
#
# Static dielectric constant tensor:
#      x y z
#    x 1.635130 0.000000 0.000000 
#    y 0.000000 1.667810 0.000000 
#    z 0.000000 0.000000 1.625000 
# 
# From -- ./inp_files/10264.got.cif
#   From: 2010.05.17/outbox.cif.g08.bks.cpg/sg66_6_cif.got.tgz:10264.got - 2010.06.03 17:51:23.
