data_PCOD9497304
_publ_section_title
;
Structure prediction by ZEFSAII (Michael W. Deem and Ramdas Pophale) SiO2 
 PCOD9497304
Probable space group: C C C M
;
_chemical_formula_sum "Si O2"
_cell_formula_units_Z 96
_cell_length_a 9.711859
_cell_length_b 24.628772
_cell_length_c 19.809817
_cell_angle_alpha 90.000000
_cell_angle_beta 90.000000
_cell_angle_gamma 90.000000
_cell_volume 4738.333128
_symmetry_space_group_name_H-M "C C C M"
_symmetry_group_IT_number 66
_symmetry_cell_setting 'orthorhombic'
loop_
_space_group_symop_operation_xyz
x,y,z
-x,-y,z
x,-y,1/2-z
-x,y,1/2-z
-x,-y,-z
x,y,-z
-x,y,1/2+z
x,-y,1/2+z
1/2+x,1/2+y,z
1/2-x,1/2-y,z
1/2+x,1/2-y,1/2-z
1/2-x,1/2+y,1/2-z
1/2-x,1/2-y,-z
1/2+x,1/2+y,-z
1/2-x,1/2+y,1/2+z
1/2+x,1/2-y,1/2+z
loop_
_atom_site_type_symbol
_atom_site_label
_atom_site_fract_x
_atom_site_fract_y
_atom_site_fract_z
Si Si1 0.847621 0.943179 0.279339
Si Si2 0.284324 0.407097 0.422759
Si Si3 0.122142 0.387677 0.204102
Si Si4 0.030040 0.563948 0.574984
Si Si5 0.588570 0.761350 0.814155
Si Si6 0.884037 0.783478 0.420852
O O1 0.841334 0.941829 0.360305
O O2 0.757144 0.894313 0.249101
O O3 0.000000 0.938281 0.250000
O O4 0.789992 0.000000 0.250000
O O5 0.311276 0.426304 0.500000
O O6 0.118025 0.406777 0.415425
O O7 0.346830 0.346942 0.415531
O O8 0.080459 0.326661 0.185394
O O9 0.000000 0.411633 0.250000
O O10 0.131374 0.419401 0.134150
O O11 0.081701 0.577075 0.500000
O O12 0.000000 0.500000 0.578143
O O13 0.500000 0.741979 0.750000
O O14 0.750000 0.750000 0.808558
O O15 0.516097 0.734401 0.878472
O O16 0.903702 0.770566 0.500000
O O17 0.750000 0.750000 0.396443
#
# Coordination Sequence:
#
# PCOD9497304 Si02
#       6
#    16  16  16  16  16  16
#     4  11  25  42  63  94 129 169 213 262 326 390
#     4  10  21  39  66  93 125 173 217 262 322 390
#     4  11  23  38  61  93 119 160 208 265 320 374
#     4  10  20  36  62  95 126 161 209 267 322 378
#     4  11  26  40  61  93 126 168 214 269 328 389
#     4  10  22  40  65  92 125 169 217 269 327 396
#
# _framework density 20.260290000000001
#
# number of rings (size 3 to 8) (size 9 to 14) (size 15 to 20)
#    0.000    1.500    1.667    2.500    7.000    2.333 
#    0.000    2.500    0.000    0.000    0.000    0.000 
#    0.000    0.000    0.000    0.000    0.000    0.000 
#
# Total GULP energy -268131.898609 kJ/mol
# GULP energy per Si atom -5586.081221 kJ/mol
# Density = 2.021418 g / cm^3
# Si number density = 20.260290 Si / 1000 Ang^3
#
#
#
# Elastic Constant Matrix: (Units=GPa)
#
#
# Indices 1 2 3 4 5 6 
#
# 1 96.2083 10.7592 42.6894 0.0000 0.0000 0.0000
# 2 10.7592 47.4999 34.7041 0.0000 0.0000 0.0000
# 3 42.6894 34.7041 152.1722 0.0000 0.0000 0.0000
# 4 0.0000 0.0000 0.0000 24.8765 0.0000 0.0000
# 5 0.0000 0.0000 0.0000 0.0000 26.4124 0.0000
# 6 0.0000 0.0000 0.0000 0.0000 0.0000 21.5232
#
#
#
# Elastic Compliance Matrix: (Units=1/GPa)
#
#
# Indices 1 2 3 4 5 6 
#
# 1 0.011876 -0.000307 -0.003261 0.000000 0.000000 0.000000
# 2 -0.000307 0.025270 -0.005677 0.000000 0.000000 0.000000
# 3 -0.003261 -0.005677 0.008781 0.000000 0.000000 0.000000
# 4 0.000000 0.000000 0.000000 0.040199 0.000000 0.000000
# 5 0.000000 0.000000 0.000000 0.000000 0.037861 0.000000
# 6 0.000000 0.000000 0.000000 0.000000 0.000000 0.046462
#
#
# Mechanical properties :
#
#
# Convention : Reuss Voigt Hill
#
# Bulk Modulus (GPa) = 36.44876 52.46506 44.45691
# Shear Modulus (GPa) = 25.24185 28.41092 26.82639
#
# Velocity S-wave (km/s) = 3.53353 3.74879 3.64275
# Velocity P-wave (km/s) = 5.88872 6.68503 6.29947
#
# Compressibility (1/GPa) = 0.02743578
#
# Stress axis : x y z
#
# Youngs Moduli (GPa) = 84.20600 39.57296 113.88086
#
# Poissons Ratio (x) = 0.01215 0.37142
# Poissons Ratio (y) = 0.02586 0.64648
# Poissons Ratio (z) = 0.27464 0.22465
#
# Static dielectric constant tensor:
#      x y z
#    x 1.698220 0.000000 0.000000 
#    y 0.000000 1.750020 0.000000 
#    z 0.000000 0.000000 1.730210 
# 
# From -- ./inp_files/39028.got.cif
#   From: 2010.05.17/outbox.cif.g08.bks.cpg/sg66_20_cif.got.tgz:39028.got - 2010.06.03 17:51:23.
