data_PCOD9497107
_publ_section_title
;
Structure prediction by ZEFSAII (Michael W. Deem and Ramdas Pophale) SiO2 
 PCOD9497107
Probable space group: C C C M
;
_chemical_formula_sum "Si O2"
_cell_formula_units_Z 72
_cell_length_a 18.552460
_cell_length_b 9.267070
_cell_length_c 19.460740
_cell_angle_alpha 90.000000
_cell_angle_beta 90.000000
_cell_angle_gamma 90.000000
_cell_volume 3345.825585
_symmetry_space_group_name_H-M "C C C M"
_symmetry_group_IT_number 66
_symmetry_cell_setting 'orthorhombic'
loop_
_space_group_symop_operation_xyz
x,y,z
-x,-y,z
x,-y,1/2-z
-x,y,1/2-z
-x,-y,-z
x,y,-z
-x,y,1/2+z
x,-y,1/2+z
1/2+x,1/2+y,z
1/2-x,1/2-y,z
1/2+x,1/2-y,1/2-z
1/2-x,1/2+y,1/2-z
1/2-x,1/2-y,-z
1/2+x,1/2+y,-z
1/2-x,1/2+y,1/2+z
1/2+x,1/2-y,1/2+z
loop_
_atom_site_type_symbol
_atom_site_label
_atom_site_fract_x
_atom_site_fract_y
_atom_site_fract_z
Si Si1 0.463074 0.243967 0.421938
Si Si2 0.657287 0.025371 0.919036
Si Si3 0.134599 0.208576 0.080197
Si Si4 0.376963 0.446099 0.319814
Si Si5 0.750000 0.750000 0.667001
O O1 0.442176 0.288690 0.500000
O O2 0.424054 0.089489 0.410785
O O3 0.548804 0.255184 0.418693
O O4 0.429429 0.351564 0.366835
O O5 0.707368 0.136813 0.880059
O O6 0.668366 0.860689 0.896854
O O7 0.672362 0.028558 0.000000
O O8 0.148108 0.076351 0.130806
O O9 0.153654 0.177720 0.000000
O O10 0.412281 0.500000 0.250000
O O11 0.310377 0.344806 0.295873
#
# Coordination Sequence:
#
# PCOD9497107 Si02
#       5
#    16  16  16  16   8
#     4   9  18  36  60  87 118 146 175 221 285 342
#     4   9  18  34  59  87 114 147 186 229 275 328
#     4  10  20  35  59  89 115 142 182 230 278 333
#     4  11  24  39  57  79 109 149 191 232 277 329
#     4  10  23  40  54  74 111 156 192 232 280 322
#
# _framework density 21.519351
#
# number of rings (size 3 to 8) (size 9 to 14) (size 15 to 20)
#    0.000    2.222    0.000    2.333    0.000   11.556 
#    0.000    5.556    0.000    5.333    0.000    0.000 
#    0.000    0.000    0.000    0.000    0.000    0.000 
#
# Total GULP energy -201063.056937 kJ/mol
# GULP energy per Si atom -5585.084915 kJ/mol
# Density = 2.147037 g / cm^3
# Si number density = 21.519351 Si / 1000 Ang^3
#
#
#
# Elastic Constant Matrix: (Units=GPa)
#
#
# Indices 1 2 3 4 5 6 
#
# 1 50.3610 1.8543 4.4812 0.0000 0.0000 0.0000
# 2 1.8543 109.9169 56.0174 0.0000 0.0000 0.0000
# 3 4.4812 56.0174 68.6906 0.0000 0.0000 0.0000
# 4 0.0000 0.0000 0.0000 -79.4657 0.0000 0.0000
# 5 0.0000 0.0000 0.0000 0.0000 9.7215 0.0000
# 6 0.0000 0.0000 0.0000 0.0000 0.0000 26.7273
#
#
#
# Elastic Compliance Matrix: (Units=1/GPa)
#
#
# Indices 1 2 3 4 5 6 
#
# 1 0.019993 0.000560 -0.001761 0.000000 0.000000 0.000000
# 2 0.000560 0.015584 -0.012745 0.000000 0.000000 0.000000
# 3 -0.001761 -0.012745 0.025067 0.000000 0.000000 0.000000
# 4 0.000000 0.000000 0.000000 -0.012584 0.000000 0.000000
# 5 0.000000 0.000000 0.000000 0.000000 0.102864 0.000000
# 6 0.000000 0.000000 0.000000 0.000000 0.000000 0.037415
#
#
# Mechanical properties :
#
#
# Convention : Reuss Voigt Hill
#
# Bulk Modulus (GPa) = 30.53342 39.29714 34.91528
# Shear Modulus (GPa) = 22.01216 2.50434 12.25825
#
# Velocity S-wave (km/s) = 3.20175 1.07995 2.38930
# Velocity P-wave (km/s) = 5.28090 4.45601 4.88589
#
# Compressibility (1/GPa) = 0.03275100
#
# Stress axis : x y z
#
# Youngs Moduli (GPa) = 50.01819 64.16984 39.89377
#
# Poissons Ratio (x) = -0.03595 0.07026
# Poissons Ratio (y) = -0.02802 0.50845
# Poissons Ratio (z) = 0.08809 0.81785
#
# Static dielectric constant tensor:
#      x y z
#    x 1.846870 0.000000 0.000000 
#    y 0.000000 1.796060 0.000000 
#    z 0.000000 0.000000 1.711150 
# 
# From -- ./inp_files/36732.got.cif
#   From: 2010.05.17/outbox.cif.g08.bks.cpg/sg66_19_cif.got.tgz:36732.got - 2010.06.03 17:51:23.
