data_PCOD9497211
_publ_section_title
;
Structure prediction by ZEFSAII (Michael W. Deem and Ramdas Pophale) SiO2 
 PCOD9497211
Probable space group: C C C M
;
_chemical_formula_sum "Si O2"
_cell_formula_units_Z 80
_cell_length_a 15.530453
_cell_length_b 9.134752
_cell_length_c 28.515026
_cell_angle_alpha 90.000000
_cell_angle_beta 90.000000
_cell_angle_gamma 90.000000
_cell_volume 4045.336534
_symmetry_space_group_name_H-M "C C C M"
_symmetry_group_IT_number 66
_symmetry_cell_setting 'orthorhombic'
loop_
_space_group_symop_operation_xyz
x,y,z
-x,-y,z
x,-y,1/2-z
-x,y,1/2-z
-x,-y,-z
x,y,-z
-x,y,1/2+z
x,-y,1/2+z
1/2+x,1/2+y,z
1/2-x,1/2-y,z
1/2+x,1/2-y,1/2-z
1/2-x,1/2+y,1/2-z
1/2-x,1/2-y,-z
1/2+x,1/2+y,-z
1/2-x,1/2+y,1/2+z
1/2+x,1/2-y,1/2+z
loop_
_atom_site_type_symbol
_atom_site_label
_atom_site_fract_x
_atom_site_fract_y
_atom_site_fract_z
Si Si1 0.338329 0.338831 0.054975
Si Si2 0.977771 0.649547 0.111321
Si Si3 0.635230 0.089157 0.297712
Si Si4 0.168215 0.066865 0.799552
Si Si5 0.912124 0.074907 0.110448
O O1 0.250000 0.250000 0.061501
O O2 0.407068 0.243145 0.083751
O O3 0.340536 0.504060 0.076195
O O4 0.358412 0.344679 0.000000
O O5 0.932268 0.594712 0.159655
O O6 0.000000 0.500000 0.085004
O O7 0.061437 0.755391 0.116295
O O8 0.731314 0.033606 0.311172
O O9 0.651873 0.261925 0.291478
O O10 0.610639 0.000000 0.250000
O O11 0.147423 0.000000 0.750000
O O12 0.110454 0.996266 0.839627
O O13 0.000000 0.000000 0.092616
#
# Coordination Sequence:
#
# PCOD9497211 Si02
#       5
#    16  16  16  16  16
#     4  10  21  42  71  93 115 156 203 250 309 381
#     4  11  24  39  57  90 128 159 197 254 320 363
#     4  10  21  38  56  81 121 164 204 253 301 358
#     4  10  20  36  59  82 113 162 215 253 295 355
#     4  10  20  37  59  89 120 159 203 253 306 373
#
# _framework density 19.775856000000001
#
# number of rings (size 3 to 8) (size 9 to 14) (size 15 to 20)
#    0.000    1.800    4.000    1.200    2.800    4.800 
#    0.000    3.000    0.000    2.400    0.000    0.000 
#    0.000    0.000    0.000    0.000    0.000    0.000 
#
# Total GULP energy -222675.725788 kJ/mol
# GULP energy per Si atom -5566.893145 kJ/mol
# Density = 1.973085 g / cm^3
# Si number density = 19.775856 Si / 1000 Ang^3
#
#
#
# Elastic Constant Matrix: (Units=GPa)
#
#
# Indices 1 2 3 4 5 6 
#
# 1 44.1606 30.4118 48.7792 0.0000 0.0000 0.0000
# 2 30.4118 100.4700 42.4317 0.0000 0.0000 0.0000
# 3 48.7792 42.4317 103.4919 0.0000 0.0000 0.0000
# 4 0.0000 0.0000 0.0000 19.5591 0.0000 0.0000
# 5 0.0000 0.0000 0.0000 0.0000 19.6821 0.0000
# 6 0.0000 0.0000 0.0000 0.0000 0.0000 30.7945
#
#
#
# Elastic Compliance Matrix: (Units=1/GPa)
#
#
# Indices 1 2 3 4 5 6 
#
# 1 0.050342 -0.006310 -0.021141 0.000000 0.000000 0.000000
# 2 -0.006310 0.012828 -0.002286 0.000000 0.000000 0.000000
# 3 -0.021141 -0.002286 0.020564 0.000000 0.000000 0.000000
# 4 0.000000 0.000000 0.000000 0.051127 0.000000 0.000000
# 5 0.000000 0.000000 0.000000 0.000000 0.050808 0.000000
# 6 0.000000 0.000000 0.000000 0.000000 0.000000 0.032473
#
#
# Mechanical properties :
#
#
# Convention : Reuss Voigt Hill
#
# Bulk Modulus (GPa) = 41.21692 54.59642 47.90667
# Shear Modulus (GPa) = 17.50076 22.44046 19.97061
#
# Velocity S-wave (km/s) = 2.97805 3.37224 3.18126
# Velocity P-wave (km/s) = 5.71947 6.54448 6.14583
#
# Compressibility (1/GPa) = 0.02426188
#
# Stress axis : x y z
#
# Youngs Moduli (GPa) = 19.86424 77.95166 48.62850
#
# Poissons Ratio (x) = 0.49186 1.02804
# Poissons Ratio (y) = 0.12534 0.11115
# Poissons Ratio (z) = 0.41994 0.17817
#
# Static dielectric constant tensor:
#      x y z
#    x 1.782600 0.000000 0.000000 
#    y 0.000000 1.955140 0.000000 
#    z 0.000000 0.000000 1.693000 
# 
# From -- ./inp_files/65084.got.cif
#   From: 2010.05.17/outbox.cif.g08.bks.cpg/sg66_33_cif.got.tgz:65084.got - 2010.06.03 17:51:23.
