data_PCOD9497601
_publ_section_title
;
Structure prediction by ZEFSAII (Michael W. Deem and Ramdas Pophale) SiO2 
 PCOD9497601
Probable space group: C C C M
;
_chemical_formula_sum "Si O2"
_cell_formula_units_Z 104
_cell_length_a 8.302072
_cell_length_b 24.771210
_cell_length_c 25.678518
_cell_angle_alpha 90.000000
_cell_angle_beta 90.000000
_cell_angle_gamma 90.000000
_cell_volume 5280.848058
_symmetry_space_group_name_H-M "C C C M"
_symmetry_group_IT_number 66
_symmetry_cell_setting 'orthorhombic'
loop_
_space_group_symop_operation_xyz
x,y,z
-x,-y,z
x,-y,1/2-z
-x,y,1/2-z
-x,-y,-z
x,y,-z
-x,y,1/2+z
x,-y,1/2+z
1/2+x,1/2+y,z
1/2-x,1/2-y,z
1/2+x,1/2-y,1/2-z
1/2-x,1/2+y,1/2-z
1/2-x,1/2-y,-z
1/2+x,1/2+y,-z
1/2-x,1/2+y,1/2+z
1/2+x,1/2-y,1/2+z
loop_
_atom_site_type_symbol
_atom_site_label
_atom_site_fract_x
_atom_site_fract_y
_atom_site_fract_z
Si Si1 0.831757 0.521004 0.690728
Si Si2 0.762956 0.638815 0.306908
Si Si3 0.500000 0.500000 0.124596
Si Si4 0.440204 0.733625 0.057626
Si Si5 0.833594 0.165384 0.303444
Si Si6 0.487290 0.772274 0.669091
Si Si7 0.503356 0.380862 0.895119
O O1 0.813524 0.500000 0.750000
O O2 0.867023 0.584962 0.694195
O O3 0.664373 0.506835 0.659988
O O4 0.000000 0.500000 0.667090
O O5 0.671667 0.637273 0.251960
O O6 0.655324 0.629075 0.357399
O O7 0.857576 0.694469 0.313850
O O8 0.504847 0.555838 0.091408
O O9 0.250000 0.750000 0.060843
O O10 0.518068 0.763689 0.106920
O O11 0.479159 0.669498 0.065380
O O12 0.495871 0.749900 0.000000
O O13 0.663786 0.194578 0.310705
O O14 0.967488 0.212593 0.307875
O O15 0.858902 0.128711 0.353963
#
# Coordination Sequence:
#
# PCOD9497601 Si02
#       7
#    16  16   8  16  16  16  16
#     4  10  22  34  54  80 110 162 205 236 275 335
#     4  11  21  35  53  79 119 152 197 227 270 341
#     4  10  21  38  55  80 118 150 192 252 286 338
#     4  10  20  39  62  82 107 142 188 243 295 351
#     4  10  22  33  51  81 115 157 174 228 276 334
#     4  10  22  35  51  82 111 144 190 228 279 346
#     4  10  21  37  57  82 111 149 194 229 288 340
#
# _framework density 19.693807
#
# number of rings (size 3 to 8) (size 9 to 14) (size 15 to 20)
#    0.000    1.846    1.538    2.077    6.462   11.077 
#    0.000    6.538    0.000    0.000    0.000    0.000 
#    0.000    6.769    0.000    0.000    0.000    0.000 
#
# Total GULP energy -289795.803192 kJ/mol
# GULP energy per Si atom -5572.996215 kJ/mol
# Density = 1.964898 g / cm^3
# Si number density = 19.693807 Si / 1000 Ang^3
#
#
#
# Elastic Constant Matrix: (Units=GPa)
#
#
# Indices 1 2 3 4 5 6 
#
# 1 66.5925 19.2898 2.4111 0.0000 0.0000 0.0000
# 2 19.2898 108.2432 4.0548 0.0000 0.0000 0.0000
# 3 2.4111 4.0548 83.8481 0.0000 0.0000 0.0000
# 4 0.0000 0.0000 0.0000 14.4207 0.0000 0.0000
# 5 0.0000 0.0000 0.0000 0.0000 9.2431 0.0000
# 6 0.0000 0.0000 0.0000 0.0000 0.0000 30.3186
#
#
#
# Elastic Compliance Matrix: (Units=1/GPa)
#
#
# Indices 1 2 3 4 5 6 
#
# 1 0.015843 -0.002811 -0.000320 0.000000 0.000000 0.000000
# 2 -0.002811 0.009754 -0.000391 0.000000 0.000000 0.000000
# 3 -0.000320 -0.000391 0.011954 0.000000 0.000000 0.000000
# 4 0.000000 0.000000 0.000000 0.069345 0.000000 0.000000
# 5 0.000000 0.000000 0.000000 0.000000 0.108189 0.000000
# 6 0.000000 0.000000 0.000000 0.000000 0.000000 0.032983
#
#
# Mechanical properties :
#
#
# Convention : Reuss Voigt Hill
#
# Bulk Modulus (GPa) = 32.77873 34.46613 33.62243
# Shear Modulus (GPa) = 18.84793 26.32500 22.58646
#
# Velocity S-wave (km/s) = 3.09698 3.66008 3.39024
# Velocity P-wave (km/s) = 5.42850 5.94984 5.69514
#
# Compressibility (1/GPa) = 0.03050759
#
# Stress axis : x y z
#
# Youngs Moduli (GPa) = 63.12081 102.52102 83.65106
#
# Poissons Ratio (x) = 0.28822 0.02674
# Poissons Ratio (y) = 0.17745 0.03270
# Poissons Ratio (z) = 0.02017 0.04007
#
# Static dielectric constant tensor:
#      x y z
#    x 1.781530 0.000000 0.000000 
#    y 0.000000 1.743520 0.000000 
#    z 0.000000 0.000000 1.648880 
# 
# From -- ./inp_files/55852.got.cif
#   From: 2010.05.17/outbox.cif.g08.bks.cpg/sg66_28_cif.got.tgz:55852.got - 2010.06.03 17:51:23.
