data_PCOD9497645
_publ_section_title
;
Structure prediction by ZEFSAII (Michael W. Deem and Ramdas Pophale) SiO2 
 PCOD9497645
Probable space group: C C C M
;
_chemical_formula_sum "Si O2"
_cell_formula_units_Z 56
_cell_length_a 27.587233
_cell_length_b 10.899562
_cell_length_c 9.658550
_cell_angle_alpha 90.000000
_cell_angle_beta 90.000000
_cell_angle_gamma 90.000000
_cell_volume 2904.217389
_symmetry_space_group_name_H-M "C C C M"
_symmetry_group_IT_number 66
_symmetry_cell_setting 'orthorhombic'
loop_
_space_group_symop_operation_xyz
x,y,z
-x,-y,z
x,-y,1/2-z
-x,y,1/2-z
-x,-y,-z
x,y,-z
-x,y,1/2+z
x,-y,1/2+z
1/2+x,1/2+y,z
1/2-x,1/2-y,z
1/2+x,1/2-y,1/2-z
1/2-x,1/2+y,1/2-z
1/2-x,1/2-y,-z
1/2+x,1/2+y,-z
1/2-x,1/2+y,1/2+z
1/2+x,1/2-y,1/2+z
loop_
_atom_site_type_symbol
_atom_site_label
_atom_site_fract_x
_atom_site_fract_y
_atom_site_fract_z
Si Si1 0.217344 0.624344 0.500000
Si Si2 0.953514 0.371958 0.666857
Si Si3 0.691601 0.722583 0.500000
Si Si4 0.849310 0.266500 0.292492
Si Si5 0.681584 0.445378 0.500000
O O1 0.250000 0.750000 0.500000
O O2 0.181817 0.630751 0.372277
O O3 0.260280 0.530521 0.500000
O O4 0.944676 0.500000 0.750000
O O5 0.961709 0.388469 0.500000
O O6 0.905688 0.290640 0.685584
O O7 0.000000 0.319472 0.750000
O O8 0.750000 0.750000 0.500000
O O9 0.669125 0.775992 0.361551
O O10 0.667062 0.585461 0.500000
O O11 0.834386 0.137634 0.368310
#
# Coordination Sequence:
#
# PCOD9497645 Si02
#       5
#     8  16   8  16   8
#     4   8  16  36  59  75 115 164 190 234 310 357
#     4  11  23  40  65  93 123 155 199 255 321 374
#     4  12  24  34  58  96 119 155 220 254 294 363
#     4  10  21  38  60  85 122 163 200 248 310 366
#     4  10  20  40  59  78 124 171 196 249 307 360
#
# _framework density 19.282302999999999
#
# number of rings (size 3 to 8) (size 9 to 14) (size 15 to 20)
#    0.000    2.000    2.857    5.143    4.000    2.286 
#    0.000    0.000    0.000    5.143    0.000    0.000 
#    0.000    0.000    0.000    0.000    0.000    0.000 
#
# Total GULP energy -155869.813824 kJ/mol
# GULP energy per Si atom -5566.779065 kJ/mol
# Density = 1.923842 g / cm^3
# Si number density = 19.282303 Si / 1000 Ang^3
#
#
#
# Elastic Constant Matrix: (Units=GPa)
#
#
# Indices 1 2 3 4 5 6 
#
# 1 168.6382 29.9658 76.4928 0.0000 0.0000 0.0000
# 2 29.9658 40.1934 27.1950 0.0000 0.0000 0.0000
# 3 76.4928 27.1950 221.7733 0.0000 0.0000 0.0000
# 4 0.0000 0.0000 0.0000 -3.9906 0.0000 0.0000
# 5 0.0000 0.0000 0.0000 0.0000 38.8011 0.0000
# 6 0.0000 0.0000 0.0000 0.0000 0.0000 17.7525
#
#
#
# Elastic Compliance Matrix: (Units=1/GPa)
#
#
# Indices 1 2 3 4 5 6 
#
# 1 0.007648 -0.004271 -0.002114 0.000000 0.000000 0.000000
# 2 -0.004271 0.029516 -0.002146 0.000000 0.000000 0.000000
# 3 -0.002114 -0.002146 0.005501 0.000000 0.000000 0.000000
# 4 0.000000 0.000000 0.000000 -0.250589 0.000000 0.000000
# 5 0.000000 0.000000 0.000000 0.000000 0.025772 0.000000
# 6 0.000000 0.000000 0.000000 0.000000 0.000000 0.056330
#
#
# Mechanical properties :
#
#
# Convention : Reuss Voigt Hill
#
# Bulk Modulus (GPa) = 39.05897 77.54577 58.30237
# Shear Modulus (GPa) = -49.88820 30.30936 -9.78942
#
# Velocity S-wave (km/s) = -5.09202 3.96899 -2.25564
# Velocity P-wave (km/s) = 3.77773 7.82989 4.84953
#
# Compressibility (1/GPa) = 0.02560231
#
# Stress axis : x y z
#
# Youngs Moduli (GPa) = 130.75735 33.87966 181.77026
#
# Poissons Ratio (x) = 0.14471 0.38427
# Poissons Ratio (y) = 0.55851 0.39011
# Poissons Ratio (z) = 0.27643 0.07271
#
# Static dielectric constant tensor:
#      x y z
#    x 1.699630 0.000000 0.000000 
#    y 0.000000 1.759920 0.000000 
#    z 0.000000 0.000000 1.646730 
# 
# From -- ./inp_files/8681.got.cif
#   From: 2010.05.17/outbox.cif.g08.bks.cpg/sg66_5_cif.got.tgz:8681.got - 2010.06.03 17:51:23.
