data_PCOD9497513
_publ_section_title
;
Structure prediction by ZEFSAII (Michael W. Deem and Ramdas Pophale) SiO2 
 PCOD9497513
Probable space group: C C C M
;
_chemical_formula_sum "Si O2"
_cell_formula_units_Z 112
_cell_length_a 15.056099
_cell_length_b 24.106931
_cell_length_c 15.084443
_cell_angle_alpha 90.000000
_cell_angle_beta 90.000000
_cell_angle_gamma 90.000000
_cell_volume 5474.994218
_symmetry_space_group_name_H-M "C C C M"
_symmetry_group_IT_number 66
_symmetry_cell_setting 'orthorhombic'
loop_
_space_group_symop_operation_xyz
x,y,z
-x,-y,z
x,-y,1/2-z
-x,y,1/2-z
-x,-y,-z
x,y,-z
-x,y,1/2+z
x,-y,1/2+z
1/2+x,1/2+y,z
1/2-x,1/2-y,z
1/2+x,1/2-y,1/2-z
1/2-x,1/2+y,1/2-z
1/2-x,1/2-y,-z
1/2+x,1/2+y,-z
1/2-x,1/2+y,1/2+z
1/2+x,1/2-y,1/2+z
loop_
_atom_site_type_symbol
_atom_site_label
_atom_site_fract_x
_atom_site_fract_y
_atom_site_fract_z
Si Si1 0.336574 0.286092 0.591972
Si Si2 0.394781 0.933707 0.262586
Si Si3 0.284242 0.404862 0.335932
Si Si4 0.407931 0.240627 0.226267
Si Si5 0.349093 0.472355 0.500000
Si Si6 0.123919 0.862769 0.339151
Si Si7 0.323482 0.148656 0.101915
Si Si8 0.955520 0.920308 0.000000
O O1 0.390315 0.285266 0.500000
O O2 0.250000 0.250000 0.580446
O O3 0.306163 0.348132 0.613262
O O4 0.376204 0.257319 0.676901
O O5 0.500000 0.921984 0.250000
O O6 0.317908 0.907896 0.198174
O O7 0.367163 0.906868 0.356853
O O8 0.384121 0.000000 0.250000
O O9 0.302624 0.452737 0.408493
O O10 0.348836 0.399027 0.248576
O O11 0.500000 0.211798 0.250000
O O12 0.412389 0.301536 0.182790
O O13 0.351230 0.199747 0.165695
O O14 0.372658 0.536878 0.500000
O O15 0.447148 0.445844 0.500000
O O16 0.217712 0.855939 0.388956
O O17 0.055296 0.888890 0.407306
O O18 0.349070 0.157712 0.000000
#
# Coordination Sequence:
#
# PCOD9497513 Si02
#       8
#    16  16  16  16   8  16  16   8
#     4  10  20  38  60  87 120 164 212 261 329 397
#     4  10  23  44  67  94 129 171 216 272 325 395
#     4  10  22  40  66  91 129 171 214 277 330 405
#     4  11  24  38  61  93 130 169 212 277 329 398
#     4  11  26  42  63  98 137 172 230 279 336 393
#     4  10  23  40  66  91 129 176 222 270 339 397
#     4  11  23  42  66  96 130 171 220 271 335 402
#     4  11  26  42  63  97 136 177 225 286 321 404
#
# _framework density 20.456643
#
# number of rings (size 3 to 8) (size 9 to 14) (size 15 to 20)
#    0.000    1.571    1.429    3.429    9.000    1.143 
#    1.286    3.571    0.000    0.000    0.000    0.000 
#    0.000    0.000    0.000    0.000    0.000    0.000 
#
# Total GULP energy -312158.437143 kJ/mol
# GULP energy per Si atom -5574.257806 kJ/mol
# Density = 2.041008 g / cm^3
# Si number density = 20.456643 Si / 1000 Ang^3
#
#
#
# Elastic Constant Matrix: (Units=GPa)
#
#
# Indices 1 2 3 4 5 6 
#
# 1 53.9874 3.3066 17.9483 0.0000 0.0000 0.0000
# 2 3.3066 70.2444 50.6173 0.0000 0.0000 0.0000
# 3 17.9483 50.6173 147.9039 0.0000 0.0000 0.0000
# 4 0.0000 0.0000 0.0000 19.6652 0.0000 0.0000
# 5 0.0000 0.0000 0.0000 0.0000 24.0829 0.0000
# 6 0.0000 0.0000 0.0000 0.0000 0.0000 37.6412
#
#
#
# Elastic Compliance Matrix: (Units=1/GPa)
#
#
# Indices 1 2 3 4 5 6 
#
# 1 0.019358 0.001037 -0.002704 0.000000 0.000000 0.000000
# 2 0.001037 0.018951 -0.006612 0.000000 0.000000 0.000000
# 3 -0.002704 -0.006612 0.009352 0.000000 0.000000 0.000000
# 4 0.000000 0.000000 0.000000 0.050851 0.000000 0.000000
# 5 0.000000 0.000000 0.000000 0.000000 0.041523 0.000000
# 6 0.000000 0.000000 0.000000 0.000000 0.000000 0.026567
#
#
# Mechanical properties :
#
#
# Convention : Reuss Voigt Hill
#
# Bulk Modulus (GPa) = 32.14935 46.20890 39.17913
# Shear Modulus (GPa) = 25.83603 29.62875 27.73239
#
# Velocity S-wave (km/s) = 3.55768 3.80987 3.68593
# Velocity P-wave (km/s) = 5.71192 6.48006 6.10808
#
# Compressibility (1/GPa) = 0.03110483
#
# Stress axis : x y z
#
# Youngs Moduli (GPa) = 51.65741 52.76635 106.92879
#
# Poissons Ratio (x) = -0.05474 0.28915
# Poissons Ratio (y) = -0.05359 0.70698
# Poissons Ratio (z) = 0.13969 0.34887
#
# Static dielectric constant tensor:
#      x y z
#    x 1.717760 0.000000 0.000000 
#    y 0.000000 1.745740 0.000000 
#    z 0.000000 0.000000 1.833480 
# 
# From -- ./inp_files/28921.got.cif
#   From: 2010.05.17/outbox.cif.g08.bks.cpg/sg66_15_cif.got.tgz:28921.got - 2010.06.03 17:51:23.
