data_PCOD9497965
_publ_section_title
;
Structure prediction by ZEFSAII (Michael W. Deem and Ramdas Pophale) SiO2 
 PCOD9497965
Probable space group: C C C M
;
_chemical_formula_sum "Si O2"
_cell_formula_units_Z 88
_cell_length_a 24.773953
_cell_length_b 21.012374
_cell_length_c 7.828588
_cell_angle_alpha 90.000000
_cell_angle_beta 90.000000
_cell_angle_gamma 90.000000
_cell_volume 4075.246371
_symmetry_space_group_name_H-M "C C C M"
_symmetry_group_IT_number 66
_symmetry_cell_setting 'orthorhombic'
loop_
_space_group_symop_operation_xyz
x,y,z
-x,-y,z
x,-y,1/2-z
-x,y,1/2-z
-x,-y,-z
x,y,-z
-x,y,1/2+z
x,-y,1/2+z
1/2+x,1/2+y,z
1/2-x,1/2-y,z
1/2+x,1/2-y,1/2-z
1/2-x,1/2+y,1/2-z
1/2-x,1/2-y,-z
1/2+x,1/2+y,-z
1/2-x,1/2+y,1/2+z
1/2+x,1/2-y,1/2+z
loop_
_atom_site_type_symbol
_atom_site_label
_atom_site_fract_x
_atom_site_fract_y
_atom_site_fract_z
Si Si1 0.152328 0.786235 0.294226
Si Si2 0.164521 0.359282 0.207715
Si Si3 0.941991 0.426170 0.701796
Si Si4 0.279605 0.597066 0.195701
Si Si5 0.137406 0.000000 0.750000
Si Si6 0.436978 0.612971 0.705511
O O1 0.156793 0.786397 0.500000
O O2 0.161611 0.714267 0.236506
O O3 0.197924 0.832162 0.221023
O O4 0.095609 0.821840 0.253878
O O5 0.110053 0.391661 0.273812
O O6 0.216662 0.398572 0.266007
O O7 0.165807 0.359264 0.000000
O O8 0.941289 0.500000 0.750000
O O9 0.938123 0.422163 0.500000
O O10 0.000000 0.398341 0.750000
O O11 0.316908 0.551467 0.311217
O O12 0.289512 0.576780 0.000000
O O13 0.093712 0.054856 0.698974
O O14 0.500000 0.616236 0.750000
O O15 0.431346 0.600823 0.500000
#
# Coordination Sequence:
#
# PCOD9497965 Si02
#       6
#    16  16  16  16   8  16
#     4   9  20  40  59  79 115 158 191 228 287 351
#     4  10  22  39  60  84 114 154 192 228 285 354
#     4  10  21  38  59  83 112 146 185 231 285 341
#     4  11  23  37  58  87 116 148 194 245 286 331
#     4  10  23  40  56  80 119 160 192 232 292 352
#     4  10  21  37  59  84 113 151 194 237 284 340
#
# _framework density 21.593786000000001
#
# number of rings (size 3 to 8) (size 9 to 14) (size 15 to 20)
#    0.000    2.000    0.000    3.000    1.273   11.636 
#    0.000    0.000    0.000    0.000    0.000    0.000 
#    0.000    0.000    0.000    0.000    0.000    0.000 
#
# Total GULP energy -245103.137178 kJ/mol
# GULP energy per Si atom -5570.525845 kJ/mol
# Density = 2.154464 g / cm^3
# Si number density = 21.593786 Si / 1000 Ang^3
#
#
#
# Elastic Constant Matrix: (Units=GPa)
#
#
# Indices 1 2 3 4 5 6 
#
# 1 182.8407 27.0007 17.0588 0.0000 0.0000 0.0000
# 2 27.0007 41.1038 9.2499 0.0000 0.0000 0.0000
# 3 17.0588 9.2499 61.0505 0.0000 0.0000 0.0000
# 4 0.0000 0.0000 0.0000 25.0499 0.0000 0.0000
# 5 0.0000 0.0000 0.0000 0.0000 21.8432 0.0000
# 6 0.0000 0.0000 0.0000 0.0000 0.0000 19.7142
#
#
#
# Elastic Compliance Matrix: (Units=1/GPa)
#
#
# Indices 1 2 3 4 5 6 
#
# 1 0.006133 -0.003772 -0.001142 0.000000 0.000000 0.000000
# 2 -0.003772 0.027507 -0.003114 0.000000 0.000000 0.000000
# 3 -0.001142 -0.003114 0.017171 0.000000 0.000000 0.000000
# 4 0.000000 0.000000 0.000000 0.039920 0.000000 0.000000
# 5 0.000000 0.000000 0.000000 0.000000 0.045781 0.000000
# 6 0.000000 0.000000 0.000000 0.000000 0.000000 0.050725
#
#
# Mechanical properties :
#
#
# Convention : Reuss Voigt Hill
#
# Bulk Modulus (GPa) = 28.77245 43.51263 36.14254
# Shear Modulus (GPa) = 23.26920 28.76718 26.01819
#
# Velocity S-wave (km/s) = 3.28622 3.65389 3.47492
# Velocity P-wave (km/s) = 5.26805 6.16405 5.73358
#
# Compressibility (1/GPa) = 0.03475546
#
# Stress axis : x y z
#
# Youngs Moduli (GPa) = 163.05874 36.35460 58.23833
#
# Poissons Ratio (x) = 0.13711 0.06652
# Poissons Ratio (y) = 0.61498 0.18134
# Poissons Ratio (z) = 0.18625 0.11320
#
# Static dielectric constant tensor:
#      x y z
#    x 1.780840 0.000000 0.000000 
#    y 0.000000 1.749880 0.000000 
#    z 0.000000 0.000000 1.880700 
# 
# From -- ./inp_files/9004.got.cif
#   From: 2010.05.17/outbox.cif.g08.bks.cpg/sg66_5_cif.got.tgz:9004.got - 2010.06.03 17:51:23.
