data_PCOD9497317
_publ_section_title
;
Structure prediction by ZEFSAII (Michael W. Deem and Ramdas Pophale) SiO2 
 PCOD9497317
Probable space group: C C C M
;
_chemical_formula_sum "Si O2"
_cell_formula_units_Z 96
_cell_length_a 28.475098
_cell_length_b 11.791993
_cell_length_c 14.121138
_cell_angle_alpha 90.000000
_cell_angle_beta 90.000000
_cell_angle_gamma 90.000000
_cell_volume 4741.569682
_symmetry_space_group_name_H-M "C C C M"
_symmetry_group_IT_number 66
_symmetry_cell_setting 'orthorhombic'
loop_
_space_group_symop_operation_xyz
x,y,z
-x,-y,z
x,-y,1/2-z
-x,y,1/2-z
-x,-y,-z
x,y,-z
-x,y,1/2+z
x,-y,1/2+z
1/2+x,1/2+y,z
1/2-x,1/2-y,z
1/2+x,1/2-y,1/2-z
1/2-x,1/2+y,1/2-z
1/2-x,1/2-y,-z
1/2+x,1/2+y,-z
1/2-x,1/2+y,1/2+z
1/2+x,1/2-y,1/2+z
loop_
_atom_site_type_symbol
_atom_site_label
_atom_site_fract_x
_atom_site_fract_y
_atom_site_fract_z
Si Si1 0.805315 0.487211 0.861808
Si Si2 0.632754 0.634844 0.000000
Si Si3 0.795280 0.105290 0.174672
Si Si4 0.591255 0.025456 0.138706
Si Si5 0.866937 0.879936 0.500000
Si Si6 0.049706 0.302127 0.500000
Si Si7 0.440954 0.169221 0.000000
Si Si8 0.697251 0.247423 0.643737
O O1 0.803268 0.500000 0.750000
O O2 0.754998 0.425821 0.878398
O O3 0.855339 0.434800 0.888079
O O4 0.814844 0.619403 0.886300
O O5 0.591448 0.722777 0.000000
O O6 0.665059 0.663486 0.090243
O O7 0.615065 0.508542 0.000000
O O8 0.799125 0.785699 0.254154
O O9 0.802016 0.000000 0.250000
O O10 0.833567 0.125630 0.093211
O O11 0.589748 0.000000 0.250000
O O12 0.573406 0.911382 0.087708
O O13 0.559487 0.122814 0.093941
O O14 0.911534 0.796972 0.500000
O O15 0.994015 0.286576 0.500000
O O16 0.750000 0.250000 0.608888
#
# Coordination Sequence:
#
# PCOD9497317 Si02
#       8
#    16   8  16  16   8   8   8  16
#     4  10  20  36  63  96 130 168 212 251 320 386
#     4  12  24  40  65  95 118 182 227 265 319 392
#     4  11  23  40  61  90 137 172 211 260 318 379
#     4  10  22  43  70  99 131 163 208 266 340 403
#     4  12  27  43  62  94 130 179 225 259 328 397
#     4  11  28  44  65  99 129 163 216 287 344 381
#     4  11  24  45  68  96 125 161 222 287 334 383
#     4  12  21  38  62  91 132 173 214 262 310 387
#
# _framework density 20.246461
#
# number of rings (size 3 to 8) (size 9 to 14) (size 15 to 20)
#    0.000    1.000    6.667    1.250    4.667    3.667 
#    0.000    1.250    0.000    0.000    0.000    0.000 
#    0.000    0.000    0.000    0.000    0.000    0.000 
#
# Total GULP energy -267352.837290 kJ/mol
# GULP energy per Si atom -5569.850777 kJ/mol
# Density = 2.020038 g / cm^3
# Si number density = 20.246461 Si / 1000 Ang^3
#
#
#
# Elastic Constant Matrix: (Units=GPa)
#
#
# Indices 1 2 3 4 5 6 
#
# 1 149.6411 48.6793 51.4036 0.0000 0.0000 0.0000
# 2 48.6793 89.3951 41.1346 0.0000 0.0000 0.0000
# 3 51.4036 41.1346 132.2290 0.0000 0.0000 0.0000
# 4 0.0000 0.0000 0.0000 -0.8679 0.0000 0.0000
# 5 0.0000 0.0000 0.0000 0.0000 -171.4521 0.0000
# 6 0.0000 0.0000 0.0000 0.0000 0.0000 25.3818
#
#
#
# Elastic Compliance Matrix: (Units=1/GPa)
#
#
# Indices 1 2 3 4 5 6 
#
# 1 0.008642 -0.003688 -0.002212 0.000000 0.000000 0.000000
# 2 -0.003688 0.014629 -0.003117 0.000000 0.000000 0.000000
# 3 -0.002212 -0.003117 0.009392 0.000000 0.000000 0.000000
# 4 0.000000 0.000000 0.000000 -1.152208 0.000000 0.000000
# 5 0.000000 0.000000 0.000000 0.000000 -0.005833 0.000000
# 6 0.000000 0.000000 0.000000 0.000000 0.000000 0.039398
#
#
# Mechanical properties :
#
#
# Convention : Reuss Voigt Hill
#
# Bulk Modulus (GPa) = 68.35978 72.63339 70.49659
# Shear Modulus (GPa) = -4.70337 -14.05112 -9.37725
#
# Velocity S-wave (km/s) = -1.52581 -2.63725 -2.15444
# Velocity P-wave (km/s) = 5.54373 5.16517 5.35780
#
# Compressibility (1/GPa) = 0.01462848
#
# Stress axis : x y z
#
# Youngs Moduli (GPa) = 115.70839 68.35758 106.46920
#
# Poissons Ratio (x) = 0.25211 0.23555
# Poissons Ratio (y) = 0.42675 0.33188
# Poissons Ratio (z) = 0.25599 0.21308
#
# Static dielectric constant tensor:
#      x y z
#    x 1.828980 0.000000 0.000000 
#    y 0.000000 2.165880 0.000000 
#    z 0.000000 0.000000 1.792960 
# 
# From -- ./inp_files/33774.got.cif
#   From: 2010.05.17/outbox.cif.g08.bks.cpg/sg66_17_cif.got.tgz:33774.got - 2010.06.03 17:51:23.
