data_PCOD9497652
_publ_section_title
;
Structure prediction by ZEFSAII (Michael W. Deem and Ramdas Pophale) SiO2 
 PCOD9497652
Probable space group: C C C M
;
_chemical_formula_sum "Si O2"
_cell_formula_units_Z 112
_cell_length_a 12.142219
_cell_length_b 16.778609
_cell_length_c 29.023050
_cell_angle_alpha 90.000000
_cell_angle_beta 90.000000
_cell_angle_gamma 90.000000
_cell_volume 5912.852771
_symmetry_space_group_name_H-M "C C C M"
_symmetry_group_IT_number 66
_symmetry_cell_setting 'orthorhombic'
loop_
_space_group_symop_operation_xyz
x,y,z
-x,-y,z
x,-y,1/2-z
-x,y,1/2-z
-x,-y,-z
x,y,-z
-x,y,1/2+z
x,-y,1/2+z
1/2+x,1/2+y,z
1/2-x,1/2-y,z
1/2+x,1/2-y,1/2-z
1/2-x,1/2+y,1/2-z
1/2-x,1/2-y,-z
1/2+x,1/2+y,-z
1/2-x,1/2+y,1/2+z
1/2+x,1/2-y,1/2+z
loop_
_atom_site_type_symbol
_atom_site_label
_atom_site_fract_x
_atom_site_fract_y
_atom_site_fract_z
Si Si1 0.167310 0.504526 0.389837
Si Si2 0.908670 0.064594 0.108052
Si Si3 0.730297 0.055273 0.294614
Si Si4 0.123799 0.227350 0.444946
Si Si5 0.004528 0.366807 0.102573
Si Si6 0.034916 0.119274 0.197192
Si Si7 0.434855 0.807290 0.297396
O O1 0.291189 0.477875 0.398400
O O2 0.161125 0.512834 0.334523
O O3 0.086416 0.434833 0.405079
O O4 0.120918 0.589209 0.408156
O O5 0.906457 0.142639 0.076592
O O6 0.942572 0.096163 0.159615
O O7 0.000000 0.000000 0.095236
O O8 0.855237 0.068310 0.311010
O O9 0.677446 0.143170 0.289650
O O10 0.727323 0.000000 0.250000
O O11 0.121584 0.225291 0.500000
O O12 0.250000 0.250000 0.430610
O O13 0.036275 0.291719 0.426263
O O14 0.009493 0.342054 0.156384
O O15 0.068119 0.212388 0.194417
O O16 0.000000 0.104270 0.250000
O O17 0.500000 0.820244 0.250000
#
# Coordination Sequence:
#
# PCOD9497652 Si02
#       7
#    16  16  16  16  16  16  16
#     4  10  21  35  61  93 126 167 212 258 325 379
#     4  12  23  41  65  97 130 171 209 264 325 386
#     4  11  21  35  53  82 126 171 214 262 311 376
#     4  11  24  45  72  97 126 165 216 274 337 401
#     4  10  20  40  62  92 127 164 212 270 319 384
#     4  11  23  35  55  86 126 168 216 259 308 378
#     4  10  21  36  55  86 120 169 214 262 316 371
#
# _framework density 18.941786
#
# number of rings (size 3 to 8) (size 9 to 14) (size 15 to 20)
#    0.000    1.286    4.286    2.143    0.000    1.714 
#    0.000    4.286    0.000    0.857    0.000    0.000 
#    0.000    0.000    0.000    0.000    0.000    0.000 
#
# Total GULP energy -312401.505383 kJ/mol
# GULP energy per Si atom -5578.598310 kJ/mol
# Density = 1.889867 g / cm^3
# Si number density = 18.941786 Si / 1000 Ang^3
#
#
#
# Elastic Constant Matrix: (Units=GPa)
#
#
# Indices 1 2 3 4 5 6 
#
# 1 108.0904 66.7135 35.0674 0.0000 0.0000 0.0000
# 2 66.7135 149.2396 45.1501 0.0000 0.0000 0.0000
# 3 35.0674 45.1501 65.7988 0.0000 0.0000 0.0000
# 4 0.0000 0.0000 0.0000 1.5843 0.0000 0.0000
# 5 0.0000 0.0000 0.0000 0.0000 18.9728 0.0000
# 6 0.0000 0.0000 0.0000 0.0000 0.0000 33.3752
#
#
#
# Elastic Compliance Matrix: (Units=1/GPa)
#
#
# Indices 1 2 3 4 5 6 
#
# 1 0.013510 -0.004873 -0.003857 0.000000 0.000000 0.000000
# 2 -0.004873 0.010213 -0.004411 0.000000 0.000000 0.000000
# 3 -0.003857 -0.004411 0.020280 0.000000 0.000000 0.000000
# 4 0.000000 0.000000 0.000000 0.631187 0.000000 0.000000
# 5 0.000000 0.000000 0.000000 0.000000 0.052707 0.000000
# 6 0.000000 0.000000 0.000000 0.000000 0.000000 0.029962
#
#
# Mechanical properties :
#
#
# Convention : Reuss Voigt Hill
#
# Bulk Modulus (GPa) = 56.42582 68.55455 62.49018
# Shear Modulus (GPa) = 6.32872 22.53297 14.43084
#
# Velocity S-wave (km/s) = 1.82986 3.45279 2.76316
# Velocity P-wave (km/s) = 5.85818 7.22263 6.57589
#
# Compressibility (1/GPa) = 0.01772238
#
# Stress axis : x y z
#
# Youngs Moduli (GPa) = 74.01881 97.91083 49.30883
#
# Poissons Ratio (x) = 0.47707 0.19017
# Poissons Ratio (y) = 0.36066 0.21752
# Poissons Ratio (z) = 0.28547 0.43193
#
# Static dielectric constant tensor:
#      x y z
#    x 1.676440 0.000000 0.000000 
#    y 0.000000 1.671850 0.000000 
#    z 0.000000 0.000000 1.634050 
# 
# From -- ./inp_files/69074.got.cif
#   From: 2010.05.17/outbox.cif.g08.bks.cpg/sg66_35_cif.got.tgz:69074.got - 2010.06.03 17:51:23.
