data_PCOD9497861
_publ_section_title
;
Structure prediction by ZEFSAII (Michael W. Deem and Ramdas Pophale) SiO2 
 PCOD9497861
Probable space group: C C C M
;
_chemical_formula_sum "Si O2"
_cell_formula_units_Z 128
_cell_length_a 16.749226
_cell_length_b 23.387710
_cell_length_c 17.946304
_cell_angle_alpha 90.000000
_cell_angle_beta 90.000000
_cell_angle_gamma 90.000000
_cell_volume 7030.034606
_symmetry_space_group_name_H-M "C C C M"
_symmetry_group_IT_number 66
_symmetry_cell_setting 'orthorhombic'
loop_
_space_group_symop_operation_xyz
x,y,z
-x,-y,z
x,-y,1/2-z
-x,y,1/2-z
-x,-y,-z
x,y,-z
-x,y,1/2+z
x,-y,1/2+z
1/2+x,1/2+y,z
1/2-x,1/2-y,z
1/2+x,1/2-y,1/2-z
1/2-x,1/2+y,1/2-z
1/2-x,1/2-y,-z
1/2+x,1/2+y,-z
1/2-x,1/2+y,1/2+z
1/2+x,1/2-y,1/2+z
loop_
_atom_site_type_symbol
_atom_site_label
_atom_site_fract_x
_atom_site_fract_y
_atom_site_fract_z
Si Si1 0.908320 0.823841 0.224059
Si Si2 0.728078 0.070406 0.914232
Si Si3 0.314748 0.798081 0.085046
Si Si4 0.407403 0.799718 0.226400
Si Si5 0.700112 0.308904 0.587845
Si Si6 0.091306 0.503536 0.340599
Si Si7 0.672137 0.559387 0.724357
Si Si8 0.188738 0.607932 0.323231
O O1 0.875735 0.763557 0.254210
O O2 0.879700 0.818372 0.137920
O O3 0.873683 0.881861 0.258995
O O4 0.000000 0.823156 0.250000
O O5 0.724292 0.139186 0.912181
O O6 0.800740 0.053201 0.860809
O O7 0.648118 0.043588 0.878022
O O8 0.735554 0.052121 0.000000
O O9 0.250000 0.750000 0.108089
O O10 0.390524 0.803069 0.138870
O O11 0.337530 0.785166 0.000000
O O12 0.500000 0.805468 0.250000
O O13 0.355798 0.847068 0.269568
O O14 0.683565 0.311849 0.500000
O O15 0.750000 0.250000 0.601850
O O16 0.759134 0.358241 0.617002
O O17 0.092691 0.500000 0.250000
O O18 0.126269 0.565432 0.360021
O O19 0.000000 0.500000 0.364487
O O20 0.632826 0.500000 0.750000
O O21 0.752270 0.568921 0.773506
#
# Coordination Sequence:
#
# PCOD9497861 Si02
#       8
#    16  16  16  16  16  16  16  16
#     4  10  23  41  62  91 118 152 198 245 296 354
#     4  11  21  36  54  81 117 151 196 245 290 345
#     4  10  21  36  57  83 113 150 190 243 296 341
#     4  11  22  35  59  90 116 154 197 239 291 353
#     4  10  21  39  63  92 122 155 196 248 302 350
#     4  11  22  36  56  80 118 162 197 239 287 351
#     4  11  20  38  61  85 111 152 200 245 290 350
#     4  11  20  35  60  87 114 157 205 238 283 351
#
# _framework density 18.207592000000002
#
# number of rings (size 3 to 8) (size 9 to 14) (size 15 to 20)
#    0.000    1.375    5.000    0.750    5.250    1.000 
#    0.000    3.750    0.000    0.000    0.000    2.625 
#    0.000    0.000    0.000    0.000    0.000    0.000 
#
# Total GULP energy -356773.423328 kJ/mol
# GULP energy per Si atom -5574.584740 kJ/mol
# Density = 1.816615 g / cm^3
# Si number density = 18.207592 Si / 1000 Ang^3
#
#
#
# Elastic Constant Matrix: (Units=GPa)
#
#
# Indices 1 2 3 4 5 6 
#
# 1 69.1803 26.2366 46.7309 0.0000 0.0000 0.0000
# 2 26.2366 104.2799 17.7327 0.0000 0.0000 0.0000
# 3 46.7309 17.7327 114.1632 0.0000 0.0000 0.0000
# 4 0.0000 0.0000 0.0000 16.8286 0.0000 0.0000
# 5 0.0000 0.0000 0.0000 0.0000 15.9251 0.0000
# 6 0.0000 0.0000 0.0000 0.0000 0.0000 25.7264
#
#
#
# Elastic Compliance Matrix: (Units=1/GPa)
#
#
# Indices 1 2 3 4 5 6 
#
# 1 0.021503 -0.004020 -0.008178 0.000000 0.000000 0.000000
# 2 -0.004020 0.010601 -0.000001 0.000000 0.000000 0.000000
# 3 -0.008178 -0.000001 0.012107 0.000000 0.000000 0.000000
# 4 0.000000 0.000000 0.000000 0.059423 0.000000 0.000000
# 5 0.000000 0.000000 0.000000 0.000000 0.062794 0.000000
# 6 0.000000 0.000000 0.000000 0.000000 0.000000 0.038871
#
#
# Mechanical properties :
#
#
# Convention : Reuss Voigt Hill
#
# Bulk Modulus (GPa) = 50.46856 52.11376 51.29116
# Shear Modulus (GPa) = 21.15949 24.82425 22.99187
#
# Velocity S-wave (km/s) = 3.41269 3.69643 3.55739
# Velocity P-wave (km/s) = 6.58082 6.84852 6.71601
#
# Compressibility (1/GPa) = 0.01981432
#
# Stress axis : x y z
#
# Youngs Moduli (GPa) = 46.50426 94.32971 82.59675
#
# Poissons Ratio (x) = 0.37917 0.67545
# Poissons Ratio (y) = 0.18693 0.00011
# Poissons Ratio (z) = 0.38030 0.00012
#
# Static dielectric constant tensor:
#      x y z
#    x 1.634630 0.000000 0.000000 
#    y 0.000000 1.658590 0.000000 
#    z 0.000000 0.000000 1.649980 
# 
# From -- ./inp_files/42180.got.cif
#   From: 2010.05.17/outbox.cif.g08.bks.cpg/sg66_22_cif.got.tgz:42180.got - 2010.06.03 17:51:23.
