data_PCOD9497108
_publ_section_title
;
Structure prediction by ZEFSAII (Michael W. Deem and Ramdas Pophale) SiO2 
 PCOD9497108
Probable space group: C C C M
;
_chemical_formula_sum "Si O2"
_cell_formula_units_Z 104
_cell_length_a 10.945504
_cell_length_b 30.580988
_cell_length_c 15.493437
_cell_angle_alpha 90.000000
_cell_angle_beta 90.000000
_cell_angle_gamma 90.000000
_cell_volume 5186.030265
_symmetry_space_group_name_H-M "C C C M"
_symmetry_group_IT_number 66
_symmetry_cell_setting 'orthorhombic'
loop_
_space_group_symop_operation_xyz
x,y,z
-x,-y,z
x,-y,1/2-z
-x,y,1/2-z
-x,-y,-z
x,y,-z
-x,y,1/2+z
x,-y,1/2+z
1/2+x,1/2+y,z
1/2-x,1/2-y,z
1/2+x,1/2-y,1/2-z
1/2-x,1/2+y,1/2-z
1/2-x,1/2-y,-z
1/2+x,1/2+y,-z
1/2-x,1/2+y,1/2+z
1/2+x,1/2-y,1/2+z
loop_
_atom_site_type_symbol
_atom_site_label
_atom_site_fract_x
_atom_site_fract_y
_atom_site_fract_z
Si Si1 0.113276 0.969151 0.395934
Si Si2 0.162185 0.820134 0.093600
Si Si3 0.363480 0.988740 0.895770
Si Si4 0.000000 0.657279 0.250000
Si Si5 0.564530 0.629953 0.157478
Si Si6 0.615249 0.110978 0.902818
Si Si7 0.244116 0.202391 0.224020
O O1 0.114782 0.973682 0.500000
O O2 0.245962 0.985008 0.362598
O O3 0.096976 0.918193 0.374662
O O4 0.000000 0.000000 0.365487
O O5 0.270724 0.855929 0.098042
O O6 0.176717 0.793198 0.182244
O O7 0.035806 0.846258 0.098883
O O8 0.170903 0.797473 0.000000
O O9 0.500000 0.000000 0.863393
O O10 0.340935 0.937504 0.880646
O O11 0.366923 0.995537 0.000000
O O12 0.018586 0.627475 0.166162
O O13 0.119214 0.686475 0.259938
O O14 0.500000 0.624256 0.250000
O O15 0.674431 0.664144 0.172711
O O16 0.564461 0.109837 0.000000
O O17 0.250000 0.250000 0.181697
#
# Coordination Sequence:
#
# PCOD9497108 Si02
#       7
#    16  16  16   8  16  16  16
#     4  10  20  35  59  89 117 155 201 244 300 364
#     4   9  18  36  62  88 113 150 198 247 298 361
#     4   9  18  31  52  80 116 156 192 237 292 348
#     4  10  22  38  63  86 116 158 205 244 304 366
#     4  10  21  36  58  88 121 155 190 248 310 355
#     4   9  18  36  59  84 118 159 202 246 293 360
#     4  10  23  39  62  86 117 158 201 247 307 366
#
# _framework density 20.053875000000001
#
# number of rings (size 3 to 8) (size 9 to 14) (size 15 to 20)
#    0.000    2.462    0.000    1.385    5.385    3.077 
#    0.000    1.154    0.000    2.308    0.000    0.000 
#    0.000    0.000    0.000    0.000    0.000    0.000 
#
# Total GULP energy -290086.203448 kJ/mol
# GULP energy per Si atom -5578.580836 kJ/mol
# Density = 2.000823 g / cm^3
# Si number density = 20.053875 Si / 1000 Ang^3
#
#
#
# Elastic Constant Matrix: (Units=GPa)
#
#
# Indices 1 2 3 4 5 6 
#
# 1 120.3810 53.1726 25.4666 0.0000 0.0000 0.0000
# 2 53.1726 105.4031 15.1657 0.0000 0.0000 0.0000
# 3 25.4666 15.1657 47.6643 0.0000 0.0000 0.0000
# 4 0.0000 0.0000 0.0000 5.6989 0.0000 0.0000
# 5 0.0000 0.0000 0.0000 0.0000 11.9160 0.0000
# 6 0.0000 0.0000 0.0000 0.0000 0.0000 22.4786
#
#
#
# Elastic Compliance Matrix: (Units=1/GPa)
#
#
# Indices 1 2 3 4 5 6 
#
# 1 0.011550 -0.005176 -0.004524 0.000000 0.000000 0.000000
# 2 -0.005176 0.012262 -0.001136 0.000000 0.000000 0.000000
# 3 -0.004524 -0.001136 0.023759 0.000000 0.000000 0.000000
# 4 0.000000 0.000000 0.000000 0.175471 0.000000 0.000000
# 5 0.000000 0.000000 0.000000 0.000000 0.083921 0.000000
# 6 0.000000 0.000000 0.000000 0.000000 0.000000 0.044487
#
#
# Mechanical properties :
#
#
# Convention : Reuss Voigt Hill
#
# Bulk Modulus (GPa) = 38.61221 51.22868 44.92045
# Shear Modulus (GPa) = 13.09740 19.99494 16.54617
#
# Velocity S-wave (km/s) = 2.55838 3.16105 2.87555
# Velocity P-wave (km/s) = 5.29368 6.23891 5.78563
#
# Compressibility (1/GPa) = 0.02589855
#
# Stress axis : x y z
#
# Youngs Moduli (GPa) = 86.57834 81.55373 42.08949
#
# Poissons Ratio (x) = 0.42210 0.19043
# Poissons Ratio (y) = 0.44811 0.04782
# Poissons Ratio (z) = 0.39171 0.09265
#
# Static dielectric constant tensor:
#      x y z
#    x 1.703360 0.000000 0.000000 
#    y 0.000000 1.692360 0.000000 
#    z 0.000000 0.000000 1.753710 
# 
# From -- ./inp_files/39189.got.cif
#   From: 2010.05.17/outbox.cif.g08.bks.cpg/sg66_20_cif.got.tgz:39189.got - 2010.06.03 17:51:23.
