data_PCOD9497306
_publ_section_title
;
Structure prediction by ZEFSAII (Michael W. Deem and Ramdas Pophale) SiO2 
 PCOD9497306
Probable space group: C C C M
;
_chemical_formula_sum "Si O2"
_cell_formula_units_Z 52
_cell_length_a 12.935933
_cell_length_b 18.565834
_cell_length_c 9.282242
_cell_angle_alpha 90.000000
_cell_angle_beta 90.000000
_cell_angle_gamma 90.000000
_cell_volume 2229.282503
_symmetry_space_group_name_H-M "C C C M"
_symmetry_group_IT_number 66
_symmetry_cell_setting 'orthorhombic'
loop_
_space_group_symop_operation_xyz
x,y,z
-x,-y,z
x,-y,1/2-z
-x,y,1/2-z
-x,-y,-z
x,y,-z
-x,y,1/2+z
x,-y,1/2+z
1/2+x,1/2+y,z
1/2-x,1/2-y,z
1/2+x,1/2-y,1/2-z
1/2-x,1/2+y,1/2-z
1/2-x,1/2-y,-z
1/2+x,1/2+y,-z
1/2-x,1/2+y,1/2+z
1/2+x,1/2-y,1/2+z
loop_
_atom_site_type_symbol
_atom_site_label
_atom_site_fract_x
_atom_site_fract_y
_atom_site_fract_z
Si Si1 0.105827 0.596614 0.164994
Si Si2 0.500000 0.500000 0.750000
Si Si3 0.807947 0.898541 0.833059
Si Si4 0.894954 0.230013 0.166273
O O1 0.209252 0.572497 0.245966
O O2 0.114258 0.684078 0.160722
O O3 0.000000 0.580178 0.250000
O O4 0.102160 0.570728 0.000000
O O5 0.414718 0.445402 0.821316
O O6 0.822088 0.820132 0.760974
O O7 0.781754 0.892282 0.000000
O O8 0.000000 0.216802 0.250000
O O9 0.892583 0.204188 0.000000
#
# Coordination Sequence:
#
# PCOD9497306 Si02
#       4
#    16   4  16  16
#     4  10  22  41  67 100 136 172 216 273 337 399
#     4  12  30  48  66  94 134 180 234 280 326 388
#     4  12  25  42  66  94 131 177 226 277 332 395
#     4  10  20  36  62  97 135 173 216 272 334 397
#
# _framework density 23.325890000000001
#
# number of rings (size 3 to 8) (size 9 to 14) (size 15 to 20)
#    0.000    1.231    1.538    4.154    0.000   11.077 
#    0.000    0.769    0.000    3.692    0.000    0.000 
#    0.000    0.000    0.000    0.000    0.000    0.000 
#
# Total GULP energy -145094.221529 kJ/mol
# GULP energy per Si atom -5580.546982 kJ/mol
# Density = 2.327280 g / cm^3
# Si number density = 23.325890 Si / 1000 Ang^3
#
#
#
# Elastic Constant Matrix: (Units=GPa)
#
#
# Indices 1 2 3 4 5 6 
#
# 1 197.2070 16.0956 92.1812 0.0000 0.0000 0.0000
# 2 16.0956 118.5327 46.2389 0.0000 0.0000 0.0000
# 3 92.1812 46.2389 224.3060 0.0000 0.0000 0.0000
# 4 0.0000 0.0000 0.0000 11.0789 0.0000 0.0000
# 5 0.0000 0.0000 0.0000 0.0000 11.6793 0.0000
# 6 0.0000 0.0000 0.0000 0.0000 0.0000 -0.1698
#
#
#
# Elastic Compliance Matrix: (Units=1/GPa)
#
#
# Indices 1 2 3 4 5 6 
#
# 1 0.006280 0.000167 -0.002615 0.000000 0.000000 0.000000
# 2 0.000167 0.009179 -0.001961 0.000000 0.000000 0.000000
# 3 -0.002615 -0.001961 0.005937 0.000000 0.000000 0.000000
# 4 0.000000 0.000000 0.000000 0.090262 0.000000 0.000000
# 5 0.000000 0.000000 0.000000 0.000000 0.085621 0.000000
# 6 0.000000 0.000000 0.000000 0.000000 0.000000 -5.888654
#
#
# Mechanical properties :
#
#
# Convention : Reuss Voigt Hill
#
# Bulk Modulus (GPa) = 79.50310 94.34188 86.92249
# Shear Modulus (GPa) = -0.88054 30.21967 14.66957
#
# Velocity S-wave (km/s) = -0.61507 3.60327 2.51050
# Velocity P-wave (km/s) = 5.80114 7.60555 6.76378
#
# Compressibility (1/GPa) = 0.01257813
#
# Stress axis : x y z
#
# Youngs Moduli (GPa) = 159.24654 108.94783 168.43043
#
# Poissons Ratio (x) = -0.01825 0.44048
# Poissons Ratio (y) = -0.02667 0.33028
# Poissons Ratio (z) = 0.41646 0.21364
#
# Static dielectric constant tensor:
#      x y z
#    x 1.814660 0.000000 0.000000 
#    y 0.000000 1.889180 0.000000 
#    z 0.000000 0.000000 1.791060 
# 
# From -- ./inp_files/4739.got.cif
#   From: 2010.05.17/outbox.cif.g08.bks.cpg/sg66_3_cif.got.tgz:4739.got - 2010.06.03 17:51:23.
