data_PCOD9497097
_publ_section_title
;
Structure prediction by ZEFSAII (Michael W. Deem and Ramdas Pophale) SiO2 
 PCOD9497097
Probable space group: C C C M
;
_chemical_formula_sum "Si O2"
_cell_formula_units_Z 80
_cell_length_a 17.410517
_cell_length_b 14.059317
_cell_length_c 14.230849
_cell_angle_alpha 90.000000
_cell_angle_beta 90.000000
_cell_angle_gamma 90.000000
_cell_volume 3483.426900
_symmetry_space_group_name_H-M "C C C M"
_symmetry_group_IT_number 66
_symmetry_cell_setting 'orthorhombic'
loop_
_space_group_symop_operation_xyz
x,y,z
-x,-y,z
x,-y,1/2-z
-x,y,1/2-z
-x,-y,-z
x,y,-z
-x,y,1/2+z
x,-y,1/2+z
1/2+x,1/2+y,z
1/2-x,1/2-y,z
1/2+x,1/2-y,1/2-z
1/2-x,1/2+y,1/2-z
1/2-x,1/2-y,-z
1/2+x,1/2+y,-z
1/2-x,1/2+y,1/2+z
1/2+x,1/2-y,1/2+z
loop_
_atom_site_type_symbol
_atom_site_label
_atom_site_fract_x
_atom_site_fract_y
_atom_site_fract_z
Si Si1 0.610284 0.699710 0.311686
Si Si2 0.591078 0.888159 0.242008
Si Si3 0.718533 0.148876 0.611542
Si Si4 0.550865 0.640737 0.891932
Si Si5 0.831196 0.020078 0.890357
O O1 0.626419 0.812354 0.316481
O O2 0.586266 0.685674 0.202763
O O3 0.538114 0.667899 0.377090
O O4 0.671592 0.619547 0.337005
O O5 0.500000 0.872621 0.250000
O O6 0.631949 0.864846 0.144039
O O7 0.604655 0.000000 0.250000
O O8 0.724224 0.151720 0.500000
O O9 0.750000 0.250000 0.647959
O O10 0.770242 0.059273 0.641580
O O11 0.585545 0.533507 0.882794
O O12 0.573520 0.668391 0.000000
O O13 0.818359 0.038607 0.000000
#
# Coordination Sequence:
#
# PCOD9497097 Si02
#       5
#    16  16  16  16  16
#     4  11  21  38  63  94 133 180 231 282 352 409
#     4  11  25  46  64  92 134 182 242 289 350 430
#     4  10  23  44  71 101 137 181 232 291 356 429
#     4  10  20  35  58  96 141 177 215 273 344 421
#     4  10  21  38  64 101 138 174 222 283 356 425
#
# _framework density 22.965889000000001
#
# number of rings (size 3 to 8) (size 9 to 14) (size 15 to 20)
#    0.000    1.600    2.000    3.000    0.000    8.800 
#    0.000    4.000    0.000    2.400    0.000    4.200 
#    0.000    0.800    0.000    0.000    0.000    0.000 
#
# Total GULP energy -223083.313756 kJ/mol
# GULP energy per Si atom -5577.082844 kJ/mol
# Density = 2.291362 g / cm^3
# Si number density = 22.965889 Si / 1000 Ang^3
#
#
#
# Elastic Constant Matrix: (Units=GPa)
#
#
# Indices 1 2 3 4 5 6 
#
# 1 85.2970 44.2174 29.0748 0.0000 0.0000 0.0000
# 2 44.2174 216.4732 45.2432 0.0000 0.0000 0.0000
# 3 29.0748 45.2432 88.1655 0.0000 0.0000 0.0000
# 4 0.0000 0.0000 0.0000 23.1224 0.0000 0.0000
# 5 0.0000 0.0000 0.0000 0.0000 30.3507 0.0000
# 6 0.0000 0.0000 0.0000 0.0000 0.0000 28.2952
#
#
#
# Elastic Compliance Matrix: (Units=1/GPa)
#
#
# Indices 1 2 3 4 5 6 
#
# 1 0.014032 -0.002127 -0.003536 0.000000 0.000000 0.000000
# 2 -0.002127 0.005497 -0.002119 0.000000 0.000000 0.000000
# 3 -0.003536 -0.002119 0.013596 0.000000 0.000000 0.000000
# 4 0.000000 0.000000 0.000000 0.043248 0.000000 0.000000
# 5 0.000000 0.000000 0.000000 0.000000 0.032948 0.000000
# 6 0.000000 0.000000 0.000000 0.000000 0.000000 0.035342
#
#
# Mechanical properties :
#
#
# Convention : Reuss Voigt Hill
#
# Bulk Modulus (GPa) = 56.94753 69.66739 63.30746
# Shear Modulus (GPa) = 30.10593 34.44701 32.27647
#
# Velocity S-wave (km/s) = 3.62456 3.87708 3.75295
# Velocity P-wave (km/s) = 6.50899 7.10235 6.81213
#
# Compressibility (1/GPa) = 0.01756003
#
# Stress axis : x y z
#
# Youngs Moduli (GPa) = 71.26739 181.91885 73.55180
#
# Poissons Ratio (x) = 0.38697 0.26006
# Poissons Ratio (y) = 0.15160 0.15588
# Poissons Ratio (z) = 0.25198 0.38555
#
# Static dielectric constant tensor:
#      x y z
#    x 1.942380 0.000000 0.000000 
#    y 0.000000 1.959610 0.000000 
#    z 0.000000 0.000000 1.819200 
# 
# From -- ./inp_files/30996.got.cif
#   From: 2010.05.17/outbox.cif.g08.bks.cpg/sg66_16_cif.got.tgz:30996.got - 2010.06.03 17:51:23.
