data_PCOD9497519
_publ_section_title
;
Structure prediction by ZEFSAII (Michael W. Deem and Ramdas Pophale) SiO2 
 PCOD9497519
Probable space group: C C C M
;
_chemical_formula_sum "Si O2"
_cell_formula_units_Z 88
_cell_length_a 16.849894
_cell_length_b 11.305121
_cell_length_c 24.669257
_cell_angle_alpha 90.000000
_cell_angle_beta 90.000000
_cell_angle_gamma 90.000000
_cell_volume 4699.248999
_symmetry_space_group_name_H-M "C C C M"
_symmetry_group_IT_number 66
_symmetry_cell_setting 'orthorhombic'
loop_
_space_group_symop_operation_xyz
x,y,z
-x,-y,z
x,-y,1/2-z
-x,y,1/2-z
-x,-y,-z
x,y,-z
-x,y,1/2+z
x,-y,1/2+z
1/2+x,1/2+y,z
1/2-x,1/2-y,z
1/2+x,1/2-y,1/2-z
1/2-x,1/2+y,1/2-z
1/2-x,1/2-y,-z
1/2+x,1/2+y,-z
1/2-x,1/2+y,1/2+z
1/2+x,1/2-y,1/2+z
loop_
_atom_site_type_symbol
_atom_site_label
_atom_site_fract_x
_atom_site_fract_y
_atom_site_fract_z
Si Si1 0.000000 0.804483 0.750000
Si Si2 0.595357 0.508388 0.000000
Si Si3 0.000000 0.000000 0.838497
Si Si4 0.835569 0.059829 0.389489
Si Si5 0.362030 0.124470 0.731158
Si Si6 0.155253 0.733236 0.000000
Si Si7 0.750000 0.750000 0.813980
Si Si8 0.197075 0.632911 0.890512
O O1 0.076350 0.726815 0.758781
O O2 0.989936 0.886218 0.801617
O O3 0.500000 0.500000 0.000000
O O4 0.630941 0.580049 0.050618
O O5 0.621715 0.368002 0.000000
O O6 0.913578 0.008817 0.866404
O O7 0.808409 0.172019 0.352865
O O8 0.758610 0.975680 0.396416
O O9 0.289954 0.156468 0.772166
O O10 0.343847 0.117401 0.667526
O O11 0.395487 0.000000 0.750000
O O12 0.250000 0.750000 0.000000
O O13 0.142535 0.660043 0.943741
O O14 0.250000 0.750000 0.884312
#
# Coordination Sequence:
#
# PCOD9497519 Si02
#       8
#     8   8   8  16  16   8   8  16
#     4  11  25  40  60  96 133 175 220 270 334 401
#     4  12  24  39  70 100 128 168 225 274 331 391
#     4  11  24  39  64  96 138 165 210 287 332 384
#     4  12  23  42  64  99 130 171 214 276 333 392
#     4  12  24  40  63  92 128 180 222 268 330 403
#     4  10  20  38  60  97 125 167 219 271 319 389
#     4  12  26  41  62  95 138 166 220 270 338 406
#     4  11  20  36  67  91 128 164 220 272 318 384
#
# _framework density 18.726396000000001
#
# number of rings (size 3 to 8) (size 9 to 14) (size 15 to 20)
#    0.000    0.545    9.091    1.364    0.000    0.364 
#    0.000    0.000    0.000    0.000    0.000    2.545 
#    0.000    0.000    0.000    0.000    0.000    0.000 
#
# Total GULP energy -245060.108187 kJ/mol
# GULP energy per Si atom -5569.547913 kJ/mol
# Density = 1.868377 g / cm^3
# Si number density = 18.726396 Si / 1000 Ang^3
#
#
#
# Elastic Constant Matrix: (Units=GPa)
#
#
# Indices 1 2 3 4 5 6 
#
# 1 68.2130 9.0459 36.5495 0.0000 0.0000 0.0000
# 2 9.0459 51.0700 17.4621 0.0000 0.0000 0.0000
# 3 36.5495 17.4621 153.0016 0.0000 0.0000 0.0000
# 4 0.0000 0.0000 0.0000 25.7446 0.0000 0.0000
# 5 0.0000 0.0000 0.0000 0.0000 25.6718 0.0000
# 6 0.0000 0.0000 0.0000 0.0000 0.0000 42.8030
#
#
#
# Elastic Compliance Matrix: (Units=1/GPa)
#
#
# Indices 1 2 3 4 5 6 
#
# 1 0.016950 -0.001684 -0.003857 0.000000 0.000000 0.000000
# 2 -0.001684 0.020543 -0.001942 0.000000 0.000000 0.000000
# 3 -0.003857 -0.001942 0.007679 0.000000 0.000000 0.000000
# 4 0.000000 0.000000 0.000000 0.038843 0.000000 0.000000
# 5 0.000000 0.000000 0.000000 0.000000 0.038953 0.000000
# 6 0.000000 0.000000 0.000000 0.000000 0.000000 0.023363
#
#
# Mechanical properties :
#
#
# Convention : Reuss Voigt Hill
#
# Bulk Modulus (GPa) = 33.10563 44.26664 38.68613
# Shear Modulus (GPa) = 29.17737 32.79236 30.98486
#
# Velocity S-wave (km/s) = 3.95154 4.18919 4.07210
# Velocity P-wave (km/s) = 6.20778 6.86215 6.54315
#
# Compressibility (1/GPa) = 0.03020635
#
# Stress axis : x y z
#
# Youngs Moduli (GPa) = 58.99781 48.67759 130.22673
#
# Poissons Ratio (x) = 0.08195 0.50227
# Poissons Ratio (y) = 0.09932 0.25296
# Poissons Ratio (z) = 0.22755 0.09455
#
# Static dielectric constant tensor:
#      x y z
#    x 1.701760 0.000000 0.000000 
#    y 0.000000 1.637950 0.000000 
#    z 0.000000 0.000000 1.759340 
# 
# From -- ./inp_files/64569.got.cif
#   From: 2010.05.17/outbox.cif.g08.bks.cpg/sg66_33_cif.got.tgz:64569.got - 2010.06.03 17:51:23.
