data_PCOD9497761
_publ_section_title
;
Structure prediction by ZEFSAII (Michael W. Deem and Ramdas Pophale) SiO2 
 PCOD9497761
Probable space group: C C C M
;
_chemical_formula_sum "Si O2"
_cell_formula_units_Z 96
_cell_length_a 10.986216
_cell_length_b 21.687870
_cell_length_c 22.934547
_cell_angle_alpha 90.000000
_cell_angle_beta 90.000000
_cell_angle_gamma 90.000000
_cell_volume 5464.560030
_symmetry_space_group_name_H-M "C C C M"
_symmetry_group_IT_number 66
_symmetry_cell_setting 'orthorhombic'
loop_
_space_group_symop_operation_xyz
x,y,z
-x,-y,z
x,-y,1/2-z
-x,y,1/2-z
-x,-y,-z
x,y,-z
-x,y,1/2+z
x,-y,1/2+z
1/2+x,1/2+y,z
1/2-x,1/2-y,z
1/2+x,1/2-y,1/2-z
1/2-x,1/2+y,1/2-z
1/2-x,1/2-y,-z
1/2+x,1/2+y,-z
1/2-x,1/2+y,1/2+z
1/2+x,1/2-y,1/2+z
loop_
_atom_site_type_symbol
_atom_site_label
_atom_site_fract_x
_atom_site_fract_y
_atom_site_fract_z
Si Si1 0.111415 0.730794 0.647137
Si Si2 0.000000 0.354010 0.750000
Si Si3 0.622613 0.471543 0.184654
Si Si4 0.057694 0.341012 0.568895
Si Si5 0.444155 0.670854 0.187239
Si Si6 0.895356 0.447833 0.841092
Si Si7 0.250000 0.250000 0.371599
O O1 0.250000 0.750000 0.650178
O O2 0.068211 0.689915 0.703264
O O3 0.067241 0.688756 0.593385
O O4 0.039520 0.795858 0.644665
O O5 0.087645 0.399863 0.713168
O O6 0.500000 0.500000 0.156165
O O7 0.630218 0.500000 0.250000
O O8 0.587680 0.400097 0.184719
O O9 0.759229 0.476254 0.159182
O O10 0.057977 0.348023 0.500000
O O11 0.082779 0.405045 0.602410
O O12 0.161428 0.292479 0.589903
O O13 0.500000 0.682852 0.250000
O O14 0.322648 0.706286 0.171745
O O15 0.000000 0.500000 0.836523
#
# Coordination Sequence:
#
# PCOD9497761 Si02
#       7
#    16   8  16  16  16  16   8
#     4  10  23  33  56  91 124 155 184 248 308 360
#     4  10  21  34  54  84 121 160 194 226 290 384
#     4  11  22  34  53  84 119 161 192 236 290 359
#     4  10  22  41  64  84 108 154 210 257 302 355
#     4  11  21  33  55  86 125 158 190 227 296 370
#     4  11  23  39  57  84 117 159 204 246 295 364
#     4  10  21  40  60  90 116 152 201 254 292 362
#
# _framework density 17.567746
#
# number of rings (size 3 to 8) (size 9 to 14) (size 15 to 20)
#    0.000    1.500    4.167    1.500    3.500    3.333 
#    0.000    0.000    0.000    0.500    0.000    0.000 
#    0.000    0.000    0.000    0.000    0.000    0.000 
#
# Total GULP energy -267517.712526 kJ/mol
# GULP energy per Si atom -5573.285678 kJ/mol
# Density = 1.752776 g / cm^3
# Si number density = 17.567746 Si / 1000 Ang^3
#
#
#
# Elastic Constant Matrix: (Units=GPa)
#
#
# Indices 1 2 3 4 5 6 
#
# 1 133.6894 64.1119 39.1977 0.0000 0.0000 0.0000
# 2 64.1119 126.4560 37.0137 0.0000 0.0000 0.0000
# 3 39.1977 37.0137 95.7836 0.0000 0.0000 0.0000
# 4 0.0000 0.0000 0.0000 713.7585 0.0000 0.0000
# 5 0.0000 0.0000 0.0000 0.0000 10.6258 0.0000
# 6 0.0000 0.0000 0.0000 0.0000 0.0000 26.2241
#
#
#
# Elastic Compliance Matrix: (Units=1/GPa)
#
#
# Indices 1 2 3 4 5 6 
#
# 1 0.010387 -0.004535 -0.002498 0.000000 0.000000 0.000000
# 2 -0.004535 0.010896 -0.002355 0.000000 0.000000 0.000000
# 3 -0.002498 -0.002355 0.012373 0.000000 0.000000 0.000000
# 4 0.000000 0.000000 0.000000 0.001401 0.000000 0.000000
# 5 0.000000 0.000000 0.000000 0.000000 0.094111 0.000000
# 6 0.000000 0.000000 0.000000 0.000000 0.000000 0.038133
#
#
# Mechanical properties :
#
#
# Convention : Reuss Voigt Hill
#
# Bulk Modulus (GPa) = 67.20474 70.73064 68.96769
# Shear Modulus (GPa) = 26.17289 164.49538 95.33413
#
# Velocity S-wave (km/s) = 3.86401 9.68701 7.37458
# Velocity P-wave (km/s) = 7.63185 12.86338 10.57619
#
# Compressibility (1/GPa) = 0.01487990
#
# Stress axis : x y z
#
# Youngs Moduli (GPa) = 96.27096 91.77384 80.82387
#
# Poissons Ratio (x) = 0.41620 0.20193
# Poissons Ratio (y) = 0.43659 0.19032
# Poissons Ratio (z) = 0.24052 0.21611
#
# Static dielectric constant tensor:
#      x y z
#    x 1.652660 0.000000 0.000000 
#    y 0.000000 1.622570 0.000000 
#    z 0.000000 0.000000 2.607420 
# 
# From -- ./inp_files/48856.got.cif
#   From: 2010.05.17/outbox.cif.g08.bks.cpg/sg66_25_cif.got.tgz:48856.got - 2010.06.03 17:51:23.
