data_PCOD9497173
_publ_section_title
;
Structure prediction by ZEFSAII (Michael W. Deem and Ramdas Pophale) SiO2 
 PCOD9497173
Probable space group: C C C M
;
_chemical_formula_sum "Si O2"
_cell_formula_units_Z 64
_cell_length_a 16.542754
_cell_length_b 12.847556
_cell_length_c 14.955206
_cell_angle_alpha 90.000000
_cell_angle_beta 90.000000
_cell_angle_gamma 90.000000
_cell_volume 3178.489130
_symmetry_space_group_name_H-M "C C C M"
_symmetry_group_IT_number 66
_symmetry_cell_setting 'orthorhombic'
loop_
_space_group_symop_operation_xyz
x,y,z
-x,-y,z
x,-y,1/2-z
-x,y,1/2-z
-x,-y,-z
x,y,-z
-x,y,1/2+z
x,-y,1/2+z
1/2+x,1/2+y,z
1/2-x,1/2-y,z
1/2+x,1/2-y,1/2-z
1/2-x,1/2+y,1/2-z
1/2-x,1/2-y,-z
1/2+x,1/2+y,-z
1/2-x,1/2+y,1/2+z
1/2+x,1/2-y,1/2+z
loop_
_atom_site_type_symbol
_atom_site_label
_atom_site_fract_x
_atom_site_fract_y
_atom_site_fract_z
Si Si1 0.872137 0.238722 0.604842
Si Si2 0.264520 0.920998 0.609654
Si Si3 0.977351 0.886698 0.646499
Si Si4 0.289521 0.356464 0.391573
O O1 0.853771 0.242335 0.500000
O O2 0.814534 0.145297 0.639339
O O3 0.840459 0.350066 0.639225
O O4 0.964339 0.204807 0.612776
O O5 0.264331 0.926982 0.500000
O O6 0.255955 0.039339 0.640718
O O7 0.883595 0.864998 0.632724
O O8 0.000000 0.892449 0.750000
O O9 0.000000 0.000000 0.606232
O O10 0.285408 0.355028 0.500000
O O11 0.250000 0.250000 0.357850
#
# Coordination Sequence:
#
# PCOD9497173 Si02
#       4
#    16  16  16  16
#     4   9  16  30  55  79 101 133 175 222 258 303
#     4   8  15  29  52  82 103 127 172 216 263 310
#     4  11  22  35  50  80 110 140 180 219 266 318
#     4  10  20  36  57  80 109 142 177 222 272 318
#
# _framework density 20.135352000000001
#
# number of rings (size 3 to 8) (size 9 to 14) (size 15 to 20)
#    0.000    2.500    2.500    2.250    0.000    1.000 
#    4.500    1.250    0.000    7.500    0.000    0.000 
#    0.000    0.000    0.000    0.000    0.000    0.000 
#
# Total GULP energy -178445.132452 kJ/mol
# GULP energy per Si atom -5576.410389 kJ/mol
# Density = 2.008952 g / cm^3
# Si number density = 20.135352 Si / 1000 Ang^3
#
#
#
# Elastic Constant Matrix: (Units=GPa)
#
#
# Indices 1 2 3 4 5 6 
#
# 1 119.5813 107.1464 -4.1071 0.0000 0.0000 0.0000
# 2 107.1464 218.3873 14.3483 0.0000 0.0000 0.0000
# 3 -4.1071 14.3483 26.1314 0.0000 0.0000 0.0000
# 4 0.0000 0.0000 0.0000 27.5855 0.0000 0.0000
# 5 0.0000 0.0000 0.0000 0.0000 9.9986 0.0000
# 6 0.0000 0.0000 0.0000 0.0000 0.0000 -15.0302
#
#
#
# Elastic Compliance Matrix: (Units=1/GPa)
#
#
# Indices 1 2 3 4 5 6 
#
# 1 0.016108 -0.008371 0.007128 0.000000 0.000000 0.000000
# 2 -0.008371 0.009101 -0.006313 0.000000 0.000000 0.000000
# 3 0.007128 -0.006313 0.042855 0.000000 0.000000 0.000000
# 4 0.000000 0.000000 0.000000 0.036251 0.000000 0.000000
# 5 0.000000 0.000000 0.000000 0.000000 0.100014 0.000000
# 6 0.000000 0.000000 0.000000 0.000000 0.000000 -0.066533
#
#
# Mechanical properties :
#
#
# Convention : Reuss Voigt Hill
#
# Bulk Modulus (GPa) = 18.88501 66.54171 42.71336
# Shear Modulus (GPa) = 29.31529 20.95827 25.13678
#
# Velocity S-wave (km/s) = 3.81978 3.22975 3.53709
# Velocity P-wave (km/s) = 5.37156 6.85765 6.15959
#
# Compressibility (1/GPa) = 0.05295206
#
# Stress axis : x y z
#
# Youngs Moduli (GPa) = 62.07974 109.87729 23.33457
#
# Poissons Ratio (x) = 0.91984 -0.16634
# Poissons Ratio (y) = 0.51970 0.14731
# Poissons Ratio (z) = -0.44253 0.69365
#
# Static dielectric constant tensor:
#      x y z
#    x 1.695820 0.000000 0.000000 
#    y 0.000000 1.753190 0.000000 
#    z 0.000000 0.000000 1.882050 
# 
# From -- ./inp_files/25735.got.cif
#   From: 2010.05.17/outbox.cif.g08.bks.cpg/sg66_13_cif.got.tgz:25735.got - 2010.06.03 17:51:23.
