data_PCOD9497224
_publ_section_title
;
Structure prediction by ZEFSAII (Michael W. Deem and Ramdas Pophale) SiO2 
 PCOD9497224
Probable space group: C C C M
;
_chemical_formula_sum "Si O2"
_cell_formula_units_Z 96
_cell_length_a 15.690263
_cell_length_b 19.997449
_cell_length_c 14.235122
_cell_angle_alpha 90.000000
_cell_angle_beta 90.000000
_cell_angle_gamma 90.000000
_cell_volume 4466.486387
_symmetry_space_group_name_H-M "C C C M"
_symmetry_group_IT_number 66
_symmetry_cell_setting 'orthorhombic'
loop_
_space_group_symop_operation_xyz
x,y,z
-x,-y,z
x,-y,1/2-z
-x,y,1/2-z
-x,-y,-z
x,y,-z
-x,y,1/2+z
x,-y,1/2+z
1/2+x,1/2+y,z
1/2-x,1/2-y,z
1/2+x,1/2-y,1/2-z
1/2-x,1/2+y,1/2-z
1/2-x,1/2-y,-z
1/2+x,1/2+y,-z
1/2-x,1/2+y,1/2+z
1/2+x,1/2-y,1/2+z
loop_
_atom_site_type_symbol
_atom_site_label
_atom_site_fract_x
_atom_site_fract_y
_atom_site_fract_z
Si Si1 0.076441 0.089594 0.885625
Si Si2 0.153147 0.770854 0.387573
Si Si3 0.096673 0.522710 0.608327
Si Si4 0.705669 0.886719 0.609427
Si Si5 0.097112 0.649566 0.726553
Si Si6 0.885299 0.940793 0.614328
O O1 0.127012 0.155135 0.855386
O O2 0.976784 0.088988 0.857714
O O3 0.115999 0.018630 0.855860
O O4 0.077631 0.089208 0.000000
O O5 0.141906 0.768214 0.500000
O O6 0.250000 0.750000 0.367010
O O7 0.098065 0.714309 0.338229
O O8 0.094395 0.545784 0.500000
O O9 0.157081 0.458355 0.613684
O O10 0.128684 0.583695 0.671260
O O11 0.000000 0.500000 0.632346
O O12 0.703762 0.865046 0.500000
O O13 0.653705 0.840704 0.680755
O O14 0.802231 0.899617 0.641598
O O15 0.000000 0.634733 0.750000
O O16 0.883784 0.941748 0.500000
#
# Coordination Sequence:
#
# PCOD9497224 Si02
#       6
#    16  16  16  16  16  16
#     4   8  15  33  61  92 124 154 196 252 317 378
#     4  10  23  42  64  92 125 166 210 256 315 386
#     4  10  20  36  59  87 121 158 202 258 318 375
#     4  10  21  35  59  93 125 160 206 257 313 373
#     4  12  24  39  59  87 124 165 207 255 307 377
#     4   8  15  31  61  96 122 153 197 255 317 376
#
# _framework density 21.493404999999999
#
# number of rings (size 3 to 8) (size 9 to 14) (size 15 to 20)
#    0.000    2.333    1.667    2.000    2.333    0.667 
#    3.000    0.000    0.000    0.500    0.000    0.000 
#    0.000    0.000    0.000    1.833    0.000    0.167 
#
# Total GULP energy -268291.323810 kJ/mol
# GULP energy per Si atom -5589.402579 kJ/mol
# Density = 2.144448 g / cm^3
# Si number density = 21.493405 Si / 1000 Ang^3
#
#
#
# Elastic Constant Matrix: (Units=GPa)
#
#
# Indices 1 2 3 4 5 6 
#
# 1 84.3652 18.3535 27.4105 0.0000 0.0000 0.0000
# 2 18.3535 62.9798 22.2030 0.0000 0.0000 0.0000
# 3 27.4105 22.2030 67.3073 0.0000 0.0000 0.0000
# 4 0.0000 0.0000 0.0000 12.4398 0.0000 0.0000
# 5 0.0000 0.0000 0.0000 0.0000 -1.9997 0.0000
# 6 0.0000 0.0000 0.0000 0.0000 0.0000 15.3206
#
#
#
# Elastic Compliance Matrix: (Units=1/GPa)
#
#
# Indices 1 2 3 4 5 6 
#
# 1 0.013958 -0.002335 -0.004914 0.000000 0.000000 0.000000
# 2 -0.002335 0.018358 -0.005105 0.000000 0.000000 0.000000
# 3 -0.004914 -0.005105 0.018542 0.000000 0.000000 0.000000
# 4 0.000000 0.000000 0.000000 0.080387 0.000000 0.000000
# 5 0.000000 0.000000 0.000000 0.000000 -0.500072 0.000000
# 6 0.000000 0.000000 0.000000 0.000000 0.000000 0.065271
#
#
# Mechanical properties :
#
#
# Convention : Reuss Voigt Hill
#
# Bulk Modulus (GPa) = 38.24038 38.95405 38.59722
# Shear Modulus (GPa) = -18.50959 14.93116 -1.78922
#
# Velocity S-wave (km/s) = -2.93776 2.63855 -0.91338
# Velocity P-wave (km/s) = 2.51457 5.23886 4.10906
#
# Compressibility (1/GPa) = 0.02615037
#
# Stress axis : x y z
#
# Youngs Moduli (GPa) = 71.64459 54.47115 53.93048
#
# Poissons Ratio (x) = 0.12720 0.26501
# Poissons Ratio (y) = 0.16730 0.27531
# Poissons Ratio (z) = 0.35205 0.27807
#
# Static dielectric constant tensor:
#      x y z
#    x 1.831040 0.000000 0.000000 
#    y 0.000000 1.746450 0.000000 
#    z 0.000000 0.000000 1.826240 
# 
# From -- ./inp_files/28308.got.cif
#   From: 2010.05.17/outbox.cif.g08.bks.cpg/sg66_15_cif.got.tgz:28308.got - 2010.06.03 17:51:23.
