data_PCOD9497814
_publ_section_title
;
Structure prediction by ZEFSAII (Michael W. Deem and Ramdas Pophale) SiO2 
 PCOD9497814
Probable space group: C C C M
;
_chemical_formula_sum "Si O2"
_cell_formula_units_Z 52
_cell_length_a 4.996003
_cell_length_b 27.853386
_cell_length_c 14.719923
_cell_angle_alpha 90.000000
_cell_angle_beta 90.000000
_cell_angle_gamma 90.000000
_cell_volume 2048.359717
_symmetry_space_group_name_H-M "C C C M"
_symmetry_group_IT_number 66
_symmetry_cell_setting 'orthorhombic'
loop_
_space_group_symop_operation_xyz
x,y,z
-x,-y,z
x,-y,1/2-z
-x,y,1/2-z
-x,-y,-z
x,y,-z
-x,y,1/2+z
x,-y,1/2+z
1/2+x,1/2+y,z
1/2-x,1/2-y,z
1/2+x,1/2-y,1/2-z
1/2-x,1/2+y,1/2-z
1/2-x,1/2-y,-z
1/2+x,1/2+y,-z
1/2-x,1/2+y,1/2+z
1/2+x,1/2-y,1/2+z
loop_
_atom_site_type_symbol
_atom_site_label
_atom_site_fract_x
_atom_site_fract_y
_atom_site_fract_z
Si Si1 0.309490 0.103196 0.608343
Si Si2 0.250000 0.250000 0.000000
Si Si3 0.191926 0.957247 0.607955
Si Si4 0.946778 0.709123 0.648011
O O1 0.357663 0.107813 0.500000
O O2 0.005357 0.087416 0.620221
O O3 0.344497 0.155153 0.651013
O O4 0.517980 0.061425 0.640282
O O5 0.304280 0.210214 0.080491
O O6 0.227022 0.968256 0.500000
O O7 0.000000 0.000000 0.643885
O O8 0.750000 0.750000 0.605381
O O9 0.000000 0.724718 0.750000
#
# Coordination Sequence:
#
# PCOD9497814 Si02
#       4
#    16   4  16  16
#     4  10  21  35  62  92 130 176 224 282 346 409
#     4  12  26  48  72  96 142 186 238 288 350 418
#     4   9  18  34  59  93 128 170 226 281 340 413
#     4  12  27  44  70 101 141 187 235 290 353 421
#
# _framework density 25.386168000000001
#
# number of rings (size 3 to 8) (size 9 to 14) (size 15 to 20)
#    0.000    1.538    3.077    1.385    4.308    3.692 
#    0.000    0.000    0.000    5.538    0.000    0.000 
#    0.000    0.000    0.000    0.000    0.000    0.000 
#
# Total GULP energy -144775.969846 kJ/mol
# GULP energy per Si atom -5568.306533 kJ/mol
# Density = 2.532839 g / cm^3
# Si number density = 25.386168 Si / 1000 Ang^3
#
#
#
# Elastic Constant Matrix: (Units=GPa)
#
#
# Indices 1 2 3 4 5 6 
#
# 1 104.6196 3.1443 0.7547 0.0000 0.0000 0.0000
# 2 3.1443 75.4531 -8.2970 0.0000 0.0000 0.0000
# 3 0.7547 -8.2970 124.2724 0.0000 0.0000 0.0000
# 4 0.0000 0.0000 0.0000 12.1747 0.0000 0.0000
# 5 0.0000 0.0000 0.0000 0.0000-1050.5354 0.0000
# 6 0.0000 0.0000 0.0000 0.0000 0.0000 37.8013
#
#
#
# Elastic Compliance Matrix: (Units=1/GPa)
#
#
# Indices 1 2 3 4 5 6 
#
# 1 0.009571 -0.000408 -0.000085 0.000000 0.000000 0.000000
# 2 -0.000408 0.013369 0.000895 0.000000 0.000000 0.000000
# 3 -0.000085 0.000895 0.008107 0.000000 0.000000 0.000000
# 4 0.000000 0.000000 0.000000 0.082137 0.000000 0.000000
# 5 0.000000 0.000000 0.000000 0.000000 -0.000952 0.000000
# 6 0.000000 0.000000 0.000000 0.000000 0.000000 0.026454
#
#
# Mechanical properties :
#
#
# Convention : Reuss Voigt Hill
#
# Bulk Modulus (GPa) = 31.39722 32.83878 32.11800
# Shear Modulus (GPa) = 33.66989 -179.52901 -72.92956
#
# Velocity S-wave (km/s) = 3.64580 -8.41860 -5.36567
# Velocity P-wave (km/s) = 5.48791 9.02957 5.07031
#
# Compressibility (1/GPa) = 0.03184995
#
# Stress axis : x y z
#
# Youngs Moduli (GPa) = 104.47878 74.80159 123.34847
#
# Poissons Ratio (x) = 0.03054 0.01053
# Poissons Ratio (y) = 0.04265 -0.11040
# Poissons Ratio (z) = 0.00892 -0.06695
#
# Static dielectric constant tensor:
#      x y z
#    x 2.299210 0.000000 0.000000 
#    y 0.000000 1.964290 0.000000 
#    z 0.000000 0.000000 1.991950 
# 
# From -- ./inp_files/33515.got.cif
#   From: 2010.05.17/outbox.cif.g08.bks.cpg/sg66_17_cif.got.tgz:33515.got - 2010.06.03 17:51:23.
