data_PCOD9497958
_publ_section_title
;
Structure prediction by ZEFSAII (Michael W. Deem and Ramdas Pophale) SiO2 
 PCOD9497958
Probable space group: C C C M
;
_chemical_formula_sum "Si O2"
_cell_formula_units_Z 52
_cell_length_a 19.229091
_cell_length_b 7.630270
_cell_length_c 13.514582
_cell_angle_alpha 90.000000
_cell_angle_beta 90.000000
_cell_angle_gamma 90.000000
_cell_volume 1982.902126
_symmetry_space_group_name_H-M "C C C M"
_symmetry_group_IT_number 66
_symmetry_cell_setting 'orthorhombic'
loop_
_space_group_symop_operation_xyz
x,y,z
-x,-y,z
x,-y,1/2-z
-x,y,1/2-z
-x,-y,-z
x,y,-z
-x,y,1/2+z
x,-y,1/2+z
1/2+x,1/2+y,z
1/2-x,1/2-y,z
1/2+x,1/2-y,1/2-z
1/2-x,1/2+y,1/2-z
1/2-x,1/2-y,-z
1/2+x,1/2+y,-z
1/2-x,1/2+y,1/2+z
1/2+x,1/2-y,1/2+z
loop_
_atom_site_type_symbol
_atom_site_label
_atom_site_fract_x
_atom_site_fract_y
_atom_site_fract_z
Si Si1 0.576158 0.066736 0.117755
Si Si2 0.500000 0.500000 0.750000
Si Si3 0.387595 0.307100 0.881526
Si Si4 0.817383 0.852211 0.620332
O O1 0.624365 0.897567 0.137432
O O2 0.500000 0.000000 0.149160
O O3 0.614286 0.242112 0.152918
O O4 0.569986 0.090898 0.000000
O O5 0.454127 0.380650 0.823516
O O6 0.326721 0.443578 0.856118
O O7 0.401087 0.320564 0.000000
O O8 0.815468 0.844124 0.500000
O O9 0.750000 0.750000 0.656393
#
# Coordination Sequence:
#
# PCOD9497958 Si02
#       4
#    16   4  16  16
#     4   9  17  31  54  85 118 153 192 237 296 359
#     4  12  22  36  62  90 120 150 204 240 302 366
#     4  10  21  37  58  86 123 157 194 250 300 354
#     4   9  18  34  59  88 118 157 201 244 300 365
#
# _framework density 26.224188999999999
#
# number of rings (size 3 to 8) (size 9 to 14) (size 15 to 20)
#    0.000    2.462    0.000    2.308    0.000    6.154 
#    0.000   13.077    6.769    0.000    0.000    0.000 
#    0.000    0.000    0.000    0.000    0.000    0.000 
#
# Total GULP energy -145526.518688 kJ/mol
# GULP energy per Si atom -5597.173796 kJ/mol
# Density = 2.616450 g / cm^3
# Si number density = 26.224189 Si / 1000 Ang^3
#
#
#
# Elastic Constant Matrix: (Units=GPa)
#
#
# Indices 1 2 3 4 5 6 
#
# 1 93.1005 47.4033 -20.4029 0.0000 0.0000 0.0000
# 2 47.4033 170.8739 -15.6621 0.0000 0.0000 0.0000
# 3 -20.4029 -15.6621 115.3435 0.0000 0.0000 0.0000
# 4 0.0000 0.0000 0.0000 19.4200 0.0000 0.0000
# 5 0.0000 0.0000 0.0000 0.0000 22.7946 0.0000
# 6 0.0000 0.0000 0.0000 0.0000 0.0000 31.6838
#
#
#
# Elastic Compliance Matrix: (Units=1/GPa)
#
#
# Indices 1 2 3 4 5 6 
#
# 1 0.012872 -0.003405 0.001815 0.000000 0.000000 0.000000
# 2 -0.003405 0.006827 0.000325 0.000000 0.000000 0.000000
# 3 0.001815 0.000325 0.009035 0.000000 0.000000 0.000000
# 4 0.000000 0.000000 0.000000 0.051493 0.000000 0.000000
# 5 0.000000 0.000000 0.000000 0.000000 0.043870 0.000000
# 6 0.000000 0.000000 0.000000 0.000000 0.000000 0.031562
#
#
# Mechanical properties :
#
#
# Convention : Reuss Voigt Hill
#
# Bulk Modulus (GPa) = 38.16350 44.66605 41.41477
# Shear Modulus (GPa) = 29.95379 39.31165 34.63272
#
# Velocity S-wave (km/s) = 3.38334 3.87597 3.63800
# Velocity P-wave (km/s) = 5.46324 6.09100 5.78564
#
# Compressibility (1/GPa) = 0.02620305
#
# Stress axis : x y z
#
# Youngs Moduli (GPa) = 77.68628 146.48702 110.68269
#
# Poissons Ratio (x) = 0.49874 -0.20085
# Poissons Ratio (y) = 0.26450 -0.03594
# Poissons Ratio (z) = -0.14097 -0.04757
#
# Static dielectric constant tensor:
#      x y z
#    x 2.068880 0.000000 0.000000 
#    y 0.000000 2.028790 0.000000 
#    z 0.000000 0.000000 2.094400 
# 
# From -- ./inp_files/23708.got.cif
#   From: 2010.05.17/outbox.cif.g08.bks.cpg/sg66_12_cif.got.tgz:23708.got - 2010.06.03 17:51:23.
