data_PCOD9497048
_publ_section_title
;
Structure prediction by ZEFSAII (Michael W. Deem and Ramdas Pophale) SiO2 
 PCOD9497048
Probable space group: C C C M
;
_chemical_formula_sum "Si O2"
_cell_formula_units_Z 112
_cell_length_a 29.991799
_cell_length_b 11.932343
_cell_length_c 16.268661
_cell_angle_alpha 90.000000
_cell_angle_beta 90.000000
_cell_angle_gamma 90.000000
_cell_volume 5822.105291
_symmetry_space_group_name_H-M "C C C M"
_symmetry_group_IT_number 66
_symmetry_cell_setting 'orthorhombic'
loop_
_space_group_symop_operation_xyz
x,y,z
-x,-y,z
x,-y,1/2-z
-x,y,1/2-z
-x,-y,-z
x,y,-z
-x,y,1/2+z
x,-y,1/2+z
1/2+x,1/2+y,z
1/2-x,1/2-y,z
1/2+x,1/2-y,1/2-z
1/2-x,1/2+y,1/2-z
1/2-x,1/2-y,-z
1/2+x,1/2+y,-z
1/2-x,1/2+y,1/2+z
1/2+x,1/2-y,1/2+z
loop_
_atom_site_type_symbol
_atom_site_label
_atom_site_fract_x
_atom_site_fract_y
_atom_site_fract_z
Si Si1 0.867798 0.418187 0.321020
Si Si2 0.065597 0.752277 0.595623
Si Si3 0.174091 0.166383 0.593642
Si Si4 0.858491 0.915677 0.904410
Si Si5 0.800400 0.226971 0.724653
Si Si6 0.889997 0.379234 0.909325
Si Si7 0.513689 0.123544 0.844704
O O1 0.883755 0.500000 0.250000
O O2 0.905813 0.336198 0.352380
O O3 0.827849 0.343047 0.286514
O O4 0.860077 0.510988 0.390970
O O5 0.071992 0.727524 0.500000
O O6 0.091132 0.870088 0.610923
O O7 0.014519 0.725056 0.615637
O O8 0.195209 0.166557 0.500000
O O9 0.200131 0.183459 0.680369
O O10 0.140193 0.269964 0.594710
O O11 0.148405 0.048299 0.600936
O O12 0.826086 0.857184 0.837622
O O13 0.847413 0.883464 0.000000
O O14 0.750000 0.250000 0.698505
O O15 0.933791 0.363244 0.854841
O O16 0.908838 0.393224 0.000000
O O17 0.500000 0.123354 0.750000
O O18 0.500000 0.000000 0.878825
#
# Coordination Sequence:
#
# PCOD9497048 Si02
#       7
#    16  16  16  16  16  16  16
#     4  11  20  35  56  83 121 150 191 246 303 369
#     4  10  20  35  57  83 115 156 199 243 293 354
#     4  10  22  42  64  87 121 163 207 250 302 372
#     4   9  21  42  65  88 118 161 206 249 305 364
#     4  11  24  40  66  91 119 155 201 257 314 372
#     4  11  22  37  60  89 121 164 205 248 311 373
#     4  11  22  32  53  86 124 158 198 251 301 355
#
# _framework density 19.237027000000001
#
# number of rings (size 3 to 8) (size 9 to 14) (size 15 to 20)
#    0.000    1.571    2.857    2.143    2.000    2.857 
#    0.000    0.714    0.000    4.286    0.000    0.000 
#    0.000    0.000    0.000    0.000    0.000    0.000 
#
# Total GULP energy -311852.671282 kJ/mol
# GULP energy per Si atom -5568.797701 kJ/mol
# Density = 1.919324 g / cm^3
# Si number density = 19.237027 Si / 1000 Ang^3
#
#
#
# Elastic Constant Matrix: (Units=GPa)
#
#
# Indices 1 2 3 4 5 6 
#
# 1 39.6892 15.9080 14.8900 0.0000 0.0000 0.0000
# 2 15.9080 93.2161 22.4303 0.0000 0.0000 0.0000
# 3 14.8900 22.4303 79.6531 0.0000 0.0000 0.0000
# 4 0.0000 0.0000 0.0000 28.2155 0.0000 0.0000
# 5 0.0000 0.0000 0.0000 0.0000 -2.7249 0.0000
# 6 0.0000 0.0000 0.0000 0.0000 0.0000 7.7997
#
#
#
# Elastic Compliance Matrix: (Units=1/GPa)
#
#
# Indices 1 2 3 4 5 6 
#
# 1 0.028307 -0.003816 -0.004217 0.000000 0.000000 0.000000
# 2 -0.003816 0.012022 -0.002672 0.000000 0.000000 0.000000
# 3 -0.004217 -0.002672 0.014095 0.000000 0.000000 0.000000
# 4 0.000000 0.000000 0.000000 0.035441 0.000000 0.000000
# 5 0.000000 0.000000 0.000000 0.000000 -0.366990 0.000000
# 6 0.000000 0.000000 0.000000 0.000000 0.000000 0.128210
#
#
# Mechanical properties :
#
#
# Convention : Reuss Voigt Hill
#
# Bulk Modulus (GPa) = 30.28997 35.44608 32.86803
# Shear Modulus (GPa) = -42.91867 17.28009 -12.81929
#
# Velocity S-wave (km/s) = -4.72852 3.00037 -2.58425
# Velocity P-wave (km/s) = 3.74593 5.51987 2.86679
#
# Compressibility (1/GPa) = 0.03301423
#
# Stress axis : x y z
#
# Youngs Moduli (GPa) = 35.32645 83.18107 70.94615
#
# Poissons Ratio (x) = 0.31743 0.29918
# Poissons Ratio (y) = 0.13481 0.18957
# Poissons Ratio (z) = 0.14897 0.22226
#
# Static dielectric constant tensor:
#      x y z
#    x 1.532790 0.000000 0.000000 
#    y 0.000000 1.694160 0.000000 
#    z 0.000000 0.000000 1.775270 
# 
# From -- ./inp_files/33810.got.cif
#   From: 2010.05.17/outbox.cif.g08.bks.cpg/sg66_17_cif.got.tgz:33810.got - 2010.06.03 17:51:23.
