data_PCOD9497192
_publ_section_title
;
Structure prediction by ZEFSAII (Michael W. Deem and Ramdas Pophale) SiO2 
 PCOD9497192
Probable space group: C C C M
;
_chemical_formula_sum "Si O2"
_cell_formula_units_Z 88
_cell_length_a 12.275452
_cell_length_b 26.515796
_cell_length_c 14.733753
_cell_angle_alpha 90.000000
_cell_angle_beta 90.000000
_cell_angle_gamma 90.000000
_cell_volume 4795.739079
_symmetry_space_group_name_H-M "C C C M"
_symmetry_group_IT_number 66
_symmetry_cell_setting 'orthorhombic'
loop_
_space_group_symop_operation_xyz
x,y,z
-x,-y,z
x,-y,1/2-z
-x,y,1/2-z
-x,-y,-z
x,y,-z
-x,y,1/2+z
x,-y,1/2+z
1/2+x,1/2+y,z
1/2-x,1/2-y,z
1/2+x,1/2-y,1/2-z
1/2-x,1/2+y,1/2-z
1/2-x,1/2-y,-z
1/2+x,1/2+y,-z
1/2-x,1/2+y,1/2+z
1/2+x,1/2-y,1/2+z
loop_
_atom_site_type_symbol
_atom_site_label
_atom_site_fract_x
_atom_site_fract_y
_atom_site_fract_z
Si Si1 0.343761 0.612018 0.745121
Si Si2 0.627181 0.764956 0.608426
Si Si3 0.796879 0.000000 0.250000
Si Si4 0.510607 0.660930 0.391230
Si Si5 0.605716 0.126628 0.192258
Si Si6 0.384256 0.976794 0.895920
O O1 0.361558 0.552000 0.738883
O O2 0.405502 0.642178 0.665281
O O3 0.392247 0.630441 0.841635
O O4 0.215172 0.621930 0.748044
O O5 0.631590 0.771913 0.500000
O O6 0.750000 0.750000 0.638149
O O7 0.543231 0.719297 0.625818
O O8 0.596511 0.817325 0.653867
O O9 0.715390 0.004607 0.164763
O O10 0.503922 0.653033 0.500000
O O11 0.500000 0.114362 0.250000
O O12 0.613507 0.083538 0.116076
O O13 0.500000 0.000000 0.865459
O O14 0.368811 0.991208 0.000000
#
# Coordination Sequence:
#
# PCOD9497192 Si02
#       6
#    16  16   8  16  16  16
#     4  10  22  39  60  87 117 158 196 249 296 359
#     4  10  20  36  59  86 115 151 201 250 292 351
#     4  10  21  37  56  86 120 150 203 247 300 356
#     4  10  22  40  61  84 118 157 198 248 298 353
#     4  11  22  35  60  91 121 156 197 248 299 360
#     4  10  20  36  58  83 119 162 202 248 299 350
#
# _framework density 18.349622
#
# number of rings (size 3 to 8) (size 9 to 14) (size 15 to 20)
#    0.000    1.818    1.818    3.000    2.545    5.091 
#    0.000    2.727    0.000    2.182    0.000    0.000 
#    0.000    0.000    0.000    0.000    0.000    0.000 
#
# Total GULP energy -245510.108582 kJ/mol
# GULP energy per Si atom -5579.775195 kJ/mol
# Density = 1.830786 g / cm^3
# Si number density = 18.349622 Si / 1000 Ang^3
#
#
#
# Elastic Constant Matrix: (Units=GPa)
#
#
# Indices 1 2 3 4 5 6 
#
# 1 100.1673 22.0605 32.7908 0.0000 0.0000 0.0000
# 2 22.0605 135.1015 39.7336 0.0000 0.0000 0.0000
# 3 32.7908 39.7336 85.7737 0.0000 0.0000 0.0000
# 4 0.0000 0.0000 0.0000 26.3770 0.0000 0.0000
# 5 0.0000 0.0000 0.0000 0.0000 22.0839 0.0000
# 6 0.0000 0.0000 0.0000 0.0000 0.0000 45.1705
#
#
#
# Elastic Compliance Matrix: (Units=1/GPa)
#
#
# Indices 1 2 3 4 5 6 
#
# 1 0.011464 -0.000675 -0.004070 0.000000 0.000000 0.000000
# 2 -0.000675 0.008609 -0.003730 0.000000 0.000000 0.000000
# 3 -0.004070 -0.003730 0.014942 0.000000 0.000000 0.000000
# 4 0.000000 0.000000 0.000000 0.037912 0.000000 0.000000
# 5 0.000000 0.000000 0.000000 0.000000 0.045282 0.000000
# 6 0.000000 0.000000 0.000000 0.000000 0.000000 0.022138
#
#
# Mechanical properties :
#
#
# Convention : Reuss Voigt Hill
#
# Bulk Modulus (GPa) = 55.35350 56.69029 56.02189
# Shear Modulus (GPa) = 30.61478 33.82345 32.21912
#
# Velocity S-wave (km/s) = 4.08905 4.29800 4.19483
# Velocity P-wave (km/s) = 7.24744 7.45600 7.35246
#
# Compressibility (1/GPa) = 0.01806571
#
# Stress axis : x y z
#
# Youngs Moduli (GPa) = 87.22702 116.15672 66.92353
#
# Poissons Ratio (x) = 0.07840 0.27238
# Poissons Ratio (y) = 0.05888 0.24962
# Poissons Ratio (z) = 0.35502 0.43326
#
# Static dielectric constant tensor:
#      x y z
#    x 1.639610 0.000000 0.000000 
#    y 0.000000 1.646350 0.000000 
#    z 0.000000 0.000000 1.606630 
# 
# From -- ./inp_files/26767.got.cif
#   From: 2010.05.17/outbox.cif.g08.bks.cpg/sg66_14_cif.got.tgz:26767.got - 2010.06.03 17:51:23.
