data_PCOD9497939
_publ_section_title
;
Structure prediction by ZEFSAII (Michael W. Deem and Ramdas Pophale) SiO2 
 PCOD9497939
Probable space group: C C C M
;
_chemical_formula_sum "Si O2"
_cell_formula_units_Z 64
_cell_length_a 16.957964
_cell_length_b 7.136035
_cell_length_c 27.988655
_cell_angle_alpha 90.000000
_cell_angle_beta 90.000000
_cell_angle_gamma 90.000000
_cell_volume 3386.980601
_symmetry_space_group_name_H-M "C C C M"
_symmetry_group_IT_number 66
_symmetry_cell_setting 'orthorhombic'
loop_
_space_group_symop_operation_xyz
x,y,z
-x,-y,z
x,-y,1/2-z
-x,y,1/2-z
-x,-y,-z
x,y,-z
-x,y,1/2+z
x,-y,1/2+z
1/2+x,1/2+y,z
1/2-x,1/2-y,z
1/2+x,1/2-y,1/2-z
1/2-x,1/2+y,1/2-z
1/2-x,1/2-y,-z
1/2+x,1/2+y,-z
1/2-x,1/2+y,1/2+z
1/2+x,1/2-y,1/2+z
loop_
_atom_site_type_symbol
_atom_site_label
_atom_site_fract_x
_atom_site_fract_y
_atom_site_fract_z
Si Si1 0.489180 0.225613 0.303483
Si Si2 0.904717 0.012795 0.445603
Si Si3 0.576758 0.130044 0.607031
Si Si4 0.659434 0.762643 0.364414
O O1 0.500000 0.296832 0.250000
O O2 0.548881 0.260218 0.347839
O O3 0.402931 0.277786 0.322351
O O4 0.500000 0.000000 0.300571
O O5 0.882590 0.968782 0.500000
O O6 0.891002 0.229505 0.432312
O O7 0.863150 0.873183 0.408464
O O8 0.000000 0.000000 0.441509
O O9 0.359477 0.022989 0.621512
O O10 0.500000 0.000000 0.593449
O O11 0.750000 0.750000 0.350775
#
# Coordination Sequence:
#
# PCOD9497939 Si02
#       4
#    16  16  16  16
#     4   8  15  32  60  78 104 147 187 220 275 336
#     4  11  21  35  58  84 110 148 201 237 271 338
#     4   9  18  35  56  81 107 148 186 229 279 329
#     4  10  21  37  57  83 118 146 181 237 290 327
#
# _framework density 18.895886999999998
#
# number of rings (size 3 to 8) (size 9 to 14) (size 15 to 20)
#    0.000    3.000    5.000    0.000    0.000    3.000 
#    0.000    3.750   22.000    0.000    0.000    0.000 
#    0.000    0.000    0.000    0.000    0.000    0.000 
#
# Total GULP energy -178145.464131 kJ/mol
# GULP energy per Si atom -5567.045754 kJ/mol
# Density = 1.885288 g / cm^3
# Si number density = 18.895887 Si / 1000 Ang^3
#
#
#
# Elastic Constant Matrix: (Units=GPa)
#
#
# Indices 1 2 3 4 5 6 
#
# 1 100.6309 34.4124 41.4330 0.0000 0.0000 0.0000
# 2 34.4124 73.5268 35.0588 0.0000 0.0000 0.0000
# 3 41.4330 35.0588 133.7575 0.0000 0.0000 0.0000
# 4 0.0000 0.0000 0.0000 -34.3974 0.0000 0.0000
# 5 0.0000 0.0000 0.0000 0.0000 10.0974 0.0000
# 6 0.0000 0.0000 0.0000 0.0000 0.0000 17.4614
#
#
#
# Elastic Compliance Matrix: (Units=1/GPa)
#
#
# Indices 1 2 3 4 5 6 
#
# 1 0.012630 -0.004624 -0.002701 0.000000 0.000000 0.000000
# 2 -0.004624 0.017236 -0.003085 0.000000 0.000000 0.000000
# 3 -0.002701 -0.003085 0.009121 0.000000 0.000000 0.000000
# 4 0.000000 0.000000 0.000000 -0.029072 0.000000 0.000000
# 5 0.000000 0.000000 0.000000 0.000000 0.099035 0.000000
# 6 0.000000 0.000000 0.000000 0.000000 0.000000 0.057269
#
#
# Mechanical properties :
#
#
# Convention : Reuss Voigt Hill
#
# Bulk Modulus (GPa) = 55.04078 58.85818 56.94948
# Shear Modulus (GPa) = 25.89401 11.76635 18.83018
#
# Velocity S-wave (km/s) = 3.70584 2.49809 3.16020
# Velocity P-wave (km/s) = 6.89222 6.28784 6.59695
#
# Compressibility (1/GPa) = 0.01816835
#
# Stress axis : x y z
#
# Youngs Moduli (GPa) = 79.17443 58.01935 109.63202
#
# Poissons Ratio (x) = 0.26826 0.29606
# Poissons Ratio (y) = 0.36608 0.33825
# Poissons Ratio (z) = 0.21381 0.17901
#
# Static dielectric constant tensor:
#      x y z
#    x 1.642980 0.000000 0.000000 
#    y 0.000000 1.710820 0.000000 
#    z 0.000000 0.000000 1.712230 
# 
# From -- ./inp_files/69388.got.cif
#   From: 2010.05.17/outbox.cif.g08.bks.cpg/sg66_35_cif.got.tgz:69388.got - 2010.06.03 17:51:23.
