data_PCOD9497367
_publ_section_title
;
Structure prediction by ZEFSAII (Michael W. Deem and Ramdas Pophale) SiO2 
 PCOD9497367
Probable space group: C C C M
;
_chemical_formula_sum "Si O2"
_cell_formula_units_Z 96
_cell_length_a 15.255158
_cell_length_b 26.469756
_cell_length_c 13.477268
_cell_angle_alpha 90.000000
_cell_angle_beta 90.000000
_cell_angle_gamma 90.000000
_cell_volume 5442.124996
_symmetry_space_group_name_H-M "C C C M"
_symmetry_group_IT_number 66
_symmetry_cell_setting 'orthorhombic'
loop_
_space_group_symop_operation_xyz
x,y,z
-x,-y,z
x,-y,1/2-z
-x,y,1/2-z
-x,-y,-z
x,y,-z
-x,y,1/2+z
x,-y,1/2+z
1/2+x,1/2+y,z
1/2-x,1/2-y,z
1/2+x,1/2-y,1/2-z
1/2-x,1/2+y,1/2-z
1/2-x,1/2-y,-z
1/2+x,1/2+y,-z
1/2-x,1/2+y,1/2+z
1/2+x,1/2-y,1/2+z
loop_
_atom_site_type_symbol
_atom_site_label
_atom_site_fract_x
_atom_site_fract_y
_atom_site_fract_z
Si Si1 0.981308 0.940896 0.886646
Si Si2 0.078619 0.360920 0.692112
Si Si3 0.856991 0.899513 0.713221
Si Si4 0.459456 0.925477 0.000000
Si Si5 0.246838 0.810107 0.117964
Si Si6 0.349807 0.977186 0.500000
Si Si7 0.816223 0.447872 0.287685
O O1 0.914424 0.912119 0.812362
O O2 0.076288 0.915414 0.872758
O O3 0.950896 0.938359 0.000000
O O4 0.000000 0.000000 0.861632
O O5 0.045489 0.392007 0.597771
O O6 0.157153 0.327761 0.651460
O O7 0.119470 0.401713 0.768009
O O8 0.000000 0.334002 0.750000
O O9 0.820057 0.843819 0.685050
O O10 0.771552 0.934872 0.726708
O O11 0.552796 0.953156 0.000000
O O12 0.375588 0.963549 0.000000
O O13 0.250000 0.750000 0.132037
O O14 0.232514 0.820678 0.000000
O O15 0.300022 0.958285 0.402833
O O16 0.857789 0.500000 0.250000
#
# Coordination Sequence:
#
# PCOD9497367 Si02
#       7
#    16  16  16   8  16   8  16
#     4  10  20  37  59  87 120 157 191 232 290 360
#     4  11  21  36  55  80 113 149 187 231 278 332
#     4  10  21  37  57  82 116 148 190 243 292 341
#     4  11  20  34  51  78 115 156 192 222 263 321
#     4  10  22  41  64  86 108 142 193 251 299 349
#     4  11  22  30  50  78 120 163 192 217 259 331
#     4  11  21  32  49  80 115 154 194 225 268 330
#
# _framework density 17.640167000000002
#
# number of rings (size 3 to 8) (size 9 to 14) (size 15 to 20)
#    0.000    1.500    4.167    2.500    1.167    0.333 
#    4.500    0.000    0.000    0.500    0.000    0.000 
#    0.000    0.000    0.000    0.000    0.000    0.000 
#
# Total GULP energy -267451.846441 kJ/mol
# GULP energy per Si atom -5571.913468 kJ/mol
# Density = 1.760002 g / cm^3
# Si number density = 17.640167 Si / 1000 Ang^3
#
#
#
# Elastic Constant Matrix: (Units=GPa)
#
#
# Indices 1 2 3 4 5 6 
#
# 1 75.4130 36.7782 11.7433 0.0000 0.0000 0.0000
# 2 36.7782 99.9286 39.8854 0.0000 0.0000 0.0000
# 3 11.7433 39.8854 108.9236 0.0000 0.0000 0.0000
# 4 0.0000 0.0000 0.0000 22.2639 0.0000 0.0000
# 5 0.0000 0.0000 0.0000 0.0000 26.7422 0.0000
# 6 0.0000 0.0000 0.0000 0.0000 0.0000 13.2194
#
#
#
# Elastic Compliance Matrix: (Units=1/GPa)
#
#
# Indices 1 2 3 4 5 6 
#
# 1 0.016185 -0.006161 0.000511 0.000000 0.000000 0.000000
# 2 -0.006161 0.014065 -0.004486 0.000000 0.000000 0.000000
# 3 0.000511 -0.004486 0.010768 0.000000 0.000000 0.000000
# 4 0.000000 0.000000 0.000000 0.044916 0.000000 0.000000
# 5 0.000000 0.000000 0.000000 0.000000 0.037394 0.000000
# 6 0.000000 0.000000 0.000000 0.000000 0.000000 0.075647
#
#
# Mechanical properties :
#
#
# Convention : Reuss Voigt Hill
#
# Bulk Modulus (GPa) = 48.20003 51.23100 49.71551
# Shear Modulus (GPa) = 22.10794 25.50232 23.80513
#
# Velocity S-wave (km/s) = 3.54400 3.80636 3.67752
# Velocity P-wave (km/s) = 6.64304 6.95867 6.80268
#
# Compressibility (1/GPa) = 0.02074688
#
# Stress axis : x y z
#
# Youngs Moduli (GPa) = 61.78423 71.09730 92.86444
#
# Poissons Ratio (x) = 0.43802 -0.04745
# Poissons Ratio (y) = 0.38065 0.41660
# Poissons Ratio (z) = -0.03157 0.31895
#
# Static dielectric constant tensor:
#      x y z
#    x 1.624000 0.000000 0.000000 
#    y 0.000000 1.591170 0.000000 
#    z 0.000000 0.000000 1.661330 
# 
# From -- ./inp_files/28453.got.cif
#   From: 2010.05.17/outbox.cif.g08.bks.cpg/sg66_15_cif.got.tgz:28453.got - 2010.06.03 17:51:23.
