data_PCOD9497301
_publ_section_title
;
Structure prediction by ZEFSAII (Michael W. Deem and Ramdas Pophale) SiO2 
 PCOD9497301
Probable space group: C C C M
;
_chemical_formula_sum "Si O2"
_cell_formula_units_Z 40
_cell_length_a 18.200091
_cell_length_b 5.025157
_cell_length_c 18.762174
_cell_angle_alpha 90.000000
_cell_angle_beta 90.000000
_cell_angle_gamma 90.000000
_cell_volume 1715.956814
_symmetry_space_group_name_H-M "C C C M"
_symmetry_group_IT_number 66
_symmetry_cell_setting 'orthorhombic'
loop_
_space_group_symop_operation_xyz
x,y,z
-x,-y,z
x,-y,1/2-z
-x,y,1/2-z
-x,-y,-z
x,y,-z
-x,y,1/2+z
x,-y,1/2+z
1/2+x,1/2+y,z
1/2-x,1/2-y,z
1/2+x,1/2-y,1/2-z
1/2-x,1/2+y,1/2-z
1/2-x,1/2-y,-z
1/2+x,1/2+y,-z
1/2-x,1/2+y,1/2+z
1/2+x,1/2-y,1/2+z
loop_
_atom_site_type_symbol
_atom_site_label
_atom_site_fract_x
_atom_site_fract_y
_atom_site_fract_z
Si Si1 0.584544 0.708777 0.872364
Si Si2 0.500000 0.000000 0.000000
Si Si3 0.000000 0.500000 0.750000
Si Si4 0.663922 0.806716 0.418053
O O1 0.616147 0.412507 0.877064
O O2 0.547567 0.806279 0.800099
O O3 0.653097 0.904378 0.886006
O O4 0.530737 0.793992 0.936654
O O5 0.633510 0.811307 0.500000
O O6 0.750000 0.750000 0.420531
#
# Coordination Sequence:
#
# PCOD9497301 Si02
#       4
#    16   4   4  16
#     4  11  23  41  65  96 134 176 219 281 328 407
#     4  10  20  36  62  92 124 176 212 266 332 376
#     4  10  28  44  64  96 140 180 232 266 344 404
#     4  11  22  40  68 100 130 168 224 283 337 394
#
# _framework density 23.310608999999999
#
# number of rings (size 3 to 8) (size 9 to 14) (size 15 to 20)
#    0.000    1.200    4.000    1.200    0.000   14.400 
#    0.000    4.000    0.000    0.000    0.000    0.000 
#    0.000    0.000    0.000    0.000    0.000    0.000 
#
# Total GULP energy -111564.163867 kJ/mol
# GULP energy per Si atom -5578.208193 kJ/mol
# Density = 2.325755 g / cm^3
# Si number density = 23.310609 Si / 1000 Ang^3
#
#
#
# Elastic Constant Matrix: (Units=GPa)
#
#
# Indices 1 2 3 4 5 6 
#
# 1 55.8072 22.1913 26.9062 0.0000 0.0000 0.0000
# 2 22.1913 71.3729 -10.4894 0.0000 0.0000 0.0000
# 3 26.9062 -10.4894 135.8392 0.0000 0.0000 0.0000
# 4 0.0000 0.0000 0.0000 17.6559 0.0000 0.0000
# 5 0.0000 0.0000 0.0000 0.0000 12.7347 0.0000
# 6 0.0000 0.0000 0.0000 0.0000 0.0000 42.8087
#
#
#
# Elastic Compliance Matrix: (Units=1/GPa)
#
#
# Indices 1 2 3 4 5 6 
#
# 1 0.023736 -0.008163 -0.005332 0.000000 0.000000 0.000000
# 2 -0.008163 0.016979 0.002928 0.000000 0.000000 0.000000
# 3 -0.005332 0.002928 0.008644 0.000000 0.000000 0.000000
# 4 0.000000 0.000000 0.000000 0.056638 0.000000 0.000000
# 5 0.000000 0.000000 0.000000 0.000000 0.078526 0.000000
# 6 0.000000 0.000000 0.000000 0.000000 0.000000 0.023360
#
#
# Mechanical properties :
#
#
# Convention : Reuss Voigt Hill
#
# Bulk Modulus (GPa) = 35.43011 37.80395 36.61703
# Shear Modulus (GPa) = 20.97092 29.60059 25.28576
#
# Velocity S-wave (km/s) = 3.00264 3.56734 3.29710
# Velocity P-wave (km/s) = 5.22046 5.76373 5.49881
#
# Compressibility (1/GPa) = 0.02822458
#
# Stress axis : x y z
#
# Youngs Moduli (GPa) = 42.13082 58.89479 115.68938
#
# Poissons Ratio (x) = 0.48079 0.61683
# Poissons Ratio (y) = 0.34393 -0.33875
# Poissons Ratio (z) = 0.22463 -0.17245
#
# Static dielectric constant tensor:
#      x y z
#    x 2.451090 0.000000 0.000000 
#    y 0.000000 1.883600 0.000000 
#    z 0.000000 0.000000 1.860220 
# 
# From -- ./inp_files/42264.got.cif
#   From: 2010.05.17/outbox.cif.g08.bks.cpg/sg66_22_cif.got.tgz:42264.got - 2010.06.03 17:51:23.
