data_PCOD9497030
_publ_section_title
;
Structure prediction by ZEFSAII (Michael W. Deem and Ramdas Pophale) SiO2 
 PCOD9497030
Probable space group: C C C M
;
_chemical_formula_sum "Si O2"
_cell_formula_units_Z 112
_cell_length_a 38.042393
_cell_length_b 9.783022
_cell_length_c 13.654317
_cell_angle_alpha 90.000000
_cell_angle_beta 90.000000
_cell_angle_gamma 90.000000
_cell_volume 5081.721254
_symmetry_space_group_name_H-M "C C C M"
_symmetry_group_IT_number 66
_symmetry_cell_setting 'orthorhombic'
loop_
_space_group_symop_operation_xyz
x,y,z
-x,-y,z
x,-y,1/2-z
-x,y,1/2-z
-x,-y,-z
x,y,-z
-x,y,1/2+z
x,-y,1/2+z
1/2+x,1/2+y,z
1/2-x,1/2-y,z
1/2+x,1/2-y,1/2-z
1/2-x,1/2+y,1/2-z
1/2-x,1/2-y,-z
1/2+x,1/2+y,-z
1/2-x,1/2+y,1/2+z
1/2+x,1/2-y,1/2+z
loop_
_atom_site_type_symbol
_atom_site_label
_atom_site_fract_x
_atom_site_fract_y
_atom_site_fract_z
Si Si1 0.388580 0.026664 0.616847
Si Si2 0.604173 0.567090 0.889539
Si Si3 0.034262 0.588587 0.881061
Si Si4 0.789194 0.292854 0.199454
Si Si5 0.137344 0.816835 0.806381
Si Si6 0.814428 0.568122 0.112113
Si Si7 0.532498 0.405770 0.882263
O O1 0.387349 0.024961 0.500000
O O2 0.429378 0.009616 0.644591
O O3 0.377944 0.175902 0.653725
O O4 0.355576 0.930714 0.645499
O O5 0.628178 0.433166 0.884203
O O6 0.618554 0.652884 0.797843
O O7 0.566329 0.501256 0.865739
O O8 0.603994 0.628009 0.000000
O O9 0.034124 0.747895 0.844789
O O10 0.000000 0.500000 0.854272
O O11 0.034162 0.596187 0.000000
O O12 0.750000 0.250000 0.175724
O O13 0.820618 0.184639 0.200339
O O14 0.801878 0.412246 0.126172
O O15 0.791375 0.351037 0.310022
O O16 0.811646 0.612282 0.000000
O O17 0.500000 0.500000 0.852112
O O18 0.530205 0.390135 0.000000
#
# Coordination Sequence:
#
# PCOD9497030 Si02
#       7
#    16  16  16  16  16  16  16
#     4   9  16  33  60  84 115 155 200 244 289 351
#     4  10  20  35  56  85 116 154 201 246 291 348
#     4   9  16  28  52  86 117 154 202 250 296 351
#     4  10  22  40  59  86 121 151 187 242 303 361
#     4  10  20  35  58  83 111 156 191 240 295 358
#     4   9  20  38  61  87 113 156 199 235 293 361
#     4   9  17  32  53  79 119 161 195 242 306 361
#
# _framework density 22.039776
#
# number of rings (size 3 to 8) (size 9 to 14) (size 15 to 20)
#    0.000    2.571    1.429    0.429    0.000    4.000 
#    2.571    2.857    0.000    0.000    0.000    0.000 
#    0.000    0.571    0.000    0.000    0.000    0.000 
#
# Total GULP energy -312393.947090 kJ/mol
# GULP energy per Si atom -5578.463341 kJ/mol
# Density = 2.198961 g / cm^3
# Si number density = 22.039776 Si / 1000 Ang^3
#
#
#
# Elastic Constant Matrix: (Units=GPa)
#
#
# Indices 1 2 3 4 5 6 
#
# 1 182.6722 31.0968 -2.0126 0.0000 0.0000 0.0000
# 2 31.0968 30.6163 -8.9759 0.0000 0.0000 0.0000
# 3 -2.0126 -8.9759 64.5018 0.0000 0.0000 0.0000
# 4 0.0000 0.0000 0.0000 -6.6507 0.0000 0.0000
# 5 0.0000 0.0000 0.0000 0.0000 13.5181 0.0000
# 6 0.0000 0.0000 0.0000 0.0000 0.0000 9.6984
#
#
#
# Elastic Compliance Matrix: (Units=1/GPa)
#
#
# Indices 1 2 3 4 5 6 
#
# 1 0.006655 -0.006983 -0.000764 0.000000 0.000000 0.000000
# 2 -0.006983 0.041379 0.005540 0.000000 0.000000 0.000000
# 3 -0.000764 0.005540 0.016251 0.000000 0.000000 0.000000
# 4 0.000000 0.000000 0.000000 -0.150359 0.000000 0.000000
# 5 0.000000 0.000000 0.000000 0.000000 0.073975 0.000000
# 6 0.000000 0.000000 0.000000 0.000000 0.000000 0.103110
#
#
# Mechanical properties :
#
#
# Convention : Reuss Voigt Hill
#
# Bulk Modulus (GPa) = 16.70263 35.33410 26.01837
# Shear Modulus (GPa) = 43.33488 20.49195 31.91342
#
# Velocity S-wave (km/s) = 4.43901 3.05252 3.80938
# Velocity P-wave (km/s) = 5.81962 5.33766 5.58384
#
# Compressibility (1/GPa) = 0.05987080
#
# Stress axis : x y z
#
# Youngs Moduli (GPa) = 150.27167 24.16671 61.53629
#
# Poissons Ratio (x) = 0.16876 0.04702
# Poissons Ratio (y) = 1.04936 -0.34093
# Poissons Ratio (z) = 0.11482 -0.13389
#
# Static dielectric constant tensor:
#      x y z
#    x 1.853480 0.000000 0.000000 
#    y 0.000000 1.841470 0.000000 
#    z 0.000000 0.000000 1.827780 
# 
# From -- ./inp_files/33846.got.cif
#   From: 2010.05.17/outbox.cif.g08.bks.cpg/sg66_17_cif.got.tgz:33846.got - 2010.06.03 17:51:23.
