data_PCOD9497232
_publ_section_title
;
Structure prediction by ZEFSAII (Michael W. Deem and Ramdas Pophale) SiO2 
 PCOD9497232
Probable space group: C C C M
;
_chemical_formula_sum "Si O2"
_cell_formula_units_Z 80
_cell_length_a 11.645696
_cell_length_b 23.190879
_cell_length_c 15.202620
_cell_angle_alpha 90.000000
_cell_angle_beta 90.000000
_cell_angle_gamma 90.000000
_cell_volume 4105.831281
_symmetry_space_group_name_H-M "C C C M"
_symmetry_group_IT_number 66
_symmetry_cell_setting 'orthorhombic'
loop_
_space_group_symop_operation_xyz
x,y,z
-x,-y,z
x,-y,1/2-z
-x,y,1/2-z
-x,-y,-z
x,y,-z
-x,y,1/2+z
x,-y,1/2+z
1/2+x,1/2+y,z
1/2-x,1/2-y,z
1/2+x,1/2-y,1/2-z
1/2-x,1/2+y,1/2-z
1/2-x,1/2-y,-z
1/2+x,1/2+y,-z
1/2-x,1/2+y,1/2+z
1/2+x,1/2-y,1/2+z
loop_
_atom_site_type_symbol
_atom_site_label
_atom_site_fract_x
_atom_site_fract_y
_atom_site_fract_z
Si Si1 0.172493 0.358916 0.000000
Si Si2 0.373237 0.519059 0.649790
Si Si3 0.814033 0.150665 0.331182
Si Si4 0.301300 0.001772 0.000000
Si Si5 0.916125 0.614872 0.500000
Si Si6 0.611157 0.844756 0.306012
Si Si7 0.000000 0.766831 0.750000
O O1 0.235787 0.334233 0.085009
O O2 0.175124 0.429503 0.000000
O O3 0.037375 0.351423 0.000000
O O4 0.500000 0.500000 0.622088
O O5 0.354680 0.500000 0.750000
O O6 0.365885 0.588102 0.648070
O O7 0.277631 0.493163 0.585904
O O8 0.724797 0.146105 0.250945
O O9 0.914791 0.194463 0.307445
O O10 0.402724 0.954970 0.000000
O O11 0.869583 0.632407 0.403972
O O12 0.500000 0.870227 0.250000
O O13 0.577581 0.777100 0.306991
#
# Coordination Sequence:
#
# PCOD9497232 Si02
#       7
#     8  16  16   8   8  16   8
#     4  10  21  38  63  90 120 163 215 245 310 389
#     4  10  20  36  59  89 120 162 204 246 309 381
#     4  11  21  41  63  90 125 161 201 265 311 366
#     4  10  22  34  58  89 127 154 205 263 308 369
#     4  12  21  40  60  87 122 173 201 259 320 367
#     4  10  23  39  62  86 123 159 210 258 307 368
#     4  10  22  40  63  88 125 156 208 260 312 364
#
# _framework density 19.484483000000001
#
# number of rings (size 3 to 8) (size 9 to 14) (size 15 to 20)
#    0.600    1.000    2.000    3.600    0.000    0.800 
#    0.000    5.000    0.000    0.000    0.000    0.000 
#    0.000    0.000    0.000    0.000    0.000    0.000 
#
# Total GULP energy -222967.266311 kJ/mol
# GULP energy per Si atom -5574.181658 kJ/mol
# Density = 1.944014 g / cm^3
# Si number density = 19.484483 Si / 1000 Ang^3
#
#
#
# Elastic Constant Matrix: (Units=GPa)
#
#
# Indices 1 2 3 4 5 6 
#
# 1 80.7530 30.4801 26.5510 0.0000 0.0000 0.0000
# 2 30.4801 81.5587 20.6624 0.0000 0.0000 0.0000
# 3 26.5510 20.6624 124.0210 0.0000 0.0000 0.0000
# 4 0.0000 0.0000 0.0000 11.8937 0.0000 0.0000
# 5 0.0000 0.0000 0.0000 0.0000 12.2211 0.0000
# 6 0.0000 0.0000 0.0000 0.0000 0.0000 18.0396
#
#
#
# Elastic Compliance Matrix: (Units=1/GPa)
#
#
# Indices 1 2 3 4 5 6 
#
# 1 0.015065 -0.005025 -0.002388 0.000000 0.000000 0.000000
# 2 -0.005025 0.014478 -0.001336 0.000000 0.000000 0.000000
# 3 -0.002388 -0.001336 0.008797 0.000000 0.000000 0.000000
# 4 0.000000 0.000000 0.000000 0.084078 0.000000 0.000000
# 5 0.000000 0.000000 0.000000 0.000000 0.081825 0.000000
# 6 0.000000 0.000000 0.000000 0.000000 0.000000 0.055433
#
#
# Mechanical properties :
#
#
# Convention : Reuss Voigt Hill
#
# Bulk Modulus (GPa) = 47.98214 49.07994 48.53104
# Shear Modulus (GPa) = 17.59803 22.34019 19.96911
#
# Velocity S-wave (km/s) = 3.00856 3.38977 3.20484
# Velocity P-wave (km/s) = 6.06200 6.36904 6.21741
#
# Compressibility (1/GPa) = 0.02084109
#
# Stress axis : x y z
#
# Youngs Moduli (GPa) = 66.37734 69.07199 113.67495
#
# Poissons Ratio (x) = 0.34710 0.27146
# Poissons Ratio (y) = 0.33356 0.15189
# Poissons Ratio (z) = 0.15851 0.09229
#
# Static dielectric constant tensor:
#      x y z
#    x 1.698450 0.000000 0.000000 
#    y 0.000000 1.681280 0.000000 
#    z 0.000000 0.000000 1.623250 
# 
# From -- ./inp_files/26493.got.cif
#   From: 2010.05.17/outbox.cif.g08.bks.cpg/sg66_14_cif.got.tgz:26493.got - 2010.06.03 17:51:23.
