data_PCOD9497126
_publ_section_title
;
Structure prediction by ZEFSAII (Michael W. Deem and Ramdas Pophale) SiO2 
 PCOD9497126
Probable space group: C C C M
;
_chemical_formula_sum "Si O2"
_cell_formula_units_Z 96
_cell_length_a 19.901391
_cell_length_b 14.418744
_cell_length_c 18.317307
_cell_angle_alpha 90.000000
_cell_angle_beta 90.000000
_cell_angle_gamma 90.000000
_cell_volume 5256.207333
_symmetry_space_group_name_H-M "C C C M"
_symmetry_group_IT_number 66
_symmetry_cell_setting 'orthorhombic'
loop_
_space_group_symop_operation_xyz
x,y,z
-x,-y,z
x,-y,1/2-z
-x,y,1/2-z
-x,-y,-z
x,y,-z
-x,y,1/2+z
x,-y,1/2+z
1/2+x,1/2+y,z
1/2-x,1/2-y,z
1/2+x,1/2-y,1/2-z
1/2-x,1/2+y,1/2-z
1/2-x,1/2-y,-z
1/2+x,1/2+y,-z
1/2-x,1/2+y,1/2+z
1/2+x,1/2-y,1/2+z
loop_
_atom_site_type_symbol
_atom_site_label
_atom_site_fract_x
_atom_site_fract_y
_atom_site_fract_z
Si Si1 0.957716 0.094117 0.083447
Si Si2 0.433487 0.061342 0.082224
Si Si3 0.038087 0.253651 0.173298
Si Si4 0.676041 0.751428 0.748692
Si Si5 0.823793 0.550705 0.327112
Si Si6 0.173069 0.942515 0.825166
O O1 0.888207 0.059503 0.119338
O O2 0.997117 0.172794 0.130748
O O3 0.948457 0.127788 0.000000
O O4 0.000000 0.000000 0.081987
O O5 0.453784 0.153067 0.126666
O O6 0.500000 0.000000 0.079236
O O7 0.376935 0.997748 0.120231
O O8 0.412569 0.086462 0.000000
O O9 0.114999 0.232492 0.196346
O O10 0.000000 0.270532 0.250000
O O11 0.750000 0.750000 0.785495
O O12 0.665166 0.842452 0.698056
O O13 0.679158 0.664224 0.696475
O O14 0.829759 0.500000 0.250000
O O15 0.747391 0.532341 0.353581
O O16 0.159853 0.000000 0.750000
#
# Coordination Sequence:
#
# PCOD9497126 Si02
#       6
#    16  16  16  16  16  16
#     4  11  25  41  59  89 127 161 201 260 316 369
#     4  11  25  40  58  89 128 161 201 258 316 376
#     4  12  22  38  67  91 119 167 209 254 309 372
#     4  10  20  35  60  95 120 150 205 260 300 356
#     4  10  20  38  62  90 121 161 206 253 303 368
#     4  10  21  38  63  92 120 159 211 259 301 366
#
# _framework density 18.264119000000001
#
# number of rings (size 3 to 8) (size 9 to 14) (size 15 to 20)
#    0.000    1.333    3.333    2.500    0.000    0.667 
#    0.000    0.000    0.000    4.000    0.000    0.000 
#    0.000    0.000    0.000    0.000    0.000    0.000 
#
# Total GULP energy -267497.402765 kJ/mol
# GULP energy per Si atom -5572.862558 kJ/mol
# Density = 1.822255 g / cm^3
# Si number density = 18.264119 Si / 1000 Ang^3
#
#
#
# Elastic Constant Matrix: (Units=GPa)
#
#
# Indices 1 2 3 4 5 6 
#
# 1 153.2306 34.4972 86.0404 0.0000 0.0000 0.0000
# 2 34.4972 105.1764 51.6019 0.0000 0.0000 0.0000
# 3 86.0404 51.6019 112.3096 0.0000 0.0000 0.0000
# 4 0.0000 0.0000 0.0000 18.3234 0.0000 0.0000
# 5 0.0000 0.0000 0.0000 0.0000 -35.3450 0.0000
# 6 0.0000 0.0000 0.0000 0.0000 0.0000 30.1476
#
#
#
# Elastic Compliance Matrix: (Units=1/GPa)
#
#
# Indices 1 2 3 4 5 6 
#
# 1 0.011494 0.000710 -0.009132 0.000000 0.000000 0.000000
# 2 0.000710 0.012319 -0.006204 0.000000 0.000000 0.000000
# 3 -0.009132 -0.006204 0.018750 0.000000 0.000000 0.000000
# 4 0.000000 0.000000 0.000000 0.054575 0.000000 0.000000
# 5 0.000000 0.000000 0.000000 0.000000 -0.028293 0.000000
# 6 0.000000 0.000000 0.000000 0.000000 0.000000 0.033170
#
#
# Mechanical properties :
#
#
# Convention : Reuss Voigt Hill
#
# Bulk Modulus (GPa) = 75.12178 79.44396 77.28287
# Shear Modulus (GPa) = 36.84488 15.86366 26.35427
#
# Velocity S-wave (km/s) = 4.49635 2.95035 3.80274
# Velocity P-wave (km/s) = 8.25689 7.42952 7.85411
#
# Compressibility (1/GPa) = 0.01331172
#
# Stress axis : x y z
#
# Youngs Moduli (GPa) = 87.00387 81.17704 53.33225
#
# Poissons Ratio (x) = -0.05766 0.48702
# Poissons Ratio (y) = -0.06180 0.33088
# Poissons Ratio (z) = 0.79450 0.50364
#
# Static dielectric constant tensor:
#      x y z
#    x 1.784550 0.000000 0.000000 
#    y 0.000000 1.650330 0.000000 
#    z 0.000000 0.000000 1.617780 
# 
# From -- ./inp_files/31219.got.cif
#   From: 2010.05.17/outbox.cif.g08.bks.cpg/sg66_16_cif.got.tgz:31219.got - 2010.06.03 17:51:23.
