data_PCOD9497133
_publ_section_title
;
Structure prediction by ZEFSAII (Michael W. Deem and Ramdas Pophale) SiO2 
 PCOD9497133
Probable space group: C C C M
;
_chemical_formula_sum "Si O2"
_cell_formula_units_Z 64
_cell_length_a 8.997429
_cell_length_b 15.784833
_cell_length_c 21.192206
_cell_angle_alpha 90.000000
_cell_angle_beta 90.000000
_cell_angle_gamma 90.000000
_cell_volume 3009.778854
_symmetry_space_group_name_H-M "C C C M"
_symmetry_group_IT_number 66
_symmetry_cell_setting 'orthorhombic'
loop_
_space_group_symop_operation_xyz
x,y,z
-x,-y,z
x,-y,1/2-z
-x,y,1/2-z
-x,-y,-z
x,y,-z
-x,y,1/2+z
x,-y,1/2+z
1/2+x,1/2+y,z
1/2-x,1/2-y,z
1/2+x,1/2-y,1/2-z
1/2-x,1/2+y,1/2-z
1/2-x,1/2-y,-z
1/2+x,1/2+y,-z
1/2-x,1/2+y,1/2+z
1/2+x,1/2-y,1/2+z
loop_
_atom_site_type_symbol
_atom_site_label
_atom_site_fract_x
_atom_site_fract_y
_atom_site_fract_z
Si Si1 0.524558 0.694355 0.123091
Si Si2 0.670793 0.981601 0.000000
Si Si3 0.831322 0.378560 0.369753
Si Si4 0.250000 0.750000 0.799842
Si Si5 0.568190 0.405693 0.000000
Si Si6 0.500000 0.124791 0.750000
O O1 0.665023 0.645853 0.153592
O O2 0.583735 0.790414 0.113273
O O3 0.371072 0.697034 0.160853
O O4 0.485323 0.646945 0.059263
O O5 0.695234 0.931086 0.934151
O O6 0.500000 0.000000 0.000000
O O7 0.759116 0.070204 0.000000
O O8 0.934211 0.417306 0.313954
O O9 0.359981 0.814380 0.765091
O O10 0.500000 0.500000 0.000000
#
# Coordination Sequence:
#
# PCOD9497133 Si02
#       6
#    16   8  16   8   8   8
#     4  10  21  37  64  91 128 159 217 256 316 371
#     4  12  27  41  64  89 133 167 211 261 327 376
#     4  10  21  42  63  95 126 165 208 270 318 372
#     4  10  20  35  62  93 120 160 210 270 304 366
#     4  12  23  40  61  91 125 175 209 252 317 390
#     4  10  20  36  63  94 121 162 210 262 316 364
#
# _framework density 21.264019999999999
#
# number of rings (size 3 to 8) (size 9 to 14) (size 15 to 20)
#    0.000    1.500    2.500    3.750    7.000    2.500 
#    0.000    0.625    0.000    0.000    0.000    0.000 
#    0.000    0.000    0.000    0.000    0.000    0.000 
#
# Total GULP energy -178364.968125 kJ/mol
# GULP energy per Si atom -5573.905254 kJ/mol
# Density = 2.121562 g / cm^3
# Si number density = 21.264020 Si / 1000 Ang^3
#
#
#
# Elastic Constant Matrix: (Units=GPa)
#
#
# Indices 1 2 3 4 5 6 
#
# 1 200.6618 43.6679 63.3685 0.0000 0.0000 0.0000
# 2 43.6679 62.0759 45.9463 0.0000 0.0000 0.0000
# 3 63.3685 45.9463 138.9808 0.0000 0.0000 0.0000
# 4 0.0000 0.0000 0.0000 -76.2712 0.0000 0.0000
# 5 0.0000 0.0000 0.0000 0.0000 36.0116 0.0000
# 6 0.0000 0.0000 0.0000 0.0000 0.0000 26.7352
#
#
#
# Elastic Compliance Matrix: (Units=1/GPa)
#
#
# Indices 1 2 3 4 5 6 
#
# 1 0.006220 -0.003014 -0.001840 0.000000 0.000000 0.000000
# 2 -0.003014 0.022789 -0.006160 0.000000 0.000000 0.000000
# 3 -0.001840 -0.006160 0.010070 0.000000 0.000000 0.000000
# 4 0.000000 0.000000 0.000000 -0.013111 0.000000 0.000000
# 5 0.000000 0.000000 0.000000 0.000000 0.027769 0.000000
# 6 0.000000 0.000000 0.000000 0.000000 0.000000 0.037404
#
#
# Mechanical properties :
#
#
# Convention : Reuss Voigt Hill
#
# Bulk Modulus (GPa) = 58.64174 78.63155 68.63664
# Shear Modulus (GPa) = 42.06907 13.87750 27.97328
#
# Velocity S-wave (km/s) = 4.45276 2.55743 3.63095
# Velocity P-wave (km/s) = 7.35350 6.76606 7.06589
#
# Compressibility (1/GPa) = 0.01705270
#
# Stress axis : x y z
#
# Youngs Moduli (GPa) = 160.76055 43.88144 99.30099
#
# Poissons Ratio (x) = 0.13226 0.18269
# Poissons Ratio (y) = 0.48455 0.61165
# Poissons Ratio (z) = 0.29576 0.27029
#
# Static dielectric constant tensor:
#      x y z
#    x 1.879090 0.000000 0.000000 
#    y 0.000000 1.807990 0.000000 
#    z 0.000000 0.000000 1.888510 
# 
# From -- ./inp_files/55089.got.cif
#   From: 2010.05.17/outbox.cif.g08.bks.cpg/sg66_28_cif.got.tgz:55089.got - 2010.06.03 17:51:23.
