data_PCOD9497114
_publ_section_title
;
Structure prediction by ZEFSAII (Michael W. Deem and Ramdas Pophale) SiO2 
 PCOD9497114
Probable space group: C C C M
;
_chemical_formula_sum "Si O2"
_cell_formula_units_Z 88
_cell_length_a 12.780957
_cell_length_b 22.852322
_cell_length_c 14.225299
_cell_angle_alpha 90.000000
_cell_angle_beta 90.000000
_cell_angle_gamma 90.000000
_cell_volume 4154.847731
_symmetry_space_group_name_H-M "C C C M"
_symmetry_group_IT_number 66
_symmetry_cell_setting 'orthorhombic'
loop_
_space_group_symop_operation_xyz
x,y,z
-x,-y,z
x,-y,1/2-z
-x,y,1/2-z
-x,-y,-z
x,y,-z
-x,y,1/2+z
x,-y,1/2+z
1/2+x,1/2+y,z
1/2-x,1/2-y,z
1/2+x,1/2-y,1/2-z
1/2-x,1/2+y,1/2-z
1/2-x,1/2-y,-z
1/2+x,1/2+y,-z
1/2-x,1/2+y,1/2+z
1/2+x,1/2-y,1/2+z
loop_
_atom_site_type_symbol
_atom_site_label
_atom_site_fract_x
_atom_site_fract_y
_atom_site_fract_z
Si Si1 0.499502 0.936712 0.392663
Si Si2 0.678448 0.354694 0.213183
Si Si3 0.745216 0.920342 0.100886
Si Si4 0.887254 0.677302 0.385999
Si Si5 0.500000 0.263650 0.750000
Si Si6 0.111309 0.022986 0.356552
O O1 0.538941 0.943876 0.500000
O O2 0.379462 0.918342 0.396788
O O3 0.571093 0.886302 0.352691
O O4 0.500000 0.000000 0.348002
O O5 0.718234 0.387542 0.306323
O O6 0.770145 0.322135 0.155644
O O7 0.597697 0.307411 0.252724
O O8 0.627861 0.407005 0.148802
O O9 0.791012 0.986591 0.102823
O O10 0.780498 0.894770 0.000000
O O11 0.888164 0.682151 0.500000
O O12 0.967495 0.722726 0.337947
O O13 0.108725 0.000000 0.250000
O O14 0.000000 0.000000 0.396565
#
# Coordination Sequence:
#
# PCOD9497114 Si02
#       6
#    16  16  16  16   8  16
#     4   9  18  35  60  90 122 153 191 248 318 389
#     4  11  23  41  64  89 127 175 220 269 331 396
#     4  10  20  35  59  93 129 165 209 263 328 401
#     4  11  25  45  69  97 128 168 223 280 335 405
#     4  12  26  44  64  88 124 168 220 282 332 378
#     4   9  18  35  57  88 129 171 217 269 328 397
#
# _framework density 21.180078999999999
#
# number of rings (size 3 to 8) (size 9 to 14) (size 15 to 20)
#    0.000    1.818    0.000    4.909    0.000    4.727 
#    0.000    5.000    0.000    5.455    0.000    0.000 
#    0.000    0.000    0.000    0.000    0.000    0.000 
#
# Total GULP energy -245325.028050 kJ/mol
# GULP energy per Si atom -5575.568819 kJ/mol
# Density = 2.113187 g / cm^3
# Si number density = 21.180079 Si / 1000 Ang^3
#
#
#
# Elastic Constant Matrix: (Units=GPa)
#
#
# Indices 1 2 3 4 5 6 
#
# 1 104.7399 42.7200 35.1752 0.0000 0.0000 0.0000
# 2 42.7200 115.0063 37.7166 0.0000 0.0000 0.0000
# 3 35.1752 37.7166 126.2498 0.0000 0.0000 0.0000
# 4 0.0000 0.0000 0.0000 23.3811 0.0000 0.0000
# 5 0.0000 0.0000 0.0000 0.0000 74.5300 0.0000
# 6 0.0000 0.0000 0.0000 0.0000 0.0000 36.2791
#
#
#
# Elastic Compliance Matrix: (Units=1/GPa)
#
#
# Indices 1 2 3 4 5 6 
#
# 1 0.011773 -0.003656 -0.002188 0.000000 0.000000 0.000000
# 2 -0.003656 0.010775 -0.002200 0.000000 0.000000 0.000000
# 3 -0.002188 -0.002200 0.009188 0.000000 0.000000 0.000000
# 4 0.000000 0.000000 0.000000 0.042770 0.000000 0.000000
# 5 0.000000 0.000000 0.000000 0.000000 0.013417 0.000000
# 6 0.000000 0.000000 0.000000 0.000000 0.000000 0.027564
#
#
# Mechanical properties :
#
#
# Convention : Reuss Voigt Hill
#
# Bulk Modulus (GPa) = 63.90796 64.13551 64.02174
# Shear Modulus (GPa) = 36.55206 42.19698 39.37452
#
# Velocity S-wave (km/s) = 4.15875 4.46836 4.31633
# Velocity P-wave (km/s) = 7.30065 7.54774 7.42522
#
# Compressibility (1/GPa) = 0.01564750
#
# Stress axis : x y z
#
# Youngs Moduli (GPa) = 84.93764 92.80977 108.84001
#
# Poissons Ratio (x) = 0.33928 0.23815
# Poissons Ratio (y) = 0.31051 0.23949
# Poissons Ratio (z) = 0.18585 0.20422
#
# Static dielectric constant tensor:
#      x y z
#    x 1.766200 0.000000 0.000000 
#    y 0.000000 1.799730 0.000000 
#    z 0.000000 0.000000 1.787540 
# 
# From -- ./inp_files/28225.got.cif
#   From: 2010.05.17/outbox.cif.g08.bks.cpg/sg66_15_cif.got.tgz:28225.got - 2010.06.03 17:51:23.
