data_PCOD9497538
_publ_section_title
;
Structure prediction by ZEFSAII (Michael W. Deem and Ramdas Pophale) SiO2 
 PCOD9497538
Probable space group: C C C M
;
_chemical_formula_sum "Si O2"
_cell_formula_units_Z 72
_cell_length_a 22.804740
_cell_length_b 5.228466
_cell_length_c 28.356262
_cell_angle_alpha 90.000000
_cell_angle_beta 90.000000
_cell_angle_gamma 90.000000
_cell_volume 3381.025091
_symmetry_space_group_name_H-M "C C C M"
_symmetry_group_IT_number 66
_symmetry_cell_setting 'orthorhombic'
loop_
_space_group_symop_operation_xyz
x,y,z
-x,-y,z
x,-y,1/2-z
-x,y,1/2-z
-x,-y,-z
x,y,-z
-x,y,1/2+z
x,-y,1/2+z
1/2+x,1/2+y,z
1/2-x,1/2-y,z
1/2+x,1/2-y,1/2-z
1/2-x,1/2+y,1/2-z
1/2-x,1/2-y,-z
1/2+x,1/2+y,-z
1/2-x,1/2+y,1/2+z
1/2+x,1/2-y,1/2+z
loop_
_atom_site_type_symbol
_atom_site_label
_atom_site_fract_x
_atom_site_fract_y
_atom_site_fract_z
Si Si1 0.124348 0.860737 0.633020
Si Si2 0.462944 0.759952 0.553382
Si Si3 0.208553 0.493294 0.500000
Si Si4 0.433016 0.745598 0.271073
Si Si5 0.685922 0.879299 0.606706
O O1 0.091753 0.800027 0.584868
O O2 0.076855 0.792796 0.673706
O O3 0.175552 0.645794 0.634532
O O4 0.144318 0.155429 0.628169
O O5 0.500000 0.500000 0.552828
O O6 0.446068 0.825306 0.500000
O O7 0.500000 0.000000 0.572210
O O8 0.250000 0.250000 0.500000
O O9 0.176899 0.451883 0.550846
O O10 0.250000 0.750000 0.500000
O O11 0.401917 0.500000 0.250000
O O12 0.500000 0.745618 0.250000
O O13 0.406083 0.000000 0.250000
O O14 0.750000 0.750000 0.609930
#
# Coordination Sequence:
#
# PCOD9497538 Si02
#       5
#    16  16   8  16  16
#     4  12  24  39  71  94 128 181 220 270 346 390
#     4  10  23  39  58  89 135 173 214 262 324 409
#     4  10  20  38  62  92 134 182 228 278 314 358
#     4  10  23  41  66  94 126 158 214 289 338 402
#     4  11  24  41  64  97 138 177 227 271 317 394
#
# _framework density 21.295318999999999
#
# number of rings (size 3 to 8) (size 9 to 14) (size 15 to 20)
#    0.000    1.333    0.000    6.000    9.333    0.000 
#    0.000    0.000    0.000   13.333    0.000    0.000 
#    0.000    0.000    0.000    0.000    0.000    0.000 
#
# Total GULP energy -200521.018566 kJ/mol
# GULP energy per Si atom -5570.028294 kJ/mol
# Density = 2.124685 g / cm^3
# Si number density = 21.295319 Si / 1000 Ang^3
#
#
#
# Elastic Constant Matrix: (Units=GPa)
#
#
# Indices 1 2 3 4 5 6 
#
# 1 47.9818 8.7779 29.0648 0.0000 0.0000 0.0000
# 2 8.7779 171.3519 20.3033 0.0000 0.0000 0.0000
# 3 29.0648 20.3033 67.1303 0.0000 0.0000 0.0000
# 4 0.0000 0.0000 0.0000 31.0129 0.0000 0.0000
# 5 0.0000 0.0000 0.0000 0.0000 20.7812 0.0000
# 6 0.0000 0.0000 0.0000 0.0000 0.0000 5.2756
#
#
#
# Elastic Compliance Matrix: (Units=1/GPa)
#
#
# Indices 1 2 3 4 5 6 
#
# 1 0.028250 0.000002 -0.012232 0.000000 0.000000 0.000000
# 2 0.000002 0.006053 -0.001832 0.000000 0.000000 0.000000
# 3 -0.012232 -0.001832 0.020746 0.000000 0.000000 0.000000
# 4 0.000000 0.000000 0.000000 0.032245 0.000000 0.000000
# 5 0.000000 0.000000 0.000000 0.000000 0.048120 0.000000
# 6 0.000000 0.000000 0.000000 0.000000 0.000000 0.189551
#
#
# Mechanical properties :
#
#
# Convention : Reuss Voigt Hill
#
# Bulk Modulus (GPa) = 37.13784 44.75067 40.94426
# Shear Modulus (GPa) = 13.80973 26.63515 20.22244
#
# Velocity S-wave (km/s) = 2.54930 3.54043 3.08493
# Velocity P-wave (km/s) = 5.11298 6.14596 5.65311
#
# Compressibility (1/GPa) = 0.02692671
#
# Stress axis : x y z
#
# Youngs Moduli (GPa) = 35.39790 165.21121 48.20135
#
# Poissons Ratio (x) = -0.00036 0.58960
# Poissons Ratio (y) = -0.00008 0.08829
# Poissons Ratio (z) = 0.43298 0.30260
#
# Static dielectric constant tensor:
#      x y z
#    x 1.919570 0.000000 0.000000 
#    y 0.000000 1.878720 0.000000 
#    z 0.000000 0.000000 1.929900 
# 
# From -- ./inp_files/65934.got.cif
#   From: 2010.05.17/outbox.cif.g08.bks.cpg/sg66_33_cif.got.tgz:65934.got - 2010.06.03 17:51:23.
