data_PCOD9497717
_publ_section_title
;
Structure prediction by ZEFSAII (Michael W. Deem and Ramdas Pophale) SiO2 
 PCOD9497717
Probable space group: C C C M
;
_chemical_formula_sum "Si O2"
_cell_formula_units_Z 60
_cell_length_a 13.310354
_cell_length_b 14.615635
_cell_length_c 15.044021
_cell_angle_alpha 90.000000
_cell_angle_beta 90.000000
_cell_angle_gamma 90.000000
_cell_volume 2926.652950
_symmetry_space_group_name_H-M "C C C M"
_symmetry_group_IT_number 66
_symmetry_cell_setting 'orthorhombic'
loop_
_space_group_symop_operation_xyz
x,y,z
-x,-y,z
x,-y,1/2-z
-x,y,1/2-z
-x,-y,-z
x,y,-z
-x,y,1/2+z
x,-y,1/2+z
1/2+x,1/2+y,z
1/2-x,1/2-y,z
1/2+x,1/2-y,1/2-z
1/2-x,1/2+y,1/2-z
1/2-x,1/2-y,-z
1/2+x,1/2+y,-z
1/2-x,1/2+y,1/2+z
1/2+x,1/2-y,1/2+z
loop_
_atom_site_type_symbol
_atom_site_label
_atom_site_fract_x
_atom_site_fract_y
_atom_site_fract_z
Si Si1 0.000000 0.500000 0.000000
Si Si2 0.500000 0.221522 0.750000
Si Si3 0.134068 0.432300 0.165086
Si Si4 0.139838 0.969820 0.351145
Si Si5 0.947131 0.148463 0.903027
O O1 0.918797 0.526997 0.078810
O O2 0.423125 0.159278 0.805375
O O3 0.560007 0.283042 0.820930
O O4 0.125118 0.500000 0.250000
O O5 0.252458 0.422759 0.146933
O O6 0.052920 0.904756 0.388569
O O7 0.116501 0.000000 0.250000
O O8 0.134890 0.067700 0.399928
O O9 0.945795 0.193774 0.000000
#
# Coordination Sequence:
#
# PCOD9497717 Si02
#       5
#     4   8  16  16  16
#     4  12  22  44  68  92 124 190 222 266 322 412
#     4  12  23  45  58 102 140 168 210 281 337 378
#     4  11  25  43  67  91 132 179 224 267 328 405
#     4  10  20  44  67  94 131 182 218 267 332 400
#     4  11  23  40  68  99 136 168 218 279 332 388
#
# _framework density 20.501235000000001
#
# number of rings (size 3 to 8) (size 9 to 14) (size 15 to 20)
#    0.000    1.067    5.333    2.400    5.600    1.067 
#    0.000    1.333    0.000    4.800    0.000    0.000 
#    0.000    0.000    0.000    0.000    0.000    0.000 
#
# Total GULP energy -167086.622331 kJ/mol
# GULP energy per Si atom -5569.554078 kJ/mol
# Density = 2.045457 g / cm^3
# Si number density = 20.501235 Si / 1000 Ang^3
#
#
#
# Elastic Constant Matrix: (Units=GPa)
#
#
# Indices 1 2 3 4 5 6 
#
# 1 96.0904 17.6121 5.6659 0.0000 0.0000 0.0000
# 2 17.6121 42.2817 5.5606 0.0000 0.0000 0.0000
# 3 5.6659 5.5606 157.5462 0.0000 0.0000 0.0000
# 4 0.0000 0.0000 0.0000 9.0676 0.0000 0.0000
# 5 0.0000 0.0000 0.0000 0.0000 30.2298 0.0000
# 6 0.0000 0.0000 0.0000 0.0000 0.0000 11.4243
#
#
#
# Elastic Compliance Matrix: (Units=1/GPa)
#
#
# Indices 1 2 3 4 5 6 
#
# 1 0.011276 -0.004665 -0.000241 0.000000 0.000000 0.000000
# 2 -0.004665 0.025691 -0.000739 0.000000 0.000000 0.000000
# 3 -0.000241 -0.000739 0.006382 0.000000 0.000000 0.000000
# 4 0.000000 0.000000 0.000000 0.110282 0.000000 0.000000
# 5 0.000000 0.000000 0.000000 0.000000 0.033080 0.000000
# 6 0.000000 0.000000 0.000000 0.000000 0.000000 0.087533
#
#
# Mechanical properties :
#
#
# Convention : Reuss Voigt Hill
#
# Bulk Modulus (GPa) = 31.19220 39.28837 35.24029
# Shear Modulus (GPa) = 16.87929 27.94967 22.41448
#
# Velocity S-wave (km/s) = 2.87249 3.69632 3.31013
# Velocity P-wave (km/s) = 5.12342 6.11740 5.64234
#
# Compressibility (1/GPa) = 0.03205929
#
# Stress axis : x y z
#
# Youngs Moduli (GPa) = 88.68267 38.92355 156.68845
#
# Poissons Ratio (x) = 0.18159 0.03774
# Poissons Ratio (y) = 0.41373 0.11579
# Poissons Ratio (z) = 0.02136 0.02876
#
# Static dielectric constant tensor:
#      x y z
#    x 1.734040 0.000000 0.000000 
#    y 0.000000 1.757980 0.000000 
#    z 0.000000 0.000000 1.754590 
# 
# From -- ./inp_files/27772.got.cif
#   From: 2010.05.17/outbox.cif.g08.bks.cpg/sg66_14_cif.got.tgz:27772.got - 2010.06.03 17:51:23.
