data_PCOD9497637
_publ_section_title
;
Structure prediction by ZEFSAII (Michael W. Deem and Ramdas Pophale) SiO2 
 PCOD9497637
Probable space group: C C C M
;
_chemical_formula_sum "Si O2"
_cell_formula_units_Z 92
_cell_length_a 22.951013
_cell_length_b 9.037435
_cell_length_c 21.669408
_cell_angle_alpha 90.000000
_cell_angle_beta 90.000000
_cell_angle_gamma 90.000000
_cell_volume 4494.631513
_symmetry_space_group_name_H-M "C C C M"
_symmetry_group_IT_number 66
_symmetry_cell_setting 'orthorhombic'
loop_
_space_group_symop_operation_xyz
x,y,z
-x,-y,z
x,-y,1/2-z
-x,y,1/2-z
-x,-y,-z
x,y,-z
-x,y,1/2+z
x,-y,1/2+z
1/2+x,1/2+y,z
1/2-x,1/2-y,z
1/2+x,1/2-y,1/2-z
1/2-x,1/2+y,1/2-z
1/2-x,1/2-y,-z
1/2+x,1/2+y,-z
1/2-x,1/2+y,1/2+z
1/2+x,1/2-y,1/2+z
loop_
_atom_site_type_symbol
_atom_site_label
_atom_site_fract_x
_atom_site_fract_y
_atom_site_fract_z
Si Si1 0.111991 0.000000 0.750000
Si Si2 0.424168 0.236088 0.675420
Si Si3 0.640077 0.197818 0.426919
Si Si4 0.505201 0.177891 0.570676
Si Si5 0.208219 0.886710 0.341107
Si Si6 0.500000 0.000000 0.250000
Si Si7 0.680800 0.040458 0.176799
O O1 0.073844 0.882432 0.785321
O O2 0.154322 0.912007 0.703566
O O3 0.457973 0.255798 0.612357
O O4 0.458249 0.104009 0.709830
O O5 0.357089 0.187188 0.667951
O O6 0.648054 0.159393 0.500000
O O7 0.571506 0.226436 0.417370
O O8 0.681627 0.333490 0.406305
O O9 0.654914 0.072655 0.375279
O O10 0.492026 0.205758 0.500000
O O11 0.500000 0.000000 0.580301
O O12 0.250000 0.750000 0.319789
O O13 0.250493 0.028306 0.337639
O O14 0.673881 0.000000 0.250000
#
# Coordination Sequence:
#
# PCOD9497637 Si02
#       7
#     8  16  16  16  16   4  16
#     4  12  28  40  64 102 145 179 228 292 364 410
#     4  12  24  40  64 101 136 179 228 287 345 423
#     4  10  21  40  67 101 135 179 242 297 349 426
#     4  10  20  39  67  97 132 182 237 286 343 419
#     4  10  23  41  63  93 131 183 232 284 353 421
#     4  12  24  40  66  92 130 182 224 278 338 410
#     4  11  20  37  64  93 135 173 228 290 350 413
#
# _framework density 20.468862999999999
#
# number of rings (size 3 to 8) (size 9 to 14) (size 15 to 20)
#    0.000    1.217    4.348    2.087    2.435    3.478 
#    0.000    0.870    0.000    2.087    0.000    7.304 
#    0.000    0.000    0.000    0.000    0.000    0.000 
#
# Total GULP energy -256733.711339 kJ/mol
# GULP energy per Si atom -5581.167638 kJ/mol
# Density = 2.042228 g / cm^3
# Si number density = 20.468863 Si / 1000 Ang^3
#
#
#
# Elastic Constant Matrix: (Units=GPa)
#
#
# Indices 1 2 3 4 5 6 
#
# 1 92.5181 39.3640 60.5618 0.0000 0.0000 0.0000
# 2 39.3640 60.9942 41.2646 0.0000 0.0000 0.0000
# 3 60.5618 41.2646 135.2407 0.0000 0.0000 0.0000
# 4 0.0000 0.0000 0.0000 6.9176 0.0000 0.0000
# 5 0.0000 0.0000 0.0000 0.0000 37.5623 0.0000
# 6 0.0000 0.0000 0.0000 0.0000 0.0000 10.2678
#
#
#
# Elastic Compliance Matrix: (Units=1/GPa)
#
#
# Indices 1 2 3 4 5 6 
#
# 1 0.017735 -0.007652 -0.005607 0.000000 0.000000 0.000000
# 2 -0.007652 0.023962 -0.003884 0.000000 0.000000 0.000000
# 3 -0.005607 -0.003884 0.011090 0.000000 0.000000 0.000000
# 4 0.000000 0.000000 0.000000 0.144559 0.000000 0.000000
# 5 0.000000 0.000000 0.000000 0.000000 0.026622 0.000000
# 6 0.000000 0.000000 0.000000 0.000000 0.000000 0.097392
#
#
# Mechanical properties :
#
#
# Convention : Reuss Voigt Hill
#
# Bulk Modulus (GPa) = 54.05585 63.45930 58.75758
# Shear Modulus (GPa) = 13.81927 20.78703 17.30315
#
# Velocity S-wave (km/s) = 2.60116 3.19022 2.91063
# Velocity P-wave (km/s) = 5.95714 6.68133 6.32960
#
# Compressibility (1/GPa) = 0.01849939
#
# Stress axis : x y z
#
# Youngs Moduli (GPa) = 56.38633 41.73361 90.16932
#
# Poissons Ratio (x) = 0.31936 0.50557
# Poissons Ratio (y) = 0.43148 0.35025
# Poissons Ratio (z) = 0.31615 0.16211
#
# Static dielectric constant tensor:
#      x y z
#    x 1.745230 0.000000 0.000000 
#    y 0.000000 1.762280 0.000000 
#    z 0.000000 0.000000 1.730020 
# 
# From -- ./inp_files/52434.got.cif
#   From: 2010.05.17/outbox.cif.g08.bks.cpg/sg66_27_cif.got.tgz:52434.got - 2010.06.03 17:51:23.
