data_PCOD9497783
_publ_section_title
;
Structure prediction by ZEFSAII (Michael W. Deem and Ramdas Pophale) SiO2 
 PCOD9497783
Probable space group: C C C M
;
_chemical_formula_sum "Si O2"
_cell_formula_units_Z 112
_cell_length_a 21.752025
_cell_length_b 11.585548
_cell_length_c 26.111673
_cell_angle_alpha 90.000000
_cell_angle_beta 90.000000
_cell_angle_gamma 90.000000
_cell_volume 6580.379989
_symmetry_space_group_name_H-M "C C C M"
_symmetry_group_IT_number 66
_symmetry_cell_setting 'orthorhombic'
loop_
_space_group_symop_operation_xyz
x,y,z
-x,-y,z
x,-y,1/2-z
-x,y,1/2-z
-x,-y,-z
x,y,-z
-x,y,1/2+z
x,-y,1/2+z
1/2+x,1/2+y,z
1/2-x,1/2-y,z
1/2+x,1/2-y,1/2-z
1/2-x,1/2+y,1/2-z
1/2-x,1/2-y,-z
1/2+x,1/2+y,-z
1/2-x,1/2+y,1/2+z
1/2+x,1/2-y,1/2+z
loop_
_atom_site_type_symbol
_atom_site_label
_atom_site_fract_x
_atom_site_fract_y
_atom_site_fract_z
Si Si1 0.246690 0.115783 0.655016
Si Si2 0.635591 0.627456 0.262270
Si Si3 0.747415 0.048913 0.442646
Si Si4 0.347808 0.752077 0.443929
Si Si5 0.377572 0.985340 0.189002
Si Si6 0.400308 0.752429 0.337702
Si Si7 0.468699 0.796291 0.802855
O O1 0.250000 0.250000 0.639780
O O2 0.195302 0.112613 0.700829
O O3 0.312387 0.073411 0.676709
O O4 0.237364 0.035747 0.604605
O O5 0.612152 0.500000 0.250000
O O6 0.640367 0.688942 0.206258
O O7 0.584518 0.704692 0.290279
O O8 0.746080 0.994628 0.500000
O O9 0.684559 0.122859 0.435796
O O10 0.796618 0.152139 0.444717
O O11 0.377782 0.754229 0.500000
O O12 0.387158 0.718967 0.395311
O O13 0.433459 0.902841 0.171653
O O14 0.381328 0.000000 0.250000
O O15 0.384710 0.112531 0.167273
O O16 0.472928 0.738406 0.328959
O O17 0.500000 0.839327 0.750000
#
# Coordination Sequence:
#
# PCOD9497783 Si02
#       7
#    16  16  16  16  16  16  16
#     4  12  22  36  54  81 121 144 180 235 284 340
#     4  11  23  36  51  83 120 153 183 222 281 345
#     4   9  19  36  58  80 107 143 185 229 279 336
#     4   9  18  36  59  84 106 136 191 242 276 323
#     4  12  20  35  53  80 111 148 188 227 278 337
#     4  11  21  35  59  81 107 152 186 231 280 330
#     4  10  21  35  53  75 108 151 192 222 266 342
#
# _framework density 17.020294
#
# number of rings (size 3 to 8) (size 9 to 14) (size 15 to 20)
#    0.000    1.429    5.714    2.571    0.000    2.857 
#    2.571    0.000    0.000    3.429    0.000    3.000 
#    0.000    0.000    0.000    0.000    0.000    0.000 
#
# Total GULP energy -311802.234519 kJ/mol
# GULP energy per Si atom -5567.897045 kJ/mol
# Density = 1.698155 g / cm^3
# Si number density = 17.020294 Si / 1000 Ang^3
#
#
#
# Elastic Constant Matrix: (Units=GPa)
#
#
# Indices 1 2 3 4 5 6 
#
# 1 68.0392 4.5495 37.0385 0.0000 0.0000 0.0000
# 2 4.5495 88.1834 18.9655 0.0000 0.0000 0.0000
# 3 37.0385 18.9655 127.0268 0.0000 0.0000 0.0000
# 4 0.0000 0.0000 0.0000 21.2999 0.0000 0.0000
# 5 0.0000 0.0000 0.0000 0.0000 15.1402 0.0000
# 6 0.0000 0.0000 0.0000 0.0000 0.0000 13.1008
#
#
#
# Elastic Compliance Matrix: (Units=1/GPa)
#
#
# Indices 1 2 3 4 5 6 
#
# 1 0.017474 0.000201 -0.005125 0.000000 0.000000 0.000000
# 2 0.000201 0.011719 -0.001808 0.000000 0.000000 0.000000
# 3 -0.005125 -0.001808 0.009637 0.000000 0.000000 0.000000
# 4 0.000000 0.000000 0.000000 0.046949 0.000000 0.000000
# 5 0.000000 0.000000 0.000000 0.000000 0.066049 0.000000
# 6 0.000000 0.000000 0.000000 0.000000 0.000000 0.076331
#
#
# Mechanical properties :
#
#
# Convention : Reuss Voigt Hill
#
# Bulk Modulus (GPa) = 39.42560 44.92849 42.17704
# Shear Modulus (GPa) = 19.99379 24.75458 22.37419
#
# Velocity S-wave (km/s) = 3.43111 3.81782 3.62962
# Velocity P-wave (km/s) = 6.23786 6.77411 6.51151
#
# Compressibility (1/GPa) = 0.02536423
#
# Stress axis : x y z
#
# Youngs Moduli (GPa) = 57.22822 85.33503 103.77031
#
# Poissons Ratio (x) = -0.01713 0.53182
# Poissons Ratio (y) = -0.01149 0.18763
# Poissons Ratio (z) = 0.29330 0.15430
#
# Static dielectric constant tensor:
#      x y z
#    x 1.602830 0.000000 0.000000 
#    y 0.000000 1.587940 0.000000 
#    z 0.000000 0.000000 1.613880 
# 
# From -- ./inp_files/65826.got.cif
#   From: 2010.05.17/outbox.cif.g08.bks.cpg/sg66_33_cif.got.tgz:65826.got - 2010.06.03 17:51:23.
