data_PCOD9497715
_publ_section_title
;
Structure prediction by ZEFSAII (Michael W. Deem and Ramdas Pophale) SiO2 
 PCOD9497715
Probable space group: C C C M
;
_chemical_formula_sum "Si O2"
_cell_formula_units_Z 96
_cell_length_a 19.809327
_cell_length_b 14.122054
_cell_length_c 15.055146
_cell_angle_alpha 90.000000
_cell_angle_beta 90.000000
_cell_angle_gamma 90.000000
_cell_volume 4211.652788
_symmetry_space_group_name_H-M "C C C M"
_symmetry_group_IT_number 66
_symmetry_cell_setting 'orthorhombic'
loop_
_space_group_symop_operation_xyz
x,y,z
-x,-y,z
x,-y,1/2-z
-x,y,1/2-z
-x,-y,-z
x,y,-z
-x,y,1/2+z
x,-y,1/2+z
1/2+x,1/2+y,z
1/2-x,1/2-y,z
1/2+x,1/2-y,1/2-z
1/2-x,1/2+y,1/2-z
1/2-x,1/2-y,-z
1/2+x,1/2+y,-z
1/2-x,1/2+y,1/2+z
1/2+x,1/2-y,1/2+z
loop_
_atom_site_type_symbol
_atom_site_label
_atom_site_fract_x
_atom_site_fract_y
_atom_site_fract_z
Si Si1 0.220334 0.391803 0.500000
Si Si2 0.025070 0.597852 0.648637
Si Si3 0.367289 0.707610 0.000000
Si Si4 0.883395 0.886591 0.896923
Si Si5 0.017865 0.194012 0.357359
Si Si6 0.255983 0.530469 0.346313
Si Si7 0.159485 0.679949 0.606306
O O1 0.294620 0.343651 0.500000
O O2 0.158696 0.317402 0.500000
O O3 0.222048 0.459996 0.415469
O O4 0.105185 0.605755 0.643302
O O5 0.000000 0.500000 0.606905
O O6 0.000000 0.597375 0.750000
O O7 0.000637 0.698738 0.610909
O O8 0.411272 0.681595 0.910923
O O9 0.837354 0.965577 0.852342
O O10 0.861941 0.782991 0.859610
O O11 0.963878 0.883394 0.890762
O O12 0.864030 0.891309 0.000000
O O13 0.000000 0.193328 0.250000
O O14 0.235067 0.500000 0.250000
O O15 0.230751 0.636297 0.368435
O O16 0.154629 0.682987 0.500000
#
# Coordination Sequence:
#
# PCOD9497715 Si02
#       7
#     8  16   8  16  16  16  16
#     4  11  28  49  67 101 144 188 229 289 352 431
#     4   9  20  33  56  92 131 166 214 270 327 412
#     4  11  26  49  71  98 146 189 227 281 368 424
#     4  10  20  43  69  99 131 172 229 289 340 400
#     4  10  22  40  71  99 132 180 230 284 346 416
#     4  12  26  42  69  99 136 181 235 283 343 419
#     4  10  21  38  64  96 129 174 220 278 348 399
#
# _framework density 22.793901999999999
#
# number of rings (size 3 to 8) (size 9 to 14) (size 15 to 20)
#    0.000    1.667    2.500    0.500    8.167    4.333 
#    3.000    1.667    0.000    0.000    0.000    0.000 
#    0.000    0.000    0.000    0.000    0.000    0.000 
#
# Total GULP energy -267612.445023 kJ/mol
# GULP energy per Si atom -5575.259271 kJ/mol
# Density = 2.274202 g / cm^3
# Si number density = 22.793902 Si / 1000 Ang^3
#
#
#
# Elastic Constant Matrix: (Units=GPa)
#
#
# Indices 1 2 3 4 5 6 
#
# 1 119.1535 6.9342 26.6183 0.0000 0.0000 0.0000
# 2 6.9342 34.6461 21.8022 0.0000 0.0000 0.0000
# 3 26.6183 21.8022 133.4479 0.0000 0.0000 0.0000
# 4 0.0000 0.0000 0.0000 34.2117 0.0000 0.0000
# 5 0.0000 0.0000 0.0000 0.0000 24.5122 0.0000
# 6 0.0000 0.0000 0.0000 0.0000 0.0000 38.2757
#
#
#
# Elastic Compliance Matrix: (Units=1/GPa)
#
#
# Indices 1 2 3 4 5 6 
#
# 1 0.008801 -0.000732 -0.001636 0.000000 0.000000 0.000000
# 2 -0.000732 0.032232 -0.005120 0.000000 0.000000 0.000000
# 3 -0.001636 -0.005120 0.008656 0.000000 0.000000 0.000000
# 4 0.000000 0.000000 0.000000 0.029230 0.000000 0.000000
# 5 0.000000 0.000000 0.000000 0.000000 0.040796 0.000000
# 6 0.000000 0.000000 0.000000 0.000000 0.000000 0.026126
#
#
# Mechanical properties :
#
#
# Convention : Reuss Voigt Hill
#
# Bulk Modulus (GPa) = 28.80754 44.21744 36.51249
# Shear Modulus (GPa) = 29.00452 34.85943 31.93197
#
# Velocity S-wave (km/s) = 3.57104 3.91491 3.74692
# Velocity P-wave (km/s) = 5.44691 6.31477 5.89682
#
# Compressibility (1/GPa) = 0.03471313
#
# Stress axis : x y z
#
# Youngs Moduli (GPa) = 113.62900 31.02545 115.52258
#
# Poissons Ratio (x) = 0.02271 0.18897
# Poissons Ratio (y) = 0.08318 0.59146
# Poissons Ratio (z) = 0.18588 0.15885
#
# Static dielectric constant tensor:
#      x y z
#    x 1.922410 0.000000 0.000000 
#    y 0.000000 1.883860 0.000000 
#    z 0.000000 0.000000 1.822890 
# 
# From -- ./inp_files/31235.got.cif
#   From: 2010.05.17/outbox.cif.g08.bks.cpg/sg66_16_cif.got.tgz:31235.got - 2010.06.03 17:51:23.
