data_PCOD9497591
_publ_section_title
;
Structure prediction by ZEFSAII (Michael W. Deem and Ramdas Pophale) SiO2 
 PCOD9497591
Probable space group: C C C M
;
_chemical_formula_sum "Si O2"
_cell_formula_units_Z 84
_cell_length_a 11.875284
_cell_length_b 20.594801
_cell_length_c 14.845560
_cell_angle_alpha 90.000000
_cell_angle_beta 90.000000
_cell_angle_gamma 90.000000
_cell_volume 3630.765409
_symmetry_space_group_name_H-M "C C C M"
_symmetry_group_IT_number 66
_symmetry_cell_setting 'orthorhombic'
loop_
_space_group_symop_operation_xyz
x,y,z
-x,-y,z
x,-y,1/2-z
-x,y,1/2-z
-x,-y,-z
x,y,-z
-x,y,1/2+z
x,-y,1/2+z
1/2+x,1/2+y,z
1/2-x,1/2-y,z
1/2+x,1/2-y,1/2-z
1/2-x,1/2+y,1/2-z
1/2-x,1/2-y,-z
1/2+x,1/2+y,-z
1/2-x,1/2+y,1/2+z
1/2+x,1/2-y,1/2+z
loop_
_atom_site_type_symbol
_atom_site_label
_atom_site_fract_x
_atom_site_fract_y
_atom_site_fract_z
Si Si1 0.244944 0.327811 0.892930
Si Si2 0.621569 0.900605 0.732244
Si Si3 0.630591 0.218289 0.897188
Si Si4 0.847765 0.041108 0.164468
Si Si5 0.000000 0.000000 0.000000
Si Si6 0.001813 0.850097 0.897290
O O1 0.250000 0.250000 0.873591
O O2 0.170749 0.370484 0.825239
O O3 0.371668 0.352726 0.877550
O O4 0.216233 0.334282 0.000000
O O5 0.500000 0.930775 0.750000
O O6 0.600421 0.838595 0.668680
O O7 0.715285 0.942984 0.678955
O O8 0.750000 0.250000 0.871118
O O9 0.539755 0.275620 0.897099
O O10 0.643835 0.194548 0.000000
O O11 0.912252 0.109938 0.162167
O O12 0.878934 0.000000 0.250000
O O13 0.899698 0.004242 0.079159
O O14 0.015405 0.878049 0.000000
#
# Coordination Sequence:
#
# PCOD9497591 Si02
#       6
#    16  16  16  16   4  16
#     4  10  23  42  65 102 151 195 239 299 373 458
#     4  12  27  45  70 107 150 200 250 306 383 481
#     4  10  20  38  71 111 150 191 241 303 390 474
#     4  12  29  49  77 109 146 192 255 330 387 453
#     4  12  30  52  80 114 138 184 268 338 394 434
#     4  10  21  43  75 109 143 184 242 315 385 452
#
# _framework density 23.135618000000001
#
# number of rings (size 3 to 8) (size 9 to 14) (size 15 to 20)
#    0.000    1.143    2.857    2.000    6.667    2.667 
#    0.000    0.000    0.000    1.143    0.000    0.000 
#    0.000    0.000    0.000    0.000    0.000    0.000 
#
# Total GULP energy -234676.262152 kJ/mol
# GULP energy per Si atom -5587.530051 kJ/mol
# Density = 2.308296 g / cm^3
# Si number density = 23.135618 Si / 1000 Ang^3
#
#
#
# Elastic Constant Matrix: (Units=GPa)
#
#
# Indices 1 2 3 4 5 6 
#
# 1 196.3919 53.4982 67.0598 0.0000 0.0000 0.0000
# 2 53.4982 67.8366 55.9896 0.0000 0.0000 0.0000
# 3 67.0598 55.9896 146.8492 0.0000 0.0000 0.0000
# 4 0.0000 0.0000 0.0000 30.7945 0.0000 0.0000
# 5 0.0000 0.0000 0.0000 0.0000 -511.6333 0.0000
# 6 0.0000 0.0000 0.0000 0.0000 0.0000 7.8901
#
#
#
# Elastic Compliance Matrix: (Units=1/GPa)
#
#
# Indices 1 2 3 4 5 6 
#
# 1 0.006712 -0.004032 -0.001528 0.000000 0.000000 0.000000
# 2 -0.004032 0.023933 -0.007284 0.000000 0.000000 0.000000
# 3 -0.001528 -0.007284 0.010284 0.000000 0.000000 0.000000
# 4 0.000000 0.000000 0.000000 0.032473 0.000000 0.000000
# 5 0.000000 0.000000 0.000000 0.000000 -0.001955 0.000000
# 6 0.000000 0.000000 0.000000 0.000000 0.000000 0.126740
#
#
# Mechanical properties :
#
#
# Convention : Reuss Voigt Hill
#
# Bulk Modulus (GPa) = 65.60792 84.90808 75.25800
# Shear Modulus (GPa) = 21.83823 -78.95439 -28.55808
#
# Velocity S-wave (km/s) = 3.07567 -5.84815 -3.51718
# Velocity P-wave (km/s) = 6.40566 2.97007 4.01318
#
# Compressibility (1/GPa) = 0.01524206
#
# Stress axis : x y z
#
# Youngs Moduli (GPa) = 148.98844 41.78334 97.23551
#
# Poissons Ratio (x) = 0.16849 0.14854
# Poissons Ratio (y) = 0.60079 0.70822
# Poissons Ratio (z) = 0.22759 0.30433
#
# Static dielectric constant tensor:
#      x y z
#    x 1.839590 0.000000 0.000000 
#    y 0.000000 1.510320 0.000000 
#    z 0.000000 0.000000 1.852860 
# 
# From -- ./inp_files/26558.got.cif
#   From: 2010.05.17/outbox.cif.g08.bks.cpg/sg66_14_cif.got.tgz:26558.got - 2010.06.03 17:51:23.
