data_PCOD9497158
_publ_section_title
;
Structure prediction by ZEFSAII (Michael W. Deem and Ramdas Pophale) SiO2 
 PCOD9497158
Probable space group: C C C M
;
_chemical_formula_sum "Si O2"
_cell_formula_units_Z 96
_cell_length_a 11.924972
_cell_length_b 21.145947
_cell_length_c 18.938550
_cell_angle_alpha 90.000000
_cell_angle_beta 90.000000
_cell_angle_gamma 90.000000
_cell_volume 4775.636163
_symmetry_space_group_name_H-M "C C C M"
_symmetry_group_IT_number 66
_symmetry_cell_setting 'orthorhombic'
loop_
_space_group_symop_operation_xyz
x,y,z
-x,-y,z
x,-y,1/2-z
-x,y,1/2-z
-x,-y,-z
x,y,-z
-x,y,1/2+z
x,-y,1/2+z
1/2+x,1/2+y,z
1/2-x,1/2-y,z
1/2+x,1/2-y,1/2-z
1/2-x,1/2+y,1/2-z
1/2-x,1/2-y,-z
1/2+x,1/2+y,-z
1/2-x,1/2+y,1/2+z
1/2+x,1/2-y,1/2+z
loop_
_atom_site_type_symbol
_atom_site_label
_atom_site_fract_x
_atom_site_fract_y
_atom_site_fract_z
Si Si1 0.996222 0.098819 0.920802
Si Si2 0.729498 0.454934 0.583814
Si Si3 0.576081 0.726045 0.132119
Si Si4 0.144150 0.703398 0.181203
Si Si5 0.795361 0.663213 0.832890
Si Si6 0.754467 0.400004 0.916158
O O1 0.097408 0.054059 0.894982
O O2 0.043944 0.170335 0.921004
O O3 0.873827 0.104737 0.886598
O O4 0.971750 0.076316 0.000000
O O5 0.733898 0.438395 0.500000
O O6 0.792401 0.405005 0.632766
O O7 0.776327 0.525300 0.591411
O O8 0.464028 0.753878 0.165923
O O9 0.668305 0.688897 0.179731
O O10 0.645257 0.788738 0.112072
O O11 0.250000 0.750000 0.175398
O O12 0.143444 0.671943 0.258628
O O13 0.164600 0.647190 0.125164
O O14 0.756392 0.384004 0.000000
#
# Coordination Sequence:
#
# PCOD9497158 Si02
#       6
#    16  16  16  16  16  16
#     4   9  17  31  57  85 112 145 184 233 284 335
#     4   9  19  38  58  81 113 149 191 233 274 330
#     4  10  20  36  55  85 112 146 188 226 284 330
#     4  12  22  35  58  84 117 150 178 235 281 337
#     4  10  22  37  61  82 111 152 186 233 276 333
#     4  10  21  36  56  83 115 150 188 230 283 335
#
# _framework density 20.102032999999999
#
# number of rings (size 3 to 8) (size 9 to 14) (size 15 to 20)
#    0.000    2.000    3.333    1.000    0.000    4.333 
#    0.000    4.167    0.000    6.000    0.000    0.000 
#    0.000    0.000    0.000    0.000    0.000    0.000 
#
# Total GULP energy -267242.763515 kJ/mol
# GULP energy per Si atom -5567.557573 kJ/mol
# Density = 2.005628 g / cm^3
# Si number density = 20.102033 Si / 1000 Ang^3
#
#
#
# Elastic Constant Matrix: (Units=GPa)
#
#
# Indices 1 2 3 4 5 6 
#
# 1 64.8722 20.7631 15.9972 0.0000 0.0000 0.0000
# 2 20.7631 110.9103 47.2465 0.0000 0.0000 0.0000
# 3 15.9972 47.2465 49.4190 0.0000 0.0000 0.0000
# 4 0.0000 0.0000 0.0000 23.4037 0.0000 0.0000
# 5 0.0000 0.0000 0.0000 0.0000 16.8374 0.0000
# 6 0.0000 0.0000 0.0000 0.0000 0.0000 29.0554
#
#
#
# Elastic Compliance Matrix: (Units=1/GPa)
#
#
# Indices 1 2 3 4 5 6 
#
# 1 0.016881 -0.001404 -0.004122 0.000000 0.000000 0.000000
# 2 -0.001404 0.015328 -0.014200 0.000000 0.000000 0.000000
# 3 -0.004122 -0.014200 0.035145 0.000000 0.000000 0.000000
# 4 0.000000 0.000000 0.000000 0.042728 0.000000 0.000000
# 5 0.000000 0.000000 0.000000 0.000000 0.059392 0.000000
# 6 0.000000 0.000000 0.000000 0.000000 0.000000 0.034417
#
#
# Mechanical properties :
#
#
# Convention : Reuss Voigt Hill
#
# Bulk Modulus (GPa) = 35.83960 43.69056 39.76508
# Shear Modulus (GPa) = 19.79079 23.27229 21.53154
#
# Velocity S-wave (km/s) = 3.14111 3.40620 3.27634
# Velocity P-wave (km/s) = 5.56982 6.10338 5.84269
#
# Compressibility (1/GPa) = 0.02790210
#
# Stress axis : x y z
#
# Youngs Moduli (GPa) = 59.23889 65.23981 28.45378
#
# Poissons Ratio (x) = 0.09162 0.11728
# Poissons Ratio (y) = 0.08319 0.40403
# Poissons Ratio (z) = 0.24417 0.92638
#
# Static dielectric constant tensor:
#      x y z
#    x 1.774810 0.000000 0.000000 
#    y 0.000000 1.716810 0.000000 
#    z 0.000000 0.000000 1.725670 
# 
# From -- ./inp_files/48786.got.cif
#   From: 2010.05.17/outbox.cif.g08.bks.cpg/sg66_25_cif.got.tgz:48786.got - 2010.06.03 17:51:23.
