data_PCOD9497711
_publ_section_title
;
Structure prediction by ZEFSAII (Michael W. Deem and Ramdas Pophale) SiO2 
 PCOD9497711
Probable space group: C C C M
;
_chemical_formula_sum "Si O2"
_cell_formula_units_Z 96
_cell_length_a 15.904672
_cell_length_b 19.903033
_cell_length_c 14.810127
_cell_angle_alpha 90.000000
_cell_angle_beta 90.000000
_cell_angle_gamma 90.000000
_cell_volume 4688.163647
_symmetry_space_group_name_H-M "C C C M"
_symmetry_group_IT_number 66
_symmetry_cell_setting 'orthorhombic'
loop_
_space_group_symop_operation_xyz
x,y,z
-x,-y,z
x,-y,1/2-z
-x,y,1/2-z
-x,-y,-z
x,y,-z
-x,y,1/2+z
x,-y,1/2+z
1/2+x,1/2+y,z
1/2-x,1/2-y,z
1/2+x,1/2-y,1/2-z
1/2-x,1/2+y,1/2-z
1/2-x,1/2-y,-z
1/2+x,1/2+y,-z
1/2-x,1/2+y,1/2+z
1/2+x,1/2-y,1/2+z
loop_
_atom_site_type_symbol
_atom_site_label
_atom_site_fract_x
_atom_site_fract_y
_atom_site_fract_z
Si Si1 0.993190 0.681406 0.500000
Si Si2 0.750619 0.142383 0.142524
Si Si3 0.149603 0.566573 0.000000
Si Si4 0.256947 0.560377 0.317078
Si Si5 0.939998 0.064274 0.395597
Si Si6 0.650672 0.083900 0.500000
Si Si7 0.612842 0.740929 0.363103
Si Si8 0.000000 0.169253 0.250000
O O1 0.925351 0.620331 0.500000
O O2 0.966465 0.729581 0.417168
O O3 0.083023 0.644449 0.500000
O O4 0.763893 0.120593 0.245021
O O5 0.680087 0.199897 0.139044
O O6 0.834990 0.175942 0.102652
O O7 0.711539 0.082200 0.083859
O O8 0.113395 0.491986 0.000000
O O9 0.226137 0.500000 0.250000
O O10 0.350112 0.544597 0.353439
O O11 0.203428 0.581815 0.405601
O O12 0.929402 0.084679 0.500000
O O13 0.981596 0.122198 0.335265
O O14 0.000000 0.000000 0.391860
O O15 0.578621 0.716958 0.267903
#
# Coordination Sequence:
#
# PCOD9497711 Si02
#       8
#     8  16   8  16  16   8  16   8
#     4  10  24  44  64  96 139 175 235 285 337 398
#     4  10  21  42  68  95 130 170 235 282 332 406
#     4  10  20  42  69  96 125 175 229 290 340 400
#     4  12  23  42  66  98 134 176 221 275 351 413
#     4  11  25  44  66  97 133 172 219 281 342 404
#     4  12  25  40  66 100 141 180 218 288 355 418
#     4  10  23  40  66  93 126 179 226 282 329 395
#     4  12  23  40  64  94 133 166 226 268 338 400
#
# _framework density 20.4771
#
# number of rings (size 3 to 8) (size 9 to 14) (size 15 to 20)
#    0.000    1.167    4.167    2.000    3.500    2.000 
#    0.000    0.000    0.000    3.000    0.000    0.000 
#    0.000    0.000    0.000    0.000    0.000    0.000 
#
# Total GULP energy -267618.048077 kJ/mol
# GULP energy per Si atom -5575.376002 kJ/mol
# Density = 2.043049 g / cm^3
# Si number density = 20.477100 Si / 1000 Ang^3
#
#
#
# Elastic Constant Matrix: (Units=GPa)
#
#
# Indices 1 2 3 4 5 6 
#
# 1 105.2099 28.3672 50.4830 0.0000 0.0000 0.0000
# 2 28.3672 66.4313 39.7956 0.0000 0.0000 0.0000
# 3 50.4830 39.7956 156.2503 0.0000 0.0000 0.0000
# 4 0.0000 0.0000 0.0000 42.5717 0.0000 0.0000
# 5 0.0000 0.0000 0.0000 0.0000 30.3663 0.0000
# 6 0.0000 0.0000 0.0000 0.0000 0.0000 25.0743
#
#
#
# Elastic Compliance Matrix: (Units=1/GPa)
#
#
# Indices 1 2 3 4 5 6 
#
# 1 0.011817 -0.003256 -0.002989 0.000000 0.000000 0.000000
# 2 -0.003256 0.018660 -0.003701 0.000000 0.000000 0.000000
# 3 -0.002989 -0.003701 0.008308 0.000000 0.000000 0.000000
# 4 0.000000 0.000000 0.000000 0.023490 0.000000 0.000000
# 5 0.000000 0.000000 0.000000 0.000000 0.032931 0.000000
# 6 0.000000 0.000000 0.000000 0.000000 0.000000 0.039881
#
#
# Mechanical properties :
#
#
# Convention : Reuss Voigt Hill
#
# Bulk Modulus (GPa) = 52.92384 62.79813 57.86098
# Shear Modulus (GPa) = 31.00278 33.55218 32.27748
#
# Velocity S-wave (km/s) = 3.89527 4.05226 3.97454
# Velocity P-wave (km/s) = 6.79207 7.25455 7.02712
#
# Compressibility (1/GPa) = 0.01889508
#
# Stress axis : x y z
#
# Youngs Moduli (GPa) = 84.62639 53.58985 120.36354
#
# Poissons Ratio (x) = 0.17446 0.35973
# Poissons Ratio (y) = 0.27550 0.44544
# Poissons Ratio (z) = 0.25292 0.19832
#
# Static dielectric constant tensor:
#      x y z
#    x 1.732030 0.000000 0.000000 
#    y 0.000000 1.740260 0.000000 
#    z 0.000000 0.000000 1.771570 
# 
# From -- ./inp_files/28478.got.cif
#   From: 2010.05.17/outbox.cif.g08.bks.cpg/sg66_15_cif.got.tgz:28478.got - 2010.06.03 17:51:23.
