data_PCOD9497679
_publ_section_title
;
Structure prediction by ZEFSAII (Michael W. Deem and Ramdas Pophale) SiO2 
 PCOD9497679
Probable space group: C C C M
;
_chemical_formula_sum "Si O2"
_cell_formula_units_Z 64
_cell_length_a 21.142511
_cell_length_b 5.188486
_cell_length_c 28.576848
_cell_angle_alpha 90.000000
_cell_angle_beta 90.000000
_cell_angle_gamma 90.000000
_cell_volume 3134.812279
_symmetry_space_group_name_H-M "C C C M"
_symmetry_group_IT_number 66
_symmetry_cell_setting 'orthorhombic'
loop_
_space_group_symop_operation_xyz
x,y,z
-x,-y,z
x,-y,1/2-z
-x,y,1/2-z
-x,-y,-z
x,y,-z
-x,y,1/2+z
x,-y,1/2+z
1/2+x,1/2+y,z
1/2-x,1/2-y,z
1/2+x,1/2-y,1/2-z
1/2-x,1/2+y,1/2-z
1/2-x,1/2-y,-z
1/2+x,1/2+y,-z
1/2-x,1/2+y,1/2+z
1/2+x,1/2-y,1/2+z
loop_
_atom_site_type_symbol
_atom_site_label
_atom_site_fract_x
_atom_site_fract_y
_atom_site_fract_z
Si Si1 0.176168 0.818366 0.651125
Si Si2 0.826098 0.765515 0.500000
Si Si3 0.375643 0.822073 0.898255
Si Si4 0.437225 0.324980 0.000000
Si Si5 0.500000 0.000000 0.077938
Si Si6 0.292795 0.500000 0.250000
O O1 0.250000 0.750000 0.645272
O O2 0.140853 0.563078 0.634492
O O3 0.168750 0.902251 0.705157
O O4 0.155437 0.060766 0.620401
O O5 0.750000 0.750000 0.500000
O O6 0.847363 0.643411 0.549361
O O7 0.870597 0.026233 0.500000
O O8 0.452027 0.806069 0.897348
O O9 0.500000 0.500000 0.000000
O O10 0.451301 0.156819 0.045599
O O11 0.250000 0.750000 0.235887
#
# Coordination Sequence:
#
# PCOD9497679 Si02
#       6
#    16   8  16   8   8   8
#     4  11  23  41  65  98 129 167 216 281 347 405
#     4  12  24  40  63  98 139 181 220 286 348 385
#     4  12  25  40  64  93 137 175 225 273 327 415
#     4  11  20  43  65  85 129 185 262 277 313 409
#     4  11  24  40  64  93 122 192 240 277 326 391
#     4  10  20  40  70  95 126 167 218 276 348 422
#
# _framework density 20.415894999999999
#
# number of rings (size 3 to 8) (size 9 to 14) (size 15 to 20)
#    0.000    0.750    2.500    7.500    0.000    1.000 
#    0.000    6.250    0.000    4.500    0.000    0.000 
#    0.000    0.000    0.000    0.000    0.000    0.000 
#
# Total GULP energy -178563.993216 kJ/mol
# GULP energy per Si atom -5580.124788 kJ/mol
# Density = 2.036943 g / cm^3
# Si number density = 20.415895 Si / 1000 Ang^3
#
#
#
# Elastic Constant Matrix: (Units=GPa)
#
#
# Indices 1 2 3 4 5 6 
#
# 1 160.8143 54.7733 53.4839 0.0000 0.0000 0.0000
# 2 54.7733 132.9863 41.9748 0.0000 0.0000 0.0000
# 3 53.4839 41.9748 73.9092 0.0000 0.0000 0.0000
# 4 0.0000 0.0000 0.0000 -1.7346 0.0000 0.0000
# 5 0.0000 0.0000 0.0000 0.0000 -40.0169 0.0000
# 6 0.0000 0.0000 0.0000 0.0000 0.0000 51.6899
#
#
#
# Elastic Compliance Matrix: (Units=1/GPa)
#
#
# Indices 1 2 3 4 5 6 
#
# 1 0.008572 -0.001916 -0.005115 0.000000 0.000000 0.000000
# 2 -0.001916 0.009590 -0.004060 0.000000 0.000000 0.000000
# 3 -0.005115 -0.004060 0.019537 0.000000 0.000000 0.000000
# 4 0.000000 0.000000 0.000000 -0.576496 0.000000 0.000000
# 5 0.000000 0.000000 0.000000 0.000000 -0.024989 0.000000
# 6 0.000000 0.000000 0.000000 0.000000 0.000000 0.019346
#
#
# Mechanical properties :
#
#
# Convention : Reuss Voigt Hill
#
# Bulk Modulus (GPa) = 64.44307 74.24155 69.34231
# Shear Modulus (GPa) = -9.66959 16.48619 3.40830
#
# Velocity S-wave (km/s) = -2.17867 2.84477 1.29347
# Velocity P-wave (km/s) = 5.03040 6.87269 6.02240
#
# Compressibility (1/GPa) = 0.01551757
#
# Stress axis : x y z
#
# Youngs Moduli (GPa) = 116.65702 104.27283 51.18443
#
# Poissons Ratio (x) = 0.19981 0.26180
# Poissons Ratio (y) = 0.22354 0.20780
# Poissons Ratio (z) = 0.59669 0.42334
#
# Static dielectric constant tensor:
#      x y z
#    x 1.250170 0.000000 0.000000 
#    y 0.000000 1.316770 0.000000 
#    z 0.000000 0.000000 1.764410 
# 
# From -- ./inp_files/65506.got.cif
#   From: 2010.05.17/outbox.cif.g08.bks.cpg/sg66_33_cif.got.tgz:65506.got - 2010.06.03 17:51:23.
