data_PCOD9497382
_publ_section_title
;
Structure prediction by ZEFSAII (Michael W. Deem and Ramdas Pophale) SiO2 
 PCOD9497382
Probable space group: C C C M
;
_chemical_formula_sum "Si O2"
_cell_formula_units_Z 96
_cell_length_a 24.785304
_cell_length_b 24.625593
_cell_length_c 8.439159
_cell_angle_alpha 90.000000
_cell_angle_beta 90.000000
_cell_angle_gamma 90.000000
_cell_volume 5150.864399
_symmetry_space_group_name_H-M "C C C M"
_symmetry_group_IT_number 66
_symmetry_cell_setting 'orthorhombic'
loop_
_space_group_symop_operation_xyz
x,y,z
-x,-y,z
x,-y,1/2-z
-x,y,1/2-z
-x,-y,-z
x,y,-z
-x,y,1/2+z
x,-y,1/2+z
1/2+x,1/2+y,z
1/2-x,1/2-y,z
1/2+x,1/2-y,1/2-z
1/2-x,1/2+y,1/2-z
1/2-x,1/2-y,-z
1/2+x,1/2+y,-z
1/2-x,1/2+y,1/2+z
1/2+x,1/2-y,1/2+z
loop_
_atom_site_type_symbol
_atom_site_label
_atom_site_fract_x
_atom_site_fract_y
_atom_site_fract_z
Si Si1 0.558835 0.853807 0.689514
Si Si2 0.267957 0.559933 0.308162
Si Si3 0.942440 0.061415 0.809291
Si Si4 0.642986 0.941243 0.810619
Si Si5 0.059696 0.228760 0.689330
Si Si6 0.356103 0.642624 0.314807
O O1 0.500000 0.871525 0.750000
O O2 0.558558 0.853996 0.500000
O O3 0.605110 0.893505 0.749678
O O4 0.566830 0.791284 0.743116
O O5 0.287354 0.500000 0.250000
O O6 0.271220 0.558840 0.500000
O O7 0.205449 0.565094 0.258571
O O8 0.301350 0.613243 0.253493
O O9 0.897746 0.094280 0.717082
O O10 0.000000 0.082501 0.750000
O O11 0.939148 0.000000 0.750000
O O12 0.937607 0.065330 0.000000
O O13 0.624017 0.000000 0.750000
O O14 0.642520 0.941385 0.000000
O O15 0.057023 0.226740 0.500000
O O16 0.111451 0.193252 0.740599
O O17 0.000000 0.211010 0.750000
O O18 0.348729 0.654400 0.500000
#
# Coordination Sequence:
#
# PCOD9497382 Si02
#       6
#    16  16  16  16  16  16
#     4  10  21  38  60  86 114 144 178 218 267 322
#     4   9  20  36  55  79 108 144 183 225 272 321
#     4  11  21  33  47  67  96 130 171 222 279 329
#     4  10  20  37  60  86 115 145 178 217 265 320
#     4  10  21  37  56  79 108 143 183 227 275 323
#     4  11  21  34  52  75 103 139 184 226 268 320
#
# _framework density 18.637649
#
# number of rings (size 3 to 8) (size 9 to 14) (size 15 to 20)
#    0.000    1.833    0.000    5.000    0.000    5.667 
#    0.000    2.500    0.000    5.000    0.000    0.000 
#    0.000    0.000    0.000    0.000    0.000    0.000 
#
# Total GULP energy -267710.745958 kJ/mol
# GULP energy per Si atom -5577.307207 kJ/mol
# Density = 1.859523 g / cm^3
# Si number density = 18.637649 Si / 1000 Ang^3
#
#
#
# Elastic Constant Matrix: (Units=GPa)
#
#
# Indices 1 2 3 4 5 6 
#
# 1 92.7298 66.7069 10.8735 0.0000 0.0000 0.0000
# 2 66.7069 112.6079 15.4942 0.0000 0.0000 0.0000
# 3 10.8735 15.4942 28.8607 0.0000 0.0000 0.0000
# 4 0.0000 0.0000 0.0000 30.6832 0.0000 0.0000
# 5 0.0000 0.0000 0.0000 0.0000 21.0792 0.0000
# 6 0.0000 0.0000 0.0000 0.0000 0.0000 38.8462
#
#
#
# Elastic Compliance Matrix: (Units=1/GPa)
#
#
# Indices 1 2 3 4 5 6 
#
# 1 0.018830 -0.010990 -0.001194 0.000000 0.000000 0.000000
# 2 -0.010990 0.016003 -0.004451 0.000000 0.000000 0.000000
# 3 -0.001194 -0.004451 0.037489 0.000000 0.000000 0.000000
# 4 0.000000 0.000000 0.000000 0.032591 0.000000 0.000000
# 5 0.000000 0.000000 0.000000 0.000000 0.047440 0.000000
# 6 0.000000 0.000000 0.000000 0.000000 0.000000 0.025743
#
#
# Mechanical properties :
#
#
# Convention : Reuss Voigt Hill
#
# Bulk Modulus (GPa) = 25.60724 46.70528 36.15626
# Shear Modulus (GPa) = 22.28328 27.52999 24.90663
#
# Velocity S-wave (km/s) = 3.46150 3.84750 3.65959
# Velocity P-wave (km/s) = 5.45393 6.69714 6.10725
#
# Compressibility (1/GPa) = 0.03905145
#
# Stress axis : x y z
#
# Youngs Moduli (GPa) = 53.10630 62.48719 26.67475
#
# Poissons Ratio (x) = 0.68676 0.03185
# Poissons Ratio (y) = 0.58366 0.11873
# Poissons Ratio (z) = 0.06341 0.27812
#
# Static dielectric constant tensor:
#      x y z
#    x 1.631880 0.000000 0.000000 
#    y 0.000000 1.628460 0.000000 
#    z 0.000000 0.000000 1.633630 
# 
# From -- ./inp_files/9149.got.cif
#   From: 2010.05.17/outbox.cif.g08.bks.cpg/sg66_5_cif.got.tgz:9149.got - 2010.06.03 17:51:23.
