data_PCOD9497387
_publ_section_title
;
Structure prediction by ZEFSAII (Michael W. Deem and Ramdas Pophale) SiO2 
 PCOD9497387
Probable space group: C C C M
;
_chemical_formula_sum "Si O2"
_cell_formula_units_Z 112
_cell_length_a 22.882271
_cell_length_b 15.391459
_cell_length_c 15.434539
_cell_angle_alpha 90.000000
_cell_angle_beta 90.000000
_cell_angle_gamma 90.000000
_cell_volume 5435.913997
_symmetry_space_group_name_H-M "C C C M"
_symmetry_group_IT_number 66
_symmetry_cell_setting 'orthorhombic'
loop_
_space_group_symop_operation_xyz
x,y,z
-x,-y,z
x,-y,1/2-z
-x,y,1/2-z
-x,-y,-z
x,y,-z
-x,y,1/2+z
x,-y,1/2+z
1/2+x,1/2+y,z
1/2-x,1/2-y,z
1/2+x,1/2-y,1/2-z
1/2-x,1/2+y,1/2-z
1/2-x,1/2-y,-z
1/2+x,1/2+y,-z
1/2-x,1/2+y,1/2+z
1/2+x,1/2-y,1/2+z
loop_
_atom_site_type_symbol
_atom_site_label
_atom_site_fract_x
_atom_site_fract_y
_atom_site_fract_z
Si Si1 0.168585 0.051463 0.094783
Si Si2 0.895450 0.695188 0.593964
Si Si3 0.248195 0.651118 0.719496
Si Si4 0.468047 0.413349 0.900362
Si Si5 0.195503 0.150360 0.403592
Si Si6 0.119369 0.401758 0.774534
Si Si7 0.477765 0.215706 0.845910
O O1 0.200914 0.098325 0.172779
O O2 0.100136 0.067239 0.097560
O O3 0.176514 0.948961 0.099622
O O4 0.190983 0.081713 0.000000
O O5 0.876781 0.659043 0.500000
O O6 0.861258 0.787090 0.603716
O O7 0.880212 0.645335 0.681243
O O8 0.966119 0.697332 0.594547
O O9 0.250000 0.750000 0.686614
O O10 0.261119 0.658309 0.822441
O O11 0.187115 0.604468 0.698155
O O12 0.500000 0.500000 0.864439
O O13 0.470161 0.319347 0.855399
O O14 0.490165 0.402360 0.000000
O O15 0.221029 0.165357 0.500000
O O16 0.100435 0.500000 0.750000
O O17 0.079247 0.347555 0.843700
O O18 0.500000 0.198363 0.750000
#
# Coordination Sequence:
#
# PCOD9497387 Si02
#       7
#    16  16  16  16  16  16  16
#     4  10  22  38  60  91 130 169 208 256 314 389
#     4  10  21  40  66  93 121 158 213 271 328 383
#     4  12  23  41  66  91 128 172 217 268 325 387
#     4  10  20  37  60  89 127 166 206 259 323 386
#     4  10  21  39  64  95 125 159 208 267 327 383
#     4  11  24  43  62  89 129 172 214 268 326 392
#     4  10  22  38  59  88 123 164 212 261 319 383
#
# _framework density 20.603711000000001
#
# number of rings (size 3 to 8) (size 9 to 14) (size 15 to 20)
#    0.000    1.571    1.429    3.429    2.000    6.286 
#    2.571    4.286    0.000    0.000    0.000    0.000 
#    0.000    0.000    0.000    0.000    0.000    0.000 
#
# Total GULP energy -312082.556126 kJ/mol
# GULP energy per Si atom -5572.902788 kJ/mol
# Density = 2.055682 g / cm^3
# Si number density = 20.603711 Si / 1000 Ang^3
#
#
#
# Elastic Constant Matrix: (Units=GPa)
#
#
# Indices 1 2 3 4 5 6 
#
# 1 83.8317 12.0093 21.8938 0.0000 0.0000 0.0000
# 2 12.0093 79.6847 15.4777 0.0000 0.0000 0.0000
# 3 21.8938 15.4777 61.0525 0.0000 0.0000 0.0000
# 4 0.0000 0.0000 0.0000 -41.5068 0.0000 0.0000
# 5 0.0000 0.0000 0.0000 0.0000 15.8020 0.0000
# 6 0.0000 0.0000 0.0000 0.0000 0.0000 32.9944
#
#
#
# Elastic Compliance Matrix: (Units=1/GPa)
#
#
# Indices 1 2 3 4 5 6 
#
# 1 0.013257 -0.001130 -0.004468 0.000000 0.000000 0.000000
# 2 -0.001130 0.013296 -0.002965 0.000000 0.000000 0.000000
# 3 -0.004468 -0.002965 0.018733 0.000000 0.000000 0.000000
# 4 0.000000 0.000000 0.000000 -0.024092 0.000000 0.000000
# 5 0.000000 0.000000 0.000000 0.000000 0.063283 0.000000
# 6 0.000000 0.000000 0.000000 0.000000 0.000000 0.030308
#
#
# Mechanical properties :
#
#
# Convention : Reuss Voigt Hill
#
# Bulk Modulus (GPa) = 35.51149 35.92559 35.71854
# Shear Modulus (GPa) = 35.38612 13.13713 24.26162
#
# Velocity S-wave (km/s) = 4.14872 2.52783 3.43525
# Velocity P-wave (km/s) = 6.34209 5.09845 5.75397
#
# Compressibility (1/GPa) = 0.02815990
#
# Stress axis : x y z
#
# Youngs Moduli (GPa) = 75.42983 75.21178 53.38112
#
# Poissons Ratio (x) = 0.08501 0.23849
# Poissons Ratio (y) = 0.08525 0.15829
# Poissons Ratio (z) = 0.33699 0.22303
#
# Static dielectric constant tensor:
#      x y z
#    x 1.806580 0.000000 0.000000 
#    y 0.000000 1.820570 0.000000 
#    z 0.000000 0.000000 1.751020 
# 
# From -- ./inp_files/32452.got.cif
#   From: 2010.05.17/outbox.cif.g08.bks.cpg/sg66_17_cif.got.tgz:32452.got - 2010.06.03 17:51:23.
