data_PCOD9497797
_publ_section_title
;
Structure prediction by ZEFSAII (Michael W. Deem and Ramdas Pophale) SiO2 
 PCOD9497797
Probable space group: C C C M
;
_chemical_formula_sum "Si O2"
_cell_formula_units_Z 80
_cell_length_a 20.111424
_cell_length_b 9.498999
_cell_length_c 17.553197
_cell_angle_alpha 90.000000
_cell_angle_beta 90.000000
_cell_angle_gamma 90.000000
_cell_volume 3353.334608
_symmetry_space_group_name_H-M "C C C M"
_symmetry_group_IT_number 66
_symmetry_cell_setting 'orthorhombic'
loop_
_space_group_symop_operation_xyz
x,y,z
-x,-y,z
x,-y,1/2-z
-x,y,1/2-z
-x,-y,-z
x,y,-z
-x,y,1/2+z
x,-y,1/2+z
1/2+x,1/2+y,z
1/2-x,1/2-y,z
1/2+x,1/2-y,1/2-z
1/2-x,1/2+y,1/2-z
1/2-x,1/2-y,-z
1/2+x,1/2+y,-z
1/2-x,1/2+y,1/2+z
1/2+x,1/2-y,1/2+z
loop_
_atom_site_type_symbol
_atom_site_label
_atom_site_fract_x
_atom_site_fract_y
_atom_site_fract_z
Si Si1 0.177549 0.998450 0.087543
Si Si2 0.821669 0.269021 0.196084
Si Si3 0.325428 0.025776 0.085695
Si Si4 0.426491 0.636478 0.303461
Si Si5 0.032060 0.346078 0.912610
O O1 0.183390 0.850382 0.131020
O O2 0.249187 0.075530 0.092449
O O3 0.119044 0.077806 0.129086
O O4 0.162018 0.976460 0.000000
O O5 0.750000 0.250000 0.236530
O O6 0.832496 0.414830 0.153497
O O7 0.881125 0.237544 0.252447
O O8 0.388083 0.128665 0.088417
O O9 0.328917 0.959750 0.000000
O O10 0.438211 0.500000 0.250000
O O11 0.482181 0.729113 0.347620
O O12 0.000000 0.500000 0.897547
O O13 0.013064 0.306074 0.000000
#
# Coordination Sequence:
#
# PCOD9497797 Si02
#       5
#    16  16  16  16  16
#     4   9  17  31  54  84 119 160 208 257 312 389
#     4   9  18  31  51  82 121 159 197 252 323 391
#     4   9  18  33  55  83 116 162 212 258 311 373
#     4  10  21  35  55  88 127 164 206 260 336 395
#     4  10  22  40  62  88 122 167 223 276 318 372
#
# _framework density 23.856849
#
# number of rings (size 3 to 8) (size 9 to 14) (size 15 to 20)
#    0.000    2.600    0.000    1.200    2.800    3.200 
#    0.000    5.000    0.000    8.400    0.000   18.200 
#    0.000   16.000    0.000    0.000    0.000    0.000 
#
# Total GULP energy -223476.058620 kJ/mol
# GULP energy per Si atom -5586.901465 kJ/mol
# Density = 2.380255 g / cm^3
# Si number density = 23.856849 Si / 1000 Ang^3
#
#
#
# Elastic Constant Matrix: (Units=GPa)
#
#
# Indices 1 2 3 4 5 6 
#
# 1 57.7694 3.6420 27.0674 0.0000 0.0000 0.0000
# 2 3.6420 87.4620 51.9612 0.0000 0.0000 0.0000
# 3 27.0674 51.9612 146.0958 0.0000 0.0000 0.0000
# 4 0.0000 0.0000 0.0000 18.2942 0.0000 0.0000
# 5 0.0000 0.0000 0.0000 0.0000 7.0982 0.0000
# 6 0.0000 0.0000 0.0000 0.0000 0.0000 24.4027
#
#
#
# Elastic Compliance Matrix: (Units=1/GPa)
#
#
# Indices 1 2 3 4 5 6 
#
# 1 0.019144 0.001661 -0.004138 0.000000 0.000000 0.000000
# 2 0.001661 0.014641 -0.005515 0.000000 0.000000 0.000000
# 3 -0.004138 -0.005515 0.009573 0.000000 0.000000 0.000000
# 4 0.000000 0.000000 0.000000 0.054662 0.000000 0.000000
# 5 0.000000 0.000000 0.000000 0.000000 0.140881 0.000000
# 6 0.000000 0.000000 0.000000 0.000000 0.000000 0.040979
#
#
# Mechanical properties :
#
#
# Convention : Reuss Voigt Hill
#
# Bulk Modulus (GPa) = 36.53016 50.74093 43.63555
# Shear Modulus (GPa) = 16.39407 23.86946 20.13176
#
# Velocity S-wave (km/s) = 2.62427 3.16655 2.90807
# Velocity P-wave (km/s) = 4.95256 5.88935 5.44115
#
# Compressibility (1/GPa) = 0.02737464
#
# Stress axis : x y z
#
# Youngs Moduli (GPa) = 52.23529 68.30221 104.46166
#
# Poissons Ratio (x) = -0.11345 0.43222
# Poissons Ratio (y) = -0.08676 0.57610
# Poissons Ratio (z) = 0.21613 0.37668
#
# Static dielectric constant tensor:
#      x y z
#    x 1.876650 0.000000 0.000000 
#    y 0.000000 1.945160 0.000000 
#    z 0.000000 0.000000 1.883870 
# 
# From -- ./inp_files/32085.got.cif
#   From: 2010.05.17/outbox.cif.g08.bks.cpg/sg66_17_cif.got.tgz:32085.got - 2010.06.03 17:51:23.
