data_PCOD9497639
_publ_section_title
;
Structure prediction by ZEFSAII (Michael W. Deem and Ramdas Pophale) SiO2 
 PCOD9497639
Probable space group: C C C M
;
_chemical_formula_sum "Si O2"
_cell_formula_units_Z 44
_cell_length_a 9.535703
_cell_length_b 11.765900
_cell_length_c 18.948220
_cell_angle_alpha 90.000000
_cell_angle_beta 90.000000
_cell_angle_gamma 90.000000
_cell_volume 2125.916915
_symmetry_space_group_name_H-M "C C C M"
_symmetry_group_IT_number 66
_symmetry_cell_setting 'orthorhombic'
loop_
_space_group_symop_operation_xyz
x,y,z
-x,-y,z
x,-y,1/2-z
-x,y,1/2-z
-x,-y,-z
x,y,-z
-x,y,1/2+z
x,-y,1/2+z
1/2+x,1/2+y,z
1/2-x,1/2-y,z
1/2+x,1/2-y,1/2-z
1/2-x,1/2+y,1/2-z
1/2-x,1/2-y,-z
1/2+x,1/2+y,-z
1/2-x,1/2+y,1/2+z
1/2+x,1/2-y,1/2+z
loop_
_atom_site_type_symbol
_atom_site_label
_atom_site_fract_x
_atom_site_fract_y
_atom_site_fract_z
Si Si1 0.777509 0.875573 0.846210
Si Si2 0.000000 0.000000 0.250000
Si Si3 0.144219 0.067991 0.000000
Si Si4 0.000000 0.500000 0.115443
Si Si5 0.356011 0.859600 0.000000
O O1 0.750000 0.750000 0.819235
O O2 0.831649 0.866652 0.927338
O O3 0.638230 0.954824 0.844804
O O4 0.899817 0.928685 0.800412
O O5 0.000000 0.000000 0.000000
O O6 0.257117 0.968564 0.000000
O O7 0.046916 0.610467 0.067804
O O8 0.250000 0.750000 0.000000
#
# Coordination Sequence:
#
# PCOD9497639 Si02
#       5
#    16   4   8   8   8
#     4  11  25  44  70  95 136 176 223 275 344 389
#     4  12  28  44  60 102 128 180 236 268 320 422
#     4  10  20  39  68 103 129 163 223 281 324 408
#     4   9  22  39  58  96 124 166 220 266 316 406
#     4   9  19  33  60  95 133 163 204 267 338 382
#
# _framework density 20.696952
#
# number of rings (size 3 to 8) (size 9 to 14) (size 15 to 20)
#    0.000    1.818    1.818    1.636    5.091    3.636 
#    0.000    1.818    0.000    0.000    0.000    0.000 
#    0.000    0.000    0.000    0.000    0.000    0.000 
#
# Total GULP energy -122713.813484 kJ/mol
# GULP energy per Si atom -5577.900613 kJ/mol
# Density = 2.064984 g / cm^3
# Si number density = 20.696952 Si / 1000 Ang^3
#
#
#
# Elastic Constant Matrix: (Units=GPa)
#
#
# Indices 1 2 3 4 5 6 
#
# 1 171.0821 62.8940 62.8062 0.0000 0.0000 0.0000
# 2 62.8940 130.6133 49.4135 0.0000 0.0000 0.0000
# 3 62.8062 49.4135 93.3945 0.0000 0.0000 0.0000
# 4 0.0000 0.0000 0.0000 33.0895 0.0000 0.0000
# 5 0.0000 0.0000 0.0000 0.0000 70.0722 0.0000
# 6 0.0000 0.0000 0.0000 0.0000 0.0000 42.2663
#
#
#
# Elastic Compliance Matrix: (Units=1/GPa)
#
#
# Indices 1 2 3 4 5 6 
#
# 1 0.008304 -0.002358 -0.004337 0.000000 0.000000 0.000000
# 2 -0.002358 0.010242 -0.003833 0.000000 0.000000 0.000000
# 3 -0.004337 -0.003833 0.015652 0.000000 0.000000 0.000000
# 4 0.000000 0.000000 0.000000 0.030221 0.000000 0.000000
# 5 0.000000 0.000000 0.000000 0.000000 0.014271 0.000000
# 6 0.000000 0.000000 0.000000 0.000000 0.000000 0.023659
#
#
# Mechanical properties :
#
#
# Convention : Reuss Voigt Hill
#
# Bulk Modulus (GPa) = 76.09247 82.81303 79.45275
# Shear Modulus (GPa) = 39.12813 43.75068 41.43940
#
# Velocity S-wave (km/s) = 4.35274 4.60267 4.47945
# Velocity P-wave (km/s) = 7.88077 8.26711 8.07625
#
# Compressibility (1/GPa) = 0.01314190
#
# Stress axis : x y z
#
# Youngs Moduli (GPa) = 120.42272 97.63979 63.89083
#
# Poissons Ratio (x) = 0.23023 0.27708
# Poissons Ratio (y) = 0.28395 0.24490
# Poissons Ratio (z) = 0.52225 0.37426
#
# Static dielectric constant tensor:
#      x y z
#    x 2.033480 0.000000 0.000000 
#    y 0.000000 1.711720 0.000000 
#    z 0.000000 0.000000 1.797680 
# 
# From -- ./inp_files/54700.got.cif
#   From: 2010.05.17/outbox.cif.g08.bks.cpg/sg66_28_cif.got.tgz:54700.got - 2010.06.03 17:51:23.
