data_PCOD9497080
_publ_section_title
;
Structure prediction by ZEFSAII (Michael W. Deem and Ramdas Pophale) SiO2 
 PCOD9497080
Probable space group: C C C M
;
_chemical_formula_sum "Si O2"
_cell_formula_units_Z 116
_cell_length_a 25.930667
_cell_length_b 26.060897
_cell_length_c 8.988926
_cell_angle_alpha 90.000000
_cell_angle_beta 90.000000
_cell_angle_gamma 90.000000
_cell_volume 6074.504428
_symmetry_space_group_name_H-M "C C C M"
_symmetry_group_IT_number 66
_symmetry_cell_setting 'orthorhombic'
loop_
_space_group_symop_operation_xyz
x,y,z
-x,-y,z
x,-y,1/2-z
-x,y,1/2-z
-x,-y,-z
x,y,-z
-x,y,1/2+z
x,-y,1/2+z
1/2+x,1/2+y,z
1/2-x,1/2-y,z
1/2+x,1/2-y,1/2-z
1/2-x,1/2+y,1/2-z
1/2-x,1/2-y,-z
1/2+x,1/2+y,-z
1/2-x,1/2+y,1/2+z
1/2+x,1/2-y,1/2+z
loop_
_atom_site_type_symbol
_atom_site_label
_atom_site_fract_x
_atom_site_fract_y
_atom_site_fract_z
Si Si1 0.050163 0.603265 0.169462
Si Si2 0.353402 0.278765 0.177982
Si Si3 0.000000 0.500000 0.250000
Si Si4 0.305235 0.552380 0.670210
Si Si5 0.146520 0.668925 0.821070
Si Si6 0.232914 0.844632 0.822989
Si Si7 0.429647 0.447433 0.170732
Si Si8 0.552368 0.659827 0.322269
O O1 0.038874 0.541724 0.176356
O O2 0.104895 0.625149 0.223498
O O3 0.000000 0.626044 0.250000
O O4 0.046683 0.618701 0.000000
O O5 0.363459 0.221200 0.233063
O O6 0.298975 0.299972 0.240594
O O7 0.397895 0.313376 0.251128
O O8 0.354326 0.283122 0.000000
O O9 0.288265 0.500000 0.750000
O O10 0.286335 0.555306 0.500000
O O11 0.288635 0.601611 0.763468
O O12 0.367336 0.552159 0.664343
O O13 0.206104 0.655524 0.792687
O O14 0.142310 0.677655 0.000000
O O15 0.224730 0.839329 0.000000
O O16 0.444871 0.500000 0.250000
O O17 0.444768 0.399237 0.270637
O O18 0.448538 0.442856 0.000000
O O19 0.500000 0.681674 0.250000
O O20 0.552164 0.664439 0.500000
#
# Coordination Sequence:
#
# PCOD9497080 Si02
#       8
#    16  16   4  16  16  16  16  16
#     4   9  19  37  63  92 127 163 203 248 302 368
#     4  12  25  42  63  89 122 162 210 263 319 378
#     4   8  18  36  70  96 126 168 210 248 306 372
#     4  10  20  35  58  86 122 161 204 251 303 366
#     4  10  23  42  62  91 127 165 209 258 313 376
#     4  11  22  39  64  89 122 166 211 259 320 381
#     4  10  20  36  59  87 119 156 200 249 302 362
#     4  12  25  42  64  89 120 159 205 257 313 372
#
# _framework density 19.096209000000002
#
# number of rings (size 3 to 8) (size 9 to 14) (size 15 to 20)
#    0.414    1.103    1.379    4.345    0.000    5.241 
#    1.241    2.759    0.000    0.000    0.000    0.000 
#    0.000    0.000    0.000    0.000    0.000    0.000 
#
# Total GULP energy -323594.885907 kJ/mol
# GULP energy per Si atom -5579.222171 kJ/mol
# Density = 1.905274 g / cm^3
# Si number density = 19.096209 Si / 1000 Ang^3
#
#
#
# Elastic Constant Matrix: (Units=GPa)
#
#
# Indices 1 2 3 4 5 6 
#
# 1 129.8920 51.9031 65.1627 0.0000 0.0000 0.0000
# 2 51.9031 92.4842 38.2526 0.0000 0.0000 0.0000
# 3 65.1627 38.2526 110.2400 0.0000 0.0000 0.0000
# 4 0.0000 0.0000 0.0000 29.4877 0.0000 0.0000
# 5 0.0000 0.0000 0.0000 0.0000 25.8847 0.0000
# 6 0.0000 0.0000 0.0000 0.0000 0.0000 2.4299
#
#
#
# Elastic Compliance Matrix: (Units=1/GPa)
#
#
# Indices 1 2 3 4 5 6 
#
# 1 0.012416 -0.004591 -0.005746 0.000000 0.000000 0.000000
# 2 -0.004591 0.014322 -0.002256 0.000000 0.000000 0.000000
# 3 -0.005746 -0.002256 0.013250 0.000000 0.000000 0.000000
# 4 0.000000 0.000000 0.000000 0.033912 0.000000 0.000000
# 5 0.000000 0.000000 0.000000 0.000000 0.038633 0.000000
# 6 0.000000 0.000000 0.000000 0.000000 0.000000 0.411546
#
#
# Mechanical properties :
#
#
# Convention : Reuss Voigt Hill
#
# Bulk Modulus (GPa) = 67.55636 71.47253 69.51445
# Shear Modulus (GPa) = 9.02201 23.38029 16.20115
#
# Velocity S-wave (km/s) = 2.17595 3.50286 2.91588
# Velocity P-wave (km/s) = 6.46271 7.33954 6.91504
#
# Compressibility (1/GPa) = 0.01480245
#
# Stress axis : x y z
#
# Youngs Moduli (GPa) = 80.54237 69.82058 75.47042
#
# Poissons Ratio (x) = 0.32057 0.43364
# Poissons Ratio (y) = 0.36980 0.17025
# Poissons Ratio (z) = 0.46278 0.15751
#
# Static dielectric constant tensor:
#      x y z
#    x 1.691580 0.000000 0.000000 
#    y 0.000000 1.659710 0.000000 
#    z 0.000000 0.000000 1.657110 
# 
# From -- ./inp_files/10612.got.cif
#   From: 2010.05.17/outbox.cif.g08.bks.cpg/sg66_6_cif.got.tgz:10612.got - 2010.06.03 17:51:23.
