data_PCOD9497907
_publ_section_title
;
Structure prediction by ZEFSAII (Michael W. Deem and Ramdas Pophale) SiO2 
 PCOD9497907
Probable space group: C C C M
;
_chemical_formula_sum "Si O2"
_cell_formula_units_Z 60
_cell_length_a 9.156627
_cell_length_b 16.114608
_cell_length_c 20.760869
_cell_angle_alpha 90.000000
_cell_angle_beta 90.000000
_cell_angle_gamma 90.000000
_cell_volume 3063.379465
_symmetry_space_group_name_H-M "C C C M"
_symmetry_group_IT_number 66
_symmetry_cell_setting 'orthorhombic'
loop_
_space_group_symop_operation_xyz
x,y,z
-x,-y,z
x,-y,1/2-z
-x,y,1/2-z
-x,-y,-z
x,y,-z
-x,y,1/2+z
x,-y,1/2+z
1/2+x,1/2+y,z
1/2-x,1/2-y,z
1/2+x,1/2-y,1/2-z
1/2-x,1/2+y,1/2-z
1/2-x,1/2-y,-z
1/2+x,1/2+y,-z
1/2-x,1/2+y,1/2+z
1/2+x,1/2-y,1/2+z
loop_
_atom_site_type_symbol
_atom_site_label
_atom_site_fract_x
_atom_site_fract_y
_atom_site_fract_z
Si Si1 0.202414 0.041379 0.573972
Si Si2 0.000000 0.000000 0.250000
Si Si3 0.067262 0.110753 0.862935
Si Si4 0.500000 0.138646 0.250000
Si Si5 0.500000 0.000000 0.642290
Si Si6 0.250000 0.250000 0.200762
O O1 0.195800 0.067345 0.500000
O O2 0.364635 0.028681 0.599394
O O3 0.104006 0.103155 0.618380
O O4 0.136718 0.948213 0.582775
O O5 0.909540 0.941661 0.202957
O O6 0.144427 0.196182 0.846302
O O7 0.476399 0.078296 0.189192
O O8 0.357009 0.196414 0.246136
#
# Coordination Sequence:
#
# PCOD9497907 Si02
#       6
#    16   4  16   8   8   8
#     4  10  21  41  65  88 120 170 219 255 299 377
#     4   8  18  32  60  86 112 162 204 248 298 380
#     4  10  21  36  64  90 123 162 210 255 313 376
#     4  11  27  38  65  93 130 162 202 263 325 390
#     4  11  23  42  64  96 123 161 214 260 316 377
#     4  12  24  40  59  98 133 160 196 266 340 378
#
# _framework density 19.586213000000001
#
# number of rings (size 3 to 8) (size 9 to 14) (size 15 to 20)
#    0.000    1.867    2.667    2.800   11.200    0.000 
#    0.000    2.667    0.000    1.600    0.000    0.000 
#    0.000    0.000    0.000    0.000    0.000    0.000 
#
# Total GULP energy -167129.076257 kJ/mol
# GULP energy per Si atom -5570.969209 kJ/mol
# Density = 1.954163 g / cm^3
# Si number density = 19.586213 Si / 1000 Ang^3
#
#
#
# Elastic Constant Matrix: (Units=GPa)
#
#
# Indices 1 2 3 4 5 6 
#
# 1 137.9437 47.5259 41.9535 0.0000 0.0000 0.0000
# 2 47.5259 90.1401 28.5041 0.0000 0.0000 0.0000
# 3 41.9535 28.5041 98.6103 0.0000 0.0000 0.0000
# 4 0.0000 0.0000 0.0000 19.6454 0.0000 0.0000
# 5 0.0000 0.0000 0.0000 0.0000 18.5408 0.0000
# 6 0.0000 0.0000 0.0000 0.0000 0.0000 42.3839
#
#
#
# Elastic Compliance Matrix: (Units=1/GPa)
#
#
# Indices 1 2 3 4 5 6 
#
# 1 0.009542 -0.004124 -0.002868 0.000000 0.000000 0.000000
# 2 -0.004124 0.013993 -0.002290 0.000000 0.000000 0.000000
# 3 -0.002868 -0.002290 0.012023 0.000000 0.000000 0.000000
# 4 0.000000 0.000000 0.000000 0.050903 0.000000 0.000000
# 5 0.000000 0.000000 0.000000 0.000000 0.053935 0.000000
# 6 0.000000 0.000000 0.000000 0.000000 0.000000 0.023594
#
#
# Mechanical properties :
#
#
# Convention : Reuss Voigt Hill
#
# Bulk Modulus (GPa) = 58.84450 62.51788 60.68119
# Shear Modulus (GPa) = 26.56496 30.02808 28.29652
#
# Velocity S-wave (km/s) = 3.68681 3.91976 3.80507
# Velocity P-wave (km/s) = 6.94496 7.24394 7.09602
#
# Compressibility (1/GPa) = 0.01699394
#
# Stress axis : x y z
#
# Youngs Moduli (GPa) = 104.79475 71.46669 83.17486
#
# Poissons Ratio (x) = 0.29476 0.23851
# Poissons Ratio (y) = 0.43222 0.19046
# Poissons Ratio (z) = 0.30051 0.16365
#
# Static dielectric constant tensor:
#      x y z
#    x 1.769020 0.000000 0.000000 
#    y 0.000000 1.714810 0.000000 
#    z 0.000000 0.000000 1.697530 
# 
# From -- ./inp_files/54917.got.cif
#   From: 2010.05.17/outbox.cif.g08.bks.cpg/sg66_28_cif.got.tgz:54917.got - 2010.06.03 17:51:23.
