data_PCOD9497282
_publ_section_title
;
Structure prediction by ZEFSAII (Michael W. Deem and Ramdas Pophale) SiO2 
 PCOD9497282
Probable space group: C C C M
;
_chemical_formula_sum "Si O2"
_cell_formula_units_Z 88
_cell_length_a 22.021469
_cell_length_b 12.375972
_cell_length_c 14.761726
_cell_angle_alpha 90.000000
_cell_angle_beta 90.000000
_cell_angle_gamma 90.000000
_cell_volume 4023.117755
_symmetry_space_group_name_H-M "C C C M"
_symmetry_group_IT_number 66
_symmetry_cell_setting 'orthorhombic'
loop_
_space_group_symop_operation_xyz
x,y,z
-x,-y,z
x,-y,1/2-z
-x,y,1/2-z
-x,-y,-z
x,y,-z
-x,y,1/2+z
x,-y,1/2+z
1/2+x,1/2+y,z
1/2-x,1/2-y,z
1/2+x,1/2-y,1/2-z
1/2-x,1/2+y,1/2-z
1/2-x,1/2-y,-z
1/2+x,1/2+y,-z
1/2-x,1/2+y,1/2+z
1/2+x,1/2-y,1/2+z
loop_
_atom_site_type_symbol
_atom_site_label
_atom_site_fract_x
_atom_site_fract_y
_atom_site_fract_z
Si Si1 0.678221 0.361282 0.606119
Si Si2 0.265647 0.933683 0.900493
Si Si3 0.250000 0.750000 0.249536
Si Si4 0.958971 0.098003 0.390080
Si Si5 0.897315 0.513427 0.648763
Si Si6 0.994100 0.665931 0.106747
O O1 0.677543 0.323612 0.500000
O O2 0.728293 0.455678 0.613589
O O3 0.694986 0.270559 0.679759
O O4 0.612417 0.409949 0.628665
O O5 0.254841 0.851376 0.818234
O O6 0.337175 0.958329 0.904720
O O7 0.246069 0.890727 0.000000
O O8 0.963705 0.099210 0.500000
O O9 0.982419 0.214352 0.358635
O O10 0.000000 0.000000 0.356847
O O11 0.875024 0.500000 0.750000
O O12 0.948613 0.606428 0.650214
O O13 0.934394 0.408103 0.617471
O O14 0.007868 0.669959 0.000000
#
# Coordination Sequence:
#
# PCOD9497282 Si02
#       6
#    16  16   8  16  16  16
#     4  10  23  42  67 101 135 176 223 273 338 405
#     4  11  25  44  67  93 130 178 227 283 343 407
#     4  12  24  42  66  98 134 170 224 286 342 404
#     4   9  20  39  65  95 130 176 222 265 317 393
#     4  11  22  38  61  94 130 166 213 275 339 394
#     4  10  20  36  61  91 129 169 216 264 323 403
#
# _framework density 21.873584000000001
#
# number of rings (size 3 to 8) (size 9 to 14) (size 15 to 20)
#    0.000    1.636    0.000    5.455    5.091    1.455 
#    0.000    3.636    0.000    0.000    0.000    0.000 
#    0.000    0.727    0.000    0.000    0.000    0.000 
#
# Total GULP energy -245957.390142 kJ/mol
# GULP energy per Si atom -5589.940685 kJ/mol
# Density = 2.182380 g / cm^3
# Si number density = 21.873584 Si / 1000 Ang^3
#
#
#
# Elastic Constant Matrix: (Units=GPa)
#
#
# Indices 1 2 3 4 5 6 
#
# 1 85.6508 37.3803 15.3517 0.0000 0.0000 0.0000
# 2 37.3803 96.9624 11.6498 0.0000 0.0000 0.0000
# 3 15.3517 11.6498 128.0275 0.0000 0.0000 0.0000
# 4 0.0000 0.0000 0.0000 45.7964 0.0000 0.0000
# 5 0.0000 0.0000 0.0000 0.0000 6.2984 0.0000
# 6 0.0000 0.0000 0.0000 0.0000 0.0000 8.6251
#
#
#
# Elastic Compliance Matrix: (Units=1/GPa)
#
#
# Indices 1 2 3 4 5 6 
#
# 1 0.014223 -0.005337 -0.001220 0.000000 0.000000 0.000000
# 2 -0.005337 0.012430 -0.000491 0.000000 0.000000 0.000000
# 3 -0.001220 -0.000491 0.008002 0.000000 0.000000 0.000000
# 4 0.000000 0.000000 0.000000 0.021836 0.000000 0.000000
# 5 0.000000 0.000000 0.000000 0.000000 0.158771 0.000000
# 6 0.000000 0.000000 0.000000 0.000000 0.000000 0.115940
#
#
# Mechanical properties :
#
#
# Convention : Reuss Voigt Hill
#
# Bulk Modulus (GPa) = 48.63997 48.82271 48.73134
# Shear Modulus (GPa) = 14.19851 28.56125 21.37988
#
# Velocity S-wave (km/s) = 2.55054 3.61742 3.12978
# Velocity P-wave (km/s) = 5.56406 6.31003 5.94875
#
# Compressibility (1/GPa) = 0.02055922
#
# Stress axis : x y z
#
# Youngs Moduli (GPa) = 70.30876 80.45310 124.97213
#
# Poissons Ratio (x) = 0.42934 0.15245
# Poissons Ratio (y) = 0.37521 0.06138
# Poissons Ratio (z) = 0.08577 0.03951
#
# Static dielectric constant tensor:
#      x y z
#    x 1.771600 0.000000 0.000000 
#    y 0.000000 1.798030 0.000000 
#    z 0.000000 0.000000 1.806140 
# 
# From -- ./inp_files/32230.got.cif
#   From: 2010.05.17/outbox.cif.g08.bks.cpg/sg66_17_cif.got.tgz:32230.got - 2010.06.03 17:51:23.
