data_PCOD9497352
_publ_section_title
;
Structure prediction by ZEFSAII (Michael W. Deem and Ramdas Pophale) SiO2 
 PCOD9497352
Probable space group: C C C M
;
_chemical_formula_sum "Si O2"
_cell_formula_units_Z 72
_cell_length_a 13.176162
_cell_length_b 25.728541
_cell_length_c 9.964156
_cell_angle_alpha 90.000000
_cell_angle_beta 90.000000
_cell_angle_gamma 90.000000
_cell_volume 3377.883004
_symmetry_space_group_name_H-M "C C C M"
_symmetry_group_IT_number 66
_symmetry_cell_setting 'orthorhombic'
loop_
_space_group_symop_operation_xyz
x,y,z
-x,-y,z
x,-y,1/2-z
-x,y,1/2-z
-x,-y,-z
x,y,-z
-x,y,1/2+z
x,-y,1/2+z
1/2+x,1/2+y,z
1/2-x,1/2-y,z
1/2+x,1/2-y,1/2-z
1/2-x,1/2+y,1/2-z
1/2-x,1/2-y,-z
1/2+x,1/2+y,-z
1/2-x,1/2+y,1/2+z
1/2+x,1/2-y,1/2+z
loop_
_atom_site_type_symbol
_atom_site_label
_atom_site_fract_x
_atom_site_fract_y
_atom_site_fract_z
Si Si1 0.723187 0.488199 0.000000
Si Si2 0.164546 0.652815 0.217443
Si Si3 0.258749 0.614950 0.500000
Si Si4 0.039590 0.814876 0.500000
Si Si5 0.330581 0.624595 0.000000
Si Si6 0.852041 0.500000 0.750000
Si Si7 0.500000 0.079782 0.250000
Si Si8 0.000000 0.258555 0.750000
O O1 0.648686 0.438114 0.000000
O O2 0.783851 0.476555 0.864383
O O3 0.712507 0.552178 0.000000
O O4 0.196817 0.633482 0.366974
O O5 0.074463 0.614945 0.165327
O O6 0.101040 0.706517 0.219872
O O7 0.262724 0.645102 0.125448
O O8 0.362253 0.648341 0.500000
O O9 0.938873 0.849181 0.500000
O O10 0.032996 0.777599 0.627900
O O11 0.924112 0.541035 0.823656
#
# Coordination Sequence:
#
# PCOD9497352 Si02
#       8
#     8  16   8   8   8   8   8   8
#     4  12  22  42  62  98 134 178 210 260 320 394
#     4  11  24  42  68  99 136 164 211 270 335 396
#     4  12  25  44  67  97 133 175 220 266 323 381
#     4  12  28  47  68  92 126 179 236 276 308 370
#     4  12  25  44  67  97 133 175 220 266 323 381
#     4  11  22  34  62  93 138 175 206 250 328 401
#     4  10  20  37  58 100 130 169 196 256 322 408
#     4  11  26  47  70 102 128 165 220 273 340 390
#
# _framework density 21.315124999999998
#
# number of rings (size 3 to 8) (size 9 to 14) (size 15 to 20)
#    0.000    0.667    4.444    2.667    0.000   12.000 
#    0.000    0.000    0.000    5.333    0.000    0.000 
#    0.000    0.000    0.000    0.000    0.000    0.000 
#
# Total GULP energy -200492.740118 kJ/mol
# GULP energy per Si atom -5569.242781 kJ/mol
# Density = 2.126661 g / cm^3
# Si number density = 21.315125 Si / 1000 Ang^3
#
#
#
# Elastic Constant Matrix: (Units=GPa)
#
#
# Indices 1 2 3 4 5 6 
#
# 1 105.2619 66.0901 21.1882 0.0000 0.0000 0.0000
# 2 66.0901 169.2134 31.6742 0.0000 0.0000 0.0000
# 3 21.1882 31.6742 114.7999 0.0000 0.0000 0.0000
# 4 0.0000 0.0000 0.0000 21.7506 0.0000 0.0000
# 5 0.0000 0.0000 0.0000 0.0000 -5.9149 0.0000
# 6 0.0000 0.0000 0.0000 0.0000 0.0000 75.3244
#
#
#
# Elastic Compliance Matrix: (Units=1/GPa)
#
#
# Indices 1 2 3 4 5 6 
#
# 1 0.012701 -0.004768 -0.001029 0.000000 0.000000 0.000000
# 2 -0.004768 0.008022 -0.001333 0.000000 0.000000 0.000000
# 3 -0.001029 -0.001333 0.009268 0.000000 0.000000 0.000000
# 4 0.000000 0.000000 0.000000 0.045976 0.000000 0.000000
# 5 0.000000 0.000000 0.000000 0.000000 -0.169064 0.000000
# 6 0.000000 0.000000 0.000000 0.000000 0.000000 0.013276
#
#
# Mechanical properties :
#
#
# Convention : Reuss Voigt Hill
#
# Bulk Modulus (GPa) = 63.56803 69.68668 66.62735
# Shear Modulus (GPa) = -82.89453 36.25352 -23.32051
#
# Velocity S-wave (km/s) = -6.24295 4.12859 -3.31128
# Velocity P-wave (km/s) = 4.69874 7.44926 4.08738
#
# Compressibility (1/GPa) = 0.01573118
#
# Stress axis : x y z
#
# Youngs Moduli (GPa) = 78.73482 124.66450 107.89241
#
# Poissons Ratio (x) = 0.59441 0.11098
# Poissons Ratio (y) = 0.37541 0.14384
# Poissons Ratio (z) = 0.08099 0.16620
#
# Static dielectric constant tensor:
#      x y z
#    x 1.725140 0.000000 0.000000 
#    y 0.000000 1.871120 0.000000 
#    z 0.000000 0.000000 1.733950 
# 
# From -- ./inp_files/5431.got.cif
#   From: 2010.05.17/outbox.cif.g08.bks.cpg/sg66_3_cif.got.tgz:5431.got - 2010.06.03 17:51:23.
