data_PCOD9497553
_publ_section_title
;
Structure prediction by ZEFSAII (Michael W. Deem and Ramdas Pophale) SiO2 
 PCOD9497553
Probable space group: C C C M
;
_chemical_formula_sum "Si O2"
_cell_formula_units_Z 116
_cell_length_a 30.639744
_cell_length_b 11.170932
_cell_length_c 15.472094
_cell_angle_alpha 90.000000
_cell_angle_beta 90.000000
_cell_angle_gamma 90.000000
_cell_volume 5295.703187
_symmetry_space_group_name_H-M "C C C M"
_symmetry_group_IT_number 66
_symmetry_cell_setting 'orthorhombic'
loop_
_space_group_symop_operation_xyz
x,y,z
-x,-y,z
x,-y,1/2-z
-x,y,1/2-z
-x,-y,-z
x,y,-z
-x,y,1/2+z
x,-y,1/2+z
1/2+x,1/2+y,z
1/2-x,1/2-y,z
1/2+x,1/2-y,1/2-z
1/2-x,1/2+y,1/2-z
1/2-x,1/2-y,-z
1/2+x,1/2+y,-z
1/2-x,1/2+y,1/2+z
1/2+x,1/2-y,1/2+z
loop_
_atom_site_type_symbol
_atom_site_label
_atom_site_fract_x
_atom_site_fract_y
_atom_site_fract_z
Si Si1 0.082758 0.086505 0.673605
Si Si2 0.688772 0.010658 0.852166
Si Si3 0.652310 0.459545 0.597488
Si Si4 0.500000 0.500000 0.750000
Si Si5 0.375722 0.204075 0.896683
Si Si6 0.046304 0.453141 0.898314
Si Si7 0.112263 0.676288 0.900093
Si Si8 0.726995 0.629837 0.599485
O O1 0.031358 0.078090 0.689449
O O2 0.097856 0.220908 0.664599
O O3 0.100132 0.000000 0.750000
O O4 0.104382 0.018304 0.594114
O O5 0.659244 0.125393 0.875489
O O6 0.734992 0.030475 0.896485
O O7 0.694991 0.000000 0.750000
O O8 0.660137 0.898472 0.882394
O O9 0.669378 0.440368 0.500000
O O10 0.644333 0.328284 0.636895
O O11 0.684513 0.561188 0.636936
O O12 0.422997 0.155306 0.862595
O O13 0.381897 0.218210 0.000000
O O14 0.078609 0.566462 0.894749
O O15 0.000000 0.500000 0.861424
O O16 0.037922 0.424120 0.000000
O O17 0.112489 0.717114 0.000000
O O18 0.716075 0.662190 0.500000
O O19 0.750000 0.750000 0.638599
#
# Coordination Sequence:
#
# PCOD9497553 Si02
#       8
#    16  16  16   4  16  16  16  16
#     4  10  22  40  61  84 124 163 204 255 318 387
#     4  11  23  37  59  90 124 163 207 256 323 390
#     4  10  21  37  63  92 117 161 211 259 320 381
#     4   8  24  40  54  84 130 172 186 256 340 382
#     4   9  19  36  57  85 123 160 202 259 319 383
#     4   8  15  30  54  86 117 148 195 256 309 360
#     4  10  20  38  64  89 119 165 216 260 312 381
#     4  10  21  40  63  87 118 158 211 267 316 376
#
# _framework density 21.904551999999999
#
# number of rings (size 3 to 8) (size 9 to 14) (size 15 to 20)
#    0.414    1.931    0.000    3.310    1.931    3.310 
#    2.483    4.828    0.000    3.724    0.000    0.000 
#    0.000    0.000    0.000    0.000    0.000    0.000 
#
# Total GULP energy -322999.357842 kJ/mol
# GULP energy per Si atom -5568.954446 kJ/mol
# Density = 2.185470 g / cm^3
# Si number density = 21.904552 Si / 1000 Ang^3
#
#
#
# Elastic Constant Matrix: (Units=GPa)
#
#
# Indices 1 2 3 4 5 6 
#
# 1 141.7752 49.4679 13.4922 0.0000 0.0000 0.0000
# 2 49.4679 127.4841 20.6650 0.0000 0.0000 0.0000
# 3 13.4922 20.6650 55.8975 0.0000 0.0000 0.0000
# 4 0.0000 0.0000 0.0000 24.9189 0.0000 0.0000
# 5 0.0000 0.0000 0.0000 0.0000 17.9963 0.0000
# 6 0.0000 0.0000 0.0000 0.0000 0.0000 23.9087
#
#
#
# Elastic Compliance Matrix: (Units=1/GPa)
#
#
# Indices 1 2 3 4 5 6 
#
# 1 0.008196 -0.003042 -0.000854 0.000000 0.000000 0.000000
# 2 -0.003042 0.009473 -0.002768 0.000000 0.000000 0.000000
# 3 -0.000854 -0.002768 0.019119 0.000000 0.000000 0.000000
# 4 0.000000 0.000000 0.000000 0.040130 0.000000 0.000000
# 5 0.000000 0.000000 0.000000 0.000000 0.055567 0.000000
# 6 0.000000 0.000000 0.000000 0.000000 0.000000 0.041826
#
#
# Mechanical properties :
#
#
# Convention : Reuss Voigt Hill
#
# Bulk Modulus (GPa) = 42.62347 54.71189 48.66768
# Shear Modulus (GPa) = 25.58081 29.46689 27.52385
#
# Velocity S-wave (km/s) = 3.42106 3.67173 3.54861
# Velocity P-wave (km/s) = 5.92502 6.55798 6.24952
#
# Compressibility (1/GPa) = 0.02346125
#
# Stress axis : x y z
#
# Youngs Moduli (GPa) = 122.00991 105.56136 52.30337
#
# Poissons Ratio (x) = 0.32111 0.04465
# Poissons Ratio (y) = 0.37115 0.14477
# Poissons Ratio (z) = 0.10416 0.29219
#
# Static dielectric constant tensor:
#      x y z
#    x 1.822180 0.000000 0.000000 
#    y 0.000000 1.835000 0.000000 
#    z 0.000000 0.000000 1.844110 
# 
# From -- ./inp_files/44773.got.cif
#   From: 2010.05.17/outbox.cif.g08.bks.cpg/sg66_23_cif.got.tgz:44773.got - 2010.06.03 17:51:23.
