data_PCOD9497502
_publ_section_title
;
Structure prediction by ZEFSAII (Michael W. Deem and Ramdas Pophale) SiO2 
 PCOD9497502
Probable space group: C C C M
;
_chemical_formula_sum "Si O2"
_cell_formula_units_Z 88
_cell_length_a 15.476235
_cell_length_b 10.922679
_cell_length_c 27.729740
_cell_angle_alpha 90.000000
_cell_angle_beta 90.000000
_cell_angle_gamma 90.000000
_cell_volume 4687.489240
_symmetry_space_group_name_H-M "C C C M"
_symmetry_group_IT_number 66
_symmetry_cell_setting 'orthorhombic'
loop_
_space_group_symop_operation_xyz
x,y,z
-x,-y,z
x,-y,1/2-z
-x,y,1/2-z
-x,-y,-z
x,y,-z
-x,y,1/2+z
x,-y,1/2+z
1/2+x,1/2+y,z
1/2-x,1/2-y,z
1/2+x,1/2-y,1/2-z
1/2-x,1/2+y,1/2-z
1/2-x,1/2-y,-z
1/2+x,1/2+y,-z
1/2-x,1/2+y,1/2+z
1/2+x,1/2-y,1/2+z
loop_
_atom_site_type_symbol
_atom_site_label
_atom_site_fract_x
_atom_site_fract_y
_atom_site_fract_z
Si Si1 0.750000 0.250000 0.614958
Si Si2 0.873481 0.912733 0.942812
Si Si3 0.064785 0.185971 0.442364
Si Si4 0.804344 0.632208 0.739951
Si Si5 0.910281 0.636431 0.831360
Si Si6 0.901705 0.359614 0.857438
O O1 0.789782 0.141421 0.582870
O O2 0.831723 0.289244 0.646314
O O3 0.961555 0.834395 0.933293
O O4 0.893224 0.053947 0.930433
O O5 0.860968 0.907727 0.000000
O O6 0.075172 0.208832 0.500000
O O7 0.105890 0.289498 0.408094
O O8 0.759461 0.500000 0.750000
O O9 0.750000 0.750000 0.754738
O O10 0.887032 0.621394 0.775226
O O11 0.831329 0.655077 0.684698
O O12 0.908073 0.506632 0.859433
O O13 0.005959 0.687164 0.837255
#
# Coordination Sequence:
#
# PCOD9497502 Si02
#       6
#     8  16  16  16  16  16
#     4  12  19  34  60  84 118 148 191 244 282 348
#     4   9  19  34  56  84 116 157 192 237 297 345
#     4   9  18  36  57  82 117 153 196 241 288 345
#     4  10  21  38  60  85 119 153 193 242 293 351
#     4  10  21  36  58  85 117 150 192 236 293 339
#     4  10  20  38  59  84 112 158 194 230 287 354
#
# _framework density 18.773377
#
# number of rings (size 3 to 8) (size 9 to 14) (size 15 to 20)
#    0.000    2.182    2.727    1.909    0.000    5.091 
#    0.000    3.636    0.000    3.818    0.000    0.000 
#    0.000    0.000    0.000    0.000    0.000    0.000 
#
# Total GULP energy -244973.230713 kJ/mol
# GULP energy per Si atom -5567.573425 kJ/mol
# Density = 1.873065 g / cm^3
# Si number density = 18.773377 Si / 1000 Ang^3
#
#
#
# Elastic Constant Matrix: (Units=GPa)
#
#
# Indices 1 2 3 4 5 6 
#
# 1 50.5954 24.5079 9.1805 0.0000 0.0000 0.0000
# 2 24.5079 75.0418 45.5446 0.0000 0.0000 0.0000
# 3 9.1805 45.5446 82.5096 0.0000 0.0000 0.0000
# 4 0.0000 0.0000 0.0000 27.6018 0.0000 0.0000
# 5 0.0000 0.0000 0.0000 0.0000 14.6070 0.0000
# 6 0.0000 0.0000 0.0000 0.0000 0.0000 30.5082
#
#
#
# Elastic Compliance Matrix: (Units=1/GPa)
#
#
# Indices 1 2 3 4 5 6 
#
# 1 0.023809 -0.009275 0.002471 0.000000 0.000000 0.000000
# 2 -0.009275 0.023653 -0.012024 0.000000 0.000000 0.000000
# 3 0.002471 -0.012024 0.018482 0.000000 0.000000 0.000000
# 4 0.000000 0.000000 0.000000 0.036229 0.000000 0.000000
# 5 0.000000 0.000000 0.000000 0.000000 0.068460 0.000000
# 6 0.000000 0.000000 0.000000 0.000000 0.000000 0.032778
#
#
# Mechanical properties :
#
#
# Convention : Reuss Voigt Hill
#
# Bulk Modulus (GPa) = 35.35232 40.73475 38.04354
# Shear Modulus (GPa) = 19.96018 23.13766 21.54892
#
# Velocity S-wave (km/s) = 3.26424 3.51447 3.39166
# Velocity P-wave (km/s) = 5.75143 6.18174 5.97046
#
# Compressibility (1/GPa) = 0.02828668
#
# Stress axis : x y z
#
# Youngs Moduli (GPa) = 42.00048 42.27804 54.10633
#
# Poissons Ratio (x) = 0.39215 -0.13369
# Poissons Ratio (y) = 0.38957 0.65058
# Poissons Ratio (z) = -0.10378 0.50836
#
# Static dielectric constant tensor:
#      x y z
#    x 1.660640 0.000000 0.000000 
#    y 0.000000 1.680520 0.000000 
#    z 0.000000 0.000000 1.670430 
# 
# From -- ./inp_files/57999.got.cif
#   From: 2010.05.17/outbox.cif.g08.bks.cpg/sg66_29_cif.got.tgz:57999.got - 2010.06.03 17:51:23.
