data_PCOD9497112
_publ_section_title
;
Structure prediction by ZEFSAII (Michael W. Deem and Ramdas Pophale) SiO2 
 PCOD9497112
Probable space group: C C C M
;
_chemical_formula_sum "Si O2"
_cell_formula_units_Z 88
_cell_length_a 13.284716
_cell_length_b 20.713184
_cell_length_c 17.093054
_cell_angle_alpha 90.000000
_cell_angle_beta 90.000000
_cell_angle_gamma 90.000000
_cell_volume 4703.474592
_symmetry_space_group_name_H-M "C C C M"
_symmetry_group_IT_number 66
_symmetry_cell_setting 'orthorhombic'
loop_
_space_group_symop_operation_xyz
x,y,z
-x,-y,z
x,-y,1/2-z
-x,y,1/2-z
-x,-y,-z
x,y,-z
-x,y,1/2+z
x,-y,1/2+z
1/2+x,1/2+y,z
1/2-x,1/2-y,z
1/2+x,1/2-y,1/2-z
1/2-x,1/2+y,1/2-z
1/2-x,1/2-y,-z
1/2+x,1/2+y,-z
1/2-x,1/2+y,1/2+z
1/2+x,1/2-y,1/2+z
loop_
_atom_site_type_symbol
_atom_site_label
_atom_site_fract_x
_atom_site_fract_y
_atom_site_fract_z
Si Si1 0.410667 0.290363 0.409822
Si Si2 0.898353 0.670792 0.295032
Si Si3 0.240890 0.395057 0.408593
Si Si4 0.117923 0.007437 0.156543
Si Si5 0.620662 0.353571 0.407575
Si Si6 0.250000 0.750000 0.316488
O O1 0.416326 0.268905 0.500000
O O2 0.421732 0.230210 0.353318
O O3 0.307733 0.329768 0.399474
O O4 0.502166 0.339669 0.395388
O O5 0.849619 0.614634 0.347776
O O6 0.816840 0.701403 0.235662
O O7 0.000000 0.652252 0.250000
O O8 0.211778 0.400017 0.500000
O O9 0.312654 0.454374 0.385072
O O10 0.149364 0.079229 0.132002
O O11 0.125072 0.000000 0.250000
O O12 0.000000 0.000000 0.134022
O O13 0.639390 0.356875 0.500000
O O14 0.678518 0.294184 0.369167
#
# Coordination Sequence:
#
# PCOD9497112 Si02
#       6
#    16  16  16  16  16   8
#     4  10  20  35  59  91 129 166 204 252 314 380
#     4  12  23  37  60  90 127 168 214 262 313 367
#     4  11  22  39  62  93 130 170 210 254 317 383
#     4  11  23  37  63  95 130 162 199 252 318 384
#     4  11  23  39  59  90 127 164 202 251 313 375
#     4  12  23  38  61  86 120 162 212 258 309 360
#
# _framework density 18.709572999999999
#
# number of rings (size 3 to 8) (size 9 to 14) (size 15 to 20)
#    0.000    0.909    5.455    2.455    0.000    2.182 
#    0.000    0.000    0.000    4.909    0.000    6.364 
#    0.000    0.000    0.000    0.000    0.000    0.000 
#
# Total GULP energy -245977.504170 kJ/mol
# GULP energy per Si atom -5590.397822 kJ/mol
# Density = 1.866699 g / cm^3
# Si number density = 18.709573 Si / 1000 Ang^3
#
#
#
# Elastic Constant Matrix: (Units=GPa)
#
#
# Indices 1 2 3 4 5 6 
#
# 1 88.4453 13.4365 53.2402 0.0000 0.0000 0.0000
# 2 13.4365 64.1484 40.1781 0.0000 0.0000 0.0000
# 3 53.2402 40.1781 74.0399 0.0000 0.0000 0.0000
# 4 0.0000 0.0000 0.0000 72.1237 0.0000 0.0000
# 5 0.0000 0.0000 0.0000 0.0000 34.7164 0.0000
# 6 0.0000 0.0000 0.0000 0.0000 0.0000 22.0948
#
#
#
# Elastic Compliance Matrix: (Units=1/GPa)
#
#
# Indices 1 2 3 4 5 6 
#
# 1 0.022461 0.008198 -0.020600 0.000000 0.000000 0.000000
# 2 0.008198 0.026607 -0.020333 0.000000 0.000000 0.000000
# 3 -0.020600 -0.020333 0.039353 0.000000 0.000000 0.000000
# 4 0.000000 0.000000 0.000000 0.013865 0.000000 0.000000
# 5 0.000000 0.000000 0.000000 0.000000 0.028805 0.000000
# 6 0.000000 0.000000 0.000000 0.000000 0.000000 0.045260
#
#
# Mechanical properties :
#
#
# Convention : Reuss Voigt Hill
#
# Bulk Modulus (GPa) = 43.57197 48.92701 46.24949
# Shear Modulus (GPa) = 20.04241 33.77224 26.90733
#
# Velocity S-wave (km/s) = 3.27653 4.25323 3.79642
# Velocity P-wave (km/s) = 6.13623 7.09419 6.63253
#
# Compressibility (1/GPa) = 0.02295053
#
# Stress axis : x y z
#
# Youngs Moduli (GPa) = 44.52131 37.58403 25.41117
#
# Poissons Ratio (x) = -0.30810 0.52346
# Poissons Ratio (y) = -0.36496 0.51669
# Poissons Ratio (z) = 0.91712 0.76420
#
# Static dielectric constant tensor:
#      x y z
#    x 1.677290 0.000000 0.000000 
#    y 0.000000 1.619460 0.000000 
#    z 0.000000 0.000000 1.645130 
# 
# From -- ./inp_files/40346.got.cif
#   From: 2010.05.17/outbox.cif.g08.bks.cpg/sg66_21_cif.got.tgz:40346.got - 2010.06.03 17:51:23.
