data_PCOD9497656
_publ_section_title
;
Structure prediction by ZEFSAII (Michael W. Deem and Ramdas Pophale) SiO2 
 PCOD9497656
Probable space group: C C C M
;
_chemical_formula_sum "Si O2"
_cell_formula_units_Z 72
_cell_length_a 16.594462
_cell_length_b 14.331360
_cell_length_c 15.843124
_cell_angle_alpha 90.000000
_cell_angle_beta 90.000000
_cell_angle_gamma 90.000000
_cell_volume 3767.830903
_symmetry_space_group_name_H-M "C C C M"
_symmetry_group_IT_number 66
_symmetry_cell_setting 'orthorhombic'
loop_
_space_group_symop_operation_xyz
x,y,z
-x,-y,z
x,-y,1/2-z
-x,y,1/2-z
-x,-y,-z
x,y,-z
-x,y,1/2+z
x,-y,1/2+z
1/2+x,1/2+y,z
1/2-x,1/2-y,z
1/2+x,1/2-y,1/2-z
1/2-x,1/2+y,1/2-z
1/2-x,1/2-y,-z
1/2+x,1/2+y,-z
1/2-x,1/2+y,1/2+z
1/2+x,1/2-y,1/2+z
loop_
_atom_site_type_symbol
_atom_site_label
_atom_site_fract_x
_atom_site_fract_y
_atom_site_fract_z
Si Si1 0.457695 0.097194 0.899300
Si Si2 0.589719 0.458739 0.904989
Si Si3 0.808505 0.329024 0.294145
Si Si4 0.438884 0.264876 0.323541
Si Si5 0.700287 0.500000 0.750000
O O1 0.372019 0.120173 0.856121
O O2 0.515788 0.181510 0.871324
O O3 0.500000 0.000000 0.871537
O O4 0.448787 0.094281 0.000000
O O5 0.500000 0.500000 0.899253
O O6 0.583171 0.349243 0.884240
O O7 0.645228 0.502508 0.833077
O O8 0.619989 0.474835 0.000000
O O9 0.750000 0.250000 0.333882
O O10 0.861861 0.276116 0.224335
O O11 0.754931 0.408432 0.251310
O O12 0.500000 0.299766 0.250000
#
# Coordination Sequence:
#
# PCOD9497656 Si02
#       5
#    16  16  16  16   8
#     4  10  22  40  63  90 124 167 216 265 313 382
#     4  11  24  40  63  91 121 166 213 256 309 375
#     4  11  23  39  63  93 124 166 205 260 329 381
#     4  10  20  40  64  90 120 162 209 254 309 379
#     4  12  23  42  63  88 132 162 202 262 319 386
#
# _framework density 19.109138999999999
#
# number of rings (size 3 to 8) (size 9 to 14) (size 15 to 20)
#    0.000    1.333    2.222    3.667    3.111    4.444 
#    0.000    3.333    0.000    0.000    0.000    0.000 
#    0.000    0.000    0.000    0.000    0.000    0.000 
#
# Total GULP energy -201168.500125 kJ/mol
# GULP energy per Si atom -5588.013892 kJ/mol
# Density = 1.906565 g / cm^3
# Si number density = 19.109139 Si / 1000 Ang^3
#
#
#
# Elastic Constant Matrix: (Units=GPa)
#
#
# Indices 1 2 3 4 5 6 
#
# 1 105.6057 32.3213 57.3095 0.0000 0.0000 0.0000
# 2 32.3213 57.9683 24.9073 0.0000 0.0000 0.0000
# 3 57.3095 24.9073 114.9472 0.0000 0.0000 0.0000
# 4 0.0000 0.0000 0.0000 26.8750 0.0000 0.0000
# 5 0.0000 0.0000 0.0000 0.0000 50.4905 0.0000
# 6 0.0000 0.0000 0.0000 0.0000 0.0000 26.6216
#
#
#
# Elastic Compliance Matrix: (Units=1/GPa)
#
#
# Indices 1 2 3 4 5 6 
#
# 1 0.014389 -0.005448 -0.005994 0.000000 0.000000 0.000000
# 2 -0.005448 0.021084 -0.001853 0.000000 0.000000 0.000000
# 3 -0.005994 -0.001853 0.012089 0.000000 0.000000 0.000000
# 4 0.000000 0.000000 0.000000 0.037209 0.000000 0.000000
# 5 0.000000 0.000000 0.000000 0.000000 0.019806 0.000000
# 6 0.000000 0.000000 0.000000 0.000000 0.000000 0.037563
#
#
# Mechanical properties :
#
#
# Convention : Reuss Voigt Hill
#
# Bulk Modulus (GPa) = 47.67579 56.39971 52.03775
# Shear Modulus (GPa) = 28.45432 31.72962 30.09197
#
# Velocity S-wave (km/s) = 3.86300 4.07927 3.97261
# Velocity P-wave (km/s) = 6.70077 7.19485 6.95220
#
# Compressibility (1/GPa) = 0.02097501
#
# Stress axis : x y z
#
# Youngs Moduli (GPa) = 69.49750 47.42883 82.71776
#
# Poissons Ratio (x) = 0.25837 0.49577
# Poissons Ratio (y) = 0.37859 0.15324
# Poissons Ratio (z) = 0.41654 0.08787
#
# Static dielectric constant tensor:
#      x y z
#    x 1.656960 0.000000 0.000000 
#    y 0.000000 1.661370 0.000000 
#    z 0.000000 0.000000 1.646600 
# 
# From -- ./inp_files/29807.got.cif
#   From: 2010.05.17/outbox.cif.g08.bks.cpg/sg66_15_cif.got.tgz:29807.got - 2010.06.03 17:51:23.
