data_PCOD9497738
_publ_section_title
;
Structure prediction by ZEFSAII (Michael W. Deem and Ramdas Pophale) SiO2 
 PCOD9497738
Probable space group: C C C M
;
_chemical_formula_sum "Si O2"
_cell_formula_units_Z 112
_cell_length_a 27.818414
_cell_length_b 15.132472
_cell_length_c 15.066684
_cell_angle_alpha 90.000000
_cell_angle_beta 90.000000
_cell_angle_gamma 90.000000
_cell_volume 6342.491952
_symmetry_space_group_name_H-M "C C C M"
_symmetry_group_IT_number 66
_symmetry_cell_setting 'orthorhombic'
loop_
_space_group_symop_operation_xyz
x,y,z
-x,-y,z
x,-y,1/2-z
-x,y,1/2-z
-x,-y,-z
x,y,-z
-x,y,1/2+z
x,-y,1/2+z
1/2+x,1/2+y,z
1/2-x,1/2-y,z
1/2+x,1/2-y,1/2-z
1/2-x,1/2+y,1/2-z
1/2-x,1/2-y,-z
1/2+x,1/2+y,-z
1/2-x,1/2+y,1/2+z
1/2+x,1/2-y,1/2+z
loop_
_atom_site_type_symbol
_atom_site_label
_atom_site_fract_x
_atom_site_fract_y
_atom_site_fract_z
Si Si1 0.557595 0.304885 0.100632
Si Si2 0.307688 0.591600 0.302412
Si Si3 0.192476 0.144686 0.000000
Si Si4 0.806478 0.591647 0.802335
Si Si5 0.373731 0.247110 0.750290
Si Si6 0.191738 0.351632 0.000000
Si Si7 0.557899 0.501242 0.852733
Si Si8 0.944987 0.801361 0.898790
O O1 0.592778 0.253372 0.164771
O O2 0.572343 0.408663 0.104844
O O3 0.501364 0.298628 0.128901
O O4 0.560522 0.274335 0.000000
O O5 0.314922 0.500000 0.250000
O O6 0.319955 0.595123 0.408059
O O7 0.250618 0.612824 0.296920
O O8 0.340002 0.666890 0.258467
O O9 0.175095 0.247877 0.000000
O O10 0.250278 0.151580 0.000000
O O11 0.813299 0.500000 0.750000
O O12 0.838787 0.664545 0.754909
O O13 0.820523 0.599250 0.907356
O O14 0.410556 0.249647 0.833008
O O15 0.500000 0.500000 0.855680
O O16 0.572749 0.500000 0.750000
O O17 0.570449 0.595294 0.894048
O O18 0.941836 0.771356 0.000000
#
# Coordination Sequence:
#
# PCOD9497738 Si02
#       8
#    16  16   8  16  16   8  16  16
#     4  10  21  37  51  74 117 158 186 224 284 343
#     4  10  22  37  57  88 123 154 184 234 295 343
#     4   9  16  34  60  83 115 148 186 235 285 334
#     4  10  22  41  61  84 115 149 190 247 302 344
#     4  12  22  34  60  86 111 150 196 240 277 347
#     4   9  16  34  64  85 105 144 188 243 294 339
#     4   9  15  29  49  69 104 150 185 216 266 332
#     4  10  21  33  53  82 113 147 186 235 283 337
#
# _framework density 17.658674000000001
#
# number of rings (size 3 to 8) (size 9 to 14) (size 15 to 20)
#    0.000    2.000    2.857    1.286    4.000    1.714 
#    2.571    0.000    0.000    2.571    0.000    2.000 
#    0.000    0.000    0.000    0.000    0.000    0.000 
#
# Total GULP energy -312388.989406 kJ/mol
# GULP energy per Si atom -5578.374811 kJ/mol
# Density = 1.761848 g / cm^3
# Si number density = 17.658674 Si / 1000 Ang^3
#
#
#
# Elastic Constant Matrix: (Units=GPa)
#
#
# Indices 1 2 3 4 5 6 
#
# 1 110.3229 55.4300 48.6204 0.0000 0.0000 0.0000
# 2 55.4300 72.8713 53.7363 0.0000 0.0000 0.0000
# 3 48.6204 53.7363 112.8862 0.0000 0.0000 0.0000
# 4 0.0000 0.0000 0.0000 -26.0105 0.0000 0.0000
# 5 0.0000 0.0000 0.0000 0.0000 16.9063 0.0000
# 6 0.0000 0.0000 0.0000 0.0000 0.0000 21.1122
#
#
#
# Elastic Compliance Matrix: (Units=1/GPa)
#
#
# Indices 1 2 3 4 5 6 
#
# 1 0.014850 -0.010138 -0.001570 0.000000 0.000000 0.000000
# 2 -0.010138 0.028066 -0.008994 0.000000 0.000000 0.000000
# 3 -0.001570 -0.008994 0.013816 0.000000 0.000000 0.000000
# 4 0.000000 0.000000 0.000000 -0.038446 0.000000 0.000000
# 5 0.000000 0.000000 0.000000 0.000000 0.059150 0.000000
# 6 0.000000 0.000000 0.000000 0.000000 0.000000 0.047366
#
#
# Mechanical properties :
#
#
# Convention : Reuss Voigt Hill
#
# Bulk Modulus (GPa) = 65.23674 67.96154 66.59914
# Shear Modulus (GPa) = 29.18600 11.62116 20.40358
#
# Velocity S-wave (km/s) = 4.06986 2.56813 3.40287
# Velocity P-wave (km/s) = 7.68820 6.88211 7.29629
#
# Compressibility (1/GPa) = 0.01532878
#
# Stress axis : x y z
#
# Youngs Moduli (GPa) = 67.34081 35.62976 72.38004
#
# Poissons Ratio (x) = 0.36121 0.11364
# Poissons Ratio (y) = 0.68269 0.65097
# Poissons Ratio (z) = 0.10573 0.32045
#
# Static dielectric constant tensor:
#      x y z
#    x 1.624310 0.000000 0.000000 
#    y 0.000000 1.583210 0.000000 
#    z 0.000000 0.000000 1.630660 
# 
# From -- ./inp_files/33358.got.cif
#   From: 2010.05.17/outbox.cif.g08.bks.cpg/sg66_17_cif.got.tgz:33358.got - 2010.06.03 17:51:23.
