data_PCOD9497446
_publ_section_title
;
Structure prediction by ZEFSAII (Michael W. Deem and Ramdas Pophale) SiO2 
 PCOD9497446
Probable space group: C C C M
;
_chemical_formula_sum "Si O2"
_cell_formula_units_Z 44
_cell_length_a 28.699811
_cell_length_b 7.490030
_cell_length_c 9.402313
_cell_angle_alpha 90.000000
_cell_angle_beta 90.000000
_cell_angle_gamma 90.000000
_cell_volume 2021.144195
_symmetry_space_group_name_H-M "C C C M"
_symmetry_group_IT_number 66
_symmetry_cell_setting 'orthorhombic'
loop_
_space_group_symop_operation_xyz
x,y,z
-x,-y,z
x,-y,1/2-z
-x,y,1/2-z
-x,-y,-z
x,y,-z
-x,y,1/2+z
x,-y,1/2+z
1/2+x,1/2+y,z
1/2-x,1/2-y,z
1/2+x,1/2-y,1/2-z
1/2-x,1/2+y,1/2-z
1/2-x,1/2-y,-z
1/2+x,1/2+y,-z
1/2-x,1/2+y,1/2+z
1/2+x,1/2-y,1/2+z
loop_
_atom_site_type_symbol
_atom_site_label
_atom_site_fract_x
_atom_site_fract_y
_atom_site_fract_z
Si Si1 0.250000 0.750000 0.500000
Si Si2 0.710922 0.500000 0.750000
Si Si3 0.147553 0.668694 0.162802
Si Si4 0.955020 0.808235 0.671828
O O1 0.261405 0.598771 0.624915
O O2 0.677279 0.345172 0.811199
O O3 0.164061 0.500000 0.250000
O O4 0.093452 0.708627 0.197024
O O5 0.150341 0.617034 0.000000
O O6 0.961726 0.825650 0.500000
O O7 0.000000 0.724971 0.750000
O O8 0.950045 0.000000 0.750000
#
# Coordination Sequence:
#
# PCOD9497446 Si02
#       4
#     4   8  16  16
#     4  12  32  52  88 108 160 190 252 318 404 472
#     4  12  28  54  77 116 144 192 245 316 388 474
#     4  11  26  45  74 107 151 197 247 305 375 445
#     4  10  20  37  63 102 145 196 248 302 361 427
#
# _framework density 21.769848
#
# number of rings (size 3 to 8) (size 9 to 14) (size 15 to 20)
#    0.000    1.091    3.636    2.182    5.091    4.364 
#    0.000    3.636    0.000    0.000    0.000    0.000 
#    0.000    0.000    0.000    0.000    0.000    0.000 
#
# Total GULP energy -122492.218478 kJ/mol
# GULP energy per Si atom -5567.828113 kJ/mol
# Density = 2.172030 g / cm^3
# Si number density = 21.769848 Si / 1000 Ang^3
#
#
#
# Elastic Constant Matrix: (Units=GPa)
#
#
# Indices 1 2 3 4 5 6 
#
# 1 126.2109 67.2367 82.3795 0.0000 0.0000 0.0000
# 2 67.2367 163.7526 76.1843 0.0000 0.0000 0.0000
# 3 82.3795 76.1843 137.8964 0.0000 0.0000 0.0000
# 4 0.0000 0.0000 0.0000 46.9382 0.0000 0.0000
# 5 0.0000 0.0000 0.0000 0.0000 65.9980 0.0000
# 6 0.0000 0.0000 0.0000 0.0000 0.0000 9.8953
#
#
#
# Elastic Compliance Matrix: (Units=1/GPa)
#
#
# Indices 1 2 3 4 5 6 
#
# 1 0.013676 -0.002442 -0.006821 0.000000 0.000000 0.000000
# 2 -0.002442 0.008656 -0.003323 0.000000 0.000000 0.000000
# 3 -0.006821 -0.003323 0.013163 0.000000 0.000000 0.000000
# 4 0.000000 0.000000 0.000000 0.021305 0.000000 0.000000
# 5 0.000000 0.000000 0.000000 0.000000 0.015152 0.000000
# 6 0.000000 0.000000 0.000000 0.000000 0.000000 0.101058
#
#
# Mechanical properties :
#
#
# Convention : Reuss Voigt Hill
#
# Bulk Modulus (GPa) = 96.87949 97.71790 97.29870
# Shear Modulus (GPa) = 24.79880 38.03692 31.41786
#
# Velocity S-wave (km/s) = 3.37877 4.18452 3.80305
# Velocity P-wave (km/s) = 7.73432 8.26627 8.00472
#
# Compressibility (1/GPa) = 0.01032210
#
# Stress axis : x y z
#
# Youngs Moduli (GPa) = 73.11815 115.53336 75.97228
#
# Poissons Ratio (x) = 0.28214 0.51822
# Poissons Ratio (y) = 0.17856 0.25246
# Poissons Ratio (z) = 0.49875 0.38392
#
# Static dielectric constant tensor:
#      x y z
#    x 1.880620 0.000000 0.000000 
#    y 0.000000 1.799470 0.000000 
#    z 0.000000 0.000000 2.143020 
# 
# From -- ./inp_files/11020.got.cif
#   From: 2010.05.17/outbox.cif.g08.bks.cpg/sg66_6_cif.got.tgz:11020.got - 2010.06.03 17:51:23.
