data_PCOD9497802
_publ_section_title
;
Structure prediction by ZEFSAII (Michael W. Deem and Ramdas Pophale) SiO2 
 PCOD9497802
Probable space group: C C C M
;
_chemical_formula_sum "Si O2"
_cell_formula_units_Z 88
_cell_length_a 13.036094
_cell_length_b 12.858222
_cell_length_c 20.437625
_cell_angle_alpha 90.000000
_cell_angle_beta 90.000000
_cell_angle_gamma 90.000000
_cell_volume 3425.774949
_symmetry_space_group_name_H-M "C C C M"
_symmetry_group_IT_number 66
_symmetry_cell_setting 'orthorhombic'
loop_
_space_group_symop_operation_xyz
x,y,z
-x,-y,z
x,-y,1/2-z
-x,y,1/2-z
-x,-y,-z
x,y,-z
-x,y,1/2+z
x,-y,1/2+z
1/2+x,1/2+y,z
1/2-x,1/2-y,z
1/2+x,1/2-y,1/2-z
1/2-x,1/2+y,1/2-z
1/2-x,1/2-y,-z
1/2+x,1/2+y,-z
1/2-x,1/2+y,1/2+z
1/2+x,1/2-y,1/2+z
loop_
_atom_site_type_symbol
_atom_site_label
_atom_site_fract_x
_atom_site_fract_y
_atom_site_fract_z
Si Si1 0.390567 0.961890 0.676455
Si Si2 0.370904 0.189159 0.500000
Si Si3 0.725123 0.511940 0.000000
Si Si4 0.860648 0.212698 0.856095
Si Si5 0.898562 0.309348 0.500000
Si Si6 0.913042 0.236154 0.352428
Si Si7 0.168270 0.984482 0.638735
O O1 0.363991 0.839808 0.675847
O O2 0.290751 0.006502 0.641758
O O3 0.500000 0.000000 0.647389
O O4 0.390081 0.000000 0.750000
O O5 0.360638 0.258464 0.565956
O O6 0.486555 0.144224 0.500000
O O7 0.290951 0.094552 0.500000
O O8 0.651706 0.519686 0.061801
O O9 0.807937 0.606190 0.000000
O O10 0.750000 0.250000 0.830758
O O11 0.968386 0.259296 0.833902
O O12 0.877844 0.092179 0.838245
O O13 0.894538 0.247388 0.431244
O O14 0.871359 0.123598 0.331886
#
# Coordination Sequence:
#
# PCOD9497802 Si02
#       7
#    16   8   8  16   8  16  16
#     4  11  26  48  70  96 128 174 234 291 347 408
#     4  10  21  35  56  99 146 195 226 272 316 403
#     4  12  21  34  65 104 147 180 225 275 338 414
#     4  11  21  39  64  98 140 187 230 270 329 407
#     4  10  22  34  63 101 145 182 224 273 345 404
#     4  11  24  43  67 103 145 179 224 284 348 413
#     4  12  24  40  71 103 142 180 222 282 345 419
#
# _framework density 25.687619999999999
#
# number of rings (size 3 to 8) (size 9 to 14) (size 15 to 20)
#    0.000    0.909    3.636    3.818    2.545    0.727 
#    0.000   12.727    0.000    1.091    0.000    0.000 
#    0.000    0.000    0.000    0.000    0.000    0.000 
#
# Total GULP energy -245961.980654 kJ/mol
# GULP energy per Si atom -5590.045015 kJ/mol
# Density = 2.562915 g / cm^3
# Si number density = 25.687620 Si / 1000 Ang^3
#
#
#
# Elastic Constant Matrix: (Units=GPa)
#
#
# Indices 1 2 3 4 5 6 
#
# 1 83.3813 0.3528 -5.7093 0.0000 0.0000 0.0000
# 2 0.3528 151.7894 6.5208 0.0000 0.0000 0.0000
# 3 -5.7093 6.5208 63.6892 0.0000 0.0000 0.0000
# 4 0.0000 0.0000 0.0000 9590.4574 0.0000 0.0000
# 5 0.0000 0.0000 0.0000 0.0000 11.3104 0.0000
# 6 0.0000 0.0000 0.0000 0.0000 0.0000 39.1544
#
#
#
# Elastic Compliance Matrix: (Units=1/GPa)
#
#
# Indices 1 2 3 4 5 6 
#
# 1 0.012068 -0.000075 0.001089 0.000000 0.000000 0.000000
# 2 -0.000075 0.006618 -0.000684 0.000000 0.000000 0.000000
# 3 0.001089 -0.000684 0.015869 0.000000 0.000000 0.000000
# 4 0.000000 0.000000 0.000000 0.000104 0.000000 0.000000
# 5 0.000000 0.000000 0.000000 0.000000 0.088414 0.000000
# 6 0.000000 0.000000 0.000000 0.000000 0.000000 0.025540
#
#
# Mechanical properties :
#
#
# Convention : Reuss Voigt Hill
#
# Bulk Modulus (GPa) = 28.39668 33.46539 30.93104
# Shear Modulus (GPa) = 31.31058 1948.03081 989.67069
#
# Velocity S-wave (km/s) = 3.49506 27.56810 19.64963
# Velocity P-wave (km/s) = 5.23124 32.03732 22.95382
#
# Compressibility (1/GPa) = 0.03521538
#
# Stress axis : x y z
#
# Youngs Moduli (GPa) = 82.86367 151.11116 63.01601
#
# Poissons Ratio (x) = 0.01131 -0.06866
# Poissons Ratio (y) = 0.00620 0.04312
# Poissons Ratio (z) = -0.09028 0.10340
#
# Static dielectric constant tensor:
#      x y z
#    x 2.043600 0.000000 0.000000 
#    y 0.000000 1.927680 0.000000 
#    z 0.000000 0.000000 2.050770 
# 
# From -- ./inp_files/56785.got.cif
#   From: 2010.05.17/outbox.cif.g08.bks.cpg/sg66_29_cif.got.tgz:56785.got - 2010.06.03 17:51:23.
