data_PCOD9497598
_publ_section_title
;
Structure prediction by ZEFSAII (Michael W. Deem and Ramdas Pophale) SiO2 
 PCOD9497598
Probable space group: C C C M
;
_chemical_formula_sum "Si O2"
_cell_formula_units_Z 112
_cell_length_a 12.312140
_cell_length_b 28.037129
_cell_length_c 15.748097
_cell_angle_alpha 90.000000
_cell_angle_beta 90.000000
_cell_angle_gamma 90.000000
_cell_volume 5436.196745
_symmetry_space_group_name_H-M "C C C M"
_symmetry_group_IT_number 66
_symmetry_cell_setting 'orthorhombic'
loop_
_space_group_symop_operation_xyz
x,y,z
-x,-y,z
x,-y,1/2-z
-x,y,1/2-z
-x,-y,-z
x,y,-z
-x,y,1/2+z
x,-y,1/2+z
1/2+x,1/2+y,z
1/2-x,1/2-y,z
1/2+x,1/2-y,1/2-z
1/2-x,1/2+y,1/2-z
1/2-x,1/2-y,-z
1/2+x,1/2+y,-z
1/2-x,1/2+y,1/2+z
1/2+x,1/2-y,1/2+z
loop_
_atom_site_type_symbol
_atom_site_label
_atom_site_fract_x
_atom_site_fract_y
_atom_site_fract_z
Si Si1 0.964289 0.667994 0.656151
Si Si2 0.447060 0.275471 0.599880
Si Si3 0.675339 0.114166 0.601291
Si Si4 0.098765 0.060638 0.356214
Si Si5 0.317403 0.703564 0.604010
Si Si6 0.859395 0.047080 0.346287
Si Si7 0.767135 0.153129 0.900394
O O1 0.956616 0.718465 0.607326
O O2 0.843788 0.647670 0.650752
O O3 0.000000 0.681185 0.750000
O O4 0.053364 0.629699 0.625001
O O5 0.445611 0.287177 0.500000
O O6 0.559769 0.295549 0.636321
O O7 0.340251 0.302453 0.632825
O O8 0.678721 0.112135 0.500000
O O9 0.750972 0.157823 0.631251
O O10 0.741837 0.068692 0.633938
O O11 0.119352 0.055059 0.254472
O O12 0.165737 0.104626 0.391422
O O13 0.972452 0.069419 0.380792
O O14 0.134005 0.007072 0.380913
O O15 0.320505 0.704241 0.500000
O O16 0.250000 0.750000 0.630313
O O17 0.739802 0.161291 0.000000
#
# Coordination Sequence:
#
# PCOD9497598 Si02
#       7
#    16  16  16  16  16  16  16
#     4  12  25  41  55  82 120 160 202 248 301 365
#     4  10  20  39  61  84 115 157 202 247 300 354
#     4  11  21  36  59  86 115 153 198 245 298 351
#     4   9  19  39  61  90 126 159 194 240 305 360
#     4   9  16  30  54  81 112 146 183 232 289 340
#     4   9  19  37  63  91 124 160 193 242 302 367
#     4  11  23  40  63  87 118 161 208 254 305 362
#
# _framework density 20.602639
#
# number of rings (size 3 to 8) (size 9 to 14) (size 15 to 20)
#    0.000    1.857    1.429    4.286    0.000    3.429 
#   10.286    2.143    0.000    4.286    0.000    0.000 
#    0.000    0.000    0.000    0.000    0.000    0.000 
#
# Total GULP energy -312332.940203 kJ/mol
# GULP energy per Si atom -5577.373932 kJ/mol
# Density = 2.055575 g / cm^3
# Si number density = 20.602639 Si / 1000 Ang^3
#
#
#
# Elastic Constant Matrix: (Units=GPa)
#
#
# Indices 1 2 3 4 5 6 
#
# 1 175.0593 57.9212 14.8269 0.0000 0.0000 0.0000
# 2 57.9212 57.4616 0.3486 0.0000 0.0000 0.0000
# 3 14.8269 0.3486 25.6903 0.0000 0.0000 0.0000
# 4 0.0000 0.0000 0.0000 22.6034 0.0000 0.0000
# 5 0.0000 0.0000 0.0000 0.0000 12.1651 0.0000
# 6 0.0000 0.0000 0.0000 0.0000 0.0000 26.2351
#
#
#
# Elastic Compliance Matrix: (Units=1/GPa)
#
#
# Indices 1 2 3 4 5 6 
#
# 1 0.009215 -0.009257 -0.005193 0.000000 0.000000 0.000000
# 2 -0.009257 0.026704 0.004980 0.000000 0.000000 0.000000
# 3 -0.005193 0.004980 0.041855 0.000000 0.000000 0.000000
# 4 0.000000 0.000000 0.000000 0.044241 0.000000 0.000000
# 5 0.000000 0.000000 0.000000 0.000000 0.082202 0.000000
# 6 0.000000 0.000000 0.000000 0.000000 0.000000 0.038117
#
#
# Mechanical properties :
#
#
# Convention : Reuss Voigt Hill
#
# Bulk Modulus (GPa) = 16.99687 44.93385 30.96536
# Shear Modulus (GPa) = 17.80088 24.54169 21.17129
#
# Velocity S-wave (km/s) = 2.94259 3.45511 3.20910
# Velocity P-wave (km/s) = 4.45117 6.14607 5.36596
#
# Compressibility (1/GPa) = 0.05883435
#
# Stress axis : x y z
#
# Youngs Moduli (GPa) = 108.51772 37.44750 23.89227
#
# Poissons Ratio (x) = 0.34666 0.12407
# Poissons Ratio (y) = 1.00458 -0.11899
# Poissons Ratio (z) = 0.56351 -0.18650
#
# Static dielectric constant tensor:
#      x y z
#    x 1.772900 0.000000 0.000000 
#    y 0.000000 1.763300 0.000000 
#    z 0.000000 0.000000 1.767400 
# 
# From -- ./inp_files/27017.got.cif
#   From: 2010.05.17/outbox.cif.g08.bks.cpg/sg66_14_cif.got.tgz:27017.got - 2010.06.03 17:51:23.
