data_PCOD9497579
_publ_section_title
;
Structure prediction by ZEFSAII (Michael W. Deem and Ramdas Pophale) SiO2 
 PCOD9497579
Probable space group: C C C M
;
_chemical_formula_sum "Si O2"
_cell_formula_units_Z 92
_cell_length_a 22.415018
_cell_length_b 11.432993
_cell_length_c 16.565159
_cell_angle_alpha 90.000000
_cell_angle_beta 90.000000
_cell_angle_gamma 90.000000
_cell_volume 4245.165620
_symmetry_space_group_name_H-M "C C C M"
_symmetry_group_IT_number 66
_symmetry_cell_setting 'orthorhombic'
loop_
_space_group_symop_operation_xyz
x,y,z
-x,-y,z
x,-y,1/2-z
-x,y,1/2-z
-x,-y,-z
x,y,-z
-x,y,1/2+z
x,-y,1/2+z
1/2+x,1/2+y,z
1/2-x,1/2-y,z
1/2+x,1/2-y,1/2-z
1/2-x,1/2+y,1/2-z
1/2-x,1/2-y,-z
1/2+x,1/2+y,-z
1/2-x,1/2+y,1/2+z
1/2+x,1/2-y,1/2+z
loop_
_atom_site_type_symbol
_atom_site_label
_atom_site_fract_x
_atom_site_fract_y
_atom_site_fract_z
Si Si1 0.200171 0.464307 0.652668
Si Si2 0.182246 0.242058 0.744586
Si Si3 0.468884 0.803155 0.500000
Si Si4 0.334826 0.554190 0.876700
Si Si5 0.107970 0.234694 0.500000
Si Si6 0.000000 0.000000 0.750000
Si Si7 0.128614 0.503965 0.500000
Si Si8 0.912488 0.834537 0.853197
O O1 0.201500 0.500000 0.750000
O O2 0.182209 0.330052 0.669474
O O3 0.264526 0.462660 0.609428
O O4 0.158911 0.531071 0.587696
O O5 0.250000 0.250000 0.779118
O O6 0.168886 0.112864 0.711599
O O7 0.126911 0.258163 0.802911
O O8 0.539454 0.777922 0.500000
O O9 0.445363 0.735175 0.577917
O O10 0.435976 0.930855 0.500000
O O11 0.366238 0.430576 0.886601
O O12 0.372002 0.649250 0.927404
O O13 0.136981 0.362853 0.500000
O O14 0.958759 0.913431 0.802460
#
# Coordination Sequence:
#
# PCOD9497579 Si02
#       8
#    16  16   8  16   8   4   8  16
#     4  11  23  41  72 112 142 180 231 294 370 437
#     4  10  20  38  67 100 139 173 223 287 348 429
#     4  12  30  45  63  92 144 193 235 291 348 415
#     4  11  21  40  70 104 139 169 219 297 355 422
#     4  12  25  46  68  98 135 189 254 289 341 418
#     4  12  24  38  72  96 134 174 240 290 340 424
#     4  12  26  49  71  96 145 193 243 298 353 417
#     4  12  24  44  64 102 139 182 224 288 365 425
#
# _framework density 21.671710000000001
#
# number of rings (size 3 to 8) (size 9 to 14) (size 15 to 20)
#    0.000    0.696    3.478    5.478    0.000    1.739 
#    0.000    1.304    0.000    1.043    0.000    0.000 
#    0.000    0.000    0.000    0.000    0.000    0.000 
#
# Total GULP energy -256140.583147 kJ/mol
# GULP energy per Si atom -5568.273547 kJ/mol
# Density = 2.162238 g / cm^3
# Si number density = 21.671710 Si / 1000 Ang^3
#
#
#
# Elastic Constant Matrix: (Units=GPa)
#
#
# Indices 1 2 3 4 5 6 
#
# 1 120.2883 26.6116 64.0950 0.0000 0.0000 0.0000
# 2 26.6116 79.5706 16.7103 0.0000 0.0000 0.0000
# 3 64.0950 16.7103 83.1195 0.0000 0.0000 0.0000
# 4 0.0000 0.0000 0.0000 -356.5837 0.0000 0.0000
# 5 0.0000 0.0000 0.0000 0.0000 3.7066 0.0000
# 6 0.0000 0.0000 0.0000 0.0000 0.0000 37.6236
#
#
#
# Elastic Compliance Matrix: (Units=1/GPa)
#
#
# Indices 1 2 3 4 5 6 
#
# 1 0.014622 -0.002633 -0.010746 0.000000 0.000000 0.000000
# 2 -0.002633 0.013596 -0.000703 0.000000 0.000000 0.000000
# 3 -0.010746 -0.000703 0.020458 0.000000 0.000000 0.000000
# 4 0.000000 0.000000 0.000000 -0.002804 0.000000 0.000000
# 5 0.000000 0.000000 0.000000 0.000000 0.269786 0.000000
# 6 0.000000 0.000000 0.000000 0.000000 0.000000 0.026579
#
#
# Mechanical properties :
#
#
# Convention : Reuss Voigt Hill
#
# Bulk Modulus (GPa) = 48.75101 55.31245 52.03173
# Shear Modulus (GPa) = 13.25425 -51.34658 -19.04616
#
# Velocity S-wave (km/s) = 2.47572 -4.87282 -2.96776
# Velocity P-wave (km/s) = 5.54223 2.46593 3.50967
#
# Compressibility (1/GPa) = 0.02051239
#
# Stress axis : x y z
#
# Youngs Moduli (GPa) = 68.39139 73.55253 48.87990
#
# Poissons Ratio (x) = 0.19370 0.52525
# Poissons Ratio (y) = 0.18010 0.03434
# Poissons Ratio (z) = 0.73491 0.05168
#
# Static dielectric constant tensor:
#      x y z
#    x 1.844770 0.000000 0.000000 
#    y 0.000000 1.883630 0.000000 
#    z 0.000000 0.000000 1.842070 
# 
# From -- ./inp_files/42836.got.cif
#   From: 2010.05.17/outbox.cif.g08.bks.cpg/sg66_22_cif.got.tgz:42836.got - 2010.06.03 17:51:23.
