data_PCOD9497426
_publ_section_title
;
Structure prediction by ZEFSAII (Michael W. Deem and Ramdas Pophale) SiO2 
 PCOD9497426
Probable space group: C C C M
;
_chemical_formula_sum "Si O2"
_cell_formula_units_Z 80
_cell_length_a 26.237085
_cell_length_b 9.180572
_cell_length_c 14.877735
_cell_angle_alpha 90.000000
_cell_angle_beta 90.000000
_cell_angle_gamma 90.000000
_cell_volume 3583.621571
_symmetry_space_group_name_H-M "C C C M"
_symmetry_group_IT_number 66
_symmetry_cell_setting 'orthorhombic'
loop_
_space_group_symop_operation_xyz
x,y,z
-x,-y,z
x,-y,1/2-z
-x,y,1/2-z
-x,-y,-z
x,y,-z
-x,y,1/2+z
x,-y,1/2+z
1/2+x,1/2+y,z
1/2-x,1/2-y,z
1/2+x,1/2-y,1/2-z
1/2-x,1/2+y,1/2-z
1/2-x,1/2-y,-z
1/2+x,1/2+y,-z
1/2-x,1/2+y,1/2+z
1/2+x,1/2-y,1/2+z
loop_
_atom_site_type_symbol
_atom_site_label
_atom_site_fract_x
_atom_site_fract_y
_atom_site_fract_z
Si Si1 0.150671 0.057618 0.350671
Si Si2 0.348336 0.895067 0.109655
Si Si3 0.546274 0.405476 0.604743
Si Si4 0.744891 0.089701 0.396384
Si Si5 0.447507 0.922538 0.390169
O O1 0.151391 0.231120 0.355498
O O2 0.152010 0.000000 0.250000
O O3 0.098503 0.994901 0.391191
O O4 0.201093 0.990726 0.395390
O O5 0.298788 0.984782 0.140703
O O6 0.398556 0.984032 0.137001
O O7 0.347597 0.884018 0.000000
O O8 0.500000 0.500000 0.644131
O O9 0.532984 0.380911 0.500000
O O10 0.553650 0.243823 0.643786
O O11 0.728759 0.115056 0.500000
O O12 0.750000 0.250000 0.353376
O O13 0.445830 0.920069 0.500000
O O14 0.500000 0.000000 0.364070
#
# Coordination Sequence:
#
# PCOD9497426 Si02
#       5
#    16  16  16  16  16
#     4  12  25  38  55  83 120 159 194 237 292 355
#     4  10  20  37  62  88 116 152 197 246 293 346
#     4  10  20  37  62  87 114 151 196 246 294 343
#     4  10  21  39  63  88 114 148 196 251 298 346
#     4   9  17  32  58  90 115 140 185 244 299 347
#
# _framework density 22.323785999999998
#
# number of rings (size 3 to 8) (size 9 to 14) (size 15 to 20)
#    0.000    1.800    0.000    4.800    0.000   10.000 
#    0.000    3.000    0.000    1.200    0.000    0.000 
#    0.000    0.000    0.000    0.000    0.000    0.000 
#
# Total GULP energy -223715.415963 kJ/mol
# GULP energy per Si atom -5592.885399 kJ/mol
# Density = 2.227298 g / cm^3
# Si number density = 22.323786 Si / 1000 Ang^3
#
#
#
# Elastic Constant Matrix: (Units=GPa)
#
#
# Indices 1 2 3 4 5 6 
#
# 1 198.9717 130.1513 -12.5928 0.0000 0.0000 0.0000
# 2 130.1513 279.2046 10.5357 0.0000 0.0000 0.0000
# 3 -12.5928 10.5357 56.0315 0.0000 0.0000 0.0000
# 4 0.0000 0.0000 0.0000 7.1618 0.0000 0.0000
# 5 0.0000 0.0000 0.0000 0.0000 -100.7074 0.0000
# 6 0.0000 0.0000 0.0000 0.0000 0.0000 43.3481
#
#
#
# Elastic Compliance Matrix: (Units=1/GPa)
#
#
# Indices 1 2 3 4 5 6 
#
# 1 0.007530 -0.003600 0.002369 0.000000 0.000000 0.000000
# 2 -0.003600 0.005328 -0.001811 0.000000 0.000000 0.000000
# 3 0.002369 -0.001811 0.018720 0.000000 0.000000 0.000000
# 4 0.000000 0.000000 0.000000 0.139629 0.000000 0.000000
# 5 0.000000 0.000000 0.000000 0.000000 -0.009930 0.000000
# 6 0.000000 0.000000 0.000000 0.000000 0.000000 0.023069
#
#
# Mechanical properties :
#
#
# Convention : Reuss Voigt Hill
#
# Bulk Modulus (GPa) = 39.22196 87.82181 63.52189
# Shear Modulus (GPa) = 25.13467 17.03473 21.08470
#
# Velocity S-wave (km/s) = 3.35910 2.76538 3.07660
# Velocity P-wave (km/s) = 5.71424 7.04428 6.41383
#
# Compressibility (1/GPa) = 0.02549592
#
# Stress axis : x y z
#
# Youngs Moduli (GPa) = 132.79436 187.68954 53.41857
#
# Poissons Ratio (x) = 0.67563 -0.12656
# Poissons Ratio (y) = 0.47802 0.09673
# Poissons Ratio (z) = -0.31463 0.33988
#
# Static dielectric constant tensor:
#      x y z
#    x 1.784610 0.000000 0.000000 
#    y 0.000000 1.785560 0.000000 
#    z 0.000000 0.000000 1.889820 
# 
# From -- ./inp_files/44104.got.cif
#   From: 2010.05.17/outbox.cif.g08.bks.cpg/sg66_23_cif.got.tgz:44104.got - 2010.06.03 17:51:23.
