data_PCOD9497172
_publ_section_title
;
Structure prediction by ZEFSAII (Michael W. Deem and Ramdas Pophale) SiO2 
 PCOD9497172
Probable space group: C C C M
;
_chemical_formula_sum "Si O2"
_cell_formula_units_Z 80
_cell_length_a 21.723611
_cell_length_b 13.892840
_cell_length_c 14.302107
_cell_angle_alpha 90.000000
_cell_angle_beta 90.000000
_cell_angle_gamma 90.000000
_cell_volume 4316.413820
_symmetry_space_group_name_H-M "C C C M"
_symmetry_group_IT_number 66
_symmetry_cell_setting 'orthorhombic'
loop_
_space_group_symop_operation_xyz
x,y,z
-x,-y,z
x,-y,1/2-z
-x,y,1/2-z
-x,-y,-z
x,y,-z
-x,y,1/2+z
x,-y,1/2+z
1/2+x,1/2+y,z
1/2-x,1/2-y,z
1/2+x,1/2-y,1/2-z
1/2-x,1/2+y,1/2-z
1/2-x,1/2-y,-z
1/2+x,1/2+y,-z
1/2-x,1/2+y,1/2+z
1/2+x,1/2-y,1/2+z
loop_
_atom_site_type_symbol
_atom_site_label
_atom_site_fract_x
_atom_site_fract_y
_atom_site_fract_z
Si Si1 0.707545 0.388204 0.252137
Si Si2 0.872849 0.775736 0.388318
Si Si3 0.379691 0.724531 0.388352
Si Si4 0.496595 0.609856 0.112745
Si Si5 0.644634 0.888842 0.247573
O O1 0.688789 0.500000 0.250000
O O2 0.682833 0.333958 0.160031
O O3 0.675422 0.334223 0.338835
O O4 0.781016 0.384079 0.257769
O O5 0.867473 0.770414 0.500000
O O6 0.874722 0.671914 0.338903
O O7 0.934415 0.834728 0.361491
O O8 0.373194 0.727790 0.500000
O O9 0.442531 0.669076 0.362736
O O10 0.380227 0.829280 0.341019
O O11 0.500000 0.500000 0.146141
O O12 0.495699 0.605828 0.000000
O O13 0.626003 0.000000 0.250000
#
# Coordination Sequence:
#
# PCOD9497172 Si02
#       5
#    16  16  16  16  16
#     4  10  21  35  53  81 112 140 175 218 264 318
#     4  10  20  36  57  80 108 141 176 217 266 318
#     4  10  20  36  57  80 108 141 176 217 266 318
#     4   9  18  33  55  84 111 133 166 214 268 326
#     4  10  23  39  52  75 109 142 184 228 260 302
#
# _framework density 18.533904
#
# number of rings (size 3 to 8) (size 9 to 14) (size 15 to 20)
#    0.000    2.200    0.000    3.600    0.000    9.600 
#    0.000   11.000    0.000    3.600    0.000    0.000 
#    0.000    0.000    0.000    0.000    0.000    0.000 
#
# Total GULP energy -223329.743219 kJ/mol
# GULP energy per Si atom -5583.243580 kJ/mol
# Density = 1.849172 g / cm^3
# Si number density = 18.533904 Si / 1000 Ang^3
#
#
#
# Elastic Constant Matrix: (Units=GPa)
#
#
# Indices 1 2 3 4 5 6 
#
# 1 44.5833 23.8734 -12.4509 0.0000 0.0000 0.0000
# 2 23.8734 165.6270 20.5731 0.0000 0.0000 0.0000
# 3 -12.4509 20.5731 89.3718 0.0000 0.0000 0.0000
# 4 0.0000 0.0000 0.0000 5.2760 0.0000 0.0000
# 5 0.0000 0.0000 0.0000 0.0000 21.8150 0.0000
# 6 0.0000 0.0000 0.0000 0.0000 0.0000 31.4024
#
#
#
# Elastic Compliance Matrix: (Units=1/GPa)
#
#
# Indices 1 2 3 4 5 6 
#
# 1 0.026038 -0.004328 0.004624 0.000000 0.000000 0.000000
# 2 -0.004328 0.006935 -0.002199 0.000000 0.000000 0.000000
# 3 0.004624 -0.002199 0.012340 0.000000 0.000000 0.000000
# 4 0.000000 0.000000 0.000000 0.189539 0.000000 0.000000
# 5 0.000000 0.000000 0.000000 0.000000 0.045840 0.000000
# 6 0.000000 0.000000 0.000000 0.000000 0.000000 0.031845
#
#
# Mechanical properties :
#
#
# Convention : Reuss Voigt Hill
#
# Bulk Modulus (GPa) = 24.09245 40.39703 32.24474
# Shear Modulus (GPa) = 15.14337 29.53778 22.34057
#
# Velocity S-wave (km/s) = 2.86153 3.99647 3.47564
# Velocity P-wave (km/s) = 4.89338 6.56805 5.79156
#
# Compressibility (1/GPa) = 0.04150677
#
# Stress axis : x y z
#
# Youngs Moduli (GPa) = 38.40472 144.20448 81.03972
#
# Poissons Ratio (x) = 0.62405 -0.37471
# Poissons Ratio (y) = 0.16620 0.17822
# Poissons Ratio (z) = -0.17757 0.31714
#
# Static dielectric constant tensor:
#      x y z
#    x 1.634570 0.000000 0.000000 
#    y 0.000000 1.638460 0.000000 
#    z 0.000000 0.000000 1.641740 
# 
# From -- ./inp_files/31000.got.cif
#   From: 2010.05.17/outbox.cif.g08.bks.cpg/sg66_16_cif.got.tgz:31000.got - 2010.06.03 17:51:23.
