data_PCOD9497274
_publ_section_title
;
Structure prediction by ZEFSAII (Michael W. Deem and Ramdas Pophale) SiO2 
 PCOD9497274
Probable space group: C C C M
;
_chemical_formula_sum "Si O2"
_cell_formula_units_Z 80
_cell_length_a 23.663252
_cell_length_b 10.398647
_cell_length_c 15.006979
_cell_angle_alpha 90.000000
_cell_angle_beta 90.000000
_cell_angle_gamma 90.000000
_cell_volume 3692.704360
_symmetry_space_group_name_H-M "C C C M"
_symmetry_group_IT_number 66
_symmetry_cell_setting 'orthorhombic'
loop_
_space_group_symop_operation_xyz
x,y,z
-x,-y,z
x,-y,1/2-z
-x,y,1/2-z
-x,-y,-z
x,y,-z
-x,y,1/2+z
x,-y,1/2+z
1/2+x,1/2+y,z
1/2-x,1/2-y,z
1/2+x,1/2-y,1/2-z
1/2-x,1/2+y,1/2-z
1/2-x,1/2-y,-z
1/2+x,1/2+y,-z
1/2-x,1/2+y,1/2+z
1/2+x,1/2-y,1/2+z
loop_
_atom_site_type_symbol
_atom_site_label
_atom_site_fract_x
_atom_site_fract_y
_atom_site_fract_z
Si Si1 0.372053 0.691571 0.207741
Si Si2 0.156474 0.529435 0.853653
Si Si3 0.598518 0.225074 0.599917
Si Si4 0.224652 0.895075 0.902743
Si Si5 0.978888 0.854205 0.401005
O O1 0.364292 0.823887 0.150357
O O2 0.370269 0.715672 0.313588
O O3 0.322839 0.599344 0.172145
O O4 0.433620 0.649050 0.177269
O O5 0.162653 0.500000 0.750000
O O6 0.113670 0.426341 0.894649
O O7 0.219343 0.519329 0.893189
O O8 0.614373 0.271452 0.500000
O O9 0.532530 0.260232 0.611702
O O10 0.250000 0.750000 0.898435
O O11 0.198786 0.915121 0.000000
O O12 0.954376 0.825054 0.500000
O O13 0.000000 0.000000 0.404181
#
# Coordination Sequence:
#
# PCOD9497274 Si02
#       5
#    16  16  16  16  16
#     4  10  20  36  61  88 118 158 202 247 302 361
#     4   9  19  36  58  88 122 155 197 249 306 365
#     4  10  21  37  59  87 125 162 196 249 307 363
#     4   9  17  32  57  85 112 146 193 245 294 350
#     4  10  22  40  60  86 119 156 204 251 301 362
#
# _framework density 21.664338999999998
#
# number of rings (size 3 to 8) (size 9 to 14) (size 15 to 20)
#    0.000    2.400    0.000    1.800    0.000    4.800 
#    3.600    5.000    0.000   15.000    0.000    0.000 
#    0.000    0.000    0.000    0.000    0.000    0.000 
#
# Total GULP energy -223095.473253 kJ/mol
# GULP energy per Si atom -5577.386831 kJ/mol
# Density = 2.161503 g / cm^3
# Si number density = 21.664339 Si / 1000 Ang^3
#
#
#
# Elastic Constant Matrix: (Units=GPa)
#
#
# Indices 1 2 3 4 5 6 
#
# 1 93.6646 41.8285 47.1366 0.0000 0.0000 0.0000
# 2 41.8285 63.7403 18.4019 0.0000 0.0000 0.0000
# 3 47.1366 18.4019 149.1786 0.0000 0.0000 0.0000
# 4 0.0000 0.0000 0.0000 -0.1798 0.0000 0.0000
# 5 0.0000 0.0000 0.0000 0.0000 30.2432 0.0000
# 6 0.0000 0.0000 0.0000 0.0000 0.0000 -2.4771
#
#
#
# Elastic Compliance Matrix: (Units=1/GPa)
#
#
# Indices 1 2 3 4 5 6 
#
# 1 0.017340 -0.010159 -0.004226 0.000000 0.000000 0.000000
# 2 -0.010159 0.022220 0.000469 0.000000 0.000000 0.000000
# 3 -0.004226 0.000469 0.007981 0.000000 0.000000 0.000000
# 4 0.000000 0.000000 0.000000 -5.560275 0.000000 0.000000
# 5 0.000000 0.000000 0.000000 0.000000 0.033065 0.000000
# 6 0.000000 0.000000 0.000000 0.000000 0.000000 -0.403700
#
#
# Mechanical properties :
#
#
# Convention : Reuss Voigt Hill
#
# Bulk Modulus (GPa) = 50.73812 57.92416 54.33114
# Shear Modulus (GPa) = -0.85485 18.79836 8.97176
#
# Velocity S-wave (km/s) = -0.62884 2.94889 2.03722
# Velocity P-wave (km/s) = 4.78996 6.19594 5.53775
#
# Compressibility (1/GPa) = 0.01970905
#
# Stress axis : x y z
#
# Youngs Moduli (GPa) = 57.67098 45.00478 125.30152
#
# Poissons Ratio (x) = 0.45720 0.52949
# Poissons Ratio (y) = 0.58588 -0.05877
# Poissons Ratio (z) = 0.24370 -0.02111
#
# Static dielectric constant tensor:
#      x y z
#    x 1.776360 0.000000 0.000000 
#    y 0.000000 1.854890 0.000000 
#    z 0.000000 0.000000 1.797510 
# 
# From -- ./inp_files/32096.got.cif
#   From: 2010.05.17/outbox.cif.g08.bks.cpg/sg66_17_cif.got.tgz:32096.got - 2010.06.03 17:51:23.
