data_PCOD9497886
_publ_section_title
;
Structure prediction by ZEFSAII (Michael W. Deem and Ramdas Pophale) SiO2 
 PCOD9497886
Probable space group: C C C M
;
_chemical_formula_sum "Si O2"
_cell_formula_units_Z 88
_cell_length_a 21.178780
_cell_length_b 5.221744
_cell_length_c 35.752014
_cell_angle_alpha 90.000000
_cell_angle_beta 90.000000
_cell_angle_gamma 90.000000
_cell_volume 3953.821213
_symmetry_space_group_name_H-M "C C C M"
_symmetry_group_IT_number 66
_symmetry_cell_setting 'orthorhombic'
loop_
_space_group_symop_operation_xyz
x,y,z
-x,-y,z
x,-y,1/2-z
-x,y,1/2-z
-x,-y,-z
x,y,-z
-x,y,1/2+z
x,-y,1/2+z
1/2+x,1/2+y,z
1/2-x,1/2-y,z
1/2+x,1/2-y,1/2-z
1/2-x,1/2+y,1/2-z
1/2-x,1/2-y,-z
1/2+x,1/2+y,-z
1/2-x,1/2+y,1/2+z
1/2+x,1/2-y,1/2+z
loop_
_atom_site_type_symbol
_atom_site_label
_atom_site_fract_x
_atom_site_fract_y
_atom_site_fract_z
Si Si1 0.457151 0.750013 0.578763
Si Si2 0.294636 0.001856 0.542710
Si Si3 0.119340 0.847123 0.652243
Si Si4 0.928140 0.754427 0.233280
Si Si5 0.045454 0.751174 0.500000
Si Si6 0.680512 0.130014 0.125943
O O1 0.500000 0.500000 0.578147
O O2 0.420791 0.735707 0.616759
O O3 0.419176 0.739878 0.539576
O O4 0.500000 0.000000 0.578311
O O5 0.322150 0.987574 0.500000
O O6 0.250000 0.750000 0.548628
O O7 0.250000 0.250000 0.540731
O O8 0.332378 0.063572 0.581666
O O9 0.078415 0.790924 0.689202
O O10 0.174701 0.633654 0.649334
O O11 0.138057 0.142631 0.644249
O O12 0.898675 0.500000 0.250000
O O13 0.000000 0.753834 0.250000
O O14 0.894468 0.000000 0.250000
O O15 0.000000 0.500000 0.500000
O O16 0.000000 0.000000 0.500000
O O17 0.750000 0.250000 0.126720
#
# Coordination Sequence:
#
# PCOD9497886 Si02
#       6
#    16  16  16  16   8  16
#     4  10  21  36  60  87 128 163 209 265 314 392
#     4   9  17  33  58  85 121 171 225 281 327 351
#     4  12  24  39  67  99 124 168 218 261 329 395
#     4  10  23  41  66  96 129 157 191 262 343 401
#     4   8  16  34  52  78 117 172 201 244 314 362
#     4  11  23  42  62  92 132 178 223 268 310 370
#
# _framework density 22.25695
#
# number of rings (size 3 to 8) (size 9 to 14) (size 15 to 20)
#    0.000    1.818    0.000    4.909    5.091    0.000 
#    3.273    0.000    0.000   10.909    0.000    0.000 
#    0.000    0.000    0.000    0.000    0.000    0.000 
#
# Total GULP energy -245236.494916 kJ/mol
# GULP energy per Si atom -5573.556703 kJ/mol
# Density = 2.220629 g / cm^3
# Si number density = 22.256950 Si / 1000 Ang^3
#
#
#
# Elastic Constant Matrix: (Units=GPa)
#
#
# Indices 1 2 3 4 5 6 
#
# 1 31.0039 13.5394 50.4100 0.0000 0.0000 0.0000
# 2 13.5394 190.9781 40.5030 0.0000 0.0000 0.0000
# 3 50.4100 40.5030 204.0886 0.0000 0.0000 0.0000
# 4 0.0000 0.0000 0.0000 36.6068 0.0000 0.0000
# 5 0.0000 0.0000 0.0000 0.0000 37.7371 0.0000
# 6 0.0000 0.0000 0.0000 0.0000 0.0000 9.6815
#
#
#
# Elastic Compliance Matrix: (Units=1/GPa)
#
#
# Indices 1 2 3 4 5 6 
#
# 1 0.054100 -0.001045 -0.013155 0.000000 0.000000 0.000000
# 2 -0.001045 0.005486 -0.000831 0.000000 0.000000 0.000000
# 3 -0.013155 -0.000831 0.008314 0.000000 0.000000 0.000000
# 4 0.000000 0.000000 0.000000 0.027317 0.000000 0.000000
# 5 0.000000 0.000000 0.000000 0.000000 0.026499 0.000000
# 6 0.000000 0.000000 0.000000 0.000000 0.000000 0.103290
#
#
# Mechanical properties :
#
#
# Convention : Reuss Voigt Hill
#
# Bulk Modulus (GPa) = 26.42854 70.55282 48.49068
# Shear Modulus (GPa) = 18.67888 38.24628 28.46258
#
# Velocity S-wave (km/s) = 2.90010 4.14985 3.57994
# Velocity P-wave (km/s) = 4.80772 7.39796 6.23875
#
# Compressibility (1/GPa) = 0.03783789
#
# Stress axis : x y z
#
# Youngs Moduli (GPa) = 18.48429 182.26637 120.27850
#
# Poissons Ratio (x) = 0.19055 1.58230
# Poissons Ratio (y) = 0.01932 0.09991
# Poissons Ratio (z) = 0.24317 0.15139
#
# Static dielectric constant tensor:
#      x y z
#    x 1.959630 0.000000 0.000000 
#    y 0.000000 1.841740 0.000000 
#    z 0.000000 0.000000 1.863340 
# 
# From -- ./inp_files/70373.got.cif
#   From: 2010.05.17/outbox.cif.g08.bks.cpg/sg66_36_cif.got.tgz:70373.got - 2010.06.03 17:51:23.
