data_PCOD9497956
_publ_section_title
;
Structure prediction by ZEFSAII (Michael W. Deem and Ramdas Pophale) SiO2 
 PCOD9497956
Probable space group: C C C M
;
_chemical_formula_sum "Si O2"
_cell_formula_units_Z 80
_cell_length_a 8.755894
_cell_length_b 15.013303
_cell_length_c 30.455599
_cell_angle_alpha 90.000000
_cell_angle_beta 90.000000
_cell_angle_gamma 90.000000
_cell_volume 4003.537406
_symmetry_space_group_name_H-M "C C C M"
_symmetry_group_IT_number 66
_symmetry_cell_setting 'orthorhombic'
loop_
_space_group_symop_operation_xyz
x,y,z
-x,-y,z
x,-y,1/2-z
-x,y,1/2-z
-x,-y,-z
x,y,-z
-x,y,1/2+z
x,-y,1/2+z
1/2+x,1/2+y,z
1/2-x,1/2-y,z
1/2+x,1/2-y,1/2-z
1/2-x,1/2+y,1/2-z
1/2-x,1/2-y,-z
1/2+x,1/2+y,-z
1/2-x,1/2+y,1/2+z
1/2+x,1/2-y,1/2+z
loop_
_atom_site_type_symbol
_atom_site_label
_atom_site_fract_x
_atom_site_fract_y
_atom_site_fract_z
Si Si1 0.933656 0.254140 0.201523
Si Si2 0.066206 0.400172 0.629980
Si Si3 0.428010 0.596594 0.547898
Si Si4 0.625458 0.831815 0.949830
Si Si5 0.067500 0.099326 0.636096
O O1 0.750000 0.250000 0.204039
O O2 0.979109 0.338740 0.171626
O O3 0.979047 0.164473 0.175449
O O4 0.000000 0.258740 0.250000
O O5 0.250095 0.404170 0.630827
O O6 0.000000 0.500000 0.632524
O O7 0.999913 0.350431 0.586786
O O8 0.500000 0.500000 0.546588
O O9 0.457296 0.638467 0.500000
O O10 0.246974 0.587397 0.553432
O O11 0.500635 0.639624 0.590777
O O12 0.750000 0.750000 0.943948
O O13 0.568029 0.829787 0.000000
O O14 0.000000 0.000000 0.641955
#
# Coordination Sequence:
#
# PCOD9497956 Si02
#       5
#    16  16  16  16  16
#     4  10  24  43  62  85 114 150 194 245 301 361
#     4  11  23  38  60  90 120 154 198 245 295 353
#     4   9  17  31  53  81 114 152 189 226 275 335
#     4  10  21  37  58  86 120 159 201 243 291 346
#     4  10  21  39  61  88 120 155 197 242 296 360
#
# _framework density 19.982327999999999
#
# number of rings (size 3 to 8) (size 9 to 14) (size 15 to 20)
#    0.000    2.000    0.000    3.600    0.000    6.000 
#    0.000    4.000    0.000    7.200    0.000    0.000 
#    0.000    0.000    0.000    0.000    0.000    0.000 
#
# Total GULP energy -223038.681822 kJ/mol
# GULP energy per Si atom -5575.967046 kJ/mol
# Density = 1.993685 g / cm^3
# Si number density = 19.982328 Si / 1000 Ang^3
#
#
#
# Elastic Constant Matrix: (Units=GPa)
#
#
# Indices 1 2 3 4 5 6 
#
# 1 64.2267 40.8350 61.0914 0.0000 0.0000 0.0000
# 2 40.8350 124.5842 77.9129 0.0000 0.0000 0.0000
# 3 61.0914 77.9129 210.7397 0.0000 0.0000 0.0000
# 4 0.0000 0.0000 0.0000 21.2370 0.0000 0.0000
# 5 0.0000 0.0000 0.0000 0.0000 36.8363 0.0000
# 6 0.0000 0.0000 0.0000 0.0000 0.0000 27.8223
#
#
#
# Elastic Compliance Matrix: (Units=1/GPa)
#
#
# Indices 1 2 3 4 5 6 
#
# 1 0.023234 -0.004427 -0.005099 0.000000 0.000000 0.000000
# 2 -0.004427 0.011284 -0.002889 0.000000 0.000000 0.000000
# 3 -0.005099 -0.002889 0.007291 0.000000 0.000000 0.000000
# 4 0.000000 0.000000 0.000000 0.047088 0.000000 0.000000
# 5 0.000000 0.000000 0.000000 0.000000 0.027147 0.000000
# 6 0.000000 0.000000 0.000000 0.000000 0.000000 0.035942
#
#
# Mechanical properties :
#
#
# Convention : Reuss Voigt Hill
#
# Bulk Modulus (GPa) = 58.88830 84.35878 71.62354
# Shear Modulus (GPa) = 27.40094 31.82654 29.61374
#
# Velocity S-wave (km/s) = 3.70707 3.99524 3.85385
# Velocity P-wave (km/s) = 6.91790 7.97439 7.46486
#
# Compressibility (1/GPa) = 0.01698130
#
# Stress axis : x y z
#
# Youngs Moduli (GPa) = 43.03999 88.61982 137.15155
#
# Poissons Ratio (x) = 0.39230 0.69930
# Poissons Ratio (y) = 0.19053 0.39617
# Poissons Ratio (z) = 0.21945 0.25599
#
# Static dielectric constant tensor:
#      x y z
#    x 1.711840 0.000000 0.000000 
#    y 0.000000 1.814510 0.000000 
#    z 0.000000 0.000000 1.721000 
# 
# From -- ./inp_files/62363.got.cif
#   From: 2010.05.17/outbox.cif.g08.bks.cpg/sg66_32_cif.got.tgz:62363.got - 2010.06.03 17:51:23.
