data_PCOD9497509
_publ_section_title
;
Structure prediction by ZEFSAII (Michael W. Deem and Ramdas Pophale) SiO2 
 PCOD9497509
Probable space group: C C C M
;
_chemical_formula_sum "Si O2"
_cell_formula_units_Z 96
_cell_length_a 24.215526
_cell_length_b 11.648170
_cell_length_c 17.305191
_cell_angle_alpha 90.000000
_cell_angle_beta 90.000000
_cell_angle_gamma 90.000000
_cell_volume 4881.215756
_symmetry_space_group_name_H-M "C C C M"
_symmetry_group_IT_number 66
_symmetry_cell_setting 'orthorhombic'
loop_
_space_group_symop_operation_xyz
x,y,z
-x,-y,z
x,-y,1/2-z
-x,y,1/2-z
-x,-y,-z
x,y,-z
-x,y,1/2+z
x,-y,1/2+z
1/2+x,1/2+y,z
1/2-x,1/2-y,z
1/2+x,1/2-y,1/2-z
1/2-x,1/2+y,1/2-z
1/2-x,1/2-y,-z
1/2+x,1/2+y,-z
1/2-x,1/2+y,1/2+z
1/2+x,1/2-y,1/2+z
loop_
_atom_site_type_symbol
_atom_site_label
_atom_site_fract_x
_atom_site_fract_y
_atom_site_fract_z
Si Si1 0.110174 0.220546 0.356833
Si Si2 0.814491 0.039062 0.912100
Si Si3 0.802680 0.600125 0.589947
Si Si4 0.806372 0.675401 0.085402
Si Si5 0.371131 0.664396 0.319872
Si Si6 0.994559 0.868803 0.156620
O O1 0.135632 0.127517 0.414068
O O2 0.147175 0.335186 0.367287
O O3 0.121507 0.165726 0.271943
O O4 0.043988 0.216178 0.368653
O O5 0.761352 0.113530 0.884202
O O6 0.833380 0.937092 0.855438
O O7 0.802955 0.996637 0.000000
O O8 0.806171 0.636708 0.500000
O O9 0.803953 0.461393 0.592051
O O10 0.750000 0.750000 0.089297
O O11 0.842713 0.719190 0.154963
O O12 0.829935 0.701462 0.000000
O O13 0.431489 0.663213 0.358388
O O14 0.000000 0.872925 0.250000
O O15 0.000000 0.000000 0.128107
#
# Coordination Sequence:
#
# PCOD9497509 Si02
#       6
#    16  16  16  16  16  16
#     4  11  22  37  58  90 120 153 195 252 301 348
#     4  11  21  37  59  84 121 160 193 234 301 367
#     4  10  22  40  59  81 121 165 192 233 303 365
#     4  10  20  38  60  82 114 160 200 234 289 365
#     4  11  21  37  61  89 114 153 201 251 290 343
#     4   9  18  36  59  81 118 157 192 239 303 353
#
# _framework density 19.667231999999998
#
# number of rings (size 3 to 8) (size 9 to 14) (size 15 to 20)
#    0.000    1.667    3.333    2.000    0.000    3.333 
#    3.000    5.000    0.000    5.000    0.000    0.000 
#    0.000    0.000    0.000    0.000    0.000    0.000 
#
# Total GULP energy -267297.692485 kJ/mol
# GULP energy per Si atom -5568.701927 kJ/mol
# Density = 1.962247 g / cm^3
# Si number density = 19.667232 Si / 1000 Ang^3
#
#
#
# Elastic Constant Matrix: (Units=GPa)
#
#
# Indices 1 2 3 4 5 6 
#
# 1 127.5584 39.3989 33.0038 0.0000 0.0000 0.0000
# 2 39.3989 71.7164 21.4369 0.0000 0.0000 0.0000
# 3 33.0038 21.4369 51.8414 0.0000 0.0000 0.0000
# 4 0.0000 0.0000 0.0000 29.2575 0.0000 0.0000
# 5 0.0000 0.0000 0.0000 0.0000 101.6693 0.0000
# 6 0.0000 0.0000 0.0000 0.0000 0.0000 27.1657
#
#
#
# Elastic Compliance Matrix: (Units=1/GPa)
#
#
# Indices 1 2 3 4 5 6 
#
# 1 0.010417 -0.004268 -0.004867 0.000000 0.000000 0.000000
# 2 -0.004268 0.017659 -0.004585 0.000000 0.000000 0.000000
# 3 -0.004867 -0.004585 0.024284 0.000000 0.000000 0.000000
# 4 0.000000 0.000000 0.000000 0.034179 0.000000 0.000000
# 5 0.000000 0.000000 0.000000 0.000000 0.009836 0.000000
# 6 0.000000 0.000000 0.000000 0.000000 0.000000 0.036811
#
#
# Mechanical properties :
#
#
# Convention : Reuss Voigt Hill
#
# Bulk Modulus (GPa) = 40.12824 48.75506 44.44165
# Shear Modulus (GPa) = 29.59752 42.10359 35.85056
#
# Velocity S-wave (km/s) = 3.88353 4.63190 4.27413
# Velocity P-wave (km/s) = 6.36844 7.31093 6.85590
#
# Compressibility (1/GPa) = 0.02492010
#
# Stress axis : x y z
#
# Youngs Moduli (GPa) = 95.99631 56.62817 41.17940
#
# Poissons Ratio (x) = 0.24169 0.20042
# Poissons Ratio (y) = 0.40972 0.18881
# Poissons Ratio (z) = 0.46721 0.25964
#
# Static dielectric constant tensor:
#      x y z
#    x 1.781110 0.000000 0.000000 
#    y 0.000000 1.730530 0.000000 
#    z 0.000000 0.000000 1.708540 
# 
# From -- ./inp_files/38867.got.cif
#   From: 2010.05.17/outbox.cif.g08.bks.cpg/sg66_20_cif.got.tgz:38867.got - 2010.06.03 17:51:23.
