data_PCOD9497404
_publ_section_title
;
Structure prediction by ZEFSAII (Michael W. Deem and Ramdas Pophale) SiO2 
 PCOD9497404
Probable space group: C C C M
;
_chemical_formula_sum "Si O2"
_cell_formula_units_Z 92
_cell_length_a 21.371585
_cell_length_b 24.625791
_cell_length_c 9.236088
_cell_angle_alpha 90.000000
_cell_angle_beta 90.000000
_cell_angle_gamma 90.000000
_cell_volume 4860.880939
_symmetry_space_group_name_H-M "C C C M"
_symmetry_group_IT_number 66
_symmetry_cell_setting 'orthorhombic'
loop_
_space_group_symop_operation_xyz
x,y,z
-x,-y,z
x,-y,1/2-z
-x,y,1/2-z
-x,-y,-z
x,y,-z
-x,y,1/2+z
x,-y,1/2+z
1/2+x,1/2+y,z
1/2-x,1/2-y,z
1/2+x,1/2-y,1/2-z
1/2-x,1/2+y,1/2-z
1/2-x,1/2-y,-z
1/2+x,1/2+y,-z
1/2-x,1/2+y,1/2+z
1/2+x,1/2-y,1/2+z
loop_
_atom_site_type_symbol
_atom_site_label
_atom_site_fract_x
_atom_site_fract_y
_atom_site_fract_z
Si Si1 0.211839 0.918961 0.171253
Si Si2 0.063291 0.374382 0.331576
Si Si3 0.696086 0.290692 0.174219
Si Si4 0.938219 0.243441 0.833043
Si Si5 0.161310 0.554332 0.326786
Si Si6 0.500000 0.500000 0.000000
Si Si7 0.898676 0.000000 0.250000
O O1 0.208606 0.854184 0.194426
O O2 0.267510 0.939735 0.272876
O O3 0.147835 0.950194 0.209036
O O4 0.226140 0.928470 0.000000
O O5 0.065027 0.391924 0.500000
O O6 0.064098 0.308937 0.331320
O O7 0.121625 0.396824 0.241962
O O8 0.000000 0.392067 0.250000
O O9 0.750000 0.250000 0.229588
O O10 0.627133 0.276910 0.231383
O O11 0.692988 0.281304 0.000000
O O12 0.000000 0.225300 0.750000
O O13 0.942943 0.225550 0.000000
O O14 0.135912 0.500000 0.250000
O O15 0.156966 0.552121 0.500000
O O16 0.445991 0.487586 0.121940
#
# Coordination Sequence:
#
# PCOD9497404 Si02
#       7
#    16  16  16  16  16   4   8
#     4  11  22  39  64  90 122 162 206 254 307 372
#     4  10  20  37  61  87 120 159 199 244 297 352
#     4   9  18  35  59  88 119 157 202 248 300 363
#     4   9  18  35  58  85 116 153 194 241 293 353
#     4  12  25  39  59  87 117 155 199 247 299 357
#     4  10  24  42  64  86 124 158 206 258 316 372
#     4  11  22  42  62  92 119 162 204 256 313 374
#
# _framework density 18.926611999999999
#
# number of rings (size 3 to 8) (size 9 to 14) (size 15 to 20)
#    0.000    1.739    1.739    3.130    1.217    3.826 
#    3.130    2.609    0.000    2.087    0.000    0.000 
#    0.000    0.000    0.000    0.000    0.000    0.000 
#
# Total GULP energy -256113.023284 kJ/mol
# GULP energy per Si atom -5567.674419 kJ/mol
# Density = 1.888353 g / cm^3
# Si number density = 18.926612 Si / 1000 Ang^3
#
#
#
# Elastic Constant Matrix: (Units=GPa)
#
#
# Indices 1 2 3 4 5 6 
#
# 1 101.7019 20.6717 35.8258 0.0000 0.0000 0.0000
# 2 20.6717 34.4414 21.4352 0.0000 0.0000 0.0000
# 3 35.8258 21.4352 135.7908 0.0000 0.0000 0.0000
# 4 0.0000 0.0000 0.0000 14.8286 0.0000 0.0000
# 5 0.0000 0.0000 0.0000 0.0000 29.2554 0.0000
# 6 0.0000 0.0000 0.0000 0.0000 0.0000 17.0799
#
#
#
# Elastic Compliance Matrix: (Units=1/GPa)
#
#
# Indices 1 2 3 4 5 6 
#
# 1 0.011766 -0.005689 -0.002206 0.000000 0.000000 0.000000
# 2 -0.005689 0.034949 -0.004016 0.000000 0.000000 0.000000
# 3 -0.002206 -0.004016 0.008580 0.000000 0.000000 0.000000
# 4 0.000000 0.000000 0.000000 0.067437 0.000000 0.000000
# 5 0.000000 0.000000 0.000000 0.000000 0.034182 0.000000
# 6 0.000000 0.000000 0.000000 0.000000 0.000000 0.058548
#
#
# Mechanical properties :
#
#
# Convention : Reuss Voigt Hill
#
# Bulk Modulus (GPa) = 31.77331 47.53326 39.65329
# Shear Modulus (GPa) = 20.01797 25.16621 22.59209
#
# Velocity S-wave (km/s) = 3.25570 3.65042 3.45870
# Velocity P-wave (km/s) = 5.56389 6.55259 6.07838
#
# Compressibility (1/GPa) = 0.03147296
#
# Stress axis : x y z
#
# Youngs Moduli (GPa) = 84.98946 28.61335 116.54640
#
# Poissons Ratio (x) = 0.16278 0.25713
# Poissons Ratio (y) = 0.48350 0.46804
# Poissons Ratio (z) = 0.18751 0.11491
#
# Static dielectric constant tensor:
#      x y z
#    x 1.662480 0.000000 0.000000 
#    y 0.000000 1.679630 0.000000 
#    z 0.000000 0.000000 1.639230 
# 
# From -- ./inp_files/8071.got.cif
#   From: 2010.05.17/outbox.cif.g08.bks.cpg/sg66_5_cif.got.tgz:8071.got - 2010.06.03 17:51:23.
