data_PCOD9497530
_publ_section_title
;
Structure prediction by ZEFSAII (Michael W. Deem and Ramdas Pophale) SiO2 
 PCOD9497530
Probable space group: C C C M
;
_chemical_formula_sum "Si O2"
_cell_formula_units_Z 112
_cell_length_a 14.505648
_cell_length_b 24.126670
_cell_length_c 14.874890
_cell_angle_alpha 90.000000
_cell_angle_beta 90.000000
_cell_angle_gamma 90.000000
_cell_volume 5205.809617
_symmetry_space_group_name_H-M "C C C M"
_symmetry_group_IT_number 66
_symmetry_cell_setting 'orthorhombic'
loop_
_space_group_symop_operation_xyz
x,y,z
-x,-y,z
x,-y,1/2-z
-x,y,1/2-z
-x,-y,-z
x,y,-z
-x,y,1/2+z
x,-y,1/2+z
1/2+x,1/2+y,z
1/2-x,1/2-y,z
1/2+x,1/2-y,1/2-z
1/2-x,1/2+y,1/2-z
1/2-x,1/2-y,-z
1/2+x,1/2+y,-z
1/2-x,1/2+y,1/2+z
1/2+x,1/2-y,1/2+z
loop_
_atom_site_type_symbol
_atom_site_label
_atom_site_fract_x
_atom_site_fract_y
_atom_site_fract_z
Si Si1 0.032089 0.097870 0.146037
Si Si2 0.576130 0.956153 0.104966
Si Si3 0.572162 0.163365 0.669871
Si Si4 0.737781 0.310846 0.228918
Si Si5 0.717118 0.529356 0.890409
Si Si6 0.437289 0.717186 0.659687
Si Si7 0.833456 0.909001 0.601781
O O1 0.128949 0.065995 0.139228
O O2 0.035952 0.161068 0.110181
O O3 0.000000 0.099406 0.250000
O O4 0.941621 0.074513 0.099212
O O5 0.550711 0.891736 0.114585
O O6 0.680613 0.955223 0.142179
O O7 0.500000 0.000000 0.141745
O O8 0.585468 0.971030 0.000000
O O9 0.500000 0.162298 0.750000
O O10 0.670661 0.167649 0.721268
O O11 0.560364 0.221904 0.618030
O O12 0.750000 0.250000 0.182807
O O13 0.664729 0.296497 0.306184
O O14 0.693554 0.357029 0.163924
O O15 0.709822 0.465460 0.862390
O O16 0.714102 0.532123 0.000000
O O17 0.500000 0.720232 0.750000
O O18 0.802051 0.897922 0.500000
#
# Coordination Sequence:
#
# PCOD9497530 Si02
#       7
#    16  16  16  16  16  16  16
#     4  11  20  37  62  91 121 157 196 245 298 370
#     4  10  23  44  63  85 122 163 205 254 305 354
#     4  10  22  38  62  89 116 153 202 253 299 356
#     4  10  20  38  62  87 118 159 200 254 305 363
#     4  10  23  41  59  82 124 164 194 245 308 364
#     4   9  17  36  60  85 119 152 192 239 306 350
#     4  11  23  38  57  88 123 158 196 243 308 376
#
# _framework density 21.514426
#
# number of rings (size 3 to 8) (size 9 to 14) (size 15 to 20)
#    0.000    1.857    2.857    1.714    2.000    2.857 
#    0.000    1.429    0.000    5.571    0.000    0.000 
#    0.000    0.000    0.000    0.000    0.000    0.000 
#
# Total GULP energy -312026.419554 kJ/mol
# GULP energy per Si atom -5571.900349 kJ/mol
# Density = 2.146546 g / cm^3
# Si number density = 21.514426 Si / 1000 Ang^3
#
#
#
# Elastic Constant Matrix: (Units=GPa)
#
#
# Indices 1 2 3 4 5 6 
#
# 1 104.6134 13.3570 8.1472 0.0000 0.0000 0.0000
# 2 13.3570 130.3221 16.9498 0.0000 0.0000 0.0000
# 3 8.1472 16.9498 37.8746 0.0000 0.0000 0.0000
# 4 0.0000 0.0000 0.0000 34.2030 0.0000 0.0000
# 5 0.0000 0.0000 0.0000 0.0000 9.6534 0.0000
# 6 0.0000 0.0000 0.0000 0.0000 0.0000 37.0029
#
#
#
# Elastic Compliance Matrix: (Units=1/GPa)
#
#
# Indices 1 2 3 4 5 6 
#
# 1 0.009795 -0.000775 -0.001760 0.000000 0.000000 0.000000
# 2 -0.000775 0.008209 -0.003507 0.000000 0.000000 0.000000
# 3 -0.001760 -0.003507 0.028351 0.000000 0.000000 0.000000
# 4 0.000000 0.000000 0.000000 0.029237 0.000000 0.000000
# 5 0.000000 0.000000 0.000000 0.000000 0.103590 0.000000
# 6 0.000000 0.000000 0.000000 0.000000 0.000000 0.027025
#
#
# Mechanical properties :
#
#
# Convention : Reuss Voigt Hill
#
# Bulk Modulus (GPa) = 29.17950 38.85755 34.01852
# Shear Modulus (GPa) = 21.76612 31.79561 26.78086
#
# Velocity S-wave (km/s) = 3.18417 3.84848 3.53198
# Velocity P-wave (km/s) = 5.20680 6.15208 5.69908
#
# Compressibility (1/GPa) = 0.03427064
#
# Stress axis : x y z
#
# Youngs Moduli (GPa) = 102.09254 121.81984 35.27217
#
# Poissons Ratio (x) = 0.09441 0.06209
# Poissons Ratio (y) = 0.07912 0.12370
# Poissons Ratio (z) = 0.17970 0.42722
#
# Static dielectric constant tensor:
#      x y z
#    x 1.776230 0.000000 0.000000 
#    y 0.000000 1.864890 0.000000 
#    z 0.000000 0.000000 1.807040 
# 
# From -- ./inp_files/28695.got.cif
#   From: 2010.05.17/outbox.cif.g08.bks.cpg/sg66_15_cif.got.tgz:28695.got - 2010.06.03 17:51:23.
