data_PCOD9497525
_publ_section_title
;
Structure prediction by ZEFSAII (Michael W. Deem and Ramdas Pophale) SiO2 
 PCOD9497525
Probable space group: C C C M
;
_chemical_formula_sum "Si O2"
_cell_formula_units_Z 104
_cell_length_a 24.798226
_cell_length_b 9.956292
_cell_length_c 20.788025
_cell_angle_alpha 90.000000
_cell_angle_beta 90.000000
_cell_angle_gamma 90.000000
_cell_volume 5132.529678
_symmetry_space_group_name_H-M "C C C M"
_symmetry_group_IT_number 66
_symmetry_cell_setting 'orthorhombic'
loop_
_space_group_symop_operation_xyz
x,y,z
-x,-y,z
x,-y,1/2-z
-x,y,1/2-z
-x,-y,-z
x,y,-z
-x,y,1/2+z
x,-y,1/2+z
1/2+x,1/2+y,z
1/2-x,1/2-y,z
1/2+x,1/2-y,1/2-z
1/2-x,1/2+y,1/2-z
1/2-x,1/2-y,-z
1/2+x,1/2+y,-z
1/2-x,1/2+y,1/2+z
1/2+x,1/2-y,1/2+z
loop_
_atom_site_type_symbol
_atom_site_label
_atom_site_fract_x
_atom_site_fract_y
_atom_site_fract_z
Si Si1 0.357321 0.384328 0.695323
Si Si2 0.082689 0.728965 0.375828
Si Si3 0.750000 0.250000 0.620100
Si Si4 0.042143 0.725481 0.000000
Si Si5 0.528231 0.354588 0.865392
Si Si6 0.659862 0.448141 0.573280
Si Si7 0.574471 0.930476 0.000000
Si Si8 0.829570 0.647073 0.222829
O O1 0.355304 0.500000 0.750000
O O2 0.420058 0.348322 0.680723
O O3 0.334089 0.441365 0.628539
O O4 0.324257 0.258335 0.721830
O O5 0.105667 0.867600 0.405914
O O6 0.095988 0.622512 0.432033
O O7 0.116255 0.691497 0.313697
O O8 0.020530 0.748248 0.356730
O O9 0.708136 0.339959 0.580535
O O10 0.783977 0.342561 0.668656
O O11 0.047674 0.817702 0.937464
O O12 0.077827 0.591104 0.000000
O O13 0.983536 0.649464 0.000000
O O14 0.500000 0.500000 0.860319
O O15 0.656525 0.494879 0.500000
O O16 0.833006 0.500000 0.250000
#
# Coordination Sequence:
#
# PCOD9497525 Si02
#       8
#    16  16   8   8  16  16   8  16
#     4  12  24  42  62  96 134 170 215 269 327 387
#     4  10  20  38  61  90 125 173 215 264 319 394
#     4  10  23  44  74  94 121 172 218 272 349 412
#     4   9  21  32  54  84 118 173 218 255 315 385
#     4  11  21  35  60  88 129 173 220 263 325 387
#     4  11  22  41  68 100 128 164 223 284 330 398
#     4   9  18  36  56  79 125 165 211 267 314 366
#     4  11  26  43  66  94 128 170 218 271 337 403
#
# _framework density 20.262913000000001
#
# number of rings (size 3 to 8) (size 9 to 14) (size 15 to 20)
#    0.000    1.385    5.385    0.462    5.385    2.154 
#    0.000    0.769    0.000    0.923    0.000    0.000 
#    0.000    0.000    0.000    0.000    0.000    0.000 
#
# Total GULP energy -290277.777032 kJ/mol
# GULP energy per Si atom -5582.264943 kJ/mol
# Density = 2.021679 g / cm^3
# Si number density = 20.262913 Si / 1000 Ang^3
#
#
#
# Elastic Constant Matrix: (Units=GPa)
#
#
# Indices 1 2 3 4 5 6 
#
# 1 53.5880 -4.0926 11.9220 0.0000 0.0000 0.0000
# 2 -4.0926 45.8324 33.0016 0.0000 0.0000 0.0000
# 3 11.9220 33.0016 115.9084 0.0000 0.0000 0.0000
# 4 0.0000 0.0000 0.0000 32.5639 0.0000 0.0000
# 5 0.0000 0.0000 0.0000 0.0000 5.7804 0.0000
# 6 0.0000 0.0000 0.0000 0.0000 0.0000 7.1368
#
#
#
# Elastic Compliance Matrix: (Units=1/GPa)
#
#
# Indices 1 2 3 4 5 6 
#
# 1 0.019676 0.004043 -0.003175 0.000000 0.000000 0.000000
# 2 0.004043 0.028276 -0.008467 0.000000 0.000000 0.000000
# 3 -0.003175 -0.008467 0.011365 0.000000 0.000000 0.000000
# 4 0.000000 0.000000 0.000000 0.030709 0.000000 0.000000
# 5 0.000000 0.000000 0.000000 0.000000 0.172999 0.000000
# 6 0.000000 0.000000 0.000000 0.000000 0.000000 0.140120
#
#
# Mechanical properties :
#
#
# Convention : Reuss Voigt Hill
#
# Bulk Modulus (GPa) = 22.66558 32.99899 27.83228
# Shear Modulus (GPa) = 11.54607 20.72939 16.13773
#
# Velocity S-wave (km/s) = 2.38967 3.20194 2.82515
# Velocity P-wave (km/s) = 4.33867 5.47637 4.94038
#
# Compressibility (1/GPa) = 0.04411976
#
# Stress axis : x y z
#
# Youngs Moduli (GPa) = 50.82326 35.36557 87.99166
#
# Poissons Ratio (x) = -0.14299 0.27937
# Poissons Ratio (y) = -0.20548 0.74500
# Poissons Ratio (z) = 0.16136 0.29943
#
# Static dielectric constant tensor:
#      x y z
#    x 1.759040 0.000000 0.000000 
#    y 0.000000 1.725370 0.000000 
#    z 0.000000 0.000000 1.729290 
# 
# From -- ./inp_files/53097.got.cif
#   From: 2010.05.17/outbox.cif.g08.bks.cpg/sg66_27_cif.got.tgz:53097.got - 2010.06.03 17:51:23.
