data_PCOD9497103
_publ_section_title
;
Structure prediction by ZEFSAII (Michael W. Deem and Ramdas Pophale) SiO2 
 PCOD9497103
Probable space group: C C C M
;
_chemical_formula_sum "Si O2"
_cell_formula_units_Z 88
_cell_length_a 21.243951
_cell_length_b 12.612146
_cell_length_c 16.783946
_cell_angle_alpha 90.000000
_cell_angle_beta 90.000000
_cell_angle_gamma 90.000000
_cell_volume 4496.953058
_symmetry_space_group_name_H-M "C C C M"
_symmetry_group_IT_number 66
_symmetry_cell_setting 'orthorhombic'
loop_
_space_group_symop_operation_xyz
x,y,z
-x,-y,z
x,-y,1/2-z
-x,y,1/2-z
-x,-y,-z
x,y,-z
-x,y,1/2+z
x,-y,1/2+z
1/2+x,1/2+y,z
1/2-x,1/2-y,z
1/2+x,1/2-y,1/2-z
1/2-x,1/2+y,1/2-z
1/2-x,1/2-y,-z
1/2+x,1/2+y,-z
1/2-x,1/2+y,1/2+z
1/2+x,1/2-y,1/2+z
loop_
_atom_site_type_symbol
_atom_site_label
_atom_site_fract_x
_atom_site_fract_y
_atom_site_fract_z
Si Si1 0.596287 0.795559 0.302161
Si Si2 0.022399 0.620343 0.353572
Si Si3 0.635824 0.440448 0.500000
Si Si4 0.785062 0.527731 0.000000
Si Si5 0.273765 0.132392 0.640041
Si Si6 0.893795 0.690377 0.000000
Si Si7 0.635077 0.558157 0.330806
O O1 0.545633 0.827821 0.368529
O O2 0.560718 0.831546 0.221834
O O3 0.665744 0.846582 0.304901
O O4 0.605346 0.672825 0.319381
O O5 0.068414 0.644839 0.425266
O O6 0.000000 0.500000 0.340881
O O7 0.711779 0.441018 0.500000
O O8 0.611596 0.318749 0.500000
O O9 0.619474 0.501316 0.415951
O O10 0.797042 0.449620 0.926094
O O11 0.826307 0.632942 0.000000
O O12 0.250000 0.250000 0.610969
O O13 0.210608 0.078599 0.673263
O O14 0.615773 0.500000 0.250000
#
# Coordination Sequence:
#
# PCOD9497103 Si02
#       7
#    16  16   8   8  16   8  16
#     4  10  21  39  60  84 115 155 195 246 301 357
#     4  11  24  40  59  87 122 156 198 247 299 367
#     4  10  23  41  60  89 124 155 200 261 303 353
#     4  10  20  35  59  88 119 156 194 250 310 359
#     4   9  19  35  60  88 116 152 197 249 308 367
#     4  12  24  40  59  85 119 163 204 241 301 370
#     4  10  21  39  62  89 118 154 202 252 304 364
#
# _framework density 19.568805999999999
#
# number of rings (size 3 to 8) (size 9 to 14) (size 15 to 20)
#    0.000    1.818    0.000    4.091    0.000    8.000 
#    0.000   12.727    0.000    0.000    0.000    0.000 
#    0.000    0.000    0.000    0.000    0.000    0.000 
#
# Total GULP energy -244947.800440 kJ/mol
# GULP energy per Si atom -5566.995465 kJ/mol
# Density = 1.952427 g / cm^3
# Si number density = 19.568806 Si / 1000 Ang^3
#
#
#
# Elastic Constant Matrix: (Units=GPa)
#
#
# Indices 1 2 3 4 5 6 
#
# 1 66.5325 49.9641 32.0848 0.0000 0.0000 0.0000
# 2 49.9641 136.5155 66.2942 0.0000 0.0000 0.0000
# 3 32.0848 66.2942 111.1945 0.0000 0.0000 0.0000
# 4 0.0000 0.0000 0.0000 35.4179 0.0000 0.0000
# 5 0.0000 0.0000 0.0000 0.0000 -13.3575 0.0000
# 6 0.0000 0.0000 0.0000 0.0000 0.0000 37.6639
#
#
#
# Elastic Compliance Matrix: (Units=1/GPa)
#
#
# Indices 1 2 3 4 5 6 
#
# 1 0.021065 -0.006697 -0.002086 0.000000 0.000000 0.000000
# 2 -0.006697 0.012439 -0.005484 0.000000 0.000000 0.000000
# 3 -0.002086 -0.005484 0.012865 0.000000 0.000000 0.000000
# 4 0.000000 0.000000 0.000000 0.028234 0.000000 0.000000
# 5 0.000000 0.000000 0.000000 0.000000 -0.074864 0.000000
# 6 0.000000 0.000000 0.000000 0.000000 0.000000 0.026551
#
#
# Mechanical properties :
#
#
# Convention : Reuss Voigt Hill
#
# Bulk Modulus (GPa) = 56.06589 67.88095 61.97342
# Shear Modulus (GPa) = 82.28011 23.00483 52.64247
#
# Velocity S-wave (km/s) = 6.49137 3.43240 5.19227
# Velocity P-wave (km/s) = 9.21394 7.10438 8.22705
#
# Compressibility (1/GPa) = 0.01783616
#
# Stress axis : x y z
#
# Youngs Moduli (GPa) = 47.47153 80.39008 77.73294
#
# Poissons Ratio (x) = 0.53837 0.16212
# Poissons Ratio (y) = 0.31792 0.42628
# Poissons Ratio (z) = 0.09900 0.44085
#
# Static dielectric constant tensor:
#      x y z
#    x 1.673730 0.000000 0.000000 
#    y 0.000000 2.248720 0.000000 
#    z 0.000000 0.000000 1.763290 
# 
# From -- ./inp_files/38703.got.cif
#   From: 2010.05.17/outbox.cif.g08.bks.cpg/sg66_20_cif.got.tgz:38703.got - 2010.06.03 17:51:23.
