data_PCOD9497261
_publ_section_title
;
Structure prediction by ZEFSAII (Michael W. Deem and Ramdas Pophale) SiO2 
 PCOD9497261
Probable space group: C C C M
;
_chemical_formula_sum "Si O2"
_cell_formula_units_Z 84
_cell_length_a 19.881021
_cell_length_b 8.587934
_cell_length_c 25.256990
_cell_angle_alpha 90.000000
_cell_angle_beta 90.000000
_cell_angle_gamma 90.000000
_cell_volume 4312.300080
_symmetry_space_group_name_H-M "C C C M"
_symmetry_group_IT_number 66
_symmetry_cell_setting 'orthorhombic'
loop_
_space_group_symop_operation_xyz
x,y,z
-x,-y,z
x,-y,1/2-z
-x,y,1/2-z
-x,-y,-z
x,y,-z
-x,y,1/2+z
x,-y,1/2+z
1/2+x,1/2+y,z
1/2-x,1/2-y,z
1/2+x,1/2-y,1/2-z
1/2-x,1/2+y,1/2-z
1/2-x,1/2-y,-z
1/2+x,1/2+y,-z
1/2-x,1/2+y,1/2+z
1/2+x,1/2-y,1/2+z
loop_
_atom_site_type_symbol
_atom_site_label
_atom_site_fract_x
_atom_site_fract_y
_atom_site_fract_z
Si Si1 0.572031 0.938464 0.936700
Si Si2 0.110839 0.905818 0.830775
Si Si3 0.688842 0.141090 0.885061
Si Si4 0.500000 0.500000 0.250000
Si Si5 0.924998 0.930912 0.059836
Si Si6 0.740498 0.570135 0.196655
O O1 0.578706 0.752932 0.925010
O O2 0.500000 0.000000 0.915454
O O3 0.632235 0.054045 0.919611
O O4 0.569052 0.945667 0.000000
O O5 0.149590 0.744793 0.841263
O O6 0.046823 0.903291 0.791635
O O7 0.100947 0.969747 0.890632
O O8 0.162618 0.026143 0.805321
O O9 0.750000 0.250000 0.908248
O O10 0.726954 0.005540 0.854433
O O11 0.894551 0.948348 0.000000
O O12 0.000000 0.000000 0.054774
O O13 0.770791 0.500000 0.250000
O O14 0.750000 0.750000 0.197034
#
# Coordination Sequence:
#
# PCOD9497261 Si02
#       6
#    16  16  16   4  16  16
#     4  10  21  38  61  91 126 163 209 263 318 373
#     4  11  22  39  62  89 126 161 207 258 310 369
#     4  10  23  41  61  90 123 164 210 258 312 381
#     4  12  24  36  62  94 124 164 200 258 304 360
#     4  10  20  36  60  89 122 163 205 253 314 376
#     4  11  22  40  63  84 118 165 211 255 309 368
#
# _framework density 19.479164000000001
#
# number of rings (size 3 to 8) (size 9 to 14) (size 15 to 20)
#    0.000    1.524    1.905    4.000    0.000    2.667 
#    0.000    2.857    0.000   12.571    0.000    0.000 
#    0.000    0.000    0.000    0.000    0.000    0.000 
#
# Total GULP energy -233861.259232 kJ/mol
# GULP energy per Si atom -5568.125220 kJ/mol
# Density = 1.943483 g / cm^3
# Si number density = 19.479164 Si / 1000 Ang^3
#
#
#
# Elastic Constant Matrix: (Units=GPa)
#
#
# Indices 1 2 3 4 5 6 
#
# 1 86.9604 35.0875 15.8876 0.0000 0.0000 0.0000
# 2 35.0875 120.2557 18.6403 0.0000 0.0000 0.0000
# 3 15.8876 18.6403 62.9164 0.0000 0.0000 0.0000
# 4 0.0000 0.0000 0.0000 -62.0351 0.0000 0.0000
# 5 0.0000 0.0000 0.0000 0.0000 39.5517 0.0000
# 6 0.0000 0.0000 0.0000 0.0000 0.0000 19.9336
#
#
#
# Elastic Compliance Matrix: (Units=1/GPa)
#
#
# Indices 1 2 3 4 5 6 
#
# 1 0.013350 -0.003535 -0.002324 0.000000 0.000000 0.000000
# 2 -0.003535 0.009652 -0.001967 0.000000 0.000000 0.000000
# 3 -0.002324 -0.001967 0.017064 0.000000 0.000000 0.000000
# 4 0.000000 0.000000 0.000000 -0.016120 0.000000 0.000000
# 5 0.000000 0.000000 0.000000 0.000000 0.025283 0.000000
# 6 0.000000 0.000000 0.000000 0.000000 0.000000 0.050167
#
#
# Mechanical properties :
#
#
# Convention : Reuss Voigt Hill
#
# Bulk Modulus (GPa) = 40.95969 45.48482 43.22225
# Shear Modulus (GPa) = 40.58904 12.85785 26.72344
#
# Velocity S-wave (km/s) = 4.56973 2.57199 3.70793
# Velocity P-wave (km/s) = 6.99402 5.67639 6.36937
#
# Compressibility (1/GPa) = 0.02441425
#
# Stress axis : x y z
#
# Youngs Moduli (GPa) = 74.90399 103.60603 58.60408
#
# Poissons Ratio (x) = 0.36626 0.13619
# Poissons Ratio (y) = 0.26479 0.11527
# Poissons Ratio (z) = 0.17407 0.20378
#
# Static dielectric constant tensor:
#      x y z
#    x 1.703510 0.000000 0.000000 
#    y 0.000000 1.677250 0.000000 
#    z 0.000000 0.000000 1.733190 
# 
# From -- ./inp_files/59315.got.cif
#   From: 2010.05.17/outbox.cif.g08.bks.cpg/sg66_30_cif.got.tgz:59315.got - 2010.06.03 17:51:23.
