data_PCOD9497780
_publ_section_title
;
Structure prediction by ZEFSAII (Michael W. Deem and Ramdas Pophale) SiO2 
 PCOD9497780
Probable space group: C C C M
;
_chemical_formula_sum "Si O2"
_cell_formula_units_Z 88
_cell_length_a 14.714011
_cell_length_b 12.174744
_cell_length_c 28.007928
_cell_angle_alpha 90.000000
_cell_angle_beta 90.000000
_cell_angle_gamma 90.000000
_cell_volume 5017.321096
_symmetry_space_group_name_H-M "C C C M"
_symmetry_group_IT_number 66
_symmetry_cell_setting 'orthorhombic'
loop_
_space_group_symop_operation_xyz
x,y,z
-x,-y,z
x,-y,1/2-z
-x,y,1/2-z
-x,-y,-z
x,y,-z
-x,y,1/2+z
x,-y,1/2+z
1/2+x,1/2+y,z
1/2-x,1/2-y,z
1/2+x,1/2-y,1/2-z
1/2-x,1/2+y,1/2-z
1/2-x,1/2-y,-z
1/2+x,1/2+y,-z
1/2-x,1/2+y,1/2+z
1/2+x,1/2-y,1/2+z
loop_
_atom_site_type_symbol
_atom_site_label
_atom_site_fract_x
_atom_site_fract_y
_atom_site_fract_z
Si Si1 0.714962 0.919052 0.944150
Si Si2 0.989949 0.377468 0.443823
Si Si3 0.394466 0.860981 0.303079
Si Si4 0.325191 0.834842 0.906574
Si Si5 0.750000 0.250000 0.627589
Si Si6 0.892421 0.374496 0.194156
O O1 0.616808 0.856865 0.939969
O O2 0.776157 0.851382 0.907359
O O3 0.699066 0.044291 0.927329
O O4 0.741367 0.916069 0.000000
O O5 0.010531 0.384977 0.500000
O O6 0.000000 0.500000 0.421907
O O7 0.071493 0.307607 0.422535
O O8 0.330121 0.795199 0.338629
O O9 0.370737 0.836308 0.247822
O O10 0.501486 0.842207 0.312743
O O11 0.384850 0.992843 0.307774
O O12 0.250000 0.750000 0.923728
O O13 0.331343 0.834792 0.849293
#
# Coordination Sequence:
#
# PCOD9497780 Si02
#       6
#    16  16  16  16   8  16
#     4  10  21  35  52  78 109 143 183 225 271 322
#     4   8  16  31  50  71 100 137 177 221 267 309
#     4   9  19  32  58  76 109 137 183 223 274 310
#     4  11  20  30  52  81 111 141 179 227 271 319
#     4  12  19  32  56  88 106 144 173 232 262 326
#     4   9  18  36  50  81 107 144 174 224 268 330
#
# _framework density 17.539239999999999
#
# number of rings (size 3 to 8) (size 9 to 14) (size 15 to 20)
#    0.000    2.364    1.818    4.091    6.364    1.455 
#    0.000    0.000    0.000    4.364    0.000   10.182 
#    0.000    0.000    0.000    0.000    0.000    0.000 
#
# Total GULP energy -244995.905174 kJ/mol
# GULP energy per Si atom -5568.088754 kJ/mol
# Density = 1.749932 g / cm^3
# Si number density = 17.539240 Si / 1000 Ang^3
#
#
#
# Elastic Constant Matrix: (Units=GPa)
#
#
# Indices 1 2 3 4 5 6 
#
# 1 57.3593 39.9884 46.4561 0.0000 0.0000 0.0000
# 2 39.9884 59.1820 43.4427 0.0000 0.0000 0.0000
# 3 46.4561 43.4427 133.6215 0.0000 0.0000 0.0000
# 4 0.0000 0.0000 0.0000 13.8005 0.0000 0.0000
# 5 0.0000 0.0000 0.0000 0.0000 23.2822 0.0000
# 6 0.0000 0.0000 0.0000 0.0000 0.0000 34.1244
#
#
#
# Elastic Compliance Matrix: (Units=1/GPa)
#
#
# Indices 1 2 3 4 5 6 
#
# 1 0.036411 -0.020109 -0.006121 0.000000 0.000000 0.000000
# 2 -0.020109 0.033299 -0.003835 0.000000 0.000000 0.000000
# 3 -0.006121 -0.003835 0.010859 0.000000 0.000000 0.000000
# 4 0.000000 0.000000 0.000000 0.072461 0.000000 0.000000
# 5 0.000000 0.000000 0.000000 0.000000 0.042951 0.000000
# 6 0.000000 0.000000 0.000000 0.000000 0.000000 0.029305
#
#
# Mechanical properties :
#
#
# Convention : Reuss Voigt Hill
#
# Bulk Modulus (GPa) = 48.92651 56.65968 52.79310
# Shear Modulus (GPa) = 17.10990 22.25980 19.68485
#
# Velocity S-wave (km/s) = 3.12672 3.56637 3.35376
# Velocity P-wave (km/s) = 6.40244 7.02377 6.72029
#
# Compressibility (1/GPa) = 0.02043882
#
# Stress axis : x y z
#
# Youngs Moduli (GPa) = 27.46452 30.03057 92.09171
#
# Poissons Ratio (x) = 0.60388 0.56370
# Poissons Ratio (y) = 0.55228 0.35317
# Poissons Ratio (z) = 0.16811 0.11517
#
# Static dielectric constant tensor:
#      x y z
#    x 1.626770 0.000000 0.000000 
#    y 0.000000 1.595000 0.000000 
#    z 0.000000 0.000000 1.659240 
# 
# From -- ./inp_files/64539.got.cif
#   From: 2010.05.17/outbox.cif.g08.bks.cpg/sg66_33_cif.got.tgz:64539.got - 2010.06.03 17:51:23.
