data_PCOD9497153
_publ_section_title
;
Structure prediction by ZEFSAII (Michael W. Deem and Ramdas Pophale) SiO2 
 PCOD9497153
Probable space group: C C C M
;
_chemical_formula_sum "Si O2"
_cell_formula_units_Z 68
_cell_length_a 17.653916
_cell_length_b 21.083692
_cell_length_c 7.700031
_cell_angle_alpha 90.000000
_cell_angle_beta 90.000000
_cell_angle_gamma 90.000000
_cell_volume 2866.026441
_symmetry_space_group_name_H-M "C C C M"
_symmetry_group_IT_number 66
_symmetry_cell_setting 'orthorhombic'
loop_
_space_group_symop_operation_xyz
x,y,z
-x,-y,z
x,-y,1/2-z
-x,y,1/2-z
-x,-y,-z
x,y,-z
-x,y,1/2+z
x,-y,1/2+z
1/2+x,1/2+y,z
1/2-x,1/2-y,z
1/2+x,1/2-y,1/2-z
1/2-x,1/2+y,1/2-z
1/2-x,1/2-y,-z
1/2+x,1/2+y,-z
1/2-x,1/2+y,1/2+z
1/2+x,1/2-y,1/2+z
loop_
_atom_site_type_symbol
_atom_site_label
_atom_site_fract_x
_atom_site_fract_y
_atom_site_fract_z
Si Si1 0.917394 0.161664 0.294624
Si Si2 0.250000 0.750000 0.000000
Si Si3 0.385367 0.929467 0.195117
Si Si4 0.859652 0.296662 0.700562
Si Si5 0.289782 0.568794 0.708690
O O1 0.909895 0.157200 0.500000
O O2 0.909807 0.235501 0.249190
O O3 0.847125 0.121914 0.221850
O O4 0.000000 0.136733 0.250000
O O5 0.205978 0.708760 0.155315
O O6 0.402486 0.863957 0.292641
O O7 0.293424 0.931149 0.209400
O O8 0.410391 0.000000 0.250000
O O9 0.410774 0.920569 0.000000
O O10 0.832728 0.288784 0.500000
O O11 0.323976 0.500000 0.750000
O O12 0.279204 0.575453 0.500000
#
# Coordination Sequence:
#
# PCOD9497153 Si02
#       5
#    16   4  16  16  16
#     4  10  24  40  60  81 118 164 208 259 301 353
#     4  12  22  36  64  94 120 164 198 252 328 366
#     4  11  21  36  60  91 123 162 196 249 317 375
#     4  11  23  40  59  93 127 157 205 259 309 374
#     4  10  20  36  54  83 117 158 201 255 306 357
#
# _framework density 23.726229
#
# number of rings (size 3 to 8) (size 9 to 14) (size 15 to 20)
#    0.000    1.412    1.176    6.000    1.647    4.235 
#    0.000    2.353    0.000    0.706    0.000    4.941 
#    0.000    0.000    0.000    0.000    0.000    0.000 
#
# Total GULP energy -189426.856318 kJ/mol
# GULP energy per Si atom -5571.378127 kJ/mol
# Density = 2.367223 g / cm^3
# Si number density = 23.726229 Si / 1000 Ang^3
#
#
#
# Elastic Constant Matrix: (Units=GPa)
#
#
# Indices 1 2 3 4 5 6 
#
# 1 75.5480 27.0129 -5.4840 0.0000 0.0000 0.0000
# 2 27.0129 107.9775 5.1814 0.0000 0.0000 0.0000
# 3 -5.4840 5.1814 115.2304 0.0000 0.0000 0.0000
# 4 0.0000 0.0000 0.0000 36.9475 0.0000 0.0000
# 5 0.0000 0.0000 0.0000 0.0000 5.3723 0.0000
# 6 0.0000 0.0000 0.0000 0.0000 0.0000 -38.5605
#
#
#
# Elastic Compliance Matrix: (Units=1/GPa)
#
#
# Indices 1 2 3 4 5 6 
#
# 1 0.014622 -0.003699 0.000862 0.000000 0.000000 0.000000
# 2 -0.003699 0.010217 -0.000635 0.000000 0.000000 0.000000
# 3 0.000862 -0.000635 0.008748 0.000000 0.000000 0.000000
# 4 0.000000 0.000000 0.000000 0.027065 0.000000 0.000000
# 5 0.000000 0.000000 0.000000 0.000000 0.186139 0.000000
# 6 0.000000 0.000000 0.000000 0.000000 0.000000 -0.025933
#
#
# Mechanical properties :
#
#
# Convention : Reuss Voigt Hill
#
# Bulk Modulus (GPa) = 37.53508 39.13072 38.33290
# Shear Modulus (GPa) = 21.12520 18.88824 20.00672
#
# Velocity S-wave (km/s) = 2.98715 2.82457 2.90700
# Velocity P-wave (km/s) = 5.26800 5.21210 5.24013
#
# Compressibility (1/GPa) = 0.02664174
#
# Stress axis : x y z
#
# Youngs Moduli (GPa) = 68.39032 97.87453 114.31347
#
# Poissons Ratio (x) = 0.36207 -0.09856
# Poissons Ratio (y) = 0.25300 0.07264
# Poissons Ratio (z) = -0.05897 0.06220
#
# Static dielectric constant tensor:
#      x y z
#    x 1.904910 0.000000 0.000000 
#    y 0.000000 2.021140 0.000000 
#    z 0.000000 0.000000 1.878710 
# 
# From -- ./inp_files/6292.got.cif
#   From: 2010.05.17/outbox.cif.g08.bks.cpg/sg66_4_cif.got.tgz:6292.got - 2010.06.03 17:51:23.
