data_PCOD9497297
_publ_section_title
;
Structure prediction by ZEFSAII (Michael W. Deem and Ramdas Pophale) SiO2 
 PCOD9497297
Probable space group: C C C M
;
_chemical_formula_sum "Si O2"
_cell_formula_units_Z 116
_cell_length_a 12.597787
_cell_length_b 24.693018
_cell_length_c 17.879695
_cell_angle_alpha 90.000000
_cell_angle_beta 90.000000
_cell_angle_gamma 90.000000
_cell_volume 5561.968696
_symmetry_space_group_name_H-M "C C C M"
_symmetry_group_IT_number 66
_symmetry_cell_setting 'orthorhombic'
loop_
_space_group_symop_operation_xyz
x,y,z
-x,-y,z
x,-y,1/2-z
-x,y,1/2-z
-x,-y,-z
x,y,-z
-x,y,1/2+z
x,-y,1/2+z
1/2+x,1/2+y,z
1/2-x,1/2-y,z
1/2+x,1/2-y,1/2-z
1/2-x,1/2+y,1/2-z
1/2-x,1/2-y,-z
1/2+x,1/2+y,-z
1/2-x,1/2+y,1/2+z
1/2+x,1/2-y,1/2+z
loop_
_atom_site_type_symbol
_atom_site_label
_atom_site_fract_x
_atom_site_fract_y
_atom_site_fract_z
Si Si1 0.557564 0.945933 0.413919
Si Si2 0.235370 0.619295 0.173201
Si Si3 0.446497 0.688577 0.674520
Si Si4 0.154277 0.207888 0.412268
Si Si5 0.000000 0.000000 0.250000
Si Si6 0.620748 0.200647 0.280670
Si Si7 0.342135 0.119021 0.914643
Si Si8 0.660145 0.419834 0.675723
O O1 0.593286 0.956453 0.500000
O O2 0.650412 0.920495 0.364339
O O3 0.461424 0.903488 0.416869
O O4 0.500000 0.000000 0.384374
O O5 0.309153 0.647825 0.111982
O O6 0.183511 0.670495 0.215600
O O7 0.296148 0.590644 0.240551
O O8 0.500000 0.666869 0.750000
O O9 0.540914 0.716133 0.627664
O O10 0.367612 0.735780 0.701506
O O11 0.391230 0.635636 0.642429
O O12 0.137068 0.211516 0.500000
O O13 0.250000 0.250000 0.395207
O O14 0.926831 0.035076 0.306819
O O15 0.500000 0.195211 0.250000
O O16 0.649590 0.168398 0.356244
O O17 0.262398 0.074268 0.878255
O O18 0.310758 0.132361 0.000000
#
# Coordination Sequence:
#
# PCOD9497297 Si02
#       8
#    16  16  16  16   4  16  16  16
#     4  10  22  40  62  89 132 171 202 255 320 382
#     4  11  21  39  62  96 125 168 211 265 314 387
#     4  11  21  42  59  89 128 171 212 261 314 385
#     4  11  23  36  60  96 127 163 210 262 319 381
#     4  12  24  48  62  94 120 164 220 290 326 362
#     4  10  20  36  62  90 124 168 204 245 315 378
#     4  10  23  42  62  96 132 166 209 260 319 389
#     4  11  25  41  69  90 124 167 221 271 320 377
#
# _framework density 20.855924999999999
#
# number of rings (size 3 to 8) (size 9 to 14) (size 15 to 20)
#    0.000    1.379    3.448    2.069    1.931    2.759 
#    0.000    3.793    0.000    0.000    0.000    0.000 
#    0.000    0.000    0.000    0.000    0.000    0.000 
#
# Total GULP energy -323559.908676 kJ/mol
# GULP energy per Si atom -5578.619115 kJ/mol
# Density = 2.080846 g / cm^3
# Si number density = 20.855925 Si / 1000 Ang^3
#
#
#
# Elastic Constant Matrix: (Units=GPa)
#
#
# Indices 1 2 3 4 5 6 
#
# 1 95.5702 32.9992 36.0640 0.0000 0.0000 0.0000
# 2 32.9992 71.5393 27.4687 0.0000 0.0000 0.0000
# 3 36.0640 27.4687 101.1692 0.0000 0.0000 0.0000
# 4 0.0000 0.0000 0.0000 12.8033 0.0000 0.0000
# 5 0.0000 0.0000 0.0000 0.0000 24.0734 0.0000
# 6 0.0000 0.0000 0.0000 0.0000 0.0000 29.4247
#
#
#
# Elastic Compliance Matrix: (Units=1/GPa)
#
#
# Indices 1 2 3 4 5 6 
#
# 1 0.013457 -0.004874 -0.003474 0.000000 0.000000 0.000000
# 2 -0.004874 0.017370 -0.002979 0.000000 0.000000 0.000000
# 3 -0.003474 -0.002979 0.011932 0.000000 0.000000 0.000000
# 4 0.000000 0.000000 0.000000 0.078105 0.000000 0.000000
# 5 0.000000 0.000000 0.000000 0.000000 0.041540 0.000000
# 6 0.000000 0.000000 0.000000 0.000000 0.000000 0.033985
#
#
# Mechanical properties :
#
#
# Convention : Reuss Voigt Hill
#
# Bulk Modulus (GPa) = 49.73594 51.26028 50.49811
# Shear Modulus (GPa) = 22.14906 24.71008 23.42957
#
# Velocity S-wave (km/s) = 3.26237 3.44583 3.35535
# Velocity P-wave (km/s) = 6.17171 6.36107 6.26710
#
# Compressibility (1/GPa) = 0.02010619
#
# Stress axis : x y z
#
# Youngs Moduli (GPa) = 74.30975 57.56990 83.81119
#
# Poissons Ratio (x) = 0.28057 0.29115
# Poissons Ratio (y) = 0.36216 0.24967
# Poissons Ratio (z) = 0.25814 0.17150
#
# Static dielectric constant tensor:
#      x y z
#    x 1.818390 0.000000 0.000000 
#    y 0.000000 1.796710 0.000000 
#    z 0.000000 0.000000 1.738080 
# 
# From -- ./inp_files/39132.got.cif
#   From: 2010.05.17/outbox.cif.g08.bks.cpg/sg66_20_cif.got.tgz:39132.got - 2010.06.03 17:51:23.
