data_PCOD9497326
_publ_section_title
;
Structure prediction by ZEFSAII (Michael W. Deem and Ramdas Pophale) SiO2 
 PCOD9497326
Probable space group: C C C M
;
_chemical_formula_sum "Si O2"
_cell_formula_units_Z 116
_cell_length_a 22.230802
_cell_length_b 8.775443
_cell_length_c 27.910345
_cell_angle_alpha 90.000000
_cell_angle_beta 90.000000
_cell_angle_gamma 90.000000
_cell_volume 5444.893444
_symmetry_space_group_name_H-M "C C C M"
_symmetry_group_IT_number 66
_symmetry_cell_setting 'orthorhombic'
loop_
_space_group_symop_operation_xyz
x,y,z
-x,-y,z
x,-y,1/2-z
-x,y,1/2-z
-x,-y,-z
x,y,-z
-x,y,1/2+z
x,-y,1/2+z
1/2+x,1/2+y,z
1/2-x,1/2-y,z
1/2+x,1/2-y,1/2-z
1/2-x,1/2+y,1/2-z
1/2-x,1/2-y,-z
1/2+x,1/2+y,-z
1/2-x,1/2+y,1/2+z
1/2+x,1/2-y,1/2+z
loop_
_atom_site_type_symbol
_atom_site_label
_atom_site_fract_x
_atom_site_fract_y
_atom_site_fract_z
Si Si1 0.955559 0.873132 0.145257
Si Si2 0.175955 0.666914 0.945535
Si Si3 0.718280 0.483388 0.100214
Si Si4 0.000000 0.500000 0.750000
Si Si5 0.883983 0.834283 0.944250
Si Si6 0.935271 0.681858 0.671052
Si Si7 0.647673 0.520378 0.306198
Si Si8 0.570456 0.999695 0.918723
O O1 0.930644 0.914413 0.092658
O O2 0.001342 0.733631 0.145885
O O3 0.897067 0.881715 0.178374
O O4 0.000000 0.000000 0.165404
O O5 0.213035 0.541402 0.914990
O O6 0.188508 0.829578 0.921888
O O7 0.105747 0.633322 0.945464
O O8 0.197385 0.658514 0.000000
O O9 0.682144 0.619461 0.074597
O O10 0.703317 0.485933 0.156698
O O11 0.042995 0.391083 0.719818
O O12 0.900291 0.658346 0.935259
O O13 0.890157 0.872968 0.000000
O O14 0.889226 0.822173 0.680452
O O15 0.914154 0.547016 0.636083
O O16 0.660999 0.500000 0.250000
O O17 0.500000 0.000000 0.929031
#
# Coordination Sequence:
#
# PCOD9497326 Si02
#       8
#    16  16  16   4  16  16  16  16
#     4   9  19  35  54  83 124 164 211 270 312 382
#     4  11  23  43  71  97 125 173 222 269 333 400
#     4  10  22  43  68  93 126 163 224 283 319 387
#     4  12  20  28  58  76 122 176 208 250 308 398
#     4  11  22  36  58  90 128 168 213 269 330 391
#     4  11  20  37  54  88 127 170 217 263 317 389
#     4  10  20  36  65  93 121 159 214 274 338 383
#     4  12  24  41  59  91 139 174 208 268 330 387
#
# _framework density 21.304366000000002
#
# number of rings (size 3 to 8) (size 9 to 14) (size 15 to 20)
#    0.000    1.379    3.448    2.897    0.000    4.966 
#    0.000    1.379    1.517    3.310    0.000    0.000 
#    0.000    0.000    0.000    0.000    0.000    0.000 
#
# Total GULP energy -323325.420848 kJ/mol
# GULP energy per Si atom -5574.576222 kJ/mol
# Density = 2.125588 g / cm^3
# Si number density = 21.304366 Si / 1000 Ang^3
#
#
#
# Elastic Constant Matrix: (Units=GPa)
#
#
# Indices 1 2 3 4 5 6 
#
# 1 79.0036 21.9627 37.4197 0.0000 0.0000 0.0000
# 2 21.9627 36.0760 -5.8609 0.0000 0.0000 0.0000
# 3 37.4197 -5.8609 165.7572 0.0000 0.0000 0.0000
# 4 0.0000 0.0000 0.0000 22.2085 0.0000 0.0000
# 5 0.0000 0.0000 0.0000 0.0000 63.9778 0.0000
# 6 0.0000 0.0000 0.0000 0.0000 0.0000 7.0252
#
#
#
# Elastic Compliance Matrix: (Units=1/GPa)
#
#
# Indices 1 2 3 4 5 6 
#
# 1 0.018038 -0.011710 -0.004486 0.000000 0.000000 0.000000
# 2 -0.011710 0.035481 0.003898 0.000000 0.000000 0.000000
# 3 -0.004486 0.003898 0.007183 0.000000 0.000000 0.000000
# 4 0.000000 0.000000 0.000000 0.045028 0.000000 0.000000
# 5 0.000000 0.000000 0.000000 0.000000 0.015630 0.000000
# 6 0.000000 0.000000 0.000000 0.000000 0.000000 0.142346
#
#
# Mechanical properties :
#
#
# Convention : Reuss Voigt Hill
#
# Bulk Modulus (GPa) = 27.69565 43.09776 35.39671
# Shear Modulus (GPa) = 16.64791 33.79665 25.22228
#
# Velocity S-wave (km/s) = 2.79844 3.98725 3.44452
# Velocity P-wave (km/s) = 4.84458 6.43980 5.69829
#
# Compressibility (1/GPa) = 0.03610675
#
# Stress axis : x y z
#
# Youngs Moduli (GPa) = 55.43916 28.18373 139.20825
#
# Poissons Ratio (x) = 0.33003 0.62450
# Poissons Ratio (y) = 0.64919 -0.54265
# Poissons Ratio (z) = 0.24870 -0.10986
#
# Static dielectric constant tensor:
#      x y z
#    x 1.810350 0.000000 0.000000 
#    y 0.000000 1.843320 0.000000 
#    z 0.000000 0.000000 1.798890 
# 
# From -- ./inp_files/66130.got.cif
#   From: 2010.05.17/outbox.cif.g08.bks.cpg/sg66_34_cif.got.tgz:66130.got - 2010.06.03 17:51:23.
