data_PCOD9497243
_publ_section_title
;
Structure prediction by ZEFSAII (Michael W. Deem and Ramdas Pophale) SiO2 
 PCOD9497243
Probable space group: C C C M
;
_chemical_formula_sum "Si O2"
_cell_formula_units_Z 116
_cell_length_a 32.056418
_cell_length_b 22.463721
_cell_length_c 8.692272
_cell_angle_alpha 90.000000
_cell_angle_beta 90.000000
_cell_angle_gamma 90.000000
_cell_volume 6259.360960
_symmetry_space_group_name_H-M "C C C M"
_symmetry_group_IT_number 66
_symmetry_cell_setting 'orthorhombic'
loop_
_space_group_symop_operation_xyz
x,y,z
-x,-y,z
x,-y,1/2-z
-x,y,1/2-z
-x,-y,-z
x,y,-z
-x,y,1/2+z
x,-y,1/2+z
1/2+x,1/2+y,z
1/2-x,1/2-y,z
1/2+x,1/2-y,1/2-z
1/2-x,1/2+y,1/2-z
1/2-x,1/2-y,-z
1/2+x,1/2+y,-z
1/2-x,1/2+y,1/2+z
1/2+x,1/2-y,1/2+z
loop_
_atom_site_type_symbol
_atom_site_label
_atom_site_fract_x
_atom_site_fract_y
_atom_site_fract_z
Si Si1 0.545680 0.065817 0.315394
Si Si2 0.657902 0.562708 0.814468
Si Si3 0.897299 0.669616 0.315067
Si Si4 0.803141 0.302141 0.816288
Si Si5 0.215975 0.826733 0.315871
Si Si6 0.432660 0.402120 0.823522
Si Si7 0.955473 0.228931 0.314404
Si Si8 0.000000 0.000000 0.250000
O O1 0.500000 0.082564 0.250000
O O2 0.544099 0.064353 0.500000
O O3 0.579126 0.113367 0.256912
O O4 0.554878 0.000000 0.250000
O O5 0.672711 0.500000 0.750000
O O6 0.687495 0.617461 0.772200
O O7 0.610773 0.575031 0.754198
O O8 0.657035 0.558583 0.000000
O O9 0.901720 0.668977 0.500000
O O10 0.848242 0.671439 0.277157
O O11 0.919456 0.728473 0.248226
O O12 0.800833 0.233661 0.761048
O O13 0.763728 0.333685 0.737375
O O14 0.797788 0.303937 0.000000
O O15 0.214541 0.819439 0.500000
O O16 0.448271 0.339248 0.757872
O O17 0.467693 0.453205 0.824876
O O18 0.422626 0.387814 0.000000
O O19 0.956561 0.231098 0.500000
O O20 0.000000 0.249494 0.250000
#
# Coordination Sequence:
#
# PCOD9497243 Si02
#       8
#    16  16  16  16  16  16  16   4
#     4  11  22  39  63  89 119 156 193 233 276 336
#     4  10  21  37  55  80 109 145 186 231 279 331
#     4  11  23  39  58  86 118 151 189 235 287 342
#     4  10  21  37  60  86 113 143 183 231 283 338
#     4  10  20  36  60  84 112 145 184 229 285 347
#     4  10  21  35  53  77 110 150 196 240 285 334
#     4  11  22  37  55  80 114 153 194 242 289 338
#     4  12  18  36  56  74 108 156 196 244 282 328
#
# _framework density 18.532242
#
# number of rings (size 3 to 8) (size 9 to 14) (size 15 to 20)
#    0.000    1.517    1.379    5.586    0.000    4.414 
#    0.000    2.069    0.000    1.655    0.000    0.000 
#    0.000    0.000    0.000    0.000    0.000    0.000 
#
# Total GULP energy -323804.994703 kJ/mol
# GULP energy per Si atom -5582.844736 kJ/mol
# Density = 1.849006 g / cm^3
# Si number density = 18.532242 Si / 1000 Ang^3
#
#
#
# Elastic Constant Matrix: (Units=GPa)
#
#
# Indices 1 2 3 4 5 6 
#
# 1 126.8183 68.2183 35.0359 0.0000 0.0000 0.0000
# 2 68.2183 92.3987 25.1809 0.0000 0.0000 0.0000
# 3 35.0359 25.1809 61.4964 0.0000 0.0000 0.0000
# 4 0.0000 0.0000 0.0000 19.5738 0.0000 0.0000
# 5 0.0000 0.0000 0.0000 0.0000 22.0896 0.0000
# 6 0.0000 0.0000 0.0000 0.0000 0.0000 20.6826
#
#
#
# Elastic Compliance Matrix: (Units=1/GPa)
#
#
# Indices 1 2 3 4 5 6 
#
# 1 0.013986 -0.009178 -0.004210 0.000000 0.000000 0.000000
# 2 -0.009178 0.018206 -0.002226 0.000000 0.000000 0.000000
# 3 -0.004210 -0.002226 0.019571 0.000000 0.000000 0.000000
# 4 0.000000 0.000000 0.000000 0.051089 0.000000 0.000000
# 5 0.000000 0.000000 0.000000 0.000000 0.045270 0.000000
# 6 0.000000 0.000000 0.000000 0.000000 0.000000 0.048350
#
#
# Mechanical properties :
#
#
# Convention : Reuss Voigt Hill
#
# Bulk Modulus (GPa) = 48.69767 59.73149 54.21458
# Shear Modulus (GPa) = 21.31812 22.62109 21.96961
#
# Velocity S-wave (km/s) = 3.39533 3.49755 3.44682
# Velocity P-wave (km/s) = 6.45796 6.97220 6.72000
#
# Compressibility (1/GPa) = 0.02053486
#
# Stress axis : x y z
#
# Youngs Moduli (GPa) = 71.50261 54.92831 51.09674
#
# Poissons Ratio (x) = 0.50415 0.21510
# Poissons Ratio (y) = 0.65627 0.11372
# Poissons Ratio (z) = 0.30100 0.12224
#
# Static dielectric constant tensor:
#      x y z
#    x 1.640020 0.000000 0.000000 
#    y 0.000000 1.627860 0.000000 
#    z 0.000000 0.000000 1.636460 
# 
# From -- ./inp_files/10630.got.cif
#   From: 2010.05.17/outbox.cif.g08.bks.cpg/sg66_6_cif.got.tgz:10630.got - 2010.06.03 17:51:23.
