data_PCOD9497356
_publ_section_title
;
Structure prediction by ZEFSAII (Michael W. Deem and Ramdas Pophale) SiO2 
 PCOD9497356
Probable space group: C C C M
;
_chemical_formula_sum "Si O2"
_cell_formula_units_Z 80
_cell_length_a 18.680702
_cell_length_b 8.710025
_cell_length_c 26.457161
_cell_angle_alpha 90.000000
_cell_angle_beta 90.000000
_cell_angle_gamma 90.000000
_cell_volume 4304.828301
_symmetry_space_group_name_H-M "C C C M"
_symmetry_group_IT_number 66
_symmetry_cell_setting 'orthorhombic'
loop_
_space_group_symop_operation_xyz
x,y,z
-x,-y,z
x,-y,1/2-z
-x,y,1/2-z
-x,-y,-z
x,y,-z
-x,y,1/2+z
x,-y,1/2+z
1/2+x,1/2+y,z
1/2-x,1/2-y,z
1/2+x,1/2-y,1/2-z
1/2-x,1/2+y,1/2-z
1/2-x,1/2-y,-z
1/2+x,1/2+y,-z
1/2-x,1/2+y,1/2+z
1/2+x,1/2-y,1/2+z
loop_
_atom_site_type_symbol
_atom_site_label
_atom_site_fract_x
_atom_site_fract_y
_atom_site_fract_z
Si Si1 0.076640 0.589210 0.057596
Si Si2 0.828767 0.186444 0.248966
Si Si3 0.925920 0.203216 0.155278
Si Si4 0.589175 0.336235 0.652539
Si Si5 0.832786 0.709768 0.057484
O O1 0.088147 0.709444 0.102719
O O2 0.142054 0.467492 0.059390
O O3 0.000000 0.500000 0.064843
O O4 0.073888 0.652994 0.000000
O O5 0.750000 0.250000 0.241817
O O6 0.878458 0.248438 0.203572
O O7 0.859318 0.227450 0.303965
O O8 0.828907 0.000000 0.250000
O O9 0.010106 0.222926 0.165032
O O10 0.913187 0.020660 0.151483
O O11 0.616464 0.287588 0.598088
O O12 0.750000 0.750000 0.068910
O O13 0.846254 0.762296 0.000000
#
# Coordination Sequence:
#
# PCOD9497356 Si02
#       5
#    16  16  16  16  16
#     4  10  20  37  58  84 118 150 188 242 295 344
#     4  10  22  39  57  81 115 152 190 237 292 345
#     4  10  21  36  59  86 112 149 193 239 287 349
#     4  10  20  37  59  83 115 152 191 237 291 346
#     4  10  21  37  58  84 117 154 191 235 291 351
#
# _framework density 18.583784999999999
#
# number of rings (size 3 to 8) (size 9 to 14) (size 15 to 20)
#    0.000    2.000    2.000    1.200    0.000    8.000 
#    0.000    2.000    0.000    4.200    0.000    0.000 
#    0.000    0.000    0.000    0.000    0.000    0.000 
#
# Total GULP energy -222998.493154 kJ/mol
# GULP energy per Si atom -5574.962329 kJ/mol
# Density = 1.854149 g / cm^3
# Si number density = 18.583785 Si / 1000 Ang^3
#
#
#
# Elastic Constant Matrix: (Units=GPa)
#
#
# Indices 1 2 3 4 5 6 
#
# 1 128.5607 33.2644 71.0386 0.0000 0.0000 0.0000
# 2 33.2644 13.8483 33.4264 0.0000 0.0000 0.0000
# 3 71.0386 33.4264 113.9742 0.0000 0.0000 0.0000
# 4 0.0000 0.0000 0.0000 -13.3525 0.0000 0.0000
# 5 0.0000 0.0000 0.0000 0.0000 -32.4126 0.0000
# 6 0.0000 0.0000 0.0000 0.0000 0.0000 27.7543
#
#
#
# Elastic Compliance Matrix: (Units=1/GPa)
#
#
# Indices 1 2 3 4 5 6 
#
# 1 0.021699 -0.066679 0.006031 0.000000 0.000000 0.000000
# 2 -0.066679 0.452120 -0.091038 0.000000 0.000000 0.000000
# 3 0.006031 -0.091038 0.031715 0.000000 0.000000 0.000000
# 4 0.000000 0.000000 0.000000 -0.074892 0.000000 0.000000
# 5 0.000000 0.000000 0.000000 0.000000 -0.030852 0.000000
# 6 0.000000 0.000000 0.000000 0.000000 0.000000 0.036030
#
#
# Mechanical properties :
#
#
# Convention : Reuss Voigt Hill
#
# Bulk Modulus (GPa) = 4.94653 59.09357 32.02005
# Shear Modulus (GPa) = 6.19903 4.30810 5.25357
#
# Velocity S-wave (km/s) = 1.82838 1.52422 1.68318
# Velocity P-wave (km/s) = 2.66923 5.91313 4.58748
#
# Compressibility (1/GPa) = 0.20216181
#
# Stress axis : x y z
#
# Youngs Moduli (GPa) = 46.08610 2.21180 31.53130
#
# Poissons Ratio (x) = 0.14748 -0.19017
# Poissons Ratio (y) = 3.07296 2.87055
# Poissons Ratio (z) = -0.27795 0.20136
#
# Static dielectric constant tensor:
#      x y z
#    x 1.634640 0.000000 0.000000 
#    y 0.000000 1.650120 0.000000 
#    z 0.000000 0.000000 1.633640 
# 
# From -- ./inp_files/65041.got.cif
#   From: 2010.05.17/outbox.cif.g08.bks.cpg/sg66_33_cif.got.tgz:65041.got - 2010.06.03 17:51:23.
