data_PCOD9497497
_publ_section_title
;
Structure prediction by ZEFSAII (Michael W. Deem and Ramdas Pophale) SiO2 
 PCOD9497497
Probable space group: C C C M
;
_chemical_formula_sum "Si O2"
_cell_formula_units_Z 88
_cell_length_a 11.495995
_cell_length_b 23.594385
_cell_length_c 17.686310
_cell_angle_alpha 90.000000
_cell_angle_beta 90.000000
_cell_angle_gamma 90.000000
_cell_volume 4797.251208
_symmetry_space_group_name_H-M "C C C M"
_symmetry_group_IT_number 66
_symmetry_cell_setting 'orthorhombic'
loop_
_space_group_symop_operation_xyz
x,y,z
-x,-y,z
x,-y,1/2-z
-x,y,1/2-z
-x,-y,-z
x,y,-z
-x,y,1/2+z
x,-y,1/2+z
1/2+x,1/2+y,z
1/2-x,1/2-y,z
1/2+x,1/2-y,1/2-z
1/2-x,1/2+y,1/2-z
1/2-x,1/2-y,-z
1/2+x,1/2+y,-z
1/2-x,1/2+y,1/2+z
1/2+x,1/2-y,1/2+z
loop_
_atom_site_type_symbol
_atom_site_label
_atom_site_fract_x
_atom_site_fract_y
_atom_site_fract_z
Si Si1 0.283304 0.350156 0.500000
Si Si2 0.147657 0.846890 0.655600
Si Si3 0.750000 0.250000 0.752166
Si Si4 0.078466 0.221188 0.624327
Si Si5 0.261759 0.181142 0.000000
Si Si6 0.865682 0.979068 0.831119
Si Si7 0.636566 0.518891 0.500000
Si Si8 0.521993 0.188740 0.000000
O O1 0.332048 0.315110 0.572473
O O2 0.337184 0.413338 0.500000
O O3 0.142440 0.346661 0.500000
O O4 0.231181 0.806291 0.703894
O O5 0.195315 0.842154 0.571607
O O6 0.140609 0.911725 0.676891
O O7 0.019713 0.820116 0.655275
O O8 0.859286 0.252017 0.807211
O O9 0.024505 0.268989 0.571232
O O10 0.250000 0.250000 0.000000
O O11 0.395540 0.161135 0.000000
O O12 0.813943 0.000000 0.750000
O O13 0.000000 0.000000 0.831903
O O14 0.819802 0.996893 0.916115
O O15 0.500000 0.500000 0.500000
#
# Coordination Sequence:
#
# PCOD9497497 Si02
#       8
#     8  16   8  16   8  16   8   8
#     4  11  21  35  63  88 123 167 204 275 318 382
#     4  12  24  39  63  89 129 168 212 268 312 398
#     4  12  24  32  54  94 130 172 196 250 340 378
#     4  11  20  36  56  88 128 165 208 252 319 387
#     4  12  21  42  60  88 120 168 217 258 323 388
#     4  10  23  38  60  94 123 165 213 268 326 371
#     4  10  20  38  58  89 119 157 211 262 327 376
#     4  11  20  37  58  88 126 161 210 254 322 395
#
# _framework density 18.343838000000002
#
# number of rings (size 3 to 8) (size 9 to 14) (size 15 to 20)
#    0.000    0.909    4.545    4.364    7.636    0.000 
#    0.000    0.000    0.000    2.182    0.000    1.273 
#    0.000    0.000    0.000    0.000    0.000    0.000 
#
# Total GULP energy -245402.758317 kJ/mol
# GULP energy per Si atom -5577.335416 kJ/mol
# Density = 1.830209 g / cm^3
# Si number density = 18.343838 Si / 1000 Ang^3
#
#
#
# Elastic Constant Matrix: (Units=GPa)
#
#
# Indices 1 2 3 4 5 6 
#
# 1 69.6117 23.4297 18.2465 0.0000 0.0000 0.0000
# 2 23.4297 123.6311 43.6659 0.0000 0.0000 0.0000
# 3 18.2465 43.6659 145.0058 0.0000 0.0000 0.0000
# 4 0.0000 0.0000 0.0000 42.2516 0.0000 0.0000
# 5 0.0000 0.0000 0.0000 0.0000-1492.2754 0.0000
# 6 0.0000 0.0000 0.0000 0.0000 0.0000 25.9785
#
#
#
# Elastic Compliance Matrix: (Units=1/GPa)
#
#
# Indices 1 2 3 4 5 6 
#
# 1 0.015527 -0.002521 -0.001195 0.000000 0.000000 0.000000
# 2 -0.002521 0.009460 -0.002532 0.000000 0.000000 0.000000
# 3 -0.001195 -0.002532 0.007809 0.000000 0.000000 0.000000
# 4 0.000000 0.000000 0.000000 0.023668 0.000000 0.000000
# 5 0.000000 0.000000 0.000000 0.000000 -0.000670 0.000000
# 6 0.000000 0.000000 0.000000 0.000000 0.000000 0.038493
#
#
# Mechanical properties :
#
#
# Convention : Reuss Voigt Hill
#
# Bulk Modulus (GPa) = 49.25541 56.54808 52.90174
# Shear Modulus (GPa) = 44.03393 -267.94863 -111.95735
#
# Velocity S-wave (km/s) = 4.90478 -12.09906 -7.82082
# Velocity P-wave (km/s) = 7.68019 12.81754 7.25617
#
# Compressibility (1/GPa) = 0.02030234
#
# Stress axis : x y z
#
# Youngs Moduli (GPa) = 64.40417 105.70346 128.05765
#
# Poissons Ratio (x) = 0.26643 0.15300
# Poissons Ratio (y) = 0.16234 0.32420
# Poissons Ratio (z) = 0.07695 0.26761
#
# Static dielectric constant tensor:
#      x y z
#    x 1.618800 0.000000 0.000000 
#    y 0.000000 1.696660 0.000000 
#    z 0.000000 0.000000 1.780400 
# 
# From -- ./inp_files/38723.got.cif
#   From: 2010.05.17/outbox.cif.g08.bks.cpg/sg66_20_cif.got.tgz:38723.got - 2010.06.03 17:51:23.
