data_PCOD9497492
_publ_section_title
;
Structure prediction by ZEFSAII (Michael W. Deem and Ramdas Pophale) SiO2 
 PCOD9497492
Probable space group: C C C M
;
_chemical_formula_sum "Si O2"
_cell_formula_units_Z 88
_cell_length_a 32.639309
_cell_length_b 15.658204
_cell_length_c 7.669347
_cell_angle_alpha 90.000000
_cell_angle_beta 90.000000
_cell_angle_gamma 90.000000
_cell_volume 3919.595863
_symmetry_space_group_name_H-M "C C C M"
_symmetry_group_IT_number 66
_symmetry_cell_setting 'orthorhombic'
loop_
_space_group_symop_operation_xyz
x,y,z
-x,-y,z
x,-y,1/2-z
-x,y,1/2-z
-x,-y,-z
x,y,-z
-x,y,1/2+z
x,-y,1/2+z
1/2+x,1/2+y,z
1/2-x,1/2-y,z
1/2+x,1/2-y,1/2-z
1/2-x,1/2+y,1/2-z
1/2-x,1/2-y,-z
1/2+x,1/2+y,-z
1/2-x,1/2+y,1/2+z
1/2+x,1/2-y,1/2+z
loop_
_atom_site_type_symbol
_atom_site_label
_atom_site_fract_x
_atom_site_fract_y
_atom_site_fract_z
Si Si1 0.169842 0.184331 0.211651
Si Si2 0.900316 0.373757 0.500000
Si Si3 0.750764 0.594164 0.792363
Si Si4 0.343220 0.876623 0.189708
Si Si5 0.088116 0.096546 0.207219
Si Si6 0.952393 0.272137 0.200280
O O1 0.215528 0.159339 0.265636
O O2 0.155879 0.273634 0.289177
O O3 0.135676 0.114180 0.256686
O O4 0.169619 0.195138 0.000000
O O5 0.869439 0.410833 0.347949
O O6 0.927730 0.326374 0.344422
O O7 0.734629 0.500000 0.750000
O O8 0.795149 0.602194 0.708509
O O9 0.755859 0.605074 0.000000
O O10 0.358151 0.900578 0.000000
O O11 0.062252 0.173408 0.288945
O O12 0.076034 0.000000 0.250000
O O13 0.085142 0.108029 0.000000
O O14 0.000000 0.276898 0.250000
O O15 0.946424 0.301663 0.000000
#
# Coordination Sequence:
#
# PCOD9497492 Si02
#       6
#    16   8  16  16  16  16
#     4  10  20  38  58  83 122 167 213 267 302 349
#     4  12  22  44  63  93 124 155 205 256 306 363
#     4  11  23  39  58  87 128 167 211 259 305 362
#     4  12  23  39  65  89 121 166 208 254 307 361
#     4  11  21  36  54  83 120 165 215 260 305 357
#     4  12  23  41  64  89 123 161 196 254 310 365
#
# _framework density 22.451294999999998
#
# number of rings (size 3 to 8) (size 9 to 14) (size 15 to 20)
#    0.000    0.727    5.455    2.727    0.000    4.727 
#    0.000    1.818    0.000    0.000    0.000    0.000 
#    0.000    2.182    0.000    0.000    0.000    0.000 
#
# Total GULP energy -245196.552833 kJ/mol
# GULP energy per Si atom -5572.648928 kJ/mol
# Density = 2.240020 g / cm^3
# Si number density = 22.451295 Si / 1000 Ang^3
#
#
#
# Elastic Constant Matrix: (Units=GPa)
#
#
# Indices 1 2 3 4 5 6 
#
# 1 112.2258 24.1437 63.5142 0.0000 0.0000 0.0000
# 2 24.1437 42.8971 16.1905 0.0000 0.0000 0.0000
# 3 63.5142 16.1905 182.3826 0.0000 0.0000 0.0000
# 4 0.0000 0.0000 0.0000 11.5882 0.0000 0.0000
# 5 0.0000 0.0000 0.0000 0.0000 104.5129 0.0000
# 6 0.0000 0.0000 0.0000 0.0000 0.0000 14.0551
#
#
#
# Elastic Compliance Matrix: (Units=1/GPa)
#
#
# Indices 1 2 3 4 5 6 
#
# 1 0.012218 -0.005453 -0.003771 0.000000 0.000000 0.000000
# 2 -0.005453 0.026554 -0.000458 0.000000 0.000000 0.000000
# 3 -0.003771 -0.000458 0.006837 0.000000 0.000000 0.000000
# 4 0.000000 0.000000 0.000000 0.086295 0.000000 0.000000
# 5 0.000000 0.000000 0.000000 0.000000 0.009568 0.000000
# 6 0.000000 0.000000 0.000000 0.000000 0.000000 0.071149
#
#
# Mechanical properties :
#
#
# Convention : Reuss Voigt Hill
#
# Bulk Modulus (GPa) = 38.10389 60.57802 49.34096
# Shear Modulus (GPa) = 20.76992 41.60838 31.18915
#
# Velocity S-wave (km/s) = 3.04486 4.30964 3.73123
# Velocity P-wave (km/s) = 5.41943 7.19753 6.37082
#
# Compressibility (1/GPa) = 0.02624404
#
# Stress axis : x y z
#
# Youngs Moduli (GPa) = 81.84737 37.65932 146.26748
#
# Poissons Ratio (x) = 0.20537 0.55153
# Poissons Ratio (y) = 0.44635 0.06701
# Poissons Ratio (z) = 0.30862 0.01725
#
# Static dielectric constant tensor:
#      x y z
#    x 1.822350 0.000000 0.000000 
#    y 0.000000 1.840000 0.000000 
#    z 0.000000 0.000000 1.936110 
# 
# From -- ./inp_files/11437.got.cif
#   From: 2010.05.17/outbox.cif.g08.bks.cpg/sg66_6_cif.got.tgz:11437.got - 2010.06.03 17:51:23.
