data_PCOD9497187
_publ_section_title
;
Structure prediction by ZEFSAII (Michael W. Deem and Ramdas Pophale) SiO2 
 PCOD9497187
Probable space group: C C C M
;
_chemical_formula_sum "Si O2"
_cell_formula_units_Z 68
_cell_length_a 14.763134
_cell_length_b 13.694873
_cell_length_c 13.389700
_cell_angle_alpha 90.000000
_cell_angle_beta 90.000000
_cell_angle_gamma 90.000000
_cell_volume 2707.119440
_symmetry_space_group_name_H-M "C C C M"
_symmetry_group_IT_number 66
_symmetry_cell_setting 'orthorhombic'
loop_
_space_group_symop_operation_xyz
x,y,z
-x,-y,z
x,-y,1/2-z
-x,y,1/2-z
-x,-y,-z
x,y,-z
-x,y,1/2+z
x,-y,1/2+z
1/2+x,1/2+y,z
1/2-x,1/2-y,z
1/2+x,1/2-y,1/2-z
1/2-x,1/2+y,1/2-z
1/2-x,1/2-y,-z
1/2+x,1/2+y,-z
1/2-x,1/2+y,1/2+z
1/2+x,1/2-y,1/2+z
loop_
_atom_site_type_symbol
_atom_site_label
_atom_site_fract_x
_atom_site_fract_y
_atom_site_fract_z
Si Si1 0.500000 0.500000 0.250000
Si Si2 0.164836 0.810882 0.620271
Si Si3 0.155997 0.042498 0.617930
Si Si4 0.644170 0.946298 0.378642
Si Si5 0.041782 0.355071 0.121646
O O1 0.434633 0.435882 0.321176
O O2 0.167850 0.802245 0.500000
O O3 0.250000 0.750000 0.659659
O O4 0.165744 0.925804 0.635187
O O5 0.078239 0.749348 0.652924
O O6 0.143357 0.062162 0.500000
O O7 0.254087 0.082098 0.651772
O O8 0.648167 0.945009 0.500000
O O9 0.611391 0.056447 0.352469
O O10 0.560091 0.879734 0.346358
O O11 0.039079 0.357861 0.000000
#
# Coordination Sequence:
#
# PCOD9497187 Si02
#       5
#     4  16  16  16  16
#     4  12  26  40  56  72 104 138 190 240 284 336
#     4   9  14  24  49  84 113 141 179 222 268 329
#     4  10  20  36  58  79 104 144 190 231 280 337
#     4   8  13  23  45  77 109 140 175 217 271 330
#     4   8  12  20  42  80 114 138 172 219 269 323
#
# _framework density 25.118950999999999
#
# number of rings (size 3 to 8) (size 9 to 14) (size 15 to 20)
#    0.000    3.059    2.353    1.765    0.000    0.000 
#    0.000    0.000    5.176    2.824    0.000    8.235 
#    0.000    0.000    0.000    0.000    0.000    0.000 
#
# Total GULP energy -190060.146094 kJ/mol
# GULP energy per Si atom -5590.004297 kJ/mol
# Density = 2.506178 g / cm^3
# Si number density = 25.118951 Si / 1000 Ang^3
#
#
#
# Elastic Constant Matrix: (Units=GPa)
#
#
# Indices 1 2 3 4 5 6 
#
# 1 213.4891 26.5981 44.1066 0.0000 0.0000 0.0000
# 2 26.5981 58.7152 -8.5372 0.0000 0.0000 0.0000
# 3 44.1066 -8.5372 102.0596 0.0000 0.0000 0.0000
# 4 0.0000 0.0000 0.0000 17.3099 0.0000 0.0000
# 5 0.0000 0.0000 0.0000 0.0000 24.1454 0.0000
# 6 0.0000 0.0000 0.0000 0.0000 0.0000 26.5896
#
#
#
# Elastic Compliance Matrix: (Units=1/GPa)
#
#
# Indices 1 2 3 4 5 6 
#
# 1 0.005599 -0.002924 -0.002664 0.000000 0.000000 0.000000
# 2 -0.002924 0.018768 0.002833 0.000000 0.000000 0.000000
# 3 -0.002664 0.002833 0.011187 0.000000 0.000000 0.000000
# 4 0.000000 0.000000 0.000000 0.057770 0.000000 0.000000
# 5 0.000000 0.000000 0.000000 0.000000 0.041416 0.000000
# 6 0.000000 0.000000 0.000000 0.000000 0.000000 0.037609
#
#
# Mechanical properties :
#
#
# Convention : Reuss Voigt Hill
#
# Bulk Modulus (GPa) = 33.28419 55.39991 44.34205
# Shear Modulus (GPa) = 26.61397 34.41541 30.51469
#
# Velocity S-wave (km/s) = 3.25855 3.70550 3.48919
# Velocity P-wave (km/s) = 5.23803 6.35693 5.82441
#
# Compressibility (1/GPa) = 0.03004429
#
# Stress axis : x y z
#
# Youngs Moduli (GPa) = 178.61190 53.28294 89.39308
#
# Poissons Ratio (x) = 0.15578 0.23815
# Poissons Ratio (y) = 0.52219 -0.25328
# Poissons Ratio (z) = 0.47585 -0.15097
#
# Static dielectric constant tensor:
#      x y z
#    x 2.010210 0.000000 0.000000 
#    y 0.000000 1.920150 0.000000 
#    z 0.000000 0.000000 2.079580 
# 
# From -- ./inp_files/40124.got.cif
#   From: 2010.05.17/outbox.cif.g08.bks.cpg/sg66_21_cif.got.tgz:40124.got - 2010.06.03 17:51:23.
