data_PCOD9497186
_publ_section_title
;
Structure prediction by ZEFSAII (Michael W. Deem and Ramdas Pophale) SiO2 
 PCOD9497186
Probable space group: C C C M
;
_chemical_formula_sum "Si O2"
_cell_formula_units_Z 88
_cell_length_a 16.153163
_cell_length_b 11.959797
_cell_length_c 18.682918
_cell_angle_alpha 90.000000
_cell_angle_beta 90.000000
_cell_angle_gamma 90.000000
_cell_volume 3609.325845
_symmetry_space_group_name_H-M "C C C M"
_symmetry_group_IT_number 66
_symmetry_cell_setting 'orthorhombic'
loop_
_space_group_symop_operation_xyz
x,y,z
-x,-y,z
x,-y,1/2-z
-x,y,1/2-z
-x,-y,-z
x,y,-z
-x,y,1/2+z
x,-y,1/2+z
1/2+x,1/2+y,z
1/2-x,1/2-y,z
1/2+x,1/2-y,1/2-z
1/2-x,1/2+y,1/2-z
1/2-x,1/2-y,-z
1/2+x,1/2+y,-z
1/2-x,1/2+y,1/2+z
1/2+x,1/2-y,1/2+z
loop_
_atom_site_type_symbol
_atom_site_label
_atom_site_fract_x
_atom_site_fract_y
_atom_site_fract_z
Si Si1 0.680966 0.987172 0.920576
Si Si2 0.846851 0.089444 0.915015
Si Si3 0.153048 0.238082 0.916852
Si Si4 0.250000 0.750000 0.194935
Si Si5 0.000837 0.834626 0.169727
Si Si6 0.397202 0.114396 0.707098
O O1 0.633207 0.870907 0.916090
O O2 0.781447 0.985823 0.909452
O O3 0.640359 0.070006 0.866114
O O4 0.671532 0.032873 0.000000
O O5 0.802733 0.174416 0.859593
O O6 0.938524 0.095544 0.882150
O O7 0.850180 0.118333 0.000000
O O8 0.250000 0.250000 0.899689
O O9 0.088827 0.176991 0.865653
O O10 0.144289 0.200386 0.000000
O O11 0.317608 0.819533 0.240462
O O12 0.035928 0.707370 0.183958
O O13 0.000000 0.881197 0.250000
O O14 0.416125 0.000000 0.750000
#
# Coordination Sequence:
#
# PCOD9497186 Si02
#       6
#    16  16  16   8  16  16
#     4   9  19  37  60  90 120 153 203 255 304 366
#     4   9  17  34  60  86 117 156 202 252 305 361
#     4  10  22  42  64  87 119 166 216 259 311 373
#     4   8  17  32  56  88 123 158 200 244 301 358
#     4  11  23  38  57  89 128 160 205 251 315 372
#     4  10  20  36  57  90 129 163 201 247 307 370
#
# _framework density 24.381284000000001
#
# number of rings (size 3 to 8) (size 9 to 14) (size 15 to 20)
#    0.000    2.364    0.000    1.909    0.000    7.636 
#   21.273    2.727    0.000    5.455    0.000    0.000 
#    0.000    0.000    0.000    0.000    0.000    0.000 
#
# Total GULP energy -245490.284928 kJ/mol
# GULP energy per Si atom -5579.324657 kJ/mol
# Density = 2.432579 g / cm^3
# Si number density = 24.381284 Si / 1000 Ang^3
#
#
#
# Elastic Constant Matrix: (Units=GPa)
#
#
# Indices 1 2 3 4 5 6 
#
# 1 148.2931 35.6522 75.7964 0.0000 0.0000 0.0000
# 2 35.6522 90.5137 28.3578 0.0000 0.0000 0.0000
# 3 75.7964 28.3578 131.9304 0.0000 0.0000 0.0000
# 4 0.0000 0.0000 0.0000 21.9753 0.0000 0.0000
# 5 0.0000 0.0000 0.0000 0.0000 47.5824 0.0000
# 6 0.0000 0.0000 0.0000 0.0000 0.0000 40.6604
#
#
#
# Elastic Compliance Matrix: (Units=1/GPa)
#
#
# Indices 1 2 3 4 5 6 
#
# 1 0.009969 -0.002286 -0.005236 0.000000 0.000000 0.000000
# 2 -0.002286 0.012370 -0.001345 0.000000 0.000000 0.000000
# 3 -0.005236 -0.001345 0.010877 0.000000 0.000000 0.000000
# 4 0.000000 0.000000 0.000000 0.045506 0.000000 0.000000
# 5 0.000000 0.000000 0.000000 0.000000 0.021016 0.000000
# 6 0.000000 0.000000 0.000000 0.000000 0.000000 0.024594
#
#
# Mechanical properties :
#
#
# Convention : Reuss Voigt Hill
#
# Bulk Modulus (GPa) = 64.59529 72.26112 68.42821
# Shear Modulus (GPa) = 33.96080 37.43901 35.69990
#
# Velocity S-wave (km/s) = 3.73621 3.92288 3.83068
# Velocity P-wave (km/s) = 6.72039 7.08667 6.90596
#
# Compressibility (1/GPa) = 0.01548100
#
# Stress axis : x y z
#
# Youngs Moduli (GPa) = 100.30672 80.83997 91.93538
#
# Poissons Ratio (x) = 0.18483 0.48139
# Poissons Ratio (y) = 0.22934 0.12368
# Poissons Ratio (z) = 0.52522 0.10876
#
# Static dielectric constant tensor:
#      x y z
#    x 2.045810 0.000000 0.000000 
#    y 0.000000 2.059910 0.000000 
#    z 0.000000 0.000000 1.890690 
# 
# From -- ./inp_files/41576.got.cif
#   From: 2010.05.17/outbox.cif.g08.bks.cpg/sg66_21_cif.got.tgz:41576.got - 2010.06.03 17:51:23.
