data_PCOD9497587
_publ_section_title
;
Structure prediction by ZEFSAII (Michael W. Deem and Ramdas Pophale) SiO2 
 PCOD9497587
Probable space group: C C C M
;
_chemical_formula_sum "Si O2"
_cell_formula_units_Z 56
_cell_length_a 17.721124
_cell_length_b 11.448344
_cell_length_c 13.866173
_cell_angle_alpha 90.000000
_cell_angle_beta 90.000000
_cell_angle_gamma 90.000000
_cell_volume 2813.134840
_symmetry_space_group_name_H-M "C C C M"
_symmetry_group_IT_number 66
_symmetry_cell_setting 'orthorhombic'
loop_
_space_group_symop_operation_xyz
x,y,z
-x,-y,z
x,-y,1/2-z
-x,y,1/2-z
-x,-y,-z
x,y,-z
-x,y,1/2+z
x,-y,1/2+z
1/2+x,1/2+y,z
1/2-x,1/2-y,z
1/2+x,1/2-y,1/2-z
1/2-x,1/2+y,1/2-z
1/2-x,1/2-y,-z
1/2+x,1/2+y,-z
1/2-x,1/2+y,1/2+z
1/2+x,1/2-y,1/2+z
loop_
_atom_site_type_symbol
_atom_site_label
_atom_site_fract_x
_atom_site_fract_y
_atom_site_fract_z
Si Si1 0.589774 0.292506 0.756101
Si Si2 0.433623 0.078823 0.607433
Si Si3 0.197215 0.000000 0.750000
Si Si4 0.182475 0.372153 0.111533
O O1 0.500000 0.323603 0.750000
O O2 0.589421 0.189461 0.833143
O O3 0.640011 0.401582 0.790773
O O4 0.631310 0.228988 0.663492
O O5 0.457908 0.114552 0.500000
O O6 0.500000 0.000000 0.649359
O O7 0.366334 0.988779 0.604501
O O8 0.248916 0.079289 0.821788
O O9 0.200487 0.341969 0.000000
#
# Coordination Sequence:
#
# PCOD9497587 Si02
#       4
#    16  16   8  16
#     4  12  24  42  67  95 133 171 213 264 319 385
#     4  10  20  38  68  99 123 161 217 270 315 370
#     4  12  27  42  61  98 136 174 210 258 327 384
#     4  11  24  43  68  95 127 170 219 268 320 379
#
# _framework density 19.906617000000001
#
# number of rings (size 3 to 8) (size 9 to 14) (size 15 to 20)
#    0.000    0.857    5.714    1.286    0.000    3.429 
#    0.000    2.857    0.000    5.143    0.000    0.000 
#    0.000    0.000    0.000    0.000    0.000    0.000 
#
# Total GULP energy -155881.806361 kJ/mol
# GULP energy per Si atom -5567.207370 kJ/mol
# Density = 1.986131 g / cm^3
# Si number density = 19.906617 Si / 1000 Ang^3
#
#
#
# Elastic Constant Matrix: (Units=GPa)
#
#
# Indices 1 2 3 4 5 6 
#
# 1 140.0736 55.2454 47.4934 0.0000 0.0000 0.0000
# 2 55.2454 68.1267 22.2380 0.0000 0.0000 0.0000
# 3 47.4934 22.2380 115.7871 0.0000 0.0000 0.0000
# 4 0.0000 0.0000 0.0000 -15.6257 0.0000 0.0000
# 5 0.0000 0.0000 0.0000 0.0000 4.0324 0.0000
# 6 0.0000 0.0000 0.0000 0.0000 0.0000 -5.7534
#
#
#
# Elastic Compliance Matrix: (Units=1/GPa)
#
#
# Indices 1 2 3 4 5 6 
#
# 1 0.011458 -0.008276 -0.003110 0.000000 0.000000 0.000000
# 2 -0.008276 0.021638 -0.000761 0.000000 0.000000 0.000000
# 3 -0.003110 -0.000761 0.010058 0.000000 0.000000 0.000000
# 4 0.000000 0.000000 0.000000 -0.063997 0.000000 0.000000
# 5 0.000000 0.000000 0.000000 0.000000 0.247989 0.000000
# 6 0.000000 0.000000 0.000000 0.000000 0.000000 -0.173809
#
#
# Mechanical properties :
#
#
# Convention : Reuss Voigt Hill
#
# Bulk Modulus (GPa) = 53.02357 63.77124 58.39740
# Shear Modulus (GPa) = 59.58135 9.79802 34.68969
#
# Velocity S-wave (km/s) = 5.47681 2.22096 4.17900
# Velocity P-wave (km/s) = 8.16626 6.21946 7.25843
#
# Compressibility (1/GPa) = 0.01885954
#
# Stress axis : x y z
#
# Youngs Moduli (GPa) = 87.27688 46.21437 99.41863
#
# Poissons Ratio (x) = 0.38248 0.30921
# Poissons Ratio (y) = 0.72231 0.07567
# Poissons Ratio (z) = 0.27145 0.03518
#
# Static dielectric constant tensor:
#      x y z
#    x 3.258180 0.000000 0.000000 
#    y 0.000000 1.654150 0.000000 
#    z 0.000000 0.000000 1.770490 
# 
# From -- ./inp_files/25630.got.cif
#   From: 2010.05.17/outbox.cif.g08.bks.cpg/sg66_13_cif.got.tgz:25630.got - 2010.06.03 17:51:23.
