data_PCOD9497360
_publ_section_title
;
Structure prediction by ZEFSAII (Michael W. Deem and Ramdas Pophale) SiO2 
 PCOD9497360
Probable space group: C C C M
;
_chemical_formula_sum "Si O2"
_cell_formula_units_Z 116
_cell_length_a 7.232494
_cell_length_b 35.938027
_cell_length_c 21.645483
_cell_angle_alpha 90.000000
_cell_angle_beta 90.000000
_cell_angle_gamma 90.000000
_cell_volume 5626.127809
_symmetry_space_group_name_H-M "C C C M"
_symmetry_group_IT_number 66
_symmetry_cell_setting 'orthorhombic'
loop_
_space_group_symop_operation_xyz
x,y,z
-x,-y,z
x,-y,1/2-z
-x,y,1/2-z
-x,-y,-z
x,y,-z
-x,y,1/2+z
x,-y,1/2+z
1/2+x,1/2+y,z
1/2-x,1/2-y,z
1/2+x,1/2-y,1/2-z
1/2-x,1/2+y,1/2-z
1/2-x,1/2-y,-z
1/2+x,1/2+y,-z
1/2-x,1/2+y,1/2+z
1/2+x,1/2-y,1/2+z
loop_
_atom_site_type_symbol
_atom_site_label
_atom_site_fract_x
_atom_site_fract_y
_atom_site_fract_z
Si Si1 0.745650 0.931729 0.570165
Si Si2 0.278139 0.497285 0.850932
Si Si3 0.798900 0.153049 0.571846
Si Si4 0.691913 0.572271 0.069359
Si Si5 0.249457 0.846244 0.070477
Si Si6 0.500000 0.000000 0.750000
Si Si7 0.284616 0.706321 0.320525
Si Si8 0.775331 0.205852 0.817832
O O1 0.688973 0.942426 0.500000
O O2 0.709297 0.963086 0.621776
O O3 0.687641 0.888991 0.581907
O O4 0.969245 0.929515 0.568909
O O5 0.500000 0.500000 0.836605
O O6 0.250129 0.466213 0.902238
O O7 0.150511 0.482279 0.795769
O O8 0.740626 0.157629 0.500000
O O9 0.753193 0.111827 0.597378
O O10 0.724192 0.183068 0.619879
O O11 0.023882 0.154298 0.569870
O O12 0.759137 0.574281 0.000000
O O13 0.302879 0.818728 0.126098
O O14 0.305289 0.835966 0.000000
O O15 0.250000 0.750000 0.329763
O O16 0.209547 0.696753 0.252001
O O17 0.504442 0.699936 0.317329
O O18 0.750000 0.250000 0.828051
#
# Coordination Sequence:
#
# PCOD9497360 Si02
#       8
#    16  16  16  16  16   4  16  16
#     4   8  14  28  54  83 104 126 168 221 271 324
#     4  10  20  37  59  79 107 148 183 220 270 316
#     4   8  14  26  46  74 101 124 159 211 261 308
#     4   8  14  28  54  83 104 126 168 221 271 324
#     4   8  14  26  46  74 101 124 159 211 261 308
#     4  12  26  40  50  74 120 148 190 230 252 314
#     4   9  17  29  45  65  93 128 168 206 248 305
#     4   9  17  29  45  65  93 128 168 206 248 305
#
# _framework density 20.618089000000001
#
# number of rings (size 3 to 8) (size 9 to 14) (size 15 to 20)
#    0.000    3.310    0.000    2.276    0.000    2.207 
#    2.483    1.379    3.034    0.000    0.000    0.000 
#    0.000    0.000    0.000    0.000    0.000    0.000 
#
# Total GULP energy -322879.697982 kJ/mol
# GULP energy per Si atom -5566.891345 kJ/mol
# Density = 2.057116 g / cm^3
# Si number density = 20.618089 Si / 1000 Ang^3
#
#
#
# Elastic Constant Matrix: (Units=GPa)
#
#
# Indices 1 2 3 4 5 6 
#
# 1 92.6917 2.1274 11.8177 0.0000 0.0000 0.0000
# 2 2.1274 106.3196 82.8174 0.0000 0.0000 0.0000
# 3 11.8177 82.8174 115.8613 0.0000 0.0000 0.0000
# 4 0.0000 0.0000 0.0000 1978.4913 0.0000 0.0000
# 5 0.0000 0.0000 0.0000 0.0000 38.2257 0.0000
# 6 0.0000 0.0000 0.0000 0.0000 0.0000 -0.1769
#
#
#
# Elastic Compliance Matrix: (Units=1/GPa)
#
#
# Indices 1 2 3 4 5 6 
#
# 1 0.011033 0.001480 -0.002183 0.000000 0.000000 0.000000
# 2 0.001480 0.021420 -0.015462 0.000000 0.000000 0.000000
# 3 -0.002183 -0.015462 0.019906 0.000000 0.000000 0.000000
# 4 0.000000 0.000000 0.000000 0.000505 0.000000 0.000000
# 5 0.000000 0.000000 0.000000 0.000000 0.026160 0.000000
# 6 0.000000 0.000000 0.000000 0.000000 0.000000 -5.654120
#
#
# Mechanical properties :
#
#
# Convention : Reuss Voigt Hill
#
# Bulk Modulus (GPa) = 49.92964 56.48862 53.20913
# Shear Modulus (GPa) = -0.90316 417.84870 208.47277
#
# Velocity S-wave (km/s) = -0.66257 14.25136 10.06633
# Velocity P-wave (km/s) = 4.86659 17.27017 12.68744
#
# Compressibility (1/GPa) = 0.02002818
#
# Stress axis : x y z
#
# Youngs Moduli (GPa) = 90.63870 46.68524 50.23653
#
# Poissons Ratio (x) = -0.06908 0.10967
# Poissons Ratio (y) = -0.13412 0.77675
# Poissons Ratio (z) = 0.19786 0.72184
#
# Static dielectric constant tensor:
#      x y z
#    x 1.780920 0.000000 0.000000 
#    y 0.000000 1.743420 0.000000 
#    z 0.000000 0.000000 1.747410 
# 
# From -- ./inp_files/55985.got.cif
#   From: 2010.05.17/outbox.cif.g08.bks.cpg/sg66_28_cif.got.tgz:55985.got - 2010.06.03 17:51:23.
