data_PCOD9497005
_publ_section_title
;
Structure prediction by ZEFSAII (Michael W. Deem and Ramdas Pophale) SiO2 
 PCOD9497005
Probable space group: C C C M
;
_chemical_formula_sum "Si O2"
_cell_formula_units_Z 64
_cell_length_a 8.209626
_cell_length_b 15.988452
_cell_length_c 23.610528
_cell_angle_alpha 90.000000
_cell_angle_beta 90.000000
_cell_angle_gamma 90.000000
_cell_volume 3099.099282
_symmetry_space_group_name_H-M "C C C M"
_symmetry_group_IT_number 66
_symmetry_cell_setting 'orthorhombic'
loop_
_space_group_symop_operation_xyz
x,y,z
-x,-y,z
x,-y,1/2-z
-x,y,1/2-z
-x,-y,-z
x,y,-z
-x,y,1/2+z
x,-y,1/2+z
1/2+x,1/2+y,z
1/2-x,1/2-y,z
1/2+x,1/2-y,1/2-z
1/2-x,1/2+y,1/2-z
1/2-x,1/2-y,-z
1/2+x,1/2+y,-z
1/2-x,1/2+y,1/2+z
1/2+x,1/2-y,1/2+z
loop_
_atom_site_type_symbol
_atom_site_label
_atom_site_fract_x
_atom_site_fract_y
_atom_site_fract_z
Si Si1 0.408000 0.694533 0.370271
Si Si2 0.095764 0.644970 0.830118
Si Si3 0.799223 0.151611 0.062457
Si Si4 0.734460 0.088129 0.720864
O O1 0.250000 0.750000 0.387734
O O2 0.525595 0.763661 0.342750
O O3 0.511299 0.651950 0.419928
O O4 0.358696 0.626604 0.323597
O O5 0.192636 0.615180 0.885785
O O6 0.208664 0.647065 0.775117
O O7 0.939197 0.589665 0.812174
O O8 0.750000 0.250000 0.059638
O O9 0.770679 0.115446 0.000000
O O10 0.772744 0.000000 0.750000
#
# Coordination Sequence:
#
# PCOD9497005 Si02
#       4
#    16  16  16  16
#     4   9  19  32  52  81 111 144 182 229 280 332
#     4   9  18  32  54  79 107 142 184 225 274 333
#     4   9  18  33  53  78 108 144 188 233 273 322
#     4  10  20  35  55  81 112 141 178 229 281 335
#
# _framework density 20.651160999999998
#
# number of rings (size 3 to 8) (size 9 to 14) (size 15 to 20)
#    0.000    2.750    0.000    1.500    0.000   18.500 
#    0.000    7.500    0.000    6.000    0.000    0.000 
#    0.000    0.000    0.000    0.000    0.000    1.750 
#
# Total GULP energy -178475.952215 kJ/mol
# GULP energy per Si atom -5577.373507 kJ/mol
# Density = 2.060416 g / cm^3
# Si number density = 20.651161 Si / 1000 Ang^3
#
#
#
# Elastic Constant Matrix: (Units=GPa)
#
#
# Indices 1 2 3 4 5 6 
#
# 1 92.3782 17.8800 72.3745 0.0000 0.0000 0.0000
# 2 17.8800 42.5996 13.3782 0.0000 0.0000 0.0000
# 3 72.3745 13.3782 164.1522 0.0000 0.0000 0.0000
# 4 0.0000 0.0000 0.0000 -3.9610 0.0000 0.0000
# 5 0.0000 0.0000 0.0000 0.0000 26.4076 0.0000
# 6 0.0000 0.0000 0.0000 0.0000 0.0000 13.1320
#
#
#
# Elastic Compliance Matrix: (Units=1/GPa)
#
#
# Indices 1 2 3 4 5 6 
#
# 1 0.017541 -0.005063 -0.007321 0.000000 0.000000 0.000000
# 2 -0.005063 0.025552 0.000150 0.000000 0.000000 0.000000
# 3 -0.007321 0.000150 0.009308 0.000000 0.000000 0.000000
# 4 0.000000 0.000000 0.000000 -0.252460 0.000000 0.000000
# 5 0.000000 0.000000 0.000000 0.000000 0.037868 0.000000
# 6 0.000000 0.000000 0.000000 0.000000 0.000000 0.076150
#
#
# Mechanical properties :
#
#
# Convention : Reuss Voigt Hill
#
# Bulk Modulus (GPa) = 35.80118 56.26618 46.03368
# Shear Modulus (GPa) = -95.67096 20.14888 -37.76104
#
# Velocity S-wave (km/s) = -6.81379 3.12697 -4.28076
# Velocity P-wave (km/s) = 6.67307 6.35157 1.44696
#
# Compressibility (1/GPa) = 0.02793204
#
# Stress axis : x y z
#
# Youngs Moduli (GPa) = 57.00983 39.13521 107.43953
#
# Poissons Ratio (x) = 0.19815 0.78658
# Poissons Ratio (y) = 0.28865 -0.01610
# Poissons Ratio (z) = 0.41737 -0.00586
#
# Static dielectric constant tensor:
#      x y z
#    x 1.805890 0.000000 0.000000 
#    y 0.000000 1.770250 0.000000 
#    z 0.000000 0.000000 1.730460 
# 
# From -- ./inp_files/46594.got.cif
#   From: 2010.05.17/outbox.cif.g08.bks.cpg/sg66_24_cif.got.tgz:46594.got - 2010.06.03 17:51:23.
