data_PCOD9497423
_publ_section_title
;
Structure prediction by ZEFSAII (Michael W. Deem and Ramdas Pophale) SiO2 
 PCOD9497423
Probable space group: C C C M
;
_chemical_formula_sum "Si O2"
_cell_formula_units_Z 96
_cell_length_a 10.240606
_cell_length_b 28.944710
_cell_length_c 16.917019
_cell_angle_alpha 90.000000
_cell_angle_beta 90.000000
_cell_angle_gamma 90.000000
_cell_volume 5014.396793
_symmetry_space_group_name_H-M "C C C M"
_symmetry_group_IT_number 66
_symmetry_cell_setting 'orthorhombic'
loop_
_space_group_symop_operation_xyz
x,y,z
-x,-y,z
x,-y,1/2-z
-x,y,1/2-z
-x,-y,-z
x,y,-z
-x,y,1/2+z
x,-y,1/2+z
1/2+x,1/2+y,z
1/2-x,1/2-y,z
1/2+x,1/2-y,1/2-z
1/2-x,1/2+y,1/2-z
1/2-x,1/2-y,-z
1/2+x,1/2+y,-z
1/2-x,1/2+y,1/2+z
1/2+x,1/2-y,1/2+z
loop_
_atom_site_type_symbol
_atom_site_label
_atom_site_fract_x
_atom_site_fract_y
_atom_site_fract_z
Si Si1 0.097495 0.800128 0.675371
Si Si2 0.734104 0.933594 0.404239
Si Si3 0.598516 0.198222 0.323811
Si Si4 0.505090 0.395190 0.844766
Si Si5 0.787046 0.961621 0.095462
Si Si6 0.547611 0.102401 0.405003
O O1 0.248836 0.805145 0.700612
O O2 0.083996 0.749239 0.637545
O O3 0.000000 0.799017 0.750000
O O4 0.057177 0.846223 0.628667
O O5 0.735747 0.933124 0.500000
O O6 0.847358 0.900565 0.373019
O O7 0.591361 0.917455 0.377404
O O8 0.766378 0.985826 0.377895
O O9 0.500000 0.195949 0.250000
O O10 0.567909 0.154757 0.378305
O O11 0.500000 0.396896 0.750000
O O12 0.419589 0.437425 0.877358
O O13 0.666775 0.929679 0.123199
O O14 0.786605 0.962189 0.000000
O O15 0.547842 0.100226 0.500000
#
# Coordination Sequence:
#
# PCOD9497423 Si02
#       6
#    16  16  16  16  16  16
#     4   9  20  37  56  86 110 144 184 221 273 330
#     4  10  22  38  57  79 110 151 187 222 271 333
#     4  10  20  37  62  83 108 146 187 223 272 332
#     4  11  22  36  56  84 114 142 181 231 278 318
#     4  10  20  38  59  79 108 149 190 223 269 331
#     4  10  21  37  57  84 112 142 184 233 276 317
#
# _framework density 19.144874999999999
#
# number of rings (size 3 to 8) (size 9 to 14) (size 15 to 20)
#    0.000    2.000    1.667    1.500    4.667    4.667 
#    0.000    3.333    0.000    5.000    0.000    0.000 
#    0.000    0.000    0.000    0.000    0.000    0.000 
#
# Total GULP energy -267797.443688 kJ/mol
# GULP energy per Si atom -5579.113410 kJ/mol
# Density = 1.910130 g / cm^3
# Si number density = 19.144875 Si / 1000 Ang^3
#
#
#
# Elastic Constant Matrix: (Units=GPa)
#
#
# Indices 1 2 3 4 5 6 
#
# 1 85.2787 13.0951 2.5657 0.0000 0.0000 0.0000
# 2 13.0951 105.6084 5.5680 0.0000 0.0000 0.0000
# 3 2.5657 5.5680 3.1213 0.0000 0.0000 0.0000
# 4 0.0000 0.0000 0.0000 37.5832 0.0000 0.0000
# 5 0.0000 0.0000 0.0000 0.0000 24.8143 0.0000
# 6 0.0000 0.0000 0.0000 0.0000 0.0000 32.4815
#
#
#
# Elastic Compliance Matrix: (Units=1/GPa)
#
#
# Indices 1 2 3 4 5 6 
#
# 1 0.012134 -0.001080 -0.008047 0.000000 0.000000 0.000000
# 2 -0.001080 0.010548 -0.017928 0.000000 0.000000 0.000000
# 3 -0.008047 -0.017928 0.358971 0.000000 0.000000 0.000000
# 4 0.000000 0.000000 0.000000 0.026608 0.000000 0.000000
# 5 0.000000 0.000000 0.000000 0.000000 0.040299 0.000000
# 6 0.000000 0.000000 0.000000 0.000000 0.000000 0.030787
#
#
# Mechanical properties :
#
#
# Convention : Reuss Voigt Hill
#
# Bulk Modulus (GPa) = 3.05304 26.27401 14.66352
# Shear Modulus (GPa) = 7.78041 30.49445 19.13743
#
# Velocity S-wave (km/s) = 2.01812 3.99535 3.16509
# Velocity P-wave (km/s) = 2.65114 5.91924 4.58617
#
# Compressibility (1/GPa) = 0.32754226
#
# Stress axis : x y z
#
# Youngs Moduli (GPa) = 82.41131 94.80355 2.78574
#
# Poissons Ratio (x) = 0.10242 0.02242
# Poissons Ratio (y) = 0.08903 0.04994
# Poissons Ratio (z) = 0.66317 1.69966
#
# Static dielectric constant tensor:
#      x y z
#    x 1.655690 0.000000 0.000000 
#    y 0.000000 1.697340 0.000000 
#    z 0.000000 0.000000 1.646260 
# 
# From -- ./inp_files/47306.got.cif
#   From: 2010.05.17/outbox.cif.g08.bks.cpg/sg66_24_cif.got.tgz:47306.got - 2010.06.03 17:51:23.
