data_PCOD9497586
_publ_section_title
;
Structure prediction by ZEFSAII (Michael W. Deem and Ramdas Pophale) SiO2 
 PCOD9497586
Probable space group: C C C M
;
_chemical_formula_sum "Si O2"
_cell_formula_units_Z 116
_cell_length_a 7.944805
_cell_length_b 24.704450
_cell_length_c 29.629089
_cell_angle_alpha 90.000000
_cell_angle_beta 90.000000
_cell_angle_gamma 90.000000
_cell_volume 5815.361679
_symmetry_space_group_name_H-M "C C C M"
_symmetry_group_IT_number 66
_symmetry_cell_setting 'orthorhombic'
loop_
_space_group_symop_operation_xyz
x,y,z
-x,-y,z
x,-y,1/2-z
-x,y,1/2-z
-x,-y,-z
x,y,-z
-x,y,1/2+z
x,-y,1/2+z
1/2+x,1/2+y,z
1/2-x,1/2-y,z
1/2+x,1/2-y,1/2-z
1/2-x,1/2+y,1/2-z
1/2-x,1/2-y,-z
1/2+x,1/2+y,-z
1/2-x,1/2+y,1/2+z
1/2+x,1/2-y,1/2+z
loop_
_atom_site_type_symbol
_atom_site_label
_atom_site_fract_x
_atom_site_fract_y
_atom_site_fract_z
Si Si1 0.938736 0.561499 0.551069
Si Si2 0.637865 0.695957 0.288593
Si Si3 0.603481 0.445057 0.108286
Si Si4 0.554333 0.333546 0.380373
Si Si5 0.544648 0.755999 0.948421
Si Si6 0.174271 0.592339 0.809347
Si Si7 0.936953 0.352507 0.383477
Si Si8 0.500000 0.000000 0.250000
O O1 0.941210 0.582327 0.500000
O O2 0.751589 0.561531 0.571751
O O3 0.000000 0.500000 0.551381
O O4 0.060295 0.596512 0.582780
O O5 0.500000 0.703185 0.250000
O O6 0.750000 0.750000 0.290896
O O7 0.548281 0.685407 0.336679
O O8 0.740454 0.640046 0.280081
O O9 0.500000 0.500000 0.104653
O O10 0.478536 0.394965 0.106370
O O11 0.695953 0.436004 0.156219
O O12 0.494149 0.298113 0.422588
O O13 0.753358 0.330628 0.370447
O O14 0.750000 0.750000 0.949841
O O15 0.490197 0.804616 0.915151
O O16 0.487243 0.762121 0.000000
O O17 0.042228 0.626103 0.840728
O O18 0.100752 0.542549 0.781153
#
# Coordination Sequence:
#
# PCOD9497586 Si02
#       8
#    16  16  16  16  16  16  16   4
#     4  10  21  36  56  87 123 163 215 266 316 391
#     4  11  26  44  67  96 132 175 227 279 340 410
#     4  10  22  39  61  87 124 171 217 268 336 399
#     4  10  22  39  63  93 127 166 212 275 334 397
#     4   9  18  34  59  93 125 161 207 255 315 389
#     4  10  26  42  64  96 127 168 219 283 332 413
#     4  10  20  38  68  88 126 169 211 266 335 394
#     4  12  28  40  70  96 130 168 230 274 348 412
#
# _framework density 19.947167
#
# number of rings (size 3 to 8) (size 9 to 14) (size 15 to 20)
#    0.000    1.931    0.000    2.069    8.690    4.138 
#    0.000    0.000    0.000    8.690    0.000    0.000 
#    0.000    0.000    0.000    0.000    0.000    0.000 
#
# Total GULP energy -323614.978408 kJ/mol
# GULP energy per Si atom -5579.568593 kJ/mol
# Density = 1.990177 g / cm^3
# Si number density = 19.947167 Si / 1000 Ang^3
#
#
#
# Elastic Constant Matrix: (Units=GPa)
#
#
# Indices 1 2 3 4 5 6 
#
# 1 63.0737 37.7562 32.8915 0.0000 0.0000 0.0000
# 2 37.7562 136.8390 62.4581 0.0000 0.0000 0.0000
# 3 32.8915 62.4581 76.9443 0.0000 0.0000 0.0000
# 4 0.0000 0.0000 0.0000 31.2280 0.0000 0.0000
# 5 0.0000 0.0000 0.0000 0.0000 3.5842 0.0000
# 6 0.0000 0.0000 0.0000 0.0000 0.0000 26.6864
#
#
#
# Elastic Compliance Matrix: (Units=1/GPa)
#
#
# Indices 1 2 3 4 5 6 
#
# 1 0.021011 -0.002697 -0.006792 0.000000 0.000000 0.000000
# 2 -0.002697 0.011955 -0.008552 0.000000 0.000000 0.000000
# 3 -0.006792 -0.008552 0.022841 0.000000 0.000000 0.000000
# 4 0.000000 0.000000 0.000000 0.032023 0.000000 0.000000
# 5 0.000000 0.000000 0.000000 0.000000 0.278999 0.000000
# 6 0.000000 0.000000 0.000000 0.000000 0.000000 0.037472
#
#
# Mechanical properties :
#
#
# Convention : Reuss Voigt Hill
#
# Bulk Modulus (GPa) = 50.69473 60.34094 55.51784
# Shear Modulus (GPa) = 11.18671 21.88313 16.53492
#
# Velocity S-wave (km/s) = 2.37073 3.31577 2.88225
# Velocity P-wave (km/s) = 5.74138 6.70636 6.24254
#
# Compressibility (1/GPa) = 0.01972592
#
# Stress axis : x y z
#
# Youngs Moduli (GPa) = 47.59420 83.64531 43.77998
#
# Poissons Ratio (x) = 0.22559 0.29737
# Poissons Ratio (y) = 0.12836 0.37439
# Poissons Ratio (z) = 0.32327 0.71530
#
# Static dielectric constant tensor:
#      x y z
#    x 1.759170 0.000000 0.000000 
#    y 0.000000 1.686960 0.000000 
#    z 0.000000 0.000000 1.699110 
# 
# From -- ./inp_files/62915.got.cif
#   From: 2010.05.17/outbox.cif.g08.bks.cpg/sg66_32_cif.got.tgz:62915.got - 2010.06.03 17:51:23.
