data_PCOD9497071
_publ_section_title
;
Structure prediction by ZEFSAII (Michael W. Deem and Ramdas Pophale) SiO2 
 PCOD9497071
Probable space group: C C C M
;
_chemical_formula_sum "Si O2"
_cell_formula_units_Z 80
_cell_length_a 14.772712
_cell_length_b 34.363820
_cell_length_c 8.621215
_cell_angle_alpha 90.000000
_cell_angle_beta 90.000000
_cell_angle_gamma 90.000000
_cell_volume 4376.532345
_symmetry_space_group_name_H-M "C C C M"
_symmetry_group_IT_number 66
_symmetry_cell_setting 'orthorhombic'
loop_
_space_group_symop_operation_xyz
x,y,z
-x,-y,z
x,-y,1/2-z
-x,y,1/2-z
-x,-y,-z
x,y,-z
-x,y,1/2+z
x,-y,1/2+z
1/2+x,1/2+y,z
1/2-x,1/2-y,z
1/2+x,1/2-y,1/2-z
1/2-x,1/2+y,1/2-z
1/2-x,1/2-y,-z
1/2+x,1/2+y,-z
1/2-x,1/2+y,1/2+z
1/2+x,1/2-y,1/2+z
loop_
_atom_site_type_symbol
_atom_site_label
_atom_site_fract_x
_atom_site_fract_y
_atom_site_fract_z
Si Si1 0.209972 0.118053 0.312119
Si Si2 0.627745 0.783087 0.680727
Si Si3 0.843521 0.199853 0.178771
Si Si4 0.093593 0.635484 0.681349
Si Si5 0.398468 0.541399 0.813708
O O1 0.209952 0.120758 0.500000
O O2 0.154986 0.156413 0.252851
O O3 0.313796 0.120261 0.257957
O O4 0.162177 0.078111 0.266126
O O5 0.597610 0.786232 0.500000
O O6 0.736133 0.790603 0.675763
O O7 0.612287 0.739357 0.743800
O O8 0.592663 0.818195 0.783662
O O9 0.874946 0.197758 0.000000
O O10 0.097055 0.628466 0.500000
O O11 0.000000 0.619258 0.750000
O O12 0.364458 0.500000 0.750000
O O13 0.500000 0.546560 0.750000
O O14 0.401619 0.539797 0.000000
#
# Coordination Sequence:
#
# PCOD9497071 Si02
#       5
#    16  16  16  16  16
#     4   9  18  34  54  76 102 136 172 209 256 306
#     4   8  13  25  44  64  90 127 168 209 250 294
#     4   7  11  23  45  67  90 124 164 203 248 295
#     4  11  21  32  48  71 101 138 178 220 256 297
#     4  10  20  35  58  83 109 135 162 200 248 306
#
# _framework density 18.279311
#
# number of rings (size 3 to 8) (size 9 to 14) (size 15 to 20)
#    0.000    3.000    0.000    5.400    0.000    1.600 
#    0.000    9.000    0.000    3.000    0.000    4.200 
#    0.000    0.000    0.000    0.000    0.000    0.000 
#
# Total GULP energy -222711.312461 kJ/mol
# GULP energy per Si atom -5567.782812 kJ/mol
# Density = 1.823771 g / cm^3
# Si number density = 18.279311 Si / 1000 Ang^3
#
#
#
# Elastic Constant Matrix: (Units=GPa)
#
#
# Indices 1 2 3 4 5 6 
#
# 1 52.6294 51.3398 7.9197 0.0000 0.0000 0.0000
# 2 51.3398 158.8690 23.3161 0.0000 0.0000 0.0000
# 3 7.9197 23.3161 28.9701 0.0000 0.0000 0.0000
# 4 0.0000 0.0000 0.0000 18.1893 0.0000 0.0000
# 5 0.0000 0.0000 0.0000 0.0000 15.9875 0.0000
# 6 0.0000 0.0000 0.0000 0.0000 0.0000 5.7795
#
#
#
# Elastic Compliance Matrix: (Units=1/GPa)
#
#
# Indices 1 2 3 4 5 6 
#
# 1 0.027753 -0.008907 -0.000418 0.000000 0.000000 0.000000
# 2 -0.008907 0.009996 -0.005610 0.000000 0.000000 0.000000
# 3 -0.000418 -0.005610 0.039148 0.000000 0.000000 0.000000
# 4 0.000000 0.000000 0.000000 0.054977 0.000000 0.000000
# 5 0.000000 0.000000 0.000000 0.000000 0.062549 0.000000
# 6 0.000000 0.000000 0.000000 0.000000 0.000000 0.173024
#
#
# Mechanical properties :
#
#
# Convention : Reuss Voigt Hill
#
# Bulk Modulus (GPa) = 21.26496 45.06884 33.16690
# Shear Modulus (GPa) = 12.10674 18.51748 15.31211
#
# Velocity S-wave (km/s) = 2.57635 3.18627 2.89740
# Velocity P-wave (km/s) = 4.52865 6.18430 5.42007
#
# Compressibility (1/GPa) = 0.04702571
#
# Stress axis : x y z
#
# Youngs Moduli (GPa) = 36.03273 100.03722 25.54410
#
# Poissons Ratio (x) = 0.89104 0.01068
# Poissons Ratio (y) = 0.32095 0.14331
# Poissons Ratio (z) = 0.01507 0.56124
#
# Static dielectric constant tensor:
#      x y z
#    x 1.655400 0.000000 0.000000 
#    y 0.000000 1.670070 0.000000 
#    z 0.000000 0.000000 1.620400 
# 
# From -- ./inp_files/6892.got.cif
#   From: 2010.05.17/outbox.cif.g08.bks.cpg/sg66_4_cif.got.tgz:6892.got - 2010.06.03 17:51:23.
