data_PCOD9497433
_publ_section_title
;
Structure prediction by ZEFSAII (Michael W. Deem and Ramdas Pophale) SiO2 
 PCOD9497433
Probable space group: C C C M
;
_chemical_formula_sum "Si O2"
_cell_formula_units_Z 104
_cell_length_a 9.287717
_cell_length_b 20.957015
_cell_length_c 26.563920
_cell_angle_alpha 90.000000
_cell_angle_beta 90.000000
_cell_angle_gamma 90.000000
_cell_volume 5170.476418
_symmetry_space_group_name_H-M "C C C M"
_symmetry_group_IT_number 66
_symmetry_cell_setting 'orthorhombic'
loop_
_space_group_symop_operation_xyz
x,y,z
-x,-y,z
x,-y,1/2-z
-x,y,1/2-z
-x,-y,-z
x,y,-z
-x,y,1/2+z
x,-y,1/2+z
1/2+x,1/2+y,z
1/2-x,1/2-y,z
1/2+x,1/2-y,1/2-z
1/2-x,1/2+y,1/2-z
1/2-x,1/2-y,-z
1/2+x,1/2+y,-z
1/2-x,1/2+y,1/2+z
1/2+x,1/2-y,1/2+z
loop_
_atom_site_type_symbol
_atom_site_label
_atom_site_fract_x
_atom_site_fract_y
_atom_site_fract_z
Si Si1 0.175022 0.987792 0.892148
Si Si2 0.975534 0.689830 0.805984
Si Si3 0.000000 0.892776 0.250000
Si Si4 0.135139 0.190780 0.000000
Si Si5 0.790245 0.853723 0.337464
Si Si6 0.459735 0.295797 0.113904
Si Si7 0.159031 0.967210 0.500000
Si Si8 0.723587 0.597637 0.826832
O O1 0.221368 0.002982 0.949035
O O2 0.264571 0.038028 0.859691
O O3 0.202028 0.919668 0.867809
O O4 0.000000 0.000000 0.889032
O O5 0.129926 0.663649 0.822782
O O6 0.000000 0.718669 0.750000
O O7 0.920195 0.736004 0.850588
O O8 0.855521 0.634855 0.802416
O O9 0.106998 0.855540 0.212120
O O10 0.110864 0.928270 0.285750
O O11 0.250000 0.250000 0.000000
O O12 0.061269 0.203436 0.054182
O O13 0.163537 0.111734 0.000000
O O14 0.872781 0.805381 0.373760
O O15 0.366811 0.354293 0.137142
O O16 0.000000 0.000000 0.500000
#
# Coordination Sequence:
#
# PCOD9497433 Si02
#       8
#    16  16   8   8  16  16   8  16
#     4  11  20  39  68  91 129 164 223 279 332 406
#     4  12  26  42  63  93 144 179 217 276 341 417
#     4  10  20  37  62  88 126 168 220 265 326 394
#     4  12  22  42  72 107 137 172 241 302 354 407
#     4  11  24  42  62 100 129 177 222 272 342 409
#     4  11  24  41  69  96 128 175 226 276 334 406
#     4  10  20  38  67 102 132 173 222 297 348 407
#     4  11  22  39  63  96 122 172 221 266 336 394
#
# _framework density 20.114201999999999
#
# number of rings (size 3 to 8) (size 9 to 14) (size 15 to 20)
#    0.000    0.923    6.154    2.769    4.308    3.077 
#    0.000    3.077    0.000    0.923    0.000    0.000 
#    0.000    0.000    0.000    0.000    0.000    0.000 
#
# Total GULP energy -289718.152224 kJ/mol
# GULP energy per Si atom -5571.502927 kJ/mol
# Density = 2.006842 g / cm^3
# Si number density = 20.114202 Si / 1000 Ang^3
#
#
#
# Elastic Constant Matrix: (Units=GPa)
#
#
# Indices 1 2 3 4 5 6 
#
# 1 79.8520 24.4607 37.5155 0.0000 0.0000 0.0000
# 2 24.4607 96.3199 44.2308 0.0000 0.0000 0.0000
# 3 37.5155 44.2308 182.9805 0.0000 0.0000 0.0000
# 4 0.0000 0.0000 0.0000 22.4803 0.0000 0.0000
# 5 0.0000 0.0000 0.0000 0.0000 13.6206 0.0000
# 6 0.0000 0.0000 0.0000 0.0000 0.0000 14.3344
#
#
#
# Elastic Compliance Matrix: (Units=1/GPa)
#
#
# Indices 1 2 3 4 5 6 
#
# 1 0.014411 -0.002590 -0.002328 0.000000 0.000000 0.000000
# 2 -0.002590 0.012144 -0.002404 0.000000 0.000000 0.000000
# 3 -0.002328 -0.002404 0.006524 0.000000 0.000000 0.000000
# 4 0.000000 0.000000 0.000000 0.044483 0.000000 0.000000
# 5 0.000000 0.000000 0.000000 0.000000 0.073418 0.000000
# 6 0.000000 0.000000 0.000000 0.000000 0.000000 0.069762
#
#
# Mechanical properties :
#
#
# Convention : Reuss Voigt Hill
#
# Bulk Modulus (GPa) = 54.25378 63.50738 58.88058
# Shear Modulus (GPa) = 20.70115 26.95009 23.82562
#
# Velocity S-wave (km/s) = 3.21156 3.66437 3.44542
# Velocity P-wave (km/s) = 6.38621 7.03885 6.72046
#
# Compressibility (1/GPa) = 0.01843189
#
# Stress axis : x y z
#
# Youngs Moduli (GPa) = 69.39353 82.34497 153.28869
#
# Poissons Ratio (x) = 0.21331 0.35691
# Poissons Ratio (y) = 0.17976 0.36857
# Poissons Ratio (z) = 0.16157 0.19799
#
# Static dielectric constant tensor:
#      x y z
#    x 1.704750 0.000000 0.000000 
#    y 0.000000 1.836130 0.000000 
#    z 0.000000 0.000000 1.812970 
# 
# From -- ./inp_files/62740.got.cif
#   From: 2010.05.17/outbox.cif.g08.bks.cpg/sg66_32_cif.got.tgz:62740.got - 2010.06.03 17:51:23.
