data_PCOD9497272
_publ_section_title
;
Structure prediction by ZEFSAII (Michael W. Deem and Ramdas Pophale) SiO2 
 PCOD9497272
Probable space group: C C C M
;
_chemical_formula_sum "Si O2"
_cell_formula_units_Z 56
_cell_length_a 28.387616
_cell_length_b 10.142537
_cell_length_c 10.057471
_cell_angle_alpha 90.000000
_cell_angle_beta 90.000000
_cell_angle_gamma 90.000000
_cell_volume 2895.771647
_symmetry_space_group_name_H-M "C C C M"
_symmetry_group_IT_number 66
_symmetry_cell_setting 'orthorhombic'
loop_
_space_group_symop_operation_xyz
x,y,z
-x,-y,z
x,-y,1/2-z
-x,y,1/2-z
-x,-y,-z
x,y,-z
-x,y,1/2+z
x,-y,1/2+z
1/2+x,1/2+y,z
1/2-x,1/2-y,z
1/2+x,1/2-y,1/2-z
1/2-x,1/2+y,1/2-z
1/2-x,1/2-y,-z
1/2+x,1/2+y,-z
1/2-x,1/2+y,1/2+z
1/2+x,1/2-y,1/2+z
loop_
_atom_site_type_symbol
_atom_site_label
_atom_site_fract_x
_atom_site_fract_y
_atom_site_fract_z
Si Si1 0.662940 0.500000 0.750000
Si Si2 0.608846 0.774129 0.224182
Si Si3 0.721136 0.550898 0.000000
Si Si4 0.962137 0.681836 0.000000
Si Si5 0.821507 0.651621 0.000000
Si Si6 0.931649 0.625383 0.500000
O O1 0.631165 0.629793 0.759499
O O2 0.697706 0.485095 0.873578
O O3 0.645866 0.854410 0.131054
O O4 0.596299 0.838168 0.365616
O O5 0.562422 0.762803 0.132327
O O6 0.777452 0.553890 0.000000
O O7 0.701525 0.701758 0.000000
O O8 0.947449 0.527132 0.000000
O O9 0.017941 0.699572 0.000000
#
# Coordination Sequence:
#
# PCOD9497272 Si02
#       6
#     8  16   8   8   8   8
#     4  10  20  36  61  84 118 154 185 230 298 348
#     4  10  20  37  58  87 116 149 191 236 288 348
#     4   9  17  36  56  79 108 154 185 224 275 340
#     4  10  22  39  57  81 116 154 186 238 294 334
#     4   8  18  36  56  76 114 147 185 226 285 326
#     4  11  21  37  61  84 109 149 201 237 276 340
#
# _framework density 19.338539999999998
#
# number of rings (size 3 to 8) (size 9 to 14) (size 15 to 20)
#    0.000    2.286    0.000    3.429    0.000    2.286 
#   10.286    4.286    0.000    6.857    0.000    0.000 
#    0.000    0.000    0.000    0.000    0.000    0.000 
#
# Total GULP energy -156268.560578 kJ/mol
# GULP energy per Si atom -5581.020021 kJ/mol
# Density = 1.929452 g / cm^3
# Si number density = 19.338540 Si / 1000 Ang^3
#
#
#
# Elastic Constant Matrix: (Units=GPa)
#
#
# Indices 1 2 3 4 5 6 
#
# 1 152.9126 43.4078 86.5108 0.0000 0.0000 0.0000
# 2 43.4078 56.5862 37.7646 0.0000 0.0000 0.0000
# 3 86.5108 37.7646 198.1902 0.0000 0.0000 0.0000
# 4 0.0000 0.0000 0.0000 20.3392 0.0000 0.0000
# 5 0.0000 0.0000 0.0000 0.0000 21.8508 0.0000
# 6 0.0000 0.0000 0.0000 0.0000 0.0000 20.2320
#
#
#
# Elastic Compliance Matrix: (Units=1/GPa)
#
#
# Indices 1 2 3 4 5 6 
#
# 1 0.009953 -0.005425 -0.003311 0.000000 0.000000 0.000000
# 2 -0.005425 0.023204 -0.002053 0.000000 0.000000 0.000000
# 3 -0.003311 -0.002053 0.006882 0.000000 0.000000 0.000000
# 4 0.000000 0.000000 0.000000 0.049166 0.000000 0.000000
# 5 0.000000 0.000000 0.000000 0.000000 0.045765 0.000000
# 6 0.000000 0.000000 0.000000 0.000000 0.000000 0.049427
#
#
# Mechanical properties :
#
#
# Convention : Reuss Voigt Hill
#
# Bulk Modulus (GPa) = 54.16986 82.56170 68.36578
# Shear Modulus (GPa) = 23.57054 28.48479 26.02767
#
# Velocity S-wave (km/s) = 3.49497 3.84207 3.67263
# Velocity P-wave (km/s) = 6.66023 7.90364 7.30842
#
# Compressibility (1/GPa) = 0.01846045
#
# Stress axis : x y z
#
# Youngs Moduli (GPa) = 100.47393 43.09531 145.30621
#
# Poissons Ratio (x) = 0.23381 0.48106
# Poissons Ratio (y) = 0.54512 0.29836
# Poissons Ratio (z) = 0.33263 0.08849
#
# Static dielectric constant tensor:
#      x y z
#    x 1.681990 0.000000 0.000000 
#    y 0.000000 1.666700 0.000000 
#    z 0.000000 0.000000 1.648010 
# 
# From -- ./inp_files/3788.got.cif
#   From: 2010.05.17/outbox.cif.g08.bks.cpg/sg66_2_cif.got.tgz:3788.got - 2010.06.03 17:51:23.
