data_PCOD9497082
_publ_section_title
;
Structure prediction by ZEFSAII (Michael W. Deem and Ramdas Pophale) SiO2 
 PCOD9497082
Probable space group: C C C M
;
_chemical_formula_sum "Si O2"
_cell_formula_units_Z 80
_cell_length_a 15.241234
_cell_length_b 8.616579
_cell_length_c 27.355011
_cell_angle_alpha 90.000000
_cell_angle_beta 90.000000
_cell_angle_gamma 90.000000
_cell_volume 3592.459649
_symmetry_space_group_name_H-M "C C C M"
_symmetry_group_IT_number 66
_symmetry_cell_setting 'orthorhombic'
loop_
_space_group_symop_operation_xyz
x,y,z
-x,-y,z
x,-y,1/2-z
-x,y,1/2-z
-x,-y,-z
x,y,-z
-x,y,1/2+z
x,-y,1/2+z
1/2+x,1/2+y,z
1/2-x,1/2-y,z
1/2+x,1/2-y,1/2-z
1/2-x,1/2+y,1/2-z
1/2-x,1/2-y,-z
1/2+x,1/2+y,-z
1/2-x,1/2+y,1/2+z
1/2+x,1/2-y,1/2+z
loop_
_atom_site_type_symbol
_atom_site_label
_atom_site_fract_x
_atom_site_fract_y
_atom_site_fract_z
Si Si1 0.650076 0.192071 0.055171
Si Si2 0.348442 0.685843 0.242941
Si Si3 0.580407 0.624000 0.644175
Si Si4 0.650698 0.179839 0.553194
Si Si5 0.847715 0.813238 0.151234
O O1 0.750000 0.250000 0.061312
O O2 0.592024 0.269999 0.097152
O O3 0.650987 0.005581 0.057514
O O4 0.622070 0.236701 0.000000
O O5 0.343288 0.500000 0.250000
O O6 0.250000 0.750000 0.235965
O O7 0.406552 0.714423 0.195057
O O8 0.385623 0.735501 0.296033
O O9 0.500000 0.500000 0.645787
O O10 0.659157 0.497800 0.644139
O O11 0.611371 0.220825 0.500000
O O12 0.750000 0.250000 0.552294
O O13 0.608432 0.246569 0.602411
O O14 0.750000 0.750000 0.153307
#
# Coordination Sequence:
#
# PCOD9497082 Si02
#       5
#    16  16  16  16  16
#     4  10  20  35  58  87 118 157 206 253 297 356
#     4   9  19  34  55  83 110 144 192 244 295 352
#     4  11  23  37  56  85 121 155 193 248 310 367
#     4   9  17  31  54  84 115 147 190 245 297 346
#     4   9  18  34  56  82 110 148 197 242 288 352
#
# _framework density 22.268864000000001
#
# number of rings (size 3 to 8) (size 9 to 14) (size 15 to 20)
#    0.000    2.400    0.000    3.000    0.000   11.200 
#    0.000    1.000    0.000    2.400    0.000   29.400 
#    0.000    0.000    0.000    0.000    0.000    0.000 
#
# Total GULP energy -222980.076479 kJ/mol
# GULP energy per Si atom -5574.501912 kJ/mol
# Density = 2.221818 g / cm^3
# Si number density = 22.268864 Si / 1000 Ang^3
#
#
#
# Elastic Constant Matrix: (Units=GPa)
#
#
# Indices 1 2 3 4 5 6 
#
# 1 75.4932 11.4618 51.4356 0.0000 0.0000 0.0000
# 2 11.4618 41.4542 58.9935 0.0000 0.0000 0.0000
# 3 51.4356 58.9935 292.0266 0.0000 0.0000 0.0000
# 4 0.0000 0.0000 0.0000 38.1864 0.0000 0.0000
# 5 0.0000 0.0000 0.0000 0.0000 -16.3754 0.0000
# 6 0.0000 0.0000 0.0000 0.0000 0.0000 29.1130
#
#
#
# Elastic Compliance Matrix: (Units=1/GPa)
#
#
# Indices 1 2 3 4 5 6 
#
# 1 0.015061 -0.000546 -0.002542 0.000000 0.000000 0.000000
# 2 -0.000546 0.033876 -0.006747 0.000000 0.000000 0.000000
# 3 -0.002542 -0.006747 0.005235 0.000000 0.000000 0.000000
# 4 0.000000 0.000000 0.000000 0.026187 0.000000 0.000000
# 5 0.000000 0.000000 0.000000 0.000000 -0.061067 0.000000
# 6 0.000000 0.000000 0.000000 0.000000 0.000000 0.034349
#
#
# Mechanical properties :
#
#
# Convention : Reuss Voigt Hill
#
# Bulk Modulus (GPa) = 28.98480 72.52842 50.75661
# Shear Modulus (GPa) = 58.95281 29.32367 44.13824
#
# Velocity S-wave (km/s) = 5.15079 3.63271 4.45686
# Velocity P-wave (km/s) = 6.95833 7.08771 7.02332
#
# Compressibility (1/GPa) = 0.03450084
#
# Stress axis : x y z
#
# Youngs Moduli (GPa) = 66.39488 29.51945 191.01483
#
# Poissons Ratio (x) = 0.01612 0.48565
# Poissons Ratio (y) = 0.03626 1.28882
# Poissons Ratio (z) = 0.16881 0.19917
#
# Static dielectric constant tensor:
#      x y z
#    x 1.894280 0.000000 0.000000 
#    y 0.000000 1.797310 0.000000 
#    z 0.000000 0.000000 1.935450 
# 
# From -- ./inp_files/69855.got.cif
#   From: 2010.05.17/outbox.cif.g08.bks.cpg/sg66_35_cif.got.tgz:69855.got - 2010.06.03 17:51:23.
