data_PCOD9497653
_publ_section_title
;
Structure prediction by ZEFSAII (Michael W. Deem and Ramdas Pophale) SiO2 
 PCOD9497653
Probable space group: C C C M
;
_chemical_formula_sum "Si O2"
_cell_formula_units_Z 84
_cell_length_a 6.044690
_cell_length_b 25.999447
_cell_length_c 24.325423
_cell_angle_alpha 90.000000
_cell_angle_beta 90.000000
_cell_angle_gamma 90.000000
_cell_volume 3822.949357
_symmetry_space_group_name_H-M "C C C M"
_symmetry_group_IT_number 66
_symmetry_cell_setting 'orthorhombic'
loop_
_space_group_symop_operation_xyz
x,y,z
-x,-y,z
x,-y,1/2-z
-x,y,1/2-z
-x,-y,-z
x,y,-z
-x,y,1/2+z
x,-y,1/2+z
1/2+x,1/2+y,z
1/2-x,1/2-y,z
1/2+x,1/2-y,1/2-z
1/2-x,1/2+y,1/2-z
1/2-x,1/2-y,-z
1/2+x,1/2+y,-z
1/2-x,1/2+y,1/2+z
1/2+x,1/2-y,1/2+z
loop_
_atom_site_type_symbol
_atom_site_label
_atom_site_fract_x
_atom_site_fract_y
_atom_site_fract_z
Si Si1 0.871006 0.871235 0.632539
Si Si2 0.809755 0.956969 0.156710
Si Si3 0.513815 0.087334 0.437399
Si Si4 0.076703 0.295211 0.688172
Si Si5 0.000000 0.500000 0.250000
Si Si6 0.754348 0.806345 0.088635
O O1 0.725131 0.905105 0.590837
O O2 0.707152 0.847719 0.676985
O O3 0.058774 0.903891 0.661880
O O4 0.997996 0.826577 0.599190
O O5 0.660900 0.948740 0.102193
O O6 0.656106 0.968147 0.208799
O O7 0.000000 0.000000 0.151678
O O8 0.501443 0.069466 0.500000
O O9 0.625280 0.144777 0.436965
O O10 0.250000 0.250000 0.675354
O O11 0.000000 0.289357 0.750000
O O12 0.873770 0.296953 0.646147
O O13 0.750000 0.750000 0.061402
#
# Coordination Sequence:
#
# PCOD9497653 Si02
#       6
#    16  16  16  16   4  16
#     4  10  23  44  64  97 138 179 226 283 347 407
#     4  11  25  50  74 102 136 178 224 284 348 419
#     4  10  24  45  70 104 138 176 232 287 343 410
#     4  11  22  37  59  95 137 184 233 282 338 409
#     4  12  26  52  74 102 140 172 230 278 348 414
#     4  10  20  40  63  91 138 184 232 280 336 404
#
# _framework density 21.972563999999998
#
# number of rings (size 3 to 8) (size 9 to 14) (size 15 to 20)
#    0.000    1.524    1.905    2.000    0.000    3.810 
#   41.143    4.286    0.000    0.000    0.000    0.000 
#    0.000    0.000    0.000    0.000    0.000    0.000 
#
# Total GULP energy -234794.885517 kJ/mol
# GULP energy per Si atom -5590.354417 kJ/mol
# Density = 2.192255 g / cm^3
# Si number density = 21.972564 Si / 1000 Ang^3
#
#
#
# Elastic Constant Matrix: (Units=GPa)
#
#
# Indices 1 2 3 4 5 6 
#
# 1 128.0106 37.6457 61.8327 0.0000 0.0000 0.0000
# 2 37.6457 86.2800 39.1548 0.0000 0.0000 0.0000
# 3 61.8327 39.1548 145.8501 0.0000 0.0000 0.0000
# 4 0.0000 0.0000 0.0000 11.7483 0.0000 0.0000
# 5 0.0000 0.0000 0.0000 0.0000 50.9608 0.0000
# 6 0.0000 0.0000 0.0000 0.0000 0.0000 50.6521
#
#
#
# Elastic Compliance Matrix: (Units=1/GPa)
#
#
# Indices 1 2 3 4 5 6 
#
# 1 0.010422 -0.002895 -0.003641 0.000000 0.000000 0.000000
# 2 -0.002895 0.014002 -0.002532 0.000000 0.000000 0.000000
# 3 -0.003641 -0.002532 0.009080 0.000000 0.000000 0.000000
# 4 0.000000 0.000000 0.000000 0.085119 0.000000 0.000000
# 5 0.000000 0.000000 0.000000 0.000000 0.019623 0.000000
# 6 0.000000 0.000000 0.000000 0.000000 0.000000 0.019743
#
#
# Mechanical properties :
#
#
# Convention : Reuss Voigt Hill
#
# Bulk Modulus (GPa) = 65.06941 70.82302 67.94622
# Shear Modulus (GPa) = 27.58669 37.43939 32.51304
#
# Velocity S-wave (km/s) = 3.54716 4.13233 3.85087
# Velocity P-wave (km/s) = 6.81576 7.42096 7.12479
#
# Compressibility (1/GPa) = 0.01536820
#
# Stress axis : x y z
#
# Youngs Moduli (GPa) = 95.95079 71.41729 110.13575
#
# Poissons Ratio (x) = 0.20675 0.40103
# Poissons Ratio (y) = 0.27777 0.27883
# Poissons Ratio (z) = 0.34938 0.18081
#
# Static dielectric constant tensor:
#      x y z
#    x 1.811240 0.000000 0.000000 
#    y 0.000000 1.871190 0.000000 
#    z 0.000000 0.000000 1.748950 
# 
# From -- ./inp_files/54435.got.cif
#   From: 2010.05.17/outbox.cif.g08.bks.cpg/sg66_28_cif.got.tgz:54435.got - 2010.06.03 17:51:23.
