data_PCOD9497086
_publ_section_title
;
Structure prediction by ZEFSAII (Michael W. Deem and Ramdas Pophale) SiO2 
 PCOD9497086
Probable space group: C C C M
;
_chemical_formula_sum "Si O2"
_cell_formula_units_Z 88
_cell_length_a 19.249087
_cell_length_b 9.505565
_cell_length_c 23.556014
_cell_angle_alpha 90.000000
_cell_angle_beta 90.000000
_cell_angle_gamma 90.000000
_cell_volume 4310.125095
_symmetry_space_group_name_H-M "C C C M"
_symmetry_group_IT_number 66
_symmetry_cell_setting 'orthorhombic'
loop_
_space_group_symop_operation_xyz
x,y,z
-x,-y,z
x,-y,1/2-z
-x,y,1/2-z
-x,-y,-z
x,y,-z
-x,y,1/2+z
x,-y,1/2+z
1/2+x,1/2+y,z
1/2-x,1/2-y,z
1/2+x,1/2-y,1/2-z
1/2-x,1/2+y,1/2-z
1/2-x,1/2-y,-z
1/2+x,1/2+y,-z
1/2-x,1/2+y,1/2+z
1/2+x,1/2-y,1/2+z
loop_
_atom_site_type_symbol
_atom_site_label
_atom_site_fract_x
_atom_site_fract_y
_atom_site_fract_z
Si Si1 0.792639 0.481924 0.627434
Si Si2 0.382972 0.220907 0.337079
Si Si3 0.000000 0.500000 0.328230
Si Si4 0.302299 0.068154 0.000000
Si Si5 0.626185 0.531184 0.878115
Si Si6 0.645970 0.389078 0.500000
Si Si7 0.887158 0.281090 0.703519
O O1 0.813233 0.635363 0.648903
O O2 0.823666 0.476512 0.563388
O O3 0.710397 0.457308 0.626002
O O4 0.826790 0.365334 0.669151
O O5 0.444337 0.110805 0.354720
O O6 0.392345 0.370148 0.366703
O O7 0.377087 0.248804 0.269591
O O8 0.949558 0.391990 0.297208
O O9 0.325697 0.230422 0.000000
O O10 0.220029 0.030026 0.000000
O O11 0.607232 0.577678 0.941828
O O12 0.597269 0.640451 0.831925
#
# Coordination Sequence:
#
# PCOD9497086 Si02
#       7
#    16  16   8   8  16   8  16
#     4  10  20  35  58  88 119 153 186 227 283 343
#     4  11  23  37  57  86 118 150 188 239 285 334
#     4  10  23  44  60  77 108 155 204 232 273 340
#     4   9  16  33  59  80 111 162 198 214 265 349
#     4  11  22  35  59  90 117 149 186 233 291 337
#     4   9  18  35  55  82 118 150 192 232 266 342
#     4  11  21  37  61  83 115 154 188 234 284 341
#
# _framework density 20.417041000000001
#
# number of rings (size 3 to 8) (size 9 to 14) (size 15 to 20)
#    0.000    1.636    1.818    4.909    0.000    5.818 
#    0.000    4.545    0.000   20.727    0.000    0.000 
#    0.000    0.000    0.000    0.000    0.000    0.000 
#
# Total GULP energy -245156.109364 kJ/mol
# GULP energy per Si atom -5571.729758 kJ/mol
# Density = 2.037057 g / cm^3
# Si number density = 20.417041 Si / 1000 Ang^3
#
#
#
# Elastic Constant Matrix: (Units=GPa)
#
#
# Indices 1 2 3 4 5 6 
#
# 1 33.9544 4.9995 15.8455 0.0000 0.0000 0.0000
# 2 4.9995 127.8858 44.2715 0.0000 0.0000 0.0000
# 3 15.8455 44.2715 120.5079 0.0000 0.0000 0.0000
# 4 0.0000 0.0000 0.0000 85.4933 0.0000 0.0000
# 5 0.0000 0.0000 0.0000 0.0000 20.7335 0.0000
# 6 0.0000 0.0000 0.0000 0.0000 0.0000 -5.3415
#
#
#
# Elastic Compliance Matrix: (Units=1/GPa)
#
#
# Indices 1 2 3 4 5 6 
#
# 1 0.031383 0.000231 -0.004211 0.000000 0.000000 0.000000
# 2 0.000231 0.008961 -0.003322 0.000000 0.000000 0.000000
# 3 -0.004211 -0.003322 0.010072 0.000000 0.000000 0.000000
# 4 0.000000 0.000000 0.000000 0.011697 0.000000 0.000000
# 5 0.000000 0.000000 0.000000 0.000000 0.048231 0.000000
# 6 0.000000 0.000000 0.000000 0.000000 0.000000 -0.187213
#
#
# Mechanical properties :
#
#
# Convention : Reuss Voigt Hill
#
# Bulk Modulus (GPa) = 27.92485 45.84234 36.88359
# Shear Modulus (GPa) = -99.34789 34.65918 -32.34436
#
# Velocity S-wave (km/s) = -6.98319 4.12462 -3.98450
# Velocity P-wave (km/s) = 7.16331 6.72198 1.75043
#
# Compressibility (1/GPa) = 0.03581040
#
# Stress axis : x y z
#
# Youngs Moduli (GPa) = 31.86487 111.60038 99.28057
#
# Poissons Ratio (x) = -0.02578 0.41810
# Poissons Ratio (y) = -0.00736 0.32983
# Poissons Ratio (z) = 0.13419 0.37076
#
# Static dielectric constant tensor:
#      x y z
#    x 1.775340 0.000000 0.000000 
#    y 0.000000 1.706600 0.000000 
#    z 0.000000 0.000000 1.753570 
# 
# From -- ./inp_files/59409.got.cif
#   From: 2010.05.17/outbox.cif.g08.bks.cpg/sg66_30_cif.got.tgz:59409.got - 2010.06.03 17:51:23.
