data_PCOD9497736
_publ_section_title
;
Structure prediction by ZEFSAII (Michael W. Deem and Ramdas Pophale) SiO2 
 PCOD9497736
Probable space group: C C C M
;
_chemical_formula_sum "Si O2"
_cell_formula_units_Z 84
_cell_length_a 24.237151
_cell_length_b 12.674828
_cell_length_c 10.945060
_cell_angle_alpha 90.000000
_cell_angle_beta 90.000000
_cell_angle_gamma 90.000000
_cell_volume 3362.341259
_symmetry_space_group_name_H-M "C C C M"
_symmetry_group_IT_number 66
_symmetry_cell_setting 'orthorhombic'
loop_
_space_group_symop_operation_xyz
x,y,z
-x,-y,z
x,-y,1/2-z
-x,y,1/2-z
-x,-y,-z
x,y,-z
-x,y,1/2+z
x,-y,1/2+z
1/2+x,1/2+y,z
1/2-x,1/2-y,z
1/2+x,1/2-y,1/2-z
1/2-x,1/2+y,1/2-z
1/2-x,1/2-y,-z
1/2+x,1/2+y,-z
1/2-x,1/2+y,1/2+z
1/2+x,1/2-y,1/2+z
loop_
_atom_site_type_symbol
_atom_site_label
_atom_site_fract_x
_atom_site_fract_y
_atom_site_fract_z
Si Si1 0.546126 0.602323 0.000000
Si Si2 0.944130 0.351534 0.500000
Si Si3 0.850256 0.108224 0.742766
Si Si4 0.376501 0.396317 0.500000
Si Si5 0.121668 0.653791 0.735747
Si Si6 0.428486 0.174257 0.500000
Si Si7 0.000000 0.000000 0.750000
Si Si8 0.763981 0.625634 0.134727
O O1 0.518483 0.582516 0.136465
O O2 0.561075 0.724120 0.000000
O O3 0.595312 0.512617 0.000000
O O4 0.915136 0.390693 0.624776
O O5 0.009458 0.367404 0.500000
O O6 0.838779 0.125164 0.884487
O O7 0.874971 0.219696 0.707517
O O8 0.795785 0.082035 0.668108
O O9 0.886277 0.000000 0.750000
O O10 0.423022 0.303888 0.500000
O O11 0.099398 0.641204 0.872275
O O12 0.184463 0.613902 0.723461
O O13 0.750000 0.750000 0.131703
O O14 0.781162 0.590947 0.000000
#
# Coordination Sequence:
#
# PCOD9497736 Si02
#       8
#     8   8  16   8  16   8   4  16
#     4  11  24  34  51  65 108 139 194 225 274 301
#     4  12  22  33  53  74 103 146 185 225 257 310
#     4  10  21  33  53  76 104 135 179 224 262 316
#     4  10  22  36  43  72 103 141 179 216 271 309
#     4  10  21  36  53  77 108 143 178 221 272 317
#     4  10  22  34  50  73 105 138 182 222 257 312
#     4  10  24  38  44  70  96 154 188 238 266 306
#     4   9  18  35  55  76 101 137 178 218 273 325
#
# _framework density 24.982593999999999
#
# number of rings (size 3 to 8) (size 9 to 14) (size 15 to 20)
#    0.000    1.905    0.952    2.857   12.000    0.762 
#    0.000    3.810    0.000    0.000    0.000    0.000 
#    0.000    4.571    0.000    0.000    0.000    0.000 
#
# Total GULP energy -233925.488903 kJ/mol
# GULP energy per Si atom -5569.654498 kJ/mol
# Density = 2.492573 g / cm^3
# Si number density = 24.982594 Si / 1000 Ang^3
#
#
#
# Elastic Constant Matrix: (Units=GPa)
#
#
# Indices 1 2 3 4 5 6 
#
# 1 76.6437 -1.6629 112.0468 0.0000 0.0000 0.0000
# 2 -1.6629 107.4410 -5.4732 0.0000 0.0000 0.0000
# 3 112.0468 -5.4732 204.5653 0.0000 0.0000 0.0000
# 4 0.0000 0.0000 0.0000 -5.5585 0.0000 0.0000
# 5 0.0000 0.0000 0.0000 0.0000-4003.2549 0.0000
# 6 0.0000 0.0000 0.0000 0.0000 0.0000 6.7958
#
#
#
# Elastic Compliance Matrix: (Units=1/GPa)
#
#
# Indices 1 2 3 4 5 6 
#
# 1 0.065550 -0.000816 -0.035926 0.000000 0.000000 0.000000
# 2 -0.000816 0.009330 0.000696 0.000000 0.000000 0.000000
# 3 -0.035926 0.000696 0.024585 0.000000 0.000000 0.000000
# 4 0.000000 0.000000 0.000000 -0.179903 0.000000 0.000000
# 5 0.000000 0.000000 0.000000 0.000000 -0.000250 0.000000
# 6 0.000000 0.000000 0.000000 0.000000 0.000000 0.147150
#
#
# Mechanical properties :
#
#
# Convention : Reuss Voigt Hill
#
# Bulk Modulus (GPa) = 36.52932 66.49681 51.51307
# Shear Modulus (GPa) = 33.85783 -781.48756 -373.81487
#
# Velocity S-wave (km/s) = 3.68538 -17.70570 -12.24561
# Velocity P-wave (km/s) = 5.72389 19.78166 13.38938
#
# Compressibility (1/GPa) = 0.02737527
#
# Stress axis : x y z
#
# Youngs Moduli (GPa) = 15.25552 107.17786 40.67579
#
# Poissons Ratio (x) = 0.08741 1.46130
# Poissons Ratio (y) = 0.01244 -0.02832
# Poissons Ratio (z) = 0.54806 -0.07463
#
# Static dielectric constant tensor:
#      x y z
#    x 2.064170 0.000000 0.000000 
#    y 0.000000 2.027610 0.000000 
#    z 0.000000 0.000000 2.012090 
# 
# From -- ./inp_files/17824.got.cif
#   From: 2010.05.17/outbox.cif.g08.bks.cpg/sg66_9_cif.got.tgz:17824.got - 2010.06.03 17:51:23.
