data_PCOD9497313
_publ_section_title
;
Structure prediction by ZEFSAII (Michael W. Deem and Ramdas Pophale) SiO2 
 PCOD9497313
Probable space group: C C C M
;
_chemical_formula_sum "Si O2"
_cell_formula_units_Z 48
_cell_length_a 16.734454
_cell_length_b 4.947447
_cell_length_c 27.523459
_cell_angle_alpha 90.000000
_cell_angle_beta 90.000000
_cell_angle_gamma 90.000000
_cell_volume 2278.744903
_symmetry_space_group_name_H-M "C C C M"
_symmetry_group_IT_number 66
_symmetry_cell_setting 'orthorhombic'
loop_
_space_group_symop_operation_xyz
x,y,z
-x,-y,z
x,-y,1/2-z
-x,y,1/2-z
-x,-y,-z
x,y,-z
-x,y,1/2+z
x,-y,1/2+z
1/2+x,1/2+y,z
1/2-x,1/2-y,z
1/2+x,1/2-y,1/2-z
1/2-x,1/2+y,1/2-z
1/2-x,1/2-y,-z
1/2+x,1/2+y,-z
1/2-x,1/2+y,1/2+z
1/2+x,1/2-y,1/2+z
loop_
_atom_site_type_symbol
_atom_site_label
_atom_site_fract_x
_atom_site_fract_y
_atom_site_fract_z
Si Si1 0.191547 0.998166 0.000000
Si Si2 0.343326 0.154350 0.144893
Si Si3 0.192002 0.500000 0.250000
Si Si4 0.087911 0.879659 0.094583
O O1 0.250000 0.750000 0.000000
O O2 0.139011 0.973231 0.951806
O O3 0.250000 0.250000 0.000000
O O4 0.250000 0.250000 0.135776
O O5 0.352372 0.049654 0.199592
O O6 0.387783 0.436599 0.139855
O O7 0.383998 0.927577 0.109013
O O8 0.250000 0.250000 0.259110
O O9 0.000000 0.000000 0.083254
#
# Coordination Sequence:
#
# PCOD9497313 Si02
#       4
#     8  16   8  16
#     4  12  25  42  67  92 117 160 213 256 301 370
#     4  11  22  41  66  92 123 166 214 256 303 369
#     4  10  20  36  63  94 121 158 212 264 300 348
#     4  12  25  42  62  93 130 163 199 257 321 374
#
# _framework density 21.064228
#
# number of rings (size 3 to 8) (size 9 to 14) (size 15 to 20)
#    0.000    0.667    0.000   11.500    0.000    0.000 
#    0.000   10.000    0.000    0.000    0.000    0.000 
#    0.000    0.000    0.000    0.000    0.000    0.000 
#
# Total GULP energy -133713.770865 kJ/mol
# GULP energy per Si atom -5571.407119 kJ/mol
# Density = 2.101628 g / cm^3
# Si number density = 21.064228 Si / 1000 Ang^3
#
#
#
# Elastic Constant Matrix: (Units=GPa)
#
#
# Indices 1 2 3 4 5 6 
#
# 1 131.9795 34.5482 27.1612 0.0000 0.0000 0.0000
# 2 34.5482 140.2168 11.8331 0.0000 0.0000 0.0000
# 3 27.1612 11.8331 99.0546 0.0000 0.0000 0.0000
# 4 0.0000 0.0000 0.0000 32.6619 0.0000 0.0000
# 5 0.0000 0.0000 0.0000 0.0000 -7.0438 0.0000
# 6 0.0000 0.0000 0.0000 0.0000 0.0000 30.5244
#
#
#
# Elastic Compliance Matrix: (Units=1/GPa)
#
#
# Indices 1 2 3 4 5 6 
#
# 1 0.008513 -0.001920 -0.002105 0.000000 0.000000 0.000000
# 2 -0.001920 0.007637 -0.000386 0.000000 0.000000 0.000000
# 3 -0.002105 -0.000386 0.010719 0.000000 0.000000 0.000000
# 4 0.000000 0.000000 0.000000 0.030617 0.000000 0.000000
# 5 0.000000 0.000000 0.000000 0.000000 -0.141969 0.000000
# 6 0.000000 0.000000 0.000000 0.000000 0.000000 0.032761
#
#
# Mechanical properties :
#
#
# Convention : Reuss Voigt Hill
#
# Bulk Modulus (GPa) = 55.40924 57.59287 56.50105
# Shear Modulus (GPa) = -135.55249 31.07572 -52.23839
#
# Velocity S-wave (km/s) = -8.03067 3.84511 -4.98532
# Velocity P-wave (km/s) = 7.72185 6.86397 2.50128
#
# Compressibility (1/GPa) = 0.01804753
#
# Stress axis : x y z
#
# Youngs Moduli (GPa) = 117.47208 130.93443 93.29482
#
# Poissons Ratio (x) = 0.25137 0.19637
# Poissons Ratio (y) = 0.22552 0.03601
# Poissons Ratio (z) = 0.24726 0.05053
#
# Static dielectric constant tensor:
#      x y z
#    x 1.901770 0.000000 0.000000 
#    y 0.000000 1.762180 0.000000 
#    z 0.000000 0.000000 1.647410 
# 
# From -- ./inp_files/64119.got.cif
#   From: 2010.05.17/outbox.cif.g08.bks.cpg/sg66_33_cif.got.tgz:64119.got - 2010.06.03 17:51:23.
