data_PCOD9497451
_publ_section_title
;
Structure prediction by ZEFSAII (Michael W. Deem and Ramdas Pophale) SiO2 
 PCOD9497451
Probable space group: C C C M
;
_chemical_formula_sum "Si O2"
_cell_formula_units_Z 88
_cell_length_a 20.002256
_cell_length_b 11.167116
_cell_length_c 16.746340
_cell_angle_alpha 90.000000
_cell_angle_beta 90.000000
_cell_angle_gamma 90.000000
_cell_volume 3740.588318
_symmetry_space_group_name_H-M "C C C M"
_symmetry_group_IT_number 66
_symmetry_cell_setting 'orthorhombic'
loop_
_space_group_symop_operation_xyz
x,y,z
-x,-y,z
x,-y,1/2-z
-x,y,1/2-z
-x,-y,-z
x,y,-z
-x,y,1/2+z
x,-y,1/2+z
1/2+x,1/2+y,z
1/2-x,1/2-y,z
1/2+x,1/2-y,1/2-z
1/2-x,1/2+y,1/2-z
1/2-x,1/2-y,-z
1/2+x,1/2+y,-z
1/2-x,1/2+y,1/2+z
1/2+x,1/2-y,1/2+z
loop_
_atom_site_type_symbol
_atom_site_label
_atom_site_fract_x
_atom_site_fract_y
_atom_site_fract_z
Si Si1 0.860592 0.565969 0.089627
Si Si2 0.515407 0.367573 0.910147
Si Si3 0.630381 0.673502 0.126130
Si Si4 0.129995 0.765671 0.804413
Si Si5 0.226389 0.035508 0.654867
Si Si6 0.888859 0.500000 0.250000
O O1 0.834996 0.702303 0.102191
O O2 0.795305 0.485824 0.108476
O O3 0.913686 0.539474 0.161279
O O4 0.884554 0.546860 0.000000
O O5 0.500000 0.500000 0.875324
O O6 0.441399 0.315269 0.913953
O O7 0.565741 0.287833 0.859309
O O8 0.542389 0.383353 0.000000
O O9 0.616899 0.669194 0.220639
O O10 0.673916 0.555817 0.113046
O O11 0.191986 0.834852 0.843775
O O12 0.141087 0.629686 0.776234
O O13 0.234981 0.000000 0.750000
#
# Coordination Sequence:
#
# PCOD9497451 Si02
#       6
#    16  16  16  16  16   8
#     4  11  23  40  64  93 134 180 225 284 351 425
#     4  11  22  37  62  98 139 173 225 294 353 422
#     4  10  21  38  63  95 129 174 224 280 348 422
#     4  10  22  40  66  92 126 179 227 284 348 416
#     4  10  20  37  63  93 129 169 220 282 348 418
#     4  10  24  46  65  94 134 179 238 286 340 434
#
# _framework density 23.525711000000001
#
# number of rings (size 3 to 8) (size 9 to 14) (size 15 to 20)
#    0.000    1.636    2.727    1.636    0.000    5.091 
#    0.000    8.182    0.000    5.455    0.000    0.000 
#    0.000    0.000    0.000    0.000    0.000    0.000 
#
# Total GULP energy -245093.571292 kJ/mol
# GULP energy per Si atom -5570.308438 kJ/mol
# Density = 2.347217 g / cm^3
# Si number density = 23.525711 Si / 1000 Ang^3
#
#
#
# Elastic Constant Matrix: (Units=GPa)
#
#
# Indices 1 2 3 4 5 6 
#
# 1 75.0994 20.1723 27.1527 0.0000 0.0000 0.0000
# 2 20.1723 110.8025 22.8211 0.0000 0.0000 0.0000
# 3 27.1527 22.8211 139.7188 0.0000 0.0000 0.0000
# 4 0.0000 0.0000 0.0000 7.0260 0.0000 0.0000
# 5 0.0000 0.0000 0.0000 0.0000 -100.9356 0.0000
# 6 0.0000 0.0000 0.0000 0.0000 0.0000 11.6327
#
#
#
# Elastic Compliance Matrix: (Units=1/GPa)
#
#
# Indices 1 2 3 4 5 6 
#
# 1 0.014813 -0.002177 -0.002523 0.000000 0.000000 0.000000
# 2 -0.002177 0.009659 -0.001155 0.000000 0.000000 0.000000
# 3 -0.002523 -0.001155 0.007836 0.000000 0.000000 0.000000
# 4 0.000000 0.000000 0.000000 0.142328 0.000000 0.000000
# 5 0.000000 0.000000 0.000000 0.000000 -0.009907 0.000000
# 6 0.000000 0.000000 0.000000 0.000000 0.000000 0.085965
#
#
# Mechanical properties :
#
#
# Convention : Reuss Voigt Hill
#
# Bulk Modulus (GPa) = 48.54714 51.76809 50.15762
# Shear Modulus (GPa) = 18.56879 0.57626 9.57252
#
# Velocity S-wave (km/s) = 2.81249 0.49546 2.01936
# Velocity P-wave (km/s) = 5.58815 4.73075 5.17723
#
# Compressibility (1/GPa) = 0.02059854
#
# Stress axis : x y z
#
# Youngs Moduli (GPa) = 67.50958 103.52795 127.61367
#
# Poissons Ratio (x) = 0.22539 0.32198
# Poissons Ratio (y) = 0.14697 0.14734
# Poissons Ratio (z) = 0.17033 0.11953
#
# Static dielectric constant tensor:
#      x y z
#    x 1.969580 0.000000 0.000000 
#    y 0.000000 1.945860 0.000000 
#    z 0.000000 0.000000 1.926140 
# 
# From -- ./inp_files/42788.got.cif
#   From: 2010.05.17/outbox.cif.g08.bks.cpg/sg66_22_cif.got.tgz:42788.got - 2010.06.03 17:51:23.
