data_PCOD9497413
_publ_section_title
;
Structure prediction by ZEFSAII (Michael W. Deem and Ramdas Pophale) SiO2 
 PCOD9497413
Probable space group: C C C M
;
_chemical_formula_sum "Si O2"
_cell_formula_units_Z 112
_cell_length_a 10.060662
_cell_length_b 33.139716
_cell_length_c 16.154373
_cell_angle_alpha 90.000000
_cell_angle_beta 90.000000
_cell_angle_gamma 90.000000
_cell_volume 5385.988816
_symmetry_space_group_name_H-M "C C C M"
_symmetry_group_IT_number 66
_symmetry_cell_setting 'orthorhombic'
loop_
_space_group_symop_operation_xyz
x,y,z
-x,-y,z
x,-y,1/2-z
-x,y,1/2-z
-x,-y,-z
x,y,-z
-x,y,1/2+z
x,-y,1/2+z
1/2+x,1/2+y,z
1/2-x,1/2-y,z
1/2+x,1/2-y,1/2-z
1/2-x,1/2+y,1/2-z
1/2-x,1/2-y,-z
1/2+x,1/2+y,-z
1/2-x,1/2+y,1/2+z
1/2+x,1/2-y,1/2+z
loop_
_atom_site_type_symbol
_atom_site_label
_atom_site_fract_x
_atom_site_fract_y
_atom_site_fract_z
Si Si1 0.630088 0.084823 0.705805
Si Si2 0.969391 0.952480 0.843566
Si Si3 0.683778 0.976751 0.092267
Si Si4 0.347401 0.156614 0.411268
Si Si5 0.165636 0.659121 0.594178
Si Si6 0.255950 0.431285 0.623354
Si Si7 0.337980 0.210498 0.251899
O O1 0.500000 0.103322 0.750000
O O2 0.586598 0.044620 0.656939
O O3 0.688657 0.117117 0.642175
O O4 0.727262 0.071541 0.778558
O O5 0.823667 0.954917 0.883308
O O6 0.000000 0.937704 0.750000
O O7 0.086670 0.931646 0.895299
O O8 0.000000 0.000000 0.840256
O O9 0.703114 0.024676 0.097356
O O10 0.643484 0.965984 0.000000
O O11 0.295700 0.173128 0.500000
O O12 0.506083 0.160877 0.413070
O O13 0.311061 0.109262 0.409172
O O14 0.306037 0.179067 0.326717
O O15 0.219541 0.661483 0.500000
O O16 0.203200 0.692663 0.662051
O O17 0.500000 0.216891 0.250000
O O18 0.250000 0.250000 0.267214
#
# Coordination Sequence:
#
# PCOD9497413 Si02
#       7
#    16  16  16  16  16  16  16
#     4  12  21  38  57  83 118 162 207 252 311 367
#     4   9  18  34  55  75 102 148 201 249 304 358
#     4  11  24  37  54  83 118 159 208 267 318 364
#     4  10  20  37  61  90 121 158 204 250 301 369
#     4  10  20  38  63  89 121 161 204 250 307 379
#     4  11  20  36  60  82 113 159 210 255 305 365
#     4  10  21  41  66  96 126 162 199 245 313 385
#
# _framework density 20.794696999999999
#
# number of rings (size 3 to 8) (size 9 to 14) (size 15 to 20)
#    0.000    1.571    4.286    1.714    0.000    4.857 
#    0.000    2.857    0.000    1.714    0.000    0.000 
#    0.000    0.000    0.000    0.000    0.000    0.000 
#
# Total GULP energy -312071.245884 kJ/mol
# GULP energy per Si atom -5572.700819 kJ/mol
# Density = 2.074737 g / cm^3
# Si number density = 20.794697 Si / 1000 Ang^3
#
#
#
# Elastic Constant Matrix: (Units=GPa)
#
#
# Indices 1 2 3 4 5 6 
#
# 1 41.4383 8.5027 9.5165 0.0000 0.0000 0.0000
# 2 8.5027 94.3101 47.1100 0.0000 0.0000 0.0000
# 3 9.5165 47.1100 170.1141 0.0000 0.0000 0.0000
# 4 0.0000 0.0000 0.0000 19.8457 0.0000 0.0000
# 5 0.0000 0.0000 0.0000 0.0000 -0.9159 0.0000
# 6 0.0000 0.0000 0.0000 0.0000 0.0000 28.2768
#
#
#
# Elastic Compliance Matrix: (Units=1/GPa)
#
#
# Indices 1 2 3 4 5 6 
#
# 1 0.024702 -0.001784 -0.000888 0.000000 0.000000 0.000000
# 2 -0.001784 0.012434 -0.003344 0.000000 0.000000 0.000000
# 3 -0.000888 -0.003344 0.006854 0.000000 0.000000 0.000000
# 4 0.000000 0.000000 0.000000 0.050389 0.000000 0.000000
# 5 0.000000 0.000000 0.000000 0.000000 -1.091835 0.000000
# 6 0.000000 0.000000 0.000000 0.000000 0.000000 0.035365
#
#
# Mechanical properties :
#
#
# Convention : Reuss Voigt Hill
#
# Bulk Modulus (GPa) = 31.28888 48.45786 39.87337
# Shear Modulus (GPa) = -5.32251 25.49020 10.08385
#
# Velocity S-wave (km/s) = -1.60159 3.50495 2.20449
# Velocity P-wave (km/s) = 3.41454 6.30342 5.06913
#
# Compressibility (1/GPa) = 0.03196023
#
# Stress axis : x y z
#
# Youngs Moduli (GPa) = 40.48229 80.42230 145.89904
#
# Poissons Ratio (x) = 0.14343 0.12955
# Poissons Ratio (y) = 0.07220 0.48784
# Poissons Ratio (z) = 0.03595 0.26891
#
# Static dielectric constant tensor:
#      x y z
#    x 1.814430 0.000000 0.000000 
#    y 0.000000 1.720940 0.000000 
#    z 0.000000 0.000000 1.835870 
# 
# From -- ./inp_files/26968.got.cif
#   From: 2010.05.17/outbox.cif.g08.bks.cpg/sg66_14_cif.got.tgz:26968.got - 2010.06.03 17:51:23.
