data_PCOD9497734
_publ_section_title
;
Structure prediction by ZEFSAII (Michael W. Deem and Ramdas Pophale) SiO2 
 PCOD9497734
Probable space group: C C C M
;
_chemical_formula_sum "Si O2"
_cell_formula_units_Z 64
_cell_length_a 8.119718
_cell_length_b 14.404269
_cell_length_c 23.263337
_cell_angle_alpha 90.000000
_cell_angle_beta 90.000000
_cell_angle_gamma 90.000000
_cell_volume 2720.847380
_symmetry_space_group_name_H-M "C C C M"
_symmetry_group_IT_number 66
_symmetry_cell_setting 'orthorhombic'
loop_
_space_group_symop_operation_xyz
x,y,z
-x,-y,z
x,-y,1/2-z
-x,y,1/2-z
-x,-y,-z
x,y,-z
-x,y,1/2+z
x,-y,1/2+z
1/2+x,1/2+y,z
1/2-x,1/2-y,z
1/2+x,1/2-y,1/2-z
1/2-x,1/2+y,1/2-z
1/2-x,1/2-y,-z
1/2+x,1/2+y,-z
1/2-x,1/2+y,1/2+z
1/2+x,1/2-y,1/2+z
loop_
_atom_site_type_symbol
_atom_site_label
_atom_site_fract_x
_atom_site_fract_y
_atom_site_fract_z
Si Si1 0.762058 0.909788 0.500000
Si Si2 0.938053 0.643828 0.185021
Si Si3 0.253503 0.142213 0.375738
Si Si4 0.656918 0.613348 0.000000
Si Si5 0.384492 0.650998 0.368985
O O1 0.701383 0.861798 0.442779
O O2 0.960091 0.902015 0.500000
O O3 0.735034 0.019783 0.500000
O O4 0.756336 0.604926 0.170791
O O5 0.916716 0.746025 0.156143
O O6 0.000000 0.653440 0.250000
O O7 0.094044 0.595483 0.155538
O O8 0.250000 0.250000 0.357000
O O9 0.067385 0.105517 0.368535
O O10 0.677954 0.654411 0.064461
#
# Coordination Sequence:
#
# PCOD9497734 Si02
#       5
#     8  16  16   8  16
#     4   9  17  33  59  80 109 139 185 222 271 342
#     4  10  21  32  51  82 107 142 183 222 269 326
#     4   9  18  32  53  83 108 139 172 227 280 314
#     4   9  18  36  55  83 107 145 180 223 277 331
#     4   9  20  33  54  78 111 140 172 227 274 323
#
# _framework density 23.522082999999999
#
# number of rings (size 3 to 8) (size 9 to 14) (size 15 to 20)
#    0.000    2.750    0.000    0.375   10.500    6.000 
#    0.000    2.500    0.000    3.000    6.500    0.000 
#    0.000    0.000    0.000    0.000    0.000    0.000 
#
# Total GULP energy -178198.035640 kJ/mol
# GULP energy per Si atom -5568.688614 kJ/mol
# Density = 2.346855 g / cm^3
# Si number density = 23.522083 Si / 1000 Ang^3
#
#
#
# Elastic Constant Matrix: (Units=GPa)
#
#
# Indices 1 2 3 4 5 6 
#
# 1 167.6004 21.9703 61.6761 0.0000 0.0000 0.0000
# 2 21.9703 46.8043 -1.9145 0.0000 0.0000 0.0000
# 3 61.6761 -1.9145 126.5555 0.0000 0.0000 0.0000
# 4 0.0000 0.0000 0.0000 -129.4024 0.0000 0.0000
# 5 0.0000 0.0000 0.0000 0.0000 38.7751 0.0000
# 6 0.0000 0.0000 0.0000 0.0000 0.0000 11.6518
#
#
#
# Elastic Compliance Matrix: (Units=1/GPa)
#
#
# Indices 1 2 3 4 5 6 
#
# 1 0.007916 -0.003876 -0.003916 0.000000 0.000000 0.000000
# 2 -0.003876 0.023277 0.002241 0.000000 0.000000 0.000000
# 3 -0.003916 0.002241 0.009844 0.000000 0.000000 0.000000
# 4 0.000000 0.000000 0.000000 -0.007728 0.000000 0.000000
# 5 0.000000 0.000000 0.000000 0.000000 0.025790 0.000000
# 6 0.000000 0.000000 0.000000 0.000000 0.000000 0.085823
#
#
# Mechanical properties :
#
#
# Convention : Reuss Voigt Hill
#
# Bulk Modulus (GPa) = 33.40669 56.04711 44.72690
# Shear Modulus (GPa) = 30.11997 1.48678 15.80338
#
# Velocity S-wave (km/s) = 3.58229 0.79590 2.59482
# Velocity P-wave (km/s) = 5.59852 4.97230 5.29468
#
# Compressibility (1/GPa) = 0.02993412
#
# Stress axis : x y z
#
# Youngs Moduli (GPa) = 126.32835 42.96147 101.58257
#
# Poissons Ratio (x) = 0.16652 0.39784
# Poissons Ratio (y) = 0.48965 -0.22765
# Poissons Ratio (z) = 0.49475 -0.09628
#
# Static dielectric constant tensor:
#      x y z
#    x 2.012220 0.000000 0.000000 
#    y 0.000000 1.953070 0.000000 
#    z 0.000000 0.000000 1.856570 
# 
# From -- ./inp_files/36405.got.cif
#   From: 2010.05.17/outbox.cif.g08.bks.cpg/sg66_19_cif.got.tgz:36405.got - 2010.06.03 17:51:23.
