data_PCOD9497770
_publ_section_title
;
Structure prediction by ZEFSAII (Michael W. Deem and Ramdas Pophale) SiO2 
 PCOD9497770
Probable space group: C C C M
;
_chemical_formula_sum "Si O2"
_cell_formula_units_Z 104
_cell_length_a 22.382058
_cell_length_b 13.274035
_cell_length_c 17.718998
_cell_angle_alpha 90.000000
_cell_angle_beta 90.000000
_cell_angle_gamma 90.000000
_cell_volume 5264.318226
_symmetry_space_group_name_H-M "C C C M"
_symmetry_group_IT_number 66
_symmetry_cell_setting 'orthorhombic'
loop_
_space_group_symop_operation_xyz
x,y,z
-x,-y,z
x,-y,1/2-z
-x,y,1/2-z
-x,-y,-z
x,y,-z
-x,y,1/2+z
x,-y,1/2+z
1/2+x,1/2+y,z
1/2-x,1/2-y,z
1/2+x,1/2-y,1/2-z
1/2-x,1/2+y,1/2-z
1/2-x,1/2-y,-z
1/2+x,1/2+y,-z
1/2-x,1/2+y,1/2+z
1/2+x,1/2-y,1/2+z
loop_
_atom_site_type_symbol
_atom_site_label
_atom_site_fract_x
_atom_site_fract_y
_atom_site_fract_z
Si Si1 0.438298 0.253154 0.703451
Si Si2 0.698208 0.478020 0.414875
Si Si3 0.933827 0.524667 0.661163
Si Si4 0.329866 0.306485 0.189644
Si Si5 0.328254 0.893124 0.589032
Si Si6 0.250000 0.750000 0.183280
Si Si7 0.853982 0.800163 0.586700
O O1 0.500000 0.260741 0.750000
O O2 0.430453 0.144765 0.663708
O O3 0.388447 0.272969 0.766088
O O4 0.415256 0.319770 0.632863
O O5 0.685394 0.442389 0.500000
O O6 0.663277 0.407964 0.356894
O O7 0.768072 0.457937 0.401015
O O8 0.681480 0.594291 0.411445
O O9 0.931107 0.500000 0.750000
O O10 0.883602 0.458620 0.620347
O O11 0.000000 0.500000 0.631593
O O12 0.318166 0.212032 0.133642
O O13 0.279701 0.324731 0.254724
O O14 0.336402 0.872997 0.500000
O O15 0.193190 0.726255 0.130066
O O16 0.863562 0.769711 0.500000
#
# Coordination Sequence:
#
# PCOD9497770 Si02
#       7
#    16  16  16  16  16   8  16
#     4  11  23  42  65  89 121 163 207 258 314 374
#     4  10  22  40  60  87 130 167 203 257 316 370
#     4  11  21  40  63  84 122 164 202 257 307 373
#     4  11  20  38  61  93 123 168 208 260 304 365
#     4  11  22  35  60  94 128 166 209 254 311 375
#     4  10  21  34  59  90 124 160 204 250 307 364
#     4  10  24  42  62  91 126 164 207 259 313 375
#
# _framework density 19.755645000000001
#
# number of rings (size 3 to 8) (size 9 to 14) (size 15 to 20)
#    0.000    1.385    4.615    0.692    4.308    4.615 
#    0.000    4.615    0.000    1.846    0.000    0.000 
#    0.000    0.000    0.000    0.000    0.000    0.000 
#
# Total GULP energy -289647.980336 kJ/mol
# GULP energy per Si atom -5570.153468 kJ/mol
# Density = 1.971068 g / cm^3
# Si number density = 19.755645 Si / 1000 Ang^3
#
#
#
# Elastic Constant Matrix: (Units=GPa)
#
#
# Indices 1 2 3 4 5 6 
#
# 1 78.3312 23.8614 53.2304 0.0000 0.0000 0.0000
# 2 23.8614 42.2563 22.1977 0.0000 0.0000 0.0000
# 3 53.2304 22.1977 124.3378 0.0000 0.0000 0.0000
# 4 0.0000 0.0000 0.0000 11.1345 0.0000 0.0000
# 5 0.0000 0.0000 0.0000 0.0000 38.7712 0.0000
# 6 0.0000 0.0000 0.0000 0.0000 0.0000 23.7568
#
#
#
# Elastic Compliance Matrix: (Units=1/GPa)
#
#
# Indices 1 2 3 4 5 6 
#
# 1 0.019937 -0.007475 -0.007201 0.000000 0.000000 0.000000
# 2 -0.007475 0.028917 -0.001962 0.000000 0.000000 0.000000
# 3 -0.007201 -0.001962 0.011476 0.000000 0.000000 0.000000
# 4 0.000000 0.000000 0.000000 0.089811 0.000000 0.000000
# 5 0.000000 0.000000 0.000000 0.000000 0.025792 0.000000
# 6 0.000000 0.000000 0.000000 0.000000 0.000000 0.042093
#
#
# Mechanical properties :
#
#
# Convention : Reuss Voigt Hill
#
# Bulk Modulus (GPa) = 36.96437 49.27825 43.12131
# Shear Modulus (GPa) = 19.20716 24.44155 21.82435
#
# Velocity S-wave (km/s) = 3.12145 3.52119 3.32733
# Velocity P-wave (km/s) = 5.63407 6.44436 6.05279
#
# Compressibility (1/GPa) = 0.02705308
#
# Stress axis : x y z
#
# Youngs Moduli (GPa) = 50.15897 34.58159 87.14190
#
# Poissons Ratio (x) = 0.25851 0.62747
# Poissons Ratio (y) = 0.37496 0.17099
# Poissons Ratio (z) = 0.36117 0.06786
#
# Static dielectric constant tensor:
#      x y z
#    x 1.725100 0.000000 0.000000 
#    y 0.000000 1.798040 0.000000 
#    z 0.000000 0.000000 1.724870 
# 
# From -- ./inp_files/42940.got.cif
#   From: 2010.05.17/outbox.cif.g08.bks.cpg/sg66_22_cif.got.tgz:42940.got - 2010.06.03 17:51:23.
