data_PCOD9497260
_publ_section_title
;
Structure prediction by ZEFSAII (Michael W. Deem and Ramdas Pophale) SiO2 
 PCOD9497260
Probable space group: C C C M
;
_chemical_formula_sum "Si O2"
_cell_formula_units_Z 88
_cell_length_a 18.457953
_cell_length_b 9.232256
_cell_length_c 22.385187
_cell_angle_alpha 90.000000
_cell_angle_beta 90.000000
_cell_angle_gamma 90.000000
_cell_volume 3814.627198
_symmetry_space_group_name_H-M "C C C M"
_symmetry_group_IT_number 66
_symmetry_cell_setting 'orthorhombic'
loop_
_space_group_symop_operation_xyz
x,y,z
-x,-y,z
x,-y,1/2-z
-x,y,1/2-z
-x,-y,-z
x,y,-z
-x,y,1/2+z
x,-y,1/2+z
1/2+x,1/2+y,z
1/2-x,1/2-y,z
1/2+x,1/2-y,1/2-z
1/2-x,1/2+y,1/2-z
1/2-x,1/2-y,-z
1/2+x,1/2+y,-z
1/2-x,1/2+y,1/2+z
1/2+x,1/2-y,1/2+z
loop_
_atom_site_type_symbol
_atom_site_label
_atom_site_fract_x
_atom_site_fract_y
_atom_site_fract_z
Si Si1 0.000000 0.500000 0.842969
Si Si2 0.194268 0.854498 0.274653
Si Si3 0.712963 0.982169 0.569488
Si Si4 0.087074 0.699205 0.566184
Si Si5 0.379714 0.791529 0.837772
Si Si6 0.123097 0.011233 0.882895
O O1 0.041818 0.386866 0.885204
O O2 0.060160 0.599141 0.812470
O O3 0.250000 0.750000 0.307277
O O4 0.165392 0.768656 0.217741
O O5 0.132395 0.908978 0.318830
O O6 0.231499 0.000000 0.250000
O O7 0.711611 0.933883 0.500000
O O8 0.669226 0.875662 0.613799
O O9 0.668790 0.134053 0.570910
O O10 0.795067 0.990226 0.592386
O O11 0.060393 0.662414 0.500000
O O12 0.085659 0.870708 0.575876
O O13 0.409458 0.646908 0.870890
#
# Coordination Sequence:
#
# PCOD9497260 Si02
#       6
#     8  16  16  16  16  16
#     4  10  23  44  59  74 110 160 208 246 292 356
#     4  10  20  36  60  89 122 152 187 239 300 366
#     4  10  20  36  60  93 130 161 195 245 307 372
#     4  10  21  38  60  85 118 157 197 244 298 360
#     4  10  22  39  59  85 118 161 204 246 296 355
#     4  11  21  35  60  94 122 150 193 248 310 364
#
# _framework density 23.069095999999998
#
# number of rings (size 3 to 8) (size 9 to 14) (size 15 to 20)
#    0.000    1.818    0.000    5.182    0.000    6.545 
#    0.000    2.727    0.000    3.273    0.000    0.000 
#    0.000    0.000    0.000    0.000    0.000    0.000 
#
# Total GULP energy -245999.923768 kJ/mol
# GULP energy per Si atom -5590.907358 kJ/mol
# Density = 2.301659 g / cm^3
# Si number density = 23.069096 Si / 1000 Ang^3
#
#
#
# Elastic Constant Matrix: (Units=GPa)
#
#
# Indices 1 2 3 4 5 6 
#
# 1 58.1433 41.6843 10.0772 0.0000 0.0000 0.0000
# 2 41.6843 135.0888 24.0160 0.0000 0.0000 0.0000
# 3 10.0772 24.0160 93.2653 0.0000 0.0000 0.0000
# 4 0.0000 0.0000 0.0000 85.0128 0.0000 0.0000
# 5 0.0000 0.0000 0.0000 0.0000 4.8852 0.0000
# 6 0.0000 0.0000 0.0000 0.0000 0.0000 23.9254
#
#
#
# Elastic Compliance Matrix: (Units=1/GPa)
#
#
# Indices 1 2 3 4 5 6 
#
# 1 0.022123 -0.006709 -0.000663 0.000000 0.000000 0.000000
# 2 -0.006709 0.009792 -0.001797 0.000000 0.000000 0.000000
# 3 -0.000663 -0.001797 0.011256 0.000000 0.000000 0.000000
# 4 0.000000 0.000000 0.000000 0.011763 0.000000 0.000000
# 5 0.000000 0.000000 0.000000 0.000000 0.204698 0.000000
# 6 0.000000 0.000000 0.000000 0.000000 0.000000 0.041797
#
#
# Mechanical properties :
#
#
# Convention : Reuss Voigt Hill
#
# Bulk Modulus (GPa) = 40.26520 48.67247 44.46884
# Shear Modulus (GPa) = 15.24184 36.81268 26.02726
#
# Velocity S-wave (km/s) = 2.57320 3.99903 3.36256
# Velocity P-wave (km/s) = 5.13036 6.51670 5.86464
#
# Compressibility (1/GPa) = 0.02483534
#
# Stress axis : x y z
#
# Youngs Moduli (GPa) = 45.20096 102.12355 88.83869
#
# Poissons Ratio (x) = 0.68512 0.05889
# Poissons Ratio (y) = 0.30324 0.15961
# Poissons Ratio (z) = 0.02996 0.18348
#
# Static dielectric constant tensor:
#      x y z
#    x 1.867100 0.000000 0.000000 
#    y 0.000000 1.896080 0.000000 
#    z 0.000000 0.000000 1.864230 
# 
# From -- ./inp_files/59383.got.cif
#   From: 2010.05.17/outbox.cif.g08.bks.cpg/sg66_30_cif.got.tgz:59383.got - 2010.06.03 17:51:23.
