data_PCOD9497888
_publ_section_title
;
Structure prediction by ZEFSAII (Michael W. Deem and Ramdas Pophale) SiO2 
 PCOD9497888
Probable space group: C C C M
;
_chemical_formula_sum "Si O2"
_cell_formula_units_Z 96
_cell_length_a 11.718696
_cell_length_b 25.454194
_cell_length_c 14.910646
_cell_angle_alpha 90.000000
_cell_angle_beta 90.000000
_cell_angle_gamma 90.000000
_cell_volume 4447.696020
_symmetry_space_group_name_H-M "C C C M"
_symmetry_group_IT_number 66
_symmetry_cell_setting 'orthorhombic'
loop_
_space_group_symop_operation_xyz
x,y,z
-x,-y,z
x,-y,1/2-z
-x,y,1/2-z
-x,-y,-z
x,y,-z
-x,y,1/2+z
x,-y,1/2+z
1/2+x,1/2+y,z
1/2-x,1/2-y,z
1/2+x,1/2-y,1/2-z
1/2-x,1/2+y,1/2-z
1/2-x,1/2-y,-z
1/2+x,1/2+y,-z
1/2-x,1/2+y,1/2+z
1/2+x,1/2-y,1/2+z
loop_
_atom_site_type_symbol
_atom_site_label
_atom_site_fract_x
_atom_site_fract_y
_atom_site_fract_z
Si Si1 0.627676 0.251545 0.102968
Si Si2 0.773307 0.382584 0.603132
Si Si3 0.451050 0.333246 0.897088
Si Si4 0.197543 0.444803 0.282153
Si Si5 0.027194 0.644197 0.150036
Si Si6 0.949227 0.053881 0.850667
O O1 0.750000 0.250000 0.149808
O O2 0.535869 0.290973 0.145539
O O3 0.586196 0.191975 0.100798
O O4 0.645718 0.270773 0.000000
O O5 0.745243 0.399057 0.500000
O O6 0.680384 0.338725 0.631553
O O7 0.762534 0.422331 0.685669
O O8 0.906205 0.367971 0.605292
O O9 0.508439 0.391165 0.892066
O O10 0.440221 0.316527 0.000000
O O11 0.145722 0.500000 0.250000
O O12 0.108352 0.406303 0.331783
O O13 0.312282 0.449988 0.341346
O O14 0.000000 0.663965 0.250000
O O15 0.000000 0.055901 0.750000
O O16 0.000000 0.000000 0.891366
#
# Coordination Sequence:
#
# PCOD9497888 Si02
#       6
#    16  16  16  16  16  16
#     4  10  21  40  60  83 118 156 198 249 306 366
#     4  10  21  39  60  86 119 156 206 255 301 365
#     4  10  21  36  60  90 120 162 203 250 311 367
#     4  11  21  40  63  87 123 161 203 256 315 371
#     4  10  23  39  56  85 116 154 201 248 305 359
#     4  11  19  35  60  89 120 157 198 248 313 368
#
# _framework density 21.584209999999999
#
# number of rings (size 3 to 8) (size 9 to 14) (size 15 to 20)
#    0.000    1.667    3.333    1.500    0.000    4.667 
#    6.000    6.667    0.000    0.500    0.000    0.000 
#    0.000    0.000    0.000    0.000    0.000    0.000 
#
# Total GULP energy -267477.691538 kJ/mol
# GULP energy per Si atom -5572.451907 kJ/mol
# Density = 2.153508 g / cm^3
# Si number density = 21.584210 Si / 1000 Ang^3
#
#
#
# Elastic Constant Matrix: (Units=GPa)
#
#
# Indices 1 2 3 4 5 6 
#
# 1 175.4323 80.0652 17.9117 0.0000 0.0000 0.0000
# 2 80.0652 114.5717 2.8545 0.0000 0.0000 0.0000
# 3 17.9117 2.8545 53.0750 0.0000 0.0000 0.0000
# 4 0.0000 0.0000 0.0000 26.8334 0.0000 0.0000
# 5 0.0000 0.0000 0.0000 0.0000 9.2462 0.0000
# 6 0.0000 0.0000 0.0000 0.0000 0.0000 26.2016
#
#
#
# Elastic Compliance Matrix: (Units=1/GPa)
#
#
# Indices 1 2 3 4 5 6 
#
# 1 0.008718 -0.006027 -0.002618 0.000000 0.000000 0.000000
# 2 -0.006027 0.012907 0.001340 0.000000 0.000000 0.000000
# 3 -0.002618 0.001340 0.019653 0.000000 0.000000 0.000000
# 4 0.000000 0.000000 0.000000 0.037267 0.000000 0.000000
# 5 0.000000 0.000000 0.000000 0.000000 0.108153 0.000000
# 6 0.000000 0.000000 0.000000 0.000000 0.000000 0.038166
#
#
# Mechanical properties :
#
#
# Convention : Reuss Voigt Hill
#
# Bulk Modulus (GPa) = 37.49967 60.52688 49.01327
# Shear Modulus (GPa) = 20.13182 28.60608 24.36895
#
# Velocity S-wave (km/s) = 3.05734 3.64445 3.36373
# Velocity P-wave (km/s) = 5.46576 6.76849 6.15170
#
# Compressibility (1/GPa) = 0.02666690
#
# Stress axis : x y z
#
# Youngs Moduli (GPa) = 114.70114 77.47859 50.88351
#
# Poissons Ratio (x) = 0.46699 0.13322
# Poissons Ratio (y) = 0.69134 -0.06818
# Poissons Ratio (z) = 0.30030 -0.10382
#
# Static dielectric constant tensor:
#      x y z
#    x 1.835940 0.000000 0.000000 
#    y 0.000000 1.844850 0.000000 
#    z 0.000000 0.000000 1.841440 
# 
# From -- ./inp_files/38818.got.cif
#   From: 2010.05.17/outbox.cif.g08.bks.cpg/sg66_20_cif.got.tgz:38818.got - 2010.06.03 17:51:23.
