data_PCOD9497617
_publ_section_title
;
Structure prediction by ZEFSAII (Michael W. Deem and Ramdas Pophale) SiO2 
 PCOD9497617
Probable space group: C C C M
;
_chemical_formula_sum "Si O2"
_cell_formula_units_Z 104
_cell_length_a 17.147549
_cell_length_b 16.890211
_cell_length_c 15.763791
_cell_angle_alpha 90.000000
_cell_angle_beta 90.000000
_cell_angle_gamma 90.000000
_cell_volume 4565.599330
_symmetry_space_group_name_H-M "C C C M"
_symmetry_group_IT_number 66
_symmetry_cell_setting 'orthorhombic'
loop_
_space_group_symop_operation_xyz
x,y,z
-x,-y,z
x,-y,1/2-z
-x,y,1/2-z
-x,-y,-z
x,y,-z
-x,y,1/2+z
x,-y,1/2+z
1/2+x,1/2+y,z
1/2-x,1/2-y,z
1/2+x,1/2-y,1/2-z
1/2-x,1/2+y,1/2-z
1/2-x,1/2-y,-z
1/2+x,1/2+y,-z
1/2-x,1/2+y,1/2+z
1/2+x,1/2-y,1/2+z
loop_
_atom_site_type_symbol
_atom_site_label
_atom_site_fract_x
_atom_site_fract_y
_atom_site_fract_z
Si Si1 0.866927 0.025375 0.841317
Si Si2 0.835103 0.216862 0.377450
Si Si3 0.091993 0.634305 0.155643
Si Si4 0.332267 0.292474 0.674510
Si Si5 0.418140 0.123517 0.140744
Si Si6 0.293693 0.004843 0.594105
Si Si7 0.887607 0.073506 0.500000
O O1 0.853040 0.119574 0.854649
O O2 0.777552 0.992402 0.843600
O O3 0.900460 0.000000 0.750000
O O4 0.907777 0.989183 0.923044
O O5 0.750000 0.250000 0.402630
O O6 0.830704 0.201231 0.276674
O O7 0.895234 0.289027 0.388176
O O8 0.861642 0.140444 0.427399
O O9 0.103780 0.727960 0.146662
O O10 0.093471 0.618250 0.257020
O O11 0.161310 0.585904 0.112641
O O12 0.008228 0.606985 0.122498
O O13 0.250000 0.250000 0.650035
O O14 0.358245 0.062243 0.101514
O O15 0.257430 0.002297 0.500000
#
# Coordination Sequence:
#
# PCOD9497617 Si02
#       7
#    16  16  16  16  16  16   8
#     4  12  23  40  63  95 132 165 209 268 323 378
#     4  10  21  36  61  94 123 157 211 265 321 373
#     4  10  21  41  61  88 124 174 213 249 314 391
#     4  10  20  39  64  89 124 168 213 260 312 376
#     4  10  22  38  64  90 124 167 209 262 319 385
#     4  12  24  36  56  92 133 169 211 252 312 385
#     4  12  23  38  61  95 122 162 208 266 326 377
#
# _framework density 22.779046999999998
#
# number of rings (size 3 to 8) (size 9 to 14) (size 15 to 20)
#    0.000    1.231    3.846    3.000    3.231    2.462 
#    1.385    1.154    0.000    1.846    0.000    0.000 
#    0.000    0.000    0.000    0.000    0.000    0.000 
#
# Total GULP energy -289880.498548 kJ/mol
# GULP energy per Si atom -5574.624972 kJ/mol
# Density = 2.272720 g / cm^3
# Si number density = 22.779047 Si / 1000 Ang^3
#
#
#
# Elastic Constant Matrix: (Units=GPa)
#
#
# Indices 1 2 3 4 5 6 
#
# 1 50.8025 -0.6351 12.7350 0.0000 0.0000 0.0000
# 2 -0.6351 140.9203 34.3591 0.0000 0.0000 0.0000
# 3 12.7350 34.3591 98.4718 0.0000 0.0000 0.0000
# 4 0.0000 0.0000 0.0000 41.6254 0.0000 0.0000
# 5 0.0000 0.0000 0.0000 0.0000 -0.9308 0.0000
# 6 0.0000 0.0000 0.0000 0.0000 0.0000 11.1030
#
#
#
# Elastic Compliance Matrix: (Units=1/GPa)
#
#
# Indices 1 2 3 4 5 6 
#
# 1 0.020427 0.000805 -0.002922 0.000000 0.000000 0.000000
# 2 0.000805 0.007788 -0.002821 0.000000 0.000000 0.000000
# 3 -0.002922 -0.002821 0.011518 0.000000 0.000000 0.000000
# 4 0.000000 0.000000 0.000000 0.024024 0.000000 0.000000
# 5 0.000000 0.000000 0.000000 0.000000 -1.074313 0.000000
# 6 0.000000 0.000000 0.000000 0.000000 0.000000 0.090066
#
#
# Mechanical properties :
#
#
# Convention : Reuss Voigt Hill
#
# Bulk Modulus (GPa) = 33.49681 42.56806 38.03243
# Shear Modulus (GPa) = -5.55147 26.60858 10.52855
#
# Velocity S-wave (km/s) = -1.56281 3.42148 2.15222
# Velocity P-wave (km/s) = 3.38829 5.85975 4.78629
#
# Compressibility (1/GPa) = 0.02985359
#
# Stress axis : x y z
#
# Youngs Moduli (GPa) = 48.95553 128.40696 86.82377
#
# Poissons Ratio (x) = -0.10332 0.25374
# Poissons Ratio (y) = -0.03939 0.24496
# Poissons Ratio (z) = 0.14307 0.36228
#
# Static dielectric constant tensor:
#      x y z
#    x 1.689640 0.000000 0.000000 
#    y 0.000000 1.856170 0.000000 
#    z 0.000000 0.000000 1.841380 
# 
# From -- ./inp_files/42930.got.cif
#   From: 2010.05.17/outbox.cif.g08.bks.cpg/sg66_22_cif.got.tgz:42930.got - 2010.06.03 17:51:23.
