data_PCOD9497398
_publ_section_title
;
Structure prediction by ZEFSAII (Michael W. Deem and Ramdas Pophale) SiO2 
 PCOD9497398
Probable space group: C C C M
;
_chemical_formula_sum "Si O2"
_cell_formula_units_Z 120
_cell_length_a 20.182419
_cell_length_b 21.773081
_cell_length_c 13.856152
_cell_angle_alpha 90.000000
_cell_angle_beta 90.000000
_cell_angle_gamma 90.000000
_cell_volume 6088.856589
_symmetry_space_group_name_H-M "C C C M"
_symmetry_group_IT_number 66
_symmetry_cell_setting 'orthorhombic'
loop_
_space_group_symop_operation_xyz
x,y,z
-x,-y,z
x,-y,1/2-z
-x,y,1/2-z
-x,-y,-z
x,y,-z
-x,y,1/2+z
x,-y,1/2+z
1/2+x,1/2+y,z
1/2-x,1/2-y,z
1/2+x,1/2-y,1/2-z
1/2-x,1/2+y,1/2-z
1/2-x,1/2-y,-z
1/2+x,1/2+y,-z
1/2-x,1/2+y,1/2+z
1/2+x,1/2-y,1/2+z
loop_
_atom_site_type_symbol
_atom_site_label
_atom_site_fract_x
_atom_site_fract_y
_atom_site_fract_z
Si Si1 0.500000 0.208516 0.250000
Si Si2 0.536775 0.558307 0.351202
Si Si3 0.816751 0.977789 0.612662
Si Si4 0.474901 0.315992 0.109304
Si Si5 0.161935 0.807332 0.704887
Si Si6 0.257608 0.654113 0.888376
Si Si7 0.145377 0.668291 0.260392
Si Si8 0.259758 0.098529 0.113702
O O1 0.504677 0.255307 0.158821
O O2 0.566693 0.169254 0.251381
O O3 0.500000 0.500000 0.399388
O O4 0.500000 0.562773 0.250000
O O5 0.613568 0.541732 0.342002
O O6 0.523492 0.625524 0.394326
O O7 0.833108 0.990346 0.500000
O O8 0.779929 0.038357 0.649368
O O9 0.769463 0.918948 0.615311
O O10 0.411190 0.330504 0.176728
O O11 0.452480 0.303545 0.000000
O O12 0.187458 0.818807 0.814273
O O13 0.161646 0.734315 0.690699
O O14 0.211805 0.844326 0.637103
O O15 0.186943 0.667960 0.839259
O O16 0.263671 0.673788 0.000000
O O17 0.174935 0.614029 0.325559
O O18 0.272495 0.092534 0.000000
#
# Coordination Sequence:
#
# PCOD9497398 Si02
#       8
#     8  16  16  16  16  16  16  16
#     4  10  24  44  57  87 122 150 204 254 302 366
#     4  11  22  35  53  83 121 168 204 242 284 343
#     4  10  22  37  56  86 117 152 203 248 298 362
#     4  11  22  38  60  81 118 165 201 245 298 347
#     4  10  21  36  55  89 119 151 204 253 287 354
#     4  10  21  38  60  84 116 156 196 247 305 357
#     4  10  23  38  59  84 115 149 198 249 301 371
#     4  10  20  37  61  86 117 153 192 250 306 353
#
# _framework density 19.708134000000001
#
# number of rings (size 3 to 8) (size 9 to 14) (size 15 to 20)
#    0.000    1.733    0.667    4.000    1.867   12.267 
#    0.000    0.000    0.000    1.600    0.000    2.800 
#    0.000    0.000    0.000    0.000    0.000    0.000 
#
# Total GULP energy -334992.036477 kJ/mol
# GULP energy per Si atom -5583.200608 kJ/mol
# Density = 1.966328 g / cm^3
# Si number density = 19.708134 Si / 1000 Ang^3
#
#
#
# Elastic Constant Matrix: (Units=GPa)
#
#
# Indices 1 2 3 4 5 6 
#
# 1 157.8498 68.7190 44.1619 0.0000 0.0000 0.0000
# 2 68.7190 76.2304 25.8174 0.0000 0.0000 0.0000
# 3 44.1619 25.8174 122.8335 0.0000 0.0000 0.0000
# 4 0.0000 0.0000 0.0000 -12.9608 0.0000 0.0000
# 5 0.0000 0.0000 0.0000 0.0000 -9.6855 0.0000
# 6 0.0000 0.0000 0.0000 0.0000 0.0000 38.2707
#
#
#
# Elastic Compliance Matrix: (Units=1/GPa)
#
#
# Indices 1 2 3 4 5 6 
#
# 1 0.010860 -0.009117 -0.001988 0.000000 0.000000 0.000000
# 2 -0.009117 0.021777 -0.001299 0.000000 0.000000 0.000000
# 3 -0.001988 -0.001299 0.009129 0.000000 0.000000 0.000000
# 4 0.000000 0.000000 0.000000 -0.077156 0.000000 0.000000
# 5 0.000000 0.000000 0.000000 0.000000 -0.103247 0.000000
# 6 0.000000 0.000000 0.000000 0.000000 0.000000 0.026130
#
#
# Mechanical properties :
#
#
# Convention : Reuss Voigt Hill
#
# Bulk Modulus (GPa) = 58.97260 70.47892 64.72576
# Shear Modulus (GPa) = -60.94194 17.67256 -21.63469
#
# Velocity S-wave (km/s) = -5.56681 2.99777 -3.31683
# Velocity P-wave (km/s) = 3.36619 6.91528 4.27141
#
# Compressibility (1/GPa) = 0.01695703
#
# Stress axis : x y z
#
# Youngs Moduli (GPa) = 92.07769 45.92073 109.53999
#
# Poissons Ratio (x) = 0.41865 0.21781
# Poissons Ratio (y) = 0.83946 0.14233
# Poissons Ratio (z) = 0.18309 0.05967
#
# Static dielectric constant tensor:
#      x y z
#    x 1.702660 0.000000 0.000000 
#    y 0.000000 1.719400 0.000000 
#    z 0.000000 0.000000 1.762830 
# 
# From -- ./inp_files/31585.got.cif
#   From: 2010.05.17/outbox.cif.g08.bks.cpg/sg66_16_cif.got.tgz:31585.got - 2010.06.03 17:51:23.
