data_PCOD9497960
_publ_section_title
;
Structure prediction by ZEFSAII (Michael W. Deem and Ramdas Pophale) SiO2 
 PCOD9497960
Probable space group: C C C M
;
_chemical_formula_sum "Si O2"
_cell_formula_units_Z 56
_cell_length_a 4.949295
_cell_length_b 14.833076
_cell_length_c 34.943849
_cell_angle_alpha 90.000000
_cell_angle_beta 90.000000
_cell_angle_gamma 90.000000
_cell_volume 2565.342182
_symmetry_space_group_name_H-M "C C C M"
_symmetry_group_IT_number 66
_symmetry_cell_setting 'orthorhombic'
loop_
_space_group_symop_operation_xyz
x,y,z
-x,-y,z
x,-y,1/2-z
-x,y,1/2-z
-x,-y,-z
x,y,-z
-x,y,1/2+z
x,-y,1/2+z
1/2+x,1/2+y,z
1/2-x,1/2-y,z
1/2+x,1/2-y,1/2-z
1/2-x,1/2+y,1/2-z
1/2-x,1/2-y,-z
1/2+x,1/2+y,-z
1/2-x,1/2+y,1/2+z
1/2+x,1/2-y,1/2+z
loop_
_atom_site_type_symbol
_atom_site_label
_atom_site_fract_x
_atom_site_fract_y
_atom_site_fract_z
Si Si1 0.683472 0.583505 0.333088
Si Si2 0.249849 0.566826 0.542119
Si Si3 0.710113 0.145904 0.621922
Si Si4 0.250000 0.750000 0.223268
O O1 0.500000 0.500000 0.316153
O O2 0.500072 0.604244 0.369499
O O3 0.673325 0.664480 0.302680
O O4 0.988128 0.595088 0.351208
O O5 0.500000 0.500000 0.550390
O O6 0.296022 0.609177 0.500000
O O7 0.173425 0.632899 0.576835
O O8 0.000000 0.500000 0.539468
O O9 0.750000 0.250000 0.632696
O O10 0.500000 0.775408 0.250000
#
# Coordination Sequence:
#
# PCOD9497960 Si02
#       4
#    16  16  16   8
#     4  12  25  45  71 101 135 181 228 274 345 421
#     4  10  21  37  58  89 131 178 228 282 340 401
#     4  12  22  40  66  98 136 175 232 286 336 402
#     4  12  26  48  74 102 143 176 221 292 354 422
#
# _framework density 21.829445
#
# number of rings (size 3 to 8) (size 9 to 14) (size 15 to 20)
#    0.000    0.571    2.857    6.857    0.000    1.143 
#    0.000    1.429    0.000    8.571    0.000    0.000 
#    0.000    0.000    0.000    0.000    0.000    0.000 
#
# Total GULP energy -155890.890619 kJ/mol
# GULP energy per Si atom -5567.531808 kJ/mol
# Density = 2.177976 g / cm^3
# Si number density = 21.829445 Si / 1000 Ang^3
#
#
#
# Elastic Constant Matrix: (Units=GPa)
#
#
# Indices 1 2 3 4 5 6 
#
# 1 127.2317 18.7051 13.1004 0.0000 0.0000 0.0000
# 2 18.7051 137.9311 44.9814 0.0000 0.0000 0.0000
# 3 13.1004 44.9814 118.0199 0.0000 0.0000 0.0000
# 4 0.0000 0.0000 0.0000 15.6685 0.0000 0.0000
# 5 0.0000 0.0000 0.0000 0.0000 13.4201 0.0000
# 6 0.0000 0.0000 0.0000 0.0000 0.0000 28.9091
#
#
#
# Elastic Compliance Matrix: (Units=1/GPa)
#
#
# Indices 1 2 3 4 5 6 
#
# 1 0.008050 -0.000914 -0.000545 0.000000 0.000000 0.000000
# 2 -0.000914 0.008383 -0.003094 0.000000 0.000000 0.000000
# 3 -0.000545 -0.003094 0.009713 0.000000 0.000000 0.000000
# 4 0.000000 0.000000 0.000000 0.063822 0.000000 0.000000
# 5 0.000000 0.000000 0.000000 0.000000 0.074515 0.000000
# 6 0.000000 0.000000 0.000000 0.000000 0.000000 0.034591
#
#
# Mechanical properties :
#
#
# Convention : Reuss Voigt Hill
#
# Bulk Modulus (GPa) = 58.68432 59.63962 59.16197
# Shear Modulus (GPa) = 23.37986 32.02594 27.70290
#
# Velocity S-wave (km/s) = 3.27620 3.83443 3.56625
# Velocity P-wave (km/s) = 6.42283 6.85447 6.64216
#
# Compressibility (1/GPa) = 0.01704033
#
# Stress axis : x y z
#
# Youngs Moduli (GPa) = 124.22092 119.29225 102.95774
#
# Poissons Ratio (x) = 0.10902 0.05614
# Poissons Ratio (y) = 0.11352 0.31850
# Poissons Ratio (z) = 0.06773 0.36903
#
# Static dielectric constant tensor:
#      x y z
#    x 1.880680 0.000000 0.000000 
#    y 0.000000 2.022180 0.000000 
#    z 0.000000 0.000000 1.799260 
# 
# From -- ./inp_files/66739.got.cif
#   From: 2010.05.17/outbox.cif.g08.bks.cpg/sg66_34_cif.got.tgz:66739.got - 2010.06.03 17:51:23.
