data_PCOD9497246
_publ_section_title
;
Structure prediction by ZEFSAII (Michael W. Deem and Ramdas Pophale) SiO2 
 PCOD9497246
Probable space group: C C C M
;
_chemical_formula_sum "Si O2"
_cell_formula_units_Z 116
_cell_length_a 29.051728
_cell_length_b 9.013281
_cell_length_c 23.114332
_cell_angle_alpha 90.000000
_cell_angle_beta 90.000000
_cell_angle_gamma 90.000000
_cell_volume 6052.519917
_symmetry_space_group_name_H-M "C C C M"
_symmetry_group_IT_number 66
_symmetry_cell_setting 'orthorhombic'
loop_
_space_group_symop_operation_xyz
x,y,z
-x,-y,z
x,-y,1/2-z
-x,y,1/2-z
-x,-y,-z
x,y,-z
-x,y,1/2+z
x,-y,1/2+z
1/2+x,1/2+y,z
1/2-x,1/2-y,z
1/2+x,1/2-y,1/2-z
1/2-x,1/2+y,1/2-z
1/2-x,1/2-y,-z
1/2+x,1/2+y,-z
1/2-x,1/2+y,1/2+z
1/2+x,1/2-y,1/2+z
loop_
_atom_site_type_symbol
_atom_site_label
_atom_site_fract_x
_atom_site_fract_y
_atom_site_fract_z
Si Si1 0.521888 0.803468 0.565899
Si Si2 0.750000 0.750000 0.500000
Si Si3 0.203804 0.669446 0.767333
Si Si4 0.093475 0.129004 0.626811
Si Si5 0.400364 0.961493 0.568473
Si Si6 0.064084 0.792253 0.641656
Si Si7 0.099567 0.679657 0.242962
Si Si8 0.676759 0.798086 0.398129
O O1 0.504216 0.804394 0.500000
O O2 0.562949 0.685547 0.573546
O O3 0.484144 0.746562 0.611055
O O4 0.549824 0.956779 0.577055
O O5 0.711966 0.788993 0.449636
O O6 0.207324 0.500000 0.750000
O O7 0.250000 0.750000 0.746923
O O8 0.153309 0.724239 0.746164
O O9 0.200451 0.676308 0.836703
O O10 0.087244 0.243906 0.681329
O O11 0.146424 0.148692 0.608834
O O12 0.077920 0.963664 0.640310
O O13 0.395071 0.937284 0.500000
O O14 0.400908 0.811706 0.605268
O O15 0.360659 0.071797 0.590331
O O16 0.066649 0.741801 0.707733
O O17 0.097676 0.500000 0.250000
#
# Coordination Sequence:
#
# PCOD9497246 Si02
#       8
#    16   4  16  16  16  16  16  16
#     4  10  22  40  60  86 118 164 211 244 290 369
#     4  12  20  40  72  90 116 168 212 256 300 388
#     4  10  20  36  60  86 114 150 200 251 306 367
#     4  10  23  39  60  90 124 155 200 255 313 357
#     4  10  20  37  60  88 126 163 205 249 299 367
#     4  12  22  36  61  88 123 159 198 256 310 357
#     4  10  22  42  60  82 118 160 202 248 304 371
#     4  10  21  40  63  91 119 163 207 250 308 377
#
# _framework density 19.165571
#
# number of rings (size 3 to 8) (size 9 to 14) (size 15 to 20)
#    0.000    1.655    1.379    4.966    0.966    5.517 
#    0.000    2.069    0.000    0.828    0.000    0.000 
#    0.000    0.000    0.000    0.000    0.000    0.000 
#
# Total GULP energy -323043.583795 kJ/mol
# GULP energy per Si atom -5569.716962 kJ/mol
# Density = 1.912195 g / cm^3
# Si number density = 19.165571 Si / 1000 Ang^3
#
#
#
# Elastic Constant Matrix: (Units=GPa)
#
#
# Indices 1 2 3 4 5 6 
#
# 1 86.8638 25.5009 33.3881 0.0000 0.0000 0.0000
# 2 25.5009 89.3929 28.2738 0.0000 0.0000 0.0000
# 3 33.3881 28.2738 79.5398 0.0000 0.0000 0.0000
# 4 0.0000 0.0000 0.0000 15.7448 0.0000 0.0000
# 5 0.0000 0.0000 0.0000 0.0000 23.3767 0.0000
# 6 0.0000 0.0000 0.0000 0.0000 0.0000 12.4360
#
#
#
# Elastic Compliance Matrix: (Units=1/GPa)
#
#
# Indices 1 2 3 4 5 6 
#
# 1 0.014183 -0.002437 -0.005087 0.000000 0.000000 0.000000
# 2 -0.002437 0.013022 -0.003606 0.000000 0.000000 0.000000
# 3 -0.005087 -0.003606 0.015990 0.000000 0.000000 0.000000
# 4 0.000000 0.000000 0.000000 0.063513 0.000000 0.000000
# 5 0.000000 0.000000 0.000000 0.000000 0.042778 0.000000
# 6 0.000000 0.000000 0.000000 0.000000 0.000000 0.080412
#
#
# Mechanical properties :
#
#
# Convention : Reuss Voigt Hill
#
# Bulk Modulus (GPa) = 47.76824 47.79134 47.77979
# Shear Modulus (GPa) = 19.29487 21.55375 20.42431
#
# Velocity S-wave (km/s) = 3.17637 3.35716 3.26801
# Velocity P-wave (km/s) = 6.19924 6.32594 6.26291
#
# Compressibility (1/GPa) = 0.02093441
#
# Stress axis : x y z
#
# Youngs Moduli (GPa) = 70.50635 76.79131 62.54050
#
# Poissons Ratio (x) = 0.18714 0.31816
# Poissons Ratio (y) = 0.17182 0.22552
# Poissons Ratio (z) = 0.35869 0.27691
#
# Static dielectric constant tensor:
#      x y z
#    x 1.701620 0.000000 0.000000 
#    y 0.000000 1.693630 0.000000 
#    z 0.000000 0.000000 1.662890 
# 
# From -- ./inp_files/60203.got.cif
#   From: 2010.05.17/outbox.cif.g08.bks.cpg/sg66_31_cif.got.tgz:60203.got - 2010.06.03 17:51:23.
