data_PCOD9497302
_publ_section_title
;
Structure prediction by ZEFSAII (Michael W. Deem and Ramdas Pophale) SiO2 
 PCOD9497302
Probable space group: C C C M
;
_chemical_formula_sum "Si O2"
_cell_formula_units_Z 52
_cell_length_a 18.963291
_cell_length_b 4.988962
_cell_length_c 27.208278
_cell_angle_alpha 90.000000
_cell_angle_beta 90.000000
_cell_angle_gamma 90.000000
_cell_volume 2574.097317
_symmetry_space_group_name_H-M "C C C M"
_symmetry_group_IT_number 66
_symmetry_cell_setting 'orthorhombic'
loop_
_space_group_symop_operation_xyz
x,y,z
-x,-y,z
x,-y,1/2-z
-x,y,1/2-z
-x,-y,-z
x,y,-z
-x,y,1/2+z
x,-y,1/2+z
1/2+x,1/2+y,z
1/2-x,1/2-y,z
1/2+x,1/2-y,1/2-z
1/2-x,1/2+y,1/2-z
1/2-x,1/2-y,-z
1/2+x,1/2+y,-z
1/2-x,1/2+y,1/2+z
1/2+x,1/2-y,1/2+z
loop_
_atom_site_type_symbol
_atom_site_label
_atom_site_fract_x
_atom_site_fract_y
_atom_site_fract_z
Si Si1 0.000000 0.000000 0.250000
Si Si2 0.447052 0.246715 0.500000
Si Si3 0.250000 0.250000 0.220902
Si Si4 0.923149 0.642225 0.607061
Si Si5 0.109209 0.842378 0.329171
O O1 0.948028 0.174090 0.284983
O O2 0.500000 0.500000 0.500000
O O3 0.404836 0.219249 0.550930
O O4 0.500000 0.000000 0.500000
O O5 0.216078 0.500000 0.250000
O O6 0.186432 0.107636 0.192312
O O7 0.881041 0.418981 0.637030
O O8 0.000000 0.500000 0.606059
O O9 0.918533 0.913729 0.637722
#
# Coordination Sequence:
#
# PCOD9497302 Si02
#       5
#     4   8   8  16  16
#     4  12  24  42  64  96 128 172 212 286 312 376
#     4  10  20  36  62  93 130 161 204 277 344 392
#     4  12  26  44  62  91 134 187 222 260 328 402
#     4  11  21  39  62  95 123 162 213 270 329 383
#     4  12  25  39  64  91 132 167 217 266 323 387
#
# _framework density 20.201256999999998
#
# number of rings (size 3 to 8) (size 9 to 14) (size 15 to 20)
#    0.000    0.615    4.615    5.538    0.000    1.231 
#    0.000    0.000    0.000    5.538    0.000    0.000 
#    0.000    0.000    0.000    0.000    0.000    0.000 
#
# Total GULP energy -145041.968439 kJ/mol
# GULP energy per Si atom -5578.537248 kJ/mol
# Density = 2.015528 g / cm^3
# Si number density = 20.201257 Si / 1000 Ang^3
#
#
#
# Elastic Constant Matrix: (Units=GPa)
#
#
# Indices 1 2 3 4 5 6 
#
# 1 72.2232 -3.7235 34.1338 0.0000 0.0000 0.0000
# 2 -3.7235 128.9195 55.2283 0.0000 0.0000 0.0000
# 3 34.1338 55.2283 151.4757 0.0000 0.0000 0.0000
# 4 0.0000 0.0000 0.0000 32.1325 0.0000 0.0000
# 5 0.0000 0.0000 0.0000 0.0000 60.3106 0.0000
# 6 0.0000 0.0000 0.0000 0.0000 0.0000 24.4166
#
#
#
# Elastic Compliance Matrix: (Units=1/GPa)
#
#
# Indices 1 2 3 4 5 6 
#
# 1 0.016096 0.002392 -0.004499 0.000000 0.000000 0.000000
# 2 0.002392 0.009548 -0.004020 0.000000 0.000000 0.000000
# 3 -0.004499 -0.004020 0.009081 0.000000 0.000000 0.000000
# 4 0.000000 0.000000 0.000000 0.031121 0.000000 0.000000
# 5 0.000000 0.000000 0.000000 0.000000 0.016581 0.000000
# 6 0.000000 0.000000 0.000000 0.000000 0.000000 0.040956
#
#
# Mechanical properties :
#
#
# Convention : Reuss Voigt Hill
#
# Bulk Modulus (GPa) = 44.50236 58.21062 51.35649
# Shear Modulus (GPa) = 34.93378 41.17060 38.05219
#
# Velocity S-wave (km/s) = 4.16298 4.51934 4.34482
# Velocity P-wave (km/s) = 6.72195 7.49070 7.11671
#
# Compressibility (1/GPa) = 0.02247072
#
# Stress axis : x y z
#
# Youngs Moduli (GPa) = 62.12818 104.73201 110.11472
#
# Poissons Ratio (x) = -0.25056 0.49544
# Poissons Ratio (y) = -0.14863 0.44270
# Poissons Ratio (z) = 0.27953 0.42106
#
# Static dielectric constant tensor:
#      x y z
#    x 1.677060 0.000000 0.000000 
#    y 0.000000 1.730970 0.000000 
#    z 0.000000 0.000000 1.797820 
# 
# From -- ./inp_files/64868.got.cif
#   From: 2010.05.17/outbox.cif.g08.bks.cpg/sg66_33_cif.got.tgz:64868.got - 2010.06.03 17:51:23.
