data_PCOD9497837
_publ_section_title
;
Structure prediction by ZEFSAII (Michael W. Deem and Ramdas Pophale) SiO2 
 PCOD9497837
Probable space group: C C C M
;
_chemical_formula_sum "Si O2"
_cell_formula_units_Z 112
_cell_length_a 12.834354
_cell_length_b 15.431080
_cell_length_c 26.919017
_cell_angle_alpha 90.000000
_cell_angle_beta 90.000000
_cell_angle_gamma 90.000000
_cell_volume 5331.255953
_symmetry_space_group_name_H-M "C C C M"
_symmetry_group_IT_number 66
_symmetry_cell_setting 'orthorhombic'
loop_
_space_group_symop_operation_xyz
x,y,z
-x,-y,z
x,-y,1/2-z
-x,y,1/2-z
-x,-y,-z
x,y,-z
-x,y,1/2+z
x,-y,1/2+z
1/2+x,1/2+y,z
1/2-x,1/2-y,z
1/2+x,1/2-y,1/2-z
1/2-x,1/2+y,1/2-z
1/2-x,1/2-y,-z
1/2+x,1/2+y,-z
1/2-x,1/2+y,1/2+z
1/2+x,1/2-y,1/2+z
loop_
_atom_site_type_symbol
_atom_site_label
_atom_site_fract_x
_atom_site_fract_y
_atom_site_fract_z
Si Si1 0.210067 0.393454 0.555971
Si Si2 0.418657 0.428060 0.873571
Si Si3 0.950551 0.389272 0.196281
Si Si4 0.983835 0.599638 0.087877
Si Si5 0.239214 0.396189 0.945152
Si Si6 0.272399 0.425124 0.663367
Si Si7 0.057487 0.184870 0.300821
O O1 0.241283 0.364170 0.500000
O O2 0.220701 0.498817 0.554648
O O3 0.269059 0.378976 0.608483
O O4 0.092074 0.360961 0.567523
O O5 0.500000 0.500000 0.895682
O O6 0.338769 0.382226 0.910717
O O7 0.340863 0.487776 0.840457
O O8 0.487837 0.359476 0.843748
O O9 0.843669 0.438624 0.183172
O O10 0.000000 0.407934 0.250000
O O11 0.020762 0.403053 0.147576
O O12 0.928776 0.286851 0.194477
O O13 0.874698 0.637810 0.070064
O O14 0.000000 0.500000 0.070651
O O15 0.264095 0.366620 0.000000
O O16 0.331669 0.360631 0.699127
O O17 0.000000 0.165786 0.250000
#
# Coordination Sequence:
#
# PCOD9497837 Si02
#       7
#    16  16  16  16  16  16  16
#     4   8  14  27  50  78 103 130 169 215 259 306
#     4   9  19  34  53  79 103 132 176 219 257 302
#     4  10  21  36  55  79 105 137 175 220 270 316
#     4   9  17  30  49  76 106 135 172 215 261 313
#     4   9  16  28  49  75 104 137 170 208 258 314
#     4   9  18  34  56  80 105 133 173 220 260 306
#     4  10  21  37  55  74 104 145 180 211 262 325
#
# _framework density 21.008182999999999
#
# number of rings (size 3 to 8) (size 9 to 14) (size 15 to 20)
#    0.000    2.857    0.000    1.714    0.000    6.000 
#    0.000    8.571    0.000   12.857    0.000    0.000 
#    0.000    0.000    0.000    0.000    0.000    0.000 
#
# Total GULP energy -311911.033006 kJ/mol
# GULP energy per Si atom -5569.839875 kJ/mol
# Density = 2.096037 g / cm^3
# Si number density = 21.008183 Si / 1000 Ang^3
#
#
#
# Elastic Constant Matrix: (Units=GPa)
#
#
# Indices 1 2 3 4 5 6 
#
# 1 62.1344 -2.4728 -12.0925 0.0000 0.0000 0.0000
# 2 -2.4728 28.9441 -9.8686 0.0000 0.0000 0.0000
# 3 -12.0925 -9.8686 23.5842 0.0000 0.0000 0.0000
# 4 0.0000 0.0000 0.0000 5.9140 0.0000 0.0000
# 5 0.0000 0.0000 0.0000 0.0000 21.6429 0.0000
# 6 0.0000 0.0000 0.0000 0.0000 0.0000 2.4030
#
#
#
# Elastic Compliance Matrix: (Units=1/GPa)
#
#
# Indices 1 2 3 4 5 6 
#
# 1 0.018640 0.005658 0.011925 0.000000 0.000000 0.000000
# 2 0.005658 0.042016 0.020483 0.000000 0.000000 0.000000
# 3 0.011925 0.020483 0.057086 0.000000 0.000000 0.000000
# 4 0.000000 0.000000 0.000000 0.169091 0.000000 0.000000
# 5 0.000000 0.000000 0.000000 0.000000 0.046204 0.000000
# 6 0.000000 0.000000 0.000000 0.000000 0.000000 0.416139
#
#
# Mechanical properties :
#
#
# Convention : Reuss Voigt Hill
#
# Bulk Modulus (GPa) = 5.15795 7.31056 6.23426
# Shear Modulus (GPa) = 6.77810 15.26509 11.02160
#
# Velocity S-wave (km/s) = 1.79817 2.69852 2.29297
# Velocity P-wave (km/s) = 2.60226 3.63274 3.15979
#
# Compressibility (1/GPa) = 0.19387552
#
# Stress axis : x y z
#
# Youngs Moduli (GPa) = 53.64751 23.80025 17.51728
#
# Poissons Ratio (x) = -0.13467 -0.20890
# Poissons Ratio (y) = -0.30356 -0.35880
# Poissons Ratio (z) = -0.63976 -0.48749
#
# Static dielectric constant tensor:
#      x y z
#    x 1.750970 0.000000 0.000000 
#    y 0.000000 1.805370 0.000000 
#    z 0.000000 0.000000 1.783010 
# 
# From -- ./inp_files/57152.got.cif
#   From: 2010.05.17/outbox.cif.g08.bks.cpg/sg66_29_cif.got.tgz:57152.got - 2010.06.03 17:51:23.
