data_PCOD9497551
_publ_section_title
;
Structure prediction by ZEFSAII (Michael W. Deem and Ramdas Pophale) SiO2 
 PCOD9497551
Probable space group: C C C M
;
_chemical_formula_sum "Si O2"
_cell_formula_units_Z 68
_cell_length_a 21.914604
_cell_length_b 5.007915
_cell_length_c 24.962893
_cell_angle_alpha 90.000000
_cell_angle_beta 90.000000
_cell_angle_gamma 90.000000
_cell_volume 2739.589490
_symmetry_space_group_name_H-M "C C C M"
_symmetry_group_IT_number 66
_symmetry_cell_setting 'orthorhombic'
loop_
_space_group_symop_operation_xyz
x,y,z
-x,-y,z
x,-y,1/2-z
-x,y,1/2-z
-x,-y,-z
x,y,-z
-x,y,1/2+z
x,-y,1/2+z
1/2+x,1/2+y,z
1/2-x,1/2-y,z
1/2+x,1/2-y,1/2-z
1/2-x,1/2+y,1/2-z
1/2-x,1/2-y,-z
1/2+x,1/2+y,-z
1/2-x,1/2+y,1/2+z
1/2+x,1/2-y,1/2+z
loop_
_atom_site_type_symbol
_atom_site_label
_atom_site_fract_x
_atom_site_fract_y
_atom_site_fract_z
Si Si1 0.600614 0.004254 0.941453
Si Si2 0.500000 0.000000 0.750000
Si Si3 0.600810 0.150931 0.173434
Si Si4 0.680922 0.504345 0.558562
Si Si5 0.688844 0.640993 0.175396
O O1 0.572926 0.123876 0.887060
O O2 0.661742 0.186692 0.941766
O O3 0.621779 0.696039 0.938800
O O4 0.571356 0.050303 0.000000
O O5 0.455348 0.831755 0.787057
O O6 0.648649 0.381996 0.188687
O O7 0.640554 0.881278 0.177021
O O8 0.708408 0.455693 0.500000
O O9 0.710668 0.446399 0.615260
O O10 0.750000 0.750000 0.203617
#
# Coordination Sequence:
#
# PCOD9497551 Si02
#       5
#    16   4  16  16  16
#     4   8  14  29  52  82 120 157 202 253 305 370
#     4  12  28  50  70  90 124 170 232 282 324 390
#     4  10  23  40  64  93 124 169 214 262 319 379
#     4   8  14  25  47  82 124 165 197 235 297 376
#     4  10  20  38  63  94 129 162 205 261 323 386
#
# _framework density 24.821235999999999
#
# number of rings (size 3 to 8) (size 9 to 14) (size 15 to 20)
#    0.000    2.824    0.000    0.706    0.000    3.294 
#    0.000    2.941    0.000   14.118    0.000   16.471 
#    0.000    0.000    0.000    0.000    0.000    4.000 
#
# Total GULP energy -189420.716068 kJ/mol
# GULP energy per Si atom -5571.197531 kJ/mol
# Density = 2.476474 g / cm^3
# Si number density = 24.821236 Si / 1000 Ang^3
#
#
#
# Elastic Constant Matrix: (Units=GPa)
#
#
# Indices 1 2 3 4 5 6 
#
# 1 97.5881 29.8409 48.9080 0.0000 0.0000 0.0000
# 2 29.8409 133.1193 17.2998 0.0000 0.0000 0.0000
# 3 48.9080 17.2998 122.9056 0.0000 0.0000 0.0000
# 4 0.0000 0.0000 0.0000 17.0602 0.0000 0.0000
# 5 0.0000 0.0000 0.0000 0.0000 -12.3546 0.0000
# 6 0.0000 0.0000 0.0000 0.0000 0.0000 -12.5943
#
#
#
# Elastic Compliance Matrix: (Units=1/GPa)
#
#
# Indices 1 2 3 4 5 6 
#
# 1 0.013496 -0.002371 -0.005037 0.000000 0.000000 0.000000
# 2 -0.002371 0.008069 -0.000192 0.000000 0.000000 0.000000
# 3 -0.005037 -0.000192 0.010168 0.000000 0.000000 0.000000
# 4 0.000000 0.000000 0.000000 0.058616 0.000000 0.000000
# 5 0.000000 0.000000 0.000000 0.000000 -0.080941 0.000000
# 6 0.000000 0.000000 0.000000 0.000000 0.000000 -0.079401
#
#
# Mechanical properties :
#
#
# Convention : Reuss Voigt Hill
#
# Bulk Modulus (GPa) = 60.48663 60.63449 60.56056
# Shear Modulus (GPa) = -101.45557 15.59321 -42.93118
#
# Velocity S-wave (km/s) = -6.40025 2.50915 -4.16338
# Velocity P-wave (km/s) = 5.49507 5.73376 1.15761
#
# Compressibility (1/GPa) = 0.01653258
#
# Stress axis : x y z
#
# Youngs Moduli (GPa) = 74.09332 123.93855 98.35017
#
# Poissons Ratio (x) = 0.29384 0.49539
# Poissons Ratio (y) = 0.17567 0.01891
# Poissons Ratio (z) = 0.37321 0.02383
#
# Static dielectric constant tensor:
#      x y z
#    x 1.938620 0.000000 0.000000 
#    y 0.000000 1.925520 0.000000 
#    z 0.000000 0.000000 2.151360 
# 
# From -- ./inp_files/65527.got.cif
#   From: 2010.05.17/outbox.cif.g08.bks.cpg/sg66_33_cif.got.tgz:65527.got - 2010.06.03 17:51:23.
