data_PCOD9497319
_publ_section_title
;
Structure prediction by ZEFSAII (Michael W. Deem and Ramdas Pophale) SiO2 
 PCOD9497319
Probable space group: C C C M
;
_chemical_formula_sum "Si O2"
_cell_formula_units_Z 44
_cell_length_a 5.366895
_cell_length_b 18.612676
_cell_length_c 19.918432
_cell_angle_alpha 90.000000
_cell_angle_beta 90.000000
_cell_angle_gamma 90.000000
_cell_volume 1989.697542
_symmetry_space_group_name_H-M "C C C M"
_symmetry_group_IT_number 66
_symmetry_cell_setting 'orthorhombic'
loop_
_space_group_symop_operation_xyz
x,y,z
-x,-y,z
x,-y,1/2-z
-x,y,1/2-z
-x,-y,-z
x,y,-z
-x,y,1/2+z
x,-y,1/2+z
1/2+x,1/2+y,z
1/2-x,1/2-y,z
1/2+x,1/2-y,1/2-z
1/2-x,1/2+y,1/2-z
1/2-x,1/2-y,-z
1/2+x,1/2+y,-z
1/2-x,1/2+y,1/2+z
1/2+x,1/2-y,1/2+z
loop_
_atom_site_type_symbol
_atom_site_label
_atom_site_fract_x
_atom_site_fract_y
_atom_site_fract_z
Si Si1 0.655936 0.926811 0.856133
Si Si2 0.242568 0.047268 0.000000
Si Si3 0.000000 0.000000 0.250000
Si Si4 0.497081 0.797299 0.921911
O O1 0.787394 0.914913 0.928080
O O2 0.489801 0.855776 0.861301
O O3 0.500000 0.000000 0.861002
O O4 0.837557 0.946472 0.796069
O O5 0.500000 0.000000 0.000000
O O6 0.000000 0.000000 0.000000
O O7 0.750000 0.750000 0.916997
O O8 0.250000 0.750000 0.915890
O O9 0.484436 0.826996 0.000000
#
# Coordination Sequence:
#
# PCOD9497319 Si02
#       4
#    16   8   4  16
#     4  11  24  43  71 104 142 187 242 305 360 435
#     4  10  20  36  64 102 132 174 225 297 364 406
#     4  12  26  42  72 102 148 194 260 296 362 446
#     4  10  23  42  71 109 143 177 229 301 374 431
#
# _framework density 22.113913
#
# number of rings (size 3 to 8) (size 9 to 14) (size 15 to 20)
#    0.000    1.455    3.636    0.545    5.091    0.000 
#    0.000    0.000    8.000    0.000    0.000    0.000 
#    0.000    0.000    0.000    0.000    0.000    0.000 
#
# Total GULP energy -122489.528354 kJ/mol
# GULP energy per Si atom -5567.705834 kJ/mol
# Density = 2.206358 g / cm^3
# Si number density = 22.113913 Si / 1000 Ang^3
#
#
#
# Elastic Constant Matrix: (Units=GPa)
#
#
# Indices 1 2 3 4 5 6 
#
# 1 109.2753 44.3960 57.7477 0.0000 0.0000 0.0000
# 2 44.3960 118.7890 62.0492 0.0000 0.0000 0.0000
# 3 57.7477 62.0492 149.3402 0.0000 0.0000 0.0000
# 4 0.0000 0.0000 0.0000 -20.6459 0.0000 0.0000
# 5 0.0000 0.0000 0.0000 0.0000 -80.0302 0.0000
# 6 0.0000 0.0000 0.0000 0.0000 0.0000 27.9300
#
#
#
# Elastic Compliance Matrix: (Units=1/GPa)
#
#
# Indices 1 2 3 4 5 6 
#
# 1 0.012126 -0.002660 -0.003584 0.000000 0.000000 0.000000
# 2 -0.002660 0.011335 -0.003681 0.000000 0.000000 0.000000
# 3 -0.003584 -0.003681 0.009611 0.000000 0.000000 0.000000
# 4 0.000000 0.000000 0.000000 -0.048436 0.000000 0.000000
# 5 0.000000 0.000000 0.000000 0.000000 -0.012495 0.000000
# 6 0.000000 0.000000 0.000000 0.000000 0.000000 0.035804
#
#
# Mechanical properties :
#
#
# Convention : Reuss Voigt Hill
#
# Bulk Modulus (GPa) = 75.62657 78.42114 77.02386
# Shear Modulus (GPa) = 155.26959 -0.33513 77.46723
#
# Velocity S-wave (km/s) = 8.38844 -0.38971 5.92512
# Velocity P-wave (km/s) = 11.31787 5.94448 9.03966
#
# Compressibility (1/GPa) = 0.01322287
#
# Stress axis : x y z
#
# Youngs Moduli (GPa) = 82.46961 88.22057 104.04384
#
# Poissons Ratio (x) = 0.23466 0.37286
# Poissons Ratio (y) = 0.21936 0.38300
# Poissons Ratio (z) = 0.29554 0.32475
#
# Static dielectric constant tensor:
#      x y z
#    x 1.876150 0.000000 0.000000 
#    y 0.000000 2.070540 0.000000 
#    z 0.000000 0.000000 1.870140 
# 
# From -- ./inp_files/51382.got.cif
#   From: 2010.05.17/outbox.cif.g08.bks.cpg/sg66_26_cif.got.tgz:51382.got - 2010.06.03 17:51:23.
