data_PCOD9497084
_publ_section_title
;
Structure prediction by ZEFSAII (Michael W. Deem and Ramdas Pophale) SiO2 
 PCOD9497084
Probable space group: C C C M
;
_chemical_formula_sum "Si O2"
_cell_formula_units_Z 64
_cell_length_a 35.254256
_cell_length_b 7.204836
_cell_length_c 11.397958
_cell_angle_alpha 90.000000
_cell_angle_beta 90.000000
_cell_angle_gamma 90.000000
_cell_volume 2895.094243
_symmetry_space_group_name_H-M "C C C M"
_symmetry_group_IT_number 66
_symmetry_cell_setting 'orthorhombic'
loop_
_space_group_symop_operation_xyz
x,y,z
-x,-y,z
x,-y,1/2-z
-x,y,1/2-z
-x,-y,-z
x,y,-z
-x,y,1/2+z
x,-y,1/2+z
1/2+x,1/2+y,z
1/2-x,1/2-y,z
1/2+x,1/2-y,1/2-z
1/2-x,1/2+y,1/2-z
1/2-x,1/2-y,-z
1/2+x,1/2+y,-z
1/2-x,1/2+y,1/2+z
1/2+x,1/2-y,1/2+z
loop_
_atom_site_type_symbol
_atom_site_label
_atom_site_fract_x
_atom_site_fract_y
_atom_site_fract_z
Si Si1 0.512554 0.283903 0.625222
Si Si2 0.628687 0.209793 0.873890
Si Si3 0.715762 0.894545 0.627075
Si Si4 0.397708 0.778969 0.374401
O O1 0.500000 0.500000 0.626500
O O2 0.500000 0.203968 0.750000
O O3 0.497146 0.209400 0.500000
O O4 0.557654 0.259752 0.623290
O O5 0.674168 0.197357 0.872474
O O6 0.616612 0.294927 0.750290
O O7 0.612181 0.998987 0.873308
O O8 0.616137 0.290864 0.000000
O O9 0.717664 0.999003 0.500000
O O10 0.750000 0.750000 0.625845
O O11 0.718499 0.000000 0.750000
O O12 0.381377 0.711672 0.500000
#
# Coordination Sequence:
#
# PCOD9497084 Si02
#       4
#    16  16  16  16
#     4   9  18  32  50  73 102 135 172 215 265 325
#     4   9  17  31  52  78 105 137 180 227 269 321
#     4  10  20  35  58  87 120 156 196 242 293 346
#     4   9  16  29  52  76  99 132 175 219 267 321
#
# _framework density 22.106359999999999
#
# number of rings (size 3 to 8) (size 9 to 14) (size 15 to 20)
#    0.000    2.750    2.500    0.000    0.000    1.500 
#    0.000    2.500    5.500   13.500    0.000    0.000 
#    0.000    0.000    0.000    0.000    0.000    0.000 
#
# Total GULP energy -178163.533370 kJ/mol
# GULP energy per Si atom -5567.610418 kJ/mol
# Density = 2.205605 g / cm^3
# Si number density = 22.106360 Si / 1000 Ang^3
#
#
#
# Elastic Constant Matrix: (Units=GPa)
#
#
# Indices 1 2 3 4 5 6 
#
# 1 105.9465 16.5486 32.6124 0.0000 0.0000 0.0000
# 2 16.5486 73.8321 16.9013 0.0000 0.0000 0.0000
# 3 32.6124 16.9013 355.5192 0.0000 0.0000 0.0000
# 4 0.0000 0.0000 0.0000 -24.4458 0.0000 0.0000
# 5 0.0000 0.0000 0.0000 0.0000 42.7900 0.0000
# 6 0.0000 0.0000 0.0000 0.0000 0.0000 28.7614
#
#
#
# Elastic Compliance Matrix: (Units=1/GPa)
#
#
# Indices 1 2 3 4 5 6 
#
# 1 0.010013 -0.002056 -0.000821 0.000000 0.000000 0.000000
# 2 -0.002056 0.014116 -0.000482 0.000000 0.000000 0.000000
# 3 -0.000821 -0.000482 0.002911 0.000000 0.000000 0.000000
# 4 0.000000 0.000000 0.000000 -0.040907 0.000000 0.000000
# 5 0.000000 0.000000 0.000000 0.000000 0.023370 0.000000
# 6 0.000000 0.000000 0.000000 0.000000 0.000000 0.034769
#
#
# Mechanical properties :
#
#
# Convention : Reuss Voigt Hill
#
# Bulk Modulus (GPa) = 49.21206 74.15806 61.68506
# Shear Modulus (GPa) = 86.56002 40.70348 63.63175
#
# Velocity S-wave (km/s) = 6.26428 4.29564 5.37093
# Velocity P-wave (km/s) = 8.63895 7.63035 8.15026
#
# Compressibility (1/GPa) = 0.02032022
#
# Stress axis : x y z
#
# Youngs Moduli (GPa) = 99.87463 70.84368 343.52367
#
# Poissons Ratio (x) = 0.14568 0.28193
# Poissons Ratio (y) = 0.20537 0.16572
# Poissons Ratio (z) = 0.08197 0.03418
#
# Static dielectric constant tensor:
#      x y z
#    x 1.730680 0.000000 0.000000 
#    y 0.000000 1.750410 0.000000 
#    z 0.000000 0.000000 1.944900 
# 
# From -- ./inp_files/21109.got.cif
#   From: 2010.05.17/outbox.cif.g08.bks.cpg/sg66_11_cif.got.tgz:21109.got - 2010.06.03 17:51:23.
