data_PCOD9497483
_publ_section_title
;
Structure prediction by ZEFSAII (Michael W. Deem and Ramdas Pophale) SiO2 
 PCOD9497483
Probable space group: C C C M
;
_chemical_formula_sum "Si O2"
_cell_formula_units_Z 104
_cell_length_a 20.369832
_cell_length_b 9.492367
_cell_length_c 28.505828
_cell_angle_alpha 90.000000
_cell_angle_beta 90.000000
_cell_angle_gamma 90.000000
_cell_volume 5511.827641
_symmetry_space_group_name_H-M "C C C M"
_symmetry_group_IT_number 66
_symmetry_cell_setting 'orthorhombic'
loop_
_space_group_symop_operation_xyz
x,y,z
-x,-y,z
x,-y,1/2-z
-x,y,1/2-z
-x,-y,-z
x,y,-z
-x,y,1/2+z
x,-y,1/2+z
1/2+x,1/2+y,z
1/2-x,1/2-y,z
1/2+x,1/2-y,1/2-z
1/2-x,1/2+y,1/2-z
1/2-x,1/2-y,-z
1/2+x,1/2+y,-z
1/2-x,1/2+y,1/2+z
1/2+x,1/2-y,1/2+z
loop_
_atom_site_type_symbol
_atom_site_label
_atom_site_fract_x
_atom_site_fract_y
_atom_site_fract_z
Si Si1 0.040326 0.352543 0.052719
Si Si2 0.246731 0.582304 0.831462
Si Si3 0.548636 0.754371 0.366132
Si Si4 0.641045 0.002432 0.392360
Si Si5 0.854911 0.500000 0.250000
Si Si6 0.606514 0.497619 0.306315
Si Si7 0.566769 0.819742 0.186450
O O1 0.114032 0.408899 0.063684
O O2 0.000000 0.500000 0.056270
O O3 0.005149 0.252316 0.091335
O O4 0.034995 0.297185 0.000000
O O5 0.250000 0.750000 0.836919
O O6 0.216854 0.513531 0.878790
O O7 0.193299 0.550842 0.791100
O O8 0.316068 0.520070 0.815398
O O9 0.572117 0.613888 0.339745
O O10 0.509534 0.838207 0.325202
O O11 0.608426 0.847007 0.386822
O O12 0.606259 0.091693 0.351613
O O13 0.902165 0.626788 0.234484
O O14 0.593134 0.500000 0.250000
O O15 0.582638 0.343555 0.320423
#
# Coordination Sequence:
#
# PCOD9497483 Si02
#       7
#    16  16  16  16   8  16  16
#     4   8  15  32  61  89 113 140 182 240 306 362
#     4  11  20  35  53  71 105 146 192 234 270 325
#     4  10  20  38  55  83 114 142 186 238 293 341
#     4   9  19  35  56  81 105 141 187 235 280 337
#     4  10  22  34  53  70  99 144 198 234 264 322
#     4  12  24  37  52  75 114 157 195 232 272 334
#     4  10  22  36  52  76 105 143 185 236 281 327
#
# _framework density 18.868514000000001
#
# number of rings (size 3 to 8) (size 9 to 14) (size 15 to 20)
#    0.000    2.000    2.308    2.769    2.154    3.077 
#    2.769    0.000    0.000    8.769    0.000    4.308 
#    0.000    0.000    0.000    0.000    0.000    0.000 
#
# Total GULP energy -289586.732131 kJ/mol
# GULP energy per Si atom -5568.975618 kJ/mol
# Density = 1.882557 g / cm^3
# Si number density = 18.868514 Si / 1000 Ang^3
#
#
#
# Elastic Constant Matrix: (Units=GPa)
#
#
# Indices 1 2 3 4 5 6 
#
# 1 58.4662 12.7561 42.9530 0.0000 0.0000 0.0000
# 2 12.7561 79.2330 35.2292 0.0000 0.0000 0.0000
# 3 42.9530 35.2292 99.3612 0.0000 0.0000 0.0000
# 4 0.0000 0.0000 0.0000 19.0211 0.0000 0.0000
# 5 0.0000 0.0000 0.0000 0.0000 16.9710 0.0000
# 6 0.0000 0.0000 0.0000 0.0000 0.0000 8.0868
#
#
#
# Elastic Compliance Matrix: (Units=1/GPa)
#
#
# Indices 1 2 3 4 5 6 
#
# 1 0.025122 0.000931 -0.011190 0.000000 0.000000 0.000000
# 2 0.000931 0.015018 -0.005727 0.000000 0.000000 0.000000
# 3 -0.011190 -0.005727 0.016932 0.000000 0.000000 0.000000
# 4 0.000000 0.000000 0.000000 0.052573 0.000000 0.000000
# 5 0.000000 0.000000 0.000000 0.000000 0.058924 0.000000
# 6 0.000000 0.000000 0.000000 0.000000 0.000000 0.123659
#
#
# Mechanical properties :
#
#
# Convention : Reuss Voigt Hill
#
# Bulk Modulus (GPa) = 39.84181 46.54856 43.19519
# Shear Modulus (GPa) = 15.03463 18.55724 16.79593
#
# Velocity S-wave (km/s) = 2.82585 3.13949 2.98679
# Velocity P-wave (km/s) = 5.63991 6.15348 5.90228
#
# Compressibility (1/GPa) = 0.02509926
#
# Stress axis : x y z
#
# Youngs Moduli (GPa) = 39.80634 66.58895 59.05936
#
# Poissons Ratio (x) = -0.06199 0.66087
# Poissons Ratio (y) = -0.03705 0.33823
# Poissons Ratio (z) = 0.44543 0.38135
#
# Static dielectric constant tensor:
#      x y z
#    x 1.718710 0.000000 0.000000 
#    y 0.000000 1.667170 0.000000 
#    z 0.000000 0.000000 1.720800 
# 
# From -- ./inp_files/70190.got.cif
#   From: 2010.05.17/outbox.cif.g08.bks.cpg/sg66_36_cif.got.tgz:70190.got - 2010.06.03 17:51:23.
