data_PCOD9497450
_publ_section_title
;
Structure prediction by ZEFSAII (Michael W. Deem and Ramdas Pophale) SiO2 
 PCOD9497450
Probable space group: C C C M
;
_chemical_formula_sum "Si O2"
_cell_formula_units_Z 64
_cell_length_a 17.571010
_cell_length_b 9.560386
_cell_length_c 15.506162
_cell_angle_alpha 90.000000
_cell_angle_beta 90.000000
_cell_angle_gamma 90.000000
_cell_volume 2604.812517
_symmetry_space_group_name_H-M "C C C M"
_symmetry_group_IT_number 66
_symmetry_cell_setting 'orthorhombic'
loop_
_space_group_symop_operation_xyz
x,y,z
-x,-y,z
x,-y,1/2-z
-x,y,1/2-z
-x,-y,-z
x,y,-z
-x,y,1/2+z
x,-y,1/2+z
1/2+x,1/2+y,z
1/2-x,1/2-y,z
1/2+x,1/2-y,1/2-z
1/2-x,1/2+y,1/2-z
1/2-x,1/2-y,-z
1/2+x,1/2+y,-z
1/2-x,1/2+y,1/2+z
1/2+x,1/2-y,1/2+z
loop_
_atom_site_type_symbol
_atom_site_label
_atom_site_fract_x
_atom_site_fract_y
_atom_site_fract_z
Si Si1 0.255060 0.581411 0.162547
Si Si2 0.487301 0.156487 0.894369
Si Si3 0.923668 0.083757 0.895939
Si Si4 0.821294 0.667978 0.901214
O O1 0.234456 0.500000 0.250000
O O2 0.250000 0.750000 0.160099
O O3 0.342585 0.543225 0.141250
O O4 0.198899 0.496844 0.098619
O O5 0.554630 0.258914 0.869502
O O6 0.403537 0.200218 0.862510
O O7 0.500000 0.000000 0.865522
O O8 0.484922 0.157887 0.000000
O O9 0.917368 0.073648 0.000000
O O10 0.000000 0.000000 0.871346
O O11 0.750000 0.750000 0.861600
O O12 0.826608 0.717625 0.000000
#
# Coordination Sequence:
#
# PCOD9497450 Si02
#       4
#    16  16  16  16
#     4  12  26  42  60  86 125 169 212 254 300 360
#     4   9  17  31  55  88 119 145 182 236 295 352
#     4  10  21  39  65  94 120 151 197 253 310 367
#     4  10  20  37  63  92 122 156 196 247 306 364
#
# _framework density 24.569904999999999
#
# number of rings (size 3 to 8) (size 9 to 14) (size 15 to 20)
#    0.000    1.750    0.000    4.500    0.000    8.500 
#    0.000    0.000    0.000    5.250    0.000    0.000 
#    0.000    0.000    0.000    0.000    0.000    0.000 
#
# Total GULP energy -178873.957791 kJ/mol
# GULP energy per Si atom -5589.811181 kJ/mol
# Density = 2.451398 g / cm^3
# Si number density = 24.569905 Si / 1000 Ang^3
#
#
#
# Elastic Constant Matrix: (Units=GPa)
#
#
# Indices 1 2 3 4 5 6 
#
# 1 94.2589 -18.7379 -1.2339 0.0000 0.0000 0.0000
# 2 -18.7379 85.3906 -4.4448 0.0000 0.0000 0.0000
# 3 -1.2339 -4.4448 36.5324 0.0000 0.0000 0.0000
# 4 0.0000 0.0000 0.0000 15.0663 0.0000 0.0000
# 5 0.0000 0.0000 0.0000 0.0000 21.3228 0.0000
# 6 0.0000 0.0000 0.0000 0.0000 0.0000 44.1917
#
#
#
# Elastic Compliance Matrix: (Units=1/GPa)
#
#
# Indices 1 2 3 4 5 6 
#
# 1 0.011110 0.002473 0.000676 0.000000 0.000000 0.000000
# 2 0.002473 0.012336 0.001584 0.000000 0.000000 0.000000
# 3 0.000676 0.001584 0.027589 0.000000 0.000000 0.000000
# 4 0.000000 0.000000 0.000000 0.066373 0.000000 0.000000
# 5 0.000000 0.000000 0.000000 0.000000 0.046898 0.000000
# 6 0.000000 0.000000 0.000000 0.000000 0.000000 0.022629
#
#
# Mechanical properties :
#
#
# Convention : Reuss Voigt Hill
#
# Bulk Modulus (GPa) = 16.52855 18.59429 17.56142
# Shear Modulus (GPa) = 25.29926 32.15606 28.72766
#
# Velocity S-wave (km/s) = 3.21235 3.62160 3.42310
# Velocity P-wave (km/s) = 4.52777 5.00723 4.77352
#
# Compressibility (1/GPa) = 0.06050139
#
# Stress axis : x y z
#
# Youngs Moduli (GPa) = 90.01267 81.06326 36.24685
#
# Poissons Ratio (x) = -0.20047 -0.02451
# Poissons Ratio (y) = -0.22261 -0.05743
# Poissons Ratio (z) = -0.06086 -0.12844
#
# Static dielectric constant tensor:
#      x y z
#    x 1.919500 0.000000 0.000000 
#    y 0.000000 2.008680 0.000000 
#    z 0.000000 0.000000 1.980950 
# 
# From -- ./inp_files/50502.got.cif
#   From: 2010.05.17/outbox.cif.g08.bks.cpg/sg66_26_cif.got.tgz:50502.got - 2010.06.03 17:51:23.
