data_PCOD9497935
_publ_section_title
;
Structure prediction by ZEFSAII (Michael W. Deem and Ramdas Pophale) SiO2 
 PCOD9497935
Probable space group: C C C M
;
_chemical_formula_sum "Si O2"
_cell_formula_units_Z 96
_cell_length_a 24.330149
_cell_length_b 21.858362
_cell_length_c 8.911169
_cell_angle_alpha 90.000000
_cell_angle_beta 90.000000
_cell_angle_gamma 90.000000
_cell_volume 4739.112985
_symmetry_space_group_name_H-M "C C C M"
_symmetry_group_IT_number 66
_symmetry_cell_setting 'orthorhombic'
loop_
_space_group_symop_operation_xyz
x,y,z
-x,-y,z
x,-y,1/2-z
-x,y,1/2-z
-x,-y,-z
x,y,-z
-x,y,1/2+z
x,-y,1/2+z
1/2+x,1/2+y,z
1/2-x,1/2-y,z
1/2+x,1/2-y,1/2-z
1/2-x,1/2+y,1/2-z
1/2-x,1/2-y,-z
1/2+x,1/2+y,-z
1/2-x,1/2+y,1/2+z
1/2+x,1/2-y,1/2+z
loop_
_atom_site_type_symbol
_atom_site_label
_atom_site_fract_x
_atom_site_fract_y
_atom_site_fract_z
Si Si1 0.056951 0.431897 0.181224
Si Si2 0.442294 0.693179 0.677382
Si Si3 0.715598 0.390615 0.177807
Si Si4 0.605604 0.440068 0.675084
Si Si5 0.666527 0.257402 0.822879
Si Si6 0.326043 0.872444 0.678139
O O1 0.062068 0.500000 0.250000
O O2 0.112962 0.395930 0.220294
O O3 0.000000 0.405806 0.250000
O O4 0.052255 0.434654 0.000000
O O5 0.500000 0.709080 0.750000
O O6 0.438985 0.708583 0.500000
O O7 0.430862 0.620575 0.692397
O O8 0.394548 0.724972 0.771663
O O9 0.664693 0.426143 0.250531
O O10 0.702136 0.318438 0.206176
O O11 0.774866 0.406648 0.244912
O O12 0.715387 0.399785 0.000000
O O13 0.580804 0.500000 0.750000
O O14 0.613887 0.451014 0.500000
O O15 0.680360 0.197624 0.729018
O O16 0.670416 0.243770 0.000000
O O17 0.320950 0.877999 0.500000
#
# Coordination Sequence:
#
# PCOD9497935 Si02
#       6
#    16  16  16  16  16  16
#     4  10  22  40  61  83 109 142 178 220 271 322
#     4  10  21  37  57  81 111 148 188 232 282 332
#     4  10  21  37  57  82 113 148 186 230 279 328
#     4  10  21  37  57  81 111 148 188 232 282 332
#     4  10  21  37  57  82 113 148 186 230 279 328
#     4  11  23  37  57  86 115 146 185 225 272 333
#
# _framework density 20.256955999999999
#
# number of rings (size 3 to 8) (size 9 to 14) (size 15 to 20)
#    0.000    1.833    0.000    4.000    0.000   10.333 
#    0.000    5.000    0.000    0.000    0.000    0.000 
#    0.000    0.000    0.000    0.000    0.000    0.000 
#
# Total GULP energy -268216.731852 kJ/mol
# GULP energy per Si atom -5587.848580 kJ/mol
# Density = 2.021085 g / cm^3
# Si number density = 20.256956 Si / 1000 Ang^3
#
#
#
# Elastic Constant Matrix: (Units=GPa)
#
#
# Indices 1 2 3 4 5 6 
#
# 1 119.1472 -17.7540 36.5356 0.0000 0.0000 0.0000
# 2 -17.7540 9.3668 8.8964 0.0000 0.0000 0.0000
# 3 36.5356 8.8964 53.5364 0.0000 0.0000 0.0000
# 4 0.0000 0.0000 0.0000 21.5165 0.0000 0.0000
# 5 0.0000 0.0000 0.0000 0.0000 30.5518 0.0000
# 6 0.0000 0.0000 0.0000 0.0000 0.0000 -6.5743
#
#
#
# Elastic Compliance Matrix: (Units=1/GPa)
#
#
# Indices 1 2 3 4 5 6 
#
# 1 0.044935 0.135715 -0.053218 0.000000 0.000000 0.000000
# 2 0.135715 0.536664 -0.181798 0.000000 0.000000 0.000000
# 3 -0.053218 -0.181798 0.085208 0.000000 0.000000 0.000000
# 4 0.000000 0.000000 0.000000 0.046476 0.000000 0.000000
# 5 0.000000 0.000000 0.000000 0.000000 0.032731 0.000000
# 6 0.000000 0.000000 0.000000 0.000000 0.000000 -0.152108
#
#
# Mechanical properties :
#
#
# Convention : Reuss Voigt Hill
#
# Bulk Modulus (GPa) = 2.13582 26.37849 14.25716
# Shear Modulus (GPa) = 5.27106 19.39030 12.33068
#
# Velocity S-wave (km/s) = 1.61485 3.09725 2.46989
# Velocity P-wave (km/s) = 2.12924 5.08339 3.89708
#
# Compressibility (1/GPa) = 0.46820343
#
# Stress axis : x y z
#
# Youngs Moduli (GPa) = 22.25456 1.86336 11.73604
#
# Poissons Ratio (x) = -0.25289 0.62457
# Poissons Ratio (y) = -3.02028 2.13359
# Poissons Ratio (z) = 1.18434 0.33876
#
# Static dielectric constant tensor:
#      x y z
#    x 1.771460 0.000000 0.000000 
#    y 0.000000 1.746200 0.000000 
#    z 0.000000 0.000000 1.669180 
# 
# From -- ./inp_files/9129.got.cif
#   From: 2010.05.17/outbox.cif.g08.bks.cpg/sg66_5_cif.got.tgz:9129.got - 2010.06.03 17:51:23.
