data_PCOD9497508
_publ_section_title
;
Structure prediction by ZEFSAII (Michael W. Deem and Ramdas Pophale) SiO2 
 PCOD9497508
Probable space group: C C C M
;
_chemical_formula_sum "Si O2"
_cell_formula_units_Z 68
_cell_length_a 5.246329
_cell_length_b 30.409243
_cell_length_c 21.594411
_cell_angle_alpha 90.000000
_cell_angle_beta 90.000000
_cell_angle_gamma 90.000000
_cell_volume 3445.105246
_symmetry_space_group_name_H-M "C C C M"
_symmetry_group_IT_number 66
_symmetry_cell_setting 'orthorhombic'
loop_
_space_group_symop_operation_xyz
x,y,z
-x,-y,z
x,-y,1/2-z
-x,y,1/2-z
-x,-y,-z
x,y,-z
-x,y,1/2+z
x,-y,1/2+z
1/2+x,1/2+y,z
1/2-x,1/2-y,z
1/2+x,1/2-y,1/2-z
1/2-x,1/2+y,1/2-z
1/2-x,1/2-y,-z
1/2+x,1/2+y,-z
1/2-x,1/2+y,1/2+z
1/2+x,1/2-y,1/2+z
loop_
_atom_site_type_symbol
_atom_site_label
_atom_site_fract_x
_atom_site_fract_y
_atom_site_fract_z
Si Si1 0.261518 0.455920 0.000000
Si Si2 0.235923 0.603693 0.000000
Si Si3 0.253453 0.447409 0.139467
Si Si4 0.254246 0.113276 0.633327
Si Si5 0.500000 0.500000 0.750000
Si Si6 0.750729 0.297223 0.792037
O O1 0.514409 0.426685 0.000000
O O2 0.257580 0.473623 0.927766
O O3 0.005545 0.428125 0.000000
O O4 0.225570 0.629714 0.937145
O O5 0.488520 0.412900 0.138261
O O6 0.315822 0.474858 0.201139
O O7 0.987815 0.420700 0.144741
O O8 0.260388 0.156635 0.673458
O O9 0.500000 0.298192 0.750000
O O10 0.750000 0.250000 0.827446
O O11 0.000000 0.295918 0.750000
#
# Coordination Sequence:
#
# PCOD9497508 Si02
#       6
#     8   8  16  16   4  16
#     4   8  16  37  56  78 101 154 185 229 276 349
#     4   8  16  32  57  83 104 136 199 225 264 336
#     4  10  23  37  59  80 117 146 194 231 290 336
#     4  10  20  38  60  81 110 155 183 230 283 342
#     4  12  28  40  52  94 116 144 192 258 280 336
#     4  10  21  35  55  85 117 149 189 228 273 341
#
# _framework density 19.738150000000001
#
# number of rings (size 3 to 8) (size 9 to 14) (size 15 to 20)
#    0.000    2.353    0.000    1.412    4.941    2.353 
#    0.000    0.588    0.000    8.471    0.000   14.824 
#    0.000    0.000    0.000    0.000    0.000    0.000 
#
# Total GULP energy -189360.639039 kJ/mol
# GULP energy per Si atom -5569.430560 kJ/mol
# Density = 1.969322 g / cm^3
# Si number density = 19.738150 Si / 1000 Ang^3
#
#
#
# Elastic Constant Matrix: (Units=GPa)
#
#
# Indices 1 2 3 4 5 6 
#
# 1 143.8804 29.1461 14.4866 0.0000 0.0000 0.0000
# 2 29.1461 80.3021 62.9022 0.0000 0.0000 0.0000
# 3 14.4866 62.9022 149.9372 0.0000 0.0000 0.0000
# 4 0.0000 0.0000 0.0000 -107.6057 0.0000 0.0000
# 5 0.0000 0.0000 0.0000 0.0000 -462.4062 0.0000
# 6 0.0000 0.0000 0.0000 0.0000 0.0000 25.4864
#
#
#
# Elastic Compliance Matrix: (Units=1/GPa)
#
#
# Indices 1 2 3 4 5 6 
#
# 1 0.007541 -0.003227 0.000625 0.000000 0.000000 0.000000
# 2 -0.003227 0.019929 -0.008049 0.000000 0.000000 0.000000
# 3 0.000625 -0.008049 0.009986 0.000000 0.000000 0.000000
# 4 0.000000 0.000000 0.000000 -0.009293 0.000000 0.000000
# 5 0.000000 0.000000 0.000000 0.000000 -0.002163 0.000000
# 6 0.000000 0.000000 0.000000 0.000000 0.000000 0.039237
#
#
# Mechanical properties :
#
#
# Convention : Reuss Voigt Hill
#
# Bulk Modulus (GPa) = 61.90161 65.24328 63.57245
# Shear Modulus (GPa) = 54.39370 -91.06611 -18.33621
#
# Velocity S-wave (km/s) = 5.25523 -6.79980 -3.05121
# Velocity P-wave (km/s) = 8.26152 5.34074 4.45698
#
# Compressibility (1/GPa) = 0.01615467
#
# Stress axis : x y z
#
# Youngs Moduli (GPa) = 132.61004 50.17818 100.14247
#
# Poissons Ratio (x) = 0.16191 -0.06260
# Poissons Ratio (y) = 0.42789 0.80604
# Poissons Ratio (z) = -0.08289 0.40388
#
# Static dielectric constant tensor:
#      x y z
#    x 1.681800 0.000000 0.000000 
#    y 0.000000 1.671460 0.000000 
#    z 0.000000 0.000000 1.759160 
# 
# From -- ./inp_files/45789.got.cif
#   From: 2010.05.17/outbox.cif.g08.bks.cpg/sg66_23_cif.got.tgz:45789.got - 2010.06.03 17:51:23.
