data_PCOD9497168
_publ_section_title
;
Structure prediction by ZEFSAII (Michael W. Deem and Ramdas Pophale) SiO2 
 PCOD9497168
Probable space group: C C C M
;
_chemical_formula_sum "Si O2"
_cell_formula_units_Z 60
_cell_length_a 24.635154
_cell_length_b 5.215740
_cell_length_c 28.498294
_cell_angle_alpha 90.000000
_cell_angle_beta 90.000000
_cell_angle_gamma 90.000000
_cell_volume 3661.761702
_symmetry_space_group_name_H-M "C C C M"
_symmetry_group_IT_number 66
_symmetry_cell_setting 'orthorhombic'
loop_
_space_group_symop_operation_xyz
x,y,z
-x,-y,z
x,-y,1/2-z
-x,y,1/2-z
-x,-y,-z
x,y,-z
-x,y,1/2+z
x,-y,1/2+z
1/2+x,1/2+y,z
1/2-x,1/2-y,z
1/2+x,1/2-y,1/2-z
1/2-x,1/2+y,1/2-z
1/2-x,1/2-y,-z
1/2+x,1/2+y,-z
1/2-x,1/2+y,1/2+z
1/2+x,1/2-y,1/2+z
loop_
_atom_site_type_symbol
_atom_site_label
_atom_site_fract_x
_atom_site_fract_y
_atom_site_fract_z
Si Si1 0.033967 0.258618 0.658890
Si Si2 0.000000 0.500000 0.750000
Si Si3 0.537675 0.250072 0.000000
Si Si4 0.622751 0.287427 0.914977
Si Si5 0.313809 0.792125 0.443711
O O1 0.034969 0.327673 0.714238
O O2 0.091473 0.234319 0.634131
O O3 0.000000 0.500000 0.638084
O O4 0.000000 0.000000 0.651740
O O5 0.500000 0.500000 0.000000
O O6 0.576461 0.256255 0.954721
O O7 0.500000 0.000000 0.000000
O O8 0.651894 0.558340 0.922528
O O9 0.665219 0.059107 0.922995
O O10 0.322789 0.795435 0.500000
O O11 0.250000 0.750000 0.435664
#
# Coordination Sequence:
#
# PCOD9497168 Si02
#       5
#    16   4   8  16  16
#     4  10  20  36  56  81 116 141 180 218 269 339
#     4   8  22  36  58  82 114 140 178 220 274 342
#     4  12  22  32  47  76 115 150 178 204 260 324
#     4  12  21  36  54  80 110 153 184 224 276 317
#     4  11  22  38  55  77 111 151 197 235 263 311
#
# _framework density 16.385556999999999
#
# number of rings (size 3 to 8) (size 9 to 14) (size 15 to 20)
#    0.800    0.267    2.667    6.000    0.000    2.133 
#    0.000    0.000    0.000    0.000    0.000    3.733 
#    0.000    0.000    0.000    0.000    0.000    0.000 
#
# Total GULP energy -167462.994354 kJ/mol
# GULP energy per Si atom -5582.099812 kJ/mol
# Density = 1.634826 g / cm^3
# Si number density = 16.385557 Si / 1000 Ang^3
#
#
#
# Elastic Constant Matrix: (Units=GPa)
#
#
# Indices 1 2 3 4 5 6 
#
# 1 46.6522 -4.6436 23.3321 0.0000 0.0000 0.0000
# 2 -4.6436 71.9739 -6.5881 0.0000 0.0000 0.0000
# 3 23.3321 -6.5881 78.8419 0.0000 0.0000 0.0000
# 4 0.0000 0.0000 0.0000 2.0778 0.0000 0.0000
# 5 0.0000 0.0000 0.0000 0.0000 9.3407 0.0000
# 6 0.0000 0.0000 0.0000 0.0000 0.0000 38.6526
#
#
#
# Elastic Compliance Matrix: (Units=1/GPa)
#
#
# Indices 1 2 3 4 5 6 
#
# 1 0.025223 0.000951 -0.007385 0.000000 0.000000 0.000000
# 2 0.000951 0.014037 0.000891 0.000000 0.000000 0.000000
# 3 -0.007385 0.000891 0.014944 0.000000 0.000000 0.000000
# 4 0.000000 0.000000 0.000000 0.481283 0.000000 0.000000
# 5 0.000000 0.000000 0.000000 0.000000 0.107059 0.000000
# 6 0.000000 0.000000 0.000000 0.000000 0.000000 0.025871
#
#
# Mechanical properties :
#
#
# Convention : Reuss Voigt Hill
#
# Bulk Modulus (GPa) = 23.19141 24.62986 23.91063
# Shear Modulus (GPa) = 7.20591 22.37205 14.78898
#
# Velocity S-wave (km/s) = 2.09935 3.69908 3.00753
# Velocity P-wave (km/s) = 4.47891 5.77133 5.16570
#
# Compressibility (1/GPa) = 0.04311942
#
# Stress axis : x y z
#
# Youngs Moduli (GPa) = 39.64574 71.24076 66.91839
#
# Poissons Ratio (x) = -0.06778 0.49419
# Poissons Ratio (y) = -0.03772 -0.05965
# Poissons Ratio (z) = 0.29278 -0.06350
#
# Static dielectric constant tensor:
#      x y z
#    x 1.512370 0.000000 0.000000 
#    y 0.000000 1.542720 0.000000 
#    z 0.000000 0.000000 1.558400 
# 
# From -- ./inp_files/67139.got.cif
#   From: 2010.05.17/outbox.cif.g08.bks.cpg/sg66_34_cif.got.tgz:67139.got - 2010.06.03 17:51:23.
