data_PCOD9497441
_publ_section_title
;
Structure prediction by ZEFSAII (Michael W. Deem and Ramdas Pophale) SiO2 
 PCOD9497441
Probable space group: C C C M
;
_chemical_formula_sum "Si O2"
_cell_formula_units_Z 104
_cell_length_a 21.249115
_cell_length_b 9.237664
_cell_length_c 26.097839
_cell_angle_alpha 90.000000
_cell_angle_beta 90.000000
_cell_angle_gamma 90.000000
_cell_volume 5122.801832
_symmetry_space_group_name_H-M "C C C M"
_symmetry_group_IT_number 66
_symmetry_cell_setting 'orthorhombic'
loop_
_space_group_symop_operation_xyz
x,y,z
-x,-y,z
x,-y,1/2-z
-x,y,1/2-z
-x,-y,-z
x,y,-z
-x,y,1/2+z
x,-y,1/2+z
1/2+x,1/2+y,z
1/2-x,1/2-y,z
1/2+x,1/2-y,1/2-z
1/2-x,1/2+y,1/2-z
1/2-x,1/2-y,-z
1/2+x,1/2+y,-z
1/2-x,1/2+y,1/2+z
1/2+x,1/2-y,1/2+z
loop_
_atom_site_type_symbol
_atom_site_label
_atom_site_fract_x
_atom_site_fract_y
_atom_site_fract_z
Si Si1 0.245198 0.000000 0.250000
Si Si2 0.800456 0.384202 0.060063
Si Si3 0.567579 0.141497 0.711916
Si Si4 0.352928 0.710400 0.795495
Si Si5 0.974154 0.840017 0.651286
Si Si6 0.044811 0.640495 0.940245
Si Si7 0.178168 0.521838 0.341198
O O1 0.202377 0.105531 0.282281
O O2 0.284415 0.912991 0.292822
O O3 0.750000 0.250000 0.069257
O O4 0.877769 0.365625 0.066387
O O5 0.789616 0.506688 0.103778
O O6 0.791472 0.423077 0.000000
O O7 0.607307 0.255929 0.744510
O O8 0.506534 0.223193 0.690117
O O9 0.562840 0.000000 0.750000
O O10 0.609096 0.091297 0.663117
O O11 0.401418 0.644693 0.835112
O O12 0.330200 0.858300 0.820748
O O13 0.979233 0.768113 0.595979
O O14 0.000000 0.000000 0.656210
O O15 0.000000 0.500000 0.928302
O O16 0.035020 0.669762 0.000000
#
# Coordination Sequence:
#
# PCOD9497441 Si02
#       7
#     8  16  16  16  16  16  16
#     4  12  22  36  59  85 128 160 206 266 336 380
#     4  10  20  37  62  92 123 161 214 278 337 390
#     4  10  23  40  61  88 123 177 218 260 318 396
#     4  11  22  37  54  85 125 161 207 259 314 395
#     4  12  25  40  62  93 130 170 214 269 336 397
#     4  10  22  41  68  98 128 167 221 279 330 398
#     4  11  21  36  61  91 118 165 217 267 320 386
#
# _framework density 20.301390999999999
#
# number of rings (size 3 to 8) (size 9 to 14) (size 15 to 20)
#    0.000    1.231    3.846    3.692    2.154    2.769 
#    0.000    0.000    0.000    0.000    0.000    2.154 
#    0.000    0.615    0.000    0.000    0.000    0.000 
#
# Total GULP energy -289767.599083 kJ/mol
# GULP energy per Si atom -5572.453829 kJ/mol
# Density = 2.025518 g / cm^3
# Si number density = 20.301391 Si / 1000 Ang^3
#
#
#
# Elastic Constant Matrix: (Units=GPa)
#
#
# Indices 1 2 3 4 5 6 
#
# 1 107.8366 31.8592 24.1533 0.0000 0.0000 0.0000
# 2 31.8592 61.0502 17.4067 0.0000 0.0000 0.0000
# 3 24.1533 17.4067 108.7336 0.0000 0.0000 0.0000
# 4 0.0000 0.0000 0.0000 24.4128 0.0000 0.0000
# 5 0.0000 0.0000 0.0000 0.0000 19.9087 0.0000
# 6 0.0000 0.0000 0.0000 0.0000 0.0000 31.2906
#
#
#
# Elastic Compliance Matrix: (Units=1/GPa)
#
#
# Indices 1 2 3 4 5 6 
#
# 1 0.011233 -0.005397 -0.001631 0.000000 0.000000 0.000000
# 2 -0.005397 0.019756 -0.001964 0.000000 0.000000 0.000000
# 3 -0.001631 -0.001964 0.009874 0.000000 0.000000 0.000000
# 4 0.000000 0.000000 0.000000 0.040962 0.000000 0.000000
# 5 0.000000 0.000000 0.000000 0.000000 0.050229 0.000000
# 6 0.000000 0.000000 0.000000 0.000000 0.000000 0.031958
#
#
# Mechanical properties :
#
#
# Convention : Reuss Voigt Hill
#
# Bulk Modulus (GPa) = 43.70854 47.16211 45.43533
# Shear Modulus (GPa) = 26.36808 28.73584 27.55196
#
# Velocity S-wave (km/s) = 3.60784 3.76634 3.68794
# Velocity P-wave (km/s) = 6.23954 6.49578 6.36895
#
# Compressibility (1/GPa) = 0.02287882
#
# Stress axis : x y z
#
# Youngs Moduli (GPa) = 89.02236 50.61673 101.28085
#
# Poissons Ratio (x) = 0.27318 0.16522
# Poissons Ratio (y) = 0.48045 0.19890
# Poissons Ratio (z) = 0.14522 0.09940
#
# Static dielectric constant tensor:
#      x y z
#    x 1.822760 0.000000 0.000000 
#    y 0.000000 1.745560 0.000000 
#    z 0.000000 0.000000 1.752460 
# 
# From -- ./inp_files/65736.got.cif
#   From: 2010.05.17/outbox.cif.g08.bks.cpg/sg66_33_cif.got.tgz:65736.got - 2010.06.03 17:51:23.
