data_PCOD9497393
_publ_section_title
;
Structure prediction by ZEFSAII (Michael W. Deem and Ramdas Pophale) SiO2 
 PCOD9497393
Probable space group: C C C M
;
_chemical_formula_sum "Si O2"
_cell_formula_units_Z 72
_cell_length_a 21.748743
_cell_length_b 8.878069
_cell_length_c 19.339957
_cell_angle_alpha 90.000000
_cell_angle_beta 90.000000
_cell_angle_gamma 90.000000
_cell_volume 3734.291203
_symmetry_space_group_name_H-M "C C C M"
_symmetry_group_IT_number 66
_symmetry_cell_setting 'orthorhombic'
loop_
_space_group_symop_operation_xyz
x,y,z
-x,-y,z
x,-y,1/2-z
-x,y,1/2-z
-x,-y,-z
x,y,-z
-x,y,1/2+z
x,-y,1/2+z
1/2+x,1/2+y,z
1/2-x,1/2-y,z
1/2+x,1/2-y,1/2-z
1/2-x,1/2+y,1/2-z
1/2-x,1/2-y,-z
1/2+x,1/2+y,-z
1/2-x,1/2+y,1/2+z
1/2+x,1/2-y,1/2+z
loop_
_atom_site_type_symbol
_atom_site_label
_atom_site_fract_x
_atom_site_fract_y
_atom_site_fract_z
Si Si1 0.254805 0.421181 0.354025
Si Si2 0.646855 0.824754 0.000000
Si Si3 0.384302 0.964920 0.357501
Si Si4 0.430306 0.224307 0.727693
Si Si5 0.153259 0.000000 0.250000
Si Si6 0.282404 0.481828 0.000000
O O1 0.250000 0.250000 0.326352
O O2 0.186297 0.483923 0.352617
O O3 0.298937 0.532544 0.311459
O O4 0.282519 0.419651 0.430956
O O5 0.611447 0.882369 0.931412
O O6 0.665212 0.647729 0.000000
O O7 0.714850 0.902291 0.000000
O O8 0.399935 0.856167 0.294123
O O9 0.424636 0.113146 0.338295
O O10 0.500000 0.253920 0.750000
O O11 0.390368 0.372701 0.719119
#
# Coordination Sequence:
#
# PCOD9497393 Si02
#       6
#    16   8  16  16   8   8
#     4  11  21  35  58  91 120 150 187 234 293 350
#     4   9  18  34  57  89 113 151 186 234 287 352
#     4  10  20  37  61  84 115 147 190 236 285 345
#     4  11  23  40  57  80 113 156 199 241 286 336
#     4  12  23  36  58  86 117 152 190 244 290 338
#     4   9  19  34  54  85 129 154 173 222 301 361
#
# _framework density 19.280767999999998
#
# number of rings (size 3 to 8) (size 9 to 14) (size 15 to 20)
#    0.000    1.556    2.222    4.667    0.000    1.778 
#    0.000    2.222    0.000    0.000    0.000    6.222 
#    0.000    0.000    0.000    0.000    0.000    0.000 
#
# Total GULP energy -200683.260505 kJ/mol
# GULP energy per Si atom -5574.535014 kJ/mol
# Density = 1.923688 g / cm^3
# Si number density = 19.280768 Si / 1000 Ang^3
#
#
#
# Elastic Constant Matrix: (Units=GPa)
#
#
# Indices 1 2 3 4 5 6 
#
# 1 65.4383 -4.6579 9.1143 0.0000 0.0000 0.0000
# 2 -4.6579 33.7404 -7.9902 0.0000 0.0000 0.0000
# 3 9.1143 -7.9902 85.1647 0.0000 0.0000 0.0000
# 4 0.0000 0.0000 0.0000 16.6765 0.0000 0.0000
# 5 0.0000 0.0000 0.0000 0.0000 14.0258 0.0000
# 6 0.0000 0.0000 0.0000 0.0000 0.0000 7.2157
#
#
#
# Elastic Compliance Matrix: (Units=1/GPa)
#
#
# Indices 1 2 3 4 5 6 
#
# 1 0.015619 0.001800 -0.001503 0.000000 0.000000 0.000000
# 2 0.001800 0.030519 0.002671 0.000000 0.000000 0.000000
# 3 -0.001503 0.002671 0.012153 0.000000 0.000000 0.000000
# 4 0.000000 0.000000 0.000000 0.059965 0.000000 0.000000
# 5 0.000000 0.000000 0.000000 0.000000 0.071297 0.000000
# 6 0.000000 0.000000 0.000000 0.000000 0.000000 0.138587
#
#
# Mechanical properties :
#
#
# Convention : Reuss Voigt Hill
#
# Bulk Modulus (GPa) = 15.56951 19.69731 17.63341
# Shear Modulus (GPa) = 14.55126 20.10874 17.33000
#
# Velocity S-wave (km/s) = 2.75017 3.23297 3.00129
# Velocity P-wave (km/s) = 4.26348 4.91674 4.60171
#
# Compressibility (1/GPa) = 0.06422811
#
# Stress axis : x y z
#
# Youngs Moduli (GPa) = 64.02451 32.76646 82.28206
#
# Poissons Ratio (x) = -0.05899 0.12364
# Poissons Ratio (y) = -0.11527 -0.21974
# Poissons Ratio (z) = 0.09620 -0.08751
#
# Static dielectric constant tensor:
#      x y z
#    x 1.658960 0.000000 0.000000 
#    y 0.000000 1.719900 0.000000 
#    z 0.000000 0.000000 1.793600 
# 
# From -- ./inp_files/43465.got.cif
#   From: 2010.05.17/outbox.cif.g08.bks.cpg/sg66_22_cif.got.tgz:43465.got - 2010.06.03 17:51:23.
