data_PCOD9497998
_publ_section_title
;
Structure prediction by ZEFSAII (Michael W. Deem and Ramdas Pophale) SiO2 
 PCOD9497998
Probable space group: C C C M
;
_chemical_formula_sum "Si O2"
_cell_formula_units_Z 112
_cell_length_a 13.383612
_cell_length_b 28.041712
_cell_length_c 15.182004
_cell_angle_alpha 90.000000
_cell_angle_beta 90.000000
_cell_angle_gamma 90.000000
_cell_volume 5697.796889
_symmetry_space_group_name_H-M "C C C M"
_symmetry_group_IT_number 66
_symmetry_cell_setting 'orthorhombic'
loop_
_space_group_symop_operation_xyz
x,y,z
-x,-y,z
x,-y,1/2-z
-x,y,1/2-z
-x,-y,-z
x,y,-z
-x,y,1/2+z
x,-y,1/2+z
1/2+x,1/2+y,z
1/2-x,1/2-y,z
1/2+x,1/2-y,1/2-z
1/2-x,1/2+y,1/2-z
1/2-x,1/2-y,-z
1/2+x,1/2+y,-z
1/2-x,1/2+y,1/2+z
1/2+x,1/2-y,1/2+z
loop_
_atom_site_type_symbol
_atom_site_label
_atom_site_fract_x
_atom_site_fract_y
_atom_site_fract_z
Si Si1 0.610220 0.092965 0.898760
Si Si2 0.166543 0.992856 0.000000
Si Si3 0.077463 0.868500 0.327816
Si Si4 0.202071 0.396428 0.206502
Si Si5 0.667817 0.005053 0.647204
Si Si6 0.359514 0.268744 0.101358
Si Si7 0.991601 0.079338 0.500000
Si Si8 0.955246 0.325500 0.346855
O O1 0.678911 0.102002 0.811594
O O2 0.525207 0.133608 0.889936
O O3 0.589231 0.036144 0.881027
O O4 0.648503 0.096004 0.000000
O O5 0.238556 0.995811 0.915758
O O6 0.091144 0.037335 0.000000
O O7 0.098964 0.945894 0.000000
O O8 0.180606 0.896552 0.310075
O O9 0.105019 0.813157 0.341240
O O10 0.027022 0.888936 0.414994
O O11 0.000000 0.874832 0.250000
O O12 0.147108 0.438584 0.150765
O O13 0.152691 0.349099 0.168010
O O14 0.694602 0.000000 0.750000
O O15 0.250000 0.250000 0.128497
O O16 0.436731 0.224573 0.106364
O O17 0.350726 0.285048 0.000000
O O18 0.000000 0.316610 0.250000
#
# Coordination Sequence:
#
# PCOD9497998 Si02
#       8
#    16   8  16  16  16  16   8  16
#     4  10  21  38  61  94 124 169 214 256 316 383
#     4  11  22  40  62  87 130 173 209 272 306 381
#     4  12  25  42  64  94 129 168 215 266 322 378
#     4  10  22  41  62  91 130 169 208 265 318 380
#     4  10  21  37  61  89 127 165 209 254 317 377
#     4  11  22  40  66  93 122 162 209 262 320 380
#     4  11  26  40  61  94 125 168 228 255 318 385
#     4  10  21  40  65  89 126 164 206 260 318 376
#
# _framework density 19.656721000000001
#
# number of rings (size 3 to 8) (size 9 to 14) (size 15 to 20)
#    0.000    1.429    4.286    0.857    4.000    0.571 
#    3.857    5.000    0.000    0.000    0.000    6.500 
#    0.000    0.000    0.000    0.000    0.000    0.000 
#
# Total GULP energy -312156.515283 kJ/mol
# GULP energy per Si atom -5574.223487 kJ/mol
# Density = 1.961198 g / cm^3
# Si number density = 19.656721 Si / 1000 Ang^3
#
#
#
# Elastic Constant Matrix: (Units=GPa)
#
#
# Indices 1 2 3 4 5 6 
#
# 1 66.4074 31.4987 34.4200 0.0000 0.0000 0.0000
# 2 31.4987 102.8724 34.5860 0.0000 0.0000 0.0000
# 3 34.4200 34.5860 105.4689 0.0000 0.0000 0.0000
# 4 0.0000 0.0000 0.0000 25.4983 0.0000 0.0000
# 5 0.0000 0.0000 0.0000 0.0000 9.0482 0.0000
# 6 0.0000 0.0000 0.0000 0.0000 0.0000 32.6939
#
#
#
# Elastic Compliance Matrix: (Units=1/GPa)
#
#
# Indices 1 2 3 4 5 6 
#
# 1 0.019719 -0.004354 -0.005008 0.000000 0.000000 0.000000
# 2 -0.004354 0.011887 -0.002477 0.000000 0.000000 0.000000
# 3 -0.005008 -0.002477 0.011928 0.000000 0.000000 0.000000
# 4 0.000000 0.000000 0.000000 0.039218 0.000000 0.000000
# 5 0.000000 0.000000 0.000000 0.000000 0.110519 0.000000
# 6 0.000000 0.000000 0.000000 0.000000 0.000000 0.030587
#
#
# Mechanical properties :
#
#
# Convention : Reuss Voigt Hill
#
# Bulk Modulus (GPa) = 50.36147 52.86201 51.61174
# Shear Modulus (GPa) = 19.67301 25.06435 22.36868
#
# Velocity S-wave (km/s) = 3.16702 3.57473 3.37703
# Velocity P-wave (km/s) = 6.24896 6.63244 6.44355
#
# Compressibility (1/GPa) = 0.01985645
#
# Stress axis : x y z
#
# Youngs Moduli (GPa) = 50.71130 84.12686 83.83676
#
# Poissons Ratio (x) = 0.36632 0.41982
# Poissons Ratio (y) = 0.22082 0.20766
# Poissons Ratio (z) = 0.25394 0.20838
#
# Static dielectric constant tensor:
#      x y z
#    x 1.677500 0.000000 0.000000 
#    y 0.000000 1.741330 0.000000 
#    z 0.000000 0.000000 1.650600 
# 
# From -- ./inp_files/28917.got.cif
#   From: 2010.05.17/outbox.cif.g08.bks.cpg/sg66_15_cif.got.tgz:28917.got - 2010.06.03 17:51:23.
